
 OpenBabel03272502273D

 40 43  0  0  0  0  0  0  0  0999 V2000
   36.0940   24.8820   31.3230 C   0  0  0  0  0  0  0  0  0  0  0  0
   36.7050   24.0540   32.2850 C   0  0  0  0  0  0  0  0  0  0  0  0
   37.5010   24.6620   33.2350 C   0  0  0  0  0  0  0  0  0  0  0  0
   37.6340   25.9950   33.1730 N   0  0  0  0  0  0  0  0  0  0  0  0
   37.0470   26.7780   32.2520 C   0  0  0  0  0  0  0  0  0  0  0  0
   36.2720   26.2080   31.3230 N   0  0  0  0  0  0  0  0  0  0  0  0
   35.4720   24.4260   30.5780 H   0  0  0  0  0  0  0  0  0  0  0  0
   36.5790   22.9860   32.3070 H   0  0  0  0  0  0  0  0  0  0  0  0
   38.1790   23.9290   34.2740 C   0  0  0  0  0  0  0  0  0  0  0  0
   39.1030   22.9380   33.9540 C   0  0  0  0  0  0  0  0  0  0  0  0
   39.7830   22.2060   34.9060 C   0  0  0  0  0  0  0  0  0  0  0  0
   39.5440   22.4600   36.2130 N   0  0  0  0  0  0  0  0  0  0  0  0
   38.6530   23.4150   36.5010 C   0  0  0  0  0  0  0  0  0  0  0  0
   37.9790   24.1400   35.5930 N   0  0  0  0  0  0  0  0  0  0  0  0
   39.3090   22.7190   32.9130 H   0  0  0  0  0  0  0  0  0  0  0  0
   40.5000   21.4380   34.6220 H   0  0  0  0  0  0  0  0  0  0  0  0
   38.3720   23.7140   37.9310 C   0  0  0  0  0  0  0  0  0  0  0  0
   39.4990   23.3030   38.6770 F   0  0  0  0  0  0  0  0  0  0  0  0
   38.0980   25.0400   38.1240 F   0  0  0  0  0  0  0  0  0  0  0  0
   37.3340   22.9420   38.4200 F   0  0  0  0  0  0  0  0  0  0  0  0
   37.2960   28.1390   32.3390 O   0  0  0  0  0  0  0  0  0  0  0  0
   34.6980   30.5430   31.3850 N   0  0  0  0  0  0  0  0  0  0  0  0
   35.7130   29.6870   31.2110 C   0  0  0  0  0  0  0  0  0  0  0  0
   36.2600   29.0440   32.2930 C   0  0  0  0  0  0  0  0  0  0  0  0
   35.7320   29.3080   33.5630 C   0  0  0  0  0  0  0  0  0  0  0  0
   36.0740   28.8370   34.6920 O   0  0  0  0  0  0  0  0  0  0  0  0
   34.7040   30.1850   33.6720 N   0  0  0  0  0  0  0  0  0  0  0  0
   34.1910   30.7970   32.5940 C   0  0  0  0  0  0  0  0  0  0  0  0
   33.2290   31.6210   32.6720 O   0  0  0  0  0  0  0  0  0  0  0  0
   34.3550   30.9760   30.4990 H   0  0  0  0  0  0  0  0  0  0  0  0
   36.1680   29.4360   30.2770 H   0  0  0  0  0  0  0  0  0  0  0  0
   36.0260   32.4780   35.3450 Br  0  0  0  0  0  0  0  0  0  0  0  0
   34.4630   31.4930   35.8230 C   0  0  0  0  0  0  0  0  0  0  0  0
   34.0870   30.5320   34.9070 C   0  0  0  0  0  0  0  0  0  0  0  0
   32.9590   29.7390   35.1320 C   0  0  0  0  0  0  0  0  0  0  0  0
   32.5740   28.9640   34.4920 H   0  0  0  0  0  0  0  0  0  0  0  0
   32.1990   29.9110   36.2930 C   0  0  0  0  0  0  0  0  0  0  0  0
   31.3190   29.3260   36.5160 H   0  0  0  0  0  0  0  0  0  0  0  0
   32.6030   30.8830   37.1910 C   0  0  0  0  0  3  0  0  0  0  0  0
   33.7170   31.6700   36.9700 C   0  0  0  0  0  3  0  0  0  0  0  0
  1  2  1  0  0  0  0
  2  8  1  0  0  0  0
  2  3  2  0  0  0  0
  3  9  1  0  0  0  0
  4  3  1  0  0  0  0
  5 21  1  0  0  0  0
  5  4  2  0  0  0  0
  6  1  2  0  0  0  0
  6  5  1  0  0  0  0
  7  1  1  0  0  0  0
  9 14  1  0  0  0  0
 10  9  2  0  0  0  0
 10 11  1  0  0  0  0
 11 12  2  0  0  0  0
 12 13  1  0  0  0  0
 13 17  1  0  0  0  0
 14 13  2  0  0  0  0
 15 10  1  0  0  0  0
 16 11  1  0  0  0  0
 17 19  1  0  0  0  0
 17 20  1  0  0  0  0
 17 18  1  0  0  0  0
 22 28  1  0  0  0  0
 23 22  1  0  0  0  0
 23 24  2  0  0  0  0
 24 21  1  0  0  0  0
 24 25  1  0  0  0  0
 25 27  1  0  0  0  0
 25 26  2  0  0  0  0
 27 34  1  0  0  0  0
 28 29  2  0  0  0  0
 28 27  1  0  0  0  0
 30 22  1  0  0  0  0
 31 23  1  0  0  0  0
 32 33  1  0  0  0  0
 33 40  1  0  0  0  0
 34 35  1  0  0  0  0
 34 33  2  0  0  0  0
 35 37  2  0  0  0  0
 36 35  1  0  0  0  0
 37 38  1  0  0  0  0
 37 39  1  0  0  0  0
 40 39  2  0  0  0  0
M  END
>  <minimizedAffinity>
-7.19108438

$$$$

 OpenBabel03272502273D

 40 43  0  0  0  0  0  0  0  0999 V2000
   37.1840   28.7720   29.8180 C   0  0  0  0  0  0  0  0  0  0  0  0
   36.2300   29.3720   30.6630 C   0  0  0  0  0  0  0  0  0  0  0  0
   36.2560   29.0250   31.9990 C   0  0  0  0  0  0  0  0  0  0  0  0
   37.1870   28.1440   32.3950 N   0  0  0  0  0  0  0  0  0  0  0  0
   38.0930   27.5770   31.5810 C   0  0  0  0  0  0  0  0  0  0  0  0
   38.0850   27.8990   30.2840 N   0  0  0  0  0  0  0  0  0  0  0  0
   37.1780   29.0300   28.7770 H   0  0  0  0  0  0  0  0  0  0  0  0
   35.4950   30.0760   30.3140 H   0  0  0  0  0  0  0  0  0  0  0  0
   35.3380   29.5700   32.9680 C   0  0  0  0  0  0  0  0  0  0  0  0
   33.9850   29.2410   32.9240 C   0  0  0  0  0  0  0  0  0  0  0  0
   33.0610   29.7300   33.8250 C   0  0  0  0  0  0  0  0  0  0  0  0
   33.4850   30.5690   34.7980 N   0  0  0  0  0  0  0  0  0  0  0  0
   34.7880   30.8730   34.8240 C   0  0  0  0  0  0  0  0  0  0  0  0
   35.7060   30.4110   33.9590 N   0  0  0  0  0  0  0  0  0  0  0  0
   33.6250   28.5710   32.1520 H   0  0  0  0  0  0  0  0  0  0  0  0
   32.0120   29.4530   33.7630 H   0  0  0  0  0  0  0  0  0  0  0  0
   35.2790   31.7930   35.8850 C   0  0  0  0  0  0  0  0  0  0  0  0
   36.6350   31.4770   36.1230 F   0  0  0  0  0  0  0  0  0  0  0  0
   35.1250   33.1040   35.5250 F   0  0  0  0  0  0  0  0  0  0  0  0
   34.6520   31.5600   37.0950 F   0  0  0  0  0  0  0  0  0  0  0  0
   38.9820   26.6850   32.1630 O   0  0  0  0  0  0  0  0  0  0  0  0
   37.5410   23.3410   32.5810 N   0  0  0  0  0  0  0  0  0  0  0  0
   37.8740   24.4720   31.9450 C   0  0  0  0  0  0  0  0  0  0  0  0
   38.5490   25.4600   32.6170 C   0  0  0  0  0  0  0  0  0  0  0  0
   38.8710   25.2530   33.9640 C   0  0  0  0  0  0  0  0  0  0  0  0
   39.4810   26.0170   34.7740 O   0  0  0  0  0  0  0  0  0  0  0  0
   38.5030   24.0860   34.5490 N   0  0  0  0  0  0  0  0  0  0  0  0
   37.8450   23.1380   33.8650 C   0  0  0  0  0  0  0  0  0  0  0  0
   37.4920   22.0390   34.3910 O   0  0  0  0  0  0  0  0  0  0  0  0
   37.0320   22.6550   31.9800 H   0  0  0  0  0  0  0  0  0  0  0  0
   37.6640   24.7020   30.9230 H   0  0  0  0  0  0  0  0  0  0  0  0
   41.1150   22.4650   35.1470 Br  0  0  0  0  0  0  0  0  0  0  0  0
   39.8430   23.0660   36.4360 C   0  0  0  0  0  0  0  0  0  0  0  0
   38.7740   23.7630   35.9080 C   0  0  0  0  0  0  0  0  0  0  0  0
   37.7700   24.2610   36.7410 C   0  0  0  0  0  0  0  0  0  0  0  0
   36.8970   24.8140   36.4420 H   0  0  0  0  0  0  0  0  0  0  0  0
   37.8360   24.0560   38.1230 C   0  0  0  0  0  0  0  0  0  0  0  0
   37.0880   24.4190   38.8120 H   0  0  0  0  0  0  0  0  0  0  0  0
   38.9200   23.3540   38.6210 C   0  0  0  0  0  3  0  0  0  0  0  0
   39.9150   22.8620   37.7990 C   0  0  0  0  0  3  0  0  0  0  0  0
  1  6  2  0  0  0  0
  1  2  1  0  0  0  0
  2  3  2  0  0  0  0
  3  4  1  0  0  0  0
  3  9  1  0  0  0  0
  5 21  1  0  0  0  0
  5  4  2  0  0  0  0
  6  5  1  0  0  0  0
  7  1  1  0  0  0  0
  8  2  1  0  0  0  0
  9 14  1  0  0  0  0
 10  9  2  0  0  0  0
 10 11  1  0  0  0  0
 11 12  2  0  0  0  0
 12 13  1  0  0  0  0
 13 17  1  0  0  0  0
 14 13  2  0  0  0  0
 15 10  1  0  0  0  0
 16 11  1  0  0  0  0
 17 18  1  0  0  0  0
 17 20  1  0  0  0  0
 19 17  1  0  0  0  0
 21 24  1  0  0  0  0
 22 28  1  0  0  0  0
 23 22  1  0  0  0  0
 23 24  2  0  0  0  0
 24 25  1  0  0  0  0
 25 27  1  0  0  0  0
 25 26  2  0  0  0  0
 27 34  1  0  0  0  0
 28 29  2  0  0  0  0
 28 27  1  0  0  0  0
 30 22  1  0  0  0  0
 31 23  1  0  0  0  0
 32 33  1  0  0  0  0
 33 40  1  0  0  0  0
 34 33  2  0  0  0  0
 34 35  1  0  0  0  0
 35 37  2  0  0  0  0
 36 35  1  0  0  0  0
 37 39  1  0  0  0  0
 37 38  1  0  0  0  0
 40 39  2  0  0  0  0
M  END
>  <minimizedAffinity>
-6.99707651

$$$$

 OpenBabel03272502273D

 40 43  0  0  0  0  0  0  0  0999 V2000
   37.1840   29.1730   30.0300 C   0  0  0  0  0  0  0  0  0  0  0  0
   36.0920   29.5900   30.8150 C   0  0  0  0  0  0  0  0  0  0  0  0
   36.0030   29.0900   32.0990 C   0  0  0  0  0  0  0  0  0  0  0  0
   36.9630   28.2440   32.5040 N   0  0  0  0  0  0  0  0  0  0  0  0
   38.0020   27.8520   31.7480 C   0  0  0  0  0  0  0  0  0  0  0  0
   38.1050   28.3250   30.5020 N   0  0  0  0  0  0  0  0  0  0  0  0
   37.2680   29.5520   29.0300 H   0  0  0  0  0  0  0  0  0  0  0  0
   35.3370   30.2700   30.4600 H   0  0  0  0  0  0  0  0  0  0  0  0
   34.9380   29.4410   33.0040 C   0  0  0  0  0  0  0  0  0  0  0  0
   35.1670   30.3170   34.0620 C   0  0  0  0  0  0  0  0  0  0  0  0
   34.1860   30.6900   34.9570 C   0  0  0  0  0  0  0  0  0  0  0  0
   32.9400   30.1840   34.8040 N   0  0  0  0  0  0  0  0  0  0  0  0
   32.7390   29.3440   33.7810 C   0  0  0  0  0  0  0  0  0  0  0  0
   33.6780   28.9660   32.8980 N   0  0  0  0  0  0  0  0  0  0  0  0
   36.1570   30.7340   34.2030 H   0  0  0  0  0  0  0  0  0  0  0  0
   34.3980   31.3780   35.7730 H   0  0  0  0  0  0  0  0  0  0  0  0
   31.3790   28.7730   33.5910 C   0  0  0  0  0  0  0  0  0  0  0  0
   30.9970   28.1760   34.8120 F   0  0  0  0  0  0  0  0  0  0  0  0
   30.4830   29.7290   33.1980 F   0  0  0  0  0  0  0  0  0  0  0  0
   31.3850   27.7310   32.6820 F   0  0  0  0  0  0  0  0  0  0  0  0
   38.9000   26.9720   32.3300 O   0  0  0  0  0  0  0  0  0  0  0  0
   37.5340   23.5800   32.5870 N   0  0  0  0  0  0  0  0  0  0  0  0
   37.8410   24.7470   32.0070 C   0  0  0  0  0  0  0  0  0  0  0  0
   38.4950   25.7170   32.7250 C   0  0  0  0  0  0  0  0  0  0  0  0
   38.8240   25.4520   34.0600 C   0  0  0  0  0  0  0  0  0  0  0  0
   39.4190   26.1890   34.9060 O   0  0  0  0  0  0  0  0  0  0  0  0
   38.4830   24.2490   34.5880 N   0  0  0  0  0  0  0  0  0  0  0  0
   37.8450   23.3220   33.8600 C   0  0  0  0  0  0  0  0  0  0  0  0
   37.5170   22.1910   34.3320 O   0  0  0  0  0  0  0  0  0  0  0  0
   37.0390   22.9130   31.9540 H   0  0  0  0  0  0  0  0  0  0  0  0
   37.6240   25.0220   30.9970 H   0  0  0  0  0  0  0  0  0  0  0  0
   41.1520   22.6990   35.1120 Br  0  0  0  0  0  0  0  0  0  0  0  0
   39.8560   23.1850   36.4260 C   0  0  0  0  0  0  0  0  0  0  0  0
   38.7640   23.8670   35.9300 C   0  0  0  0  0  0  0  0  0  0  0  0
   37.7400   24.2840   36.7840 C   0  0  0  0  0  0  0  0  0  0  0  0
   36.8470   24.8190   36.5110 H   0  0  0  0  0  0  0  0  0  0  0  0
   37.8110   24.0110   38.1540 C   0  0  0  0  0  0  0  0  0  0  0  0
   37.0490   24.3100   38.8580 H   0  0  0  0  0  0  0  0  0  0  0  0
   38.9200   23.3250   38.6190 C   0  0  0  0  0  3  0  0  0  0  0  0
   39.9340   22.9130   37.7770 C   0  0  0  0  0  3  0  0  0  0  0  0
  1  6  2  0  0  0  0
  1  2  1  0  0  0  0
  2  3  2  0  0  0  0
  3  4  1  0  0  0  0
  3  9  1  0  0  0  0
  5 21  1  0  0  0  0
  5  4  2  0  0  0  0
  6  5  1  0  0  0  0
  7  1  1  0  0  0  0
  8  2  1  0  0  0  0
  9 10  1  0  0  0  0
 10 15  1  0  0  0  0
 10 11  2  0  0  0  0
 11 16  1  0  0  0  0
 12 11  1  0  0  0  0
 13 12  2  0  0  0  0
 14  9  2  0  0  0  0
 14 13  1  0  0  0  0
 17 13  1  0  0  0  0
 17 18  1  0  0  0  0
 19 17  1  0  0  0  0
 20 17  1  0  0  0  0
 21 24  1  0  0  0  0
 22 28  1  0  0  0  0
 23 22  1  0  0  0  0
 23 24  2  0  0  0  0
 24 25  1  0  0  0  0
 25 27  1  0  0  0  0
 25 26  2  0  0  0  0
 27 34  1  0  0  0  0
 28 29  2  0  0  0  0
 28 27  1  0  0  0  0
 30 22  1  0  0  0  0
 31 23  1  0  0  0  0
 32 33  1  0  0  0  0
 33 40  1  0  0  0  0
 34 33  2  0  0  0  0
 34 35  1  0  0  0  0
 35 37  2  0  0  0  0
 36 35  1  0  0  0  0
 37 39  1  0  0  0  0
 37 38  1  0  0  0  0
 40 39  2  0  0  0  0
M  END
>  <minimizedAffinity>
-6.83193254

$$$$

 OpenBabel03272502273D

 40 43  0  0  0  0  0  0  0  0999 V2000
   35.4730   20.6260   33.4390 C   0  0  0  0  0  0  0  0  0  0  0  0
   36.2060   20.9080   34.6080 C   0  0  0  0  0  0  0  0  0  0  0  0
   37.2070   21.8550   34.5200 C   0  0  0  0  0  0  0  0  0  0  0  0
   37.4080   22.4370   33.3280 N   0  0  0  0  0  0  0  0  0  0  0  0
   36.7040   22.1620   32.2170 C   0  0  0  0  0  0  0  0  0  0  0  0
   35.7300   21.2480   32.2820 N   0  0  0  0  0  0  0  0  0  0  0  0
   34.6920   19.8930   33.4910 H   0  0  0  0  0  0  0  0  0  0  0  0
   36.0200   20.4230   35.5510 H   0  0  0  0  0  0  0  0  0  0  0  0
   38.0260   22.2360   35.6430 C   0  0  0  0  0  0  0  0  0  0  0  0
   37.4780   22.9420   36.7120 C   0  0  0  0  0  0  0  0  0  0  0  0
   38.2130   23.3300   37.8130 C   0  0  0  0  0  0  0  0  0  0  0  0
   39.5270   23.0130   37.8620 N   0  0  0  0  0  0  0  0  0  0  0  0
   40.0350   22.3350   36.8260 C   0  0  0  0  0  0  0  0  0  0  0  0
   39.3410   21.9470   35.7430 N   0  0  0  0  0  0  0  0  0  0  0  0
   36.4280   23.2050   36.6920 H   0  0  0  0  0  0  0  0  0  0  0  0
   37.7540   23.8800   38.6320 H   0  0  0  0  0  0  0  0  0  0  0  0
   41.4780   21.9740   36.8550 C   0  0  0  0  0  0  0  0  0  0  0  0
   41.6890   21.1700   37.9970 F   0  0  0  0  0  0  0  0  0  0  0  0
   41.8590   21.3310   35.7100 F   0  0  0  0  0  0  0  0  0  0  0  0
   42.2780   23.0840   37.0610 F   0  0  0  0  0  0  0  0  0  0  0  0
   37.0490   22.8600   31.0700 O   0  0  0  0  0  0  0  0  0  0  0  0
   39.7240   25.3660   31.0900 N   0  0  0  0  0  0  0  0  0  0  0  0
   39.1670   24.1540   30.9650 C   0  0  0  0  0  0  0  0  0  0  0  0
   37.8160   24.0000   31.1490 C   0  0  0  0  0  0  0  0  0  0  0  0
   37.0520   25.1300   31.4660 C   0  0  0  0  0  0  0  0  0  0  0  0
   35.8040   25.2260   31.6790 O   0  0  0  0  0  0  0  0  0  0  0  0
   37.6780   26.3280   31.5790 N   0  0  0  0  0  0  0  0  0  0  0  0
   39.0010   26.4460   31.3930 C   0  0  0  0  0  0  0  0  0  0  0  0
   39.6070   27.5560   31.4920 O   0  0  0  0  0  0  0  0  0  0  0  0
   40.7560   25.3730   30.9290 H   0  0  0  0  0  0  0  0  0  0  0  0
   39.6820   23.2490   30.7260 H   0  0  0  0  0  0  0  0  0  0  0  0
   37.1990   26.9550   34.6090 Br  0  0  0  0  0  0  0  0  0  0  0  0
   36.6770   28.0500   33.1370 C   0  0  0  0  0  0  0  0  0  0  0  0
   37.0080   27.5430   31.8970 C   0  0  0  0  0  0  0  0  0  0  0  0
   36.6850   28.2450   30.7340 C   0  0  0  0  0  0  0  0  0  0  0  0
   36.8920   27.9480   29.7200 H   0  0  0  0  0  0  0  0  0  0  0  0
   36.0190   29.4720   30.8140 C   0  0  0  0  0  0  0  0  0  0  0  0
   35.7460   30.0560   29.9470 H   0  0  0  0  0  0  0  0  0  0  0  0
   35.7010   29.9530   32.0720 C   0  0  0  0  0  3  0  0  0  0  0  0
   36.0200   29.2610   33.2250 C   0  0  0  0  0  3  0  0  0  0  0  0
  1  7  1  0  0  0  0
  1  2  1  0  0  0  0
  2  8  1  0  0  0  0
  3  2  2  0  0  0  0
  3  9  1  0  0  0  0
  4  3  1  0  0  0  0
  5  6  1  0  0  0  0
  5  4  2  0  0  0  0
  6  1  2  0  0  0  0
  9 14  2  0  0  0  0
  9 10  1  0  0  0  0
 10 11  2  0  0  0  0
 11 12  1  0  0  0  0
 11 16  1  0  0  0  0
 13 17  1  0  0  0  0
 13 12  2  0  0  0  0
 14 13  1  0  0  0  0
 15 10  1  0  0  0  0
 17 20  1  0  0  0  0
 17 18  1  0  0  0  0
 19 17  1  0  0  0  0
 21 24  1  0  0  0  0
 21  5  1  0  0  0  0
 22 28  1  0  0  0  0
 23 22  1  0  0  0  0
 23 24  2  0  0  0  0
 24 25  1  0  0  0  0
 25 27  1  0  0  0  0
 25 26  2  0  0  0  0
 27 34  1  0  0  0  0
 28 29  2  0  0  0  0
 28 27  1  0  0  0  0
 30 22  1  0  0  0  0
 31 23  1  0  0  0  0
 33 40  1  0  0  0  0
 33 32  1  0  0  0  0
 34 33  2  0  0  0  0
 35 37  2  0  0  0  0
 35 34  1  0  0  0  0
 36 35  1  0  0  0  0
 37 39  1  0  0  0  0
 38 37  1  0  0  0  0
 39 40  2  0  0  0  0
M  END
>  <minimizedAffinity>
-6.83043051

$$$$

 OpenBabel03272502273D

 40 43  0  0  0  0  0  0  0  0999 V2000
   40.2350   26.8440   32.2560 C   0  0  0  0  0  0  0  0  0  0  0  0
   40.4480   25.8710   33.2520 C   0  0  0  0  0  0  0  0  0  0  0  0
   39.3390   25.3940   33.9240 C   0  0  0  0  0  0  0  0  0  0  0  0
   38.1430   25.8930   33.5800 N   0  0  0  0  0  0  0  0  0  0  0  0
   37.9490   26.8210   32.6280 C   0  0  0  0  0  0  0  0  0  0  0  0
   39.0090   27.2950   31.9660 N   0  0  0  0  0  0  0  0  0  0  0  0
   41.0850   27.2250   31.7240 H   0  0  0  0  0  0  0  0  0  0  0  0
   41.4220   25.4910   33.5050 H   0  0  0  0  0  0  0  0  0  0  0  0
   39.4210   24.3960   34.9610 C   0  0  0  0  0  0  0  0  0  0  0  0
   40.1060   23.2030   34.7420 C   0  0  0  0  0  0  0  0  0  0  0  0
   40.2190   22.2140   35.6970 C   0  0  0  0  0  0  0  0  0  0  0  0
   39.6390   22.4080   36.9050 N   0  0  0  0  0  0  0  0  0  0  0  0
   38.9870   23.5600   37.0960 C   0  0  0  0  0  0  0  0  0  0  0  0
   38.8620   24.5370   36.1820 N   0  0  0  0  0  0  0  0  0  0  0  0
   40.5770   23.0280   33.7820 H   0  0  0  0  0  0  0  0  0  0  0  0
   40.7620   21.2930   35.4950 H   0  0  0  0  0  0  0  0  0  0  0  0
   38.3400   23.7980   38.4150 C   0  0  0  0  0  0  0  0  0  0  0  0
   37.8710   25.1300   38.4200 F   0  0  0  0  0  0  0  0  0  0  0  0
   37.3290   22.9070   38.6470 F   0  0  0  0  0  0  0  0  0  0  0  0
   39.2580   23.7500   39.4490 F   0  0  0  0  0  0  0  0  0  0  0  0
   36.6410   27.2220   32.4040 O   0  0  0  0  0  0  0  0  0  0  0  0
   36.1260   30.7280   31.4670 N   0  0  0  0  0  0  0  0  0  0  0  0
   36.5170   29.4560   31.3220 C   0  0  0  0  0  0  0  0  0  0  0  0
   36.3190   28.5590   32.3420 C   0  0  0  0  0  0  0  0  0  0  0  0
   35.7050   29.0090   33.5180 C   0  0  0  0  0  0  0  0  0  0  0  0
   35.4240   28.3680   34.5770 O   0  0  0  0  0  0  0  0  0  0  0  0
   35.3330   30.3110   33.6000 N   0  0  0  0  0  0  0  0  0  0  0  0
   35.5400   31.1630   32.5860 C   0  0  0  0  0  0  0  0  0  0  0  0
   35.2000   32.3840   32.6400 O   0  0  0  0  0  0  0  0  0  0  0  0
   36.3220   31.3260   30.6340 H   0  0  0  0  0  0  0  0  0  0  0  0
   36.9910   29.0390   30.4600 H   0  0  0  0  0  0  0  0  0  0  0  0
   32.2180   30.0540   33.8000 Br  0  0  0  0  0  0  0  0  0  0  0  0
   33.3610   30.9070   35.0680 C   0  0  0  0  0  0  0  0  0  0  0  0
   34.7030   30.8820   34.7420 C   0  0  0  0  0  0  0  0  0  0  0  0
   35.6490   31.4700   35.5830 C   0  0  0  0  0  0  0  0  0  0  0  0
   36.7140   31.5100   35.4310 H   0  0  0  0  0  0  0  0  0  0  0  0
   35.2470   32.0940   36.7680 C   0  0  0  0  0  0  0  0  0  0  0  0
   35.9360   32.5630   37.4540 H   0  0  0  0  0  0  0  0  0  0  0  0
   33.8950   32.1020   37.0670 C   0  0  0  0  0  3  0  0  0  0  0  0
   32.9570   31.5200   36.2370 C   0  0  0  0  0  3  0  0  0  0  0  0
  1  2  1  0  0  0  0
  2  8  1  0  0  0  0
  2  3  2  0  0  0  0
  3  9  1  0  0  0  0
  4  3  1  0  0  0  0
  5  4  2  0  0  0  0
  6  1  2  0  0  0  0
  6  5  1  0  0  0  0
  7  1  1  0  0  0  0
  9 14  1  0  0  0  0
 10  9  2  0  0  0  0
 10 11  1  0  0  0  0
 11 12  2  0  0  0  0
 12 13  1  0  0  0  0
 13 17  1  0  0  0  0
 14 13  2  0  0  0  0
 15 10  1  0  0  0  0
 16 11  1  0  0  0  0
 17 18  1  0  0  0  0
 17 19  1  0  0  0  0
 17 20  1  0  0  0  0
 21  5  1  0  0  0  0
 22 28  1  0  0  0  0
 23 22  1  0  0  0  0
 23 24  2  0  0  0  0
 24 21  1  0  0  0  0
 24 25  1  0  0  0  0
 25 27  1  0  0  0  0
 25 26  2  0  0  0  0
 27 34  1  0  0  0  0
 28 29  2  0  0  0  0
 28 27  1  0  0  0  0
 30 22  1  0  0  0  0
 31 23  1  0  0  0  0
 32 33  1  0  0  0  0
 33 40  1  0  0  0  0
 34 33  2  0  0  0  0
 34 35  1  0  0  0  0
 35 37  2  0  0  0  0
 36 35  1  0  0  0  0
 37 39  1  0  0  0  0
 37 38  1  0  0  0  0
 40 39  2  0  0  0  0
M  END
>  <minimizedAffinity>
-6.82955694

$$$$

 OpenBabel03272502273D

 40 43  0  0  0  0  0  0  0  0999 V2000
   37.0690   28.9820   30.2680 C   0  0  0  0  0  0  0  0  0  0  0  0
   36.4110   29.8110   31.1970 C   0  0  0  0  0  0  0  0  0  0  0  0
   35.5490   29.2060   32.0910 C   0  0  0  0  0  0  0  0  0  0  0  0
   35.4020   27.8760   32.0090 N   0  0  0  0  0  0  0  0  0  0  0  0
   36.0350   27.0920   31.1200 C   0  0  0  0  0  0  0  0  0  0  0  0
   36.8730   27.6580   30.2460 N   0  0  0  0  0  0  0  0  0  0  0  0
   37.7420   29.4350   29.5670 H   0  0  0  0  0  0  0  0  0  0  0  0
   36.5490   30.8770   31.2360 H   0  0  0  0  0  0  0  0  0  0  0  0
   34.8170   29.9410   33.0920 C   0  0  0  0  0  0  0  0  0  0  0  0
   33.4260   29.9870   33.0620 C   0  0  0  0  0  0  0  0  0  0  0  0
   32.6740   30.6720   33.9940 C   0  0  0  0  0  0  0  0  0  0  0  0
   33.3150   31.3310   34.9870 N   0  0  0  0  0  0  0  0  0  0  0  0
   34.6520   31.2750   35.0000 C   0  0  0  0  0  0  0  0  0  0  0  0
   35.4050   30.6160   34.1040 N   0  0  0  0  0  0  0  0  0  0  0  0
   32.8940   29.4660   32.2750 H   0  0  0  0  0  0  0  0  0  0  0  0
   31.5880   30.6880   33.9420 H   0  0  0  0  0  0  0  0  0  0  0  0
   35.3800   31.9910   36.0820 C   0  0  0  0  0  0  0  0  0  0  0  0
   34.7040   31.7250   37.2930 F   0  0  0  0  0  0  0  0  0  0  0  0
   36.6910   31.6080   36.1440 F   0  0  0  0  0  0  0  0  0  0  0  0
   35.2960   33.3630   35.9320 F   0  0  0  0  0  0  0  0  0  0  0  0
   35.7630   25.7340   31.1790 O   0  0  0  0  0  0  0  0  0  0  0  0
   38.0270   24.2620   33.6580 N   0  0  0  0  0  0  0  0  0  0  0  0
   37.4080   25.2320   32.9730 C   0  0  0  0  0  0  0  0  0  0  0  0
   36.5020   24.9070   31.9940 C   0  0  0  0  0  0  0  0  0  0  0  0
   36.2500   23.5530   31.7400 C   0  0  0  0  0  0  0  0  0  0  0  0
   35.4650   23.0240   30.8940 O   0  0  0  0  0  0  0  0  0  0  0  0
   36.9110   22.6200   32.4700 N   0  0  0  0  0  0  0  0  0  0  0  0
   37.7910   22.9700   33.4200 C   0  0  0  0  0  0  0  0  0  0  0  0
   38.4200   22.1150   34.1140 O   0  0  0  0  0  0  0  0  0  0  0  0
   38.6950   24.6160   34.3790 H   0  0  0  0  0  0  0  0  0  0  0  0
   37.5470   26.2830   33.1090 H   0  0  0  0  0  0  0  0  0  0  0  0
   38.7510   21.1870   30.3800 Br  0  0  0  0  0  0  0  0  0  0  0  0
   37.4120   20.3570   31.4570 C   0  0  0  0  0  0  0  0  0  0  0  0
   36.7390   21.2170   32.3010 C   0  0  0  0  0  0  0  0  0  0  0  0
   35.7340   20.7410   33.1460 C   0  0  0  0  0  0  0  0  0  0  0  0
   35.1460   21.3150   33.8410 H   0  0  0  0  0  0  0  0  0  0  0  0
   35.3970   19.3830   33.1430 C   0  0  0  0  0  0  0  0  0  0  0  0
   34.6290   18.9630   33.7760 H   0  0  0  0  0  0  0  0  0  0  0  0
   36.0910   18.5480   32.2850 C   0  0  0  0  0  3  0  0  0  0  0  0
   37.0860   19.0160   31.4500 C   0  0  0  0  0  3  0  0  0  0  0  0
  1  2  1  0  0  0  0
  2  8  1  0  0  0  0
  2  3  2  0  0  0  0
  3  9  1  0  0  0  0
  4  3  1  0  0  0  0
  5 21  1  0  0  0  0
  5  4  2  0  0  0  0
  6  1  2  0  0  0  0
  6  5  1  0  0  0  0
  7  1  1  0  0  0  0
  9 14  1  0  0  0  0
 10  9  2  0  0  0  0
 10 11  1  0  0  0  0
 11 12  2  0  0  0  0
 12 13  1  0  0  0  0
 13 17  1  0  0  0  0
 14 13  2  0  0  0  0
 15 10  1  0  0  0  0
 16 11  1  0  0  0  0
 17 19  1  0  0  0  0
 17 18  1  0  0  0  0
 20 17  1  0  0  0  0
 21 24  1  0  0  0  0
 22 30  1  0  0  0  0
 23 31  1  0  0  0  0
 23 22  1  0  0  0  0
 24 23  2  0  0  0  0
 25 24  1  0  0  0  0
 25 27  1  0  0  0  0
 26 25  2  0  0  0  0
 27 28  1  0  0  0  0
 28 22  1  0  0  0  0
 28 29  2  0  0  0  0
 32 33  1  0  0  0  0
 33 34  1  0  0  0  0
 34 27  1  0  0  0  0
 34 35  2  0  0  0  0
 35 36  1  0  0  0  0
 37 35  1  0  0  0  0
 37 38  1  0  0  0  0
 39 37  2  0  0  0  0
 40 33  2  0  0  0  0
 40 39  1  0  0  0  0
M  END
>  <minimizedAffinity>
-6.6814785

$$$$

 OpenBabel03272502273D

 40 43  0  0  0  0  0  0  0  0999 V2000
   37.2390   25.6380   32.6800 C   0  0  0  0  0  0  0  0  0  0  0  0
   37.7210   24.7720   33.6800 C   0  0  0  0  0  0  0  0  0  0  0  0
   37.8930   25.2940   34.9470 C   0  0  0  0  0  0  0  0  0  0  0  0
   37.5900   26.5870   35.1320 N   0  0  0  0  0  0  0  0  0  0  0  0
   37.1300   27.4070   34.1720 C   0  0  0  0  0  0  0  0  0  0  0  0
   36.9560   26.9200   32.9390 N   0  0  0  0  0  0  0  0  0  0  0  0
   37.0990   25.2480   31.6910 H   0  0  0  0  0  0  0  0  0  0  0  0
   37.9560   23.7370   33.4990 H   0  0  0  0  0  0  0  0  0  0  0  0
   38.3760   24.5120   36.0570 C   0  0  0  0  0  0  0  0  0  0  0  0
   37.6830   24.4930   37.2640 C   0  0  0  0  0  0  0  0  0  0  0  0
   38.0950   23.7620   38.3590 C   0  0  0  0  0  0  0  0  0  0  0  0
   39.2270   23.0270   38.2600 N   0  0  0  0  0  0  0  0  0  0  0  0
   39.8790   23.0570   37.0910 C   0  0  0  0  0  0  0  0  0  0  0  0
   39.4980   23.7610   36.0130 N   0  0  0  0  0  0  0  0  0  0  0  0
   36.7740   25.0750   37.3650 H   0  0  0  0  0  0  0  0  0  0  0  0
   37.5300   23.7690   39.2880 H   0  0  0  0  0  0  0  0  0  0  0  0
   41.1260   22.2570   36.9560 C   0  0  0  0  0  0  0  0  0  0  0  0
   42.2070   23.1650   36.9130 F   0  0  0  0  0  0  0  0  0  0  0  0
   41.2630   21.3610   37.9800 F   0  0  0  0  0  0  0  0  0  0  0  0
   41.1800   21.5970   35.7410 F   0  0  0  0  0  0  0  0  0  0  0  0
   36.8680   28.7170   34.5420 O   0  0  0  0  0  0  0  0  0  0  0  0
   33.6960   29.7090   32.9950 N   0  0  0  0  0  0  0  0  0  0  0  0
   34.7920   28.9660   33.2000 C   0  0  0  0  0  0  0  0  0  0  0  0
   35.6920   29.3280   34.1710 C   0  0  0  0  0  0  0  0  0  0  0  0
   35.4330   30.4790   34.9260 C   0  0  0  0  0  0  0  0  0  0  0  0
   36.1150   30.9980   35.8620 O   0  0  0  0  0  0  0  0  0  0  0  0
   34.3050   31.1870   34.6680 N   0  0  0  0  0  0  0  0  0  0  0  0
   33.4440   30.8060   33.7130 C   0  0  0  0  0  0  0  0  0  0  0  0
   32.3840   31.4520   33.4550 O   0  0  0  0  0  0  0  0  0  0  0  0
   33.0780   29.3460   32.2360 H   0  0  0  0  0  0  0  0  0  0  0  0
   35.0570   28.0790   32.6660 H   0  0  0  0  0  0  0  0  0  0  0  0
   32.4620   30.8560   37.1780 Br  0  0  0  0  0  0  0  0  0  0  0  0
   33.1450   32.5000   36.4910 C   0  0  0  0  0  0  0  0  0  0  0  0
   33.9370   32.3700   35.3690 C   0  0  0  0  0  0  0  0  0  0  0  0
   34.5030   33.4950   34.7640 C   0  0  0  0  0  0  0  0  0  0  0  0
   35.1320   33.5130   33.8910 H   0  0  0  0  0  0  0  0  0  0  0  0
   34.2690   34.7690   35.2910 C   0  0  0  0  0  0  0  0  0  0  0  0
   34.6810   35.6710   34.8640 H   0  0  0  0  0  0  0  0  0  0  0  0
   33.4700   34.8650   36.4170 C   0  0  0  0  0  3  0  0  0  0  0  0
   32.9110   33.7540   37.0180 C   0  0  0  0  0  3  0  0  0  0  0  0
  1  6  2  0  0  0  0
  1  2  1  0  0  0  0
  2  3  2  0  0  0  0
  3  4  1  0  0  0  0
  3  9  1  0  0  0  0
  5 21  1  0  0  0  0
  5  4  2  0  0  0  0
  6  5  1  0  0  0  0
  7  1  1  0  0  0  0
  8  2  1  0  0  0  0
  9 10  1  0  0  0  0
 10 15  1  0  0  0  0
 10 11  2  0  0  0  0
 11 16  1  0  0  0  0
 12 11  1  0  0  0  0
 13 12  2  0  0  0  0
 14  9  2  0  0  0  0
 14 13  1  0  0  0  0
 17 13  1  0  0  0  0
 17 19  1  0  0  0  0
 18 17  1  0  0  0  0
 20 17  1  0  0  0  0
 22 23  1  0  0  0  0
 22 28  1  0  0  0  0
 23 24  2  0  0  0  0
 24 21  1  0  0  0  0
 24 25  1  0  0  0  0
 25 26  2  0  0  0  0
 27 25  1  0  0  0  0
 27 34  1  0  0  0  0
 28 27  1  0  0  0  0
 29 28  2  0  0  0  0
 30 22  1  0  0  0  0
 31 23  1  0  0  0  0
 33 40  1  0  0  0  0
 33 32  1  0  0  0  0
 34 33  2  0  0  0  0
 35 37  2  0  0  0  0
 35 34  1  0  0  0  0
 36 35  1  0  0  0  0
 37 39  1  0  0  0  0
 38 37  1  0  0  0  0
 39 40  2  0  0  0  0
M  END
>  <minimizedAffinity>
-6.52685022

$$$$

 OpenBabel03272502273D

 40 43  0  0  0  0  0  0  0  0999 V2000
   37.6440   27.7850   32.1450 C   0  0  0  0  0  0  0  0  0  0  0  0
   38.2800   26.7250   32.8200 C   0  0  0  0  0  0  0  0  0  0  0  0
   37.8540   26.4400   34.1020 C   0  0  0  0  0  0  0  0  0  0  0  0
   36.8670   27.1930   34.6110 N   0  0  0  0  0  0  0  0  0  0  0  0
   36.2660   28.2020   33.9600 C   0  0  0  0  0  0  0  0  0  0  0  0
   36.6640   28.4940   32.7170 N   0  0  0  0  0  0  0  0  0  0  0  0
   37.9630   28.0200   31.1480 H   0  0  0  0  0  0  0  0  0  0  0  0
   39.0710   26.1400   32.3840 H   0  0  0  0  0  0  0  0  0  0  0  0
   38.4200   25.3790   34.8980 C   0  0  0  0  0  0  0  0  0  0  0  0
   39.3560   24.5060   34.3500 C   0  0  0  0  0  0  0  0  0  0  0  0
   39.9330   23.4750   35.0630 C   0  0  0  0  0  0  0  0  0  0  0  0
   39.5740   23.3010   36.3570 N   0  0  0  0  0  0  0  0  0  0  0  0
   38.6740   24.1500   36.8650 C   0  0  0  0  0  0  0  0  0  0  0  0
   38.0990   25.1600   36.1910 N   0  0  0  0  0  0  0  0  0  0  0  0
   39.6570   24.6280   33.3160 H   0  0  0  0  0  0  0  0  0  0  0  0
   40.6620   22.8100   34.6050 H   0  0  0  0  0  0  0  0  0  0  0  0
   38.2630   23.9800   38.2850 C   0  0  0  0  0  0  0  0  0  0  0  0
   39.3750   23.4620   38.9860 F   0  0  0  0  0  0  0  0  0  0  0  0
   37.8310   25.1580   38.8280 F   0  0  0  0  0  0  0  0  0  0  0  0
   37.2860   23.0110   38.4210 F   0  0  0  0  0  0  0  0  0  0  0  0
   35.2620   28.8740   34.6400 O   0  0  0  0  0  0  0  0  0  0  0  0
   33.6140   31.5560   32.7610 N   0  0  0  0  0  0  0  0  0  0  0  0
   33.9920   30.3040   33.0550 C   0  0  0  0  0  0  0  0  0  0  0  0
   34.7680   30.0660   34.1610 C   0  0  0  0  0  0  0  0  0  0  0  0
   35.1470   31.1530   34.9580 C   0  0  0  0  0  0  0  0  0  0  0  0
   35.8530   31.1710   36.0130 O   0  0  0  0  0  0  0  0  0  0  0  0
   34.7320   32.3950   34.6050 N   0  0  0  0  0  0  0  0  0  0  0  0
   33.9730   32.5960   33.5180 C   0  0  0  0  0  0  0  0  0  0  0  0
   33.5730   33.7480   33.1690 O   0  0  0  0  0  0  0  0  0  0  0  0
   33.0260   31.6270   31.9010 H   0  0  0  0  0  0  0  0  0  0  0  0
   33.7430   29.4280   32.4970 H   0  0  0  0  0  0  0  0  0  0  0  0
   37.3090   33.9560   33.7520 Br  0  0  0  0  0  0  0  0  0  0  0  0
   36.1200   34.4340   35.1660 C   0  0  0  0  0  0  0  0  0  0  0  0
   35.0540   33.5740   35.3360 C   0  0  0  0  0  0  0  0  0  0  0  0
   34.1060   33.8060   36.3340 C   0  0  0  0  0  0  0  0  0  0  0  0
   33.2400   33.2070   36.5570 H   0  0  0  0  0  0  0  0  0  0  0  0
   34.2290   34.9160   37.1760 C   0  0  0  0  0  0  0  0  0  0  0  0
   33.5250   35.1430   37.9630 H   0  0  0  0  0  0  0  0  0  0  0  0
   35.3090   35.7590   36.9800 C   0  0  0  0  0  3  0  0  0  0  0  0
   36.2470   35.5320   35.9920 C   0  0  0  0  0  3  0  0  0  0  0  0
  1  6  2  0  0  0  0
  1  2  1  0  0  0  0
  2  3  2  0  0  0  0
  3  4  1  0  0  0  0
  3  9  1  0  0  0  0
  5  4  2  0  0  0  0
  5 21  1  0  0  0  0
  6  5  1  0  0  0  0
  7  1  1  0  0  0  0
  8  2  1  0  0  0  0
  9 14  1  0  0  0  0
 10  9  2  0  0  0  0
 10 11  1  0  0  0  0
 11 12  2  0  0  0  0
 12 13  1  0  0  0  0
 13 17  1  0  0  0  0
 14 13  2  0  0  0  0
 15 10  1  0  0  0  0
 16 11  1  0  0  0  0
 17 20  1  0  0  0  0
 17 19  1  0  0  0  0
 17 18  1  0  0  0  0
 22 23  1  0  0  0  0
 22 28  1  0  0  0  0
 23 24  2  0  0  0  0
 24 21  1  0  0  0  0
 24 25  1  0  0  0  0
 25 26  2  0  0  0  0
 27 25  1  0  0  0  0
 27 34  1  0  0  0  0
 28 27  1  0  0  0  0
 29 28  2  0  0  0  0
 30 22  1  0  0  0  0
 31 23  1  0  0  0  0
 32 33  1  0  0  0  0
 33 34  2  0  0  0  0
 33 40  1  0  0  0  0
 34 35  1  0  0  0  0
 35 36  1  0  0  0  0
 35 37  2  0  0  0  0
 37 38  1  0  0  0  0
 39 37  1  0  0  0  0
 40 39  2  0  0  0  0
M  END
>  <minimizedAffinity>
-6.49153423

$$$$

 OpenBabel03272502273D

 40 43  0  0  0  0  0  0  0  0999 V2000
   37.0150   30.1500   29.5640 C   0  0  0  0  0  0  0  0  0  0  0  0
   36.2290   30.6590   30.6160 C   0  0  0  0  0  0  0  0  0  0  0  0
   35.8610   29.7820   31.6180 C   0  0  0  0  0  0  0  0  0  0  0  0
   36.2800   28.5110   31.5150 N   0  0  0  0  0  0  0  0  0  0  0  0
   37.0300   28.0350   30.5080 C   0  0  0  0  0  0  0  0  0  0  0  0
   37.3960   28.8680   29.5290 N   0  0  0  0  0  0  0  0  0  0  0  0
   37.3090   30.8180   28.7780 H   0  0  0  0  0  0  0  0  0  0  0  0
   35.9080   31.6850   30.6690 H   0  0  0  0  0  0  0  0  0  0  0  0
   35.0620   30.1770   32.7500 C   0  0  0  0  0  0  0  0  0  0  0  0
   33.7030   29.8790   32.7960 C   0  0  0  0  0  0  0  0  0  0  0  0
   32.8890   30.2290   33.8540 C   0  0  0  0  0  0  0  0  0  0  0  0
   33.4340   30.8950   34.8990 N   0  0  0  0  0  0  0  0  0  0  0  0
   34.7420   31.1730   34.8360 C   0  0  0  0  0  0  0  0  0  0  0  0
   35.5530   30.8430   33.8180 N   0  0  0  0  0  0  0  0  0  0  0  0
   33.2470   29.3460   31.9700 H   0  0  0  0  0  0  0  0  0  0  0  0
   31.8310   29.9800   33.8590 H   0  0  0  0  0  0  0  0  0  0  0  0
   35.3650   31.9040   35.9720 C   0  0  0  0  0  0  0  0  0  0  0  0
   34.6190   31.5980   37.1310 F   0  0  0  0  0  0  0  0  0  0  0  0
   36.6840   31.5730   36.1210 F   0  0  0  0  0  0  0  0  0  0  0  0
   35.2370   33.2740   35.8300 F   0  0  0  0  0  0  0  0  0  0  0  0
   37.3710   26.6930   30.5650 O   0  0  0  0  0  0  0  0  0  0  0  0
   40.6070   25.8480   32.0670 N   0  0  0  0  0  0  0  0  0  0  0  0
   39.7590   26.3270   31.1470 C   0  0  0  0  0  0  0  0  0  0  0  0
   38.4060   26.2660   31.3660 C   0  0  0  0  0  0  0  0  0  0  0  0
   37.9470   25.6970   32.5610 C   0  0  0  0  0  0  0  0  0  0  0  0
   36.7570   25.5350   32.9720 O   0  0  0  0  0  0  0  0  0  0  0  0
   38.8580   25.2290   33.4510 N   0  0  0  0  0  0  0  0  0  0  0  0
   40.1750   25.3040   33.2080 C   0  0  0  0  0  0  0  0  0  0  0  0
   41.0450   24.8740   34.0250 O   0  0  0  0  0  0  0  0  0  0  0  0
   41.6120   25.9440   31.8030 H   0  0  0  0  0  0  0  0  0  0  0  0
   40.0320   26.7740   30.2160 H   0  0  0  0  0  0  0  0  0  0  0  0
   38.4860   27.1360   35.9070 Br  0  0  0  0  0  0  0  0  0  0  0  0
   38.2940   25.2370   35.9160 C   0  0  0  0  0  0  0  0  0  0  0  0
   38.5130   24.6310   34.6950 C   0  0  0  0  0  0  0  0  0  0  0  0
   38.4040   23.2450   34.5610 C   0  0  0  0  0  0  0  0  0  0  0  0
   38.5520   22.6680   33.6640 H   0  0  0  0  0  0  0  0  0  0  0  0
   38.0720   22.4550   35.6660 C   0  0  0  0  0  0  0  0  0  0  0  0
   37.9740   21.3810   35.6180 H   0  0  0  0  0  0  0  0  0  0  0  0
   37.8580   23.0930   36.8750 C   0  0  0  0  0  3  0  0  0  0  0  0
   37.9640   24.4640   37.0110 C   0  0  0  0  0  3  0  0  0  0  0  0
  1  2  1  0  0  0  0
  2  8  1  0  0  0  0
  2  3  2  0  0  0  0
  3  9  1  0  0  0  0
  4  3  1  0  0  0  0
  5 21  1  0  0  0  0
  5  4  2  0  0  0  0
  6  1  2  0  0  0  0
  6  5  1  0  0  0  0
  7  1  1  0  0  0  0
  9 10  2  0  0  0  0
  9 14  1  0  0  0  0
 10 11  1  0  0  0  0
 11 16  1  0  0  0  0
 11 12  2  0  0  0  0
 13 12  1  0  0  0  0
 13 17  1  0  0  0  0
 14 13  2  0  0  0  0
 15 10  1  0  0  0  0
 17 19  1  0  0  0  0
 17 18  1  0  0  0  0
 20 17  1  0  0  0  0
 21 24  1  0  0  0  0
 22 28  1  0  0  0  0
 23 24  2  0  0  0  0
 23 22  1  0  0  0  0
 24 25  1  0  0  0  0
 25 26  2  0  0  0  0
 25 27  1  0  0  0  0
 27 34  1  0  0  0  0
 28 27  1  0  0  0  0
 28 29  2  0  0  0  0
 30 22  1  0  0  0  0
 31 23  1  0  0  0  0
 32 33  1  0  0  0  0
 33 40  1  0  0  0  0
 34 33  2  0  0  0  0
 35 34  1  0  0  0  0
 35 37  2  0  0  0  0
 36 35  1  0  0  0  0
 37 39  1  0  0  0  0
 38 37  1  0  0  0  0
 39 40  2  0  0  0  0
M  END
>  <minimizedAffinity>
-6.4853425

$$$$
