
 OpenBabel03272503493D

 37 39  0  0  1  0  0  0  0  0999 V2000
   33.2390   27.2720   45.8410 C   0  0  1  0  0  0  0  0  0  0  0  0
   33.9050   27.4400   47.2230 C   0  0  2  0  0  0  0  0  0  0  0  0
   33.7170   26.2350   47.8200 O   0  0  0  0  0  0  0  0  0  0  0  0
   34.0750   25.3160   46.8440 C   0  0  0  0  0  0  0  0  0  0  0  0
   33.6550   25.8610   45.4920 C   0  0  2  0  0  0  0  0  0  0  0  0
   33.6930   28.0130   45.1360 H   0  0  0  0  0  0  0  0  0  0  0  0
   34.9500   27.7460   47.0100 H   0  0  0  0  0  0  0  0  0  0  0  0
   33.4790   24.3990   47.0320 H   0  0  0  0  0  0  0  0  0  0  0  0
   35.1340   25.0360   46.8690 H   0  0  0  0  0  0  0  0  0  0  0  0
   32.7180   25.3610   45.1390 H   0  0  0  0  0  0  0  0  0  0  0  0
   31.8780   27.4730   45.9320 O   0  0  0  0  0  0  0  0  0  0  0  0
   31.5910   28.0600   45.1910 H   0  0  0  0  0  0  0  0  0  0  0  0
   33.2500   28.5100   47.7880 O   0  0  0  0  0  0  0  0  0  0  0  0
   35.3350   29.7890   46.7890 O   0  0  0  0  0  0  0  0  0  0  0  0
   34.0640   29.9720   47.6130 P   0  0  1  0  0  0  0  0  0  0  0  0
   33.1210   31.0610   46.7230 O   0  0  0  0  0  0  0  0  0  0  0  0
   32.3000   31.2190   47.2760 H   0  0  0  0  0  0  0  0  0  0  0  0
   34.3530   30.5720   49.1840 O   0  0  0  0  0  0  0  0  0  0  0  0
   35.5990   30.4670   49.7870 C   0  0  0  0  0  0  0  0  0  0  0  0
   35.9750   29.4550   50.6980 C   0  0  0  0  0  0  0  0  0  0  0  0
   37.2600   29.4840   51.2200 C   0  0  0  0  0  0  0  0  0  0  0  0
   38.0990   30.4860   50.8330 N   0  0  0  0  0  0  0  0  0  0  0  0
   37.7100   31.4430   49.9570 C   0  0  0  0  0  0  0  0  0  0  0  0
   36.4540   31.4370   49.4300 N   0  0  0  0  0  0  0  0  0  0  0  0
   35.2210   28.7380   50.9100 H   0  0  0  0  0  0  0  0  0  0  0  0
   37.5320   28.7050   51.9130 H   0  0  0  0  0  0  0  0  0  0  0  0
   38.4230   32.2170   49.6860 H   0  0  0  0  0  0  0  0  0  0  0  0
   34.6910   25.8620   44.6250 O   0  0  0  0  0  0  0  0  0  0  0  0
   33.3810   25.8020   41.6750 Br  0  0  0  0  0  0  0  0  0  0  0  0
   34.8720   24.8650   42.3400 C   0  0  0  0  0  0  0  0  0  0  0  0
   35.1950   25.0960   43.6510 C   0  0  0  0  0  0  0  0  0  0  0  0
   36.3080   24.3930   44.1340 C   0  0  0  0  0  0  0  0  0  0  0  0
   36.7420   24.4220   45.1400 H   0  0  0  0  0  0  0  0  0  0  0  0
   37.0390   23.5110   43.3270 C   0  0  0  0  0  0  0  0  0  0  0  0
   37.9000   22.9470   43.6510 H   0  0  0  0  0  0  0  0  0  0  0  0
   36.6360   23.3430   42.0180 C   0  0  0  0  0  3  0  0  0  0  0  0
   35.5490   24.0130   41.4970 C   0  0  0  0  0  3  0  0  0  0  0  0
  1  6  1  6  0  0  0
  1 11  1  0  0  0  0
  1  2  1  0  0  0  0
  2  7  1  6  0  0  0
  2 13  1  0  0  0  0
  2  3  1  0  0  0  0
  4  9  1  0  0  0  0
  4  8  1  0  0  0  0
  4  3  1  0  0  0  0
  5 10  1  6  0  0  0
  5  1  1  0  0  0  0
  5  4  1  0  0  0  0
 12 11  1  0  0  0  0
 15 14  2  6  0  0  0
 15 13  1  0  0  0  0
 15 18  1  0  0  0  0
 16 17  1  0  0  0  0
 16 15  1  0  0  0  0
 18 19  1  0  0  0  0
 19 20  1  0  0  0  0
 20 25  1  0  0  0  0
 20 21  2  0  0  0  0
 21 26  1  0  0  0  0
 22 21  1  0  0  0  0
 23 22  2  0  0  0  0
 24 19  2  0  0  0  0
 24 23  1  0  0  0  0
 27 23  1  0  0  0  0
 28  5  1  0  0  0  0
 29 30  1  0  0  0  0
 30 31  1  0  0  0  0
 31 32  2  0  0  0  0
 31 28  1  0  0  0  0
 32 33  1  0  0  0  0
 34 35  1  0  0  0  0
 34 32  1  0  0  0  0
 36 34  2  0  0  0  0
 37 36  1  0  0  0  0
 37 30  2  0  0  0  0
M  END
>  <minimizedAffinity>
-4.14619398

>  <minimizedRMSD>
0.93862021

$$$$
