
 OpenBabel03272503493D

 37 39  0  0  1  0  0  0  0  0999 V2000
   33.2390   27.2750   45.8440 C   0  0  1  0  0  0  0  0  0  0  0  0
   33.9060   27.4420   47.2250 C   0  0  2  0  0  0  0  0  0  0  0  0
   33.7180   26.2370   47.8210 O   0  0  0  0  0  0  0  0  0  0  0  0
   34.0740   25.3190   46.8440 C   0  0  0  0  0  0  0  0  0  0  0  0
   33.6530   25.8650   45.4930 C   0  0  2  0  0  0  0  0  0  0  0  0
   33.6920   28.0170   45.1390 H   0  0  0  0  0  0  0  0  0  0  0  0
   34.9500   27.7480   47.0120 H   0  0  0  0  0  0  0  0  0  0  0  0
   33.4780   24.4010   47.0320 H   0  0  0  0  0  0  0  0  0  0  0  0
   35.1330   25.0380   46.8680 H   0  0  0  0  0  0  0  0  0  0  0  0
   32.7150   25.3660   45.1410 H   0  0  0  0  0  0  0  0  0  0  0  0
   31.8780   27.4770   45.9360 O   0  0  0  0  0  0  0  0  0  0  0  0
   31.5890   28.0650   45.1960 H   0  0  0  0  0  0  0  0  0  0  0  0
   33.2520   28.5120   47.7930 O   0  0  0  0  0  0  0  0  0  0  0  0
   35.3340   29.7920   46.7880 O   0  0  0  0  0  0  0  0  0  0  0  0
   34.0640   29.9740   47.6140 P   0  0  1  0  0  0  0  0  0  0  0  0
   33.1190   31.0620   46.7240 O   0  0  0  0  0  0  0  0  0  0  0  0
   32.2990   31.2200   47.2780 H   0  0  0  0  0  0  0  0  0  0  0  0
   34.3550   30.5780   49.1830 O   0  0  0  0  0  0  0  0  0  0  0  0
   35.6000   30.4700   49.7870 C   0  0  0  0  0  0  0  0  0  0  0  0
   35.9740   29.4560   50.6970 C   0  0  0  0  0  0  0  0  0  0  0  0
   37.2590   29.4830   51.2190 C   0  0  0  0  0  0  0  0  0  0  0  0
   38.1000   30.4830   50.8330 N   0  0  0  0  0  0  0  0  0  0  0  0
   37.7130   31.4420   49.9580 C   0  0  0  0  0  0  0  0  0  0  0  0
   36.4570   31.4380   49.4310 N   0  0  0  0  0  0  0  0  0  0  0  0
   35.2190   28.7410   50.9080 H   0  0  0  0  0  0  0  0  0  0  0  0
   37.5300   28.7030   51.9120 H   0  0  0  0  0  0  0  0  0  0  0  0
   38.4280   32.2150   49.6880 H   0  0  0  0  0  0  0  0  0  0  0  0
   34.6880   25.8660   44.6250 O   0  0  0  0  0  0  0  0  0  0  0  0
   33.3830   25.8080   41.6730 Br  0  0  0  0  0  0  0  0  0  0  0  0
   34.8710   24.8680   42.3420 C   0  0  0  0  0  0  0  0  0  0  0  0
   35.1930   25.1000   43.6520 C   0  0  0  0  0  0  0  0  0  0  0  0
   36.3030   24.3930   44.1380 C   0  0  0  0  0  0  0  0  0  0  0  0
   36.7360   24.4220   45.1440 H   0  0  0  0  0  0  0  0  0  0  0  0
   37.0330   23.5100   43.3320 C   0  0  0  0  0  0  0  0  0  0  0  0
   37.8930   22.9440   43.6560 H   0  0  0  0  0  0  0  0  0  0  0  0
   36.6330   23.3420   42.0230 C   0  0  0  0  0  3  0  0  0  0  0  0
   35.5480   24.0140   41.5000 C   0  0  0  0  0  3  0  0  0  0  0  0
  1  6  1  6  0  0  0
  1 11  1  0  0  0  0
  1  2  1  0  0  0  0
  2  7  1  6  0  0  0
  2 13  1  0  0  0  0
  2  3  1  0  0  0  0
  4  9  1  0  0  0  0
  4  8  1  0  0  0  0
  4  3  1  0  0  0  0
  5 10  1  6  0  0  0
  5  1  1  0  0  0  0
  5  4  1  0  0  0  0
 12 11  1  0  0  0  0
 15 14  2  6  0  0  0
 15 13  1  0  0  0  0
 15 18  1  0  0  0  0
 16 17  1  0  0  0  0
 16 15  1  0  0  0  0
 18 19  1  0  0  0  0
 19 20  1  0  0  0  0
 20 25  1  0  0  0  0
 20 21  2  0  0  0  0
 21 26  1  0  0  0  0
 22 21  1  0  0  0  0
 23 22  2  0  0  0  0
 24 19  2  0  0  0  0
 24 23  1  0  0  0  0
 27 23  1  0  0  0  0
 28  5  1  0  0  0  0
 29 30  1  0  0  0  0
 30 31  1  0  0  0  0
 31 32  2  0  0  0  0
 31 28  1  0  0  0  0
 32 33  1  0  0  0  0
 34 35  1  0  0  0  0
 34 32  1  0  0  0  0
 36 34  2  0  0  0  0
 37 36  1  0  0  0  0
 37 30  2  0  0  0  0
M  END
>  <minimizedAffinity>
-4.14943218

>  <minimizedRMSD>
1.02563083

$$$$
