
 OpenBabel03272502273D

 40 43  0  0  0  0  0  0  0  0999 V2000
   37.5720   30.2820   50.9160 C   0  0  0  0  0  0  0  0  0  0  0  0
   38.1040   30.8130   49.7250 C   0  0  0  0  0  0  0  0  0  0  0  0
   37.3630   30.6550   48.5710 C   0  0  0  0  0  0  0  0  0  0  0  0
   36.1920   30.0070   48.6680 N   0  0  0  0  0  0  0  0  0  0  0  0
   35.6910   29.5050   49.8090 C   0  0  0  0  0  0  0  0  0  0  0  0
   36.3940   29.6470   50.9370 N   0  0  0  0  0  0  0  0  0  0  0  0
   38.1350   30.3960   51.8220 H   0  0  0  0  0  0  0  0  0  0  0  0
   39.0480   31.3270   49.6800 H   0  0  0  0  0  0  0  0  0  0  0  0
   37.7940   31.1540   47.2890 C   0  0  0  0  0  0  0  0  0  0  0  0
   37.1210   30.7920   46.1250 C   0  0  0  0  0  0  0  0  0  0  0  0
   37.4860   31.2410   44.8730 C   0  0  0  0  0  0  0  0  0  0  0  0
   38.5480   32.0730   44.7650 N   0  0  0  0  0  0  0  0  0  0  0  0
   39.1820   32.4100   45.8950 C   0  0  0  0  0  0  0  0  0  0  0  0
   38.8450   31.9860   47.1250 N   0  0  0  0  0  0  0  0  0  0  0  0
   36.2680   30.1270   46.1890 H   0  0  0  0  0  0  0  0  0  0  0  0
   36.9380   30.9390   43.9830 H   0  0  0  0  0  0  0  0  0  0  0  0
   40.3530   33.3230   45.8040 C   0  0  0  0  0  0  0  0  0  0  0  0
   40.4250   34.0370   47.0210 F   0  0  0  0  0  0  0  0  0  0  0  0
   41.5080   32.6360   45.5560 F   0  0  0  0  0  0  0  0  0  0  0  0
   40.1670   34.2980   44.8410 F   0  0  0  0  0  0  0  0  0  0  0  0
   34.4650   28.8650   49.7240 O   0  0  0  0  0  0  0  0  0  0  0  0
   33.6150   26.5750   46.9900 N   0  0  0  0  0  0  0  0  0  0  0  0
   34.0490   26.9450   48.2030 C   0  0  0  0  0  0  0  0  0  0  0  0
   34.0630   28.2730   48.5480 C   0  0  0  0  0  0  0  0  0  0  0  0
   33.6180   29.2120   47.6090 C   0  0  0  0  0  0  0  0  0  0  0  0
   33.5430   30.4760   47.7070 O   0  0  0  0  0  0  0  0  0  0  0  0
   33.1920   28.7720   46.3990 N   0  0  0  0  0  0  0  0  0  0  0  0
   33.1900   27.4660   46.0920 C   0  0  0  0  0  0  0  0  0  0  0  0
   32.7950   27.0320   44.9680 O   0  0  0  0  0  0  0  0  0  0  0  0
   33.6450   25.5440   46.8300 H   0  0  0  0  0  0  0  0  0  0  0  0
   34.4030   26.2900   48.9690 H   0  0  0  0  0  0  0  0  0  0  0  0
   30.1130   29.3340   46.2990 Br  0  0  0  0  0  0  0  0  0  0  0  0
   31.4250   30.0350   45.1030 C   0  0  0  0  0  0  0  0  0  0  0  0
   32.7180   29.6300   45.3670 C   0  0  0  0  0  0  0  0  0  0  0  0
   33.7770   30.0700   44.5700 C   0  0  0  0  0  0  0  0  0  0  0  0
   34.8180   29.8210   44.6810 H   0  0  0  0  0  0  0  0  0  0  0  0
   33.5360   30.9260   43.4910 C   0  0  0  0  0  0  0  0  0  0  0  0
   34.3170   31.2960   42.8430 H   0  0  0  0  0  0  0  0  0  0  0  0
   32.2290   31.3140   43.2530 C   0  0  0  0  0  0  0  0  0  0  0  0
   31.1800   30.8810   44.0410 C   0  0  0  0  0  0  0  0  0  0  0  0
  1  6  1  0  0  0  0
  1  7  1  0  0  0  0
  2  1  2  0  0  0  0
  3  4  2  0  0  0  0
  3  2  1  0  0  0  0
  4  5  1  0  0  0  0
  5  6  2  0  0  0  0
  8  2  1  0  0  0  0
  9  3  1  0  0  0  0
 10 15  1  0  0  0  0
 10  9  2  0  0  0  0
 11 10  1  0  0  0  0
 12 11  2  0  0  0  0
 12 13  1  0  0  0  0
 13 14  2  0  0  0  0
 14  9  1  0  0  0  0
 16 11  1  0  0  0  0
 17 13  1  0  0  0  0
 17 18  1  0  0  0  0
 19 17  1  0  0  0  0
 20 17  1  0  0  0  0
 21  5  1  0  0  0  0
 22 23  1  0  0  0  0
 23 24  2  0  0  0  0
 23 31  1  0  0  0  0
 24 21  1  0  0  0  0
 25 26  2  0  0  0  0
 25 24  1  0  0  0  0
 27 25  1  0  0  0  0
 28 27  1  0  0  0  0
 28 22  1  0  0  0  0
 29 28  2  0  0  0  0
 30 22  1  0  0  0  0
 33 34  1  0  0  0  0
 33 32  1  0  0  0  0
 34 27  1  0  0  0  0
 35 36  1  0  0  0  0
 35 34  2  0  0  0  0
 37 35  1  0  0  0  0
 38 37  1  0  0  0  0
 39 37  2  0  0  0  0
 39 40  1  0  0  0  0
 40 33  2  0  0  0  0
M  END
>  <minimizedAffinity>
-6.6659193

>  <minimizedRMSD>
1.62160492

$$$$
