
 OpenBabel03272508023D

 28 30  0  0  0  0  0  0  0  0999 V2000
   37.6700   31.0230   45.2490 C   0  0  0  0  0  0  0  0  0  0  0  0
   37.9710   32.2360   44.6690 C   0  0  0  0  0  0  0  0  0  0  0  0
   38.7340   32.0170   43.5130 C   0  0  0  0  0  0  0  0  0  0  0  0
   38.8590   30.6590   43.4470 N   0  0  0  0  0  0  0  0  0  0  0  0
   38.2330   30.0930   44.4680 N   0  0  0  0  0  0  0  0  0  0  0  0
   37.6630   33.1960   45.0540 H   0  0  0  0  0  0  0  0  0  0  0  0
   39.1350   32.7470   42.8230 H   0  0  0  0  0  0  0  0  0  0  0  0
   37.1200   29.5400   41.0950 Br  0  0  0  0  0  0  0  0  0  0  0  0
   38.9780   29.3330   41.3370 C   0  0  0  0  0  0  0  0  0  0  0  0
   39.5500   29.9110   42.4520 C   0  0  0  0  0  0  0  0  0  0  0  0
   40.9220   29.7460   42.6100 C   0  0  0  0  0  0  0  0  0  0  0  0
   41.4550   30.1720   43.4650 H   0  0  0  0  0  0  0  0  0  0  0  0
   41.7140   29.0590   41.7440 C   0  0  0  0  0  0  0  0  0  0  0  0
   42.7790   28.9220   41.8530 H   0  0  0  0  0  0  0  0  0  0  0  0
   41.1030   28.4850   40.6240 C   0  0  0  0  0  3  0  0  0  0  0  0
   39.7280   28.6230   40.4210 C   0  0  0  0  0  3  0  0  0  0  0  0
   36.8920   30.8030   46.4710 C   0  0  0  0  0  0  0  0  0  0  0  0
   37.4450   31.2740   47.6920 C   0  0  0  0  0  0  0  0  0  0  0  0
   36.6810   31.0530   48.8500 C   0  0  0  0  0  0  0  0  0  0  0  0
   35.4880   30.4200   48.7430 N   0  0  0  0  0  0  0  0  0  0  0  0
   34.9990   29.9900   47.5610 C   0  0  0  0  0  0  0  0  0  0  0  0
   35.7160   30.1920   46.4380 N   0  0  0  0  0  0  0  0  0  0  0  0
   38.3990   31.7730   47.7320 H   0  0  0  0  0  0  0  0  0  0  0  0
   34.0570   29.4980   47.5240 H   0  0  0  0  0  0  0  0  0  0  0  0
   37.2450   31.5390   50.1480 C   0  0  0  0  0  0  0  0  0  0  0  0
   36.6380   32.7650   50.3700 F   0  0  0  0  0  0  0  0  0  0  0  0
   36.9160   30.7110   51.2030 F   0  0  0  0  0  0  0  0  0  0  0  0
   38.6060   31.7340   50.0940 F   0  0  0  0  0  0  0  0  0  0  0  0
  1 17  1  0  0  0  0
  2  6  1  0  0  0  0
  2  1  1  0  0  0  0
  3  2  2  0  0  0  0
  4  3  1  0  0  0  0
  4  5  1  0  0  0  0
  5  1  2  0  0  0  0
  7  3  1  0  0  0  0
  8  9  1  0  0  0  0
  9 10  1  0  0  0  0
 10 11  2  0  0  0  0
 10  4  1  0  0  0  0
 11 12  1  0  0  0  0
 13 14  1  0  0  0  0
 13 11  1  0  0  0  0
 15 13  2  0  0  0  0
 16 15  1  0  0  0  0
 16  9  2  0  0  0  0
 17 18  1  0  0  0  0
 18 23  1  0  0  0  0
 18 19  2  0  0  0  0
 19 25  1  0  0  0  0
 20 19  1  0  0  0  0
 21 20  2  0  0  0  0
 22 17  2  0  0  0  0
 22 21  1  0  0  0  0
 24 21  1  0  0  0  0
 25 26  1  0  0  0  0
 25 27  1  0  0  0  0
 28 25  1  0  0  0  0
M  END
>  <minimizedAffinity>
-5.76411533

>  <minimizedRMSD>
1.98826218

$$$$
