
 OpenBabel03272507533D

 32 34  0  0  0  0  0  0  0  0999 V2000
   38.2280   23.6200   34.7860 N   0  0  0  0  0  0  0  0  0  0  0  0
   38.5760   24.6310   33.9900 C   0  0  0  0  0  0  0  0  0  0  0  0
   38.3440   24.5440   32.6200 C   0  0  0  0  0  0  0  0  0  0  0  0
   37.7540   23.3830   32.2130 C   0  0  0  0  0  0  0  0  0  0  0  0
   37.5450   23.3140   30.9610 O   0  0  0  0  0  0  0  0  0  0  0  0
   37.3910   22.3560   32.9710 N   0  0  0  0  0  0  0  0  0  0  0  0
   37.6410   22.4920   34.2950 C   0  0  0  0  0  0  0  0  0  0  0  0
   37.3040   21.5220   35.0390 O   0  0  0  0  0  0  0  0  0  0  0  0
   39.0420   25.5150   34.4160 H   0  0  0  0  0  0  0  0  0  0  0  0
   38.6150   25.3480   31.9420 H   0  0  0  0  0  0  0  0  0  0  0  0
   39.2700   20.0540   31.9790 Br  0  0  0  0  0  0  0  0  0  0  0  0
   37.3630   20.0270   31.9810 C   0  0  0  0  0  0  0  0  0  0  0  0
   36.7810   21.1770   32.4740 C   0  0  0  0  0  0  0  0  0  0  0  0
   35.3990   21.2730   32.5240 C   0  0  0  0  0  0  0  0  0  0  0  0
   34.8140   22.1300   32.8930 H   0  0  0  0  0  0  0  0  0  0  0  0
   34.5810   20.2340   32.0880 C   0  0  0  0  0  0  0  0  0  0  0  0
   33.4970   20.2800   32.1160 H   0  0  0  0  0  0  0  0  0  0  0  0
   35.1930   19.0780   31.5920 C   0  0  0  0  0  3  0  0  0  0  0  0
   36.5690   18.9870   31.5440 C   0  0  0  0  0  3  0  0  0  0  0  0
   39.5350   22.9110   36.7050 C   0  0  0  0  0  0  0  0  0  0  0  0
   38.4460   23.6430   36.2050 C   0  0  0  0  0  0  0  0  0  0  0  0
   37.6340   24.3520   37.0980 C   0  0  0  0  0  0  0  0  0  0  0  0
   37.9450   24.2930   38.4160 N   0  0  0  0  0  0  0  0  0  0  0  0
   38.9710   23.6020   38.8860 C   0  0  0  0  0  0  0  0  0  0  0  0
   39.7610   22.9160   38.0400 N   0  0  0  0  0  0  0  0  0  0  0  0
   36.7920   24.9150   36.6820 H   0  0  0  0  0  0  0  0  0  0  0  0
   39.2110   23.5620   39.9460 H   0  0  0  0  0  0  0  0  0  0  0  0
   41.7510   22.4410   35.4220 C   0  0  0  0  0  0  0  0  0  0  0  0
   42.4020   23.4310   35.7980 O   0  0  0  0  0  0  0  0  0  0  0  0
   40.4220   22.1730   35.8920 N   0  0  0  0  0  0  0  0  0  0  0  0
   42.2850   21.8490   34.7360 H   0  0  0  0  0  0  0  0  0  0  0  0
   40.1080   21.2300   35.5250 H   0  0  0  0  0  0  0  0  0  0  0  0
  1 21  1  0  0  0  0
  2  9  1  0  0  0  0
  2  1  1  0  0  0  0
  3  2  2  0  0  0  0
  4  3  1  0  0  0  0
  4  6  1  0  0  0  0
  5  4  2  0  0  0  0
  6  7  1  0  0  0  0
  7  1  1  0  0  0  0
  7  8  2  0  0  0  0
 10  3  1  0  0  0  0
 11 12  1  0  0  0  0
 12 13  1  0  0  0  0
 13 14  2  0  0  0  0
 13  6  1  0  0  0  0
 14 15  1  0  0  0  0
 16 17  1  0  0  0  0
 16 14  1  0  0  0  0
 18 16  2  0  0  0  0
 19 18  1  0  0  0  0
 19 12  2  0  0  0  0
 20 25  1  0  0  0  0
 21 20  2  0  0  0  0
 21 22  1  0  0  0  0
 22 23  2  0  0  0  0
 23 24  1  0  0  0  0
 24 27  1  0  0  0  0
 25 24  2  0  0  0  0
 26 22  1  0  0  0  0
 28 29  2  0  0  0  0
 28 30  1  0  0  0  0
 30 20  1  0  0  0  0
 31 28  1  0  0  0  0
 32 30  1  0  0  0  0
M  END
>  <minimizedAffinity>
-5.47946739

$$$$

 OpenBabel03272507533D

 32 34  0  0  0  0  0  0  0  0999 V2000
   37.0450   28.6120   31.7680 N   0  0  0  0  0  0  0  0  0  0  0  0
   37.0280   29.3540   30.6600 C   0  0  0  0  0  0  0  0  0  0  0  0
   36.2900   30.5340   30.6290 C   0  0  0  0  0  0  0  0  0  0  0  0
   35.6300   30.8260   31.7860 C   0  0  0  0  0  0  0  0  0  0  0  0
   34.9600   31.9050   31.7490 O   0  0  0  0  0  0  0  0  0  0  0  0
   35.6210   30.1170   32.9090 N   0  0  0  0  0  0  0  0  0  0  0  0
   36.3550   28.9790   32.8840 C   0  0  0  0  0  0  0  0  0  0  0  0
   36.3610   28.2850   33.9450 O   0  0  0  0  0  0  0  0  0  0  0  0
   37.5900   29.0310   29.7880 H   0  0  0  0  0  0  0  0  0  0  0  0
   36.2530   31.1620   29.7440 H   0  0  0  0  0  0  0  0  0  0  0  0
   32.6150   29.2620   33.1080 Br  0  0  0  0  0  0  0  0  0  0  0  0
   33.5940   30.2420   34.4190 C   0  0  0  0  0  0  0  0  0  0  0  0
   34.9080   30.4860   34.0770 C   0  0  0  0  0  0  0  0  0  0  0  0
   35.7190   31.1920   34.9520 C   0  0  0  0  0  0  0  0  0  0  0  0
   36.7790   31.4520   34.8010 H   0  0  0  0  0  0  0  0  0  0  0  0
   35.2380   31.6600   36.1720 C   0  0  0  0  0  0  0  0  0  0  0  0
   35.8490   32.2140   36.8780 H   0  0  0  0  0  0  0  0  0  0  0  0
   33.9020   31.4010   36.4970 C   0  0  0  0  0  3  0  0  0  0  0  0
   33.1000   30.6990   35.6220 C   0  0  0  0  0  3  0  0  0  0  0  0
   37.1830   26.2280   31.3320 C   0  0  0  0  0  0  0  0  0  0  0  0
   37.7800   27.3830   31.8630 C   0  0  0  0  0  0  0  0  0  0  0  0
   39.0450   27.2860   32.4530 C   0  0  0  0  0  0  0  0  0  0  0  0
   39.6360   26.0660   32.4820 N   0  0  0  0  0  0  0  0  0  0  0  0
   39.0720   24.9790   31.9820 C   0  0  0  0  0  0  0  0  0  0  0  0
   37.8550   25.0560   31.4120 N   0  0  0  0  0  0  0  0  0  0  0  0
   39.4890   28.2010   32.8580 H   0  0  0  0  0  0  0  0  0  0  0  0
   39.5540   24.0040   32.0110 H   0  0  0  0  0  0  0  0  0  0  0  0
   34.8320   25.2800   30.7370 C   0  0  0  0  0  0  0  0  0  0  0  0
   34.8330   24.2870   31.4850 O   0  0  0  0  0  0  0  0  0  0  0  0
   35.9170   26.2190   30.7070 N   0  0  0  0  0  0  0  0  0  0  0  0
   33.9620   25.3370   30.1500 H   0  0  0  0  0  0  0  0  0  0  0  0
   35.6540   27.0330   30.0820 H   0  0  0  0  0  0  0  0  0  0  0  0
  1 21  1  0  0  0  0
  1  7  1  0  0  0  0
  2  1  1  0  0  0  0
  3  2  2  0  0  0  0
  3  4  1  0  0  0  0
  4  6  1  0  0  0  0
  5  4  2  0  0  0  0
  6 13  1  0  0  0  0
  7  6  1  0  0  0  0
  7  8  2  0  0  0  0
  9  2  1  0  0  0  0
 10  3  1  0  0  0  0
 11 12  1  0  0  0  0
 12 19  1  0  0  0  0
 13 12  2  0  0  0  0
 13 14  1  0  0  0  0
 14 16  2  0  0  0  0
 15 14  1  0  0  0  0
 16 18  1  0  0  0  0
 16 17  1  0  0  0  0
 19 18  2  0  0  0  0
 20 25  2  0  0  0  0
 20 21  1  0  0  0  0
 21 22  2  0  0  0  0
 22 23  1  0  0  0  0
 22 26  1  0  0  0  0
 24 27  1  0  0  0  0
 24 23  2  0  0  0  0
 25 24  1  0  0  0  0
 28 29  2  0  0  0  0
 30 28  1  0  0  0  0
 30 20  1  0  0  0  0
 31 28  1  0  0  0  0
 32 30  1  0  0  0  0
M  END
>  <minimizedAffinity>
-5.40796185

$$$$

 OpenBabel03272507533D

 32 34  0  0  0  0  0  0  0  0999 V2000
   38.6940   22.5490   33.9970 N   0  0  0  0  0  0  0  0  0  0  0  0
   37.8000   21.6450   33.5970 C   0  0  0  0  0  0  0  0  0  0  0  0
   36.8030   22.0090   32.6960 C   0  0  0  0  0  0  0  0  0  0  0  0
   36.8450   23.3120   32.2950 C   0  0  0  0  0  0  0  0  0  0  0  0
   35.9320   23.6360   31.4730 O   0  0  0  0  0  0  0  0  0  0  0  0
   37.7160   24.2420   32.6680 N   0  0  0  0  0  0  0  0  0  0  0  0
   38.6640   23.8330   33.5450 C   0  0  0  0  0  0  0  0  0  0  0  0
   39.5070   24.7050   33.9160 O   0  0  0  0  0  0  0  0  0  0  0  0
   37.8550   20.6280   33.9780 H   0  0  0  0  0  0  0  0  0  0  0  0
   36.0590   21.3000   32.3490 H   0  0  0  0  0  0  0  0  0  0  0  0
   39.2740   24.8960   30.0300 Br  0  0  0  0  0  0  0  0  0  0  0  0
   38.2880   26.1380   31.0910 C   0  0  0  0  0  0  0  0  0  0  0  0
   37.6960   25.5820   32.2060 C   0  0  0  0  0  0  0  0  0  0  0  0
   36.9530   26.3890   33.0550 C   0  0  0  0  0  0  0  0  0  0  0  0
   36.4320   26.0720   33.9730 H   0  0  0  0  0  0  0  0  0  0  0  0
   36.7890   27.7490   32.8070 C   0  0  0  0  0  0  0  0  0  0  0  0
   36.2130   28.4050   33.4520 H   0  0  0  0  0  0  0  0  0  0  0  0
   37.3990   28.2900   31.6700 C   0  0  0  0  0  3  0  0  0  0  0  0
   38.1370   27.4830   30.8300 C   0  0  0  0  0  3  0  0  0  0  0  0
   39.4330   22.3000   36.2970 C   0  0  0  0  0  0  0  0  0  0  0  0
   39.7430   22.2390   34.9280 C   0  0  0  0  0  0  0  0  0  0  0  0
   41.0390   21.8840   34.5380 C   0  0  0  0  0  0  0  0  0  0  0  0
   41.9400   21.6150   35.5150 N   0  0  0  0  0  0  0  0  0  0  0  0
   41.6470   21.6750   36.8040 C   0  0  0  0  0  0  0  0  0  0  0  0
   40.4050   22.0140   37.1940 N   0  0  0  0  0  0  0  0  0  0  0  0
   41.2540   21.8430   33.4660 H   0  0  0  0  0  0  0  0  0  0  0  0
   42.3780   21.4570   37.5800 H   0  0  0  0  0  0  0  0  0  0  0  0
   37.5630   23.8860   37.1720 C   0  0  0  0  0  0  0  0  0  0  0  0
   38.1380   24.9740   36.9920 O   0  0  0  0  0  0  0  0  0  0  0  0
   38.1550   22.6340   36.7950 N   0  0  0  0  0  0  0  0  0  0  0  0
   36.6200   24.0020   37.6220 H   0  0  0  0  0  0  0  0  0  0  0  0
   37.4480   21.8590   36.9410 H   0  0  0  0  0  0  0  0  0  0  0  0
  1 21  1  0  0  0  0
  2  9  1  0  0  0  0
  2  1  1  0  0  0  0
  3  2  2  0  0  0  0
  4  6  1  0  0  0  0
  4  3  1  0  0  0  0
  5  4  2  0  0  0  0
  6  7  1  0  0  0  0
  7  8  2  0  0  0  0
  7  1  1  0  0  0  0
 10  3  1  0  0  0  0
 11 12  1  0  0  0  0
 12 13  1  0  0  0  0
 13  6  1  0  0  0  0
 13 14  2  0  0  0  0
 14 15  1  0  0  0  0
 16 14  1  0  0  0  0
 16 17  1  0  0  0  0
 18 16  2  0  0  0  0
 19 12  2  0  0  0  0
 19 18  1  0  0  0  0
 20 30  1  0  0  0  0
 20 25  1  0  0  0  0
 21 20  2  0  0  0  0
 22 21  1  0  0  0  0
 22 23  2  0  0  0  0
 23 24  1  0  0  0  0
 24 25  2  0  0  0  0
 24 27  1  0  0  0  0
 26 22  1  0  0  0  0
 28 31  1  0  0  0  0
 29 28  2  0  0  0  0
 30 32  1  0  0  0  0
 30 28  1  0  0  0  0
M  END
>  <minimizedAffinity>
-5.36719704

$$$$

 OpenBabel03272507533D

 32 34  0  0  0  0  0  0  0  0999 V2000
   36.1070   23.2770   31.7940 N   0  0  0  0  0  0  0  0  0  0  0  0
   35.3160   23.9430   30.9530 C   0  0  0  0  0  0  0  0  0  0  0  0
   35.3520   25.3340   30.9250 C   0  0  0  0  0  0  0  0  0  0  0  0
   36.2330   25.9010   31.7980 C   0  0  0  0  0  0  0  0  0  0  0  0
   36.2600   27.1710   31.7650 O   0  0  0  0  0  0  0  0  0  0  0  0
   37.0380   25.2760   32.6490 N   0  0  0  0  0  0  0  0  0  0  0  0
   36.9610   23.9230   32.6360 C   0  0  0  0  0  0  0  0  0  0  0  0
   37.7200   23.3040   33.4410 O   0  0  0  0  0  0  0  0  0  0  0  0
   34.6460   23.3940   30.2960 H   0  0  0  0  0  0  0  0  0  0  0  0
   34.7220   25.9090   30.2530 H   0  0  0  0  0  0  0  0  0  0  0  0
   39.9560   25.8000   31.6390 Br  0  0  0  0  0  0  0  0  0  0  0  0
   39.2520   26.2860   33.3440 C   0  0  0  0  0  0  0  0  0  0  0  0
   37.9310   25.9350   33.5310 C   0  0  0  0  0  0  0  0  0  0  0  0
   37.3100   26.2360   34.7330 C   0  0  0  0  0  0  0  0  0  0  0  0
   36.2670   26.0120   35.0080 H   0  0  0  0  0  0  0  0  0  0  0  0
   37.9890   26.8870   35.7590 C   0  0  0  0  0  0  0  0  0  0  0  0
   37.5310   27.1370   36.7110 H   0  0  0  0  0  0  0  0  0  0  0  0
   39.3280   27.2330   35.5480 C   0  0  0  0  0  3  0  0  0  0  0  0
   39.9410   26.9300   34.3490 C   0  0  0  0  0  3  0  0  0  0  0  0
   37.1250   21.1590   31.1840 C   0  0  0  0  0  0  0  0  0  0  0  0
   36.1130   21.8430   31.8770 C   0  0  0  0  0  0  0  0  0  0  0  0
   35.1710   21.1090   32.6060 C   0  0  0  0  0  0  0  0  0  0  0  0
   35.2850   19.7580   32.6050 N   0  0  0  0  0  0  0  0  0  0  0  0
   36.2380   19.1150   31.9500 C   0  0  0  0  0  0  0  0  0  0  0  0
   37.1520   19.8070   31.2450 N   0  0  0  0  0  0  0  0  0  0  0  0
   34.3930   21.6670   33.1380 H   0  0  0  0  0  0  0  0  0  0  0  0
   36.3210   18.0300   31.9550 H   0  0  0  0  0  0  0  0  0  0  0  0
   39.5200   22.0500   30.6860 C   0  0  0  0  0  0  0  0  0  0  0  0
   40.1050   21.5870   31.6800 O   0  0  0  0  0  0  0  0  0  0  0  0
   38.1300   21.8030   30.4300 N   0  0  0  0  0  0  0  0  0  0  0  0
   40.1570   22.6280   30.0810 H   0  0  0  0  0  0  0  0  0  0  0  0
   37.8760   22.2010   29.4820 H   0  0  0  0  0  0  0  0  0  0  0  0
  1 21  1  0  0  0  0
  1  7  1  0  0  0  0
  2  1  1  0  0  0  0
  3  2  2  0  0  0  0
  3  4  1  0  0  0  0
  4  6  1  0  0  0  0
  5  4  2  0  0  0  0
  6 13  1  0  0  0  0
  7  6  1  0  0  0  0
  7  8  2  0  0  0  0
  9  2  1  0  0  0  0
 10  3  1  0  0  0  0
 11 12  1  0  0  0  0
 12 13  2  0  0  0  0
 12 19  1  0  0  0  0
 13 14  1  0  0  0  0
 14 15  1  0  0  0  0
 14 16  2  0  0  0  0
 16 17  1  0  0  0  0
 18 16  1  0  0  0  0
 19 18  2  0  0  0  0
 20 25  2  0  0  0  0
 20 21  1  0  0  0  0
 21 22  2  0  0  0  0
 22 26  1  0  0  0  0
 23 22  1  0  0  0  0
 24 27  1  0  0  0  0
 24 23  2  0  0  0  0
 25 24  1  0  0  0  0
 28 29  2  0  0  0  0
 30 28  1  0  0  0  0
 30 20  1  0  0  0  0
 31 28  1  0  0  0  0
 32 30  1  0  0  0  0
M  END
>  <minimizedAffinity>
-5.23543072

$$$$

 OpenBabel03272507533D

 32 34  0  0  0  0  0  0  0  0999 V2000
   36.1590   26.4640   31.6960 N   0  0  0  0  0  0  0  0  0  0  0  0
   35.4210   25.5340   31.0900 C   0  0  0  0  0  0  0  0  0  0  0  0
   35.7070   24.1860   31.2900 C   0  0  0  0  0  0  0  0  0  0  0  0
   36.7580   23.9420   32.1240 C   0  0  0  0  0  0  0  0  0  0  0  0
   37.0110   22.7090   32.3010 O   0  0  0  0  0  0  0  0  0  0  0  0
   37.5150   24.8370   32.7470 N   0  0  0  0  0  0  0  0  0  0  0  0
   37.1950   26.1330   32.5170 C   0  0  0  0  0  0  0  0  0  0  0  0
   37.9050   27.0050   33.1020 O   0  0  0  0  0  0  0  0  0  0  0  0
   34.6020   25.8350   30.4420 H   0  0  0  0  0  0  0  0  0  0  0  0
   35.1270   23.4020   30.8120 H   0  0  0  0  0  0  0  0  0  0  0  0
   40.3520   24.5310   31.4550 Br  0  0  0  0  0  0  0  0  0  0  0  0
   39.9290   24.3140   33.3020 C   0  0  0  0  0  0  0  0  0  0  0  0
   38.5960   24.5060   33.6030 C   0  0  0  0  0  0  0  0  0  0  0  0
   38.1690   24.3740   34.9150 C   0  0  0  0  0  0  0  0  0  0  0  0
   37.1390   24.5000   35.2860 H   0  0  0  0  0  0  0  0  0  0  0  0
   39.0540   24.0520   35.9400 C   0  0  0  0  0  0  0  0  0  0  0  0
   38.7500   23.9430   36.9760 H   0  0  0  0  0  0  0  0  0  0  0  0
   40.4010   23.8620   35.6110 C   0  0  0  0  0  3  0  0  0  0  0  0
   40.8210   23.9940   34.3040 C   0  0  0  0  0  3  0  0  0  0  0  0
   36.5570   28.5100   30.4520 C   0  0  0  0  0  0  0  0  0  0  0  0
   35.9210   27.8700   31.5280 C   0  0  0  0  0  0  0  0  0  0  0  0
   35.0970   28.6190   32.3750 C   0  0  0  0  0  0  0  0  0  0  0  0
   34.9540   29.9410   32.1090 N   0  0  0  0  0  0  0  0  0  0  0  0
   35.5540   30.5430   31.0960 C   0  0  0  0  0  0  0  0  0  0  0  0
   36.3500   29.8360   30.2720 N   0  0  0  0  0  0  0  0  0  0  0  0
   34.6120   28.0960   33.2060 H   0  0  0  0  0  0  0  0  0  0  0  0
   35.4330   31.6040   30.8920 H   0  0  0  0  0  0  0  0  0  0  0  0
   38.8210   27.6720   29.4770 C   0  0  0  0  0  0  0  0  0  0  0  0
   39.5720   28.0460   30.3940 O   0  0  0  0  0  0  0  0  0  0  0  0
   37.3980   27.8460   29.5320 N   0  0  0  0  0  0  0  0  0  0  0  0
   39.3500   27.2280   28.6830 H   0  0  0  0  0  0  0  0  0  0  0  0
   36.9570   27.3590   28.7010 H   0  0  0  0  0  0  0  0  0  0  0  0
  1  7  1  0  0  0  0
  2  3  2  0  0  0  0
  2  1  1  0  0  0  0
  3  4  1  0  0  0  0
  4  5  2  0  0  0  0
  4  6  1  0  0  0  0
  6 13  1  0  0  0  0
  7  6  1  0  0  0  0
  7  8  2  0  0  0  0
  9  2  1  0  0  0  0
 10  3  1  0  0  0  0
 11 12  1  0  0  0  0
 12 13  2  0  0  0  0
 12 19  1  0  0  0  0
 13 14  1  0  0  0  0
 14 15  1  0  0  0  0
 14 16  2  0  0  0  0
 16 17  1  0  0  0  0
 18 16  1  0  0  0  0
 19 18  2  0  0  0  0
 20 21  1  0  0  0  0
 21  1  1  0  0  0  0
 21 22  2  0  0  0  0
 22 26  1  0  0  0  0
 23 22  1  0  0  0  0
 24 23  2  0  0  0  0
 25 20  2  0  0  0  0
 25 24  1  0  0  0  0
 27 24  1  0  0  0  0
 28 30  1  0  0  0  0
 28 29  2  0  0  0  0
 30 20  1  0  0  0  0
 31 28  1  0  0  0  0
 32 30  1  0  0  0  0
M  END
>  <minimizedAffinity>
-5.14702034

$$$$

 OpenBabel03272507533D

 32 34  0  0  0  0  0  0  0  0999 V2000
   38.1690   24.5030   32.5040 N   0  0  0  0  0  0  0  0  0  0  0  0
   37.4100   23.5620   31.9410 C   0  0  0  0  0  0  0  0  0  0  0  0
   37.0170   22.4530   32.6860 C   0  0  0  0  0  0  0  0  0  0  0  0
   37.4660   22.4420   33.9740 C   0  0  0  0  0  0  0  0  0  0  0  0
   37.1020   21.4270   34.6470 O   0  0  0  0  0  0  0  0  0  0  0  0
   38.2200   23.3570   34.5720 N   0  0  0  0  0  0  0  0  0  0  0  0
   38.5740   24.4140   33.8010 C   0  0  0  0  0  0  0  0  0  0  0  0
   39.2950   25.3000   34.3510 O   0  0  0  0  0  0  0  0  0  0  0  0
   37.1060   23.6660   30.9030 H   0  0  0  0  0  0  0  0  0  0  0  0
   36.4010   21.6670   32.2610 H   0  0  0  0  0  0  0  0  0  0  0  0
   41.0100   22.0500   35.1340 Br  0  0  0  0  0  0  0  0  0  0  0  0
   39.8160   22.7580   36.4420 C   0  0  0  0  0  0  0  0  0  0  0  0
   38.6500   23.2770   35.9200 C   0  0  0  0  0  0  0  0  0  0  0  0
   37.7040   23.8200   36.7770 C   0  0  0  0  0  0  0  0  0  0  0  0
   36.7370   24.2640   36.4900 H   0  0  0  0  0  0  0  0  0  0  0  0
   37.9040   23.8550   38.1540 C   0  0  0  0  0  0  0  0  0  0  0  0
   37.1830   24.2740   38.8490 H   0  0  0  0  0  0  0  0  0  0  0  0
   39.0940   23.3220   38.6610 C   0  0  0  0  0  3  0  0  0  0  0  0
   40.0320   22.7830   37.8040 C   0  0  0  0  0  3  0  0  0  0  0  0
   37.8770   26.8500   31.9590 C   0  0  0  0  0  0  0  0  0  0  0  0
   38.6130   25.6660   31.7890 C   0  0  0  0  0  0  0  0  0  0  0  0
   39.7280   25.6720   30.9440 C   0  0  0  0  0  0  0  0  0  0  0  0
   40.0440   26.8370   30.3250 N   0  0  0  0  0  0  0  0  0  0  0  0
   39.3490   27.9510   30.4850 C   0  0  0  0  0  0  0  0  0  0  0  0
   38.2740   27.9610   31.2950 N   0  0  0  0  0  0  0  0  0  0  0  0
   40.2840   24.7370   30.8290 H   0  0  0  0  0  0  0  0  0  0  0  0
   39.6110   28.8800   29.9830 H   0  0  0  0  0  0  0  0  0  0  0  0
   36.5790   27.4330   34.1390 C   0  0  0  0  0  0  0  0  0  0  0  0
   37.5040   27.9690   34.7730 O   0  0  0  0  0  0  0  0  0  0  0  0
   36.7450   26.9550   32.7960 N   0  0  0  0  0  0  0  0  0  0  0  0
   35.6900   27.3780   34.6990 H   0  0  0  0  0  0  0  0  0  0  0  0
   35.8060   26.6400   32.4220 H   0  0  0  0  0  0  0  0  0  0  0  0
  1  7  1  0  0  0  0
  2  1  1  0  0  0  0
  2  3  2  0  0  0  0
  3  4  1  0  0  0  0
  4  6  1  0  0  0  0
  4  5  2  0  0  0  0
  6 13  1  0  0  0  0
  7  8  2  0  0  0  0
  7  6  1  0  0  0  0
  9  2  1  0  0  0  0
 10  3  1  0  0  0  0
 11 12  1  0  0  0  0
 12 19  1  0  0  0  0
 13 12  2  0  0  0  0
 13 14  1  0  0  0  0
 14 16  2  0  0  0  0
 15 14  1  0  0  0  0
 16 18  1  0  0  0  0
 16 17  1  0  0  0  0
 19 18  2  0  0  0  0
 20 30  1  0  0  0  0
 21 20  1  0  0  0  0
 21  1  1  0  0  0  0
 22 21  2  0  0  0  0
 23 24  2  0  0  0  0
 23 22  1  0  0  0  0
 24 25  1  0  0  0  0
 25 20  2  0  0  0  0
 26 22  1  0  0  0  0
 27 24  1  0  0  0  0
 28 31  1  0  0  0  0
 28 29  2  0  0  0  0
 30 28  1  0  0  0  0
 32 30  1  0  0  0  0
M  END
>  <minimizedAffinity>
-5.1266942

$$$$

 OpenBabel03272507533D

 32 34  0  0  0  0  0  0  0  0999 V2000
   38.9680   22.5980   34.2830 N   0  0  0  0  0  0  0  0  0  0  0  0
   37.9470   21.7840   34.0160 C   0  0  0  0  0  0  0  0  0  0  0  0
   36.9900   22.1590   33.0770 C   0  0  0  0  0  0  0  0  0  0  0  0
   37.2040   23.3750   32.4980 C   0  0  0  0  0  0  0  0  0  0  0  0
   36.3260   23.7090   31.6420 O   0  0  0  0  0  0  0  0  0  0  0  0
   38.2060   24.2140   32.7340 N   0  0  0  0  0  0  0  0  0  0  0  0
   39.1080   23.7990   33.6560 C   0  0  0  0  0  0  0  0  0  0  0  0
   40.0730   24.5850   33.8980 O   0  0  0  0  0  0  0  0  0  0  0  0
   37.8680   20.8320   34.5350 H   0  0  0  0  0  0  0  0  0  0  0  0
   36.1450   21.5220   32.8360 H   0  0  0  0  0  0  0  0  0  0  0  0
   37.0600   26.7450   34.1790 Br  0  0  0  0  0  0  0  0  0  0  0  0
   37.9590   26.7220   32.4980 C   0  0  0  0  0  0  0  0  0  0  0  0
   38.3630   25.4670   32.0900 C   0  0  0  0  0  0  0  0  0  0  0  0
   39.0270   25.3250   30.8810 C   0  0  0  0  0  0  0  0  0  0  0  0
   39.4000   24.3850   30.4430 H   0  0  0  0  0  0  0  0  0  0  0  0
   39.2980   26.4210   30.0670 C   0  0  0  0  0  0  0  0  0  0  0  0
   39.8160   26.3420   29.1160 H   0  0  0  0  0  0  0  0  0  0  0  0
   38.8790   27.6840   30.5000 C   0  0  0  0  0  3  0  0  0  0  0  0
   38.2180   27.8190   31.7040 C   0  0  0  0  0  3  0  0  0  0  0  0
   39.6410   22.3560   36.6030 C   0  0  0  0  0  0  0  0  0  0  0  0
   39.9850   22.2730   35.2430 C   0  0  0  0  0  0  0  0  0  0  0  0
   41.2820   21.8830   34.8910 C   0  0  0  0  0  0  0  0  0  0  0  0
   42.1510   21.6030   35.8930 N   0  0  0  0  0  0  0  0  0  0  0  0
   41.8260   21.6840   37.1730 C   0  0  0  0  0  0  0  0  0  0  0  0
   40.5830   22.0570   37.5280 N   0  0  0  0  0  0  0  0  0  0  0  0
   41.5230   21.8250   33.8250 H   0  0  0  0  0  0  0  0  0  0  0  0
   42.5320   21.4570   37.9700 H   0  0  0  0  0  0  0  0  0  0  0  0
   37.7530   24.0050   37.3060 C   0  0  0  0  0  0  0  0  0  0  0  0
   38.3140   25.0740   37.0090 O   0  0  0  0  0  0  0  0  0  0  0  0
   38.3600   22.7270   37.0650 N   0  0  0  0  0  0  0  0  0  0  0  0
   36.8080   24.1570   37.7430 H   0  0  0  0  0  0  0  0  0  0  0  0
   37.6620   21.9630   37.2940 H   0  0  0  0  0  0  0  0  0  0  0  0
  1 21  1  0  0  0  0
  2  1  1  0  0  0  0
  2  9  1  0  0  0  0
  3  2  2  0  0  0  0
  4  6  1  0  0  0  0
  4  3  1  0  0  0  0
  5  4  2  0  0  0  0
  6  7  1  0  0  0  0
  7  8  2  0  0  0  0
  7  1  1  0  0  0  0
 10  3  1  0  0  0  0
 12 11  1  0  0  0  0
 13 12  1  0  0  0  0
 13  6  1  0  0  0  0
 14 13  2  0  0  0  0
 15 14  1  0  0  0  0
 16 18  2  0  0  0  0
 16 14  1  0  0  0  0
 17 16  1  0  0  0  0
 18 19  1  0  0  0  0
 19 12  2  0  0  0  0
 20 30  1  0  0  0  0
 20 25  1  0  0  0  0
 21 20  2  0  0  0  0
 22 21  1  0  0  0  0
 22 23  2  0  0  0  0
 23 24  1  0  0  0  0
 24 25  2  0  0  0  0
 24 27  1  0  0  0  0
 26 22  1  0  0  0  0
 28 31  1  0  0  0  0
 29 28  2  0  0  0  0
 30 32  1  0  0  0  0
 30 28  1  0  0  0  0
M  END
>  <minimizedAffinity>
-5.11037874

$$$$

 OpenBabel03272507533D

 32 34  0  0  0  0  0  0  0  0999 V2000
   36.3100   28.4960   31.9430 N   0  0  0  0  0  0  0  0  0  0  0  0
   36.7970   29.2380   30.9480 C   0  0  0  0  0  0  0  0  0  0  0  0
   36.6790   30.6250   30.9980 C   0  0  0  0  0  0  0  0  0  0  0  0
   36.0510   31.1050   32.1100 C   0  0  0  0  0  0  0  0  0  0  0  0
   35.9490   32.3710   32.1470 O   0  0  0  0  0  0  0  0  0  0  0  0
   35.5550   30.4020   33.1210 N   0  0  0  0  0  0  0  0  0  0  0  0
   35.6960   29.0590   33.0210 C   0  0  0  0  0  0  0  0  0  0  0  0
   35.2280   28.3670   33.9750 O   0  0  0  0  0  0  0  0  0  0  0  0
   37.2810   28.7560   30.1030 H   0  0  0  0  0  0  0  0  0  0  0  0
   37.0630   31.2600   30.2060 H   0  0  0  0  0  0  0  0  0  0  0  0
   32.4580   30.8460   32.9600 Br  0  0  0  0  0  0  0  0  0  0  0  0
   33.5800   31.2740   34.4420 C   0  0  0  0  0  0  0  0  0  0  0  0
   34.9120   30.9740   34.2480 C   0  0  0  0  0  0  0  0  0  0  0  0
   35.8240   31.2420   35.2570 C   0  0  0  0  0  0  0  0  0  0  0  0
   36.9090   31.0520   35.2290 H   0  0  0  0  0  0  0  0  0  0  0  0
   35.4270   31.8070   36.4660 C   0  0  0  0  0  0  0  0  0  0  0  0
   36.1170   32.0270   37.2740 H   0  0  0  0  0  0  0  0  0  0  0  0
   34.0710   32.1030   36.6400 C   0  0  0  0  0  3  0  0  0  0  0  0
   33.1680   31.8350   35.6330 C   0  0  0  0  0  3  0  0  0  0  0  0
   37.3960   26.4760   32.7390 C   0  0  0  0  0  0  0  0  0  0  0  0
   36.3940   27.0630   31.9490 C   0  0  0  0  0  0  0  0  0  0  0  0
   35.5350   26.2370   31.2150 C   0  0  0  0  0  0  0  0  0  0  0  0
   35.7180   24.8970   31.3050 N   0  0  0  0  0  0  0  0  0  0  0  0
   36.6630   24.3460   32.0480 C   0  0  0  0  0  0  0  0  0  0  0  0
   37.4970   25.1260   32.7610 N   0  0  0  0  0  0  0  0  0  0  0  0
   34.7620   26.7200   30.6080 H   0  0  0  0  0  0  0  0  0  0  0  0
   36.8010   23.2690   32.1130 H   0  0  0  0  0  0  0  0  0  0  0  0
   38.4690   27.3470   34.9460 C   0  0  0  0  0  0  0  0  0  0  0  0
   37.8140   26.6670   35.7550 O   0  0  0  0  0  0  0  0  0  0  0  0
   38.3050   27.2160   33.5260 N   0  0  0  0  0  0  0  0  0  0  0  0
   39.1330   28.0070   35.4230 H   0  0  0  0  0  0  0  0  0  0  0  0
   39.0350   27.8080   33.0370 H   0  0  0  0  0  0  0  0  0  0  0  0
  1 21  1  0  0  0  0
  1  7  1  0  0  0  0
  2  3  2  0  0  0  0
  2  1  1  0  0  0  0
  3  4  1  0  0  0  0
  4  5  2  0  0  0  0
  4  6  1  0  0  0  0
  6 13  1  0  0  0  0
  7  6  1  0  0  0  0
  7  8  2  0  0  0  0
  9  2  1  0  0  0  0
 10  3  1  0  0  0  0
 11 12  1  0  0  0  0
 12 19  1  0  0  0  0
 13 12  2  0  0  0  0
 13 14  1  0  0  0  0
 14 16  2  0  0  0  0
 15 14  1  0  0  0  0
 16 18  1  0  0  0  0
 16 17  1  0  0  0  0
 19 18  2  0  0  0  0
 20 25  1  0  0  0  0
 20 30  1  0  0  0  0
 21 20  2  0  0  0  0
 22 23  2  0  0  0  0
 22 21  1  0  0  0  0
 23 24  1  0  0  0  0
 24 27  1  0  0  0  0
 24 25  2  0  0  0  0
 26 22  1  0  0  0  0
 28 31  1  0  0  0  0
 28 29  2  0  0  0  0
 30 28  1  0  0  0  0
 32 30  1  0  0  0  0
M  END
>  <minimizedAffinity>
-5.08985138

$$$$

 OpenBabel03272507533D

 32 34  0  0  0  0  0  0  0  0999 V2000
   37.4990   23.2380   32.6480 N   0  0  0  0  0  0  0  0  0  0  0  0
   37.5900   24.4600   32.1230 C   0  0  0  0  0  0  0  0  0  0  0  0
   38.0630   25.5130   32.9010 C   0  0  0  0  0  0  0  0  0  0  0  0
   38.4040   25.1730   34.1770 C   0  0  0  0  0  0  0  0  0  0  0  0
   38.8360   26.1410   34.8790 O   0  0  0  0  0  0  0  0  0  0  0  0
   38.3300   23.9720   34.7370 N   0  0  0  0  0  0  0  0  0  0  0  0
   37.8620   22.9840   33.9370 C   0  0  0  0  0  0  0  0  0  0  0  0
   37.7820   21.8280   34.4510 O   0  0  0  0  0  0  0  0  0  0  0  0
   37.2910   24.6260   31.0920 H   0  0  0  0  0  0  0  0  0  0  0  0
   38.1500   26.5210   32.5060 H   0  0  0  0  0  0  0  0  0  0  0  0
   41.2180   22.8700   35.2430 Br  0  0  0  0  0  0  0  0  0  0  0  0
   39.8940   23.2090   36.5740 C   0  0  0  0  0  0  0  0  0  0  0  0
   38.7030   23.6940   36.0760 C   0  0  0  0  0  0  0  0  0  0  0  0
   37.6650   23.9760   36.9500 C   0  0  0  0  0  0  0  0  0  0  0  0
   36.6690   24.3660   36.6830 H   0  0  0  0  0  0  0  0  0  0  0  0
   37.7960   23.7830   38.3230 C   0  0  0  0  0  0  0  0  0  0  0  0
   37.0020   23.9960   39.0320 H   0  0  0  0  0  0  0  0  0  0  0  0
   39.0130   23.2900   38.8050 C   0  0  0  0  0  3  0  0  0  0  0  0
   40.0430   23.0100   37.9310 C   0  0  0  0  0  3  0  0  0  0  0  0
   37.9330   21.4240   31.0950 C   0  0  0  0  0  0  0  0  0  0  0  0
   37.0130   22.1110   31.9030 C   0  0  0  0  0  0  0  0  0  0  0  0
   35.6840   21.6740   31.9450 C   0  0  0  0  0  0  0  0  0  0  0  0
   35.3500   20.5970   31.1930 N   0  0  0  0  0  0  0  0  0  0  0  0
   36.2180   19.9510   30.4310 C   0  0  0  0  0  0  0  0  0  0  0  0
   37.5000   20.3590   30.3800 N   0  0  0  0  0  0  0  0  0  0  0  0
   34.9880   22.2270   32.5830 H   0  0  0  0  0  0  0  0  0  0  0  0
   35.9390   19.0880   29.8310 H   0  0  0  0  0  0  0  0  0  0  0  0
   40.4570   21.3690   31.7300 C   0  0  0  0  0  0  0  0  0  0  0  0
   40.4150   20.4780   32.5960 O   0  0  0  0  0  0  0  0  0  0  0  0
   39.2970   21.7740   30.9900 N   0  0  0  0  0  0  0  0  0  0  0  0
   41.4220   21.7720   31.6180 H   0  0  0  0  0  0  0  0  0  0  0  0
   39.5880   22.4630   30.2390 H   0  0  0  0  0  0  0  0  0  0  0  0
  1  7  1  0  0  0  0
  2  1  1  0  0  0  0
  2  3  2  0  0  0  0
  3  4  1  0  0  0  0
  4  6  1  0  0  0  0
  4  5  2  0  0  0  0
  6 13  1  0  0  0  0
  7  8  2  0  0  0  0
  7  6  1  0  0  0  0
  9  2  1  0  0  0  0
 10  3  1  0  0  0  0
 11 12  1  0  0  0  0
 12 19  1  0  0  0  0
 13 12  2  0  0  0  0
 13 14  1  0  0  0  0
 14 16  2  0  0  0  0
 15 14  1  0  0  0  0
 16 18  1  0  0  0  0
 16 17  1  0  0  0  0
 19 18  2  0  0  0  0
 20 21  1  0  0  0  0
 21 22  2  0  0  0  0
 21  1  1  0  0  0  0
 22 26  1  0  0  0  0
 23 22  1  0  0  0  0
 24 23  2  0  0  0  0
 25 24  1  0  0  0  0
 25 20  2  0  0  0  0
 27 24  1  0  0  0  0
 28 29  2  0  0  0  0
 30 20  1  0  0  0  0
 30 28  1  0  0  0  0
 31 28  1  0  0  0  0
 32 30  1  0  0  0  0
M  END
>  <minimizedAffinity>
-5.08005667

$$$$
