
 OpenBabel03272503493D

 37 39  0  0  1  0  0  0  0  0999 V2000
   33.2760   27.2680   45.8220 C   0  0  1  0  0  0  0  0  0  0  0  0
   33.9070   27.4290   47.2210 C   0  0  2  0  0  0  0  0  0  0  0  0
   33.6990   26.2230   47.8090 O   0  0  0  0  0  0  0  0  0  0  0  0
   34.0780   25.3060   46.8400 C   0  0  0  0  0  0  0  0  0  0  0  0
   33.6950   25.8560   45.4790 C   0  0  2  0  0  0  0  0  0  0  0  0
   33.7510   28.0090   45.1310 H   0  0  0  0  0  0  0  0  0  0  0  0
   34.9580   27.7310   47.0360 H   0  0  0  0  0  0  0  0  0  0  0  0
   33.4740   24.3900   47.0100 H   0  0  0  0  0  0  0  0  0  0  0  0
   35.1350   25.0210   46.8910 H   0  0  0  0  0  0  0  0  0  0  0  0
   32.7650   25.3620   45.1010 H   0  0  0  0  0  0  0  0  0  0  0  0
   31.9140   27.4740   45.8790 O   0  0  0  0  0  0  0  0  0  0  0  0
   31.6480   28.0650   45.1330 H   0  0  0  0  0  0  0  0  0  0  0  0
   33.2420   28.5000   47.7740 O   0  0  0  0  0  0  0  0  0  0  0  0
   35.3350   29.7810   46.7940 O   0  0  0  0  0  0  0  0  0  0  0  0
   34.0600   29.9610   47.6130 P   0  0  1  0  0  0  0  0  0  0  0  0
   33.1240   31.0590   46.7260 O   0  0  0  0  0  0  0  0  0  0  0  0
   32.3010   31.2150   47.2760 H   0  0  0  0  0  0  0  0  0  0  0  0
   34.3430   30.5490   49.1890 O   0  0  0  0  0  0  0  0  0  0  0  0
   35.5910   30.4560   49.7900 C   0  0  0  0  0  0  0  0  0  0  0  0
   35.9770   29.4480   50.7020 C   0  0  0  0  0  0  0  0  0  0  0  0
   37.2630   29.4880   51.2200 C   0  0  0  0  0  0  0  0  0  0  0  0
   38.0930   30.4970   50.8310 N   0  0  0  0  0  0  0  0  0  0  0  0
   37.6940   31.4500   49.9540 C   0  0  0  0  0  0  0  0  0  0  0  0
   36.4370   31.4320   49.4300 N   0  0  0  0  0  0  0  0  0  0  0  0
   35.2290   28.7250   50.9160 H   0  0  0  0  0  0  0  0  0  0  0  0
   37.5430   28.7120   51.9140 H   0  0  0  0  0  0  0  0  0  0  0  0
   38.3990   32.2290   49.6810 H   0  0  0  0  0  0  0  0  0  0  0  0
   34.7530   25.8560   44.6390 O   0  0  0  0  0  0  0  0  0  0  0  0
   36.8890   23.4790   45.1040 Br  0  0  0  0  0  0  0  0  0  0  0  0
   36.1190   24.1000   43.5020 C   0  0  0  0  0  0  0  0  0  0  0  0
   35.2340   25.1370   43.6190 C   0  0  0  0  0  0  0  0  0  0  0  0
   34.6670   25.5900   42.4170 C   0  0  0  0  0  0  0  0  0  0  0  0
   33.9420   26.3980   42.2740 H   0  0  0  0  0  0  0  0  0  0  0  0
   34.9900   25.0160   41.1810 C   0  0  0  0  0  0  0  0  0  0  0  0
   34.5830   25.3270   40.2310 H   0  0  0  0  0  0  0  0  0  0  0  0
   35.8940   23.9740   41.1640 C   0  0  0  0  0  3  0  0  0  0  0  0
   36.4770   23.4940   42.3170 C   0  0  0  0  0  3  0  0  0  0  0  0
  1  6  1  6  0  0  0
  1 11  1  0  0  0  0
  1  2  1  0  0  0  0
  2  7  1  6  0  0  0
  2 13  1  0  0  0  0
  2  3  1  0  0  0  0
  4  9  1  0  0  0  0
  4  8  1  0  0  0  0
  4  3  1  0  0  0  0
  5 10  1  6  0  0  0
  5  1  1  0  0  0  0
  5  4  1  0  0  0  0
 12 11  1  0  0  0  0
 15 14  2  6  0  0  0
 15 13  1  0  0  0  0
 15 18  1  0  0  0  0
 16 17  1  0  0  0  0
 16 15  1  0  0  0  0
 18 19  1  0  0  0  0
 19 20  1  0  0  0  0
 20 25  1  0  0  0  0
 20 21  2  0  0  0  0
 21 26  1  0  0  0  0
 22 21  1  0  0  0  0
 23 22  2  0  0  0  0
 24 19  2  0  0  0  0
 24 23  1  0  0  0  0
 27 23  1  0  0  0  0
 28  5  1  0  0  0  0
 30 31  1  0  0  0  0
 30 29  1  0  0  0  0
 31 28  1  0  0  0  0
 32 31  2  0  0  0  0
 33 32  1  0  0  0  0
 34 32  1  0  0  0  0
 35 34  1  0  0  0  0
 36 34  2  0  0  0  0
 36 37  1  0  0  0  0
 37 30  2  0  0  0  0
M  END
>  <minimizedAffinity>
-4.20031071

>  <minimizedRMSD>
1.38353252

$$$$
