
 OpenBabel03272502203D

 28 30  0  0  0  0  0  0  0  0999 V2000
   36.1020   30.4260   46.6450 C   0  0  0  0  0  0  0  0  0  0  0  0
   36.6550   30.2110   45.3660 C   0  0  0  0  0  0  0  0  0  0  0  0
   35.8260   29.6490   44.3790 C   0  0  0  0  0  0  0  0  0  0  0  0
   34.5400   29.3480   44.7210 N   0  0  0  0  0  0  0  0  0  0  0  0
   34.0500   29.5700   45.9600 C   0  0  0  0  0  0  0  0  0  0  0  0
   34.8310   30.1050   46.9070 N   0  0  0  0  0  0  0  0  0  0  0  0
   37.6590   30.4480   45.1060 H   0  0  0  0  0  0  0  0  0  0  0  0
   36.1380   29.4440   43.3800 H   0  0  0  0  0  0  0  0  0  0  0  0
   33.7890   27.1530   47.9320 Br  0  0  0  0  0  0  0  0  0  0  0  0
   32.3730   28.2030   47.1680 C   0  0  0  0  0  0  0  0  0  0  0  0
   32.6720   29.2430   46.3140 C   0  0  0  0  0  0  0  0  0  0  0  0
   31.5950   29.9610   45.8060 C   0  0  0  0  0  0  0  0  0  0  0  0
   30.2760   29.6880   46.1090 C   0  0  0  0  0  0  0  0  0  0  0  0
   30.0410   28.6410   46.9650 C   0  0  0  0  0  0  0  0  0  0  0  0
   31.0860   27.9120   47.4840 C   0  0  0  0  0  0  0  0  0  0  0  0
   31.7890   30.7850   45.1320 H   0  0  0  0  0  0  0  0  0  0  0  0
   29.4740   30.2820   45.6830 H   0  0  0  0  0  0  0  0  0  0  0  0
   29.0100   28.4160   47.2120 H   0  0  0  0  0  0  0  0  0  0  0  0
   30.8360   27.0940   48.1560 H   0  0  0  0  0  0  0  0  0  0  0  0
   38.2770   32.2950   45.5390 Br  0  0  0  0  0  0  0  0  0  0  0  0
   37.9500   31.8700   47.3810 C   0  0  0  0  0  0  0  0  0  0  0  0
   36.9230   31.0050   47.6980 C   0  0  0  0  0  0  0  0  0  0  0  0
   36.7830   30.7740   49.0470 C   0  0  0  0  0  0  0  0  0  0  0  0
   35.9990   30.1070   49.3690 H   0  0  0  0  0  0  0  0  0  0  0  0
   37.5990   31.3590   49.9930 C   0  0  0  0  0  0  0  0  0  0  0  0
   37.4160   31.1190   51.0390 H   0  0  0  0  0  0  0  0  0  0  0  0
   38.6090   32.2130   49.6270 C   0  0  0  0  0  3  0  0  0  0  0  0
   38.7910   32.4780   48.2860 C   0  0  0  0  0  3  0  0  0  0  0  0
  1  6  1  0  0  0  0
  1 22  1  0  0  0  0
  2  1  2  0  0  0  0
  3  4  2  0  0  0  0
  3  2  1  0  0  0  0
  4  5  1  0  0  0  0
  5 11  1  0  0  0  0
  5  6  2  0  0  0  0
  7  2  1  0  0  0  0
  8  3  1  0  0  0  0
 10 15  1  0  0  0  0
 10  9  1  0  0  0  0
 11 10  2  0  0  0  0
 12 13  2  0  0  0  0
 12 11  1  0  0  0  0
 13 14  1  0  0  0  0
 14 18  1  0  0  0  0
 14 15  2  0  0  0  0
 15 19  1  0  0  0  0
 16 12  1  0  0  0  0
 17 13  1  0  0  0  0
 20 21  1  0  0  0  0
 21 22  2  0  0  0  0
 21 28  1  0  0  0  0
 22 23  1  0  0  0  0
 23 24  1  0  0  0  0
 23 25  2  0  0  0  0
 25 26  1  0  0  0  0
 27 25  1  0  0  0  0
 28 27  2  0  0  0  0
M  END
>  <minimizedAffinity>
-5.39790583

>  <minimizedRMSD>
4.58870745

$$$$
