
 OpenBabel03272508023D

 28 30  0  0  0  0  0  0  0  0999 V2000
   38.8560   30.9080   45.6740 C   0  0  0  0  0  0  0  0  0  0  0  0
   40.0760   31.4780   45.9640 C   0  0  0  0  0  0  0  0  0  0  0  0
   40.8890   31.4300   44.8220 C   0  0  0  0  0  0  0  0  0  0  0  0
   40.1080   30.8260   43.8800 N   0  0  0  0  0  0  0  0  0  0  0  0
   38.9240   30.5260   44.3940 N   0  0  0  0  0  0  0  0  0  0  0  0
   40.3520   31.8910   46.9220 H   0  0  0  0  0  0  0  0  0  0  0  0
   41.9020   31.7890   44.7020 H   0  0  0  0  0  0  0  0  0  0  0  0
   39.0030   32.7830   41.6990 Br  0  0  0  0  0  0  0  0  0  0  0  0
   40.0850   31.2640   41.4250 C   0  0  0  0  0  0  0  0  0  0  0  0
   40.4630   30.5340   42.5330 C   0  0  0  0  0  0  0  0  0  0  0  0
   41.2610   29.4170   42.3060 C   0  0  0  0  0  0  0  0  0  0  0  0
   41.6060   28.7840   43.1280 H   0  0  0  0  0  0  0  0  0  0  0  0
   41.6800   29.0150   41.0770 C   0  0  0  0  0  0  0  0  0  0  0  0
   42.2990   28.1530   40.8850 H   0  0  0  0  0  0  0  0  0  0  0  0
   41.2790   29.7780   39.9740 C   0  0  0  0  0  3  0  0  0  0  0  0
   40.4780   30.9080   40.1500 C   0  0  0  0  0  3  0  0  0  0  0  0
   37.7200   30.7560   46.5880 C   0  0  0  0  0  0  0  0  0  0  0  0
   37.9390   31.0550   47.9600 C   0  0  0  0  0  0  0  0  0  0  0  0
   36.8350   30.9020   48.8160 C   0  0  0  0  0  0  0  0  0  0  0  0
   35.6530   30.4890   48.3010 N   0  0  0  0  0  0  0  0  0  0  0  0
   35.4890   30.2160   46.9890 C   0  0  0  0  0  0  0  0  0  0  0  0
   36.5340   30.3560   46.1510 N   0  0  0  0  0  0  0  0  0  0  0  0
   38.8970   31.3820   48.3270 H   0  0  0  0  0  0  0  0  0  0  0  0
   34.5410   29.8930   46.6290 H   0  0  0  0  0  0  0  0  0  0  0  0
   37.0430   31.2110   50.2650 C   0  0  0  0  0  0  0  0  0  0  0  0
   36.3240   30.2430   50.9480 F   0  0  0  0  0  0  0  0  0  0  0  0
   38.3660   31.0930   50.6390 F   0  0  0  0  0  0  0  0  0  0  0  0
   36.5490   32.4460   50.6190 F   0  0  0  0  0  0  0  0  0  0  0  0
  1  2  1  0  0  0  0
  1 17  1  0  0  0  0
  2  6  1  0  0  0  0
  3  2  2  0  0  0  0
  4  5  1  0  0  0  0
  4  3  1  0  0  0  0
  5  1  2  0  0  0  0
  7  3  1  0  0  0  0
  9  8  1  0  0  0  0
  9 10  1  0  0  0  0
 10  4  1  0  0  0  0
 11 10  2  0  0  0  0
 11 12  1  0  0  0  0
 13 11  1  0  0  0  0
 14 13  1  0  0  0  0
 15 16  1  0  0  0  0
 15 13  2  0  0  0  0
 16  9  2  0  0  0  0
 17 18  1  0  0  0  0
 18 23  1  0  0  0  0
 18 19  2  0  0  0  0
 19 25  1  0  0  0  0
 20 19  1  0  0  0  0
 21 20  2  0  0  0  0
 22 17  2  0  0  0  0
 22 21  1  0  0  0  0
 24 21  1  0  0  0  0
 25 28  1  0  0  0  0
 25 27  1  0  0  0  0
 25 26  1  0  0  0  0
M  END
>  <minimizedAffinity>
-6.27358341

>  <minimizedRMSD>
1.88832402

$$$$
