
 OpenBabel03272502203D

 28 30  0  0  0  0  0  0  0  0999 V2000
   37.8000   31.8480   46.9130 C   0  0  0  0  0  0  0  0  0  0  0  0
   38.0080   31.7020   45.5270 C   0  0  0  0  0  0  0  0  0  0  0  0
   37.2000   30.7820   44.8360 C   0  0  0  0  0  0  0  0  0  0  0  0
   36.2660   30.0890   45.5500 N   0  0  0  0  0  0  0  0  0  0  0  0
   36.1010   30.2600   46.8800 C   0  0  0  0  0  0  0  0  0  0  0  0
   36.8640   31.1340   47.5480 N   0  0  0  0  0  0  0  0  0  0  0  0
   38.7380   32.2460   44.9760 H   0  0  0  0  0  0  0  0  0  0  0  0
   37.2690   30.5920   43.7890 H   0  0  0  0  0  0  0  0  0  0  0  0
   37.1280   29.1880   49.6360 Br  0  0  0  0  0  0  0  0  0  0  0  0
   35.3820   28.9650   48.8660 C   0  0  0  0  0  0  0  0  0  0  0  0
   35.0990   29.5120   47.6330 C   0  0  0  0  0  0  0  0  0  0  0  0
   33.8120   29.3140   47.1450 C   0  0  0  0  0  0  0  0  0  0  0  0
   32.8320   28.6120   47.8190 C   0  0  0  0  0  0  0  0  0  0  0  0
   33.1740   28.0900   49.0410 C   0  0  0  0  0  0  0  0  0  0  0  0
   34.4390   28.2700   49.5510 C   0  0  0  0  0  0  0  0  0  0  0  0
   33.5510   29.7280   46.1800 H   0  0  0  0  0  0  0  0  0  0  0  0
   31.8430   28.4880   47.3890 H   0  0  0  0  0  0  0  0  0  0  0  0
   32.4140   27.5380   49.5810 H   0  0  0  0  0  0  0  0  0  0  0  0
   34.6490   27.8320   50.5250 H   0  0  0  0  0  0  0  0  0  0  0  0
   36.7890   32.2180   49.7910 Br  0  0  0  0  0  0  0  0  0  0  0  0
   38.3030   33.0750   48.9830 C   0  0  0  0  0  0  0  0  0  0  0  0
   38.6130   32.7890   47.6700 C   0  0  0  0  0  0  0  0  0  0  0  0
   39.7180   33.4600   47.1970 C   0  0  0  0  0  0  0  0  0  0  0  0
   40.0200   33.2860   46.1760 H   0  0  0  0  0  0  0  0  0  0  0  0
   40.4440   34.3410   47.9730 C   0  0  0  0  0  0  0  0  0  0  0  0
   41.3040   34.8280   47.5160 H   0  0  0  0  0  0  0  0  0  0  0  0
   40.0940   34.5920   49.2760 C   0  0  0  0  0  3  0  0  0  0  0  0
   38.9940   33.9430   49.7970 C   0  0  0  0  0  3  0  0  0  0  0  0
  1  6  1  0  0  0  0
  1 22  1  0  0  0  0
  2  1  2  0  0  0  0
  3  2  1  0  0  0  0
  3  4  2  0  0  0  0
  4  5  1  0  0  0  0
  5  6  2  0  0  0  0
  5 11  1  0  0  0  0
  7  2  1  0  0  0  0
  8  3  1  0  0  0  0
 10 15  1  0  0  0  0
 10  9  1  0  0  0  0
 11 10  2  0  0  0  0
 12 11  1  0  0  0  0
 12 13  2  0  0  0  0
 13 14  1  0  0  0  0
 14 15  2  0  0  0  0
 14 18  1  0  0  0  0
 15 19  1  0  0  0  0
 16 12  1  0  0  0  0
 17 13  1  0  0  0  0
 21 20  1  0  0  0  0
 21 28  1  0  0  0  0
 22 21  2  0  0  0  0
 23 22  1  0  0  0  0
 23 25  2  0  0  0  0
 24 23  1  0  0  0  0
 25 27  1  0  0  0  0
 26 25  1  0  0  0  0
 27 28  2  0  0  0  0
M  END
>  <minimizedAffinity>
-5.1394968

>  <minimizedRMSD>
2.77038193

$$$$
