
 OpenBabel03272500263D

 34 36  0  0  0  0  0  0  0  0999 V2000
   39.7490   31.8550   46.4820 C   0  0  0  0  0  0  0  0  0  0  0  0
   40.7060   32.4370   46.4900 H   0  0  0  0  0  0  0  0  0  0  0  0
   40.0610   30.8610   46.9230 H   0  0  0  0  0  0  0  0  0  0  0  0
   39.3670   31.6810   45.1090 C   0  0  0  0  0  0  0  0  0  0  0  0
   39.1490   32.7490   44.2990 C   0  0  0  0  0  0  0  0  0  0  0  0
   38.7770   32.5840   42.9600 C   0  0  0  0  0  0  0  0  0  0  0  0
   38.6520   31.2670   42.5360 N   0  0  0  0  0  0  0  0  0  0  0  0
   38.8740   30.2320   43.3580 C   0  0  0  0  0  0  0  0  0  0  0  0
   39.2280   30.4660   44.6330 N   0  0  0  0  0  0  0  0  0  0  0  0
   39.2370   33.7750   44.5940 H   0  0  0  0  0  0  0  0  0  0  0  0
   38.5990   33.3960   42.2960 H   0  0  0  0  0  0  0  0  0  0  0  0
   41.4690   29.1800   42.0140 Br  0  0  0  0  0  0  0  0  0  0  0  0
   39.8140   28.2590   42.2340 C   0  0  0  0  0  0  0  0  0  0  0  0
   38.7280   28.8680   42.8650 C   0  0  0  0  0  0  0  0  0  0  0  0
   37.5490   28.1920   43.0130 C   0  0  0  0  0  0  0  0  0  0  0  0
   36.6770   28.6460   43.5050 H   0  0  0  0  0  0  0  0  0  0  0  0
   37.3640   26.8880   42.5580 C   0  0  0  0  0  0  0  0  0  0  0  0
   36.4190   26.3760   42.6880 H   0  0  0  0  0  0  0  0  0  0  0  0
   38.4370   26.2630   41.9250 C   0  0  0  0  0  3  0  0  0  0  0  0
   39.6260   26.9690   41.7850 C   0  0  0  0  0  3  0  0  0  0  0  0
   38.8070   32.4410   47.4460 C   0  0  0  0  0  0  0  0  0  0  0  0
   38.0630   33.1370   47.0070 H   0  0  0  0  0  0  0  0  0  0  0  0
   39.3490   33.0810   48.2040 H   0  0  0  0  0  0  0  0  0  0  0  0
   38.0630   31.4570   48.2570 C   0  0  0  0  0  0  0  0  0  0  0  0
   37.0170   30.7200   47.7070 C   0  0  0  0  0  0  0  0  0  0  0  0
   36.5180   29.8960   48.6830 C   0  0  0  0  0  0  0  0  0  0  0  0
   37.2430   30.1320   49.7890 N   0  0  0  0  0  0  0  0  0  0  0  0
   38.1330   31.0460   49.5050 N   0  0  0  0  0  0  0  0  0  0  0  0
   36.6350   30.7630   46.6850 H   0  0  0  0  0  0  0  0  0  0  0  0
   35.6980   29.1670   48.6490 H   0  0  0  0  0  0  0  0  0  0  0  0
   37.1070   29.5080   51.1040 C   0  0  0  0  0  0  0  0  0  0  0  0
   37.8700   28.3550   51.1610 F   0  0  0  0  0  0  0  0  0  0  0  0
   35.8070   29.1740   51.3870 F   0  0  0  0  0  0  0  0  0  0  0  0
   37.5680   30.3400   52.1050 F   0  0  0  0  0  0  0  0  0  0  0  0
  1  2  1  0  0  0  0
  1  3  1  0  0  0  0
  1 21  1  0  0  0  0
  4  1  1  0  0  0  0
  5 10  1  0  0  0  0
  5  4  2  0  0  0  0
  6  5  1  0  0  0  0
  7  6  2  0  0  0  0
  7  8  1  0  0  0  0
  8  9  2  0  0  0  0
  9  4  1  0  0  0  0
 11  6  1  0  0  0  0
 12 13  1  0  0  0  0
 13 14  1  0  0  0  0
 14 15  2  0  0  0  0
 14  8  1  0  0  0  0
 15 16  1  0  0  0  0
 17 18  1  0  0  0  0
 17 15  1  0  0  0  0
 19 17  2  0  0  0  0
 20 19  1  0  0  0  0
 20 13  2  0  0  0  0
 21 23  1  0  0  0  0
 21 24  1  0  0  0  0
 22 21  1  0  0  0  0
 24 28  2  0  0  0  0
 25 24  1  0  0  0  0
 25 26  2  0  0  0  0
 26 27  1  0  0  0  0
 27 31  1  0  0  0  0
 28 27  1  0  0  0  0
 29 25  1  0  0  0  0
 30 26  1  0  0  0  0
 31 32  1  0  0  0  0
 31 33  1  0  0  0  0
 31 34  1  0  0  0  0
M  END
>  <minimizedAffinity>
-6.08403969

>  <minimizedRMSD>
1.9583658

$$$$
