
 OpenBabel03272507523D

 32 34  0  0  0  0  0  0  0  0999 V2000
   37.1670   31.2500   47.4780 N   0  0  0  0  0  0  0  0  0  0  0  0
   37.7640   32.1700   48.2350 C   0  0  0  0  0  0  0  0  0  0  0  0
   38.8500   32.8820   47.7320 C   0  0  0  0  0  0  0  0  0  0  0  0
   39.2070   32.5530   46.4570 C   0  0  0  0  0  0  0  0  0  0  0  0
   40.1980   33.2080   46.0060 O   0  0  0  0  0  0  0  0  0  0  0  0
   38.6400   31.6460   45.6710 N   0  0  0  0  0  0  0  0  0  0  0  0
   37.5900   30.9830   46.2110 C   0  0  0  0  0  0  0  0  0  0  0  0
   37.0330   30.1110   45.4780 O   0  0  0  0  0  0  0  0  0  0  0  0
   37.4000   32.3570   49.2420 H   0  0  0  0  0  0  0  0  0  0  0  0
   39.3600   33.6380   48.3200 H   0  0  0  0  0  0  0  0  0  0  0  0
   36.8940   32.7220   43.3040 Br  0  0  0  0  0  0  0  0  0  0  0  0
   38.4970   31.7050   43.1440 C   0  0  0  0  0  0  0  0  0  0  0  0
   39.0700   31.3570   44.3510 C   0  0  0  0  0  0  0  0  0  0  0  0
   40.2400   30.6150   44.3610 C   0  0  0  0  0  0  0  0  0  0  0  0
   40.7960   30.2760   45.2500 H   0  0  0  0  0  0  0  0  0  0  0  0
   40.8560   30.2110   43.1790 C   0  0  0  0  0  0  0  0  0  0  0  0
   41.7720   29.6300   43.1550 H   0  0  0  0  0  0  0  0  0  0  0  0
   40.2590   30.5740   41.9670 C   0  0  0  0  0  3  0  0  0  0  0  0
   39.0930   31.3130   41.9640 C   0  0  0  0  0  3  0  0  0  0  0  0
   35.9190   30.2880   49.3250 C   0  0  0  0  0  0  0  0  0  0  0  0
   36.0480   30.4770   47.9390 C   0  0  0  0  0  0  0  0  0  0  0  0
   35.0960   29.9130   47.0830 C   0  0  0  0  0  0  0  0  0  0  0  0
   34.0860   29.2040   47.6440 N   0  0  0  0  0  0  0  0  0  0  0  0
   33.9660   29.0250   48.9490 C   0  0  0  0  0  0  0  0  0  0  0  0
   34.8740   29.5620   49.7850 N   0  0  0  0  0  0  0  0  0  0  0  0
   35.2190   30.0760   46.0080 H   0  0  0  0  0  0  0  0  0  0  0  0
   33.1510   28.4530   49.3880 H   0  0  0  0  0  0  0  0  0  0  0  0
   37.5380   30.2280   51.3630 C   0  0  0  0  0  0  0  0  0  0  0  0
   37.5390   29.0020   51.5680 O   0  0  0  0  0  0  0  0  0  0  0  0
   36.8160   30.8230   50.2750 N   0  0  0  0  0  0  0  0  0  0  0  0
   38.1160   30.7520   52.0690 H   0  0  0  0  0  0  0  0  0  0  0  0
   37.0460   31.8560   50.2300 H   0  0  0  0  0  0  0  0  0  0  0  0
  1 21  1  0  0  0  0
  1  2  1  0  0  0  0
  2  9  1  0  0  0  0
  3  2  2  0  0  0  0
  3 10  1  0  0  0  0
  4  3  1  0  0  0  0
  5  4  2  0  0  0  0
  6  7  1  0  0  0  0
  6  4  1  0  0  0  0
  7  1  1  0  0  0  0
  8  7  2  0  0  0  0
 12 11  1  0  0  0  0
 12 13  1  0  0  0  0
 13 14  2  0  0  0  0
 13  6  1  0  0  0  0
 14 15  1  0  0  0  0
 16 14  1  0  0  0  0
 17 16  1  0  0  0  0
 18 16  2  0  0  0  0
 19 18  1  0  0  0  0
 19 12  2  0  0  0  0
 20 25  1  0  0  0  0
 20 30  1  0  0  0  0
 21 20  2  0  0  0  0
 22 23  2  0  0  0  0
 22 21  1  0  0  0  0
 23 24  1  0  0  0  0
 24 27  1  0  0  0  0
 24 25  2  0  0  0  0
 26 22  1  0  0  0  0
 28 29  2  0  0  0  0
 28 31  1  0  0  0  0
 30 28  1  0  0  0  0
 32 30  1  0  0  0  0
M  END
>  <minimizedAffinity>
-5.65994978

>  <minimizedRMSD>
2.65290356

$$$$
