
 OpenBabel03272508023D

 28 30  0  0  0  0  0  0  0  0999 V2000
   38.8850   30.9080   45.7590 C   0  0  0  0  0  0  0  0  0  0  0  0
   40.1020   31.4910   46.0340 C   0  0  0  0  0  0  0  0  0  0  0  0
   40.9020   31.4520   44.8820 C   0  0  0  0  0  0  0  0  0  0  0  0
   40.1150   30.8380   43.9500 N   0  0  0  0  0  0  0  0  0  0  0  0
   38.9410   30.5260   44.4790 N   0  0  0  0  0  0  0  0  0  0  0  0
   40.3850   31.9070   46.9890 H   0  0  0  0  0  0  0  0  0  0  0  0
   41.9090   31.8220   44.7500 H   0  0  0  0  0  0  0  0  0  0  0  0
   38.9970   32.8070   41.7870 Br  0  0  0  0  0  0  0  0  0  0  0  0
   40.0720   31.2870   41.4960 C   0  0  0  0  0  0  0  0  0  0  0  0
   40.4580   30.5510   42.5990 C   0  0  0  0  0  0  0  0  0  0  0  0
   41.2510   29.4340   42.3600 C   0  0  0  0  0  0  0  0  0  0  0  0
   41.6010   28.7950   43.1760 H   0  0  0  0  0  0  0  0  0  0  0  0
   41.6560   29.0340   41.1250 C   0  0  0  0  0  0  0  0  0  0  0  0
   42.2710   28.1700   40.9250 H   0  0  0  0  0  0  0  0  0  0  0  0
   41.2470   29.8010   40.0290 C   0  0  0  0  0  3  0  0  0  0  0  0
   40.4510   30.9330   40.2170 C   0  0  0  0  0  3  0  0  0  0  0  0
   37.7620   30.7430   46.6870 C   0  0  0  0  0  0  0  0  0  0  0  0
   38.0140   30.9700   48.0660 C   0  0  0  0  0  0  0  0  0  0  0  0
   36.9220   30.8070   48.9350 C   0  0  0  0  0  0  0  0  0  0  0  0
   35.7190   30.4510   48.4240 N   0  0  0  0  0  0  0  0  0  0  0  0
   35.5230   30.2460   47.1050 C   0  0  0  0  0  0  0  0  0  0  0  0
   36.5570   30.3970   46.2540 N   0  0  0  0  0  0  0  0  0  0  0  0
   38.9880   31.2520   48.4300 H   0  0  0  0  0  0  0  0  0  0  0  0
   34.5610   29.9680   46.7480 H   0  0  0  0  0  0  0  0  0  0  0  0
   37.1640   31.0400   50.3940 C   0  0  0  0  0  0  0  0  0  0  0  0
   36.6270   32.2900   50.6550 F   0  0  0  0  0  0  0  0  0  0  0  0
   36.5010   30.1240   51.1860 F   0  0  0  0  0  0  0  0  0  0  0  0
   38.5040   31.0700   50.7090 F   0  0  0  0  0  0  0  0  0  0  0  0
  1  2  1  0  0  0  0
  1 17  1  0  0  0  0
  2  6  1  0  0  0  0
  3  2  2  0  0  0  0
  4  5  1  0  0  0  0
  4  3  1  0  0  0  0
  5  1  2  0  0  0  0
  7  3  1  0  0  0  0
  9  8  1  0  0  0  0
  9 10  1  0  0  0  0
 10  4  1  0  0  0  0
 11 10  2  0  0  0  0
 11 12  1  0  0  0  0
 13 11  1  0  0  0  0
 14 13  1  0  0  0  0
 15 16  1  0  0  0  0
 15 13  2  0  0  0  0
 16  9  2  0  0  0  0
 17 18  1  0  0  0  0
 18 23  1  0  0  0  0
 18 19  2  0  0  0  0
 19 25  1  0  0  0  0
 20 19  1  0  0  0  0
 21 20  2  0  0  0  0
 22 17  2  0  0  0  0
 22 21  1  0  0  0  0
 24 21  1  0  0  0  0
 25 26  1  0  0  0  0
 25 28  1  0  0  0  0
 25 27  1  0  0  0  0
M  END
>  <minimizedAffinity>
-6.37118292

>  <minimizedRMSD>
1.19313252

$$$$
