
 OpenBabel03272508033D

 28 30  0  0  0  0  0  0  0  0999 V2000
   37.2000   26.7850   34.2580 C   0  0  0  0  0  0  0  0  0  0  0  0
   37.1960   27.2080   32.9470 C   0  0  0  0  0  0  0  0  0  0  0  0
   36.5620   28.4570   32.8690 C   0  0  0  0  0  0  0  0  0  0  0  0
   36.2080   28.7340   34.1580 N   0  0  0  0  0  0  0  0  0  0  0  0
   36.5870   27.7470   34.9570 N   0  0  0  0  0  0  0  0  0  0  0  0
   37.6170   26.6570   32.1200 H   0  0  0  0  0  0  0  0  0  0  0  0
   36.3910   29.0700   31.9950 H   0  0  0  0  0  0  0  0  0  0  0  0
   33.3390   29.2260   33.0060 Br  0  0  0  0  0  0  0  0  0  0  0  0
   34.2640   30.2950   34.2510 C   0  0  0  0  0  0  0  0  0  0  0  0
   35.5310   29.8940   34.6280 C   0  0  0  0  0  0  0  0  0  0  0  0
   36.1950   30.6990   35.5480 C   0  0  0  0  0  0  0  0  0  0  0  0
   37.2010   30.4550   35.9000 H   0  0  0  0  0  0  0  0  0  0  0  0
   35.6760   31.8360   36.0830 C   0  0  0  0  0  0  0  0  0  0  0  0
   36.1790   32.4690   36.7970 H   0  0  0  0  0  0  0  0  0  0  0  0
   34.3910   32.2140   35.6800 C   0  0  0  0  0  3  0  0  0  0  0  0
   33.6830   31.4390   34.7590 C   0  0  0  0  0  3  0  0  0  0  0  0
   37.7610   25.5330   34.7740 C   0  0  0  0  0  0  0  0  0  0  0  0
   37.7170   25.3260   36.1790 C   0  0  0  0  0  0  0  0  0  0  0  0
   38.2610   24.1190   36.6500 C   0  0  0  0  0  0  0  0  0  0  0  0
   38.7840   23.2400   35.7620 N   0  0  0  0  0  0  0  0  0  0  0  0
   38.8040   23.4770   34.4330 C   0  0  0  0  0  0  0  0  0  0  0  0
   38.2880   24.6290   33.9610 N   0  0  0  0  0  0  0  0  0  0  0  0
   37.2910   26.0530   36.8510 H   0  0  0  0  0  0  0  0  0  0  0  0
   39.2260   22.7580   33.7730 H   0  0  0  0  0  0  0  0  0  0  0  0
   38.2260   23.8800   38.1270 C   0  0  0  0  0  0  0  0  0  0  0  0
   39.4850   23.3980   38.4450 F   0  0  0  0  0  0  0  0  0  0  0  0
   38.0300   25.0460   38.8390 F   0  0  0  0  0  0  0  0  0  0  0  0
   37.2960   22.9320   38.4870 F   0  0  0  0  0  0  0  0  0  0  0  0
  1 17  1  0  0  0  0
  1  5  2  0  0  0  0
  2  1  1  0  0  0  0
  3  2  2  0  0  0  0
  3  4  1  0  0  0  0
  4 10  1  0  0  0  0
  4  5  1  0  0  0  0
  6  2  1  0  0  0  0
  7  3  1  0  0  0  0
  8  9  1  0  0  0  0
  9 10  2  0  0  0  0
  9 16  1  0  0  0  0
 10 11  1  0  0  0  0
 11 12  1  0  0  0  0
 11 13  2  0  0  0  0
 13 14  1  0  0  0  0
 15 13  1  0  0  0  0
 16 15  2  0  0  0  0
 17 18  1  0  0  0  0
 18 19  2  0  0  0  0
 18 23  1  0  0  0  0
 19 25  1  0  0  0  0
 20 19  1  0  0  0  0
 21 20  2  0  0  0  0
 22 21  1  0  0  0  0
 22 17  2  0  0  0  0
 24 21  1  0  0  0  0
 25 26  1  0  0  0  0
 25 28  1  0  0  0  0
 25 27  1  0  0  0  0
M  END
>  <minimizedAffinity>
-5.99132013

$$$$

 OpenBabel03272508033D

 28 30  0  0  0  0  0  0  0  0999 V2000
   36.9120   27.3040   33.9530 C   0  0  0  0  0  0  0  0  0  0  0  0
   36.8820   27.9160   32.7190 C   0  0  0  0  0  0  0  0  0  0  0  0
   36.2380   29.1560   32.8350 C   0  0  0  0  0  0  0  0  0  0  0  0
   35.9050   29.2380   34.1570 N   0  0  0  0  0  0  0  0  0  0  0  0
   36.3050   28.1480   34.7950 N   0  0  0  0  0  0  0  0  0  0  0  0
   37.2910   27.4950   31.8130 H   0  0  0  0  0  0  0  0  0  0  0  0
   36.0450   29.8890   32.0640 H   0  0  0  0  0  0  0  0  0  0  0  0
   32.8270   29.4540   33.6260 Br  0  0  0  0  0  0  0  0  0  0  0  0
   33.8790   30.5850   34.7060 C   0  0  0  0  0  0  0  0  0  0  0  0
   35.2280   30.3090   34.8030 C   0  0  0  0  0  0  0  0  0  0  0  0
   35.9830   31.1570   35.6060 C   0  0  0  0  0  0  0  0  0  0  0  0
   37.0590   31.0110   35.7390 H   0  0  0  0  0  0  0  0  0  0  0  0
   35.4770   32.2210   36.2840 C   0  0  0  0  0  0  0  0  0  0  0  0
   36.0500   32.8860   36.9100 H   0  0  0  0  0  0  0  0  0  0  0  0
   34.1060   32.4730   36.1640 C   0  0  0  0  0  3  0  0  0  0  0  0
   33.3040   31.6500   35.3700 C   0  0  0  0  0  3  0  0  0  0  0  0
   37.4920   25.9960   34.2700 C   0  0  0  0  0  0  0  0  0  0  0  0
   37.6180   25.6510   35.6430 C   0  0  0  0  0  0  0  0  0  0  0  0
   38.1760   24.3920   35.9210 C   0  0  0  0  0  0  0  0  0  0  0  0
   38.5540   23.5950   34.8930 N   0  0  0  0  0  0  0  0  0  0  0  0
   38.4150   23.9630   33.6020 C   0  0  0  0  0  0  0  0  0  0  0  0
   37.8820   25.1660   33.3120 N   0  0  0  0  0  0  0  0  0  0  0  0
   37.3040   26.3160   36.4300 H   0  0  0  0  0  0  0  0  0  0  0  0
   38.7260   23.3050   32.8270 H   0  0  0  0  0  0  0  0  0  0  0  0
   38.3190   24.0090   37.3610 C   0  0  0  0  0  0  0  0  0  0  0  0
   37.3190   23.0770   37.5880 F   0  0  0  0  0  0  0  0  0  0  0  0
   39.5290   23.3970   37.6200 F   0  0  0  0  0  0  0  0  0  0  0  0
   38.1230   25.0710   38.2140 F   0  0  0  0  0  0  0  0  0  0  0  0
  1 17  1  0  0  0  0
  1  5  2  0  0  0  0
  2  3  2  0  0  0  0
  2  1  1  0  0  0  0
  3  4  1  0  0  0  0
  4  5  1  0  0  0  0
  4 10  1  0  0  0  0
  6  2  1  0  0  0  0
  7  3  1  0  0  0  0
  8  9  1  0  0  0  0
  9 10  2  0  0  0  0
  9 16  1  0  0  0  0
 10 11  1  0  0  0  0
 11 12  1  0  0  0  0
 11 13  2  0  0  0  0
 13 14  1  0  0  0  0
 15 13  1  0  0  0  0
 16 15  2  0  0  0  0
 17 18  1  0  0  0  0
 18 19  2  0  0  0  0
 18 23  1  0  0  0  0
 19 25  1  0  0  0  0
 20 19  1  0  0  0  0
 21 20  2  0  0  0  0
 22 21  1  0  0  0  0
 22 17  2  0  0  0  0
 24 21  1  0  0  0  0
 25 26  1  0  0  0  0
 25 27  1  0  0  0  0
 25 28  1  0  0  0  0
M  END
>  <minimizedAffinity>
-5.76678658

$$$$

 OpenBabel03272508033D

 28 30  0  0  0  0  0  0  0  0999 V2000
   38.8380   25.4700   33.8320 C   0  0  0  0  0  0  0  0  0  0  0  0
   39.9570   26.2590   33.9870 C   0  0  0  0  0  0  0  0  0  0  0  0
   39.9710   27.2410   32.9850 C   0  0  0  0  0  0  0  0  0  0  0  0
   38.8390   26.9960   32.2610 N   0  0  0  0  0  0  0  0  0  0  0  0
   38.1900   25.9580   32.7680 N   0  0  0  0  0  0  0  0  0  0  0  0
   40.6990   26.1310   34.7600 H   0  0  0  0  0  0  0  0  0  0  0  0
   40.7020   28.0190   32.8160 H   0  0  0  0  0  0  0  0  0  0  0  0
   36.2850   28.7590   32.6710 Br  0  0  0  0  0  0  0  0  0  0  0  0
   37.2790   28.5470   31.0850 C   0  0  0  0  0  0  0  0  0  0  0  0
   38.3800   27.7150   31.1220 C   0  0  0  0  0  0  0  0  0  0  0  0
   39.0990   27.5740   29.9400 C   0  0  0  0  0  0  0  0  0  0  0  0
   39.9850   26.9350   29.8810 H   0  0  0  0  0  0  0  0  0  0  0  0
   38.7810   28.1970   28.7730 C   0  0  0  0  0  0  0  0  0  0  0  0
   39.3290   28.0970   27.8490 H   0  0  0  0  0  0  0  0  0  0  0  0
   37.6590   29.0320   28.7700 C   0  0  0  0  0  3  0  0  0  0  0  0
   36.9050   29.2070   29.9320 C   0  0  0  0  0  3  0  0  0  0  0  0
   38.4460   24.3310   34.6660 C   0  0  0  0  0  0  0  0  0  0  0  0
   38.4820   24.5090   36.0750 C   0  0  0  0  0  0  0  0  0  0  0  0
   38.1010   23.4030   36.8540 C   0  0  0  0  0  0  0  0  0  0  0  0
   37.7280   22.2570   36.2350 N   0  0  0  0  0  0  0  0  0  0  0  0
   37.7080   22.1320   34.8910 C   0  0  0  0  0  0  0  0  0  0  0  0
   38.0700   23.1800   34.1260 N   0  0  0  0  0  0  0  0  0  0  0  0
   38.7850   25.4390   36.5260 H   0  0  0  0  0  0  0  0  0  0  0  0
   37.4090   21.2120   34.4490 H   0  0  0  0  0  0  0  0  0  0  0  0
   38.1320   23.5670   38.3410 C   0  0  0  0  0  0  0  0  0  0  0  0
   39.4330   23.2680   38.7110 F   0  0  0  0  0  0  0  0  0  0  0  0
   37.8740   24.8660   38.7280 F   0  0  0  0  0  0  0  0  0  0  0  0
   37.2870   22.6940   38.9870 F   0  0  0  0  0  0  0  0  0  0  0  0
  1  2  1  0  0  0  0
  1 17  1  0  0  0  0
  2  6  1  0  0  0  0
  3  2  2  0  0  0  0
  4  5  1  0  0  0  0
  4  3  1  0  0  0  0
  5  1  2  0  0  0  0
  7  3  1  0  0  0  0
  9 10  1  0  0  0  0
  9  8  1  0  0  0  0
 10  4  1  0  0  0  0
 11 10  2  0  0  0  0
 12 11  1  0  0  0  0
 13 11  1  0  0  0  0
 14 13  1  0  0  0  0
 15 13  2  0  0  0  0
 15 16  1  0  0  0  0
 16  9  2  0  0  0  0
 17 18  1  0  0  0  0
 18 23  1  0  0  0  0
 18 19  2  0  0  0  0
 19 25  1  0  0  0  0
 20 19  1  0  0  0  0
 21 20  2  0  0  0  0
 22 17  2  0  0  0  0
 22 21  1  0  0  0  0
 24 21  1  0  0  0  0
 25 26  1  0  0  0  0
 25 27  1  0  0  0  0
 25 28  1  0  0  0  0
M  END
>  <minimizedAffinity>
-5.72826385

$$$$

 OpenBabel03272508033D

 28 30  0  0  0  0  0  0  0  0999 V2000
   37.9720   24.4850   33.6060 C   0  0  0  0  0  0  0  0  0  0  0  0
   37.3330   23.8770   32.5470 C   0  0  0  0  0  0  0  0  0  0  0  0
   36.8290   24.8630   31.6860 C   0  0  0  0  0  0  0  0  0  0  0  0
   37.1950   26.0390   32.2740 N   0  0  0  0  0  0  0  0  0  0  0  0
   37.8610   25.8010   33.3940 N   0  0  0  0  0  0  0  0  0  0  0  0
   37.2400   22.8100   32.4140 H   0  0  0  0  0  0  0  0  0  0  0  0
   36.2780   24.7330   30.7640 H   0  0  0  0  0  0  0  0  0  0  0  0
   39.2590   27.2280   30.2410 Br  0  0  0  0  0  0  0  0  0  0  0  0
   37.7020   28.0600   30.9010 C   0  0  0  0  0  0  0  0  0  0  0  0
   36.9250   27.3530   31.7980 C   0  0  0  0  0  0  0  0  0  0  0  0
   35.7810   27.9870   32.2700 C   0  0  0  0  0  0  0  0  0  0  0  0
   35.1100   27.4990   32.9830 H   0  0  0  0  0  0  0  0  0  0  0  0
   35.3950   29.2390   31.9070 C   0  0  0  0  0  0  0  0  0  0  0  0
   34.5110   29.7420   32.2650 H   0  0  0  0  0  0  0  0  0  0  0  0
   36.2050   29.9280   30.9970 C   0  0  0  0  0  3  0  0  0  0  0  0
   37.3640   29.3340   30.4930 C   0  0  0  0  0  3  0  0  0  0  0  0
   38.6350   23.8180   34.7300 C   0  0  0  0  0  0  0  0  0  0  0  0
   38.1500   24.0990   36.0360 C   0  0  0  0  0  0  0  0  0  0  0  0
   38.8010   23.4480   37.0970 C   0  0  0  0  0  0  0  0  0  0  0  0
   39.8290   22.6080   36.8250 N   0  0  0  0  0  0  0  0  0  0  0  0
   40.2570   22.3690   35.5670 C   0  0  0  0  0  0  0  0  0  0  0  0
   39.6460   22.9830   34.5350 N   0  0  0  0  0  0  0  0  0  0  0  0
   37.3290   24.7750   36.2070 H   0  0  0  0  0  0  0  0  0  0  0  0
   41.0680   21.7020   35.4010 H   0  0  0  0  0  0  0  0  0  0  0  0
   38.3080   23.7300   38.4810 C   0  0  0  0  0  0  0  0  0  0  0  0
   39.4170   23.5780   39.2980 F   0  0  0  0  0  0  0  0  0  0  0  0
   37.8600   25.0280   38.6210 F   0  0  0  0  0  0  0  0  0  0  0  0
   37.3430   22.8390   38.8910 F   0  0  0  0  0  0  0  0  0  0  0  0
  1 17  1  0  0  0  0
  2  1  1  0  0  0  0
  3  4  1  0  0  0  0
  3  2  2  0  0  0  0
  4  5  1  0  0  0  0
  5  1  2  0  0  0  0
  6  2  1  0  0  0  0
  7  3  1  0  0  0  0
  8  9  1  0  0  0  0
  9 10  1  0  0  0  0
 10 11  2  0  0  0  0
 10  4  1  0  0  0  0
 11 12  1  0  0  0  0
 13 14  1  0  0  0  0
 13 11  1  0  0  0  0
 15 13  2  0  0  0  0
 16  9  2  0  0  0  0
 16 15  1  0  0  0  0
 17 18  1  0  0  0  0
 18 23  1  0  0  0  0
 18 19  2  0  0  0  0
 19 25  1  0  0  0  0
 20 19  1  0  0  0  0
 21 20  2  0  0  0  0
 22 17  2  0  0  0  0
 22 21  1  0  0  0  0
 24 21  1  0  0  0  0
 25 27  1  0  0  0  0
 25 28  1  0  0  0  0
 25 26  1  0  0  0  0
M  END
>  <minimizedAffinity>
-5.66081715

$$$$

 OpenBabel03272508033D

 28 30  0  0  0  0  0  0  0  0999 V2000
   37.7840   25.3360   33.3850 C   0  0  0  0  0  0  0  0  0  0  0  0
   36.8210   24.8150   32.5480 C   0  0  0  0  0  0  0  0  0  0  0  0
   36.3080   25.8420   31.7420 C   0  0  0  0  0  0  0  0  0  0  0  0
   36.9970   26.9530   32.1350 N   0  0  0  0  0  0  0  0  0  0  0  0
   37.8540   26.6410   33.0960 N   0  0  0  0  0  0  0  0  0  0  0  0
   36.5180   23.7800   32.5270 H   0  0  0  0  0  0  0  0  0  0  0  0
   35.5440   25.7790   30.9790 H   0  0  0  0  0  0  0  0  0  0  0  0
   35.5990   29.0250   34.0210 Br  0  0  0  0  0  0  0  0  0  0  0  0
   36.2710   29.3350   32.2880 C   0  0  0  0  0  0  0  0  0  0  0  0
   36.8530   28.2730   31.6240 C   0  0  0  0  0  0  0  0  0  0  0  0
   37.3420   28.5260   30.3470 C   0  0  0  0  0  0  0  0  0  0  0  0
   37.8180   27.7420   29.7510 H   0  0  0  0  0  0  0  0  0  0  0  0
   37.2750   29.7340   29.7280 C   0  0  0  0  0  0  0  0  0  0  0  0
   37.6490   29.9450   28.7380 H   0  0  0  0  0  0  0  0  0  0  0  0
   36.6780   30.7890   30.4270 C   0  0  0  0  0  3  0  0  0  0  0  0
   36.1730   30.5860   31.7140 C   0  0  0  0  0  3  0  0  0  0  0  0
   38.5660   24.6040   34.3860 C   0  0  0  0  0  0  0  0  0  0  0  0
   38.0700   24.5840   35.7170 C   0  0  0  0  0  0  0  0  0  0  0  0
   38.8360   23.8760   36.6570 C   0  0  0  0  0  0  0  0  0  0  0  0
   39.9770   23.2650   36.2550 N   0  0  0  0  0  0  0  0  0  0  0  0
   40.4110   23.3090   34.9780 C   0  0  0  0  0  0  0  0  0  0  0  0
   39.6910   23.9840   34.0590 N   0  0  0  0  0  0  0  0  0  0  0  0
   37.1570   25.0840   35.9940 H   0  0  0  0  0  0  0  0  0  0  0  0
   41.3130   22.8160   34.7060 H   0  0  0  0  0  0  0  0  0  0  0  0
   38.3340   23.8420   38.0670 C   0  0  0  0  0  0  0  0  0  0  0  0
   39.4150   23.4260   38.8270 F   0  0  0  0  0  0  0  0  0  0  0  0
   37.9600   25.0910   38.5170 F   0  0  0  0  0  0  0  0  0  0  0  0
   37.3100   22.9390   38.2420 F   0  0  0  0  0  0  0  0  0  0  0  0
  1 17  1  0  0  0  0
  2  1  1  0  0  0  0
  3  4  1  0  0  0  0
  3  2  2  0  0  0  0
  4  5  1  0  0  0  0
  5  1  2  0  0  0  0
  6  2  1  0  0  0  0
  7  3  1  0  0  0  0
  9  8  1  0  0  0  0
 10  4  1  0  0  0  0
 10  9  2  0  0  0  0
 11 10  1  0  0  0  0
 12 11  1  0  0  0  0
 13 11  2  0  0  0  0
 13 15  1  0  0  0  0
 14 13  1  0  0  0  0
 15 16  2  0  0  0  0
 16  9  1  0  0  0  0
 17 18  1  0  0  0  0
 18 23  1  0  0  0  0
 18 19  2  0  0  0  0
 19 25  1  0  0  0  0
 20 19  1  0  0  0  0
 21 20  2  0  0  0  0
 22 17  2  0  0  0  0
 22 21  1  0  0  0  0
 24 21  1  0  0  0  0
 25 28  1  0  0  0  0
 25 27  1  0  0  0  0
 25 26  1  0  0  0  0
M  END
>  <minimizedAffinity>
-5.59478378

$$$$

 OpenBabel03272508033D

 28 30  0  0  0  0  0  0  0  0999 V2000
   37.0990   26.4190   33.4870 C   0  0  0  0  0  0  0  0  0  0  0  0
   37.1170   25.3050   32.6780 C   0  0  0  0  0  0  0  0  0  0  0  0
   37.7460   24.2510   33.3580 C   0  0  0  0  0  0  0  0  0  0  0  0
   38.0820   24.7880   34.5670 N   0  0  0  0  0  0  0  0  0  0  0  0
   37.6980   26.0550   34.6260 N   0  0  0  0  0  0  0  0  0  0  0  0
   36.7090   25.2610   31.6790 H   0  0  0  0  0  0  0  0  0  0  0  0
   37.9260   23.2420   33.0150 H   0  0  0  0  0  0  0  0  0  0  0  0
   41.0510   23.9430   34.0440 Br  0  0  0  0  0  0  0  0  0  0  0  0
   40.0520   23.6770   35.6200 C   0  0  0  0  0  0  0  0  0  0  0  0
   38.7480   24.1300   35.6390 C   0  0  0  0  0  0  0  0  0  0  0  0
   38.0310   23.9240   36.8120 C   0  0  0  0  0  0  0  0  0  0  0  0
   36.9920   24.2510   36.9140 H   0  0  0  0  0  0  0  0  0  0  0  0
   38.5330   23.3100   37.9170 C   0  0  0  0  0  0  0  0  0  0  0  0
   37.9890   23.1430   38.8330 H   0  0  0  0  0  0  0  0  0  0  0  0
   39.8570   22.8620   37.8640 C   0  0  0  0  0  3  0  0  0  0  0  0
   40.6200   23.0470   36.7090 C   0  0  0  0  0  3  0  0  0  0  0  0
   36.5360   27.7320   33.1590 C   0  0  0  0  0  0  0  0  0  0  0  0
   36.2340   28.6030   34.2400 C   0  0  0  0  0  0  0  0  0  0  0  0
   35.6960   29.8560   33.9010 C   0  0  0  0  0  0  0  0  0  0  0  0
   35.5010   30.1590   32.5950 N   0  0  0  0  0  0  0  0  0  0  0  0
   35.8050   29.3010   31.5990 C   0  0  0  0  0  0  0  0  0  0  0  0
   36.3210   28.0940   31.9020 N   0  0  0  0  0  0  0  0  0  0  0  0
   36.4050   28.3210   35.2660 H   0  0  0  0  0  0  0  0  0  0  0  0
   35.6340   29.5820   30.5870 H   0  0  0  0  0  0  0  0  0  0  0  0
   35.3690   30.7890   35.0240 C   0  0  0  0  0  0  0  0  0  0  0  0
   35.2890   32.0440   34.4410 F   0  0  0  0  0  0  0  0  0  0  0  0
   34.1420   30.5120   35.5920 F   0  0  0  0  0  0  0  0  0  0  0  0
   36.3500   30.8220   35.9880 F   0  0  0  0  0  0  0  0  0  0  0  0
  1  5  2  0  0  0  0
  2  3  2  0  0  0  0
  2  1  1  0  0  0  0
  3  4  1  0  0  0  0
  4  5  1  0  0  0  0
  4 10  1  0  0  0  0
  6  2  1  0  0  0  0
  7  3  1  0  0  0  0
  8  9  1  0  0  0  0
  9 10  2  0  0  0  0
  9 16  1  0  0  0  0
 10 11  1  0  0  0  0
 11 12  1  0  0  0  0
 11 13  2  0  0  0  0
 13 14  1  0  0  0  0
 15 13  1  0  0  0  0
 16 15  2  0  0  0  0
 17  1  1  0  0  0  0
 17 18  1  0  0  0  0
 18 23  1  0  0  0  0
 19 18  2  0  0  0  0
 19 25  1  0  0  0  0
 20 19  1  0  0  0  0
 21 22  1  0  0  0  0
 21 20  2  0  0  0  0
 22 17  2  0  0  0  0
 24 21  1  0  0  0  0
 25 27  1  0  0  0  0
 25 28  1  0  0  0  0
 26 25  1  0  0  0  0
M  END
>  <minimizedAffinity>
-5.58717966

$$$$

 OpenBabel03272508033D

 28 30  0  0  0  0  0  0  0  0999 V2000
   36.4510   28.1010   33.5870 C   0  0  0  0  0  0  0  0  0  0  0  0
   36.2460   28.9590   32.5290 C   0  0  0  0  0  0  0  0  0  0  0  0
   35.5650   30.0980   32.9850 C   0  0  0  0  0  0  0  0  0  0  0  0
   35.3890   29.8700   34.3200 N   0  0  0  0  0  0  0  0  0  0  0  0
   35.9110   28.6990   34.6540 N   0  0  0  0  0  0  0  0  0  0  0  0
   36.5630   28.7730   31.5140 H   0  0  0  0  0  0  0  0  0  0  0  0
   35.2500   30.9640   32.4200 H   0  0  0  0  0  0  0  0  0  0  0  0
   32.3090   29.4490   34.6970 Br  0  0  0  0  0  0  0  0  0  0  0  0
   33.4020   30.7100   35.5720 C   0  0  0  0  0  0  0  0  0  0  0  0
   34.7460   30.7270   35.2560 C   0  0  0  0  0  0  0  0  0  0  0  0
   35.5330   31.6660   35.9150 C   0  0  0  0  0  0  0  0  0  0  0  0
   36.6070   31.7480   35.7240 H   0  0  0  0  0  0  0  0  0  0  0  0
   35.0600   32.5510   36.8320 C   0  0  0  0  0  0  0  0  0  0  0  0
   35.6580   33.2840   37.3510 H   0  0  0  0  0  0  0  0  0  0  0  0
   33.6940   32.5080   37.1300 C   0  0  0  0  0  3  0  0  0  0  0  0
   32.8620   31.5820   36.4960 C   0  0  0  0  0  3  0  0  0  0  0  0
   37.1230   26.7990   33.5430 C   0  0  0  0  0  0  0  0  0  0  0  0
   37.5030   26.2160   34.7820 C   0  0  0  0  0  0  0  0  0  0  0  0
   38.1450   24.9680   34.7140 C   0  0  0  0  0  0  0  0  0  0  0  0
   38.3610   24.4020   33.5020 N   0  0  0  0  0  0  0  0  0  0  0  0
   37.9820   24.9910   32.3490 C   0  0  0  0  0  0  0  0  0  0  0  0
   37.3650   26.1890   32.3910 N   0  0  0  0  0  0  0  0  0  0  0  0
   37.3110   26.7020   35.7240 H   0  0  0  0  0  0  0  0  0  0  0  0
   38.1730   24.5100   31.4200 H   0  0  0  0  0  0  0  0  0  0  0  0
   38.5550   24.3360   36.0070 C   0  0  0  0  0  0  0  0  0  0  0  0
   37.8900   23.1210   36.0420 F   0  0  0  0  0  0  0  0  0  0  0  0
   39.9090   24.0750   36.0530 F   0  0  0  0  0  0  0  0  0  0  0  0
   38.1670   25.0730   37.1020 F   0  0  0  0  0  0  0  0  0  0  0  0
  1  5  2  0  0  0  0
  2  3  2  0  0  0  0
  2  1  1  0  0  0  0
  3  4  1  0  0  0  0
  4  5  1  0  0  0  0
  4 10  1  0  0  0  0
  6  2  1  0  0  0  0
  7  3  1  0  0  0  0
  8  9  1  0  0  0  0
  9 16  1  0  0  0  0
 10  9  2  0  0  0  0
 10 11  1  0  0  0  0
 11 13  2  0  0  0  0
 12 11  1  0  0  0  0
 13 15  1  0  0  0  0
 13 14  1  0  0  0  0
 16 15  2  0  0  0  0
 17  1  1  0  0  0  0
 17 18  1  0  0  0  0
 18 23  1  0  0  0  0
 19 18  2  0  0  0  0
 19 25  1  0  0  0  0
 20 19  1  0  0  0  0
 21 22  1  0  0  0  0
 21 20  2  0  0  0  0
 22 17  2  0  0  0  0
 24 21  1  0  0  0  0
 25 26  1  0  0  0  0
 25 27  1  0  0  0  0
 25 28  1  0  0  0  0
M  END
>  <minimizedAffinity>
-5.56473112

$$$$

 OpenBabel03272508033D

 28 30  0  0  0  0  0  0  0  0999 V2000
   38.3390   25.7400   35.1900 C   0  0  0  0  0  0  0  0  0  0  0  0
   39.1580   26.0830   34.1370 C   0  0  0  0  0  0  0  0  0  0  0  0
   38.5450   27.1000   33.3890 C   0  0  0  0  0  0  0  0  0  0  0  0
   37.3660   27.3280   34.0390 N   0  0  0  0  0  0  0  0  0  0  0  0
   37.2610   26.5250   35.0870 N   0  0  0  0  0  0  0  0  0  0  0  0
   40.1160   25.6320   33.9290 H   0  0  0  0  0  0  0  0  0  0  0  0
   38.9130   27.5980   32.5030 H   0  0  0  0  0  0  0  0  0  0  0  0
   35.9300   26.8600   31.2960 Br  0  0  0  0  0  0  0  0  0  0  0  0
   35.6120   28.2530   32.5250 C   0  0  0  0  0  0  0  0  0  0  0  0
   36.3630   28.2730   33.6830 C   0  0  0  0  0  0  0  0  0  0  0  0
   36.1110   29.3090   34.5750 C   0  0  0  0  0  0  0  0  0  0  0  0
   36.6600   29.4010   35.5170 H   0  0  0  0  0  0  0  0  0  0  0  0
   35.1860   30.2850   34.3720 C   0  0  0  0  0  0  0  0  0  0  0  0
   34.9790   31.0940   35.0550 H   0  0  0  0  0  0  0  0  0  0  0  0
   34.4420   30.2360   33.1880 C   0  0  0  0  0  3  0  0  0  0  0  0
   34.6570   29.2140   32.2600 C   0  0  0  0  0  3  0  0  0  0  0  0
   38.6020   24.7210   36.2110 C   0  0  0  0  0  0  0  0  0  0  0  0
   39.7780   23.9380   36.0650 C   0  0  0  0  0  0  0  0  0  0  0  0
   40.0100   22.9690   37.0560 C   0  0  0  0  0  0  0  0  0  0  0  0
   39.1220   22.8370   38.0700 N   0  0  0  0  0  0  0  0  0  0  0  0
   38.0160   23.6040   38.1710 C   0  0  0  0  0  0  0  0  0  0  0  0
   37.7750   24.5400   37.2310 N   0  0  0  0  0  0  0  0  0  0  0  0
   40.4580   24.0760   35.2410 H   0  0  0  0  0  0  0  0  0  0  0  0
   37.3460   23.4660   38.9850 H   0  0  0  0  0  0  0  0  0  0  0  0
   41.2430   22.1310   36.9220 C   0  0  0  0  0  0  0  0  0  0  0  0
   42.2970   23.0300   36.9540 F   0  0  0  0  0  0  0  0  0  0  0  0
   41.4000   21.2620   37.9820 F   0  0  0  0  0  0  0  0  0  0  0  0
   41.2920   21.4500   35.7270 F   0  0  0  0  0  0  0  0  0  0  0  0
  1 17  1  0  0  0  0
  2  1  1  0  0  0  0
  3  4  1  0  0  0  0
  3  2  2  0  0  0  0
  4  5  1  0  0  0  0
  5  1  2  0  0  0  0
  6  2  1  0  0  0  0
  7  3  1  0  0  0  0
  8  9  1  0  0  0  0
  9 10  1  0  0  0  0
 10  4  1  0  0  0  0
 10 11  2  0  0  0  0
 11 12  1  0  0  0  0
 13 11  1  0  0  0  0
 13 14  1  0  0  0  0
 15 13  2  0  0  0  0
 16  9  2  0  0  0  0
 16 15  1  0  0  0  0
 17 22  1  0  0  0  0
 18 17  2  0  0  0  0
 18 19  1  0  0  0  0
 19 20  2  0  0  0  0
 20 21  1  0  0  0  0
 21 24  1  0  0  0  0
 22 21  2  0  0  0  0
 23 18  1  0  0  0  0
 25 26  1  0  0  0  0
 25 19  1  0  0  0  0
 25 27  1  0  0  0  0
 28 25  1  0  0  0  0
M  END
>  <minimizedAffinity>
-5.46553564

$$$$

 OpenBabel03272508033D

 28 30  0  0  0  0  0  0  0  0999 V2000
   36.4970   28.2010   33.0680 C   0  0  0  0  0  0  0  0  0  0  0  0
   36.2840   29.1790   32.1210 C   0  0  0  0  0  0  0  0  0  0  0  0
   35.5920   30.2480   32.7100 C   0  0  0  0  0  0  0  0  0  0  0  0
   35.4170   29.8580   34.0070 N   0  0  0  0  0  0  0  0  0  0  0  0
   35.9500   28.6610   34.1990 N   0  0  0  0  0  0  0  0  0  0  0  0
   36.6040   29.1210   31.0920 H   0  0  0  0  0  0  0  0  0  0  0  0
   35.2680   31.1720   32.2530 H   0  0  0  0  0  0  0  0  0  0  0  0
   32.3270   29.4270   34.2710 Br  0  0  0  0  0  0  0  0  0  0  0  0
   33.4150   30.5460   35.3270 C   0  0  0  0  0  0  0  0  0  0  0  0
   34.7640   30.5900   35.0390 C   0  0  0  0  0  0  0  0  0  0  0  0
   35.5470   31.4220   35.8310 C   0  0  0  0  0  0  0  0  0  0  0  0
   36.6250   31.5170   35.6710 H   0  0  0  0  0  0  0  0  0  0  0  0
   35.0650   32.1820   36.8510 C   0  0  0  0  0  0  0  0  0  0  0  0
   35.6600   32.8320   37.4730 H   0  0  0  0  0  0  0  0  0  0  0  0
   33.6930   32.1150   37.1160 C   0  0  0  0  0  3  0  0  0  0  0  0
   32.8650   31.2920   36.3490 C   0  0  0  0  0  3  0  0  0  0  0  0
   37.1820   26.9210   32.8680 C   0  0  0  0  0  0  0  0  0  0  0  0
   36.4530   25.8810   32.2300 C   0  0  0  0  0  0  0  0  0  0  0  0
   37.1320   24.6640   32.0490 C   0  0  0  0  0  0  0  0  0  0  0  0
   38.4110   24.5510   32.4810 N   0  0  0  0  0  0  0  0  0  0  0  0
   39.0660   25.5660   33.0820 C   0  0  0  0  0  0  0  0  0  0  0  0
   38.4340   26.7420   33.2660 N   0  0  0  0  0  0  0  0  0  0  0  0
   35.4360   26.0150   31.9020 H   0  0  0  0  0  0  0  0  0  0  0  0
   40.0700   25.4320   33.4050 H   0  0  0  0  0  0  0  0  0  0  0  0
   36.3830   23.5540   31.3800 C   0  0  0  0  0  0  0  0  0  0  0  0
   35.4100   24.1810   30.6190 F   0  0  0  0  0  0  0  0  0  0  0  0
   37.1840   22.8280   30.5220 F   0  0  0  0  0  0  0  0  0  0  0  0
   35.7580   22.7210   32.2790 F   0  0  0  0  0  0  0  0  0  0  0  0
  1  5  2  0  0  0  0
  2  3  2  0  0  0  0
  2  1  1  0  0  0  0
  3  4  1  0  0  0  0
  4  5  1  0  0  0  0
  4 10  1  0  0  0  0
  6  2  1  0  0  0  0
  7  3  1  0  0  0  0
  8  9  1  0  0  0  0
  9 16  1  0  0  0  0
 10  9  2  0  0  0  0
 10 11  1  0  0  0  0
 11 13  2  0  0  0  0
 12 11  1  0  0  0  0
 13 15  1  0  0  0  0
 13 14  1  0  0  0  0
 16 15  2  0  0  0  0
 17  1  1  0  0  0  0
 17 22  1  0  0  0  0
 18 17  2  0  0  0  0
 19 18  1  0  0  0  0
 19 20  2  0  0  0  0
 20 21  1  0  0  0  0
 21 22  2  0  0  0  0
 21 24  1  0  0  0  0
 23 18  1  0  0  0  0
 25 19  1  0  0  0  0
 25 28  1  0  0  0  0
 26 25  1  0  0  0  0
 27 25  1  0  0  0  0
M  END
>  <minimizedAffinity>
-5.44326162

$$$$
