
 OpenBabel03272507343D

 36 39  0  0  1  0  0  0  0  0999 V2000
   35.7550   29.1240   49.6400 C   0  0  0  0  0  0  0  0  0  0  0  0
   34.6620   29.5110   50.3880 C   0  0  0  0  0  0  0  0  0  0  0  0
   33.5240   28.9490   49.7910 C   0  0  0  0  0  0  0  0  0  0  0  0
   34.0040   28.2490   48.7060 C   0  0  0  0  0  0  0  0  0  0  0  0
   35.3120   28.3790   48.6570 O   0  0  0  0  0  0  0  0  0  0  0  0
   34.6160   30.1300   51.2800 H   0  0  0  0  0  0  0  0  0  0  0  0
   32.4760   29.0080   50.0630 H   0  0  0  0  0  0  0  0  0  0  0  0
   37.1080   29.5320   49.9800 C   0  0  0  0  0  0  0  0  0  0  0  0
   37.6860   28.9820   50.9270 O   0  0  0  0  0  0  0  0  0  0  0  0
   37.6980   30.5690   49.1800 C   0  0  0  0  0  0  0  0  0  0  0  0
   38.0050   31.7590   49.8180 C   0  0  0  0  0  0  0  0  0  0  0  0
   38.5790   32.7900   49.0660 C   0  0  0  0  0  0  0  0  0  0  0  0
   38.8070   32.5620   47.7270 N   0  0  0  0  0  0  0  0  0  0  0  0
   38.4980   31.4000   47.1460 C   0  0  0  0  0  0  0  0  0  0  0  0
   37.9460   30.4060   47.8600 N   0  0  0  0  0  0  0  0  0  0  0  0
   37.8120   31.9000   50.8650 H   0  0  0  0  0  0  0  0  0  0  0  0
   38.8110   33.7100   49.5810 H   0  0  0  0  0  0  0  0  0  0  0  0
   38.7010   31.2800   46.0900 H   0  0  0  0  0  0  0  0  0  0  0  0
   33.1950   27.4790   47.7620 C   0  0  0  0  0  0  0  0  0  0  0  0
   32.5430   26.4740   48.2030 O   0  0  0  0  0  0  0  0  0  0  0  0
   33.1430   27.8610   46.3120 C   0  0  1  0  0  0  0  0  0  0  0  0
   32.7190   26.6100   45.4450 C   0  0  0  0  0  0  0  0  0  0  0  0
   31.8830   27.8220   45.5670 C   0  0  1  0  0  0  0  0  0  0  0  0
   34.1150   28.2430   45.8820 H   0  0  0  0  0  0  0  0  0  0  0  0
   33.2570   26.4680   44.4920 H   0  0  0  0  0  0  0  0  0  0  0  0
   32.5160   25.6820   45.9680 H   0  0  0  0  0  0  0  0  0  0  0  0
   31.8660   28.5070   44.6680 H   0  0  0  0  0  0  0  0  0  0  0  0
   30.2150   25.2290   44.9500 Br  0  0  0  0  0  0  0  0  0  0  0  0
   29.7680   26.6960   46.0760 C   0  0  0  0  0  0  0  0  0  0  0  0
   30.5790   27.7960   46.2790 C   0  0  0  0  0  0  0  0  0  0  0  0
   30.1680   28.8130   47.1160 C   0  0  0  0  0  0  0  0  0  0  0  0
   30.8240   29.6570   47.2540 H   0  0  0  0  0  0  0  0  0  0  0  0
   28.9560   28.7760   47.7710 C   0  0  0  0  0  0  0  0  0  0  0  0
   28.6750   29.5970   48.4170 H   0  0  0  0  0  0  0  0  0  0  0  0
   28.1490   27.6720   47.5610 C   0  0  0  0  0  3  0  0  0  0  0  0
   28.5370   26.6420   46.7300 C   0  0  0  0  0  3  0  0  0  0  0  0
  1  8  1  0  0  0  0
  1  2  2  0  0  0  0
  2  6  1  0  0  0  0
  3  7  1  0  0  0  0
  3  2  1  0  0  0  0
  4  3  2  0  0  0  0
  5  4  1  0  0  0  0
  5  1  1  0  0  0  0
  8  9  2  0  0  0  0
 10 11  1  0  0  0  0
 10  8  1  0  0  0  0
 11 16  1  0  0  0  0
 12 17  1  0  0  0  0
 12 11  2  0  0  0  0
 13 12  1  0  0  0  0
 14 13  2  0  0  0  0
 14 15  1  0  0  0  0
 15 10  2  0  0  0  0
 18 14  1  0  0  0  0
 19 20  2  0  0  0  0
 19  4  1  0  0  0  0
 21 24  1  6  0  0  0
 21 19  1  0  0  0  0
 22 23  1  0  0  0  0
 22 26  1  0  0  0  0
 22 21  1  0  0  0  0
 23 27  1  6  0  0  0
 23 30  1  0  0  0  0
 23 21  1  0  0  0  0
 25 22  1  0  0  0  0
 28 29  1  0  0  0  0
 29 30  2  0  0  0  0
 29 36  1  0  0  0  0
 30 31  1  0  0  0  0
 31 32  1  0  0  0  0
 31 33  2  0  0  0  0
 33 34  1  0  0  0  0
 35 33  1  0  0  0  0
 36 35  2  0  0  0  0
M  END
>  <minimizedAffinity>
-5.39037561

>  <minimizedRMSD>
1.61324096

$$$$
