
 OpenBabel03272507523D

 32 34  0  0  0  0  0  0  0  0999 V2000
   37.1690   31.2510   47.4770 N   0  0  0  0  0  0  0  0  0  0  0  0
   37.7670   32.1710   48.2340 C   0  0  0  0  0  0  0  0  0  0  0  0
   38.8520   32.8820   47.7300 C   0  0  0  0  0  0  0  0  0  0  0  0
   39.2090   32.5530   46.4560 C   0  0  0  0  0  0  0  0  0  0  0  0
   40.2010   33.2080   46.0050 O   0  0  0  0  0  0  0  0  0  0  0  0
   38.6420   31.6470   45.6700 N   0  0  0  0  0  0  0  0  0  0  0  0
   37.5910   30.9840   46.2090 C   0  0  0  0  0  0  0  0  0  0  0  0
   37.0330   30.1120   45.4760 O   0  0  0  0  0  0  0  0  0  0  0  0
   37.4030   32.3580   49.2410 H   0  0  0  0  0  0  0  0  0  0  0  0
   39.3630   33.6380   48.3190 H   0  0  0  0  0  0  0  0  0  0  0  0
   36.8950   32.7230   43.3040 Br  0  0  0  0  0  0  0  0  0  0  0  0
   38.4980   31.7040   43.1440 C   0  0  0  0  0  0  0  0  0  0  0  0
   39.0710   31.3580   44.3500 C   0  0  0  0  0  0  0  0  0  0  0  0
   40.2420   30.6160   44.3590 C   0  0  0  0  0  0  0  0  0  0  0  0
   40.7960   30.2750   45.2480 H   0  0  0  0  0  0  0  0  0  0  0  0
   40.8560   30.2110   43.1770 C   0  0  0  0  0  0  0  0  0  0  0  0
   41.7730   29.6300   43.1530 H   0  0  0  0  0  0  0  0  0  0  0  0
   40.2590   30.5740   41.9660 C   0  0  0  0  0  3  0  0  0  0  0  0
   39.0930   31.3120   41.9630 C   0  0  0  0  0  3  0  0  0  0  0  0
   35.9210   30.2900   49.3240 C   0  0  0  0  0  0  0  0  0  0  0  0
   36.0500   30.4790   47.9380 C   0  0  0  0  0  0  0  0  0  0  0  0
   35.0970   29.9160   47.0820 C   0  0  0  0  0  0  0  0  0  0  0  0
   34.0860   29.2070   47.6430 N   0  0  0  0  0  0  0  0  0  0  0  0
   33.9660   29.0290   48.9480 C   0  0  0  0  0  0  0  0  0  0  0  0
   34.8750   29.5640   49.7840 N   0  0  0  0  0  0  0  0  0  0  0  0
   35.2200   30.0790   46.0070 H   0  0  0  0  0  0  0  0  0  0  0  0
   33.1510   28.4570   49.3870 H   0  0  0  0  0  0  0  0  0  0  0  0
   37.5390   30.2290   51.3620 C   0  0  0  0  0  0  0  0  0  0  0  0
   37.5390   29.0030   51.5680 O   0  0  0  0  0  0  0  0  0  0  0  0
   36.8180   30.8240   50.2740 N   0  0  0  0  0  0  0  0  0  0  0  0
   38.1170   30.7520   52.0680 H   0  0  0  0  0  0  0  0  0  0  0  0
   37.0490   31.8570   50.2290 H   0  0  0  0  0  0  0  0  0  0  0  0
  1 21  1  0  0  0  0
  1  2  1  0  0  0  0
  2  9  1  0  0  0  0
  3  2  2  0  0  0  0
  3 10  1  0  0  0  0
  4  3  1  0  0  0  0
  5  4  2  0  0  0  0
  6  7  1  0  0  0  0
  6  4  1  0  0  0  0
  7  1  1  0  0  0  0
  8  7  2  0  0  0  0
 12 11  1  0  0  0  0
 12 13  1  0  0  0  0
 13 14  2  0  0  0  0
 13  6  1  0  0  0  0
 14 15  1  0  0  0  0
 16 14  1  0  0  0  0
 17 16  1  0  0  0  0
 18 16  2  0  0  0  0
 19 18  1  0  0  0  0
 19 12  2  0  0  0  0
 20 25  1  0  0  0  0
 20 30  1  0  0  0  0
 21 20  2  0  0  0  0
 22 23  2  0  0  0  0
 22 21  1  0  0  0  0
 23 24  1  0  0  0  0
 24 27  1  0  0  0  0
 24 25  2  0  0  0  0
 26 22  1  0  0  0  0
 28 29  2  0  0  0  0
 28 31  1  0  0  0  0
 30 28  1  0  0  0  0
 32 30  1  0  0  0  0
M  END
>  <minimizedAffinity>
-5.66136742

>  <minimizedRMSD>
2.70013356

$$$$
