
 OpenBabel03272500083D

 39 42  0  0  0  0  0  0  0  0999 V2000
   31.8580   27.3100   47.5230 O   0  0  0  0  0  0  0  0  0  0  0  0
   30.6260   27.6780   48.0610 C   0  0  0  0  0  0  0  0  0  0  0  0
   30.5410   27.5120   49.4260 C   0  0  0  0  0  0  0  0  0  0  0  0
   29.3910   27.8330   50.1020 C   0  0  0  0  0  0  0  0  0  0  0  0
   28.2960   28.3340   49.3800 C   0  0  0  0  0  0  0  0  0  0  0  0
   28.3970   28.4960   48.0010 C   0  0  0  0  0  0  0  0  0  0  0  0
   29.5560   28.1680   47.3580 C   0  0  0  0  0  0  0  0  0  0  0  0
   31.3450   27.1320   50.0360 H   0  0  0  0  0  0  0  0  0  0  0  0
   29.3090   27.7060   51.1760 H   0  0  0  0  0  0  0  0  0  0  0  0
   27.3980   28.5820   49.9230 H   0  0  0  0  0  0  0  0  0  0  0  0
   27.5580   28.8820   47.4420 H   0  0  0  0  0  0  0  0  0  0  0  0
   28.6300   25.5590   46.1430 Br  0  0  0  0  0  0  0  0  0  0  0  0
   29.2610   27.1460   45.2850 C   0  0  0  0  0  0  0  0  0  0  0  0
   29.6790   28.3270   45.9120 C   0  0  0  0  0  0  0  0  0  0  0  0
   30.1040   29.3690   45.1130 C   0  0  0  0  0  0  0  0  0  0  0  0
   30.3930   30.2120   45.7380 H   0  0  0  0  0  0  0  0  0  0  0  0
   30.1140   29.2500   43.7650 C   0  0  0  0  0  0  0  0  0  0  0  0
   30.4730   30.1470   43.2360 H   0  0  0  0  0  0  0  0  0  0  0  0
   29.7090   28.1020   43.1160 C   0  0  0  0  0  3  0  0  0  0  0  0
   29.2800   27.0450   43.8890 C   0  0  0  0  0  3  0  0  0  0  0  0
   34.9210   28.7240   48.7740 C   0  0  0  0  0  0  0  0  0  0  0  0
   34.9860   29.9650   48.1340 C   0  0  0  0  0  0  0  0  0  0  0  0
   33.9410   30.2880   47.2650 C   0  0  0  0  0  0  0  0  0  0  0  0
   32.9380   29.3900   47.0950 N   0  0  0  0  0  0  0  0  0  0  0  0
   32.9010   28.2120   47.7190 C   0  0  0  0  0  0  0  0  0  0  0  0
   33.9050   27.8680   48.5730 N   0  0  0  0  0  0  0  0  0  0  0  0
   35.7170   28.4280   49.4630 H   0  0  0  0  0  0  0  0  0  0  0  0
   33.9960   31.2470   46.7740 H   0  0  0  0  0  0  0  0  0  0  0  0
   36.0890   30.8100   48.3930 N   0  0  0  0  0  0  0  0  0  0  0  0
   36.2960   31.3700   49.5780 C   0  0  0  0  0  0  0  0  0  0  0  0
   37.3980   32.1930   49.7740 C   0  0  0  0  0  0  0  0  0  0  0  0
   38.2020   32.3560   48.6760 C   0  0  0  0  0  0  0  0  0  0  0  0
   39.2190   33.1070   48.8300 O   0  0  0  0  0  0  0  0  0  0  0  0
   38.0370   31.8170   47.4680 N   0  0  0  0  0  0  0  0  0  0  0  0
   36.9390   31.0170   47.3300 C   0  0  0  0  0  0  0  0  0  0  0  0
   36.7610   30.4910   46.1840 O   0  0  0  0  0  0  0  0  0  0  0  0
   35.6190   31.1930   50.3910 H   0  0  0  0  0  0  0  0  0  0  0  0
   37.6230   32.6760   50.7070 H   0  0  0  0  0  0  0  0  0  0  0  0
   38.6860   31.9810   46.6690 H   0  0  0  0  0  0  0  0  0  0  0  0
  1 25  1  0  0  0  0
  1  2  1  0  0  0  0
  2  3  1  0  0  0  0
  3  8  1  0  0  0  0
  3  4  2  0  0  0  0
  4  9  1  0  0  0  0
  5 10  1  0  0  0  0
  5  4  1  0  0  0  0
  6  5  2  0  0  0  0
  7  6  1  0  0  0  0
  7  2  2  0  0  0  0
 11  6  1  0  0  0  0
 13 14  1  0  0  0  0
 13 12  1  0  0  0  0
 14  7  1  0  0  0  0
 15 16  1  0  0  0  0
 15 14  2  0  0  0  0
 17 15  1  0  0  0  0
 18 17  1  0  0  0  0
 19 17  2  0  0  0  0
 19 20  1  0  0  0  0
 20 13  2  0  0  0  0
 21 27  1  0  0  0  0
 22 29  1  0  0  0  0
 22 21  2  0  0  0  0
 23 22  1  0  0  0  0
 24 23  2  0  0  0  0
 24 25  1  0  0  0  0
 25 26  2  0  0  0  0
 26 21  1  0  0  0  0
 28 23  1  0  0  0  0
 29 30  1  0  0  0  0
 30 31  2  0  0  0  0
 30 37  1  0  0  0  0
 31 38  1  0  0  0  0
 32 33  2  0  0  0  0
 32 31  1  0  0  0  0
 34 32  1  0  0  0  0
 35 34  1  0  0  0  0
 35 29  1  0  0  0  0
 36 35  2  0  0  0  0
 39 34  1  0  0  0  0
M  END
>  <minimizedAffinity>
-5.90842581

>  <minimizedRMSD>
0.994610012

$$$$
