
 OpenBabel03272507333D

 36 39  0  0  1  0  0  0  0  0999 V2000
   35.8700   29.2510   49.7790 C   0  0  0  0  0  0  0  0  0  0  0  0
   34.9470   29.7530   50.6730 C   0  0  0  0  0  0  0  0  0  0  0  0
   33.6840   29.2800   50.2840 C   0  0  0  0  0  0  0  0  0  0  0  0
   33.9250   28.5130   49.1650 C   0  0  0  0  0  0  0  0  0  0  0  0
   35.2140   28.5240   48.9070 O   0  0  0  0  0  0  0  0  0  0  0  0
   35.0960   30.3960   51.5360 H   0  0  0  0  0  0  0  0  0  0  0  0
   32.7020   29.4390   50.7140 H   0  0  0  0  0  0  0  0  0  0  0  0
   37.2890   29.5440   49.8870 C   0  0  0  0  0  0  0  0  0  0  0  0
   37.9770   28.9140   50.7000 O   0  0  0  0  0  0  0  0  0  0  0  0
   37.8120   30.5680   49.0260 C   0  0  0  0  0  0  0  0  0  0  0  0
   38.1900   31.7600   49.6210 C   0  0  0  0  0  0  0  0  0  0  0  0
   38.7000   32.7780   48.8090 C   0  0  0  0  0  0  0  0  0  0  0  0
   38.7990   32.5380   47.4570 N   0  0  0  0  0  0  0  0  0  0  0  0
   38.4250   31.3750   46.9180 C   0  0  0  0  0  0  0  0  0  0  0  0
   37.9330   30.3920   47.6890 N   0  0  0  0  0  0  0  0  0  0  0  0
   38.0980   31.9110   50.6800 H   0  0  0  0  0  0  0  0  0  0  0  0
   38.9900   33.6990   49.2920 H   0  0  0  0  0  0  0  0  0  0  0  0
   38.5260   31.2440   45.8480 H   0  0  0  0  0  0  0  0  0  0  0  0
   32.9140   27.7950   48.3900 C   0  0  0  0  0  0  0  0  0  0  0  0
   31.8400   27.4360   48.9810 O   0  0  0  0  0  0  0  0  0  0  0  0
   33.1410   27.4840   46.9400 C   0  0  1  0  0  0  0  0  0  0  0  0
   32.6470   26.0160   46.6250 C   0  0  0  0  0  0  0  0  0  0  0  0
   32.0170   27.2180   46.0400 C   0  0  1  0  0  0  0  0  0  0  0  0
   34.2170   27.5470   46.5990 H   0  0  0  0  0  0  0  0  0  0  0  0
   33.2880   25.4140   45.9580 H   0  0  0  0  0  0  0  0  0  0  0  0
   32.2160   25.4460   47.4400 H   0  0  0  0  0  0  0  0  0  0  0  0
   32.2480   27.4220   44.9530 H   0  0  0  0  0  0  0  0  0  0  0  0
   31.5270   30.3030   45.6840 Br  0  0  0  0  0  0  0  0  0  0  0  0
   30.3180   28.9650   46.2860 C   0  0  0  0  0  0  0  0  0  0  0  0
   30.6370   27.6260   46.4080 C   0  0  0  0  0  0  0  0  0  0  0  0
   29.6890   26.7270   46.8560 C   0  0  0  0  0  0  0  0  0  0  0  0
   29.9700   25.6900   46.9390 H   0  0  0  0  0  0  0  0  0  0  0  0
   28.4130   27.1200   47.1930 C   0  0  0  0  0  0  0  0  0  0  0  0
   27.7030   26.3780   47.5390 H   0  0  0  0  0  0  0  0  0  0  0  0
   28.1010   28.4620   47.0680 C   0  0  0  0  0  3  0  0  0  0  0  0
   29.0290   29.3790   46.6230 C   0  0  0  0  0  3  0  0  0  0  0  0
  1  8  1  0  0  0  0
  1  2  2  0  0  0  0
  2  6  1  0  0  0  0
  3  2  1  0  0  0  0
  3  7  1  0  0  0  0
  4  3  2  0  0  0  0
  5  4  1  0  0  0  0
  5  1  1  0  0  0  0
  8  9  2  0  0  0  0
 10 11  1  0  0  0  0
 10  8  1  0  0  0  0
 11 16  1  0  0  0  0
 12 17  1  0  0  0  0
 12 11  2  0  0  0  0
 13 12  1  0  0  0  0
 14 13  2  0  0  0  0
 14 15  1  0  0  0  0
 15 10  2  0  0  0  0
 18 14  1  0  0  0  0
 19 20  2  0  0  0  0
 19  4  1  0  0  0  0
 21 24  1  6  0  0  0
 21 19  1  0  0  0  0
 22 21  1  0  0  0  0
 22 26  1  0  0  0  0
 23 27  1  6  0  0  0
 23 30  1  0  0  0  0
 23 22  1  0  0  0  0
 23 21  1  0  0  0  0
 25 22  1  0  0  0  0
 28 29  1  0  0  0  0
 29 30  2  0  0  0  0
 29 36  1  0  0  0  0
 30 31  1  0  0  0  0
 31 32  1  0  0  0  0
 31 33  2  0  0  0  0
 33 34  1  0  0  0  0
 35 33  1  0  0  0  0
 36 35  2  0  0  0  0
M  END
>  <minimizedAffinity>
-5.54135847

>  <minimizedRMSD>
1.66699743

$$$$
