
 OpenBabel03272503493D

 37 39  0  0  1  0  0  0  0  0999 V2000
   33.2890   27.2830   45.8340 C   0  0  1  0  0  0  0  0  0  0  0  0
   33.8870   27.4260   47.2500 C   0  0  2  0  0  0  0  0  0  0  0  0
   33.6410   26.2220   47.8270 O   0  0  0  0  0  0  0  0  0  0  0  0
   34.0270   25.3010   46.8640 C   0  0  0  0  0  0  0  0  0  0  0  0
   33.6890   25.8650   45.4960 C   0  0  2  0  0  0  0  0  0  0  0  0
   33.7960   28.0170   45.1590 H   0  0  0  0  0  0  0  0  0  0  0  0
   34.9480   27.7090   47.0930 H   0  0  0  0  0  0  0  0  0  0  0  0
   33.4010   24.3970   47.0140 H   0  0  0  0  0  0  0  0  0  0  0  0
   35.0770   24.9960   46.9400 H   0  0  0  0  0  0  0  0  0  0  0  0
   32.7600   25.3900   45.0920 H   0  0  0  0  0  0  0  0  0  0  0  0
   31.9300   27.5150   45.8570 O   0  0  0  0  0  0  0  0  0  0  0  0
   31.6950   28.1140   45.1070 H   0  0  0  0  0  0  0  0  0  0  0  0
   33.2290   28.5080   47.7900 O   0  0  0  0  0  0  0  0  0  0  0  0
   35.3360   29.7630   46.8050 O   0  0  0  0  0  0  0  0  0  0  0  0
   34.0610   29.9600   47.6210 P   0  0  1  0  0  0  0  0  0  0  0  0
   33.1370   31.0610   46.7250 O   0  0  0  0  0  0  0  0  0  0  0  0
   32.3140   31.2280   47.2720 H   0  0  0  0  0  0  0  0  0  0  0  0
   34.3460   30.5560   49.1930 O   0  0  0  0  0  0  0  0  0  0  0  0
   35.5930   30.4600   49.7960 C   0  0  0  0  0  0  0  0  0  0  0  0
   35.9750   29.4540   50.7100 C   0  0  0  0  0  0  0  0  0  0  0  0
   37.2620   29.4910   51.2290 C   0  0  0  0  0  0  0  0  0  0  0  0
   38.0950   30.4950   50.8370 N   0  0  0  0  0  0  0  0  0  0  0  0
   37.7000   31.4470   49.9570 C   0  0  0  0  0  0  0  0  0  0  0  0
   36.4430   31.4320   49.4330 N   0  0  0  0  0  0  0  0  0  0  0  0
   35.2250   28.7340   50.9270 H   0  0  0  0  0  0  0  0  0  0  0  0
   37.5390   28.7170   51.9260 H   0  0  0  0  0  0  0  0  0  0  0  0
   38.4090   32.2230   49.6810 H   0  0  0  0  0  0  0  0  0  0  0  0
   34.7680   25.8470   44.6840 O   0  0  0  0  0  0  0  0  0  0  0  0
   34.9450   22.7090   43.9420 Br  0  0  0  0  0  0  0  0  0  0  0  0
   35.2570   24.2150   42.8560 C   0  0  0  0  0  0  0  0  0  0  0  0
   35.1030   25.4350   43.4550 C   0  0  0  0  0  0  0  0  0  0  0  0
   35.3380   26.5490   42.6350 C   0  0  0  0  0  0  0  0  0  0  0  0
   35.2750   27.6090   42.9000 H   0  0  0  0  0  0  0  0  0  0  0  0
   35.7070   26.4170   41.2900 C   0  0  0  0  0  0  0  0  0  0  0  0
   35.9000   27.2390   40.6180 H   0  0  0  0  0  0  0  0  0  0  0  0
   35.8380   25.1430   40.7740 C   0  0  0  0  0  3  0  0  0  0  0  0
   35.6170   24.0190   41.5400 C   0  0  0  0  0  3  0  0  0  0  0  0
  1  6  1  6  0  0  0
  1 11  1  0  0  0  0
  1  2  1  0  0  0  0
  2  7  1  6  0  0  0
  2 13  1  0  0  0  0
  2  3  1  0  0  0  0
  4  9  1  0  0  0  0
  4  8  1  0  0  0  0
  4  3  1  0  0  0  0
  5 10  1  6  0  0  0
  5  1  1  0  0  0  0
  5  4  1  0  0  0  0
 12 11  1  0  0  0  0
 15 14  2  6  0  0  0
 15 13  1  0  0  0  0
 15 18  1  0  0  0  0
 16 17  1  0  0  0  0
 16 15  1  0  0  0  0
 18 19  1  0  0  0  0
 19 20  1  0  0  0  0
 20 25  1  0  0  0  0
 20 21  2  0  0  0  0
 21 26  1  0  0  0  0
 22 21  1  0  0  0  0
 23 22  2  0  0  0  0
 24 19  2  0  0  0  0
 24 23  1  0  0  0  0
 27 23  1  0  0  0  0
 28  5  1  0  0  0  0
 30 31  1  0  0  0  0
 30 29  1  0  0  0  0
 31 28  1  0  0  0  0
 32 33  1  0  0  0  0
 32 31  2  0  0  0  0
 34 32  1  0  0  0  0
 35 34  1  0  0  0  0
 36 34  2  0  0  0  0
 36 37  1  0  0  0  0
 37 30  2  0  0  0  0
M  END
>  <minimizedAffinity>
-4.03067112

>  <minimizedRMSD>
0.566393733

$$$$
