
 OpenBabel03272509013D

 31 33  0  0  0  0  0  0  0  0999 V2000
   38.5510   23.1960   32.4570 Cl  0  0  0  0  0  0  0  0  0  0  0  0
   37.1700   24.0520   31.8270 C   0  0  0  0  0  0  0  0  0  0  0  0
   35.9870   23.3640   31.6010 C   0  0  0  0  0  0  0  0  0  0  0  0
   34.8700   23.9940   31.1010 C   0  0  0  0  0  0  0  0  0  0  0  0
   34.9000   25.3410   30.8100 C   0  0  0  0  0  0  0  0  0  0  0  0
   36.0530   26.0550   31.0190 C   0  0  0  0  0  0  0  0  0  0  0  0
   36.2320   27.7660   30.6820 Cl  0  0  0  0  0  0  0  0  0  0  0  0
   37.1600   25.3920   31.5260 C   0  0  0  0  0  0  0  0  0  0  0  0
   33.9280   23.4980   30.9100 H   0  0  0  0  0  0  0  0  0  0  0  0
   34.0430   25.8690   30.4160 H   0  0  0  0  0  0  0  0  0  0  0  0
   35.5700   20.1990   33.4010 C   0  0  0  0  0  0  0  0  0  0  0  0
   35.8240   19.2370   32.4210 C   0  0  0  0  0  0  0  0  0  0  0  0
   36.1420   19.7000   31.1320 C   0  0  0  0  0  0  0  0  0  0  0  0
   36.1860   21.0490   30.9020 N   0  0  0  0  0  0  0  0  0  0  0  0
   35.9270   21.9430   31.9040 C   0  0  0  0  0  0  0  0  0  0  0  0
   35.6250   21.5020   33.1280 N   0  0  0  0  0  0  0  0  0  0  0  0
   35.3330   19.7800   34.3680 H   0  0  0  0  0  0  0  0  0  0  0  0
   35.8100   18.1580   32.5210 H   0  0  0  0  0  0  0  0  0  0  0  0
   36.3630   19.0850   30.2610 H   0  0  0  0  0  0  0  0  0  0  0  0
   38.4430   26.1430   31.7780 C   0  0  0  0  0  0  0  0  0  0  0  0
   39.2770   25.4770   31.4780 H   0  0  0  0  0  0  0  0  0  0  0  0
   38.4000   27.0470   31.1500 H   0  0  0  0  0  0  0  0  0  0  0  0
   41.2890   25.7690   32.8230 Br  0  0  0  0  0  0  0  0  0  0  0  0
   39.7640   26.4260   33.7910 C   0  0  0  0  0  0  0  0  0  0  0  0
   38.5220   26.5610   33.2010 C   0  0  0  0  0  0  0  0  0  0  0  0
   37.4320   27.0470   33.9340 C   0  0  0  0  0  0  0  0  0  0  0  0
   36.4790   27.1320   33.4210 H   0  0  0  0  0  0  0  0  0  0  0  0
   37.6260   27.3880   35.2650 C   0  0  0  0  0  0  0  0  0  0  0  0
   36.7620   27.7670   35.8310 H   0  0  0  0  0  0  0  0  0  0  0  0
   38.8630   27.2660   35.8940 C   0  0  0  0  0  3  0  0  0  0  0  0
   39.9320   26.7780   35.1360 C   0  0  0  0  0  3  0  0  0  0  0  0
  2  1  1  0  0  0  0
  3  2  1  0  0  0  0
  3 15  1  0  0  0  0
  4  3  2  0  0  0  0
  5  6  2  0  0  0  0
  5  4  1  0  0  0  0
  6  8  1  0  0  0  0
  7  6  1  0  0  0  0
  8 20  1  0  0  0  0
  8  2  2  0  0  0  0
  9  4  1  0  0  0  0
 10  5  1  0  0  0  0
 11 17  1  0  0  0  0
 12 18  1  0  0  0  0
 12 11  2  0  0  0  0
 13 12  1  0  0  0  0
 14 13  2  0  0  0  0
 14 15  1  0  0  0  0
 15 16  2  0  0  0  0
 16 11  1  0  0  0  0
 19 13  1  0  0  0  0
 20 25  1  0  0  0  0
 21 20  1  0  0  0  0
 22 20  1  0  0  0  0
 23 24  1  0  0  0  0
 24 31  1  0  0  0  0
 25 24  2  0  0  0  0
 25 26  1  0  0  0  0
 26 28  2  0  0  0  0
 27 26  1  0  0  0  0
 28 29  1  0  0  0  0
 28 30  1  0  0  0  0
 31 30  2  0  0  0  0
M  END
>  <minimizedAffinity>
-5.70390892

$$$$

 OpenBabel03272509013D

 31 33  0  0  0  0  0  0  0  0999 V2000
   38.9060   21.6860   33.7300 Cl  0  0  0  0  0  0  0  0  0  0  0  0
   38.1080   23.1490   33.2210 C   0  0  0  0  0  0  0  0  0  0  0  0
   37.0120   23.0680   32.3740 C   0  0  0  0  0  0  0  0  0  0  0  0
   36.3500   24.1950   31.9410 C   0  0  0  0  0  0  0  0  0  0  0  0
   36.7650   25.4470   32.3440 C   0  0  0  0  0  0  0  0  0  0  0  0
   37.8460   25.5660   33.1800 C   0  0  0  0  0  0  0  0  0  0  0  0
   38.4860   27.0930   33.7580 Cl  0  0  0  0  0  0  0  0  0  0  0  0
   38.4900   24.4130   33.6000 C   0  0  0  0  0  0  0  0  0  0  0  0
   35.4920   24.1790   31.2830 H   0  0  0  0  0  0  0  0  0  0  0  0
   36.2710   26.3530   32.0240 H   0  0  0  0  0  0  0  0  0  0  0  0
   36.6290   19.9680   30.4590 C   0  0  0  0  0  0  0  0  0  0  0  0
   35.6370   19.2790   31.1600 C   0  0  0  0  0  0  0  0  0  0  0  0
   35.1050   19.9030   32.3010 C   0  0  0  0  0  0  0  0  0  0  0  0
   35.5760   21.1350   32.6660 N   0  0  0  0  0  0  0  0  0  0  0  0
   36.5500   21.7610   31.9380 C   0  0  0  0  0  0  0  0  0  0  0  0
   37.0560   21.1670   30.8540 N   0  0  0  0  0  0  0  0  0  0  0  0
   36.9960   19.4360   29.5930 H   0  0  0  0  0  0  0  0  0  0  0  0
   35.2120   18.3070   30.9380 H   0  0  0  0  0  0  0  0  0  0  0  0
   34.3320   19.5020   32.9560 H   0  0  0  0  0  0  0  0  0  0  0  0
   39.6770   24.5020   34.5260 C   0  0  0  0  0  0  0  0  0  0  0  0
   40.4560   23.8230   34.1260 H   0  0  0  0  0  0  0  0  0  0  0  0
   40.0060   25.5530   34.5050 H   0  0  0  0  0  0  0  0  0  0  0  0
   41.7410   22.6400   35.7930 Br  0  0  0  0  0  0  0  0  0  0  0  0
   40.1250   23.3120   36.5900 C   0  0  0  0  0  0  0  0  0  0  0  0
   39.2720   24.1620   35.9140 C   0  0  0  0  0  0  0  0  0  0  0  0
   38.1050   24.6350   36.5250 C   0  0  0  0  0  0  0  0  0  0  0  0
   37.4690   25.3010   35.9490 H   0  0  0  0  0  0  0  0  0  0  0  0
   37.8230   24.2320   37.8230 C   0  0  0  0  0  0  0  0  0  0  0  0
   36.9020   24.6100   38.2920 H   0  0  0  0  0  0  0  0  0  0  0  0
   38.6600   23.3770   38.5360 C   0  0  0  0  0  3  0  0  0  0  0  0
   39.8180   22.9200   37.8990 C   0  0  0  0  0  3  0  0  0  0  0  0
  2  8  1  0  0  0  0
  2  1  1  0  0  0  0
  3  2  2  0  0  0  0
  4  5  2  0  0  0  0
  4  3  1  0  0  0  0
  5  6  1  0  0  0  0
  6  8  2  0  0  0  0
  6  7  1  0  0  0  0
  8 20  1  0  0  0  0
  9  4  1  0  0  0  0
 10  5  1  0  0  0  0
 11 16  2  0  0  0  0
 11 12  1  0  0  0  0
 12 13  2  0  0  0  0
 13 14  1  0  0  0  0
 13 19  1  0  0  0  0
 15  3  1  0  0  0  0
 15 14  2  0  0  0  0
 16 15  1  0  0  0  0
 17 11  1  0  0  0  0
 18 12  1  0  0  0  0
 20 25  1  0  0  0  0
 21 20  1  0  0  0  0
 22 20  1  0  0  0  0
 23 24  1  0  0  0  0
 24 31  1  0  0  0  0
 25 26  1  0  0  0  0
 25 24  2  0  0  0  0
 26 28  2  0  0  0  0
 27 26  1  0  0  0  0
 28 29  1  0  0  0  0
 28 30  1  0  0  0  0
 31 30  2  0  0  0  0
M  END
>  <minimizedAffinity>
-5.62084484

$$$$

 OpenBabel03272509013D

 31 33  0  0  0  0  0  0  0  0999 V2000
   39.1060   27.0270   33.5550 Cl  0  0  0  0  0  0  0  0  0  0  0  0
   38.2310   25.6020   33.0650 C   0  0  0  0  0  0  0  0  0  0  0  0
   37.1310   25.7310   32.2300 C   0  0  0  0  0  0  0  0  0  0  0  0
   36.4050   24.6360   31.8180 C   0  0  0  0  0  0  0  0  0  0  0  0
   36.7580   23.3690   32.2310 C   0  0  0  0  0  0  0  0  0  0  0  0
   37.8400   23.2020   33.0580 C   0  0  0  0  0  0  0  0  0  0  0  0
   38.3900   21.6520   33.6660 Cl  0  0  0  0  0  0  0  0  0  0  0  0
   38.5510   24.3240   33.4540 C   0  0  0  0  0  0  0  0  0  0  0  0
   35.5430   24.6910   31.1670 H   0  0  0  0  0  0  0  0  0  0  0  0
   36.2130   22.4870   31.9280 H   0  0  0  0  0  0  0  0  0  0  0  0
   35.5750   29.0460   32.0810 C   0  0  0  0  0  0  0  0  0  0  0  0
   36.0330   29.5600   30.8660 C   0  0  0  0  0  0  0  0  0  0  0  0
   36.8850   28.7440   30.1020 C   0  0  0  0  0  0  0  0  0  0  0  0
   37.2210   27.5040   30.5770 N   0  0  0  0  0  0  0  0  0  0  0  0
   36.7400   27.0560   31.7760 C   0  0  0  0  0  0  0  0  0  0  0  0
   35.9300   27.8320   32.5010 N   0  0  0  0  0  0  0  0  0  0  0  0
   34.9240   29.7200   32.6190 H   0  0  0  0  0  0  0  0  0  0  0  0
   35.8150   30.5240   30.4220 H   0  0  0  0  0  0  0  0  0  0  0  0
   37.3280   28.9950   29.1390 H   0  0  0  0  0  0  0  0  0  0  0  0
   39.7510   24.1810   34.3570 C   0  0  0  0  0  0  0  0  0  0  0  0
   40.3470   23.3280   33.9760 H   0  0  0  0  0  0  0  0  0  0  0  0
   40.3060   25.1290   34.2830 H   0  0  0  0  0  0  0  0  0  0  0  0
   41.5770   22.1790   35.7660 Br  0  0  0  0  0  0  0  0  0  0  0  0
   40.0610   23.1020   36.5050 C   0  0  0  0  0  0  0  0  0  0  0  0
   39.3150   23.9980   35.7650 C   0  0  0  0  0  0  0  0  0  0  0  0
   38.2180   24.6560   36.3350 C   0  0  0  0  0  0  0  0  0  0  0  0
   37.6660   25.3500   35.7080 H   0  0  0  0  0  0  0  0  0  0  0  0
   37.8970   24.3880   37.6570 C   0  0  0  0  0  0  0  0  0  0  0  0
   37.0320   24.9090   38.0940 H   0  0  0  0  0  0  0  0  0  0  0  0
   38.6250   23.4910   38.4350 C   0  0  0  0  0  3  0  0  0  0  0  0
   39.7150   22.8490   37.8380 C   0  0  0  0  0  3  0  0  0  0  0  0
  2  8  1  0  0  0  0
  2  1  1  0  0  0  0
  3  2  2  0  0  0  0
  4  3  1  0  0  0  0
  4  5  2  0  0  0  0
  5  6  1  0  0  0  0
  6  8  2  0  0  0  0
  6  7  1  0  0  0  0
  8 20  1  0  0  0  0
  9  4  1  0  0  0  0
 10  5  1  0  0  0  0
 11 16  1  0  0  0  0
 11 17  1  0  0  0  0
 12 11  2  0  0  0  0
 13 14  2  0  0  0  0
 13 12  1  0  0  0  0
 14 15  1  0  0  0  0
 15  3  1  0  0  0  0
 15 16  2  0  0  0  0
 18 12  1  0  0  0  0
 19 13  1  0  0  0  0
 20 25  1  0  0  0  0
 21 20  1  0  0  0  0
 22 20  1  0  0  0  0
 23 24  1  0  0  0  0
 24 31  1  0  0  0  0
 25 26  1  0  0  0  0
 25 24  2  0  0  0  0
 26 28  2  0  0  0  0
 27 26  1  0  0  0  0
 28 29  1  0  0  0  0
 28 30  1  0  0  0  0
 31 30  2  0  0  0  0
M  END
>  <minimizedAffinity>
-5.57162476

$$$$

 OpenBabel03272509013D

 31 33  0  0  0  0  0  0  0  0999 V2000
   36.5300   28.1970   34.5590 Cl  0  0  0  0  0  0  0  0  0  0  0  0
   36.2750   29.0940   33.0880 C   0  0  0  0  0  0  0  0  0  0  0  0
   35.4820   30.2320   33.1120 C   0  0  0  0  0  0  0  0  0  0  0  0
   35.2480   30.9730   31.9750 C   0  0  0  0  0  0  0  0  0  0  0  0
   35.8010   30.5960   30.7700 C   0  0  0  0  0  0  0  0  0  0  0  0
   36.5900   29.4750   30.7070 C   0  0  0  0  0  0  0  0  0  0  0  0
   37.3440   28.8780   29.2410 Cl  0  0  0  0  0  0  0  0  0  0  0  0
   36.8080   28.7520   31.8690 C   0  0  0  0  0  0  0  0  0  0  0  0
   34.6390   31.8660   31.9490 H   0  0  0  0  0  0  0  0  0  0  0  0
   35.6390   31.1520   29.8580 H   0  0  0  0  0  0  0  0  0  0  0  0
   33.1030   30.7070   35.8590 C   0  0  0  0  0  0  0  0  0  0  0  0
   33.8210   31.4820   36.7730 C   0  0  0  0  0  0  0  0  0  0  0  0
   35.1350   31.8370   36.4230 C   0  0  0  0  0  0  0  0  0  0  0  0
   35.6430   31.4130   35.2250 N   0  0  0  0  0  0  0  0  0  0  0  0
   34.8910   30.6550   34.3710 C   0  0  0  0  0  0  0  0  0  0  0  0
   33.6410   30.3180   34.7040 N   0  0  0  0  0  0  0  0  0  0  0  0
   32.1020   30.4690   36.1850 H   0  0  0  0  0  0  0  0  0  0  0  0
   33.4930   31.8570   37.7360 H   0  0  0  0  0  0  0  0  0  0  0  0
   35.8240   32.4320   37.0220 H   0  0  0  0  0  0  0  0  0  0  0  0
   37.6760   27.5180   31.8420 C   0  0  0  0  0  0  0  0  0  0  0  0
   38.4080   27.6510   31.0210 H   0  0  0  0  0  0  0  0  0  0  0  0
   38.1710   27.4680   32.8240 H   0  0  0  0  0  0  0  0  0  0  0  0
   39.0450   25.1120   33.1320 Br  0  0  0  0  0  0  0  0  0  0  0  0
   37.3580   25.1430   32.2100 C   0  0  0  0  0  0  0  0  0  0  0  0
   36.8360   26.3040   31.6750 C   0  0  0  0  0  0  0  0  0  0  0  0
   35.6020   26.2930   31.0120 C   0  0  0  0  0  0  0  0  0  0  0  0
   35.2390   27.2340   30.6100 H   0  0  0  0  0  0  0  0  0  0  0  0
   34.9170   25.0910   30.9040 C   0  0  0  0  0  0  0  0  0  0  0  0
   33.9500   25.0950   30.3790 H   0  0  0  0  0  0  0  0  0  0  0  0
   35.4120   23.9010   31.4300 C   0  0  0  0  0  3  0  0  0  0  0  0
   36.6470   23.9440   32.0870 C   0  0  0  0  0  3  0  0  0  0  0  0
  2  3  1  0  0  0  0
  2  1  1  0  0  0  0
  3 15  1  0  0  0  0
  4  3  2  0  0  0  0
  5  4  1  0  0  0  0
  6  5  2  0  0  0  0
  6  8  1  0  0  0  0
  7  6  1  0  0  0  0
  8  2  2  0  0  0  0
  9  4  1  0  0  0  0
 10  5  1  0  0  0  0
 11 17  1  0  0  0  0
 11 12  1  0  0  0  0
 12 18  1  0  0  0  0
 13 12  2  0  0  0  0
 13 19  1  0  0  0  0
 14 13  1  0  0  0  0
 15 16  1  0  0  0  0
 15 14  2  0  0  0  0
 16 11  2  0  0  0  0
 20  8  1  0  0  0  0
 20 22  1  0  0  0  0
 21 20  1  0  0  0  0
 24 23  1  0  0  0  0
 25 20  1  0  0  0  0
 25 24  2  0  0  0  0
 26 25  1  0  0  0  0
 27 26  1  0  0  0  0
 28 26  2  0  0  0  0
 28 30  1  0  0  0  0
 29 28  1  0  0  0  0
 30 31  2  0  0  0  0
 31 24  1  0  0  0  0
M  END
>  <minimizedAffinity>
-5.52174711

$$$$

 OpenBabel03272509013D

 31 33  0  0  0  0  0  0  0  0999 V2000
   36.4490   28.0020   34.6240 Cl  0  0  0  0  0  0  0  0  0  0  0  0
   36.3010   28.9040   33.1410 C   0  0  0  0  0  0  0  0  0  0  0  0
   35.5580   30.0740   33.1270 C   0  0  0  0  0  0  0  0  0  0  0  0
   35.4090   30.8200   31.9790 C   0  0  0  0  0  0  0  0  0  0  0  0
   36.0020   30.4170   30.8020 C   0  0  0  0  0  0  0  0  0  0  0  0
   36.7440   29.2630   30.7770 C   0  0  0  0  0  0  0  0  0  0  0  0
   37.5400   28.6300   29.3490 Cl  0  0  0  0  0  0  0  0  0  0  0  0
   36.8770   28.5360   31.9500 C   0  0  0  0  0  0  0  0  0  0  0  0
   34.8400   31.7380   31.9220 H   0  0  0  0  0  0  0  0  0  0  0  0
   35.9060   30.9760   29.8820 H   0  0  0  0  0  0  0  0  0  0  0  0
   35.0010   31.6810   36.3730 C   0  0  0  0  0  0  0  0  0  0  0  0
   33.6750   31.3550   36.6680 C   0  0  0  0  0  0  0  0  0  0  0  0
   32.9810   30.5730   35.7290 C   0  0  0  0  0  0  0  0  0  0  0  0
   33.6240   30.1750   34.5880 N   0  0  0  0  0  0  0  0  0  0  0  0
   34.9260   30.5260   34.3550 C   0  0  0  0  0  0  0  0  0  0  0  0
   35.5850   31.2690   35.2480 N   0  0  0  0  0  0  0  0  0  0  0  0
   35.4790   32.2810   37.1330 H   0  0  0  0  0  0  0  0  0  0  0  0
   33.0970   31.6290   37.5420 H   0  0  0  0  0  0  0  0  0  0  0  0
   31.9470   30.2370   35.8060 H   0  0  0  0  0  0  0  0  0  0  0  0
   37.6920   27.2660   31.9650 C   0  0  0  0  0  0  0  0  0  0  0  0
   38.4870   27.3780   31.2020 H   0  0  0  0  0  0  0  0  0  0  0  0
   38.1110   27.1820   32.9790 H   0  0  0  0  0  0  0  0  0  0  0  0
   39.0930   24.7070   32.8660 Br  0  0  0  0  0  0  0  0  0  0  0  0
   37.3490   24.8690   32.0750 C   0  0  0  0  0  0  0  0  0  0  0  0
   36.8160   26.0920   31.7170 C   0  0  0  0  0  0  0  0  0  0  0  0
   35.5400   26.1750   31.1460 C   0  0  0  0  0  0  0  0  0  0  0  0
   35.1700   27.1610   30.8830 H   0  0  0  0  0  0  0  0  0  0  0  0
   34.8240   25.0040   30.9470 C   0  0  0  0  0  0  0  0  0  0  0  0
   33.8230   25.0820   30.4960 H   0  0  0  0  0  0  0  0  0  0  0  0
   35.3270   23.7530   31.2950 C   0  0  0  0  0  3  0  0  0  0  0  0
   36.6050   23.7020   31.8640 C   0  0  0  0  0  3  0  0  0  0  0  0
  2  1  1  0  0  0  0
  3  2  1  0  0  0  0
  3 15  1  0  0  0  0
  4  3  2  0  0  0  0
  5  4  1  0  0  0  0
  6  5  2  0  0  0  0
  6  8  1  0  0  0  0
  7  6  1  0  0  0  0
  8 20  1  0  0  0  0
  8  2  2  0  0  0  0
  9  4  1  0  0  0  0
 10  5  1  0  0  0  0
 11 12  1  0  0  0  0
 11 17  1  0  0  0  0
 12 18  1  0  0  0  0
 13 19  1  0  0  0  0
 13 12  2  0  0  0  0
 14 13  1  0  0  0  0
 15 14  2  0  0  0  0
 15 16  1  0  0  0  0
 16 11  2  0  0  0  0
 20 22  1  0  0  0  0
 21 20  1  0  0  0  0
 24 23  1  0  0  0  0
 25 20  1  0  0  0  0
 25 24  2  0  0  0  0
 26 25  1  0  0  0  0
 27 26  1  0  0  0  0
 28 26  2  0  0  0  0
 28 30  1  0  0  0  0
 29 28  1  0  0  0  0
 30 31  2  0  0  0  0
 31 24  1  0  0  0  0
M  END
>  <minimizedAffinity>
-5.45285416

$$$$

 OpenBabel03272509013D

 31 33  0  0  0  0  0  0  0  0999 V2000
   37.9590   24.6890   32.9090 Cl  0  0  0  0  0  0  0  0  0  0  0  0
   39.4360   25.5140   33.3270 C   0  0  0  0  0  0  0  0  0  0  0  0
   39.6850   26.7730   32.8010 C   0  0  0  0  0  0  0  0  0  0  0  0
   40.8390   27.4630   33.0990 C   0  0  0  0  0  0  0  0  0  0  0  0
   41.7850   26.9130   33.9370 C   0  0  0  0  0  0  0  0  0  0  0  0
   41.5740   25.6690   34.4750 C   0  0  0  0  0  0  0  0  0  0  0  0
   42.6970   24.8490   35.5420 Cl  0  0  0  0  0  0  0  0  0  0  0  0
   40.4020   25.0000   34.1570 C   0  0  0  0  0  0  0  0  0  0  0  0
   41.0730   28.4460   32.7130 H   0  0  0  0  0  0  0  0  0  0  0  0
   42.7020   27.4260   34.1920 H   0  0  0  0  0  0  0  0  0  0  0  0
   37.9810   27.9840   29.7920 C   0  0  0  0  0  0  0  0  0  0  0  0
   36.8000   28.5370   30.2940 C   0  0  0  0  0  0  0  0  0  0  0  0
   36.6060   28.4840   31.6850 C   0  0  0  0  0  0  0  0  0  0  0  0
   37.5650   27.9030   32.4690 N   0  0  0  0  0  0  0  0  0  0  0  0
   38.7020   27.3780   31.9190 C   0  0  0  0  0  0  0  0  0  0  0  0
   38.8860   27.4280   30.5970 N   0  0  0  0  0  0  0  0  0  0  0  0
   38.0710   28.0570   28.7180 H   0  0  0  0  0  0  0  0  0  0  0  0
   35.9960   29.0120   29.7440 H   0  0  0  0  0  0  0  0  0  0  0  0
   35.7440   28.8650   32.2310 H   0  0  0  0  0  0  0  0  0  0  0  0
   40.1290   23.6340   34.7350 C   0  0  0  0  0  0  0  0  0  0  0  0
   39.5090   23.0850   33.9990 H   0  0  0  0  0  0  0  0  0  0  0  0
   41.1110   23.1570   34.8750 H   0  0  0  0  0  0  0  0  0  0  0  0
   41.4030   21.6940   36.7210 Br  0  0  0  0  0  0  0  0  0  0  0  0
   39.9590   22.9200   37.0460 C   0  0  0  0  0  0  0  0  0  0  0  0
   39.4740   23.7600   36.0630 C   0  0  0  0  0  0  0  0  0  0  0  0
   38.4220   24.6440   36.3340 C   0  0  0  0  0  0  0  0  0  0  0  0
   38.0790   25.2810   35.5240 H   0  0  0  0  0  0  0  0  0  0  0  0
   37.8780   24.6570   37.6100 C   0  0  0  0  0  0  0  0  0  0  0  0
   37.0510   25.3550   37.8100 H   0  0  0  0  0  0  0  0  0  0  0  0
   38.3410   23.8260   38.6270 C   0  0  0  0  0  3  0  0  0  0  0  0
   39.3920   22.9540   38.3260 C   0  0  0  0  0  3  0  0  0  0  0  0
  1  2  1  0  0  0  0
  2  8  1  0  0  0  0
  3  4  1  0  0  0  0
  3  2  2  0  0  0  0
  4  5  2  0  0  0  0
  5 10  1  0  0  0  0
  5  6  1  0  0  0  0
  6  7  1  0  0  0  0
  8  6  2  0  0  0  0
  8 20  1  0  0  0  0
  9  4  1  0  0  0  0
 11 12  2  0  0  0  0
 11 16  1  0  0  0  0
 12 13  1  0  0  0  0
 13 19  1  0  0  0  0
 13 14  2  0  0  0  0
 15 14  1  0  0  0  0
 15  3  1  0  0  0  0
 16 15  2  0  0  0  0
 17 11  1  0  0  0  0
 18 12  1  0  0  0  0
 20 22  1  0  0  0  0
 20 25  1  0  0  0  0
 21 20  1  0  0  0  0
 23 24  1  0  0  0  0
 24 31  1  0  0  0  0
 25 26  1  0  0  0  0
 25 24  2  0  0  0  0
 26 28  2  0  0  0  0
 27 26  1  0  0  0  0
 28 29  1  0  0  0  0
 28 30  1  0  0  0  0
 31 30  2  0  0  0  0
M  END
>  <minimizedAffinity>
-5.40903091

$$$$

 OpenBabel03272509013D

 31 33  0  0  0  0  0  0  0  0999 V2000
   39.5960   26.4620   35.1470 Cl  0  0  0  0  0  0  0  0  0  0  0  0
   38.9310   25.2430   34.0950 C   0  0  0  0  0  0  0  0  0  0  0  0
   38.5140   24.0340   34.6320 C   0  0  0  0  0  0  0  0  0  0  0  0
   37.9850   23.0380   33.8420 C   0  0  0  0  0  0  0  0  0  0  0  0
   37.8560   23.2200   32.4820 C   0  0  0  0  0  0  0  0  0  0  0  0
   38.2590   24.4020   31.9150 C   0  0  0  0  0  0  0  0  0  0  0  0
   38.1620   24.7610   30.2010 Cl  0  0  0  0  0  0  0  0  0  0  0  0
   38.7850   25.3860   32.7370 C   0  0  0  0  0  0  0  0  0  0  0  0
   37.6460   22.0820   34.2180 H   0  0  0  0  0  0  0  0  0  0  0  0
   37.4450   22.4610   31.8300 H   0  0  0  0  0  0  0  0  0  0  0  0
   37.8340   24.0800   38.2330 C   0  0  0  0  0  0  0  0  0  0  0  0
   38.9120   23.3740   38.7710 C   0  0  0  0  0  0  0  0  0  0  0  0
   39.8740   22.8840   37.8710 C   0  0  0  0  0  0  0  0  0  0  0  0
   39.7120   23.1170   36.5320 N   0  0  0  0  0  0  0  0  0  0  0  0
   38.6340   23.8170   36.0640 C   0  0  0  0  0  0  0  0  0  0  0  0
   37.7200   24.2820   36.9210 N   0  0  0  0  0  0  0  0  0  0  0  0
   37.1320   24.4300   38.9750 H   0  0  0  0  0  0  0  0  0  0  0  0
   39.1120   23.1480   39.8120 H   0  0  0  0  0  0  0  0  0  0  0  0
   40.7670   22.3150   38.1260 H   0  0  0  0  0  0  0  0  0  0  0  0
   39.2320   26.7030   32.1530 C   0  0  0  0  0  0  0  0  0  0  0  0
   39.9960   27.1220   32.8370 H   0  0  0  0  0  0  0  0  0  0  0  0
   39.6560   26.4730   31.1630 H   0  0  0  0  0  0  0  0  0  0  0  0
   39.4440   28.1540   29.4740 Br  0  0  0  0  0  0  0  0  0  0  0  0
   38.0560   28.3280   30.7920 C   0  0  0  0  0  0  0  0  0  0  0  0
   38.0660   27.6050   31.9680 C   0  0  0  0  0  0  0  0  0  0  0  0
   37.0370   27.7520   32.9060 C   0  0  0  0  0  0  0  0  0  0  0  0
   37.0940   27.1600   33.8140 H   0  0  0  0  0  0  0  0  0  0  0  0
   36.0080   28.6410   32.6280 C   0  0  0  0  0  0  0  0  0  0  0  0
   35.2050   28.7500   33.3730 H   0  0  0  0  0  0  0  0  0  0  0  0
   35.9630   29.3870   31.4530 C   0  0  0  0  0  3  0  0  0  0  0  0
   37.0060   29.2180   30.5360 C   0  0  0  0  0  3  0  0  0  0  0  0
  2  3  1  0  0  0  0
  2  1  1  0  0  0  0
  3 15  1  0  0  0  0
  4  9  1  0  0  0  0
  4  3  2  0  0  0  0
  5  4  1  0  0  0  0
  6  5  2  0  0  0  0
  6  8  1  0  0  0  0
  7  6  1  0  0  0  0
  8  2  2  0  0  0  0
 10  5  1  0  0  0  0
 11 12  1  0  0  0  0
 11 17  1  0  0  0  0
 12 18  1  0  0  0  0
 13 19  1  0  0  0  0
 13 12  2  0  0  0  0
 14 13  1  0  0  0  0
 15 14  2  0  0  0  0
 15 16  1  0  0  0  0
 16 11  2  0  0  0  0
 20  8  1  0  0  0  0
 20 21  1  0  0  0  0
 22 20  1  0  0  0  0
 23 24  1  0  0  0  0
 24 25  1  0  0  0  0
 25 20  1  0  0  0  0
 25 26  2  0  0  0  0
 26 27  1  0  0  0  0
 28 26  1  0  0  0  0
 28 29  1  0  0  0  0
 30 28  2  0  0  0  0
 31 24  2  0  0  0  0
 31 30  1  0  0  0  0
M  END
>  <minimizedAffinity>
-5.40730619

$$$$

 OpenBabel03272509013D

 31 33  0  0  0  0  0  0  0  0999 V2000
   37.9340   23.3450   33.8240 Cl  0  0  0  0  0  0  0  0  0  0  0  0
   37.8920   25.0100   34.3370 C   0  0  0  0  0  0  0  0  0  0  0  0
   38.5120   25.3730   35.5230 C   0  0  0  0  0  0  0  0  0  0  0  0
   38.5040   26.6750   35.9720 C   0  0  0  0  0  0  0  0  0  0  0  0
   37.8710   27.6600   35.2450 C   0  0  0  0  0  0  0  0  0  0  0  0
   37.2450   27.3380   34.0670 C   0  0  0  0  0  0  0  0  0  0  0  0
   36.3940   28.4880   33.0530 Cl  0  0  0  0  0  0  0  0  0  0  0  0
   37.2730   26.0190   33.6410 C   0  0  0  0  0  0  0  0  0  0  0  0
   38.9750   27.0030   36.8890 H   0  0  0  0  0  0  0  0  0  0  0  0
   37.8430   28.6920   35.5660 H   0  0  0  0  0  0  0  0  0  0  0  0
   39.2840   22.9300   38.1430 C   0  0  0  0  0  0  0  0  0  0  0  0
   40.5250   22.4220   37.7520 C   0  0  0  0  0  0  0  0  0  0  0  0
   41.0880   22.9390   36.5720 C   0  0  0  0  0  0  0  0  0  0  0  0
   40.4050   23.8970   35.8720 N   0  0  0  0  0  0  0  0  0  0  0  0
   39.1920   24.3550   36.3060 C   0  0  0  0  0  0  0  0  0  0  0  0
   38.6570   23.8640   37.4280 N   0  0  0  0  0  0  0  0  0  0  0  0
   38.9060   22.4940   39.0560 H   0  0  0  0  0  0  0  0  0  0  0  0
   41.1260   21.6690   38.2460 H   0  0  0  0  0  0  0  0  0  0  0  0
   42.0420   22.6500   36.1310 H   0  0  0  0  0  0  0  0  0  0  0  0
   36.6030   25.6270   32.3480 C   0  0  0  0  0  0  0  0  0  0  0  0
   35.9570   24.7530   32.5660 H   0  0  0  0  0  0  0  0  0  0  0  0
   36.0120   26.4990   32.0300 H   0  0  0  0  0  0  0  0  0  0  0  0
   36.0760   22.8990   31.0790 Br  0  0  0  0  0  0  0  0  0  0  0  0
   37.4970   24.1270   30.6660 C   0  0  0  0  0  0  0  0  0  0  0  0
   37.6240   25.3440   31.3070 C   0  0  0  0  0  0  0  0  0  0  0  0
   38.6690   26.2170   30.9800 C   0  0  0  0  0  0  0  0  0  0  0  0
   38.7220   27.1600   31.5140 H   0  0  0  0  0  0  0  0  0  0  0  0
   39.5740   25.8330   30.0000 C   0  0  0  0  0  0  0  0  0  0  0  0
   40.3920   26.5260   29.7530 H   0  0  0  0  0  0  0  0  0  0  0  0
   39.4780   24.6140   29.3330 C   0  0  0  0  0  3  0  0  0  0  0  0
   38.4230   23.7640   29.6810 C   0  0  0  0  0  3  0  0  0  0  0  0
  1  2  1  0  0  0  0
  2  3  1  0  0  0  0
  3  4  2  0  0  0  0
  3 15  1  0  0  0  0
  4  9  1  0  0  0  0
  5 10  1  0  0  0  0
  5  4  1  0  0  0  0
  6  5  2  0  0  0  0
  7  6  1  0  0  0  0
  8  6  1  0  0  0  0
  8  2  2  0  0  0  0
 11 17  1  0  0  0  0
 12 11  1  0  0  0  0
 12 18  1  0  0  0  0
 13 12  2  0  0  0  0
 14 15  2  0  0  0  0
 14 13  1  0  0  0  0
 15 16  1  0  0  0  0
 16 11  2  0  0  0  0
 19 13  1  0  0  0  0
 20 21  1  0  0  0  0
 20  8  1  0  0  0  0
 22 20  1  0  0  0  0
 24 23  1  0  0  0  0
 24 25  1  0  0  0  0
 25 20  1  0  0  0  0
 26 25  2  0  0  0  0
 26 27  1  0  0  0  0
 28 26  1  0  0  0  0
 29 28  1  0  0  0  0
 30 31  1  0  0  0  0
 30 28  2  0  0  0  0
 31 24  2  0  0  0  0
M  END
>  <minimizedAffinity>
-5.32259989

$$$$

 OpenBabel03272509013D

 31 33  0  0  0  0  0  0  0  0999 V2000
   36.4170   27.8160   34.4780 Cl  0  0  0  0  0  0  0  0  0  0  0  0
   36.0340   28.9850   33.2440 C   0  0  0  0  0  0  0  0  0  0  0  0
   36.1490   28.6290   31.9090 C   0  0  0  0  0  0  0  0  0  0  0  0
   35.8610   29.5180   30.8980 C   0  0  0  0  0  0  0  0  0  0  0  0
   35.4460   30.7990   31.1920 C   0  0  0  0  0  0  0  0  0  0  0  0
   35.3210   31.1880   32.5010 C   0  0  0  0  0  0  0  0  0  0  0  0
   34.8160   32.7870   33.0150 Cl  0  0  0  0  0  0  0  0  0  0  0  0
   35.6170   30.2690   33.4960 C   0  0  0  0  0  0  0  0  0  0  0  0
   35.9350   29.2830   29.8450 H   0  0  0  0  0  0  0  0  0  0  0  0
   35.2110   31.5240   30.4250 H   0  0  0  0  0  0  0  0  0  0  0  0
   38.2630   25.7420   31.1180 C   0  0  0  0  0  0  0  0  0  0  0  0
   37.3390   24.7110   30.9310 C   0  0  0  0  0  0  0  0  0  0  0  0
   35.9790   25.0310   31.0820 C   0  0  0  0  0  0  0  0  0  0  0  0
   35.6280   26.3150   31.4000 N   0  0  0  0  0  0  0  0  0  0  0  0
   36.5800   27.2830   31.5710 C   0  0  0  0  0  0  0  0  0  0  0  0
   37.8730   26.9780   31.4280 N   0  0  0  0  0  0  0  0  0  0  0  0
   39.2890   25.4330   30.9880 H   0  0  0  0  0  0  0  0  0  0  0  0
   37.5330   23.6750   30.6790 H   0  0  0  0  0  0  0  0  0  0  0  0
   35.1380   24.3460   30.9730 H   0  0  0  0  0  0  0  0  0  0  0  0
   35.4840   30.6560   34.9480 C   0  0  0  0  0  0  0  0  0  0  0  0
   36.1880   30.0210   35.5220 H   0  0  0  0  0  0  0  0  0  0  0  0
   35.7570   31.7210   35.0100 H   0  0  0  0  0  0  0  0  0  0  0  0
   34.7760   32.8490   36.9530 Br  0  0  0  0  0  0  0  0  0  0  0  0
   33.6400   31.4360   36.3150 C   0  0  0  0  0  0  0  0  0  0  0  0
   34.0750   30.5040   35.3940 C   0  0  0  0  0  0  0  0  0  0  0  0
   33.2200   29.4890   34.9470 C   0  0  0  0  0  0  0  0  0  0  0  0
   33.6140   28.7820   34.2220 H   0  0  0  0  0  0  0  0  0  0  0  0
   31.9290   29.4390   35.4500 C   0  0  0  0  0  0  0  0  0  0  0  0
   31.2670   28.6360   35.0930 H   0  0  0  0  0  0  0  0  0  0  0  0
   31.4540   30.3610   36.3800 C   0  0  0  0  0  3  0  0  0  0  0  0
   32.3310   31.3630   36.8070 C   0  0  0  0  0  3  0  0  0  0  0  0
  2  8  1  0  0  0  0
  2  1  1  0  0  0  0
  3  2  2  0  0  0  0
  4  5  2  0  0  0  0
  4  3  1  0  0  0  0
  5  6  1  0  0  0  0
  6  7  1  0  0  0  0
  6  8  2  0  0  0  0
  8 20  1  0  0  0  0
  9  4  1  0  0  0  0
 10  5  1  0  0  0  0
 11 16  1  0  0  0  0
 12 13  1  0  0  0  0
 12 11  2  0  0  0  0
 13 14  2  0  0  0  0
 14 15  1  0  0  0  0
 15  3  1  0  0  0  0
 16 15  2  0  0  0  0
 17 11  1  0  0  0  0
 18 12  1  0  0  0  0
 19 13  1  0  0  0  0
 20 22  1  0  0  0  0
 20 25  1  0  0  0  0
 20 21  1  0  0  0  0
 24 31  1  0  0  0  0
 24 23  1  0  0  0  0
 25 24  2  0  0  0  0
 26 25  1  0  0  0  0
 26 28  2  0  0  0  0
 27 26  1  0  0  0  0
 28 30  1  0  0  0  0
 29 28  1  0  0  0  0
 30 31  2  0  0  0  0
M  END
>  <minimizedAffinity>
-5.26071405

$$$$
