
 OpenBabel03272500263D

 34 36  0  0  0  0  0  0  0  0999 V2000
   39.8840   31.6900   46.5460 C   0  0  0  0  0  0  0  0  0  0  0  0
   40.9180   31.9760   46.8700 H   0  0  0  0  0  0  0  0  0  0  0  0
   39.8460   30.5860   46.7880 H   0  0  0  0  0  0  0  0  0  0  0  0
   39.8130   31.8810   45.1250 C   0  0  0  0  0  0  0  0  0  0  0  0
   39.5470   33.1010   44.5910 C   0  0  0  0  0  0  0  0  0  0  0  0
   39.4770   33.2920   43.2070 C   0  0  0  0  0  0  0  0  0  0  0  0
   39.6980   32.1550   42.4390 N   0  0  0  0  0  0  0  0  0  0  0  0
   39.9590   30.9630   42.9930 C   0  0  0  0  0  0  0  0  0  0  0  0
   40.0100   30.8550   44.3320 N   0  0  0  0  0  0  0  0  0  0  0  0
   39.3720   33.9960   45.1550 H   0  0  0  0  0  0  0  0  0  0  0  0
   39.2710   34.2320   42.7540 H   0  0  0  0  0  0  0  0  0  0  0  0
   37.4760   29.1020   42.8580 Br  0  0  0  0  0  0  0  0  0  0  0  0
   39.1540   28.8720   41.9840 C   0  0  0  0  0  0  0  0  0  0  0  0
   40.1830   29.8010   42.1430 C   0  0  0  0  0  0  0  0  0  0  0  0
   41.3800   29.6180   41.5080 C   0  0  0  0  0  0  0  0  0  0  0  0
   42.2080   30.3330   41.6140 H   0  0  0  0  0  0  0  0  0  0  0  0
   41.6410   28.5240   40.6860 C   0  0  0  0  0  0  0  0  0  0  0  0
   42.5980   28.4040   40.1940 H   0  0  0  0  0  0  0  0  0  0  0  0
   40.6250   27.5840   40.5140 C   0  0  0  0  0  3  0  0  0  0  0  0
   39.4160   27.7900   41.1690 C   0  0  0  0  0  3  0  0  0  0  0  0
   38.8980   32.3260   47.4310 C   0  0  0  0  0  0  0  0  0  0  0  0
   38.1780   32.9980   46.9200 H   0  0  0  0  0  0  0  0  0  0  0  0
   39.4030   33.0040   48.1800 H   0  0  0  0  0  0  0  0  0  0  0  0
   38.1120   31.3860   48.2550 C   0  0  0  0  0  0  0  0  0  0  0  0
   37.0400   30.6820   47.7120 C   0  0  0  0  0  0  0  0  0  0  0  0
   36.5040   29.8950   48.6990 C   0  0  0  0  0  0  0  0  0  0  0  0
   37.2330   30.1200   49.8050 N   0  0  0  0  0  0  0  0  0  0  0  0
   38.1610   30.9940   49.5100 N   0  0  0  0  0  0  0  0  0  0  0  0
   36.6630   30.7230   46.6880 H   0  0  0  0  0  0  0  0  0  0  0  0
   35.6560   29.1990   48.6730 H   0  0  0  0  0  0  0  0  0  0  0  0
   37.0680   29.5240   51.1290 C   0  0  0  0  0  0  0  0  0  0  0  0
   37.8420   28.3820   51.2340 F   0  0  0  0  0  0  0  0  0  0  0  0
   35.7640   29.1810   51.3830 F   0  0  0  0  0  0  0  0  0  0  0  0
   37.4910   30.3840   52.1230 F   0  0  0  0  0  0  0  0  0  0  0  0
  1  3  1  0  0  0  0
  1  2  1  0  0  0  0
  1 21  1  0  0  0  0
  4  1  1  0  0  0  0
  5  4  1  0  0  0  0
  5 10  1  0  0  0  0
  6  5  2  0  0  0  0
  7  8  2  0  0  0  0
  7  6  1  0  0  0  0
  8  9  1  0  0  0  0
  9  4  2  0  0  0  0
 11  6  1  0  0  0  0
 13 14  1  0  0  0  0
 13 12  1  0  0  0  0
 14  8  1  0  0  0  0
 15 16  1  0  0  0  0
 15 14  2  0  0  0  0
 17 15  1  0  0  0  0
 18 17  1  0  0  0  0
 19 17  2  0  0  0  0
 19 20  1  0  0  0  0
 20 13  2  0  0  0  0
 21 23  1  0  0  0  0
 21 24  1  0  0  0  0
 22 21  1  0  0  0  0
 24 28  2  0  0  0  0
 25 24  1  0  0  0  0
 25 26  2  0  0  0  0
 26 27  1  0  0  0  0
 27 31  1  0  0  0  0
 28 27  1  0  0  0  0
 29 25  1  0  0  0  0
 30 26  1  0  0  0  0
 31 32  1  0  0  0  0
 31 33  1  0  0  0  0
 31 34  1  0  0  0  0
M  END
>  <minimizedAffinity>
-6.16079283

>  <minimizedRMSD>
0.80429548

$$$$
