
 OpenBabel03272503493D

 37 39  0  0  1  0  0  0  0  0999 V2000
   33.2410   27.3070   45.8510 C   0  0  1  0  0  0  0  0  0  0  0  0
   33.9110   27.4470   47.2340 C   0  0  2  0  0  0  0  0  0  0  0  0
   33.7110   26.2340   47.8120 O   0  0  0  0  0  0  0  0  0  0  0  0
   34.0580   25.3270   46.8220 C   0  0  0  0  0  0  0  0  0  0  0  0
   33.6420   25.8970   45.4790 C   0  0  2  0  0  0  0  0  0  0  0  0
   33.7020   28.0540   45.1560 H   0  0  0  0  0  0  0  0  0  0  0  0
   34.9580   27.7450   47.0240 H   0  0  0  0  0  0  0  0  0  0  0  0
   33.4530   24.4140   46.9970 H   0  0  0  0  0  0  0  0  0  0  0  0
   35.1140   25.0360   46.8400 H   0  0  0  0  0  0  0  0  0  0  0  0
   32.6990   25.4130   45.1200 H   0  0  0  0  0  0  0  0  0  0  0  0
   31.8820   27.5210   45.9470 O   0  0  0  0  0  0  0  0  0  0  0  0
   31.6000   28.1220   45.2160 H   0  0  0  0  0  0  0  0  0  0  0  0
   33.2680   28.5150   47.8170 O   0  0  0  0  0  0  0  0  0  0  0  0
   35.3390   29.7950   46.7900 O   0  0  0  0  0  0  0  0  0  0  0  0
   34.0720   29.9790   47.6210 P   0  0  1  0  0  0  0  0  0  0  0  0
   33.1170   31.0540   46.7270 O   0  0  0  0  0  0  0  0  0  0  0  0
   32.2990   31.2130   47.2830 H   0  0  0  0  0  0  0  0  0  0  0  0
   34.3680   30.5970   49.1830 O   0  0  0  0  0  0  0  0  0  0  0  0
   35.6110   30.4810   49.7910 C   0  0  0  0  0  0  0  0  0  0  0  0
   35.9750   29.4640   50.7030 C   0  0  0  0  0  0  0  0  0  0  0  0
   37.2590   29.4810   51.2280 C   0  0  0  0  0  0  0  0  0  0  0  0
   38.1080   30.4750   50.8440 N   0  0  0  0  0  0  0  0  0  0  0  0
   37.7310   31.4360   49.9670 C   0  0  0  0  0  0  0  0  0  0  0  0
   36.4770   31.4420   49.4370 N   0  0  0  0  0  0  0  0  0  0  0  0
   35.2130   28.7550   50.9120 H   0  0  0  0  0  0  0  0  0  0  0  0
   37.5210   28.7000   51.9220 H   0  0  0  0  0  0  0  0  0  0  0  0
   38.4520   32.2030   49.6990 H   0  0  0  0  0  0  0  0  0  0  0  0
   34.6760   25.9010   44.6110 O   0  0  0  0  0  0  0  0  0  0  0  0
   34.7110   22.8010   43.7050 Br  0  0  0  0  0  0  0  0  0  0  0  0
   35.0240   24.3510   42.6810 C   0  0  0  0  0  0  0  0  0  0  0  0
   34.9390   25.5420   43.3490 C   0  0  0  0  0  0  0  0  0  0  0  0
   35.1730   26.6890   42.5750 C   0  0  0  0  0  0  0  0  0  0  0  0
   35.1580   27.7370   42.8950 H   0  0  0  0  0  0  0  0  0  0  0  0
   35.4750   26.6150   41.2090 C   0  0  0  0  0  0  0  0  0  0  0  0
   35.6630   27.4640   40.5700 H   0  0  0  0  0  0  0  0  0  0  0  0
   35.5390   25.3670   40.6240 C   0  0  0  0  0  3  0  0  0  0  0  0
   35.3150   24.2120   41.3430 C   0  0  0  0  0  3  0  0  0  0  0  0
  1  6  1  6  0  0  0
  1 11  1  0  0  0  0
  1  2  1  0  0  0  0
  2  7  1  6  0  0  0
  2  3  1  0  0  0  0
  2 13  1  0  0  0  0
  4  9  1  0  0  0  0
  4  8  1  0  0  0  0
  4  3  1  0  0  0  0
  5 10  1  6  0  0  0
  5  1  1  0  0  0  0
  5  4  1  0  0  0  0
 12 11  1  0  0  0  0
 15 14  2  6  0  0  0
 15 13  1  0  0  0  0
 15 18  1  0  0  0  0
 16 17  1  0  0  0  0
 16 15  1  0  0  0  0
 18 19  1  0  0  0  0
 19 20  1  0  0  0  0
 20 25  1  0  0  0  0
 20 21  2  0  0  0  0
 21 26  1  0  0  0  0
 22 21  1  0  0  0  0
 23 22  2  0  0  0  0
 24 19  2  0  0  0  0
 24 23  1  0  0  0  0
 27 23  1  0  0  0  0
 28  5  1  0  0  0  0
 30 31  1  0  0  0  0
 30 29  1  0  0  0  0
 31 28  1  0  0  0  0
 32 33  1  0  0  0  0
 32 31  2  0  0  0  0
 34 32  1  0  0  0  0
 35 34  1  0  0  0  0
 36 34  2  0  0  0  0
 36 37  1  0  0  0  0
 37 30  2  0  0  0  0
M  END
>  <minimizedAffinity>
-4.00552082

>  <minimizedRMSD>
0.343900561

$$$$
