
 OpenBabel03272510183D

 28 30  0  0  0  0  0  0  0  0999 V2000
   37.3900   28.6750   29.5480 Br  0  0  0  0  0  0  0  0  0  0  0  0
   36.5840   29.3870   31.1200 C   0  0  0  0  0  0  0  0  0  0  0  0
   36.1180   28.5580   32.1190 C   0  0  0  0  0  0  0  0  0  0  0  0
   35.5390   29.1320   33.2450 C   0  0  0  0  0  0  0  0  0  0  0  0
   35.4220   30.5120   33.3800 C   0  0  0  0  0  0  0  0  0  0  0  0
   35.8920   31.3110   32.3740 C   0  0  0  0  0  0  0  0  0  0  0  0
   36.4670   30.7480   31.2560 C   0  0  0  0  0  0  0  0  0  0  0  0
   35.1950   28.4290   33.9920 H   0  0  0  0  0  0  0  0  0  0  0  0
   35.7860   32.3800   32.5090 H   0  0  0  0  0  0  0  0  0  0  0  0
   36.8320   31.3980   30.4720 H   0  0  0  0  0  0  0  0  0  0  0  0
   37.3800   25.1750   32.6330 C   0  0  0  0  0  0  0  0  0  0  0  0
   36.5190   24.3640   31.8350 C   0  0  0  0  0  0  0  0  0  0  0  0
   35.5100   25.0160   31.1290 C   0  0  0  0  0  0  0  0  0  0  0  0
   35.3890   26.3780   31.2290 N   0  0  0  0  0  0  0  0  0  0  0  0
   36.2310   27.1000   31.9990 C   0  0  0  0  0  0  0  0  0  0  0  0
   37.2300   26.5030   32.7050 N   0  0  0  0  0  0  0  0  0  0  0  0
   38.1730   24.7310   33.1980 H   0  0  0  0  0  0  0  0  0  0  0  0
   36.6790   23.3010   31.8080 H   0  0  0  0  0  0  0  0  0  0  0  0
   34.8370   24.4340   30.5120 H   0  0  0  0  0  0  0  0  0  0  0  0
   32.2960   30.2110   33.5540 Br  0  0  0  0  0  0  0  0  0  0  0  0
   33.4420   30.9150   34.8920 C   0  0  0  0  0  0  0  0  0  0  0  0
   34.7920   30.9600   34.6170 C   0  0  0  0  0  0  0  0  0  0  0  0
   35.6280   31.4800   35.6100 C   0  0  0  0  0  0  0  0  0  0  0  0
   36.7030   31.5780   35.5370 H   0  0  0  0  0  0  0  0  0  0  0  0
   35.0850   31.9270   36.8170 C   0  0  0  0  0  0  0  0  0  0  0  0
   35.7050   32.3410   37.6200 H   0  0  0  0  0  0  0  0  0  0  0  0
   33.7300   31.8690   37.0620 C   0  0  0  0  0  3  0  0  0  0  0  0
   32.9110   31.3550   36.0800 C   0  0  0  0  0  3  0  0  0  0  0  0
  1  2  1  0  0  0  0
  2  7  2  0  0  0  0
  2  3  1  0  0  0  0
  3  4  2  0  0  0  0
  4  5  1  0  0  0  0
  4  8  1  0  0  0  0
  5 22  1  0  0  0  0
  6  9  1  0  0  0  0
  6  5  2  0  0  0  0
  7  6  1  0  0  0  0
 10  7  1  0  0  0  0
 11 16  1  0  0  0  0
 11 17  1  0  0  0  0
 12 11  2  0  0  0  0
 13 14  2  0  0  0  0
 13 12  1  0  0  0  0
 14 15  1  0  0  0  0
 15  3  1  0  0  0  0
 15 16  2  0  0  0  0
 18 12  1  0  0  0  0
 19 13  1  0  0  0  0
 20 21  1  0  0  0  0
 21 28  1  0  0  0  0
 22 21  2  0  0  0  0
 22 23  1  0  0  0  0
 23 25  2  0  0  0  0
 24 23  1  0  0  0  0
 25 27  1  0  0  0  0
 25 26  1  0  0  0  0
 28 27  2  0  0  0  0
M  END
>  <minimizedAffinity>
-5.62367868

$$$$

 OpenBabel03272510183D

 28 30  0  0  0  0  0  0  0  0999 V2000
   37.7820   26.9630   31.0600 Br  0  0  0  0  0  0  0  0  0  0  0  0
   36.8670   28.0800   32.3030 C   0  0  0  0  0  0  0  0  0  0  0  0
   37.0240   27.9100   33.6620 C   0  0  0  0  0  0  0  0  0  0  0  0
   36.3320   28.7540   34.5230 C   0  0  0  0  0  0  0  0  0  0  0  0
   35.4940   29.7550   34.0440 C   0  0  0  0  0  0  0  0  0  0  0  0
   35.3560   29.9020   32.6900 C   0  0  0  0  0  0  0  0  0  0  0  0
   36.0390   29.0690   31.8320 C   0  0  0  0  0  0  0  0  0  0  0  0
   36.4980   28.5700   35.5760 H   0  0  0  0  0  0  0  0  0  0  0  0
   34.6960   30.6890   32.3490 H   0  0  0  0  0  0  0  0  0  0  0  0
   35.9150   29.2020   30.7660 H   0  0  0  0  0  0  0  0  0  0  0  0
   40.0360   26.3000   34.9410 C   0  0  0  0  0  0  0  0  0  0  0  0
   39.6270   24.9560   35.1890 C   0  0  0  0  0  0  0  0  0  0  0  0
   38.3010   24.6360   34.9040 C   0  0  0  0  0  0  0  0  0  0  0  0
   37.4650   25.6020   34.4090 N   0  0  0  0  0  0  0  0  0  0  0  0
   37.9030   26.8610   34.1920 C   0  0  0  0  0  0  0  0  0  0  0  0
   39.1900   27.2160   34.4570 N   0  0  0  0  0  0  0  0  0  0  0  0
   41.0420   26.6060   35.1410 H   0  0  0  0  0  0  0  0  0  0  0  0
   40.3430   24.2550   35.5780 H   0  0  0  0  0  0  0  0  0  0  0  0
   37.9540   23.6250   35.0790 H   0  0  0  0  0  0  0  0  0  0  0  0
   32.3920   29.3510   34.3750 Br  0  0  0  0  0  0  0  0  0  0  0  0
   33.4940   30.5300   35.3740 C   0  0  0  0  0  0  0  0  0  0  0  0
   34.8380   30.5570   35.0710 C   0  0  0  0  0  0  0  0  0  0  0  0
   35.6420   31.4290   35.8130 C   0  0  0  0  0  0  0  0  0  0  0  0
   36.7080   31.5580   35.6880 H   0  0  0  0  0  0  0  0  0  0  0  0
   35.0730   32.2240   36.8110 C   0  0  0  0  0  0  0  0  0  0  0  0
   35.6670   32.9190   37.4140 H   0  0  0  0  0  0  0  0  0  0  0  0
   33.7240   32.1740   37.0900 C   0  0  0  0  0  3  0  0  0  0  0  0
   32.9370   31.3120   36.3560 C   0  0  0  0  0  3  0  0  0  0  0  0
  1  2  1  0  0  0  0
  2  3  1  0  0  0  0
  3 15  1  0  0  0  0
  3  4  2  0  0  0  0
  4  8  1  0  0  0  0
  5  4  1  0  0  0  0
  5 22  1  0  0  0  0
  6  5  2  0  0  0  0
  7  2  2  0  0  0  0
  7  6  1  0  0  0  0
  9  6  1  0  0  0  0
 10  7  1  0  0  0  0
 11 17  1  0  0  0  0
 11 12  1  0  0  0  0
 12 18  1  0  0  0  0
 13 19  1  0  0  0  0
 13 12  2  0  0  0  0
 14 13  1  0  0  0  0
 15 14  2  0  0  0  0
 15 16  1  0  0  0  0
 16 11  2  0  0  0  0
 20 21  1  0  0  0  0
 21 28  1  0  0  0  0
 22 21  2  0  0  0  0
 22 23  1  0  0  0  0
 23 25  2  0  0  0  0
 24 23  1  0  0  0  0
 25 27  1  0  0  0  0
 25 26  1  0  0  0  0
 28 27  2  0  0  0  0
M  END
>  <minimizedAffinity>
-5.60993242

$$$$

 OpenBabel03272510183D

 28 30  0  0  0  0  0  0  0  0999 V2000
   37.9040   27.6670   30.9650 Br  0  0  0  0  0  0  0  0  0  0  0  0
   36.7510   28.4800   32.2450 C   0  0  0  0  0  0  0  0  0  0  0  0
   36.7550   28.0780   33.5640 C   0  0  0  0  0  0  0  0  0  0  0  0
   35.8940   28.7060   34.4550 C   0  0  0  0  0  0  0  0  0  0  0  0
   35.0370   29.7220   34.0460 C   0  0  0  0  0  0  0  0  0  0  0  0
   35.0520   30.1020   32.7310 C   0  0  0  0  0  0  0  0  0  0  0  0
   35.9050   29.4830   31.8430 C   0  0  0  0  0  0  0  0  0  0  0  0
   35.9450   28.3450   35.4740 H   0  0  0  0  0  0  0  0  0  0  0  0
   34.3730   30.8950   32.4440 H   0  0  0  0  0  0  0  0  0  0  0  0
   35.9000   29.7990   30.8090 H   0  0  0  0  0  0  0  0  0  0  0  0
   39.6700   26.4610   35.0450 C   0  0  0  0  0  0  0  0  0  0  0  0
   39.3950   25.0680   34.9080 C   0  0  0  0  0  0  0  0  0  0  0  0
   38.1910   24.7170   34.2990 C   0  0  0  0  0  0  0  0  0  0  0  0
   37.3420   25.7020   33.8670 N   0  0  0  0  0  0  0  0  0  0  0  0
   37.6510   27.0080   34.0200 C   0  0  0  0  0  0  0  0  0  0  0  0
   38.8150   27.3940   34.6100 N   0  0  0  0  0  0  0  0  0  0  0  0
   40.5790   26.7920   35.5040 H   0  0  0  0  0  0  0  0  0  0  0  0
   40.1130   24.3560   35.2730 H   0  0  0  0  0  0  0  0  0  0  0  0
   37.9490   23.6690   34.1780 H   0  0  0  0  0  0  0  0  0  0  0  0
   36.1800   32.2150   35.5860 Br  0  0  0  0  0  0  0  0  0  0  0  0
   34.5090   31.3670   35.8850 C   0  0  0  0  0  0  0  0  0  0  0  0
   34.1940   30.2820   35.0970 C   0  0  0  0  0  0  0  0  0  0  0  0
   32.9600   29.6640   35.3240 C   0  0  0  0  0  0  0  0  0  0  0  0
   32.5780   28.8070   34.7870 H   0  0  0  0  0  0  0  0  0  0  0  0
   32.1070   30.1530   36.3180 C   0  0  0  0  0  0  0  0  0  0  0  0
   31.1320   29.6990   36.5280 H   0  0  0  0  0  0  0  0  0  0  0  0
   32.4510   31.2420   37.0900 C   0  0  0  0  0  3  0  0  0  0  0  0
   33.6690   31.8460   36.8600 C   0  0  0  0  0  3  0  0  0  0  0  0
  1  2  1  0  0  0  0
  2  3  1  0  0  0  0
  3 15  1  0  0  0  0
  3  4  2  0  0  0  0
  4  8  1  0  0  0  0
  5  4  1  0  0  0  0
  5 22  1  0  0  0  0
  6  5  2  0  0  0  0
  7  2  2  0  0  0  0
  7  6  1  0  0  0  0
  9  6  1  0  0  0  0
 10  7  1  0  0  0  0
 11 17  1  0  0  0  0
 12 11  1  0  0  0  0
 12 18  1  0  0  0  0
 13 12  2  0  0  0  0
 14 15  2  0  0  0  0
 14 13  1  0  0  0  0
 15 16  1  0  0  0  0
 16 11  2  0  0  0  0
 19 13  1  0  0  0  0
 20 21  1  0  0  0  0
 21 28  1  0  0  0  0
 22 23  1  0  0  0  0
 22 21  2  0  0  0  0
 23 25  2  0  0  0  0
 24 23  1  0  0  0  0
 25 26  1  0  0  0  0
 25 27  1  0  0  0  0
 28 27  2  0  0  0  0
M  END
>  <minimizedAffinity>
-5.48293304

$$$$

 OpenBabel03272510183D

 28 30  0  0  0  0  0  0  0  0999 V2000
   36.1850   27.9780   31.8460 Br  0  0  0  0  0  0  0  0  0  0  0  0
   36.1530   26.0750   31.7740 C   0  0  0  0  0  0  0  0  0  0  0  0
   36.9350   25.3170   32.6190 C   0  0  0  0  0  0  0  0  0  0  0  0
   36.8710   23.9310   32.5230 C   0  0  0  0  0  0  0  0  0  0  0  0
   36.0430   23.3030   31.5990 C   0  0  0  0  0  0  0  0  0  0  0  0
   35.2770   24.0790   30.7710 C   0  0  0  0  0  0  0  0  0  0  0  0
   35.3360   25.4520   30.8630 C   0  0  0  0  0  0  0  0  0  0  0  0
   37.5080   23.3950   33.2130 H   0  0  0  0  0  0  0  0  0  0  0  0
   34.6440   23.5600   30.0630 H   0  0  0  0  0  0  0  0  0  0  0  0
   34.7230   26.0470   30.1980 H   0  0  0  0  0  0  0  0  0  0  0  0
   38.0480   26.7740   35.7720 C   0  0  0  0  0  0  0  0  0  0  0  0
   39.3990   27.1560   35.5140 C   0  0  0  0  0  0  0  0  0  0  0  0
   39.8980   26.8950   34.2390 C   0  0  0  0  0  0  0  0  0  0  0  0
   39.0890   26.2980   33.3070 N   0  0  0  0  0  0  0  0  0  0  0  0
   37.8160   25.9560   33.6020 C   0  0  0  0  0  0  0  0  0  0  0  0
   37.2900   26.1930   34.8350 N   0  0  0  0  0  0  0  0  0  0  0  0
   37.6090   26.9490   36.7320 H   0  0  0  0  0  0  0  0  0  0  0  0
   39.9690   27.6200   36.2980 H   0  0  0  0  0  0  0  0  0  0  0  0
   40.9190   27.1710   34.0070 H   0  0  0  0  0  0  0  0  0  0  0  0
   38.5590   21.9560   30.2770 Br  0  0  0  0  0  0  0  0  0  0  0  0
   37.0970   21.0660   31.0960 C   0  0  0  0  0  0  0  0  0  0  0  0
   36.0880   21.8450   31.6190 C   0  0  0  0  0  0  0  0  0  0  0  0
   35.0150   21.1800   32.2210 C   0  0  0  0  0  0  0  0  0  0  0  0
   34.1550   21.6560   32.6730 H   0  0  0  0  0  0  0  0  0  0  0  0
   34.9990   19.7840   32.2720 C   0  0  0  0  0  0  0  0  0  0  0  0
   34.1780   19.2250   32.7350 H   0  0  0  0  0  0  0  0  0  0  0  0
   36.0240   19.0320   31.7400 C   0  0  0  0  0  3  0  0  0  0  0  0
   37.0790   19.6940   31.1480 C   0  0  0  0  0  3  0  0  0  0  0  0
  2  1  1  0  0  0  0
  2  3  1  0  0  0  0
  3 15  1  0  0  0  0
  4  3  2  0  0  0  0
  4  8  1  0  0  0  0
  5 22  1  0  0  0  0
  5  4  1  0  0  0  0
  6  7  1  0  0  0  0
  6  5  2  0  0  0  0
  7  2  2  0  0  0  0
  9  6  1  0  0  0  0
 10  7  1  0  0  0  0
 11 17  1  0  0  0  0
 12 11  1  0  0  0  0
 12 18  1  0  0  0  0
 13 12  2  0  0  0  0
 14 15  2  0  0  0  0
 14 13  1  0  0  0  0
 15 16  1  0  0  0  0
 16 11  2  0  0  0  0
 19 13  1  0  0  0  0
 20 21  1  0  0  0  0
 21 28  2  0  0  0  0
 21 22  1  0  0  0  0
 22 23  2  0  0  0  0
 23 25  1  0  0  0  0
 23 24  1  0  0  0  0
 25 26  1  0  0  0  0
 27 25  2  0  0  0  0
 28 27  1  0  0  0  0
M  END
>  <minimizedAffinity>
-5.46042633

$$$$

 OpenBabel03272510183D

 28 30  0  0  0  0  0  0  0  0999 V2000
   35.8560   32.7600   32.1230 Br  0  0  0  0  0  0  0  0  0  0  0  0
   36.0020   30.8640   32.0140 C   0  0  0  0  0  0  0  0  0  0  0  0
   35.6130   30.0580   33.0640 C   0  0  0  0  0  0  0  0  0  0  0  0
   35.7420   28.6810   32.9290 C   0  0  0  0  0  0  0  0  0  0  0  0
   36.2500   28.1070   31.7690 C   0  0  0  0  0  0  0  0  0  0  0  0
   36.6290   28.9290   30.7430 C   0  0  0  0  0  0  0  0  0  0  0  0
   36.5030   30.2950   30.8700 C   0  0  0  0  0  0  0  0  0  0  0  0
   35.4190   28.1050   33.7870 H   0  0  0  0  0  0  0  0  0  0  0  0
   37.0210   28.4510   29.8530 H   0  0  0  0  0  0  0  0  0  0  0  0
   36.8090   30.9260   30.0460 H   0  0  0  0  0  0  0  0  0  0  0  0
   33.1730   31.1530   35.5430 C   0  0  0  0  0  0  0  0  0  0  0  0
   33.9710   31.7150   36.5840 C   0  0  0  0  0  0  0  0  0  0  0  0
   35.3520   31.7010   36.4000 C   0  0  0  0  0  0  0  0  0  0  0  0
   35.8750   31.1610   35.2530 N   0  0  0  0  0  0  0  0  0  0  0  0
   35.0740   30.6410   34.2970 C   0  0  0  0  0  0  0  0  0  0  0  0
   33.7200   30.6340   34.4380 N   0  0  0  0  0  0  0  0  0  0  0  0
   32.1060   31.1350   35.6280 H   0  0  0  0  0  0  0  0  0  0  0  0
   33.4850   32.1200   37.4530 H   0  0  0  0  0  0  0  0  0  0  0  0
   35.9900   32.1190   37.1680 H   0  0  0  0  0  0  0  0  0  0  0  0
   38.7380   26.8360   33.2160 Br  0  0  0  0  0  0  0  0  0  0  0  0
   37.3260   25.9020   32.3590 C   0  0  0  0  0  0  0  0  0  0  0  0
   36.3230   26.6500   31.7810 C   0  0  0  0  0  0  0  0  0  0  0  0
   35.2870   25.9510   31.1530 C   0  0  0  0  0  0  0  0  0  0  0  0
   34.4370   26.4010   30.6580 H   0  0  0  0  0  0  0  0  0  0  0  0
   35.3000   24.5540   31.1300 C   0  0  0  0  0  0  0  0  0  0  0  0
   34.5080   23.9700   30.6480 H   0  0  0  0  0  0  0  0  0  0  0  0
   36.3180   23.8340   31.7170 C   0  0  0  0  0  3  0  0  0  0  0  0
   37.3360   24.5280   32.3360 C   0  0  0  0  0  3  0  0  0  0  0  0
  2  1  1  0  0  0  0
  2  3  1  0  0  0  0
  3 15  1  0  0  0  0
  4  3  2  0  0  0  0
  4  8  1  0  0  0  0
  5 22  1  0  0  0  0
  5  4  1  0  0  0  0
  6  7  1  0  0  0  0
  6  5  2  0  0  0  0
  7  2  2  0  0  0  0
  9  6  1  0  0  0  0
 10  7  1  0  0  0  0
 11 17  1  0  0  0  0
 11 12  1  0  0  0  0
 12 18  1  0  0  0  0
 13 12  2  0  0  0  0
 13 19  1  0  0  0  0
 14 13  1  0  0  0  0
 15 16  1  0  0  0  0
 15 14  2  0  0  0  0
 16 11  2  0  0  0  0
 21 20  1  0  0  0  0
 22 21  2  0  0  0  0
 23 22  1  0  0  0  0
 24 23  1  0  0  0  0
 25 23  2  0  0  0  0
 25 27  1  0  0  0  0
 26 25  1  0  0  0  0
 27 28  2  0  0  0  0
 28 21  1  0  0  0  0
M  END
>  <minimizedAffinity>
-5.2580781

$$$$

 OpenBabel03272510183D

 28 30  0  0  0  0  0  0  0  0999 V2000
   34.7840   31.9800   32.2090 Br  0  0  0  0  0  0  0  0  0  0  0  0
   35.6510   30.3290   32.5980 C   0  0  0  0  0  0  0  0  0  0  0  0
   35.5900   29.7720   33.8580 C   0  0  0  0  0  0  0  0  0  0  0  0
   36.2410   28.5650   34.0850 C   0  0  0  0  0  0  0  0  0  0  0  0
   36.9450   27.9160   33.0770 C   0  0  0  0  0  0  0  0  0  0  0  0
   36.9910   28.4910   31.8360 C   0  0  0  0  0  0  0  0  0  0  0  0
   36.3470   29.6870   31.6040 C   0  0  0  0  0  0  0  0  0  0  0  0
   36.1550   28.1810   35.0930 H   0  0  0  0  0  0  0  0  0  0  0  0
   37.5470   27.9620   31.0720 H   0  0  0  0  0  0  0  0  0  0  0  0
   36.3960   30.1230   30.6160 H   0  0  0  0  0  0  0  0  0  0  0  0
   34.9420   31.9150   36.7370 C   0  0  0  0  0  0  0  0  0  0  0  0
   33.5510   31.7320   36.9940 C   0  0  0  0  0  0  0  0  0  0  0  0
   32.8620   30.8590   36.1540 C   0  0  0  0  0  0  0  0  0  0  0  0
   33.5330   30.2290   35.1390 N   0  0  0  0  0  0  0  0  0  0  0  0
   34.8530   30.4370   34.9380 C   0  0  0  0  0  0  0  0  0  0  0  0
   35.5630   31.2810   35.7360 N   0  0  0  0  0  0  0  0  0  0  0  0
   35.5250   32.5730   37.3490 H   0  0  0  0  0  0  0  0  0  0  0  0
   33.0960   32.2630   37.8110 H   0  0  0  0  0  0  0  0  0  0  0  0
   31.8050   30.6950   36.3190 H   0  0  0  0  0  0  0  0  0  0  0  0
   35.9680   25.3260   31.5850 Br  0  0  0  0  0  0  0  0  0  0  0  0
   37.2900   25.4200   32.9430 C   0  0  0  0  0  0  0  0  0  0  0  0
   37.5740   26.6600   33.4710 C   0  0  0  0  0  0  0  0  0  0  0  0
   38.5510   26.7200   34.4710 C   0  0  0  0  0  0  0  0  0  0  0  0
   38.8780   27.6180   34.9760 H   0  0  0  0  0  0  0  0  0  0  0  0
   39.1900   25.5510   34.8930 C   0  0  0  0  0  0  0  0  0  0  0  0
   39.9600   25.5540   35.6730 H   0  0  0  0  0  0  0  0  0  0  0  0
   38.8830   24.3240   34.3440 C   0  0  0  0  0  3  0  0  0  0  0  0
   37.9200   24.2730   33.3590 C   0  0  0  0  0  3  0  0  0  0  0  0
  1  2  1  0  0  0  0
  2  3  1  0  0  0  0
  3  4  2  0  0  0  0
  3 15  1  0  0  0  0
  4  8  1  0  0  0  0
  5 22  1  0  0  0  0
  5  4  1  0  0  0  0
  6  5  2  0  0  0  0
  7  6  1  0  0  0  0
  7  2  2  0  0  0  0
  9  6  1  0  0  0  0
 10  7  1  0  0  0  0
 11 12  1  0  0  0  0
 11 17  1  0  0  0  0
 12 18  1  0  0  0  0
 13 19  1  0  0  0  0
 13 12  2  0  0  0  0
 14 13  1  0  0  0  0
 15 14  2  0  0  0  0
 15 16  1  0  0  0  0
 16 11  2  0  0  0  0
 20 21  1  0  0  0  0
 21 28  2  0  0  0  0
 21 22  1  0  0  0  0
 22 23  2  0  0  0  0
 23 25  1  0  0  0  0
 23 24  1  0  0  0  0
 25 26  1  0  0  0  0
 27 25  2  0  0  0  0
 28 27  1  0  0  0  0
M  END
>  <minimizedAffinity>
-5.2367444

$$$$

 OpenBabel03272510183D

 28 30  0  0  0  0  0  0  0  0999 V2000
   38.9140   26.7180   35.2420 Br  0  0  0  0  0  0  0  0  0  0  0  0
   38.3010   25.2340   34.2170 C   0  0  0  0  0  0  0  0  0  0  0  0
   38.1590   23.9860   34.7840 C   0  0  0  0  0  0  0  0  0  0  0  0
   37.7080   22.9390   33.9890 C   0  0  0  0  0  0  0  0  0  0  0  0
   37.4000   23.1260   32.6460 C   0  0  0  0  0  0  0  0  0  0  0  0
   37.5490   24.3750   32.1070 C   0  0  0  0  0  0  0  0  0  0  0  0
   37.9960   25.4160   32.8900 C   0  0  0  0  0  0  0  0  0  0  0  0
   37.6180   21.9860   34.4930 H   0  0  0  0  0  0  0  0  0  0  0  0
   37.3020   24.4880   31.0590 H   0  0  0  0  0  0  0  0  0  0  0  0
   38.1080   26.3950   32.4440 H   0  0  0  0  0  0  0  0  0  0  0  0
   37.7740   23.9680   38.4110 C   0  0  0  0  0  0  0  0  0  0  0  0
   38.9890   23.3860   38.8820 C   0  0  0  0  0  0  0  0  0  0  0  0
   39.9240   23.0090   37.9190 C   0  0  0  0  0  0  0  0  0  0  0  0
   39.6450   23.2080   36.5930 N   0  0  0  0  0  0  0  0  0  0  0  0
   38.4780   23.7640   36.1990 C   0  0  0  0  0  0  0  0  0  0  0  0
   37.5370   24.1460   37.1060 N   0  0  0  0  0  0  0  0  0  0  0  0
   37.0170   24.2770   39.1030 H   0  0  0  0  0  0  0  0  0  0  0  0
   39.1340   23.2640   39.9400 H   0  0  0  0  0  0  0  0  0  0  0  0
   40.8580   22.5650   38.2390 H   0  0  0  0  0  0  0  0  0  0  0  0
   39.4700   21.7350   30.7290 Br  0  0  0  0  0  0  0  0  0  0  0  0
   37.6870   21.1800   31.0650 C   0  0  0  0  0  0  0  0  0  0  0  0
   36.9390   21.9320   31.9450 C   0  0  0  0  0  0  0  0  0  0  0  0
   35.6270   21.5140   32.1860 C   0  0  0  0  0  0  0  0  0  0  0  0
   34.9250   22.0020   32.8480 H   0  0  0  0  0  0  0  0  0  0  0  0
   35.1270   20.3780   31.5450 C   0  0  0  0  0  0  0  0  0  0  0  0
   34.1040   20.0170   31.7070 H   0  0  0  0  0  0  0  0  0  0  0  0
   35.9000   19.6460   30.6700 C   0  0  0  0  0  3  0  0  0  0  0  0
   37.1930   20.0630   30.4370 C   0  0  0  0  0  3  0  0  0  0  0  0
  2  3  1  0  0  0  0
  2  1  1  0  0  0  0
  3 15  1  0  0  0  0
  4  8  1  0  0  0  0
  4  3  2  0  0  0  0
  5  4  1  0  0  0  0
  6  5  2  0  0  0  0
  6  7  1  0  0  0  0
  7  2  2  0  0  0  0
  9  6  1  0  0  0  0
 10  7  1  0  0  0  0
 11 12  1  0  0  0  0
 11 17  1  0  0  0  0
 12 18  1  0  0  0  0
 13 19  1  0  0  0  0
 13 12  2  0  0  0  0
 14 13  1  0  0  0  0
 15 14  2  0  0  0  0
 15 16  1  0  0  0  0
 16 11  2  0  0  0  0
 20 21  1  0  0  0  0
 21 22  1  0  0  0  0
 22 23  2  0  0  0  0
 22  5  1  0  0  0  0
 23 24  1  0  0  0  0
 25 26  1  0  0  0  0
 25 23  1  0  0  0  0
 27 25  2  0  0  0  0
 28 27  1  0  0  0  0
 28 21  2  0  0  0  0
M  END
>  <minimizedAffinity>
-5.2269845

$$$$

 OpenBabel03272510183D

 28 30  0  0  0  0  0  0  0  0999 V2000
   39.5720   26.8310   30.9840 Br  0  0  0  0  0  0  0  0  0  0  0  0
   38.6790   25.1660   31.2210 C   0  0  0  0  0  0  0  0  0  0  0  0
   38.0830   24.8420   32.4220 C   0  0  0  0  0  0  0  0  0  0  0  0
   37.4450   23.6130   32.5390 C   0  0  0  0  0  0  0  0  0  0  0  0
   37.3990   22.7130   31.4800 C   0  0  0  0  0  0  0  0  0  0  0  0
   37.9990   23.0580   30.3000 C   0  0  0  0  0  0  0  0  0  0  0  0
   38.6330   24.2750   30.1770 C   0  0  0  0  0  0  0  0  0  0  0  0
   36.9970   23.4200   33.5050 H   0  0  0  0  0  0  0  0  0  0  0  0
   37.9470   22.3360   29.4950 H   0  0  0  0  0  0  0  0  0  0  0  0
   39.1010   24.5280   29.2360 H   0  0  0  0  0  0  0  0  0  0  0  0
   39.3120   26.5690   35.3900 C   0  0  0  0  0  0  0  0  0  0  0  0
   38.2720   27.4940   35.7040 C   0  0  0  0  0  0  0  0  0  0  0  0
   37.1550   27.4970   34.8690 C   0  0  0  0  0  0  0  0  0  0  0  0
   37.1050   26.6320   33.8070 N   0  0  0  0  0  0  0  0  0  0  0  0
   38.1180   25.7760   33.5530 C   0  0  0  0  0  0  0  0  0  0  0  0
   39.2260   25.7400   34.3430 N   0  0  0  0  0  0  0  0  0  0  0  0
   40.1950   26.5200   35.9940 H   0  0  0  0  0  0  0  0  0  0  0  0
   38.3860   28.1390   36.5550 H   0  0  0  0  0  0  0  0  0  0  0  0
   36.3460   28.1850   35.0760 H   0  0  0  0  0  0  0  0  0  0  0  0
   39.1840   20.1760   32.0030 Br  0  0  0  0  0  0  0  0  0  0  0  0
   37.2880   20.2480   32.0130 C   0  0  0  0  0  0  0  0  0  0  0  0
   36.6940   21.4660   31.7590 C   0  0  0  0  0  0  0  0  0  0  0  0
   35.2970   21.5090   31.7690 C   0  0  0  0  0  0  0  0  0  0  0  0
   34.6940   22.3880   31.5870 H   0  0  0  0  0  0  0  0  0  0  0  0
   34.5640   20.3480   32.0290 C   0  0  0  0  0  0  0  0  0  0  0  0
   33.4680   20.3390   32.0460 H   0  0  0  0  0  0  0  0  0  0  0  0
   35.1880   19.1440   32.2800 C   0  0  0  0  0  3  0  0  0  0  0  0
   36.5660   19.1090   32.2690 C   0  0  0  0  0  3  0  0  0  0  0  0
  1  2  1  0  0  0  0
  2  3  1  0  0  0  0
  3  4  2  0  0  0  0
  3 15  1  0  0  0  0
  4  8  1  0  0  0  0
  5 22  1  0  0  0  0
  5  4  1  0  0  0  0
  6  5  2  0  0  0  0
  7  6  1  0  0  0  0
  7  2  2  0  0  0  0
  9  6  1  0  0  0  0
 10  7  1  0  0  0  0
 11 12  1  0  0  0  0
 11 17  1  0  0  0  0
 12 18  1  0  0  0  0
 13 19  1  0  0  0  0
 13 12  2  0  0  0  0
 14 13  1  0  0  0  0
 15 14  2  0  0  0  0
 15 16  1  0  0  0  0
 16 11  2  0  0  0  0
 20 21  1  0  0  0  0
 21 28  1  0  0  0  0
 22 23  1  0  0  0  0
 22 21  2  0  0  0  0
 23 25  2  0  0  0  0
 24 23  1  0  0  0  0
 25 26  1  0  0  0  0
 25 27  1  0  0  0  0
 28 27  2  0  0  0  0
M  END
>  <minimizedAffinity>
-5.04800034

$$$$

 OpenBabel03272510183D

 28 30  0  0  0  0  0  0  0  0999 V2000
   35.4430   30.3250   31.3330 Br  0  0  0  0  0  0  0  0  0  0  0  0
   36.4310   28.9560   32.2150 C   0  0  0  0  0  0  0  0  0  0  0  0
   36.2920   28.7370   33.5690 C   0  0  0  0  0  0  0  0  0  0  0  0
   37.0380   27.7240   34.1600 C   0  0  0  0  0  0  0  0  0  0  0  0
   37.9130   26.9370   33.4190 C   0  0  0  0  0  0  0  0  0  0  0  0
   38.0330   27.1760   32.0770 C   0  0  0  0  0  0  0  0  0  0  0  0
   37.2950   28.1780   31.4850 C   0  0  0  0  0  0  0  0  0  0  0  0
   36.8840   27.6030   35.2240 H   0  0  0  0  0  0  0  0  0  0  0  0
   38.7220   26.5470   31.5280 H   0  0  0  0  0  0  0  0  0  0  0  0
   37.4060   28.3500   30.4230 H   0  0  0  0  0  0  0  0  0  0  0  0
   35.1310   31.3830   35.7950 C   0  0  0  0  0  0  0  0  0  0  0  0
   33.7290   31.1450   35.9070 C   0  0  0  0  0  0  0  0  0  0  0  0
   33.2130   30.0600   35.2000 C   0  0  0  0  0  0  0  0  0  0  0  0
   34.0530   29.2860   34.4440 N   0  0  0  0  0  0  0  0  0  0  0  0
   35.3750   29.5540   34.3720 C   0  0  0  0  0  0  0  0  0  0  0  0
   35.9200   30.6040   35.0460 N   0  0  0  0  0  0  0  0  0  0  0  0
   35.5860   32.2010   36.3140 H   0  0  0  0  0  0  0  0  0  0  0  0
   33.1360   31.7990   36.5210 H   0  0  0  0  0  0  0  0  0  0  0  0
   32.1530   29.8490   35.2610 H   0  0  0  0  0  0  0  0  0  0  0  0
   41.0380   27.2450   33.6030 Br  0  0  0  0  0  0  0  0  0  0  0  0
   39.9880   25.8700   34.3820 C   0  0  0  0  0  0  0  0  0  0  0  0
   38.6250   25.9170   34.1820 C   0  0  0  0  0  0  0  0  0  0  0  0
   37.8590   24.9000   34.7600 C   0  0  0  0  0  0  0  0  0  0  0  0
   36.7840   24.8060   34.6890 H   0  0  0  0  0  0  0  0  0  0  0  0
   38.4820   23.8930   35.5030 C   0  0  0  0  0  0  0  0  0  0  0  0
   37.9180   23.0790   35.9720 H   0  0  0  0  0  0  0  0  0  0  0  0
   39.8480   23.8740   35.6850 C   0  0  0  0  0  3  0  0  0  0  0  0
   40.5970   24.8800   35.1130 C   0  0  0  0  0  3  0  0  0  0  0  0
  1  2  1  0  0  0  0
  2  3  1  0  0  0  0
  3  4  2  0  0  0  0
  3 15  1  0  0  0  0
  4  8  1  0  0  0  0
  5  4  1  0  0  0  0
  5 22  1  0  0  0  0
  6  5  2  0  0  0  0
  7  6  1  0  0  0  0
  7  2  2  0  0  0  0
  9  6  1  0  0  0  0
 10  7  1  0  0  0  0
 11 12  1  0  0  0  0
 11 17  1  0  0  0  0
 12 18  1  0  0  0  0
 13 19  1  0  0  0  0
 13 12  2  0  0  0  0
 14 13  1  0  0  0  0
 15 14  2  0  0  0  0
 15 16  1  0  0  0  0
 16 11  2  0  0  0  0
 20 21  1  0  0  0  0
 21 28  1  0  0  0  0
 22 21  2  0  0  0  0
 22 23  1  0  0  0  0
 23 25  2  0  0  0  0
 24 23  1  0  0  0  0
 25 27  1  0  0  0  0
 25 26  1  0  0  0  0
 28 27  2  0  0  0  0
M  END
>  <minimizedAffinity>
-5.0390296

$$$$
