
 OpenBabel03272508373D

 44 47  0  0  1  0  0  0  0  0999 V2000
   39.9680   32.2380   43.5590 C   0  0  0  0  0  0  0  0  0  0  0  0
   41.0720   32.4170   43.4870 H   0  0  0  0  0  0  0  0  0  0  0  0
   39.9180   31.1410   43.8290 H   0  0  0  0  0  0  0  0  0  0  0  0
   39.4520   32.3540   42.2550 N   0  0  0  0  0  0  0  0  0  0  0  0
   38.5280   33.3920   42.0330 C   0  0  0  0  0  0  0  0  0  0  0  0
   37.1600   32.9830   41.6270 C   0  0  0  0  0  0  0  0  0  0  0  0
   37.1560   31.9060   40.7380 O   0  0  0  0  0  0  0  0  0  0  0  0
   37.8470   30.8510   41.2380 C   0  0  0  0  0  0  0  0  0  0  0  0
   39.2790   31.1950   41.5030 C   0  0  1  0  0  0  0  0  0  0  0  0
   38.5260   34.2650   42.6850 H   0  0  0  0  0  0  0  0  0  0  0  0
   38.9900   33.8560   41.1230 H   0  0  0  0  0  0  0  0  0  0  0  0
   36.8370   33.8080   40.8770 H   0  0  0  0  0  0  0  0  0  0  0  0
   36.3360   33.0860   42.3010 H   0  0  0  0  0  0  0  0  0  0  0  0
   37.9290   30.1830   40.3360 H   0  0  0  0  0  0  0  0  0  0  0  0
   37.3510   30.1810   41.9320 H   0  0  0  0  0  0  0  0  0  0  0  0
   39.5870   30.3510   42.2350 H   0  0  0  0  0  0  0  0  0  0  0  0
   41.4700   29.0660   42.0600 Br  0  0  0  0  0  0  0  0  0  0  0  0
   41.2530   30.0730   40.4280 C   0  0  0  0  0  0  0  0  0  0  0  0
   40.1960   30.9960   40.3730 C   0  0  0  0  0  0  0  0  0  0  0  0
   40.1780   31.6260   39.1510 C   0  0  0  0  0  0  0  0  0  0  0  0
   39.4190   32.3620   38.9490 H   0  0  0  0  0  0  0  0  0  0  0  0
   41.0440   31.4190   38.1030 C   0  0  0  0  0  0  0  0  0  0  0  0
   40.9670   31.9530   37.1710 H   0  0  0  0  0  0  0  0  0  0  0  0
   42.0470   30.4890   38.2600 C   0  0  0  0  0  3  0  0  0  0  0  0
   42.1700   29.7920   39.4400 C   0  0  0  0  0  3  0  0  0  0  0  0
   39.3550   32.9910   44.6340 C   0  0  0  0  0  0  0  0  0  0  0  0
   40.2020   33.3620   45.3000 H   0  0  0  0  0  0  0  0  0  0  0  0
   38.7540   33.8750   44.5000 H   0  0  0  0  0  0  0  0  0  0  0  0
   37.7380   31.1210   47.2340 C   0  0  0  0  0  0  0  0  0  0  0  0
   36.9920   30.7280   46.1390 C   0  0  0  0  0  0  0  0  0  0  0  0
   37.5210   31.3900   45.0250 C   0  0  0  0  0  0  0  0  0  0  0  0
   38.5320   32.1300   45.4770 N   0  0  0  0  0  0  0  0  0  0  0  0
   38.6610   31.9690   46.8000 N   0  0  0  0  0  0  0  0  0  0  0  0
   36.1390   30.0230   46.1530 H   0  0  0  0  0  0  0  0  0  0  0  0
   37.0660   31.1930   44.1250 H   0  0  0  0  0  0  0  0  0  0  0  0
   37.7410   30.5630   50.9440 C   0  0  0  0  0  0  0  0  0  0  0  0
   38.0740   31.1040   49.7210 C   0  0  0  0  0  0  0  0  0  0  0  0
   37.4700   30.6320   48.5640 C   0  0  0  0  0  0  0  0  0  0  0  0
   36.5690   29.6380   48.7510 N   0  0  0  0  0  0  0  0  0  0  0  0
   36.2510   29.1150   49.9620 C   0  0  0  0  0  0  0  0  0  0  0  0
   36.8490   29.5920   51.0410 N   0  0  0  0  0  0  0  0  0  0  0  0
   38.2970   31.0360   51.7570 H   0  0  0  0  0  0  0  0  0  0  0  0
   38.7980   31.9030   49.5670 H   0  0  0  0  0  0  0  0  0  0  0  0
   35.5180   28.3180   50.0420 H   0  0  0  0  0  0  0  0  0  0  0  0
  1  3  1  0  0  0  0
  1 26  1  0  0  0  0
  2  1  1  0  0  0  0
  4  1  1  0  0  0  0
  5  4  1  0  0  0  0
  5 10  1  0  0  0  0
  6  5  1  0  0  0  0
  6 13  1  0  0  0  0
  7  8  1  0  0  0  0
  7  6  1  0  0  0  0
  8  9  1  0  0  0  0
  8 15  1  0  0  0  0
  9 16  1  1  0  0  0
  9  4  1  0  0  0  0
 11  5  1  0  0  0  0
 12  6  1  0  0  0  0
 14  8  1  0  0  0  0
 18 17  1  0  0  0  0
 19 18  1  0  0  0  0
 19  9  1  0  0  0  0
 20 19  2  0  0  0  0
 21 20  1  0  0  0  0
 22 24  2  0  0  0  0
 22 20  1  0  0  0  0
 23 22  1  0  0  0  0
 24 25  1  0  0  0  0
 25 18  2  0  0  0  0
 26 27  1  0  0  0  0
 26 32  1  0  0  0  0
 28 26  1  0  0  0  0
 29 38  1  0  0  0  0
 30 34  1  0  0  0  0
 30 29  1  0  0  0  0
 31 32  1  0  0  0  0
 31 30  2  0  0  0  0
 32 33  1  0  0  0  0
 33 29  2  0  0  0  0
 35 31  1  0  0  0  0
 36 41  1  0  0  0  0
 36 42  1  0  0  0  0
 37 36  2  0  0  0  0
 38 39  2  0  0  0  0
 38 37  1  0  0  0  0
 39 40  1  0  0  0  0
 40 44  1  0  0  0  0
 40 41  2  0  0  0  0
 43 37  1  0  0  0  0
M  END
>  <minimizedAffinity>
-5.40335512

>  <minimizedRMSD>
1.97783983

$$$$
