
 OpenBabel03262520453D

 28 30  0  0  1  0  0  0  0  0999 V2000
   38.8110   26.6780   34.4260 C   0  0  1  0  0  0  0  0  0  0  0  0
   38.1260   27.3540   35.6320 C   0  0  0  0  0  0  0  0  0  0  0  0
   38.0170   25.8910   35.3620 C   0  0  2  0  0  0  0  0  0  0  0  0
   39.9110   26.7330   34.3830 H   0  0  0  0  0  0  0  0  0  0  0  0
   37.2560   28.0190   35.4430 H   0  0  0  0  0  0  0  0  0  0  0  0
   38.7760   27.7800   36.4110 H   0  0  0  0  0  0  0  0  0  0  0  0
   37.0200   25.6200   34.8850 H   0  0  0  0  0  0  0  0  0  0  0  0
   40.0440   23.5200   34.5110 Br  0  0  0  0  0  0  0  0  0  0  0  0
   39.2720   23.7900   36.2030 C   0  0  0  0  0  0  0  0  0  0  0  0
   38.4320   24.8760   36.3030 C   0  0  0  0  0  0  0  0  0  0  0  0
   37.8730   25.0310   37.5870 C   0  0  0  0  0  0  0  0  0  0  0  0
   37.1780   25.8470   37.8450 H   0  0  0  0  0  0  0  0  0  0  0  0
   38.1360   24.1910   38.6270 C   0  0  0  0  0  0  0  0  0  0  0  0
   37.7060   24.3130   39.6110 H   0  0  0  0  0  0  0  0  0  0  0  0
   38.9760   23.1390   38.4560 C   0  0  0  0  0  3  0  0  0  0  0  0
   39.5510   22.9290   37.2430 C   0  0  0  0  0  3  0  0  0  0  0  0
   38.2520   27.1620   33.1080 C   0  0  0  0  0  0  0  0  0  0  0  0
   37.3880   27.8340   33.3460 H   0  0  0  0  0  0  0  0  0  0  0  0
   38.9610   27.7780   32.5280 H   0  0  0  0  0  0  0  0  0  0  0  0
   38.1670   24.2760   30.7460 C   0  0  0  0  0  0  0  0  0  0  0  0
   38.6460   25.3280   31.5480 C   0  0  0  0  0  0  0  0  0  0  0  0
   37.7300   26.0640   32.2740 C   0  0  0  0  0  0  0  0  0  0  0  0
   36.4350   25.7450   32.1820 N   0  0  0  0  0  0  0  0  0  0  0  0
   35.9840   24.7340   31.4090 C   0  0  0  0  0  0  0  0  0  0  0  0
   36.8580   24.0080   30.6970 N   0  0  0  0  0  0  0  0  0  0  0  0
   38.9030   23.7100   30.1840 H   0  0  0  0  0  0  0  0  0  0  0  0
   39.7030   25.5280   31.5730 H   0  0  0  0  0  0  0  0  0  0  0  0
   34.9330   24.4660   31.3260 H   0  0  0  0  0  0  0  0  0  0  0  0
  1  4  1  1  0  0  0
  1  3  1  0  0  0  0
  1  2  1  0  0  0  0
  2  6  1  0  0  0  0
  3  7  1  6  0  0  0
  3  2  1  0  0  0  0
  3 10  1  0  0  0  0
  5  2  1  0  0  0  0
  8  9  1  0  0  0  0
  9 10  2  0  0  0  0
  9 16  1  0  0  0  0
 10 11  1  0  0  0  0
 11 12  1  0  0  0  0
 11 13  2  0  0  0  0
 13 14  1  0  0  0  0
 15 13  1  0  0  0  0
 16 15  2  0  0  0  0
 17 18  1  0  0  0  0
 17  1  1  0  0  0  0
 19 17  1  0  0  0  0
 20 21  1  0  0  0  0
 21 27  1  0  0  0  0
 21 22  2  0  0  0  0
 22 17  1  0  0  0  0
 23 22  1  0  0  0  0
 24 23  2  0  0  0  0
 25 20  2  0  0  0  0
 25 24  1  0  0  0  0
 26 20  1  0  0  0  0
 28 24  1  0  0  0  0
M  END
>  <minimizedAffinity>
-4.9232645

$$$$

 OpenBabel03262520453D

 28 30  0  0  1  0  0  0  0  0999 V2000
   38.4110   26.1280   34.6590 C   0  0  1  0  0  0  0  0  0  0  0  0
   39.4330   26.9260   33.8210 C   0  0  0  0  0  0  0  0  0  0  0  0
   38.0090   26.7590   33.4070 C   0  0  2  0  0  0  0  0  0  0  0  0
   38.2030   26.4970   35.6750 H   0  0  0  0  0  0  0  0  0  0  0  0
   40.2330   26.3690   33.2910 H   0  0  0  0  0  0  0  0  0  0  0  0
   39.8310   27.8540   34.2580 H   0  0  0  0  0  0  0  0  0  0  0  0
   37.8930   25.9660   32.5980 H   0  0  0  0  0  0  0  0  0  0  0  0
   37.7300   28.1300   30.4930 Br  0  0  0  0  0  0  0  0  0  0  0  0
   36.8050   28.6090   32.0560 C   0  0  0  0  0  0  0  0  0  0  0  0
   37.1120   27.8680   33.1750 C   0  0  0  0  0  0  0  0  0  0  0  0
   36.3990   28.2700   34.3220 C   0  0  0  0  0  0  0  0  0  0  0  0
   36.5210   27.7870   35.3050 H   0  0  0  0  0  0  0  0  0  0  0  0
   35.4960   29.2900   34.3250 C   0  0  0  0  0  0  0  0  0  0  0  0
   34.9500   29.5960   35.2070 H   0  0  0  0  0  0  0  0  0  0  0  0
   35.2420   29.9780   33.1830 C   0  0  0  0  0  3  0  0  0  0  0  0
   35.8940   29.6440   32.0400 C   0  0  0  0  0  3  0  0  0  0  0  0
   38.7640   24.6610   34.7410 C   0  0  0  0  0  0  0  0  0  0  0  0
   37.9380   24.0970   34.2350 H   0  0  0  0  0  0  0  0  0  0  0  0
   39.6850   24.3980   34.1930 H   0  0  0  0  0  0  0  0  0  0  0  0
   37.9890   24.2310   38.3640 C   0  0  0  0  0  0  0  0  0  0  0  0
   37.9340   24.6880   37.0340 C   0  0  0  0  0  0  0  0  0  0  0  0
   38.8380   24.1700   36.1290 C   0  0  0  0  0  0  0  0  0  0  0  0
   39.7220   23.2600   36.5540 N   0  0  0  0  0  0  0  0  0  0  0  0
   39.7680   22.8280   37.8330 C   0  0  0  0  0  0  0  0  0  0  0  0
   38.8980   23.3200   38.7260 N   0  0  0  0  0  0  0  0  0  0  0  0
   37.2690   24.6520   39.0600 H   0  0  0  0  0  0  0  0  0  0  0  0
   37.1950   25.4220   36.7620 H   0  0  0  0  0  0  0  0  0  0  0  0
   40.4820   22.0900   38.1900 H   0  0  0  0  0  0  0  0  0  0  0  0
  1 17  1  0  0  0  0
  1  4  1  1  0  0  0
  2  6  1  0  0  0  0
  2  1  1  0  0  0  0
  3  7  1  6  0  0  0
  3  2  1  0  0  0  0
  3  1  1  0  0  0  0
  5  2  1  0  0  0  0
  8  9  1  0  0  0  0
  9 10  1  0  0  0  0
 10  3  1  0  0  0  0
 10 11  2  0  0  0  0
 11 13  1  0  0  0  0
 11 12  1  0  0  0  0
 13 14  1  0  0  0  0
 15 13  2  0  0  0  0
 16  9  2  0  0  0  0
 16 15  1  0  0  0  0
 17 22  1  0  0  0  0
 18 17  1  0  0  0  0
 19 17  1  0  0  0  0
 20 25  1  0  0  0  0
 20 26  1  0  0  0  0
 21 20  2  0  0  0  0
 22 23  2  0  0  0  0
 22 21  1  0  0  0  0
 23 24  1  0  0  0  0
 24 28  1  0  0  0  0
 24 25  2  0  0  0  0
 27 21  1  0  0  0  0
M  END
>  <minimizedAffinity>
-4.90240765

$$$$

 OpenBabel03262520453D

 28 30  0  0  1  0  0  0  0  0999 V2000
   35.8550   29.2640   33.4930 C   0  0  1  0  0  0  0  0  0  0  0  0
   34.5010   29.6120   32.8390 C   0  0  0  0  0  0  0  0  0  0  0  0
   34.6610   29.4360   34.3120 C   0  0  2  0  0  0  0  0  0  0  0  0
   36.6720   29.9910   33.3640 H   0  0  0  0  0  0  0  0  0  0  0  0
   33.9850   28.8310   32.2410 H   0  0  0  0  0  0  0  0  0  0  0  0
   34.4110   30.5950   32.3520 H   0  0  0  0  0  0  0  0  0  0  0  0
   34.2860   28.4200   34.6620 H   0  0  0  0  0  0  0  0  0  0  0  0
   31.6920   29.7170   35.5610 Br  0  0  0  0  0  0  0  0  0  0  0  0
   33.1840   30.7890   35.9510 C   0  0  0  0  0  0  0  0  0  0  0  0
   34.3390   30.4650   35.2750 C   0  0  0  0  0  0  0  0  0  0  0  0
   35.4270   31.3010   35.5960 C   0  0  0  0  0  0  0  0  0  0  0  0
   36.4270   31.1850   35.1480 H   0  0  0  0  0  0  0  0  0  0  0  0
   35.3460   32.3290   36.4860 C   0  0  0  0  0  0  0  0  0  0  0  0
   36.1830   32.9690   36.7310 H   0  0  0  0  0  0  0  0  0  0  0  0
   34.1740   32.5920   37.1180 C   0  0  0  0  0  3  0  0  0  0  0  0
   33.0840   31.8250   36.8560 C   0  0  0  0  0  3  0  0  0  0  0  0
   36.3540   27.8990   33.0790 C   0  0  0  0  0  0  0  0  0  0  0  0
   35.5750   27.1570   33.3930 H   0  0  0  0  0  0  0  0  0  0  0  0
   36.4580   27.7800   31.9870 H   0  0  0  0  0  0  0  0  0  0  0  0
   38.8010   27.1710   35.7990 C   0  0  0  0  0  0  0  0  0  0  0  0
   37.6130   27.5280   35.1350 C   0  0  0  0  0  0  0  0  0  0  0  0
   37.6080   27.5220   33.7550 C   0  0  0  0  0  0  0  0  0  0  0  0
   38.7300   27.1770   33.1120 N   0  0  0  0  0  0  0  0  0  0  0  0
   39.8670   26.8370   33.7570 C   0  0  0  0  0  0  0  0  0  0  0  0
   39.8890   26.8370   35.0980 N   0  0  0  0  0  0  0  0  0  0  0  0
   38.7820   27.1840   36.8840 H   0  0  0  0  0  0  0  0  0  0  0  0
   36.7470   27.7950   35.7180 H   0  0  0  0  0  0  0  0  0  0  0  0
   40.7840   26.5560   33.2450 H   0  0  0  0  0  0  0  0  0  0  0  0
  1  4  1  1  0  0  0
  1  3  1  0  0  0  0
  2  1  1  0  0  0  0
  2  3  1  0  0  0  0
  3  7  1  1  0  0  0
  3 10  1  0  0  0  0
  5  2  1  0  0  0  0
  6  2  1  0  0  0  0
  8  9  1  0  0  0  0
  9 16  1  0  0  0  0
 10 11  1  0  0  0  0
 10  9  2  0  0  0  0
 11 13  2  0  0  0  0
 12 11  1  0  0  0  0
 13 14  1  0  0  0  0
 13 15  1  0  0  0  0
 16 15  2  0  0  0  0
 17 18  1  0  0  0  0
 17  1  1  0  0  0  0
 17 22  1  0  0  0  0
 19 17  1  0  0  0  0
 20 26  1  0  0  0  0
 21 27  1  0  0  0  0
 21 20  1  0  0  0  0
 22 21  2  0  0  0  0
 23 22  1  0  0  0  0
 23 24  2  0  0  0  0
 24 25  1  0  0  0  0
 25 20  2  0  0  0  0
 28 24  1  0  0  0  0
M  END
>  <minimizedAffinity>
-4.85707331

$$$$

 OpenBabel03262520453D

 28 30  0  0  1  0  0  0  0  0999 V2000
   37.9090   26.9650   34.6780 C   0  0  1  0  0  0  0  0  0  0  0  0
   38.5450   27.2580   36.0530 C   0  0  0  0  0  0  0  0  0  0  0  0
   37.9370   25.9380   35.7140 C   0  0  2  0  0  0  0  0  0  0  0  0
   38.5710   27.0280   33.8000 H   0  0  0  0  0  0  0  0  0  0  0  0
   38.0180   27.9500   36.7440 H   0  0  0  0  0  0  0  0  0  0  0  0
   39.6310   27.4350   36.0820 H   0  0  0  0  0  0  0  0  0  0  0  0
   36.8990   25.8210   36.1650 H   0  0  0  0  0  0  0  0  0  0  0  0
   38.0000   24.1180   38.3840 Br  0  0  0  0  0  0  0  0  0  0  0  0
   38.8420   23.7450   36.7470 C   0  0  0  0  0  0  0  0  0  0  0  0
   38.6650   24.6910   35.7620 C   0  0  0  0  0  0  0  0  0  0  0  0
   39.3210   24.3710   34.5570 C   0  0  0  0  0  0  0  0  0  0  0  0
   39.2870   25.0150   33.6640 H   0  0  0  0  0  0  0  0  0  0  0  0
   40.0570   23.2370   34.3820 C   0  0  0  0  0  0  0  0  0  0  0  0
   40.5590   22.9940   33.4550 H   0  0  0  0  0  0  0  0  0  0  0  0
   40.1880   22.3470   35.3980 C   0  0  0  0  0  3  0  0  0  0  0  0
   39.5820   22.5930   36.5880 C   0  0  0  0  0  3  0  0  0  0  0  0
   36.6860   27.8150   34.4230 C   0  0  0  0  0  0  0  0  0  0  0  0
   35.7920   27.1720   34.6310 H   0  0  0  0  0  0  0  0  0  0  0  0
   36.6000   28.6780   35.1040 H   0  0  0  0  0  0  0  0  0  0  0  0
   37.2820   28.0150   30.7460 C   0  0  0  0  0  0  0  0  0  0  0  0
   37.3660   27.6060   32.0900 C   0  0  0  0  0  0  0  0  0  0  0  0
   36.5830   28.2580   33.0210 C   0  0  0  0  0  0  0  0  0  0  0  0
   35.7820   29.2460   32.6060 N   0  0  0  0  0  0  0  0  0  0  0  0
   35.7080   29.6330   31.3140 C   0  0  0  0  0  0  0  0  0  0  0  0
   36.4610   29.0110   30.3960 N   0  0  0  0  0  0  0  0  0  0  0  0
   37.9060   27.4900   30.0310 H   0  0  0  0  0  0  0  0  0  0  0  0
   38.0340   26.8030   32.3520 H   0  0  0  0  0  0  0  0  0  0  0  0
   35.0620   30.4350   30.9650 H   0  0  0  0  0  0  0  0  0  0  0  0
  1  4  1  6  0  0  0
  1  3  1  0  0  0  0
  1  2  1  0  0  0  0
  2  6  1  0  0  0  0
  2  5  1  0  0  0  0
  3 10  1  0  0  0  0
  3  2  1  0  0  0  0
  3  7  1  1  0  0  0
  9  8  1  0  0  0  0
 10  9  2  0  0  0  0
 11 10  1  0  0  0  0
 12 11  1  0  0  0  0
 13 11  2  0  0  0  0
 13 15  1  0  0  0  0
 14 13  1  0  0  0  0
 15 16  2  0  0  0  0
 16  9  1  0  0  0  0
 17 18  1  0  0  0  0
 17  1  1  0  0  0  0
 17 19  1  0  0  0  0
 20 21  1  0  0  0  0
 21 27  1  0  0  0  0
 21 22  2  0  0  0  0
 22 17  1  0  0  0  0
 23 22  1  0  0  0  0
 24 23  2  0  0  0  0
 25 20  2  0  0  0  0
 25 24  1  0  0  0  0
 26 20  1  0  0  0  0
 28 24  1  0  0  0  0
M  END
>  <minimizedAffinity>
-4.8075738

$$$$

 OpenBabel03262520453D

 28 30  0  0  1  0  0  0  0  0999 V2000
   36.8610   23.8950   32.1110 C   0  0  1  0  0  0  0  0  0  0  0  0
   37.6590   24.9490   31.3130 C   0  0  0  0  0  0  0  0  0  0  0  0
   36.7990   25.3050   32.4800 C   0  0  2  0  0  0  0  0  0  0  0  0
   37.4420   23.1100   32.6180 H   0  0  0  0  0  0  0  0  0  0  0  0
   37.3260   25.1980   30.2840 H   0  0  0  0  0  0  0  0  0  0  0  0
   38.7570   24.8980   31.3640 H   0  0  0  0  0  0  0  0  0  0  0  0
   35.8010   25.7430   32.1530 H   0  0  0  0  0  0  0  0  0  0  0  0
   36.1950   28.4330   33.0300 Br  0  0  0  0  0  0  0  0  0  0  0  0
   37.1780   27.2660   34.1260 C   0  0  0  0  0  0  0  0  0  0  0  0
   37.2970   25.9760   33.6590 C   0  0  0  0  0  0  0  0  0  0  0  0
   38.0480   25.1430   34.5110 C   0  0  0  0  0  0  0  0  0  0  0  0
   38.2430   24.0800   34.2930 H   0  0  0  0  0  0  0  0  0  0  0  0
   38.6030   25.5690   35.6800 C   0  0  0  0  0  0  0  0  0  0  0  0
   39.1790   24.9260   36.3320 H   0  0  0  0  0  0  0  0  0  0  0  0
   38.4450   26.8560   36.0790 C   0  0  0  0  0  3  0  0  0  0  0  0
   37.7320   27.7150   35.3050 C   0  0  0  0  0  3  0  0  0  0  0  0
   35.7890   23.2380   31.2720 C   0  0  0  0  0  0  0  0  0  0  0  0
   34.8020   23.5590   31.6930 H   0  0  0  0  0  0  0  0  0  0  0  0
   35.7900   23.5680   30.2200 H   0  0  0  0  0  0  0  0  0  0  0  0
   34.9610   19.7410   32.2740 C   0  0  0  0  0  0  0  0  0  0  0  0
   34.9350   21.1460   32.1910 C   0  0  0  0  0  0  0  0  0  0  0  0
   35.8330   21.7660   31.3450 C   0  0  0  0  0  0  0  0  0  0  0  0
   36.6830   21.0080   30.6450 N   0  0  0  0  0  0  0  0  0  0  0  0
   36.7020   19.6600   30.7320 C   0  0  0  0  0  0  0  0  0  0  0  0
   35.8370   19.0400   31.5470 N   0  0  0  0  0  0  0  0  0  0  0  0
   34.2470   19.2740   32.9450 H   0  0  0  0  0  0  0  0  0  0  0  0
   34.2220   21.6930   32.7840 H   0  0  0  0  0  0  0  0  0  0  0  0
   37.3890   19.0330   30.1680 H   0  0  0  0  0  0  0  0  0  0  0  0
  1  3  1  0  0  0  0
  1  4  1  1  0  0  0
  2  6  1  0  0  0  0
  2  1  1  0  0  0  0
  2  3  1  0  0  0  0
  3  7  1  6  0  0  0
  3 10  1  0  0  0  0
  5  2  1  0  0  0  0
  8  9  1  0  0  0  0
  9 16  1  0  0  0  0
 10  9  2  0  0  0  0
 10 11  1  0  0  0  0
 11 13  2  0  0  0  0
 12 11  1  0  0  0  0
 13 15  1  0  0  0  0
 13 14  1  0  0  0  0
 16 15  2  0  0  0  0
 17 22  1  0  0  0  0
 17 18  1  0  0  0  0
 17  1  1  0  0  0  0
 19 17  1  0  0  0  0
 20 26  1  0  0  0  0
 21 20  1  0  0  0  0
 21 27  1  0  0  0  0
 22 21  2  0  0  0  0
 23 24  2  0  0  0  0
 23 22  1  0  0  0  0
 24 25  1  0  0  0  0
 25 20  2  0  0  0  0
 28 24  1  0  0  0  0
M  END
>  <minimizedAffinity>
-4.78052378

$$$$

 OpenBabel03262520453D

 28 30  0  0  1  0  0  0  0  0999 V2000
   37.7710   25.3930   33.9400 C   0  0  1  0  0  0  0  0  0  0  0  0
   38.1000   23.9590   33.4730 C   0  0  0  0  0  0  0  0  0  0  0  0
   38.8560   24.6430   34.5620 C   0  0  2  0  0  0  0  0  0  0  0  0
   36.7670   25.5630   34.3590 H   0  0  0  0  0  0  0  0  0  0  0  0
   38.5680   23.8210   32.4760 H   0  0  0  0  0  0  0  0  0  0  0  0
   37.3440   23.1810   33.6570 H   0  0  0  0  0  0  0  0  0  0  0  0
   39.8570   25.0430   34.1970 H   0  0  0  0  0  0  0  0  0  0  0  0
   41.1260   22.4790   35.3480 Br  0  0  0  0  0  0  0  0  0  0  0  0
   39.8290   23.2160   36.4900 C   0  0  0  0  0  0  0  0  0  0  0  0
   38.9690   24.1170   35.9040 C   0  0  0  0  0  0  0  0  0  0  0  0
   38.0110   24.6360   36.7980 C   0  0  0  0  0  0  0  0  0  0  0  0
   37.2440   25.3690   36.4990 H   0  0  0  0  0  0  0  0  0  0  0  0
   37.9420   24.2830   38.1120 C   0  0  0  0  0  0  0  0  0  0  0  0
   37.2060   24.6830   38.7960 H   0  0  0  0  0  0  0  0  0  0  0  0
   38.8250   23.3870   38.6230 C   0  0  0  0  0  3  0  0  0  0  0  0
   39.7750   22.8470   37.8170 C   0  0  0  0  0  3  0  0  0  0  0  0
   38.0210   26.4170   32.8570 C   0  0  0  0  0  0  0  0  0  0  0  0
   39.0860   26.7500   32.9620 H   0  0  0  0  0  0  0  0  0  0  0  0
   37.9330   26.0080   31.8360 H   0  0  0  0  0  0  0  0  0  0  0  0
   36.2330   29.5790   32.0110 C   0  0  0  0  0  0  0  0  0  0  0  0
   37.0360   28.4300   31.8950 C   0  0  0  0  0  0  0  0  0  0  0  0
   37.1760   27.6160   33.0010 C   0  0  0  0  0  0  0  0  0  0  0  0
   36.5430   27.9540   34.1290 N   0  0  0  0  0  0  0  0  0  0  0  0
   35.7750   29.0600   34.2330 C   0  0  0  0  0  0  0  0  0  0  0  0
   35.6270   29.8620   33.1690 N   0  0  0  0  0  0  0  0  0  0  0  0
   36.1370   30.2060   31.1300 H   0  0  0  0  0  0  0  0  0  0  0  0
   37.5160   28.2200   30.9530 H   0  0  0  0  0  0  0  0  0  0  0  0
   35.2560   29.3450   35.1450 H   0  0  0  0  0  0  0  0  0  0  0  0
  1  4  1  1  0  0  0
  1  3  1  0  0  0  0
  2  6  1  0  0  0  0
  2  1  1  0  0  0  0
  2  3  1  0  0  0  0
  3  7  1  6  0  0  0
  3 10  1  0  0  0  0
  5  2  1  0  0  0  0
  8  9  1  0  0  0  0
  9 16  1  0  0  0  0
 10  9  2  0  0  0  0
 10 11  1  0  0  0  0
 11 13  2  0  0  0  0
 12 11  1  0  0  0  0
 13 15  1  0  0  0  0
 13 14  1  0  0  0  0
 16 15  2  0  0  0  0
 17 18  1  0  0  0  0
 17 22  1  0  0  0  0
 17  1  1  0  0  0  0
 19 17  1  0  0  0  0
 20 25  1  0  0  0  0
 21 20  2  0  0  0  0
 21 22  1  0  0  0  0
 22 23  2  0  0  0  0
 23 24  1  0  0  0  0
 24 28  1  0  0  0  0
 25 24  2  0  0  0  0
 26 20  1  0  0  0  0
 27 21  1  0  0  0  0
M  END
>  <minimizedAffinity>
-4.72217607

$$$$

 OpenBabel03262520453D

 28 30  0  0  1  0  0  0  0  0999 V2000
   36.4660   25.0120   32.1210 C   0  0  1  0  0  0  0  0  0  0  0  0
   35.4260   24.8740   30.9880 C   0  0  0  0  0  0  0  0  0  0  0  0
   36.5960   23.9580   31.1220 C   0  0  2  0  0  0  0  0  0  0  0  0
   36.0970   24.8950   33.1520 H   0  0  0  0  0  0  0  0  0  0  0  0
   35.4120   25.6420   30.1860 H   0  0  0  0  0  0  0  0  0  0  0  0
   34.4010   24.5920   31.2730 H   0  0  0  0  0  0  0  0  0  0  0  0
   37.4280   24.2230   30.3910 H   0  0  0  0  0  0  0  0  0  0  0  0
   38.9100   21.9470   30.0940 Br  0  0  0  0  0  0  0  0  0  0  0  0
   37.2950   21.4740   30.9290 C   0  0  0  0  0  0  0  0  0  0  0  0
   36.4720   22.5250   31.2650 C   0  0  0  0  0  0  0  0  0  0  0  0
   35.2720   22.1190   31.8800 C   0  0  0  0  0  0  0  0  0  0  0  0
   34.4980   22.8290   32.2140 H   0  0  0  0  0  0  0  0  0  0  0  0
   34.9550   20.8160   32.1210 C   0  0  0  0  0  0  0  0  0  0  0  0
   34.0330   20.5070   32.5940 H   0  0  0  0  0  0  0  0  0  0  0  0
   35.8160   19.8290   31.7620 C   0  0  0  0  0  3  0  0  0  0  0  0
   36.9920   20.1490   31.1640 C   0  0  0  0  0  3  0  0  0  0  0  0
   37.2400   26.3060   32.0290 C   0  0  0  0  0  0  0  0  0  0  0  0
   38.0250   26.1620   31.2420 H   0  0  0  0  0  0  0  0  0  0  0  0
   36.6300   27.1610   31.6920 H   0  0  0  0  0  0  0  0  0  0  0  0
   37.8290   27.4740   35.5220 C   0  0  0  0  0  0  0  0  0  0  0  0
   37.1800   27.1480   34.3170 C   0  0  0  0  0  0  0  0  0  0  0  0
   37.9400   26.6410   33.2820 C   0  0  0  0  0  0  0  0  0  0  0  0
   39.2550   26.4840   33.4700 N   0  0  0  0  0  0  0  0  0  0  0  0
   39.8700   26.8010   34.6300 C   0  0  0  0  0  0  0  0  0  0  0  0
   39.1480   27.2930   35.6460 N   0  0  0  0  0  0  0  0  0  0  0  0
   37.2130   27.8700   36.3230 H   0  0  0  0  0  0  0  0  0  0  0  0
   36.1170   27.3010   34.2370 H   0  0  0  0  0  0  0  0  0  0  0  0
   40.9380   26.6770   34.7940 H   0  0  0  0  0  0  0  0  0  0  0  0
  1  4  1  1  0  0  0
  2  3  1  0  0  0  0
  2  6  1  0  0  0  0
  2  1  1  0  0  0  0
  3  7  1  6  0  0  0
  3 10  1  0  0  0  0
  3  1  1  0  0  0  0
  5  2  1  0  0  0  0
  8  9  1  0  0  0  0
  9 16  2  0  0  0  0
  9 10  1  0  0  0  0
 10 11  2  0  0  0  0
 11 13  1  0  0  0  0
 11 12  1  0  0  0  0
 13 14  1  0  0  0  0
 15 13  2  0  0  0  0
 16 15  1  0  0  0  0
 17  1  1  0  0  0  0
 17 22  1  0  0  0  0
 18 17  1  0  0  0  0
 19 17  1  0  0  0  0
 20 25  1  0  0  0  0
 20 26  1  0  0  0  0
 21 20  2  0  0  0  0
 22 23  2  0  0  0  0
 22 21  1  0  0  0  0
 23 24  1  0  0  0  0
 24 28  1  0  0  0  0
 24 25  2  0  0  0  0
 27 21  1  0  0  0  0
M  END
>  <minimizedAffinity>
-4.65356302

$$$$

 OpenBabel03262520453D

 28 30  0  0  1  0  0  0  0  0999 V2000
   38.0750   24.1040   33.7630 C   0  0  1  0  0  0  0  0  0  0  0  0
   38.5720   23.8640   32.3220 C   0  0  0  0  0  0  0  0  0  0  0  0
   38.1430   22.7520   33.2210 C   0  0  2  0  0  0  0  0  0  0  0  0
   37.1680   24.7180   33.8820 H   0  0  0  0  0  0  0  0  0  0  0  0
   39.6500   24.0140   32.1020 H   0  0  0  0  0  0  0  0  0  0  0  0
   37.9510   24.2520   31.5010 H   0  0  0  0  0  0  0  0  0  0  0  0
   39.0320   22.2030   33.6700 H   0  0  0  0  0  0  0  0  0  0  0  0
   36.4810   21.1990   35.5180 Br  0  0  0  0  0  0  0  0  0  0  0  0
   36.2290   21.0660   33.6610 C   0  0  0  0  0  0  0  0  0  0  0  0
   37.0790   21.8310   32.8930 C   0  0  0  0  0  0  0  0  0  0  0  0
   36.8560   21.6920   31.5090 C   0  0  0  0  0  0  0  0  0  0  0  0
   37.4450   22.2300   30.7480 H   0  0  0  0  0  0  0  0  0  0  0  0
   35.8970   20.8810   30.9800 C   0  0  0  0  0  0  0  0  0  0  0  0
   35.7280   20.7760   29.9170 H   0  0  0  0  0  0  0  0  0  0  0  0
   35.0940   20.1550   31.7990 C   0  0  0  0  0  3  0  0  0  0  0  0
   35.2530   20.2410   33.1450 C   0  0  0  0  0  3  0  0  0  0  0  0
   39.1580   24.6670   34.6540 C   0  0  0  0  0  0  0  0  0  0  0  0
   40.1370   24.3090   34.2430 H   0  0  0  0  0  0  0  0  0  0  0  0
   39.2110   25.7690   34.6390 H   0  0  0  0  0  0  0  0  0  0  0  0
   37.9730   24.2680   38.1680 C   0  0  0  0  0  0  0  0  0  0  0  0
   38.0780   24.7210   36.8400 C   0  0  0  0  0  0  0  0  0  0  0  0
   39.0650   24.1790   36.0420 C   0  0  0  0  0  0  0  0  0  0  0  0
   39.8750   23.2520   36.5640 N   0  0  0  0  0  0  0  0  0  0  0  0
   39.7680   22.8240   37.8410 C   0  0  0  0  0  0  0  0  0  0  0  0
   38.8150   23.3380   38.6300 N   0  0  0  0  0  0  0  0  0  0  0  0
   37.1890   24.7070   38.7780 H   0  0  0  0  0  0  0  0  0  0  0  0
   37.3900   25.4710   36.4860 H   0  0  0  0  0  0  0  0  0  0  0  0
   40.4210   22.0710   38.2760 H   0  0  0  0  0  0  0  0  0  0  0  0
  1  4  1  1  0  0  0
  1 17  1  0  0  0  0
  2  3  1  0  0  0  0
  2  1  1  0  0  0  0
  3  7  1  1  0  0  0
  3  1  1  0  0  0  0
  5  2  1  0  0  0  0
  6  2  1  0  0  0  0
  9  8  1  0  0  0  0
 10  3  1  0  0  0  0
 10  9  2  0  0  0  0
 11 10  1  0  0  0  0
 12 11  1  0  0  0  0
 13 11  2  0  0  0  0
 13 15  1  0  0  0  0
 14 13  1  0  0  0  0
 15 16  2  0  0  0  0
 16  9  1  0  0  0  0
 17 22  1  0  0  0  0
 18 17  1  0  0  0  0
 19 17  1  0  0  0  0
 20 25  1  0  0  0  0
 20 26  1  0  0  0  0
 21 20  2  0  0  0  0
 22 23  2  0  0  0  0
 22 21  1  0  0  0  0
 23 24  1  0  0  0  0
 24 28  1  0  0  0  0
 24 25  2  0  0  0  0
 27 21  1  0  0  0  0
M  END
>  <minimizedAffinity>
-4.53186131

$$$$

 OpenBabel03262520453D

 28 30  0  0  1  0  0  0  0  0999 V2000
   39.4710   26.4700   34.1690 C   0  0  1  0  0  0  0  0  0  0  0  0
   39.0060   26.8790   35.5820 C   0  0  0  0  0  0  0  0  0  0  0  0
   38.9840   25.4650   35.1070 C   0  0  2  0  0  0  0  0  0  0  0  0
   40.5230   26.6720   33.9120 H   0  0  0  0  0  0  0  0  0  0  0  0
   38.0560   27.4440   35.6840 H   0  0  0  0  0  0  0  0  0  0  0  0
   39.7670   27.2750   36.2710 H   0  0  0  0  0  0  0  0  0  0  0  0
   37.9370   25.1350   34.8060 H   0  0  0  0  0  0  0  0  0  0  0  0
   37.6360   23.7660   37.5050 Br  0  0  0  0  0  0  0  0  0  0  0  0
   39.3540   23.5290   36.7840 C   0  0  0  0  0  0  0  0  0  0  0  0
   39.6940   24.3930   35.7670 C   0  0  0  0  0  0  0  0  0  0  0  0
   40.9930   24.1810   35.2660 C   0  0  0  0  0  0  0  0  0  0  0  0
   41.4290   24.7810   34.4510 H   0  0  0  0  0  0  0  0  0  0  0  0
   41.8320   23.2160   35.7380 C   0  0  0  0  0  0  0  0  0  0  0  0
   42.8290   23.0550   35.3510 H   0  0  0  0  0  0  0  0  0  0  0  0
   41.4300   22.3980   36.7440 C   0  0  0  0  0  3  0  0  0  0  0  0
   40.1890   22.5480   37.2750 C   0  0  0  0  0  3  0  0  0  0  0  0
   38.5900   27.0520   33.0880 C   0  0  0  0  0  0  0  0  0  0  0  0
   37.7600   27.6000   33.6030 H   0  0  0  0  0  0  0  0  0  0  0  0
   39.1010   27.8010   32.4600 H   0  0  0  0  0  0  0  0  0  0  0  0
   35.9830   24.8910   31.5230 C   0  0  0  0  0  0  0  0  0  0  0  0
   36.5970   25.8730   32.3230 C   0  0  0  0  0  0  0  0  0  0  0  0
   37.9670   26.0170   32.2420 C   0  0  0  0  0  0  0  0  0  0  0  0
   38.6480   25.2210   31.4110 N   0  0  0  0  0  0  0  0  0  0  0  0
   38.0510   24.2800   30.6480 C   0  0  0  0  0  0  0  0  0  0  0  0
   36.7210   24.1250   30.7120 N   0  0  0  0  0  0  0  0  0  0  0  0
   34.9050   24.7930   31.6020 H   0  0  0  0  0  0  0  0  0  0  0  0
   35.9850   26.4790   32.9700 H   0  0  0  0  0  0  0  0  0  0  0  0
   38.5940   23.6270   29.9690 H   0  0  0  0  0  0  0  0  0  0  0  0
  1  4  1  6  0  0  0
  1  3  1  0  0  0  0
  1  2  1  0  0  0  0
  2  5  1  0  0  0  0
  2  6  1  0  0  0  0
  3  7  1  6  0  0  0
  3  2  1  0  0  0  0
  3 10  1  0  0  0  0
  9 16  1  0  0  0  0
  9  8  1  0  0  0  0
 10  9  2  0  0  0  0
 11 13  2  0  0  0  0
 11 10  1  0  0  0  0
 12 11  1  0  0  0  0
 13 15  1  0  0  0  0
 14 13  1  0  0  0  0
 15 16  2  0  0  0  0
 17 18  1  0  0  0  0
 17  1  1  0  0  0  0
 19 17  1  0  0  0  0
 20 26  1  0  0  0  0
 20 21  1  0  0  0  0
 21 27  1  0  0  0  0
 22 21  2  0  0  0  0
 22 17  1  0  0  0  0
 23 22  1  0  0  0  0
 24 25  1  0  0  0  0
 24 23  2  0  0  0  0
 25 20  2  0  0  0  0
 28 24  1  0  0  0  0
M  END
>  <minimizedAffinity>
-4.52393436

$$$$
