
 OpenBabel03272509563D

 43 46  0  0  0  0  0  0  0  0999 V2000
   37.4300   26.2140   34.6370 C   0  0  0  0  0  0  0  0  0  0  0  0
   36.4150   26.3250   35.0710 H   0  0  0  0  0  0  0  0  0  0  0  0
   38.1200   26.8250   35.2580 H   0  0  0  0  0  0  0  0  0  0  0  0
   37.3670   26.6630   33.2120 C   0  0  0  0  0  0  0  0  0  0  0  0
   36.8620   25.9620   32.5320 H   0  0  0  0  0  0  0  0  0  0  0  0
   38.4100   26.7640   32.8060 H   0  0  0  0  0  0  0  0  0  0  0  0
   36.7370   28.0040   33.0610 C   0  0  0  0  0  0  0  0  0  0  0  0
   36.7490   28.5980   31.8130 C   0  0  0  0  0  0  0  0  0  0  0  0
   36.1930   29.8230   31.5940 C   0  0  0  0  0  0  0  0  0  0  0  0
   35.6250   30.4710   32.5900 N   0  0  0  0  0  0  0  0  0  0  0  0
   35.6050   29.8950   33.8300 C   0  0  0  0  0  0  0  0  0  0  0  0
   36.1480   28.6780   34.0840 N   0  0  0  0  0  0  0  0  0  0  0  0
   37.2130   28.0740   30.9900 H   0  0  0  0  0  0  0  0  0  0  0  0
   36.2270   30.2550   30.5860 H   0  0  0  0  0  0  0  0  0  0  0  0
   32.5580   29.3520   33.9720 Br  0  0  0  0  0  0  0  0  0  0  0  0
   33.6030   30.4470   35.1530 C   0  0  0  0  0  0  0  0  0  0  0  0
   34.9800   30.5940   34.9550 C   0  0  0  0  0  0  0  0  0  0  0  0
   35.6960   31.3850   35.8210 C   0  0  0  0  0  0  0  0  0  0  0  0
   36.7590   31.5120   35.6860 H   0  0  0  0  0  0  0  0  0  0  0  0
   35.1050   32.0420   36.8790 C   0  0  0  0  0  0  0  0  0  0  0  0
   35.6720   32.6570   37.5490 H   0  0  0  0  0  0  0  0  0  0  0  0
   33.7470   31.8650   37.0320 C   0  0  0  0  0  3  0  0  0  0  0  0
   32.9510   31.0890   36.2110 C   0  0  0  0  0  3  0  0  0  0  0  0
   37.7370   24.8380   34.7090 O   0  0  0  0  0  0  0  0  0  0  0  0
   38.0090   23.7580   38.1460 C   0  0  0  0  0  0  0  0  0  0  0  0
   39.2960   23.1720   38.1320 C   0  0  0  0  0  0  0  0  0  0  0  0
   39.9880   23.1920   36.9260 C   0  0  0  0  0  0  0  0  0  0  0  0
   39.3480   23.7800   35.8630 N   0  0  0  0  0  0  0  0  0  0  0  0
   38.1400   24.3200   35.9080 C   0  0  0  0  0  0  0  0  0  0  0  0
   37.4650   24.3020   37.0830 N   0  0  0  0  0  0  0  0  0  0  0  0
   37.4990   23.7240   39.1090 H   0  0  0  0  0  0  0  0  0  0  0  0
   39.7970   22.7110   38.9660 H   0  0  0  0  0  0  0  0  0  0  0  0
   42.3110   24.5150   35.8090 F   0  0  0  0  0  0  0  0  0  0  0  0
   42.4050   23.2490   36.1890 C   0  0  0  0  0  0  0  0  0  0  0  0
   41.3100   22.6460   36.7090 C   0  0  0  0  0  0  0  0  0  0  0  0
   41.5230   21.3150   37.0750 C   0  0  0  0  0  0  0  0  0  0  0  0
   42.7270   20.6870   36.9200 C   0  0  0  0  0  0  0  0  0  0  0  0
   43.8060   21.3330   36.3900 C   0  0  0  0  0  0  0  0  0  0  0  0
   43.6330   22.6340   36.0220 C   0  0  0  0  0  0  0  0  0  0  0  0
   40.7230   20.7000   37.5120 H   0  0  0  0  0  0  0  0  0  0  0  0
   42.8610   19.6460   37.2160 H   0  0  0  0  0  0  0  0  0  0  0  0
   44.7480   20.8130   36.2780 H   0  0  0  0  0  0  0  0  0  0  0  0
   44.4670   23.1730   35.6000 H   0  0  0  0  0  0  0  0  0  0  0  0
  1 24  1  0  0  0  0
  1  2  1  0  0  0  0
  1  3  1  0  0  0  0
  4  1  1  0  0  0  0
  5  4  1  0  0  0  0
  6  4  1  0  0  0  0
  7  4  1  0  0  0  0
  7 12  1  0  0  0  0
  8  7  2  0  0  0  0
  9  8  1  0  0  0  0
  9 10  2  0  0  0  0
 10 11  1  0  0  0  0
 11 12  2  0  0  0  0
 11 17  1  0  0  0  0
 13  8  1  0  0  0  0
 14  9  1  0  0  0  0
 15 16  1  0  0  0  0
 16 23  1  0  0  0  0
 17 16  2  0  0  0  0
 17 18  1  0  0  0  0
 18 20  2  0  0  0  0
 19 18  1  0  0  0  0
 20 22  1  0  0  0  0
 20 21  1  0  0  0  0
 23 22  2  0  0  0  0
 24 29  1  0  0  0  0
 25 31  1  0  0  0  0
 26 25  1  0  0  0  0
 26 32  1  0  0  0  0
 27 26  2  0  0  0  0
 28 29  2  0  0  0  0
 28 27  1  0  0  0  0
 29 30  1  0  0  0  0
 30 25  2  0  0  0  0
 33 34  1  0  0  0  0
 34 35  1  0  0  0  0
 35 27  1  0  0  0  0
 35 36  2  0  0  0  0
 36 40  1  0  0  0  0
 37 36  1  0  0  0  0
 37 41  1  0  0  0  0
 38 37  2  0  0  0  0
 39 34  2  0  0  0  0
 39 38  1  0  0  0  0
 42 38  1  0  0  0  0
 43 39  1  0  0  0  0
M  END
>  <minimizedAffinity>
-6.80949402

$$$$

 OpenBabel03272509563D

 43 46  0  0  0  0  0  0  0  0999 V2000
   36.6450   26.2660   32.3300 C   0  0  0  0  0  0  0  0  0  0  0  0
   36.0440   26.4320   31.4130 H   0  0  0  0  0  0  0  0  0  0  0  0
   35.9540   25.8760   33.1090 H   0  0  0  0  0  0  0  0  0  0  0  0
   37.2750   27.5700   32.7040 C   0  0  0  0  0  0  0  0  0  0  0  0
   38.1170   27.8720   32.0650 H   0  0  0  0  0  0  0  0  0  0  0  0
   37.7070   27.4920   33.7390 H   0  0  0  0  0  0  0  0  0  0  0  0
   36.2930   28.6880   32.7520 C   0  0  0  0  0  0  0  0  0  0  0  0
   36.0830   29.4270   31.6020 C   0  0  0  0  0  0  0  0  0  0  0  0
   35.2020   30.4650   31.5660 C   0  0  0  0  0  0  0  0  0  0  0  0
   34.5230   30.7860   32.6480 N   0  0  0  0  0  0  0  0  0  0  0  0
   34.7200   30.0640   33.7920 C   0  0  0  0  0  0  0  0  0  0  0  0
   35.5890   29.0240   33.8640 N   0  0  0  0  0  0  0  0  0  0  0  0
   36.6360   29.1710   30.7090 H   0  0  0  0  0  0  0  0  0  0  0  0
   35.0690   31.0230   30.6300 H   0  0  0  0  0  0  0  0  0  0  0  0
   36.1370   32.2790   35.4300 Br  0  0  0  0  0  0  0  0  0  0  0  0
   34.4930   31.3840   35.8580 C   0  0  0  0  0  0  0  0  0  0  0  0
   33.9780   30.3980   35.0100 C   0  0  0  0  0  0  0  0  0  0  0  0
   32.7990   29.7790   35.3480 C   0  0  0  0  0  0  0  0  0  0  0  0
   32.3850   29.0150   34.7080 H   0  0  0  0  0  0  0  0  0  0  0  0
   32.1030   30.0960   36.4960 C   0  0  0  0  0  0  0  0  0  0  0  0
   31.1840   29.6070   36.7500 H   0  0  0  0  0  0  0  0  0  0  0  0
   32.6510   31.0730   37.2970 C   0  0  0  0  0  3  0  0  0  0  0  0
   33.8290   31.7460   37.0340 C   0  0  0  0  0  3  0  0  0  0  0  0
   37.6340   25.3190   31.9840 O   0  0  0  0  0  0  0  0  0  0  0  0
   37.1560   21.7970   32.6300 C   0  0  0  0  0  0  0  0  0  0  0  0
   37.5640   21.7250   33.9820 C   0  0  0  0  0  0  0  0  0  0  0  0
   37.9790   22.9080   34.5830 C   0  0  0  0  0  0  0  0  0  0  0  0
   37.9520   24.0350   33.7990 N   0  0  0  0  0  0  0  0  0  0  0  0
   37.5650   24.0700   32.5330 C   0  0  0  0  0  0  0  0  0  0  0  0
   37.1590   22.9170   31.9470 N   0  0  0  0  0  0  0  0  0  0  0  0
   36.8380   20.8500   32.1950 H   0  0  0  0  0  0  0  0  0  0  0  0
   37.5850   20.8400   34.5960 H   0  0  0  0  0  0  0  0  0  0  0  0
   40.4450   21.9410   35.7550 F   0  0  0  0  0  0  0  0  0  0  0  0
   39.5780   22.5950   36.5150 C   0  0  0  0  0  0  0  0  0  0  0  0
   38.4310   23.0400   35.9510 C   0  0  0  0  0  0  0  0  0  0  0  0
   37.5930   23.7140   36.8420 C   0  0  0  0  0  0  0  0  0  0  0  0
   37.9090   23.9020   38.1580 C   0  0  0  0  0  0  0  0  0  0  0  0
   39.0770   23.4360   38.6860 C   0  0  0  0  0  0  0  0  0  0  0  0
   39.9190   22.7730   37.8440 C   0  0  0  0  0  0  0  0  0  0  0  0
   36.6260   24.1320   36.5240 H   0  0  0  0  0  0  0  0  0  0  0  0
   37.2320   24.4340   38.8280 H   0  0  0  0  0  0  0  0  0  0  0  0
   39.3030   23.5980   39.7310 H   0  0  0  0  0  0  0  0  0  0  0  0
   40.8520   22.3920   38.2290 H   0  0  0  0  0  0  0  0  0  0  0  0
  1  4  1  0  0  0  0
  1  3  1  0  0  0  0
  2  1  1  0  0  0  0
  4  7  1  0  0  0  0
  4  6  1  0  0  0  0
  5  4  1  0  0  0  0
  7 12  1  0  0  0  0
  8  7  2  0  0  0  0
  9  8  1  0  0  0  0
  9 10  2  0  0  0  0
 10 11  1  0  0  0  0
 11 12  2  0  0  0  0
 11 17  1  0  0  0  0
 13  8  1  0  0  0  0
 14  9  1  0  0  0  0
 15 16  1  0  0  0  0
 16 23  1  0  0  0  0
 17 18  1  0  0  0  0
 17 16  2  0  0  0  0
 18 20  2  0  0  0  0
 19 18  1  0  0  0  0
 20 21  1  0  0  0  0
 20 22  1  0  0  0  0
 23 22  2  0  0  0  0
 24  1  1  0  0  0  0
 24 29  1  0  0  0  0
 25 26  1  0  0  0  0
 26 27  2  0  0  0  0
 26 32  1  0  0  0  0
 27 35  1  0  0  0  0
 28 27  1  0  0  0  0
 29 28  2  0  0  0  0
 30 29  1  0  0  0  0
 30 25  2  0  0  0  0
 31 25  1  0  0  0  0
 33 34  1  0  0  0  0
 34 39  1  0  0  0  0
 35 34  2  0  0  0  0
 35 36  1  0  0  0  0
 36 37  2  0  0  0  0
 37 38  1  0  0  0  0
 37 41  1  0  0  0  0
 38 42  1  0  0  0  0
 39 43  1  0  0  0  0
 39 38  2  0  0  0  0
 40 36  1  0  0  0  0
M  END
>  <minimizedAffinity>
-6.64311171

$$$$

 OpenBabel03272509563D

 43 46  0  0  0  0  0  0  0  0999 V2000
   37.6800   26.6750   34.0730 C   0  0  0  0  0  0  0  0  0  0  0  0
   36.9300   26.2440   34.7680 H   0  0  0  0  0  0  0  0  0  0  0  0
   38.0890   27.5880   34.5570 H   0  0  0  0  0  0  0  0  0  0  0  0
   36.9900   26.9560   32.7770 C   0  0  0  0  0  0  0  0  0  0  0  0
   36.2560   26.1960   32.4730 H   0  0  0  0  0  0  0  0  0  0  0  0
   37.7480   26.9780   31.9470 H   0  0  0  0  0  0  0  0  0  0  0  0
   36.3240   28.2880   32.7600 C   0  0  0  0  0  0  0  0  0  0  0  0
   36.2050   28.9470   31.5500 C   0  0  0  0  0  0  0  0  0  0  0  0
   35.6100   30.1690   31.4520 C   0  0  0  0  0  0  0  0  0  0  0  0
   35.1290   30.7510   32.5320 N   0  0  0  0  0  0  0  0  0  0  0  0
   35.2390   30.1110   33.7340 C   0  0  0  0  0  0  0  0  0  0  0  0
   35.8260   28.8950   33.8690 N   0  0  0  0  0  0  0  0  0  0  0  0
   36.5970   28.4770   30.6590 H   0  0  0  0  0  0  0  0  0  0  0  0
   35.5380   30.6540   30.4700 H   0  0  0  0  0  0  0  0  0  0  0  0
   32.2480   29.4340   34.1750 Br  0  0  0  0  0  0  0  0  0  0  0  0
   33.3730   30.5230   35.2870 C   0  0  0  0  0  0  0  0  0  0  0  0
   34.7140   30.7350   34.9510 C   0  0  0  0  0  0  0  0  0  0  0  0
   35.4890   31.5200   35.7700 C   0  0  0  0  0  0  0  0  0  0  0  0
   36.5250   31.6970   35.5280 H   0  0  0  0  0  0  0  0  0  0  0  0
   34.9910   32.1070   36.9140 C   0  0  0  0  0  0  0  0  0  0  0  0
   35.6040   32.7180   37.5470 H   0  0  0  0  0  0  0  0  0  0  0  0
   33.6660   31.8670   37.2020 C   0  0  0  0  0  3  0  0  0  0  0  0
   32.8160   31.0920   36.4360 C   0  0  0  0  0  3  0  0  0  0  0  0
   38.6700   25.6830   33.9010 O   0  0  0  0  0  0  0  0  0  0  0  0
   38.7440   22.9800   36.2990 C   0  0  0  0  0  0  0  0  0  0  0  0
   38.0530   21.9780   35.5790 C   0  0  0  0  0  0  0  0  0  0  0  0
   37.6060   22.3070   34.3040 C   0  0  0  0  0  0  0  0  0  0  0  0
   37.8800   23.5800   33.8690 N   0  0  0  0  0  0  0  0  0  0  0  0
   38.5300   24.4970   34.5680 C   0  0  0  0  0  0  0  0  0  0  0  0
   38.9680   24.1780   35.8100 N   0  0  0  0  0  0  0  0  0  0  0  0
   39.0790   22.6850   37.2920 H   0  0  0  0  0  0  0  0  0  0  0  0
   37.8380   20.9800   35.9220 H   0  0  0  0  0  0  0  0  0  0  0  0
   35.3440   20.6050   34.9220 F   0  0  0  0  0  0  0  0  0  0  0  0
   35.8260   20.6220   33.6870 C   0  0  0  0  0  0  0  0  0  0  0  0
   36.8830   21.4240   33.4160 C   0  0  0  0  0  0  0  0  0  0  0  0
   37.3060   21.3620   32.0870 C   0  0  0  0  0  0  0  0  0  0  0  0
   36.7050   20.5660   31.1530 C   0  0  0  0  0  0  0  0  0  0  0  0
   35.6410   19.7730   31.4700 C   0  0  0  0  0  0  0  0  0  0  0  0
   35.2010   19.8080   32.7590 C   0  0  0  0  0  0  0  0  0  0  0  0
   38.1550   21.9590   31.7210 H   0  0  0  0  0  0  0  0  0  0  0  0
   37.0600   20.5410   30.1220 H   0  0  0  0  0  0  0  0  0  0  0  0
   35.1830   19.1520   30.7120 H   0  0  0  0  0  0  0  0  0  0  0  0
   34.3610   19.1930   33.0430 H   0  0  0  0  0  0  0  0  0  0  0  0
  1  3  1  0  0  0  0
  1  2  1  0  0  0  0
  4  1  1  0  0  0  0
  5  4  1  0  0  0  0
  6  4  1  0  0  0  0
  7  4  1  0  0  0  0
  7 12  1  0  0  0  0
  8  7  2  0  0  0  0
  9  8  1  0  0  0  0
  9 10  2  0  0  0  0
 10 11  1  0  0  0  0
 11 12  2  0  0  0  0
 11 17  1  0  0  0  0
 13  8  1  0  0  0  0
 14  9  1  0  0  0  0
 15 16  1  0  0  0  0
 16 23  1  0  0  0  0
 17 16  2  0  0  0  0
 17 18  1  0  0  0  0
 18 20  2  0  0  0  0
 19 18  1  0  0  0  0
 20 22  1  0  0  0  0
 20 21  1  0  0  0  0
 23 22  2  0  0  0  0
 24  1  1  0  0  0  0
 24 29  1  0  0  0  0
 25 31  1  0  0  0  0
 26 32  1  0  0  0  0
 26 25  2  0  0  0  0
 27 26  1  0  0  0  0
 28 27  2  0  0  0  0
 28 29  1  0  0  0  0
 29 30  2  0  0  0  0
 30 25  1  0  0  0  0
 34 33  1  0  0  0  0
 35 34  1  0  0  0  0
 35 27  1  0  0  0  0
 36 35  2  0  0  0  0
 37 38  2  0  0  0  0
 37 36  1  0  0  0  0
 38 39  1  0  0  0  0
 39 43  1  0  0  0  0
 39 34  2  0  0  0  0
 40 36  1  0  0  0  0
 41 37  1  0  0  0  0
 42 38  1  0  0  0  0
M  END
>  <minimizedAffinity>
-6.62509012

$$$$

 OpenBabel03272509563D

 43 46  0  0  0  0  0  0  0  0999 V2000
   36.9210   21.5790   31.1380 C   0  0  0  0  0  0  0  0  0  0  0  0
   37.7140   22.3310   30.9450 H   0  0  0  0  0  0  0  0  0  0  0  0
   36.9060   20.8870   30.2690 H   0  0  0  0  0  0  0  0  0  0  0  0
   35.6330   22.3160   31.3260 C   0  0  0  0  0  0  0  0  0  0  0  0
   35.0030   21.9370   32.1430 H   0  0  0  0  0  0  0  0  0  0  0  0
   35.0050   22.2110   30.3990 H   0  0  0  0  0  0  0  0  0  0  0  0
   35.8330   23.7780   31.5220 C   0  0  0  0  0  0  0  0  0  0  0  0
   35.1560   24.6510   30.6900 C   0  0  0  0  0  0  0  0  0  0  0  0
   35.2870   26.0020   30.8070 C   0  0  0  0  0  0  0  0  0  0  0  0
   36.0760   26.5060   31.7340 N   0  0  0  0  0  0  0  0  0  0  0  0
   36.7520   25.6550   32.5630 C   0  0  0  0  0  0  0  0  0  0  0  0
   36.6460   24.3050   32.4760 N   0  0  0  0  0  0  0  0  0  0  0  0
   34.5060   24.2460   29.9270 H   0  0  0  0  0  0  0  0  0  0  0  0
   34.7290   26.6560   30.1240 H   0  0  0  0  0  0  0  0  0  0  0  0
   39.7170   24.9300   32.0330 Br  0  0  0  0  0  0  0  0  0  0  0  0
   39.0090   25.9430   33.5020 C   0  0  0  0  0  0  0  0  0  0  0  0
   37.6360   26.1880   33.6020 C   0  0  0  0  0  0  0  0  0  0  0  0
   37.1660   26.9180   34.6670 C   0  0  0  0  0  0  0  0  0  0  0  0
   36.1100   27.1170   34.7620 H   0  0  0  0  0  0  0  0  0  0  0  0
   38.0010   27.4180   35.6430 C   0  0  0  0  0  0  0  0  0  0  0  0
   37.6240   27.9860   36.4710 H   0  0  0  0  0  0  0  0  0  0  0  0
   39.3440   27.1500   35.5000 C   0  0  0  0  0  3  0  0  0  0  0  0
   39.9030   26.4270   34.4630 C   0  0  0  0  0  3  0  0  0  0  0  0
   37.2910   20.9180   32.3300 O   0  0  0  0  0  0  0  0  0  0  0  0
   40.7820   21.4190   33.1160 C   0  0  0  0  0  0  0  0  0  0  0  0
   40.6760   22.0180   34.3930 C   0  0  0  0  0  0  0  0  0  0  0  0
   39.3950   22.2100   34.8980 C   0  0  0  0  0  0  0  0  0  0  0  0
   38.3550   21.7960   34.1030 N   0  0  0  0  0  0  0  0  0  0  0  0
   38.4870   21.2370   32.9100 C   0  0  0  0  0  0  0  0  0  0  0  0
   39.7350   21.0490   32.4160 N   0  0  0  0  0  0  0  0  0  0  0  0
   41.8010   21.2850   32.7550 H   0  0  0  0  0  0  0  0  0  0  0  0
   41.4920   22.3430   35.0150 H   0  0  0  0  0  0  0  0  0  0  0  0
   40.7710   21.8590   37.4230 F   0  0  0  0  0  0  0  0  0  0  0  0
   39.7100   22.6510   37.3670 C   0  0  0  0  0  0  0  0  0  0  0  0
   39.0790   22.8040   36.1790 C   0  0  0  0  0  0  0  0  0  0  0  0
   37.9770   23.6600   36.2350 C   0  0  0  0  0  0  0  0  0  0  0  0
   37.5790   24.2800   37.3860 C   0  0  0  0  0  0  0  0  0  0  0  0
   38.2440   24.0980   38.5630 C   0  0  0  0  0  0  0  0  0  0  0  0
   39.3260   23.2690   38.5440 C   0  0  0  0  0  0  0  0  0  0  0  0
   37.3680   23.8790   35.3460 H   0  0  0  0  0  0  0  0  0  0  0  0
   36.7130   24.9440   37.3960 H   0  0  0  0  0  0  0  0  0  0  0  0
   37.9080   24.6020   39.4590 H   0  0  0  0  0  0  0  0  0  0  0  0
   39.8740   23.1030   39.4580 H   0  0  0  0  0  0  0  0  0  0  0  0
  1  4  1  0  0  0  0
  1 24  1  0  0  0  0
  2  1  1  0  0  0  0
  3  1  1  0  0  0  0
  4  7  1  0  0  0  0
  4  5  1  0  0  0  0
  6  4  1  0  0  0  0
  7 12  1  0  0  0  0
  8  9  1  0  0  0  0
  8  7  2  0  0  0  0
  9 10  2  0  0  0  0
 10 11  1  0  0  0  0
 11 17  1  0  0  0  0
 12 11  2  0  0  0  0
 13  8  1  0  0  0  0
 14  9  1  0  0  0  0
 15 16  1  0  0  0  0
 16 17  2  0  0  0  0
 16 23  1  0  0  0  0
 17 18  1  0  0  0  0
 18 19  1  0  0  0  0
 18 20  2  0  0  0  0
 20 21  1  0  0  0  0
 22 20  1  0  0  0  0
 23 22  2  0  0  0  0
 24 29  1  0  0  0  0
 25 26  1  0  0  0  0
 26 27  2  0  0  0  0
 26 32  1  0  0  0  0
 27 35  1  0  0  0  0
 28 27  1  0  0  0  0
 29 28  2  0  0  0  0
 30 29  1  0  0  0  0
 30 25  2  0  0  0  0
 31 25  1  0  0  0  0
 34 33  1  0  0  0  0
 34 39  1  0  0  0  0
 35 36  1  0  0  0  0
 35 34  2  0  0  0  0
 36 37  2  0  0  0  0
 37 41  1  0  0  0  0
 37 38  1  0  0  0  0
 38 42  1  0  0  0  0
 39 38  2  0  0  0  0
 39 43  1  0  0  0  0
 40 36  1  0  0  0  0
M  END
>  <minimizedAffinity>
-6.54806709

$$$$

 OpenBabel03272509563D

 43 46  0  0  0  0  0  0  0  0999 V2000
   38.4120   26.7520   34.8100 C   0  0  0  0  0  0  0  0  0  0  0  0
   39.0790   26.5560   33.9460 H   0  0  0  0  0  0  0  0  0  0  0  0
   38.7040   27.7370   35.2340 H   0  0  0  0  0  0  0  0  0  0  0  0
   38.5770   25.6240   35.7780 C   0  0  0  0  0  0  0  0  0  0  0  0
   37.7550   25.5140   36.5000 H   0  0  0  0  0  0  0  0  0  0  0  0
   39.4940   25.8000   36.4030 H   0  0  0  0  0  0  0  0  0  0  0  0
   38.7880   24.3150   35.1000 C   0  0  0  0  0  0  0  0  0  0  0  0
   40.0540   23.7590   35.1250 C   0  0  0  0  0  0  0  0  0  0  0  0
   40.3270   22.5650   34.5280 C   0  0  0  0  0  0  0  0  0  0  0  0
   39.3680   21.9100   33.9050 N   0  0  0  0  0  0  0  0  0  0  0  0
   38.1120   22.4480   33.8720 C   0  0  0  0  0  0  0  0  0  0  0  0
   37.8040   23.6340   34.4550 N   0  0  0  0  0  0  0  0  0  0  0  0
   40.8470   24.2890   35.6340 H   0  0  0  0  0  0  0  0  0  0  0  0
   41.3470   22.1630   34.5740 H   0  0  0  0  0  0  0  0  0  0  0  0
   37.8340   23.3520   30.9210 Br  0  0  0  0  0  0  0  0  0  0  0  0
   36.7760   22.0420   31.8430 C   0  0  0  0  0  0  0  0  0  0  0  0
   37.0280   21.7420   33.1860 C   0  0  0  0  0  0  0  0  0  0  0  0
   36.2500   20.7980   33.8130 C   0  0  0  0  0  0  0  0  0  0  0  0
   36.4270   20.5530   34.8490 H   0  0  0  0  0  0  0  0  0  0  0  0
   35.2300   20.1350   33.1660 C   0  0  0  0  0  0  0  0  0  0  0  0
   34.6290   19.4010   33.6640 H   0  0  0  0  0  0  0  0  0  0  0  0
   35.0230   20.4660   31.8450 C   0  0  0  0  0  3  0  0  0  0  0  0
   35.7550   21.3990   31.1370 C   0  0  0  0  0  3  0  0  0  0  0  0
   37.0970   26.7720   34.2930 O   0  0  0  0  0  0  0  0  0  0  0  0
   36.2560   29.4190   31.9820 C   0  0  0  0  0  0  0  0  0  0  0  0
   35.6080   30.3250   32.8520 C   0  0  0  0  0  0  0  0  0  0  0  0
   35.5060   29.9570   34.1900 C   0  0  0  0  0  0  0  0  0  0  0  0
   36.0470   28.7430   34.5330 N   0  0  0  0  0  0  0  0  0  0  0  0
   36.6480   27.9150   33.6930 C   0  0  0  0  0  0  0  0  0  0  0  0
   36.7490   28.2730   32.3900 N   0  0  0  0  0  0  0  0  0  0  0  0
   36.3170   29.7430   30.9430 H   0  0  0  0  0  0  0  0  0  0  0  0
   35.1840   31.2770   32.5820 H   0  0  0  0  0  0  0  0  0  0  0  0
   36.7430   31.8830   35.9660 F   0  0  0  0  0  0  0  0  0  0  0  0
   35.4430   31.6470   36.0690 C   0  0  0  0  0  0  0  0  0  0  0  0
   34.8810   30.7440   35.2300 C   0  0  0  0  0  0  0  0  0  0  0  0
   33.5090   30.5750   35.4270 C   0  0  0  0  0  0  0  0  0  0  0  0
   32.8060   31.2600   36.3770 C   0  0  0  0  0  0  0  0  0  0  0  0
   33.4130   32.1620   37.2020 C   0  0  0  0  0  0  0  0  0  0  0  0
   34.7520   32.3520   37.0380 C   0  0  0  0  0  0  0  0  0  0  0  0
   32.9190   29.8740   34.8180 H   0  0  0  0  0  0  0  0  0  0  0  0
   31.7340   31.1050   36.5050 H   0  0  0  0  0  0  0  0  0  0  0  0
   32.8330   32.6910   37.9470 H   0  0  0  0  0  0  0  0  0  0  0  0
   35.2630   33.0580   37.6740 H   0  0  0  0  0  0  0  0  0  0  0  0
  1  3  1  0  0  0  0
  1  4  1  0  0  0  0
  2  1  1  0  0  0  0
  4  6  1  0  0  0  0
  4  5  1  0  0  0  0
  7  8  1  0  0  0  0
  7  4  1  0  0  0  0
  8 13  1  0  0  0  0
  9 14  1  0  0  0  0
  9  8  2  0  0  0  0
 10  9  1  0  0  0  0
 11 10  2  0  0  0  0
 11 12  1  0  0  0  0
 12  7  2  0  0  0  0
 15 16  1  0  0  0  0
 16 17  1  0  0  0  0
 17 18  2  0  0  0  0
 17 11  1  0  0  0  0
 18 19  1  0  0  0  0
 20 21  1  0  0  0  0
 20 18  1  0  0  0  0
 22 20  2  0  0  0  0
 23 16  2  0  0  0  0
 23 22  1  0  0  0  0
 24  1  1  0  0  0  0
 25 30  2  0  0  0  0
 25 26  1  0  0  0  0
 26 27  2  0  0  0  0
 27 28  1  0  0  0  0
 27 35  1  0  0  0  0
 29 24  1  0  0  0  0
 29 28  2  0  0  0  0
 30 29  1  0  0  0  0
 31 25  1  0  0  0  0
 32 26  1  0  0  0  0
 33 34  1  0  0  0  0
 34 39  1  0  0  0  0
 35 36  1  0  0  0  0
 35 34  2  0  0  0  0
 36 37  2  0  0  0  0
 37 41  1  0  0  0  0
 37 38  1  0  0  0  0
 38 42  1  0  0  0  0
 39 38  2  0  0  0  0
 39 43  1  0  0  0  0
 40 36  1  0  0  0  0
M  END
>  <minimizedAffinity>
-6.52191925

$$$$

 OpenBabel03272509563D

 43 46  0  0  0  0  0  0  0  0999 V2000
   37.6220   26.3800   32.2970 C   0  0  0  0  0  0  0  0  0  0  0  0
   37.8500   27.0720   31.4610 H   0  0  0  0  0  0  0  0  0  0  0  0
   38.5880   26.1220   32.7820 H   0  0  0  0  0  0  0  0  0  0  0  0
   36.9140   25.1940   31.7270 C   0  0  0  0  0  0  0  0  0  0  0  0
   37.1500   24.9800   30.6740 H   0  0  0  0  0  0  0  0  0  0  0  0
   35.8050   25.3760   31.7460 H   0  0  0  0  0  0  0  0  0  0  0  0
   37.1400   23.9550   32.5220 C   0  0  0  0  0  0  0  0  0  0  0  0
   36.5470   22.7820   32.0930 C   0  0  0  0  0  0  0  0  0  0  0  0
   36.7060   21.6080   32.7660 C   0  0  0  0  0  0  0  0  0  0  0  0
   37.4430   21.5730   33.8570 N   0  0  0  0  0  0  0  0  0  0  0  0
   38.0360   22.7250   34.2930 C   0  0  0  0  0  0  0  0  0  0  0  0
   37.9000   23.9120   33.6480 N   0  0  0  0  0  0  0  0  0  0  0  0
   35.9400   22.8010   31.1980 H   0  0  0  0  0  0  0  0  0  0  0  0
   36.2150   20.7020   32.3870 H   0  0  0  0  0  0  0  0  0  0  0  0
   40.9340   21.8010   33.7040 Br  0  0  0  0  0  0  0  0  0  0  0  0
   40.1980   22.3200   35.3990 C   0  0  0  0  0  0  0  0  0  0  0  0
   38.8610   22.7160   35.5030 C   0  0  0  0  0  0  0  0  0  0  0  0
   38.3690   23.0810   36.7330 C   0  0  0  0  0  0  0  0  0  0  0  0
   37.3390   23.3890   36.8350 H   0  0  0  0  0  0  0  0  0  0  0  0
   39.1470   23.0710   37.8710 C   0  0  0  0  0  0  0  0  0  0  0  0
   38.7530   23.3570   38.8260 H   0  0  0  0  0  0  0  0  0  0  0  0
   40.4570   22.6740   37.7160 C   0  0  0  0  0  3  0  0  0  0  0  0
   41.0340   22.2920   36.5200 C   0  0  0  0  0  3  0  0  0  0  0  0
   36.7710   27.0920   33.1710 O   0  0  0  0  0  0  0  0  0  0  0  0
   36.2380   30.2770   31.5520 C   0  0  0  0  0  0  0  0  0  0  0  0
   35.6280   31.0020   32.6010 C   0  0  0  0  0  0  0  0  0  0  0  0
   35.4400   30.3340   33.8070 C   0  0  0  0  0  0  0  0  0  0  0  0
   35.8690   29.0310   33.8580 N   0  0  0  0  0  0  0  0  0  0  0  0
   36.4380   28.3790   32.8560 C   0  0  0  0  0  0  0  0  0  0  0  0
   36.6220   29.0290   31.6810 N   0  0  0  0  0  0  0  0  0  0  0  0
   36.3680   30.8340   30.6240 H   0  0  0  0  0  0  0  0  0  0  0  0
   35.2910   32.0240   32.5600 H   0  0  0  0  0  0  0  0  0  0  0  0
   36.7320   31.7840   35.9580 F   0  0  0  0  0  0  0  0  0  0  0  0
   35.4230   31.5790   36.0070 C   0  0  0  0  0  0  0  0  0  0  0  0
   34.8360   30.9000   34.9930 C   0  0  0  0  0  0  0  0  0  0  0  0
   33.4570   30.7440   35.1480 C   0  0  0  0  0  0  0  0  0  0  0  0
   32.7720   31.2330   36.2250 C   0  0  0  0  0  0  0  0  0  0  0  0
   33.4040   31.9110   37.2250 C   0  0  0  0  0  0  0  0  0  0  0  0
   34.7510   32.0830   37.1060 C   0  0  0  0  0  0  0  0  0  0  0  0
   32.8470   30.2130   34.4020 H   0  0  0  0  0  0  0  0  0  0  0  0
   31.6940   31.0940   36.3160 H   0  0  0  0  0  0  0  0  0  0  0  0
   32.8380   32.2880   38.0670 H   0  0  0  0  0  0  0  0  0  0  0  0
   35.2810   32.6160   37.8800 H   0  0  0  0  0  0  0  0  0  0  0  0
  1  3  1  0  0  0  0
  1 24  1  0  0  0  0
  2  1  1  0  0  0  0
  4  6  1  0  0  0  0
  4  1  1  0  0  0  0
  4  7  1  0  0  0  0
  5  4  1  0  0  0  0
  7 12  1  0  0  0  0
  8  7  2  0  0  0  0
  8  9  1  0  0  0  0
  9 10  2  0  0  0  0
 10 11  1  0  0  0  0
 11 17  1  0  0  0  0
 12 11  2  0  0  0  0
 13  8  1  0  0  0  0
 14  9  1  0  0  0  0
 15 16  1  0  0  0  0
 16 17  2  0  0  0  0
 16 23  1  0  0  0  0
 17 18  1  0  0  0  0
 18 19  1  0  0  0  0
 18 20  2  0  0  0  0
 20 21  1  0  0  0  0
 22 20  1  0  0  0  0
 23 22  2  0  0  0  0
 25 30  2  0  0  0  0
 25 26  1  0  0  0  0
 26 27  2  0  0  0  0
 27 28  1  0  0  0  0
 27 35  1  0  0  0  0
 29 24  1  0  0  0  0
 29 28  2  0  0  0  0
 30 29  1  0  0  0  0
 31 25  1  0  0  0  0
 32 26  1  0  0  0  0
 33 34  1  0  0  0  0
 34 39  1  0  0  0  0
 35 36  1  0  0  0  0
 35 34  2  0  0  0  0
 36 37  2  0  0  0  0
 37 41  1  0  0  0  0
 37 38  1  0  0  0  0
 38 42  1  0  0  0  0
 39 38  2  0  0  0  0
 39 43  1  0  0  0  0
 40 36  1  0  0  0  0
M  END
>  <minimizedAffinity>
-6.46657562

$$$$

 OpenBabel03272509563D

 43 46  0  0  0  0  0  0  0  0999 V2000
   42.5040   22.7230   36.7760 C   0  0  0  0  0  0  0  0  0  0  0  0
   42.1370   23.6780   37.2060 H   0  0  0  0  0  0  0  0  0  0  0  0
   43.3830   22.4080   37.3790 H   0  0  0  0  0  0  0  0  0  0  0  0
   42.8330   22.9680   35.3390 C   0  0  0  0  0  0  0  0  0  0  0  0
   42.3800   22.2540   34.6360 H   0  0  0  0  0  0  0  0  0  0  0  0
   43.9420   22.8630   35.1870 H   0  0  0  0  0  0  0  0  0  0  0  0
   42.4870   24.3480   34.8990 C   0  0  0  0  0  0  0  0  0  0  0  0
   43.5100   25.1830   34.4920 C   0  0  0  0  0  0  0  0  0  0  0  0
   43.2740   26.4590   34.0760 C   0  0  0  0  0  0  0  0  0  0  0  0
   42.0410   26.9240   34.0550 N   0  0  0  0  0  0  0  0  0  0  0  0
   41.0200   26.1090   34.4550 C   0  0  0  0  0  0  0  0  0  0  0  0
   41.2180   24.8340   34.8750 N   0  0  0  0  0  0  0  0  0  0  0  0
   44.5250   24.8110   34.5050 H   0  0  0  0  0  0  0  0  0  0  0  0
   44.1190   27.0860   33.7610 H   0  0  0  0  0  0  0  0  0  0  0  0
   39.6780   25.7010   31.6930 Br  0  0  0  0  0  0  0  0  0  0  0  0
   38.8990   26.4850   33.2630 C   0  0  0  0  0  0  0  0  0  0  0  0
   39.6400   26.5990   34.4430 C   0  0  0  0  0  0  0  0  0  0  0  0
   39.0490   27.1660   35.5470 C   0  0  0  0  0  0  0  0  0  0  0  0
   39.6030   27.2630   36.4680 H   0  0  0  0  0  0  0  0  0  0  0  0
   37.7500   27.6270   35.5320 C   0  0  0  0  0  0  0  0  0  0  0  0
   37.2980   28.0670   36.4000 H   0  0  0  0  0  0  0  0  0  0  0  0
   37.0620   27.4920   34.3470 C   0  0  0  0  0  3  0  0  0  0  0  0
   37.5770   26.9350   33.1910 C   0  0  0  0  0  3  0  0  0  0  0  0
   41.4350   21.8070   36.8900 O   0  0  0  0  0  0  0  0  0  0  0  0
   38.4140   23.3870   38.0860 C   0  0  0  0  0  0  0  0  0  0  0  0
   37.5390   23.1230   37.0070 C   0  0  0  0  0  0  0  0  0  0  0  0
   38.0580   22.4100   35.9310 C   0  0  0  0  0  0  0  0  0  0  0  0
   39.3750   22.0330   36.0240 N   0  0  0  0  0  0  0  0  0  0  0  0
   40.1690   22.2970   37.0500 C   0  0  0  0  0  0  0  0  0  0  0  0
   39.6650   22.9900   38.1000 N   0  0  0  0  0  0  0  0  0  0  0  0
   37.9710   23.9470   38.9090 H   0  0  0  0  0  0  0  0  0  0  0  0
   36.5070   23.4190   36.9340 H   0  0  0  0  0  0  0  0  0  0  0  0
   35.8740   20.5220   35.6790 F   0  0  0  0  0  0  0  0  0  0  0  0
   36.3050   21.1640   34.6020 C   0  0  0  0  0  0  0  0  0  0  0  0
   37.3260   22.0430   34.7380 C   0  0  0  0  0  0  0  0  0  0  0  0
   37.6980   22.6600   33.5410 C   0  0  0  0  0  0  0  0  0  0  0  0
   37.0840   22.3960   32.3500 C   0  0  0  0  0  0  0  0  0  0  0  0
   36.0580   21.5020   32.2580 C   0  0  0  0  0  0  0  0  0  0  0  0
   35.6690   20.8810   33.4070 C   0  0  0  0  0  0  0  0  0  0  0  0
   38.5130   23.3980   33.4990 H   0  0  0  0  0  0  0  0  0  0  0  0
   37.3970   22.8960   31.4320 H   0  0  0  0  0  0  0  0  0  0  0  0
   35.5880   21.3120   31.3020 H   0  0  0  0  0  0  0  0  0  0  0  0
   34.8600   20.1680   33.3690 H   0  0  0  0  0  0  0  0  0  0  0  0
  1 24  1  0  0  0  0
  1  2  1  0  0  0  0
  1  3  1  0  0  0  0
  4  1  1  0  0  0  0
  5  4  1  0  0  0  0
  6  4  1  0  0  0  0
  7  4  1  0  0  0  0
  8 13  1  0  0  0  0
  8  7  2  0  0  0  0
  9  8  1  0  0  0  0
 10  9  2  0  0  0  0
 10 11  1  0  0  0  0
 11 12  2  0  0  0  0
 12  7  1  0  0  0  0
 14  9  1  0  0  0  0
 15 16  1  0  0  0  0
 16 17  1  0  0  0  0
 17 11  1  0  0  0  0
 17 18  2  0  0  0  0
 18 19  1  0  0  0  0
 20 18  1  0  0  0  0
 20 21  1  0  0  0  0
 22 20  2  0  0  0  0
 23 16  2  0  0  0  0
 23 22  1  0  0  0  0
 24 29  1  0  0  0  0
 25 30  1  0  0  0  0
 25 31  1  0  0  0  0
 26 25  2  0  0  0  0
 27 28  2  0  0  0  0
 27 26  1  0  0  0  0
 28 29  1  0  0  0  0
 29 30  2  0  0  0  0
 32 26  1  0  0  0  0
 34 35  1  0  0  0  0
 34 33  1  0  0  0  0
 35 27  1  0  0  0  0
 36 35  2  0  0  0  0
 37 36  1  0  0  0  0
 38 37  2  0  0  0  0
 38 39  1  0  0  0  0
 39 34  2  0  0  0  0
 40 36  1  0  0  0  0
 41 37  1  0  0  0  0
 42 38  1  0  0  0  0
 43 39  1  0  0  0  0
M  END
>  <minimizedAffinity>
-6.40398693

$$$$

 OpenBabel03272509563D

 43 46  0  0  0  0  0  0  0  0999 V2000
   42.3690   23.0880   36.7550 C   0  0  0  0  0  0  0  0  0  0  0  0
   43.3610   22.7520   37.1180 H   0  0  0  0  0  0  0  0  0  0  0  0
   42.1370   24.0450   37.2690 H   0  0  0  0  0  0  0  0  0  0  0  0
   41.3830   22.0040   37.0570 C   0  0  0  0  0  0  0  0  0  0  0  0
   41.4420   21.6030   38.0790 H   0  0  0  0  0  0  0  0  0  0  0  0
   41.5790   21.1240   36.3860 H   0  0  0  0  0  0  0  0  0  0  0  0
   39.9780   22.4180   36.7920 C   0  0  0  0  0  0  0  0  0  0  0  0
   39.4220   23.4030   37.5890 C   0  0  0  0  0  0  0  0  0  0  0  0
   38.1430   23.8360   37.4100 C   0  0  0  0  0  0  0  0  0  0  0  0
   37.4020   23.3110   36.4550 N   0  0  0  0  0  0  0  0  0  0  0  0
   37.9380   22.3370   35.6600 C   0  0  0  0  0  0  0  0  0  0  0  0
   39.2080   21.8820   35.8090 N   0  0  0  0  0  0  0  0  0  0  0  0
   40.0230   23.8390   38.3750 H   0  0  0  0  0  0  0  0  0  0  0  0
   37.7450   24.6200   38.0670 H   0  0  0  0  0  0  0  0  0  0  0  0
   38.7380   23.4250   32.8720 Br  0  0  0  0  0  0  0  0  0  0  0  0
   37.3800   22.1280   33.2710 C   0  0  0  0  0  0  0  0  0  0  0  0
   37.1370   21.7360   34.5910 C   0  0  0  0  0  0  0  0  0  0  0  0
   36.1570   20.8050   34.8390 C   0  0  0  0  0  0  0  0  0  0  0  0
   35.9530   20.4900   35.8510 H   0  0  0  0  0  0  0  0  0  0  0  0
   35.4040   20.2420   33.8310 C   0  0  0  0  0  0  0  0  0  0  0  0
   34.6420   19.5160   34.0350 H   0  0  0  0  0  0  0  0  0  0  0  0
   35.6820   20.6590   32.5480 C   0  0  0  0  0  3  0  0  0  0  0  0
   36.6480   21.5880   32.2090 C   0  0  0  0  0  3  0  0  0  0  0  0
   42.5020   23.2600   35.3590 O   0  0  0  0  0  0  0  0  0  0  0  0
   43.4610   26.4630   33.9900 C   0  0  0  0  0  0  0  0  0  0  0  0
   42.1980   27.0930   33.8960 C   0  0  0  0  0  0  0  0  0  0  0  0
   41.0930   26.3610   34.3160 C   0  0  0  0  0  0  0  0  0  0  0  0
   41.3390   25.0930   34.7820 N   0  0  0  0  0  0  0  0  0  0  0  0
   42.5350   24.5310   34.8570 C   0  0  0  0  0  0  0  0  0  0  0  0
   43.6130   25.2430   34.4490 N   0  0  0  0  0  0  0  0  0  0  0  0
   44.3020   27.0680   33.6520 H   0  0  0  0  0  0  0  0  0  0  0  0
   42.0060   28.0870   33.5300 H   0  0  0  0  0  0  0  0  0  0  0  0
   39.4250   26.9350   32.0170 F   0  0  0  0  0  0  0  0  0  0  0  0
   38.9300   27.1000   33.2350 C   0  0  0  0  0  0  0  0  0  0  0  0
   39.7230   26.8270   34.2980 C   0  0  0  0  0  0  0  0  0  0  0  0
   39.1000   27.0360   35.5310 C   0  0  0  0  0  0  0  0  0  0  0  0
   37.8110   27.4750   35.6450 C   0  0  0  0  0  0  0  0  0  0  0  0
   37.0470   27.7390   34.5460 C   0  0  0  0  0  0  0  0  0  0  0  0
   37.6240   27.5450   33.3260 C   0  0  0  0  0  0  0  0  0  0  0  0
   39.6220   26.8550   36.4820 H   0  0  0  0  0  0  0  0  0  0  0  0
   37.3530   27.6280   36.6230 H   0  0  0  0  0  0  0  0  0  0  0  0
   36.0290   28.0860   34.6630 H   0  0  0  0  0  0  0  0  0  0  0  0
   37.0460   27.7450   32.4360 H   0  0  0  0  0  0  0  0  0  0  0  0
  1  4  1  0  0  0  0
  1  2  1  0  0  0  0
  1  3  1  0  0  0  0
  4  5  1  0  0  0  0
  6  4  1  0  0  0  0
  7  4  1  0  0  0  0
  7  8  1  0  0  0  0
  8 13  1  0  0  0  0
  9  8  2  0  0  0  0
  9 14  1  0  0  0  0
 10  9  1  0  0  0  0
 11 12  1  0  0  0  0
 11 10  2  0  0  0  0
 12  7  2  0  0  0  0
 15 16  1  0  0  0  0
 16 17  1  0  0  0  0
 17 18  2  0  0  0  0
 17 11  1  0  0  0  0
 18 19  1  0  0  0  0
 20 21  1  0  0  0  0
 20 18  1  0  0  0  0
 22 20  2  0  0  0  0
 23 22  1  0  0  0  0
 23 16  2  0  0  0  0
 24  1  1  0  0  0  0
 25 30  1  0  0  0  0
 26 25  2  0  0  0  0
 26 27  1  0  0  0  0
 27 28  2  0  0  0  0
 28 29  1  0  0  0  0
 29 24  1  0  0  0  0
 30 29  2  0  0  0  0
 31 25  1  0  0  0  0
 32 26  1  0  0  0  0
 33 34  1  0  0  0  0
 34 39  2  0  0  0  0
 34 35  1  0  0  0  0
 35 27  1  0  0  0  0
 35 36  2  0  0  0  0
 36 37  1  0  0  0  0
 36 40  1  0  0  0  0
 37 41  1  0  0  0  0
 38 42  1  0  0  0  0
 38 37  2  0  0  0  0
 39 38  1  0  0  0  0
 43 39  1  0  0  0  0
M  END
>  <minimizedAffinity>
-6.34014034

$$$$

 OpenBabel03272509563D

 43 46  0  0  0  0  0  0  0  0999 V2000
   38.4470   26.7210   34.3710 C   0  0  0  0  0  0  0  0  0  0  0  0
   39.4660   26.8090   34.8000 H   0  0  0  0  0  0  0  0  0  0  0  0
   38.1010   27.7500   34.1320 H   0  0  0  0  0  0  0  0  0  0  0  0
   37.5860   26.0310   35.3800 C   0  0  0  0  0  0  0  0  0  0  0  0
   36.6360   25.6430   34.9860 H   0  0  0  0  0  0  0  0  0  0  0  0
   37.2930   26.7620   36.1820 H   0  0  0  0  0  0  0  0  0  0  0  0
   38.2960   24.9230   36.0760 C   0  0  0  0  0  0  0  0  0  0  0  0
   37.7310   24.4000   37.2250 C   0  0  0  0  0  0  0  0  0  0  0  0
   38.3200   23.3850   37.9180 C   0  0  0  0  0  0  0  0  0  0  0  0
   39.4590   22.8770   37.4940 N   0  0  0  0  0  0  0  0  0  0  0  0
   40.0290   23.3850   36.3600 C   0  0  0  0  0  0  0  0  0  0  0  0
   39.4720   24.3940   35.6450 N   0  0  0  0  0  0  0  0  0  0  0  0
   36.7960   24.8100   37.5800 H   0  0  0  0  0  0  0  0  0  0  0  0
   37.8340   23.0020   38.8240 H   0  0  0  0  0  0  0  0  0  0  0  0
   39.6560   21.8210   33.7120 Br  0  0  0  0  0  0  0  0  0  0  0  0
   41.2910   22.1050   34.6760 C   0  0  0  0  0  0  0  0  0  0  0  0
   41.2960   22.8390   35.8670 C   0  0  0  0  0  0  0  0  0  0  0  0
   42.4860   23.0230   36.5300 C   0  0  0  0  0  0  0  0  0  0  0  0
   42.5110   23.5860   37.4500 H   0  0  0  0  0  0  0  0  0  0  0  0
   43.6760   22.5080   36.0630 C   0  0  0  0  0  0  0  0  0  0  0  0
   44.5990   22.6570   36.5880 H   0  0  0  0  0  0  0  0  0  0  0  0
   43.6190   21.7930   34.8870 C   0  0  0  0  0  3  0  0  0  0  0  0
   42.4690   21.5610   34.1560 C   0  0  0  0  0  3  0  0  0  0  0  0
   38.5790   25.9280   33.2090 O   0  0  0  0  0  0  0  0  0  0  0  0
   35.5390   26.0440   31.2600 C   0  0  0  0  0  0  0  0  0  0  0  0
   35.2940   24.6630   31.0810 C   0  0  0  0  0  0  0  0  0  0  0  0
   36.2040   23.7790   31.6510 C   0  0  0  0  0  0  0  0  0  0  0  0
   37.2550   24.3380   32.3340 N   0  0  0  0  0  0  0  0  0  0  0  0
   37.4570   25.6380   32.4840 C   0  0  0  0  0  0  0  0  0  0  0  0
   36.5710   26.5010   31.9300 N   0  0  0  0  0  0  0  0  0  0  0  0
   34.8040   26.7040   30.8000 H   0  0  0  0  0  0  0  0  0  0  0  0
   34.4700   24.2250   30.5440 H   0  0  0  0  0  0  0  0  0  0  0  0
   38.0000   21.9570   30.2910 F   0  0  0  0  0  0  0  0  0  0  0  0
   36.9570   21.4710   30.9480 C   0  0  0  0  0  0  0  0  0  0  0  0
   36.1280   22.3360   31.5780 C   0  0  0  0  0  0  0  0  0  0  0  0
   35.0650   21.7150   32.2370 C   0  0  0  0  0  0  0  0  0  0  0  0
   34.8860   20.3600   32.2410 C   0  0  0  0  0  0  0  0  0  0  0  0
   35.7460   19.5240   31.5920 C   0  0  0  0  0  0  0  0  0  0  0  0
   36.7960   20.0960   30.9380 C   0  0  0  0  0  0  0  0  0  0  0  0
   34.3120   22.2920   32.7930 H   0  0  0  0  0  0  0  0  0  0  0  0
   34.0450   19.9060   32.7670 H   0  0  0  0  0  0  0  0  0  0  0  0
   35.5810   18.4550   31.6110 H   0  0  0  0  0  0  0  0  0  0  0  0
   37.4950   19.4630   30.4150 H   0  0  0  0  0  0  0  0  0  0  0  0
  1  2  1  0  0  0  0
  1  4  1  0  0  0  0
  3  1  1  0  0  0  0
  4  7  1  0  0  0  0
  4  6  1  0  0  0  0
  5  4  1  0  0  0  0
  7  8  1  0  0  0  0
  8 13  1  0  0  0  0
  8  9  2  0  0  0  0
  9 14  1  0  0  0  0
 10  9  1  0  0  0  0
 11 10  2  0  0  0  0
 12  7  2  0  0  0  0
 12 11  1  0  0  0  0
 15 16  1  0  0  0  0
 16 17  1  0  0  0  0
 17 11  1  0  0  0  0
 17 18  2  0  0  0  0
 18 19  1  0  0  0  0
 20 18  1  0  0  0  0
 20 21  1  0  0  0  0
 22 20  2  0  0  0  0
 23 16  2  0  0  0  0
 23 22  1  0  0  0  0
 24  1  1  0  0  0  0
 25 30  1  0  0  0  0
 26 25  2  0  0  0  0
 26 27  1  0  0  0  0
 27 28  2  0  0  0  0
 28 29  1  0  0  0  0
 29 24  1  0  0  0  0
 30 29  2  0  0  0  0
 31 25  1  0  0  0  0
 32 26  1  0  0  0  0
 33 34  1  0  0  0  0
 34 35  1  0  0  0  0
 35 27  1  0  0  0  0
 35 36  2  0  0  0  0
 36 37  1  0  0  0  0
 36 40  1  0  0  0  0
 37 41  1  0  0  0  0
 38 42  1  0  0  0  0
 38 37  2  0  0  0  0
 39 34  2  0  0  0  0
 39 38  1  0  0  0  0
 43 39  1  0  0  0  0
M  END
>  <minimizedAffinity>
-6.27985525

$$$$
