
 OpenBabel03262520183D

 18 19  0  0  0  0  0  0  0  0999 V2000
   36.3700   27.9950   32.7160 C   0  0  0  0  0  0  0  0  0  0  0  0
   35.9180   28.6720   33.8560 C   0  0  0  0  0  0  0  0  0  0  0  0
   35.3240   29.9290   33.7710 C   0  0  0  0  0  0  0  0  0  0  0  0
   35.2200   30.4430   32.5180 N   0  0  0  0  0  0  0  0  0  0  0  0
   35.6560   29.7900   31.4260 C   0  0  0  0  0  0  0  0  0  0  0  0
   36.2240   28.5820   31.5230 N   0  0  0  0  0  0  0  0  0  0  0  0
   36.8290   27.0180   32.7990 H   0  0  0  0  0  0  0  0  0  0  0  0
   36.0410   28.1890   34.8080 H   0  0  0  0  0  0  0  0  0  0  0  0
   35.4880   30.3570   30.5040 H   0  0  0  0  0  0  0  0  0  0  0  0
   32.3580   29.4320   34.1970 Br  0  0  0  0  0  0  0  0  0  0  0  0
   33.5100   30.5210   35.2680 C   0  0  0  0  0  0  0  0  0  0  0  0
   34.8460   30.6510   34.9460 C   0  0  0  0  0  0  0  0  0  0  0  0
   35.6290   31.4490   35.7520 C   0  0  0  0  0  0  0  0  0  0  0  0
   36.6690   31.5600   35.5140 H   0  0  0  0  0  0  0  0  0  0  0  0
   35.0780   32.0910   36.8450 C   0  0  0  0  0  0  0  0  0  0  0  0
   35.7070   32.7200   37.4750 H   0  0  0  0  0  0  0  0  0  0  0  0
   33.7250   31.9620   37.1740 C   0  0  0  0  0  3  0  0  0  0  0  0
   32.9440   31.1560   36.3550 C   0  0  0  0  0  3  0  0  0  0  0  0
  1  7  1  0  0  0  0
  1  2  1  0  0  0  0
  2  8  1  0  0  0  0
  3  2  2  0  0  0  0
  3 12  1  0  0  0  0
  4  3  1  0  0  0  0
  5  6  1  0  0  0  0
  5  4  2  0  0  0  0
  6  1  2  0  0  0  0
  9  5  1  0  0  0  0
 10 11  1  0  0  0  0
 11 18  1  0  0  0  0
 12 11  2  0  0  0  0
 12 13  1  0  0  0  0
 13 15  2  0  0  0  0
 14 13  1  0  0  0  0
 15 17  1  0  0  0  0
 15 16  1  0  0  0  0
 18 17  2  0  0  0  0
M  END
>  <minimizedAffinity>
-4.01895857

$$$$

 OpenBabel03262520183D

 18 19  0  0  0  0  0  0  0  0999 V2000
   39.0930   27.0520   33.2390 C   0  0  0  0  0  0  0  0  0  0  0  0
   39.2060   26.4380   34.4930 C   0  0  0  0  0  0  0  0  0  0  0  0
   38.5730   25.2280   34.7730 C   0  0  0  0  0  0  0  0  0  0  0  0
   37.8470   24.6990   33.7550 N   0  0  0  0  0  0  0  0  0  0  0  0
   37.7410   25.2920   32.5520 C   0  0  0  0  0  0  0  0  0  0  0  0
   38.3560   26.4530   32.2970 N   0  0  0  0  0  0  0  0  0  0  0  0
   39.5930   27.9910   33.0360 H   0  0  0  0  0  0  0  0  0  0  0  0
   39.8020   26.9280   35.2410 H   0  0  0  0  0  0  0  0  0  0  0  0
   37.1170   24.7210   31.8570 H   0  0  0  0  0  0  0  0  0  0  0  0
   40.7490   23.1110   34.7280 Br  0  0  0  0  0  0  0  0  0  0  0  0
   39.6290   23.5810   36.2050 C   0  0  0  0  0  0  0  0  0  0  0  0
   38.6770   24.5720   36.0720 C   0  0  0  0  0  0  0  0  0  0  0  0
   37.8970   24.8690   37.1690 C   0  0  0  0  0  0  0  0  0  0  0  0
   37.1530   25.6370   37.0810 H   0  0  0  0  0  0  0  0  0  0  0  0
   38.0770   24.1870   38.3580 C   0  0  0  0  0  0  0  0  0  0  0  0
   37.4540   24.4300   39.2190 H   0  0  0  0  0  0  0  0  0  0  0  0
   39.0390   23.1830   38.4960 C   0  0  0  0  0  3  0  0  0  0  0  0
   39.8200   22.8900   37.3850 C   0  0  0  0  0  3  0  0  0  0  0  0
  1  2  1  0  0  0  0
  2  3  2  0  0  0  0
  2  8  1  0  0  0  0
  3 12  1  0  0  0  0
  4  3  1  0  0  0  0
  5  4  2  0  0  0  0
  6  5  1  0  0  0  0
  6  1  2  0  0  0  0
  7  1  1  0  0  0  0
  9  5  1  0  0  0  0
 10 11  1  0  0  0  0
 11 18  1  0  0  0  0
 12 11  2  0  0  0  0
 12 13  1  0  0  0  0
 13 15  2  0  0  0  0
 14 13  1  0  0  0  0
 15 17  1  0  0  0  0
 15 16  1  0  0  0  0
 18 17  2  0  0  0  0
M  END
>  <minimizedAffinity>
-3.96695042

$$$$

 OpenBabel03262520183D

 18 19  0  0  0  0  0  0  0  0999 V2000
   35.6690   25.8470   31.2250 C   0  0  0  0  0  0  0  0  0  0  0  0
   35.4940   24.4650   31.0800 C   0  0  0  0  0  0  0  0  0  0  0  0
   36.2180   23.5540   31.8460 C   0  0  0  0  0  0  0  0  0  0  0  0
   37.0930   24.0980   32.7290 N   0  0  0  0  0  0  0  0  0  0  0  0
   37.2580   25.4260   32.8660 C   0  0  0  0  0  0  0  0  0  0  0  0
   36.5560   26.2900   32.1230 N   0  0  0  0  0  0  0  0  0  0  0  0
   35.0980   26.5430   30.6230 H   0  0  0  0  0  0  0  0  0  0  0  0
   34.7780   24.1230   30.3550 H   0  0  0  0  0  0  0  0  0  0  0  0
   38.0050   25.6800   33.6250 H   0  0  0  0  0  0  0  0  0  0  0  0
   38.5370   22.3510   30.2980 Br  0  0  0  0  0  0  0  0  0  0  0  0
   37.0330   21.4210   31.0270 C   0  0  0  0  0  0  0  0  0  0  0  0
   36.0510   22.1100   31.7100 C   0  0  0  0  0  0  0  0  0  0  0  0
   34.9900   21.3900   32.2140 C   0  0  0  0  0  0  0  0  0  0  0  0
   34.2190   21.9110   32.7480 H   0  0  0  0  0  0  0  0  0  0  0  0
   34.9260   20.0210   32.0310 C   0  0  0  0  0  0  0  0  0  0  0  0
   34.0810   19.4620   32.4330 H   0  0  0  0  0  0  0  0  0  0  0  0
   35.9180   19.3200   31.3390 C   0  0  0  0  0  3  0  0  0  0  0  0
   36.9840   20.0550   30.8350 C   0  0  0  0  0  3  0  0  0  0  0  0
  1  6  1  0  0  0  0
  2  1  2  0  0  0  0
  2  3  1  0  0  0  0
  3  4  2  0  0  0  0
  4  5  1  0  0  0  0
  5  9  1  0  0  0  0
  6  5  2  0  0  0  0
  7  1  1  0  0  0  0
  8  2  1  0  0  0  0
 10 11  1  0  0  0  0
 11 12  1  0  0  0  0
 12  3  1  0  0  0  0
 12 13  2  0  0  0  0
 13 14  1  0  0  0  0
 15 13  1  0  0  0  0
 15 16  1  0  0  0  0
 17 15  2  0  0  0  0
 18 11  2  0  0  0  0
 18 17  1  0  0  0  0
M  END
>  <minimizedAffinity>
-3.94588494

$$$$

 OpenBabel03262520183D

 18 19  0  0  0  0  0  0  0  0999 V2000
   37.8980   27.4990   35.2950 C   0  0  0  0  0  0  0  0  0  0  0  0
   38.8100   26.5570   35.7880 C   0  0  0  0  0  0  0  0  0  0  0  0
   38.9430   25.2970   35.2080 C   0  0  0  0  0  0  0  0  0  0  0  0
   38.1330   25.0540   34.1460 N   0  0  0  0  0  0  0  0  0  0  0  0
   37.2590   25.9610   33.6750 C   0  0  0  0  0  0  0  0  0  0  0  0
   37.1420   27.1680   34.2420 N   0  0  0  0  0  0  0  0  0  0  0  0
   37.8070   28.4740   35.7560 H   0  0  0  0  0  0  0  0  0  0  0  0
   39.4110   26.8350   36.6340 H   0  0  0  0  0  0  0  0  0  0  0  0
   36.6930   25.5900   32.8150 H   0  0  0  0  0  0  0  0  0  0  0  0
   37.6320   23.5410   37.3110 Br  0  0  0  0  0  0  0  0  0  0  0  0
   39.4310   23.4260   36.6720 C   0  0  0  0  0  0  0  0  0  0  0  0
   39.8870   24.3010   35.7070 C   0  0  0  0  0  0  0  0  0  0  0  0
   41.1920   24.1730   35.2840 C   0  0  0  0  0  0  0  0  0  0  0  0
   41.5600   24.8450   34.5330 H   0  0  0  0  0  0  0  0  0  0  0  0
   42.0060   23.1930   35.8200 C   0  0  0  0  0  0  0  0  0  0  0  0
   43.0370   23.1010   35.4780 H   0  0  0  0  0  0  0  0  0  0  0  0
   41.5490   22.3050   36.7980 C   0  0  0  0  0  3  0  0  0  0  0  0
   40.2320   22.4430   37.2180 C   0  0  0  0  0  3  0  0  0  0  0  0
  1  7  1  0  0  0  0
  1  2  1  0  0  0  0
  2  8  1  0  0  0  0
  3 12  1  0  0  0  0
  3  2  2  0  0  0  0
  4  3  1  0  0  0  0
  5  4  2  0  0  0  0
  5  6  1  0  0  0  0
  6  1  2  0  0  0  0
  9  5  1  0  0  0  0
 11 18  1  0  0  0  0
 11 10  1  0  0  0  0
 12 11  2  0  0  0  0
 13 12  1  0  0  0  0
 13 15  2  0  0  0  0
 14 13  1  0  0  0  0
 15 17  1  0  0  0  0
 16 15  1  0  0  0  0
 17 18  2  0  0  0  0
M  END
>  <minimizedAffinity>
-3.94010639

$$$$

 OpenBabel03262520183D

 18 19  0  0  0  0  0  0  0  0999 V2000
   40.0390   23.0000   37.2070 C   0  0  0  0  0  0  0  0  0  0  0  0
   39.7200   23.5260   35.9490 C   0  0  0  0  0  0  0  0  0  0  0  0
   38.4890   24.1300   35.7010 C   0  0  0  0  0  0  0  0  0  0  0  0
   37.6340   24.1670   36.7540 N   0  0  0  0  0  0  0  0  0  0  0  0
   37.9430   23.6610   37.9610 C   0  0  0  0  0  0  0  0  0  0  0  0
   39.1300   23.0840   38.1850 N   0  0  0  0  0  0  0  0  0  0  0  0
   41.0010   22.5350   37.3840 H   0  0  0  0  0  0  0  0  0  0  0  0
   40.4590   23.4520   35.1720 H   0  0  0  0  0  0  0  0  0  0  0  0
   37.1330   23.7820   38.6870 H   0  0  0  0  0  0  0  0  0  0  0  0
   38.6940   27.1590   35.7370 Br  0  0  0  0  0  0  0  0  0  0  0  0
   38.1850   26.0570   34.2600 C   0  0  0  0  0  0  0  0  0  0  0  0
   38.1370   24.6840   34.3970 C   0  0  0  0  0  0  0  0  0  0  0  0
   37.7620   23.9380   33.3000 C   0  0  0  0  0  0  0  0  0  0  0  0
   37.7210   22.8700   33.3910 H   0  0  0  0  0  0  0  0  0  0  0  0
   37.4480   24.5620   32.1070 C   0  0  0  0  0  0  0  0  0  0  0  0
   37.1520   23.9620   31.2460 H   0  0  0  0  0  0  0  0  0  0  0  0
   37.4950   25.9520   31.9640 C   0  0  0  0  0  3  0  0  0  0  0  0
   37.8730   26.6940   33.0760 C   0  0  0  0  0  3  0  0  0  0  0  0
  1  7  1  0  0  0  0
  1  6  1  0  0  0  0
  2  1  2  0  0  0  0
  3  2  1  0  0  0  0
  3  4  2  0  0  0  0
  4  5  1  0  0  0  0
  5  6  2  0  0  0  0
  5  9  1  0  0  0  0
  8  2  1  0  0  0  0
 11 12  1  0  0  0  0
 11 10  1  0  0  0  0
 12  3  1  0  0  0  0
 13 14  1  0  0  0  0
 13 12  2  0  0  0  0
 15 13  1  0  0  0  0
 16 15  1  0  0  0  0
 17 15  2  0  0  0  0
 17 18  1  0  0  0  0
 18 11  2  0  0  0  0
M  END
>  <minimizedAffinity>
-3.91761732

$$$$

 OpenBabel03262520183D

 18 19  0  0  0  0  0  0  0  0999 V2000
   39.6950   22.6300   37.2460 C   0  0  0  0  0  0  0  0  0  0  0  0
   38.8950   23.6730   36.7620 C   0  0  0  0  0  0  0  0  0  0  0  0
   39.3710   24.5790   35.8160 C   0  0  0  0  0  0  0  0  0  0  0  0
   40.6490   24.3790   35.4050 N   0  0  0  0  0  0  0  0  0  0  0  0
   41.4140   23.3760   35.8720 C   0  0  0  0  0  0  0  0  0  0  0  0
   40.9440   22.5120   36.7800 N   0  0  0  0  0  0  0  0  0  0  0  0
   39.3110   21.9340   37.9800 H   0  0  0  0  0  0  0  0  0  0  0  0
   37.8940   23.7570   37.1430 H   0  0  0  0  0  0  0  0  0  0  0  0
   42.4150   23.3700   35.4270 H   0  0  0  0  0  0  0  0  0  0  0  0
   37.9990   23.7610   33.2320 Br  0  0  0  0  0  0  0  0  0  0  0  0
   37.8660   25.4480   34.1240 C   0  0  0  0  0  0  0  0  0  0  0  0
   38.5540   25.6730   35.2990 C   0  0  0  0  0  0  0  0  0  0  0  0
   38.4210   26.9070   35.8980 C   0  0  0  0  0  0  0  0  0  0  0  0
   38.9490   27.0970   36.8130 H   0  0  0  0  0  0  0  0  0  0  0  0
   37.6200   27.8770   35.3260 C   0  0  0  0  0  0  0  0  0  0  0  0
   37.5230   28.8500   35.8090 H   0  0  0  0  0  0  0  0  0  0  0  0
   36.9230   27.6540   34.1360 C   0  0  0  0  0  3  0  0  0  0  0  0
   37.0630   26.4070   33.5400 C   0  0  0  0  0  3  0  0  0  0  0  0
  1  7  1  0  0  0  0
  2  8  1  0  0  0  0
  2  1  2  0  0  0  0
  3  2  1  0  0  0  0
  4  3  2  0  0  0  0
  4  5  1  0  0  0  0
  5  6  2  0  0  0  0
  6  1  1  0  0  0  0
  9  5  1  0  0  0  0
 10 11  1  0  0  0  0
 11 12  1  0  0  0  0
 12  3  1  0  0  0  0
 12 13  2  0  0  0  0
 13 14  1  0  0  0  0
 15 16  1  0  0  0  0
 15 13  1  0  0  0  0
 17 15  2  0  0  0  0
 18 11  2  0  0  0  0
 18 17  1  0  0  0  0
M  END
>  <minimizedAffinity>
-3.87433457

$$$$

 OpenBabel03262520183D

 18 19  0  0  0  0  0  0  0  0999 V2000
   35.2110   32.1250   36.5390 C   0  0  0  0  0  0  0  0  0  0  0  0
   35.8680   31.2700   35.6460 C   0  0  0  0  0  0  0  0  0  0  0  0
   35.1720   30.3260   34.8940 C   0  0  0  0  0  0  0  0  0  0  0  0
   33.8290   30.2980   35.0890 N   0  0  0  0  0  0  0  0  0  0  0  0
   33.2010   31.1220   35.9470 C   0  0  0  0  0  0  0  0  0  0  0  0
   33.8820   32.0240   36.6630 N   0  0  0  0  0  0  0  0  0  0  0  0
   35.7660   32.8540   37.1170 H   0  0  0  0  0  0  0  0  0  0  0  0
   36.9350   31.3610   35.5560 H   0  0  0  0  0  0  0  0  0  0  0  0
   32.1190   30.9560   35.9720 H   0  0  0  0  0  0  0  0  0  0  0  0
   35.1140   31.4710   32.0810 Br  0  0  0  0  0  0  0  0  0  0  0  0
   35.8910   29.8140   32.6340 C   0  0  0  0  0  0  0  0  0  0  0  0
   35.8370   29.4250   33.9580 C   0  0  0  0  0  0  0  0  0  0  0  0
   36.4130   28.2200   34.3000 C   0  0  0  0  0  0  0  0  0  0  0  0
   36.3790   27.9040   35.3250 H   0  0  0  0  0  0  0  0  0  0  0  0
   37.0200   27.4380   33.3360 C   0  0  0  0  0  0  0  0  0  0  0  0
   37.4720   26.4870   33.6180 H   0  0  0  0  0  0  0  0  0  0  0  0
   37.0760   27.8280   31.9950 C   0  0  0  0  0  3  0  0  0  0  0  0
   36.4930   29.0440   31.6600 C   0  0  0  0  0  3  0  0  0  0  0  0
  1  6  1  0  0  0  0
  1  7  1  0  0  0  0
  2  1  2  0  0  0  0
  3  4  2  0  0  0  0
  3  2  1  0  0  0  0
  4  5  1  0  0  0  0
  5  9  1  0  0  0  0
  5  6  2  0  0  0  0
  8  2  1  0  0  0  0
 10 11  1  0  0  0  0
 11 12  1  0  0  0  0
 12 13  2  0  0  0  0
 12  3  1  0  0  0  0
 13 14  1  0  0  0  0
 15 16  1  0  0  0  0
 15 13  1  0  0  0  0
 17 15  2  0  0  0  0
 18 17  1  0  0  0  0
 18 11  2  0  0  0  0
M  END
>  <minimizedAffinity>
-3.84042454

$$$$

 OpenBabel03262520183D

 18 19  0  0  0  0  0  0  0  0999 V2000
   37.3130   21.7620   32.6770 C   0  0  0  0  0  0  0  0  0  0  0  0
   37.5800   21.8570   34.0490 C   0  0  0  0  0  0  0  0  0  0  0  0
   38.0880   23.0260   34.6130 C   0  0  0  0  0  0  0  0  0  0  0  0
   38.3020   24.0490   33.7470 N   0  0  0  0  0  0  0  0  0  0  0  0
   38.0440   23.9530   32.4310 C   0  0  0  0  0  0  0  0  0  0  0  0
   37.5550   22.8250   31.9020 N   0  0  0  0  0  0  0  0  0  0  0  0
   36.9170   20.8480   32.2530 H   0  0  0  0  0  0  0  0  0  0  0  0
   37.3810   20.9970   34.6600 H   0  0  0  0  0  0  0  0  0  0  0  0
   38.2770   24.8760   31.8900 H   0  0  0  0  0  0  0  0  0  0  0  0
   40.9320   22.1420   35.2110 Br  0  0  0  0  0  0  0  0  0  0  0  0
   39.6360   22.7790   36.4650 C   0  0  0  0  0  0  0  0  0  0  0  0
   38.3750   23.1460   36.0400 C   0  0  0  0  0  0  0  0  0  0  0  0
   37.4810   23.5970   36.9860 C   0  0  0  0  0  0  0  0  0  0  0  0
   36.4970   23.8870   36.6710 H   0  0  0  0  0  0  0  0  0  0  0  0
   37.8520   23.6740   38.3160 C   0  0  0  0  0  0  0  0  0  0  0  0
   37.1360   24.0330   39.0560 H   0  0  0  0  0  0  0  0  0  0  0  0
   39.1270   23.3040   38.7500 C   0  0  0  0  0  3  0  0  0  0  0  0
   40.0210   22.8500   37.7880 C   0  0  0  0  0  3  0  0  0  0  0  0
  1  2  1  0  0  0  0
  2  3  2  0  0  0  0
  2  8  1  0  0  0  0
  3 12  1  0  0  0  0
  4  3  1  0  0  0  0
  5  4  2  0  0  0  0
  6  5  1  0  0  0  0
  6  1  2  0  0  0  0
  7  1  1  0  0  0  0
  9  5  1  0  0  0  0
 10 11  1  0  0  0  0
 11 18  1  0  0  0  0
 12 11  2  0  0  0  0
 12 13  1  0  0  0  0
 13 15  2  0  0  0  0
 14 13  1  0  0  0  0
 15 17  1  0  0  0  0
 15 16  1  0  0  0  0
 18 17  2  0  0  0  0
M  END
>  <minimizedAffinity>
-3.78787398

$$$$

 OpenBabel03262520183D

 18 19  0  0  0  0  0  0  0  0999 V2000
   35.4260   30.2830   31.5730 C   0  0  0  0  0  0  0  0  0  0  0  0
   34.6550   30.6600   32.6800 C   0  0  0  0  0  0  0  0  0  0  0  0
   34.7490   29.9870   33.8970 C   0  0  0  0  0  0  0  0  0  0  0  0
   35.6280   28.9530   33.9270 N   0  0  0  0  0  0  0  0  0  0  0  0
   36.3660   28.5940   32.8620 C   0  0  0  0  0  0  0  0  0  0  0  0
   36.2670   29.2500   31.6990 N   0  0  0  0  0  0  0  0  0  0  0  0
   35.3430   30.8160   30.6340 H   0  0  0  0  0  0  0  0  0  0  0  0
   33.9840   31.4910   32.5660 H   0  0  0  0  0  0  0  0  0  0  0  0
   37.0190   27.7400   33.0720 H   0  0  0  0  0  0  0  0  0  0  0  0
   36.1580   32.1500   35.4970 Br  0  0  0  0  0  0  0  0  0  0  0  0
   34.4710   31.3410   35.8900 C   0  0  0  0  0  0  0  0  0  0  0  0
   33.9550   30.3630   35.0630 C   0  0  0  0  0  0  0  0  0  0  0  0
   32.7360   29.8140   35.3950 C   0  0  0  0  0  0  0  0  0  0  0  0
   32.3220   29.0530   34.7620 H   0  0  0  0  0  0  0  0  0  0  0  0
   32.0620   30.2410   36.5240 C   0  0  0  0  0  0  0  0  0  0  0  0
   31.0980   29.8000   36.7770 H   0  0  0  0  0  0  0  0  0  0  0  0
   32.5810   31.2310   37.3640 C   0  0  0  0  0  3  0  0  0  0  0  0
   33.8110   31.7780   37.0210 C   0  0  0  0  0  3  0  0  0  0  0  0
  1  6  2  0  0  0  0
  1  2  1  0  0  0  0
  2  3  2  0  0  0  0
  3  4  1  0  0  0  0
  3 12  1  0  0  0  0
  5  9  1  0  0  0  0
  5  4  2  0  0  0  0
  6  5  1  0  0  0  0
  7  1  1  0  0  0  0
  8  2  1  0  0  0  0
 10 11  1  0  0  0  0
 11 18  1  0  0  0  0
 12 13  1  0  0  0  0
 12 11  2  0  0  0  0
 13 15  2  0  0  0  0
 14 13  1  0  0  0  0
 15 16  1  0  0  0  0
 15 17  1  0  0  0  0
 18 17  2  0  0  0  0
M  END
>  <minimizedAffinity>
-3.76785827

$$$$
