
 OpenBabel03272510203D

 36 39  0  0  0  0  0  0  0  0999 V2000
   37.4410   29.1520   50.8320 Br  0  0  0  0  0  0  0  0  0  0  0  0
   36.0420   29.3010   49.5450 C   0  0  0  0  0  0  0  0  0  0  0  0
   36.0400   30.3400   48.6060 C   0  0  0  0  0  0  0  0  0  0  0  0
   35.0030   30.3840   47.7110 C   0  0  0  0  0  0  0  0  0  0  0  0
   33.9690   29.4570   47.6940 C   0  0  0  0  0  0  0  0  0  0  0  0
   34.0070   28.4630   48.6210 C   0  0  0  0  0  0  0  0  0  0  0  0
   35.0360   28.3950   49.5330 C   0  0  0  0  0  0  0  0  0  0  0  0
   34.9830   31.1790   46.9780 H   0  0  0  0  0  0  0  0  0  0  0  0
   33.2100   27.7270   48.6300 H   0  0  0  0  0  0  0  0  0  0  0  0
   34.9940   27.5730   50.2380 H   0  0  0  0  0  0  0  0  0  0  0  0
   38.0160   33.2480   49.5910 C   0  0  0  0  0  0  0  0  0  0  0  0
   39.0760   33.2550   48.6470 C   0  0  0  0  0  0  0  0  0  0  0  0
   39.0910   32.2650   47.6930 C   0  0  0  0  0  0  0  0  0  0  0  0
   38.0980   31.3100   47.6780 N   0  0  0  0  0  0  0  0  0  0  0  0
   37.1050   31.3320   48.5900 C   0  0  0  0  0  0  0  0  0  0  0  0
   37.0690   32.3090   49.5500 N   0  0  0  0  0  0  0  0  0  0  0  0
   37.9630   34.0020   50.3540 H   0  0  0  0  0  0  0  0  0  0  0  0
   39.8340   34.0240   48.6970 H   0  0  0  0  0  0  0  0  0  0  0  0
   39.8900   32.2240   46.9370 H   0  0  0  0  0  0  0  0  0  0  0  0
   32.8740   29.5110   46.7440 C   0  0  0  0  0  0  0  0  0  0  0  0
   31.9070   28.5510   46.6040 C   0  0  0  0  0  0  0  0  0  0  0  0
   30.8720   28.6130   45.6970 C   0  0  0  0  0  0  0  0  0  0  0  0
   30.7990   29.6720   44.8990 N   0  0  0  0  0  0  0  0  0  0  0  0
   31.7350   30.6470   45.0030 C   0  0  0  0  0  0  0  0  0  0  0  0
   32.7310   30.5480   45.9030 N   0  0  0  0  0  0  0  0  0  0  0  0
   31.9550   27.6670   47.2600 H   0  0  0  0  0  0  0  0  0  0  0  0
   30.1360   27.8280   45.6290 H   0  0  0  0  0  0  0  0  0  0  0  0
   32.9980   30.1270   42.2700 Br  0  0  0  0  0  0  0  0  0  0  0  0
   32.2150   31.7420   42.8600 C   0  0  0  0  0  0  0  0  0  0  0  0
   31.6780   31.8350   44.1280 C   0  0  0  0  0  0  0  0  0  0  0  0
   31.0900   33.0140   44.5990 C   0  0  0  0  0  0  0  0  0  0  0  0
   30.6750   33.0680   45.5970 H   0  0  0  0  0  0  0  0  0  0  0  0
   31.0450   34.1330   43.7570 C   0  0  0  0  0  0  0  0  0  0  0  0
   30.5980   35.0640   44.0810 H   0  0  0  0  0  0  0  0  0  0  0  0
   31.5930   33.9820   42.5050 C   0  0  0  0  0  3  0  0  0  0  0  0
   32.1800   32.8410   42.0060 C   0  0  0  0  0  3  0  0  0  0  0  0
  2  1  1  0  0  0  0
  3  2  2  0  0  0  0
  4  3  1  0  0  0  0
  5  4  2  0  0  0  0
  5  6  1  0  0  0  0
  6  9  1  0  0  0  0
  6  7  2  0  0  0  0
  7  2  1  0  0  0  0
  7 10  1  0  0  0  0
  8  4  1  0  0  0  0
 11 17  1  0  0  0  0
 12 18  1  0  0  0  0
 12 11  2  0  0  0  0
 13 12  1  0  0  0  0
 14 13  2  0  0  0  0
 14 15  1  0  0  0  0
 15  3  1  0  0  0  0
 15 16  2  0  0  0  0
 16 11  1  0  0  0  0
 19 13  1  0  0  0  0
 20  5  1  0  0  0  0
 21 20  1  0  0  0  0
 21 26  1  0  0  0  0
 22 21  2  0  0  0  0
 23 24  2  0  0  0  0
 23 22  1  0  0  0  0
 24 25  1  0  0  0  0
 25 20  2  0  0  0  0
 27 22  1  0  0  0  0
 28 29  1  0  0  0  0
 29 30  1  0  0  0  0
 30 31  2  0  0  0  0
 30 24  1  0  0  0  0
 31 32  1  0  0  0  0
 33 34  1  0  0  0  0
 33 31  1  0  0  0  0
 35 33  2  0  0  0  0
 36 35  1  0  0  0  0
 36 29  2  0  0  0  0
M  END
>  <minimizedAffinity>
-6.47051191

>  <minimizedRMSD>
0.788635314

$$$$
