
 OpenBabel03272510163D

 28 30  0  0  0  0  0  0  0  0999 V2000
   37.2190   29.2120   50.9200 Br  0  0  0  0  0  0  0  0  0  0  0  0
   35.9350   29.2520   49.5140 C   0  0  0  0  0  0  0  0  0  0  0  0
   35.9760   30.2280   48.5400 C   0  0  0  0  0  0  0  0  0  0  0  0
   35.0140   30.2090   47.5370 C   0  0  0  0  0  0  0  0  0  0  0  0
   34.0210   29.2350   47.4980 C   0  0  0  0  0  0  0  0  0  0  0  0
   34.0030   28.2790   48.4770 C   0  0  0  0  0  0  0  0  0  0  0  0
   34.9550   28.2920   49.4730 C   0  0  0  0  0  0  0  0  0  0  0  0
   35.1010   31.0000   46.8040 H   0  0  0  0  0  0  0  0  0  0  0  0
   33.2180   27.5350   48.4190 H   0  0  0  0  0  0  0  0  0  0  0  0
   34.9210   27.5270   50.2370 H   0  0  0  0  0  0  0  0  0  0  0  0
   37.8350   33.1810   49.6010 C   0  0  0  0  0  0  0  0  0  0  0  0
   38.9170   33.2550   48.6750 C   0  0  0  0  0  0  0  0  0  0  0  0
   38.9780   32.2680   47.6920 C   0  0  0  0  0  0  0  0  0  0  0  0
   38.0180   31.2900   47.6580 N   0  0  0  0  0  0  0  0  0  0  0  0
   37.0130   31.2660   48.5600 C   0  0  0  0  0  0  0  0  0  0  0  0
   36.9160   32.2100   49.5350 N   0  0  0  0  0  0  0  0  0  0  0  0
   37.7350   33.9110   50.3780 H   0  0  0  0  0  0  0  0  0  0  0  0
   39.6300   34.0540   48.7670 H   0  0  0  0  0  0  0  0  0  0  0  0
   39.7850   32.2920   46.9720 H   0  0  0  0  0  0  0  0  0  0  0  0
   35.2780   29.4860   44.6260 Br  0  0  0  0  0  0  0  0  0  0  0  0
   33.4300   29.4690   45.0560 C   0  0  0  0  0  0  0  0  0  0  0  0
   33.0860   29.3500   46.3850 C   0  0  0  0  0  0  0  0  0  0  0  0
   31.7210   29.3390   46.6920 C   0  0  0  0  0  0  0  0  0  0  0  0
   31.3020   29.2520   47.6850 H   0  0  0  0  0  0  0  0  0  0  0  0
   30.7750   29.4450   45.6690 C   0  0  0  0  0  0  0  0  0  0  0  0
   29.6970   29.4410   45.8680 H   0  0  0  0  0  0  0  0  0  0  0  0
   31.1510   29.5630   44.3490 C   0  0  0  0  0  3  0  0  0  0  0  0
   32.4980   29.5730   44.0530 C   0  0  0  0  0  3  0  0  0  0  0  0
  2  1  1  0  0  0  0
  3 15  1  0  0  0  0
  3  2  2  0  0  0  0
  4  3  1  0  0  0  0
  5  4  2  0  0  0  0
  5  6  1  0  0  0  0
  6  7  2  0  0  0  0
  7  2  1  0  0  0  0
  7 10  1  0  0  0  0
  8  4  1  0  0  0  0
  9  6  1  0  0  0  0
 11 17  1  0  0  0  0
 12 18  1  0  0  0  0
 12 11  2  0  0  0  0
 13 12  1  0  0  0  0
 14 13  2  0  0  0  0
 14 15  1  0  0  0  0
 15 16  2  0  0  0  0
 16 11  1  0  0  0  0
 19 13  1  0  0  0  0
 20 21  1  0  0  0  0
 21 22  1  0  0  0  0
 22 23  2  0  0  0  0
 22  5  1  0  0  0  0
 23 24  1  0  0  0  0
 25 26  1  0  0  0  0
 25 23  1  0  0  0  0
 27 25  2  0  0  0  0
 28 27  1  0  0  0  0
 28 21  2  0  0  0  0
M  END
>  <minimizedAffinity>
-5.74876833

>  <minimizedRMSD>
0.30065307

$$$$
