
 OpenBabel03262520073D

 18 19  0  0  0  0  0  0  0  0999 V2000
   37.8580   29.8240   50.2650 C   0  0  0  0  0  0  0  0  0  0  0  0
   38.4050   31.1330   50.3330 C   0  0  0  0  0  0  0  0  0  0  0  0
   37.9440   32.0640   49.4020 C   0  0  0  0  0  0  0  0  0  0  0  0
   37.0040   31.6830   48.4820 N   0  0  0  0  0  0  0  0  0  0  0  0
   36.5100   30.4150   48.4570 C   0  0  0  0  0  0  0  0  0  0  0  0
   36.9390   29.4930   49.3490 N   0  0  0  0  0  0  0  0  0  0  0  0
   38.1900   29.0720   50.9710 H   0  0  0  0  0  0  0  0  0  0  0  0
   39.1320   31.3350   51.0860 H   0  0  0  0  0  0  0  0  0  0  0  0
   38.3350   33.0550   49.4260 H   0  0  0  0  0  0  0  0  0  0  0  0
   33.9570   29.1280   49.7440 Br  0  0  0  0  0  0  0  0  0  0  0  0
   34.3220   29.4170   47.8900 C   0  0  0  0  0  0  0  0  0  0  0  0
   35.5080   30.0030   47.4790 C   0  0  0  0  0  0  0  0  0  0  0  0
   35.6970   30.1770   46.1250 C   0  0  0  0  0  0  0  0  0  0  0  0
   36.6210   30.6320   45.8430 H   0  0  0  0  0  0  0  0  0  0  0  0
   34.7690   29.7990   45.1690 C   0  0  0  0  0  0  0  0  0  0  0  0
   35.0550   30.0000   44.1370 H   0  0  0  0  0  0  0  0  0  0  0  0
   33.6000   29.2180   45.6160 C   0  0  0  0  0  3  0  0  0  0  0  0
   33.3870   29.0330   46.9730 C   0  0  0  0  0  3  0  0  0  0  0  0
  1  2  1  0  0  0  0
  1  7  1  0  0  0  0
  2  8  1  0  0  0  0
  3  9  1  0  0  0  0
  3  2  2  0  0  0  0
  4  3  1  0  0  0  0
  5  4  2  0  0  0  0
  5  6  1  0  0  0  0
  6  1  2  0  0  0  0
 11 10  1  0  0  0  0
 12 11  1  0  0  0  0
 12  5  1  0  0  0  0
 13 12  2  0  0  0  0
 14 13  1  0  0  0  0
 15 17  2  0  0  0  0
 15 13  1  0  0  0  0
 16 15  1  0  0  0  0
 17 18  1  0  0  0  0
 18 11  2  0  0  0  0
M  END
>  <minimizedAffinity>
-4.08647108

>  <minimizedRMSD>
3.03854418

$$$$
