
 OpenBabel03262520073D

 18 19  0  0  0  0  0  0  0  0999 V2000
   38.1160   30.3610   49.8720 C   0  0  0  0  0  0  0  0  0  0  0  0
   38.6190   31.6720   50.0860 C   0  0  0  0  0  0  0  0  0  0  0  0
   38.4270   32.6010   49.0640 C   0  0  0  0  0  0  0  0  0  0  0  0
   37.7750   32.2180   47.9220 N   0  0  0  0  0  0  0  0  0  0  0  0
   37.3120   30.9470   47.7640 C   0  0  0  0  0  0  0  0  0  0  0  0
   37.4830   30.0270   48.7400 N   0  0  0  0  0  0  0  0  0  0  0  0
   38.2450   29.6090   50.6420 H   0  0  0  0  0  0  0  0  0  0  0  0
   39.1130   31.8750   51.0090 H   0  0  0  0  0  0  0  0  0  0  0  0
   38.7930   33.5930   49.1930 H   0  0  0  0  0  0  0  0  0  0  0  0
   34.3670   29.9930   48.2690 Br  0  0  0  0  0  0  0  0  0  0  0  0
   35.3060   30.0850   46.6070 C   0  0  0  0  0  0  0  0  0  0  0  0
   36.6160   30.5330   46.5500 C   0  0  0  0  0  0  0  0  0  0  0  0
   37.2240   30.5700   45.3130 C   0  0  0  0  0  0  0  0  0  0  0  0
   38.2320   30.9200   45.3060 H   0  0  0  0  0  0  0  0  0  0  0  0
   36.5960   30.1840   44.1420 C   0  0  0  0  0  0  0  0  0  0  0  0
   37.2010   30.2670   43.2400 H   0  0  0  0  0  0  0  0  0  0  0  0
   35.2920   29.7420   44.2370 C   0  0  0  0  0  3  0  0  0  0  0  0
   34.6580   29.6970   45.4690 C   0  0  0  0  0  3  0  0  0  0  0  0
  1  2  1  0  0  0  0
  1  7  1  0  0  0  0
  2  8  1  0  0  0  0
  3  9  1  0  0  0  0
  3  2  2  0  0  0  0
  4  3  1  0  0  0  0
  5  4  2  0  0  0  0
  5  6  1  0  0  0  0
  6  1  2  0  0  0  0
 11 10  1  0  0  0  0
 12 11  1  0  0  0  0
 12  5  1  0  0  0  0
 13 12  2  0  0  0  0
 14 13  1  0  0  0  0
 15 17  2  0  0  0  0
 15 13  1  0  0  0  0
 16 15  1  0  0  0  0
 17 18  1  0  0  0  0
 18 11  2  0  0  0  0
M  END
>  <minimizedAffinity>
-3.93065262

>  <minimizedRMSD>
4.28884935

$$$$
