
 OpenBabel03272503573D

 34 37  0  0  0  0  0  0  0  0999 V2000
   36.0520   29.7150   31.5630 C   0  0  0  0  0  0  0  0  0  0  0  0
   35.4700   30.4510   32.6210 C   0  0  0  0  0  0  0  0  0  0  0  0
   35.4180   29.8060   33.8570 C   0  0  0  0  0  0  0  0  0  0  0  0
   35.9050   28.5830   33.9460 N   0  0  0  0  0  0  0  0  0  0  0  0
   36.4510   27.8710   32.9790 C   0  0  0  0  0  0  0  0  0  0  0  0
   36.4990   28.4940   31.8000 N   0  0  0  0  0  0  0  0  0  0  0  0
   35.1520   31.4120   32.3100 H   0  0  0  0  0  0  0  0  0  0  0  0
   37.0270   26.5320   32.9280 C   0  0  0  0  0  0  0  0  0  0  0  0
   36.4500   25.5000   32.2500 N   0  0  0  0  0  0  0  0  0  0  0  0
   36.9910   24.2930   32.1890 C   0  0  0  0  0  0  0  0  0  0  0  0
   38.1500   23.9550   32.7800 N   0  0  0  0  0  0  0  0  0  0  0  0
   38.7820   24.9240   33.4730 C   0  0  0  0  0  0  0  0  0  0  0  0
   39.9680   24.5970   34.0820 C   0  0  0  0  0  0  0  0  0  0  0  0
   40.6580   25.5550   34.8080 C   0  0  0  0  0  0  0  0  0  0  0  0
   40.0930   26.8180   34.8750 C   0  0  0  0  0  0  0  0  0  0  0  0
   38.9030   27.0830   34.2430 C   0  0  0  0  0  0  0  0  0  0  0  0
   38.2010   26.1660   33.5200 C   0  0  0  0  0  0  0  0  0  0  0  0
   36.5030   23.4650   31.6310 H   0  0  0  0  0  0  0  0  0  0  0  0
   40.3640   23.5940   33.9980 H   0  0  0  0  0  0  0  0  0  0  0  0
   41.5750   25.2500   35.2610 H   0  0  0  0  0  0  0  0  0  0  0  0
   40.6720   27.5250   35.4530 H   0  0  0  0  0  0  0  0  0  0  0  0
   38.5870   28.0920   34.4090 H   0  0  0  0  0  0  0  0  0  0  0  0
   32.3160   29.4240   34.5400 Br  0  0  0  0  0  0  0  0  0  0  0  0
   33.5810   30.5690   35.3770 C   0  0  0  0  0  0  0  0  0  0  0  0
   34.8710   30.5890   34.9430 C   0  0  0  0  0  0  0  0  0  0  0  0
   35.6680   31.4410   35.6790 C   0  0  0  0  0  0  0  0  0  0  0  0
   36.7170   31.6030   35.4940 H   0  0  0  0  0  0  0  0  0  0  0  0
   35.2120   32.1840   36.7290 C   0  0  0  0  0  0  0  0  0  0  0  0
   35.8450   32.8660   37.3190 H   0  0  0  0  0  0  0  0  0  0  0  0
   33.9000   32.1330   37.1320 C   0  0  0  0  0  3  0  0  0  0  0  0
   33.0530   31.2830   36.4180 C   0  0  0  0  0  3  0  0  0  0  0  0
   36.1910   30.2650   30.2360 N   0  0  0  0  0  0  0  0  0  0  0  0
   35.7700   29.9010   29.3580 H   0  0  0  0  0  0  0  0  0  0  0  0
   36.7950   31.1130   30.2710 H   0  0  0  0  0  0  0  0  0  0  0  0
  1  6  2  0  0  0  0
  1  2  1  0  0  0  0
  2  3  2  0  0  0  0
  3  4  1  0  0  0  0
  3 25  1  0  0  0  0
  5  4  2  0  0  0  0
  6  5  1  0  0  0  0
  7  2  1  0  0  0  0
  8  5  1  0  0  0  0
  8 17  1  0  0  0  0
  9  8  2  0  0  0  0
 10  9  1  0  0  0  0
 10 11  2  0  0  0  0
 11 12  1  0  0  0  0
 12 17  2  0  0  0  0
 12 13  1  0  0  0  0
 13 14  2  0  0  0  0
 14 15  1  0  0  0  0
 14 20  1  0  0  0  0
 15 21  1  0  0  0  0
 16 22  1  0  0  0  0
 16 15  2  0  0  0  0
 17 16  1  0  0  0  0
 18 10  1  0  0  0  0
 19 13  1  0  0  0  0
 23 24  1  0  0  0  0
 24 31  1  0  0  0  0
 25 24  2  0  0  0  0
 25 26  1  0  0  0  0
 26 28  2  0  0  0  0
 27 26  1  0  0  0  0
 28 30  1  0  0  0  0
 28 29  1  0  0  0  0
 31 30  2  0  0  0  0
 32 34  1  0  0  0  0
 32  1  1  0  0  0  0
 33 32  1  0  0  0  0
M  END
>  <minimizedAffinity>
-6.48674393

$$$$

 OpenBabel03272503573D

 34 37  0  0  0  0  0  0  0  0999 V2000
   36.1340   29.8180   31.5610 C   0  0  0  0  0  0  0  0  0  0  0  0
   35.4810   30.4950   32.6160 C   0  0  0  0  0  0  0  0  0  0  0  0
   35.5020   29.8570   33.8570 C   0  0  0  0  0  0  0  0  0  0  0  0
   36.1170   28.6930   33.9520 N   0  0  0  0  0  0  0  0  0  0  0  0
   36.7330   28.0370   32.9880 C   0  0  0  0  0  0  0  0  0  0  0  0
   36.7090   28.6520   31.8040 N   0  0  0  0  0  0  0  0  0  0  0  0
   35.0610   31.4140   32.3000 H   0  0  0  0  0  0  0  0  0  0  0  0
   37.4480   26.7660   32.9430 C   0  0  0  0  0  0  0  0  0  0  0  0
   38.6740   26.5830   33.5100 N   0  0  0  0  0  0  0  0  0  0  0  0
   39.3060   25.4190   33.4850 C   0  0  0  0  0  0  0  0  0  0  0  0
   38.8180   24.3080   32.9070 N   0  0  0  0  0  0  0  0  0  0  0  0
   37.6080   24.4100   32.3220 C   0  0  0  0  0  0  0  0  0  0  0  0
   37.0930   23.2850   31.7280 C   0  0  0  0  0  0  0  0  0  0  0  0
   35.8530   23.3350   31.1110 C   0  0  0  0  0  0  0  0  0  0  0  0
   35.1910   24.5510   31.1340 C   0  0  0  0  0  0  0  0  0  0  0  0
   35.7590   25.6410   31.7460 C   0  0  0  0  0  0  0  0  0  0  0  0
   36.9740   25.6260   32.3620 C   0  0  0  0  0  0  0  0  0  0  0  0
   40.3060   25.2910   33.9530 H   0  0  0  0  0  0  0  0  0  0  0  0
   37.6540   22.3590   31.7390 H   0  0  0  0  0  0  0  0  0  0  0  0
   35.4990   22.4320   30.6650 H   0  0  0  0  0  0  0  0  0  0  0  0
   34.2300   24.5340   30.6380 H   0  0  0  0  0  0  0  0  0  0  0  0
   35.1380   26.5090   31.6560 H   0  0  0  0  0  0  0  0  0  0  0  0
   32.3730   29.4030   34.3360 Br  0  0  0  0  0  0  0  0  0  0  0  0
   33.5670   30.5290   35.2940 C   0  0  0  0  0  0  0  0  0  0  0  0
   34.8790   30.5860   34.9400 C   0  0  0  0  0  0  0  0  0  0  0  0
   35.6170   31.4160   35.7580 C   0  0  0  0  0  0  0  0  0  0  0  0
   36.6720   31.6000   35.6430 H   0  0  0  0  0  0  0  0  0  0  0  0
   35.0870   32.1070   36.8080 C   0  0  0  0  0  0  0  0  0  0  0  0
   35.6730   32.7720   37.4630 H   0  0  0  0  0  0  0  0  0  0  0  0
   33.7550   32.0210   37.1300 C   0  0  0  0  0  3  0  0  0  0  0  0
   32.9660   31.1900   36.3310 C   0  0  0  0  0  3  0  0  0  0  0  0
   36.2080   30.3690   30.2290 N   0  0  0  0  0  0  0  0  0  0  0  0
   35.8250   29.9550   29.3560 H   0  0  0  0  0  0  0  0  0  0  0  0
   36.7180   31.2760   30.2560 H   0  0  0  0  0  0  0  0  0  0  0  0
  1  6  2  0  0  0  0
  1  2  1  0  0  0  0
  2  3  2  0  0  0  0
  3  4  1  0  0  0  0
  3 25  1  0  0  0  0
  5  4  2  0  0  0  0
  6  5  1  0  0  0  0
  7  2  1  0  0  0  0
  8  5  1  0  0  0  0
  8  9  1  0  0  0  0
 10  9  2  0  0  0  0
 10 18  1  0  0  0  0
 11 10  1  0  0  0  0
 12 17  1  0  0  0  0
 12 11  2  0  0  0  0
 13 19  1  0  0  0  0
 13 12  1  0  0  0  0
 14 15  1  0  0  0  0
 14 13  2  0  0  0  0
 15 16  2  0  0  0  0
 16 17  1  0  0  0  0
 17  8  2  0  0  0  0
 20 14  1  0  0  0  0
 21 15  1  0  0  0  0
 22 16  1  0  0  0  0
 23 24  1  0  0  0  0
 24 31  1  0  0  0  0
 25 24  2  0  0  0  0
 25 26  1  0  0  0  0
 26 28  2  0  0  0  0
 27 26  1  0  0  0  0
 28 30  1  0  0  0  0
 28 29  1  0  0  0  0
 31 30  2  0  0  0  0
 32 34  1  0  0  0  0
 32  1  1  0  0  0  0
 33 32  1  0  0  0  0
M  END
>  <minimizedAffinity>
-6.44037008

$$$$

 OpenBabel03272503573D

 34 37  0  0  0  0  0  0  0  0999 V2000
   36.6060   24.3300   31.9940 C   0  0  0  0  0  0  0  0  0  0  0  0
   36.2490   25.6950   31.8970 C   0  0  0  0  0  0  0  0  0  0  0  0
   36.9580   26.5720   32.7190 C   0  0  0  0  0  0  0  0  0  0  0  0
   37.8890   26.0730   33.5100 N   0  0  0  0  0  0  0  0  0  0  0  0
   38.2440   24.8080   33.6240 C   0  0  0  0  0  0  0  0  0  0  0  0
   37.5630   23.9750   32.8350 N   0  0  0  0  0  0  0  0  0  0  0  0
   35.4750   25.8540   31.1920 H   0  0  0  0  0  0  0  0  0  0  0  0
   39.2400   24.1190   34.4370 C   0  0  0  0  0  0  0  0  0  0  0  0
   40.4380   23.6960   33.9460 N   0  0  0  0  0  0  0  0  0  0  0  0
   41.3460   23.0920   34.6980 C   0  0  0  0  0  0  0  0  0  0  0  0
   41.1900   22.8320   36.0060 N   0  0  0  0  0  0  0  0  0  0  0  0
   40.0270   23.2200   36.5670 C   0  0  0  0  0  0  0  0  0  0  0  0
   39.8510   22.9640   37.9040 C   0  0  0  0  0  0  0  0  0  0  0  0
   38.6720   23.3400   38.5300 C   0  0  0  0  0  0  0  0  0  0  0  0
   37.7200   23.9700   37.7460 C   0  0  0  0  0  0  0  0  0  0  0  0
   37.9570   24.1990   36.4130 C   0  0  0  0  0  0  0  0  0  0  0  0
   39.1030   23.8430   35.7670 C   0  0  0  0  0  0  0  0  0  0  0  0
   42.3170   22.7550   34.2750 H   0  0  0  0  0  0  0  0  0  0  0  0
   40.6280   22.4680   38.4700 H   0  0  0  0  0  0  0  0  0  0  0  0
   38.5860   23.1190   39.5710 H   0  0  0  0  0  0  0  0  0  0  0  0
   36.8220   24.2410   38.2840 H   0  0  0  0  0  0  0  0  0  0  0  0
   37.1180   24.6690   35.9410 H   0  0  0  0  0  0  0  0  0  0  0  0
   37.9740   28.0640   30.0780 Br  0  0  0  0  0  0  0  0  0  0  0  0
   36.9660   28.7720   31.5250 C   0  0  0  0  0  0  0  0  0  0  0  0
   36.6220   27.9700   32.5700 C   0  0  0  0  0  0  0  0  0  0  0  0
   35.8600   28.6240   33.5150 C   0  0  0  0  0  0  0  0  0  0  0  0
   35.4890   28.1680   34.4180 H   0  0  0  0  0  0  0  0  0  0  0  0
   35.4910   29.9340   33.4140 C   0  0  0  0  0  0  0  0  0  0  0  0
   34.8830   30.4600   34.1670 H   0  0  0  0  0  0  0  0  0  0  0  0
   35.8620   30.7070   32.3410 C   0  0  0  0  0  3  0  0  0  0  0  0
   36.6350   30.0890   31.3560 C   0  0  0  0  0  3  0  0  0  0  0  0
   35.9710   23.3150   31.1890 N   0  0  0  0  0  0  0  0  0  0  0  0
   35.4240   22.4980   31.5250 H   0  0  0  0  0  0  0  0  0  0  0  0
   36.1400   23.5140   30.1810 H   0  0  0  0  0  0  0  0  0  0  0  0
  1  6  1  0  0  0  0
  2  1  2  0  0  0  0
  2  3  1  0  0  0  0
  3  4  2  0  0  0  0
  4  5  1  0  0  0  0
  5  8  1  0  0  0  0
  6  5  2  0  0  0  0
  7  2  1  0  0  0  0
  8 17  1  0  0  0  0
  9  8  2  0  0  0  0
  9 10  1  0  0  0  0
 10 11  2  0  0  0  0
 11 12  1  0  0  0  0
 12 13  1  0  0  0  0
 13 19  1  0  0  0  0
 13 14  2  0  0  0  0
 14 20  1  0  0  0  0
 15 21  1  0  0  0  0
 15 14  1  0  0  0  0
 16 15  2  0  0  0  0
 17 16  1  0  0  0  0
 17 12  2  0  0  0  0
 18 10  1  0  0  0  0
 22 16  1  0  0  0  0
 23 24  1  0  0  0  0
 24 25  1  0  0  0  0
 25  3  1  0  0  0  0
 25 26  2  0  0  0  0
 26 27  1  0  0  0  0
 28 26  1  0  0  0  0
 28 29  1  0  0  0  0
 30 28  2  0  0  0  0
 31 24  2  0  0  0  0
 31 30  1  0  0  0  0
 32 33  1  0  0  0  0
 32  1  1  0  0  0  0
 34 32  1  0  0  0  0
M  END
>  <minimizedAffinity>
-6.32860851

$$$$

 OpenBabel03272503573D

 34 37  0  0  0  0  0  0  0  0999 V2000
   35.2580   30.3380   31.6060 C   0  0  0  0  0  0  0  0  0  0  0  0
   34.5640   30.7750   32.7580 C   0  0  0  0  0  0  0  0  0  0  0  0
   34.6590   29.9490   33.8790 C   0  0  0  0  0  0  0  0  0  0  0  0
   35.3720   28.8430   33.7820 N   0  0  0  0  0  0  0  0  0  0  0  0
   36.0280   28.4090   32.7240 C   0  0  0  0  0  0  0  0  0  0  0  0
   35.9340   29.2030   31.6560 N   0  0  0  0  0  0  0  0  0  0  0  0
   34.0620   31.6930   32.5950 H   0  0  0  0  0  0  0  0  0  0  0  0
   36.8490   27.2290   32.4730 C   0  0  0  0  0  0  0  0  0  0  0  0
   36.7150   26.4530   31.3610 N   0  0  0  0  0  0  0  0  0  0  0  0
   37.4800   25.3960   31.1300 C   0  0  0  0  0  0  0  0  0  0  0  0
   38.4570   24.9780   31.9520 N   0  0  0  0  0  0  0  0  0  0  0  0
   38.6510   25.6950   33.0770 C   0  0  0  0  0  0  0  0  0  0  0  0
   39.6450   25.2830   33.9280 C   0  0  0  0  0  0  0  0  0  0  0  0
   39.8870   25.9840   35.1000 C   0  0  0  0  0  0  0  0  0  0  0  0
   39.0860   27.0880   35.3450 C   0  0  0  0  0  0  0  0  0  0  0  0
   38.1070   27.4500   34.4530 C   0  0  0  0  0  0  0  0  0  0  0  0
   37.8450   26.7850   33.2930 C   0  0  0  0  0  0  0  0  0  0  0  0
   37.3530   24.7770   30.2160 H   0  0  0  0  0  0  0  0  0  0  0  0
   40.2420   24.4120   33.6880 H   0  0  0  0  0  0  0  0  0  0  0  0
   40.6720   25.6230   35.7260 H   0  0  0  0  0  0  0  0  0  0  0  0
   39.3160   27.5960   36.2720 H   0  0  0  0  0  0  0  0  0  0  0  0
   37.5610   28.3040   34.7960 H   0  0  0  0  0  0  0  0  0  0  0  0
   36.1800   32.1470   35.6360 Br  0  0  0  0  0  0  0  0  0  0  0  0
   34.4770   31.3600   35.9370 C   0  0  0  0  0  0  0  0  0  0  0  0
   33.9910   30.4350   35.0660 C   0  0  0  0  0  0  0  0  0  0  0  0
   32.7290   29.9930   35.4050 C   0  0  0  0  0  0  0  0  0  0  0  0
   32.1720   29.2600   34.8460 H   0  0  0  0  0  0  0  0  0  0  0  0
   32.0420   30.4350   36.4970 C   0  0  0  0  0  0  0  0  0  0  0  0
   31.0350   30.0850   36.7720 H   0  0  0  0  0  0  0  0  0  0  0  0
   32.5720   31.3710   37.3520 C   0  0  0  0  0  3  0  0  0  0  0  0
   33.8480   31.8500   37.0500 C   0  0  0  0  0  3  0  0  0  0  0  0
   35.2650   31.1020   30.3820 N   0  0  0  0  0  0  0  0  0  0  0  0
   34.9070   30.8040   29.4530 H   0  0  0  0  0  0  0  0  0  0  0  0
   35.6960   32.0340   30.5560 H   0  0  0  0  0  0  0  0  0  0  0  0
  1  6  2  0  0  0  0
  1  2  1  0  0  0  0
  2  3  2  0  0  0  0
  3 25  1  0  0  0  0
  4  3  1  0  0  0  0
  5  4  2  0  0  0  0
  6  5  1  0  0  0  0
  7  2  1  0  0  0  0
  8  5  1  0  0  0  0
  8 17  1  0  0  0  0
  9  8  2  0  0  0  0
 10  9  1  0  0  0  0
 10 11  2  0  0  0  0
 11 12  1  0  0  0  0
 12 17  2  0  0  0  0
 12 13  1  0  0  0  0
 13 14  2  0  0  0  0
 14 15  1  0  0  0  0
 14 20  1  0  0  0  0
 15 21  1  0  0  0  0
 16 22  1  0  0  0  0
 16 15  2  0  0  0  0
 17 16  1  0  0  0  0
 18 10  1  0  0  0  0
 19 13  1  0  0  0  0
 23 24  1  0  0  0  0
 24 31  1  0  0  0  0
 25 26  1  0  0  0  0
 25 24  2  0  0  0  0
 26 28  2  0  0  0  0
 27 26  1  0  0  0  0
 28 29  1  0  0  0  0
 28 30  1  0  0  0  0
 31 30  2  0  0  0  0
 32 34  1  0  0  0  0
 32  1  1  0  0  0  0
 33 32  1  0  0  0  0
M  END
>  <minimizedAffinity>
-6.30151367

$$$$

 OpenBabel03272503573D

 34 37  0  0  0  0  0  0  0  0999 V2000
   36.2560   29.6510   30.4230 C   0  0  0  0  0  0  0  0  0  0  0  0
   36.5480   28.2750   30.5640 C   0  0  0  0  0  0  0  0  0  0  0  0
   35.9110   27.6190   31.6180 C   0  0  0  0  0  0  0  0  0  0  0  0
   35.1000   28.3180   32.3900 N   0  0  0  0  0  0  0  0  0  0  0  0
   34.8080   29.6000   32.2850 C   0  0  0  0  0  0  0  0  0  0  0  0
   35.4200   30.2200   31.2750 N   0  0  0  0  0  0  0  0  0  0  0  0
   37.2270   27.9350   29.8260 H   0  0  0  0  0  0  0  0  0  0  0  0
   33.9420   30.4930   33.0480 C   0  0  0  0  0  0  0  0  0  0  0  0
   32.6730   30.8050   32.6630 N   0  0  0  0  0  0  0  0  0  0  0  0
   31.8850   31.5990   33.3730 C   0  0  0  0  0  0  0  0  0  0  0  0
   32.2430   32.1750   34.5330 N   0  0  0  0  0  0  0  0  0  0  0  0
   33.4880   31.9140   34.9810 C   0  0  0  0  0  0  0  0  0  0  0  0
   33.8710   32.4940   36.1640 C   0  0  0  0  0  0  0  0  0  0  0  0
   35.1410   32.2600   36.6700 C   0  0  0  0  0  0  0  0  0  0  0  0
   35.9670   31.4330   35.9270 C   0  0  0  0  0  0  0  0  0  0  0  0
   35.5250   30.8820   34.7500 C   0  0  0  0  0  0  0  0  0  0  0  0
   34.2840   31.0900   34.2260 C   0  0  0  0  0  0  0  0  0  0  0  0
   30.8530   31.8410   33.0400 H   0  0  0  0  0  0  0  0  0  0  0  0
   33.1840   33.1330   36.7040 H   0  0  0  0  0  0  0  0  0  0  0  0
   35.3870   32.7330   37.5940 H   0  0  0  0  0  0  0  0  0  0  0  0
   36.9440   31.2850   36.3660 H   0  0  0  0  0  0  0  0  0  0  0  0
   36.2860   30.2900   34.2840 H   0  0  0  0  0  0  0  0  0  0  0  0
   38.3160   26.6950   33.5140 Br  0  0  0  0  0  0  0  0  0  0  0  0
   37.1530   25.6190   32.4650 C   0  0  0  0  0  0  0  0  0  0  0  0
   36.1760   26.2010   31.7180 C   0  0  0  0  0  0  0  0  0  0  0  0
   35.3960   25.2820   31.0490 C   0  0  0  0  0  0  0  0  0  0  0  0
   34.5730   25.5390   30.4040 H   0  0  0  0  0  0  0  0  0  0  0  0
   35.5840   23.9330   31.1270 C   0  0  0  0  0  0  0  0  0  0  0  0
   34.9630   23.1950   30.5940 H   0  0  0  0  0  0  0  0  0  0  0  0
   36.5850   23.3870   31.8930 C   0  0  0  0  0  3  0  0  0  0  0  0
   37.4020   24.2790   32.5910 C   0  0  0  0  0  3  0  0  0  0  0  0
   36.8260   30.4490   29.3650 N   0  0  0  0  0  0  0  0  0  0  0  0
   37.4390   31.2820   29.4670 H   0  0  0  0  0  0  0  0  0  0  0  0
   36.5310   30.0670   28.4420 H   0  0  0  0  0  0  0  0  0  0  0  0
  1  2  2  0  0  0  0
  1  6  1  0  0  0  0
  2  3  1  0  0  0  0
  3 25  1  0  0  0  0
  3  4  2  0  0  0  0
  5  4  1  0  0  0  0
  5  8  1  0  0  0  0
  6  5  2  0  0  0  0
  7  2  1  0  0  0  0
  8 17  1  0  0  0  0
  9  8  2  0  0  0  0
  9 10  1  0  0  0  0
 10 11  2  0  0  0  0
 11 12  1  0  0  0  0
 12 13  1  0  0  0  0
 13 14  2  0  0  0  0
 13 19  1  0  0  0  0
 14 20  1  0  0  0  0
 15 21  1  0  0  0  0
 15 14  1  0  0  0  0
 16 15  2  0  0  0  0
 17 16  1  0  0  0  0
 17 12  2  0  0  0  0
 18 10  1  0  0  0  0
 22 16  1  0  0  0  0
 24 31  1  0  0  0  0
 24 23  1  0  0  0  0
 25 24  2  0  0  0  0
 26 28  2  0  0  0  0
 26 25  1  0  0  0  0
 27 26  1  0  0  0  0
 28 30  1  0  0  0  0
 29 28  1  0  0  0  0
 30 31  2  0  0  0  0
 32 33  1  0  0  0  0
 32  1  1  0  0  0  0
 34 32  1  0  0  0  0
M  END
>  <minimizedAffinity>
-6.2912178

$$$$

 OpenBabel03272503573D

 34 37  0  0  0  0  0  0  0  0999 V2000
   35.8360   30.2870   31.1090 C   0  0  0  0  0  0  0  0  0  0  0  0
   36.0990   28.9130   30.8990 C   0  0  0  0  0  0  0  0  0  0  0  0
   36.0420   28.1000   32.0320 C   0  0  0  0  0  0  0  0  0  0  0  0
   35.7540   28.6620   33.1910 N   0  0  0  0  0  0  0  0  0  0  0  0
   35.5060   29.9370   33.4190 C   0  0  0  0  0  0  0  0  0  0  0  0
   35.5610   30.7080   32.3320 N   0  0  0  0  0  0  0  0  0  0  0  0
   36.3040   28.6980   29.8830 H   0  0  0  0  0  0  0  0  0  0  0  0
   35.1740   30.6900   34.6230 C   0  0  0  0  0  0  0  0  0  0  0  0
   35.9970   31.6350   35.1590 N   0  0  0  0  0  0  0  0  0  0  0  0
   35.6770   32.3310   36.2400 C   0  0  0  0  0  0  0  0  0  0  0  0
   34.5270   32.1850   36.9190 N   0  0  0  0  0  0  0  0  0  0  0  0
   33.6590   31.2660   36.4500 C   0  0  0  0  0  0  0  0  0  0  0  0
   32.4780   31.1040   37.1300 C   0  0  0  0  0  0  0  0  0  0  0  0
   31.5510   30.1710   36.6920 C   0  0  0  0  0  0  0  0  0  0  0  0
   31.8830   29.4400   35.5640 C   0  0  0  0  0  0  0  0  0  0  0  0
   33.0810   29.6490   34.9270 C   0  0  0  0  0  0  0  0  0  0  0  0
   34.0130   30.5580   35.3290 C   0  0  0  0  0  0  0  0  0  0  0  0
   36.3640   33.0970   36.6600 H   0  0  0  0  0  0  0  0  0  0  0  0
   32.2690   31.7010   38.0080 H   0  0  0  0  0  0  0  0  0  0  0  0
   30.6490   30.0850   37.2560 H   0  0  0  0  0  0  0  0  0  0  0  0
   31.1260   28.7280   35.2660 H   0  0  0  0  0  0  0  0  0  0  0  0
   33.2000   28.9920   34.0900 H   0  0  0  0  0  0  0  0  0  0  0  0
   38.8650   26.8720   32.8990 Br  0  0  0  0  0  0  0  0  0  0  0  0
   37.3890   25.9920   32.0890 C   0  0  0  0  0  0  0  0  0  0  0  0
   36.2590   26.6900   31.7950 C   0  0  0  0  0  0  0  0  0  0  0  0
   35.2690   25.8990   31.2500 C   0  0  0  0  0  0  0  0  0  0  0  0
   34.3010   26.2610   30.9460 H   0  0  0  0  0  0  0  0  0  0  0  0
   35.4090   24.5600   31.0280 C   0  0  0  0  0  0  0  0  0  0  0  0
   34.6220   23.9250   30.5920 H   0  0  0  0  0  0  0  0  0  0  0  0
   36.5690   23.8940   31.3400 C   0  0  0  0  0  3  0  0  0  0  0  0
   37.6010   24.6530   31.8960 C   0  0  0  0  0  3  0  0  0  0  0  0
   35.8390   31.2390   30.0260 N   0  0  0  0  0  0  0  0  0  0  0  0
   36.4590   32.0680   29.9200 H   0  0  0  0  0  0  0  0  0  0  0  0
   35.1080   30.9800   29.3310 H   0  0  0  0  0  0  0  0  0  0  0  0
  1  6  1  0  0  0  0
  2  1  2  0  0  0  0
  2  3  1  0  0  0  0
  3  4  2  0  0  0  0
  4  5  1  0  0  0  0
  5  8  1  0  0  0  0
  6  5  2  0  0  0  0
  7  2  1  0  0  0  0
  8  9  2  0  0  0  0
  8 17  1  0  0  0  0
  9 10  1  0  0  0  0
 10 18  1  0  0  0  0
 10 11  2  0  0  0  0
 12 11  1  0  0  0  0
 12 13  1  0  0  0  0
 13 19  1  0  0  0  0
 14 13  2  0  0  0  0
 14 20  1  0  0  0  0
 15 14  1  0  0  0  0
 16 17  1  0  0  0  0
 16 15  2  0  0  0  0
 17 12  2  0  0  0  0
 21 15  1  0  0  0  0
 22 16  1  0  0  0  0
 24 23  1  0  0  0  0
 25  3  1  0  0  0  0
 25 24  2  0  0  0  0
 26 25  1  0  0  0  0
 27 26  1  0  0  0  0
 28 26  2  0  0  0  0
 28 30  1  0  0  0  0
 29 28  1  0  0  0  0
 30 31  2  0  0  0  0
 31 24  1  0  0  0  0
 32  1  1  0  0  0  0
 33 32  1  0  0  0  0
 34 32  1  0  0  0  0
M  END
>  <minimizedAffinity>
-6.27088308

$$$$

 OpenBabel03272503573D

 34 37  0  0  0  0  0  0  0  0999 V2000
   36.2710   29.1000   31.3760 C   0  0  0  0  0  0  0  0  0  0  0  0
   37.2760   28.1980   31.7950 C   0  0  0  0  0  0  0  0  0  0  0  0
   37.1960   27.7660   33.1190 C   0  0  0  0  0  0  0  0  0  0  0  0
   36.2090   28.2230   33.8680 N   0  0  0  0  0  0  0  0  0  0  0  0
   35.2600   29.0640   33.5070 C   0  0  0  0  0  0  0  0  0  0  0  0
   35.3410   29.4720   32.2400 N   0  0  0  0  0  0  0  0  0  0  0  0
   37.9600   27.9760   31.0180 H   0  0  0  0  0  0  0  0  0  0  0  0
   34.1210   29.6460   34.2100 C   0  0  0  0  0  0  0  0  0  0  0  0
   32.8370   29.2330   34.0150 N   0  0  0  0  0  0  0  0  0  0  0  0
   31.8120   29.7510   34.6740 C   0  0  0  0  0  0  0  0  0  0  0  0
   31.9200   30.7250   35.5930 N   0  0  0  0  0  0  0  0  0  0  0  0
   33.1610   31.1880   35.8420 C   0  0  0  0  0  0  0  0  0  0  0  0
   33.2910   32.1830   36.7780 C   0  0  0  0  0  0  0  0  0  0  0  0
   34.5460   32.6970   37.0710 C   0  0  0  0  0  0  0  0  0  0  0  0
   35.6190   32.1590   36.3810 C   0  0  0  0  0  0  0  0  0  0  0  0
   35.4240   31.1640   35.4560 C   0  0  0  0  0  0  0  0  0  0  0  0
   34.2070   30.6360   35.1450 C   0  0  0  0  0  0  0  0  0  0  0  0
   30.7720   29.3990   34.4990 H   0  0  0  0  0  0  0  0  0  0  0  0
   32.4180   32.5680   37.2880 H   0  0  0  0  0  0  0  0  0  0  0  0
   34.5910   33.4680   37.8080 H   0  0  0  0  0  0  0  0  0  0  0  0
   36.5720   32.5950   36.6480 H   0  0  0  0  0  0  0  0  0  0  0  0
   36.3440   30.8730   34.9920 H   0  0  0  0  0  0  0  0  0  0  0  0
   36.8190   24.7470   32.1330 Br  0  0  0  0  0  0  0  0  0  0  0  0
   38.2070   25.4790   33.2040 C   0  0  0  0  0  0  0  0  0  0  0  0
   38.1970   26.8030   33.5190 C   0  0  0  0  0  0  0  0  0  0  0  0
   39.2920   27.1810   34.2670 C   0  0  0  0  0  0  0  0  0  0  0  0
   39.4690   28.1840   34.6200 H   0  0  0  0  0  0  0  0  0  0  0  0
   40.2790   26.3210   34.6510 C   0  0  0  0  0  0  0  0  0  0  0  0
   41.1550   26.6200   35.2480 H   0  0  0  0  0  0  0  0  0  0  0  0
   40.2490   24.9910   34.3110 C   0  0  0  0  0  3  0  0  0  0  0  0
   39.1590   24.5590   33.5520 C   0  0  0  0  0  3  0  0  0  0  0  0
   36.2170   29.6120   30.0280 N   0  0  0  0  0  0  0  0  0  0  0  0
   36.2850   30.6060   29.7300 H   0  0  0  0  0  0  0  0  0  0  0  0
   36.0950   28.8230   29.3600 H   0  0  0  0  0  0  0  0  0  0  0  0
  1  2  2  0  0  0  0
  1  6  1  0  0  0  0
  2  3  1  0  0  0  0
  3 25  1  0  0  0  0
  3  4  2  0  0  0  0
  5  4  1  0  0  0  0
  5  8  1  0  0  0  0
  6  5  2  0  0  0  0
  7  2  1  0  0  0  0
  8 17  1  0  0  0  0
  9  8  2  0  0  0  0
  9 10  1  0  0  0  0
 10 11  2  0  0  0  0
 11 12  1  0  0  0  0
 12 13  1  0  0  0  0
 13 14  2  0  0  0  0
 13 19  1  0  0  0  0
 14 20  1  0  0  0  0
 15 21  1  0  0  0  0
 15 14  1  0  0  0  0
 16 15  2  0  0  0  0
 17 16  1  0  0  0  0
 17 12  2  0  0  0  0
 18 10  1  0  0  0  0
 22 16  1  0  0  0  0
 23 24  1  0  0  0  0
 24 25  2  0  0  0  0
 24 31  1  0  0  0  0
 25 26  1  0  0  0  0
 26 27  1  0  0  0  0
 26 28  2  0  0  0  0
 28 29  1  0  0  0  0
 30 28  1  0  0  0  0
 31 30  2  0  0  0  0
 32  1  1  0  0  0  0
 33 32  1  0  0  0  0
 34 32  1  0  0  0  0
M  END
>  <minimizedAffinity>
-6.17118883

$$$$

 OpenBabel03272503573D

 34 37  0  0  0  0  0  0  0  0999 V2000
   35.6800   24.4900   31.2570 C   0  0  0  0  0  0  0  0  0  0  0  0
   35.6550   23.0770   31.2090 C   0  0  0  0  0  0  0  0  0  0  0  0
   36.5000   22.4200   32.1050 C   0  0  0  0  0  0  0  0  0  0  0  0
   37.2440   23.1510   32.9130 N   0  0  0  0  0  0  0  0  0  0  0  0
   37.2900   24.4680   32.9810 C   0  0  0  0  0  0  0  0  0  0  0  0
   36.4800   25.0890   32.1230 N   0  0  0  0  0  0  0  0  0  0  0  0
   34.9780   22.7160   30.4790 H   0  0  0  0  0  0  0  0  0  0  0  0
   38.0460   25.3990   33.8110 C   0  0  0  0  0  0  0  0  0  0  0  0
   37.5810   25.8860   34.9960 N   0  0  0  0  0  0  0  0  0  0  0  0
   38.2840   26.7130   35.7540 C   0  0  0  0  0  0  0  0  0  0  0  0
   39.5140   27.1580   35.4470 N   0  0  0  0  0  0  0  0  0  0  0  0
   40.0440   26.7210   34.2870 C   0  0  0  0  0  0  0  0  0  0  0  0
   41.3000   27.1640   33.9560 C   0  0  0  0  0  0  0  0  0  0  0  0
   41.8910   26.7470   32.7740 C   0  0  0  0  0  0  0  0  0  0  0  0
   41.1570   25.8840   31.9770 C   0  0  0  0  0  0  0  0  0  0  0  0
   39.9040   25.4760   32.3640 C   0  0  0  0  0  0  0  0  0  0  0  0
   39.2950   25.8650   33.5190 C   0  0  0  0  0  0  0  0  0  0  0  0
   37.8840   27.0990   36.7170 H   0  0  0  0  0  0  0  0  0  0  0  0
   41.8300   27.8400   34.6150 H   0  0  0  0  0  0  0  0  0  0  0  0
   42.8690   27.1200   32.5650 H   0  0  0  0  0  0  0  0  0  0  0  0
   41.6650   25.5910   31.0680 H   0  0  0  0  0  0  0  0  0  0  0  0
   39.4580   24.8330   31.6320 H   0  0  0  0  0  0  0  0  0  0  0  0
   38.6420   20.8550   30.3180 Br  0  0  0  0  0  0  0  0  0  0  0  0
   37.2400   20.1410   31.3840 C   0  0  0  0  0  0  0  0  0  0  0  0
   36.4250   20.9760   32.0830 C   0  0  0  0  0  0  0  0  0  0  0  0
   35.4870   20.3000   32.8350 C   0  0  0  0  0  0  0  0  0  0  0  0
   34.7480   20.7780   33.4560 H   0  0  0  0  0  0  0  0  0  0  0  0
   35.3870   18.9410   32.8730 C   0  0  0  0  0  0  0  0  0  0  0  0
   34.6390   18.3970   33.4720 H   0  0  0  0  0  0  0  0  0  0  0  0
   36.2310   18.1340   32.1490 C   0  0  0  0  0  3  0  0  0  0  0  0
   37.2000   18.7730   31.3720 C   0  0  0  0  0  3  0  0  0  0  0  0
   34.8430   25.2990   30.4030 N   0  0  0  0  0  0  0  0  0  0  0  0
   35.1540   25.9920   29.6940 H   0  0  0  0  0  0  0  0  0  0  0  0
   33.8420   25.0910   30.5990 H   0  0  0  0  0  0  0  0  0  0  0  0
  1  6  1  0  0  0  0
  2  1  2  0  0  0  0
  2  3  1  0  0  0  0
  3  4  2  0  0  0  0
  4  5  1  0  0  0  0
  5  8  1  0  0  0  0
  6  5  2  0  0  0  0
  7  2  1  0  0  0  0
  8  9  1  0  0  0  0
  9 10  2  0  0  0  0
 10 18  1  0  0  0  0
 11 10  1  0  0  0  0
 12 11  2  0  0  0  0
 13 12  1  0  0  0  0
 13 19  1  0  0  0  0
 14 13  2  0  0  0  0
 15 16  2  0  0  0  0
 15 14  1  0  0  0  0
 16 17  1  0  0  0  0
 17  8  2  0  0  0  0
 17 12  1  0  0  0  0
 20 14  1  0  0  0  0
 21 15  1  0  0  0  0
 22 16  1  0  0  0  0
 23 24  1  0  0  0  0
 24 25  1  0  0  0  0
 25  3  1  0  0  0  0
 25 26  2  0  0  0  0
 26 28  1  0  0  0  0
 26 27  1  0  0  0  0
 28 29  1  0  0  0  0
 30 28  2  0  0  0  0
 31 24  2  0  0  0  0
 31 30  1  0  0  0  0
 32 34  1  0  0  0  0
 32  1  1  0  0  0  0
 33 32  1  0  0  0  0
M  END
>  <minimizedAffinity>
-6.07220316

$$$$

 OpenBabel03272503573D

 34 37  0  0  0  0  0  0  0  0999 V2000
   37.3580   22.5460   32.6240 C   0  0  0  0  0  0  0  0  0  0  0  0
   37.6670   22.4440   34.0000 C   0  0  0  0  0  0  0  0  0  0  0  0
   38.2250   23.5810   34.5860 C   0  0  0  0  0  0  0  0  0  0  0  0
   38.4200   24.6440   33.8280 N   0  0  0  0  0  0  0  0  0  0  0  0
   38.1430   24.7690   32.5450 C   0  0  0  0  0  0  0  0  0  0  0  0
   37.6100   23.6790   31.9910 N   0  0  0  0  0  0  0  0  0  0  0  0
   37.4210   21.4930   34.3940 H   0  0  0  0  0  0  0  0  0  0  0  0
   38.2960   25.8630   31.5920 C   0  0  0  0  0  0  0  0  0  0  0  0
   39.1720   25.8240   30.5490 N   0  0  0  0  0  0  0  0  0  0  0  0
   39.2870   26.8130   29.6750 C   0  0  0  0  0  0  0  0  0  0  0  0
   38.5670   27.9460   29.7180 N   0  0  0  0  0  0  0  0  0  0  0  0
   37.6770   28.0610   30.7250 C   0  0  0  0  0  0  0  0  0  0  0  0
   36.9320   29.2110   30.7850 C   0  0  0  0  0  0  0  0  0  0  0  0
   36.0030   29.3810   31.8000 C   0  0  0  0  0  0  0  0  0  0  0  0
   35.8820   28.3500   32.7170 C   0  0  0  0  0  0  0  0  0  0  0  0
   36.6570   27.2220   32.6020 C   0  0  0  0  0  0  0  0  0  0  0  0
   37.5770   27.0230   31.6170 C   0  0  0  0  0  0  0  0  0  0  0  0
   40.0090   26.7600   28.8320 H   0  0  0  0  0  0  0  0  0  0  0  0
   37.0670   29.9870   30.0420 H   0  0  0  0  0  0  0  0  0  0  0  0
   35.4490   30.2930   31.8000 H   0  0  0  0  0  0  0  0  0  0  0  0
   35.1450   28.5340   33.4860 H   0  0  0  0  0  0  0  0  0  0  0  0
   36.4650   26.5320   33.3980 H   0  0  0  0  0  0  0  0  0  0  0  0
   41.0360   22.3510   35.4920 Br  0  0  0  0  0  0  0  0  0  0  0  0
   39.6140   22.9870   36.5810 C   0  0  0  0  0  0  0  0  0  0  0  0
   38.4860   23.4830   36.0050 C   0  0  0  0  0  0  0  0  0  0  0  0
   37.5700   23.9380   36.9310 C   0  0  0  0  0  0  0  0  0  0  0  0
   36.6140   24.3650   36.6790 H   0  0  0  0  0  0  0  0  0  0  0  0
   37.7740   23.8950   38.2790 C   0  0  0  0  0  0  0  0  0  0  0  0
   37.0450   24.2560   39.0220 H   0  0  0  0  0  0  0  0  0  0  0  0
   38.9290   23.3830   38.8180 C   0  0  0  0  0  3  0  0  0  0  0  0
   39.8880   22.9100   37.9200 C   0  0  0  0  0  3  0  0  0  0  0  0
   36.7580   21.4560   31.8930 N   0  0  0  0  0  0  0  0  0  0  0  0
   37.1560   20.9530   31.0750 H   0  0  0  0  0  0  0  0  0  0  0  0
   35.8310   21.2260   32.3090 H   0  0  0  0  0  0  0  0  0  0  0  0
  1  2  1  0  0  0  0
  2  7  1  0  0  0  0
  2  3  2  0  0  0  0
  3 25  1  0  0  0  0
  4  3  1  0  0  0  0
  5  4  2  0  0  0  0
  6  5  1  0  0  0  0
  6  1  2  0  0  0  0
  8 17  1  0  0  0  0
  8  5  1  0  0  0  0
  9  8  2  0  0  0  0
 10 11  2  0  0  0  0
 10  9  1  0  0  0  0
 11 12  1  0  0  0  0
 12 13  2  0  0  0  0
 12 17  1  0  0  0  0
 13 14  1  0  0  0  0
 14 15  2  0  0  0  0
 15 21  1  0  0  0  0
 16 15  1  0  0  0  0
 16 22  1  0  0  0  0
 17 16  2  0  0  0  0
 18 10  1  0  0  0  0
 19 13  1  0  0  0  0
 20 14  1  0  0  0  0
 23 24  1  0  0  0  0
 24 31  1  0  0  0  0
 25 24  2  0  0  0  0
 25 26  1  0  0  0  0
 26 28  2  0  0  0  0
 27 26  1  0  0  0  0
 28 30  1  0  0  0  0
 28 29  1  0  0  0  0
 31 30  2  0  0  0  0
 32 34  1  0  0  0  0
 32  1  1  0  0  0  0
 33 32  1  0  0  0  0
M  END
>  <minimizedAffinity>
-5.98572302

$$$$
