
 OpenBabel03262520073D

 18 19  0  0  0  0  0  0  0  0999 V2000
   37.9820   33.1700   49.4340 C   0  0  0  0  0  0  0  0  0  0  0  0
   39.0200   33.1620   48.4640 C   0  0  0  0  0  0  0  0  0  0  0  0
   39.0140   32.1220   47.5340 C   0  0  0  0  0  0  0  0  0  0  0  0
   38.0280   31.1740   47.5960 N   0  0  0  0  0  0  0  0  0  0  0  0
   37.0540   31.2260   48.5460 C   0  0  0  0  0  0  0  0  0  0  0  0
   37.0360   32.2230   49.4590 N   0  0  0  0  0  0  0  0  0  0  0  0
   37.9520   33.9610   50.1740 H   0  0  0  0  0  0  0  0  0  0  0  0
   39.7440   33.9440   48.4970 H   0  0  0  0  0  0  0  0  0  0  0  0
   39.7790   32.0880   46.7940 H   0  0  0  0  0  0  0  0  0  0  0  0
   37.2690   29.3550   51.0540 Br  0  0  0  0  0  0  0  0  0  0  0  0
   35.9560   29.3160   49.6650 C   0  0  0  0  0  0  0  0  0  0  0  0
   36.0000   30.2180   48.6160 C   0  0  0  0  0  0  0  0  0  0  0  0
   35.0160   30.1250   47.6530 C   0  0  0  0  0  0  0  0  0  0  0  0
   35.0800   30.8360   46.8600 H   0  0  0  0  0  0  0  0  0  0  0  0
   34.0020   29.1840   47.6870 C   0  0  0  0  0  0  0  0  0  0  0  0
   33.2960   29.2300   46.8590 H   0  0  0  0  0  0  0  0  0  0  0  0
   33.9920   28.3010   48.7470 C   0  0  0  0  0  3  0  0  0  0  0  0
   34.9690   28.3750   49.7280 C   0  0  0  0  0  3  0  0  0  0  0  0
  1  6  1  0  0  0  0
  1  7  1  0  0  0  0
  2  8  1  0  0  0  0
  2  1  2  0  0  0  0
  3  4  2  0  0  0  0
  3  2  1  0  0  0  0
  4  5  1  0  0  0  0
  5 12  1  0  0  0  0
  5  6  2  0  0  0  0
  9  3  1  0  0  0  0
 11 18  1  0  0  0  0
 11 10  1  0  0  0  0
 12 11  2  0  0  0  0
 13 15  2  0  0  0  0
 13 12  1  0  0  0  0
 14 13  1  0  0  0  0
 15 17  1  0  0  0  0
 16 15  1  0  0  0  0
 17 18  2  0  0  0  0
M  END
>  <minimizedAffinity>
-5.37830019

>  <minimizedRMSD>
3.19048429

$$$$
