
 OpenBabel03272509503D

 33 35  0  0  0  0  0  0  0  0999 V2000
   37.4340   30.2890   51.2710 C   0  0  0  0  0  0  0  0  0  0  0  0
   37.9460   30.9850   50.1710 C   0  0  0  0  0  0  0  0  0  0  0  0
   37.4650   30.6940   48.9160 C   0  0  0  0  0  0  0  0  0  0  0  0
   36.5020   29.7160   48.8710 N   0  0  0  0  0  0  0  0  0  0  0  0
   36.0250   29.0600   49.9180 C   0  0  0  0  0  0  0  0  0  0  0  0
   36.5050   29.3600   51.1330 N   0  0  0  0  0  0  0  0  0  0  0  0
   37.8450   30.5530   52.2500 H   0  0  0  0  0  0  0  0  0  0  0  0
   38.6890   31.7000   50.2950 H   0  0  0  0  0  0  0  0  0  0  0  0
   35.7160   30.1570   46.2210 Br  0  0  0  0  0  0  0  0  0  0  0  0
   37.2800   31.1740   46.4160 C   0  0  0  0  0  0  0  0  0  0  0  0
   37.8610   31.2660   47.6420 C   0  0  0  0  0  0  0  0  0  0  0  0
   39.0310   32.0180   47.6250 C   0  0  0  0  0  0  0  0  0  0  0  0
   39.6360   32.2000   48.5280 H   0  0  0  0  0  0  0  0  0  0  0  0
   39.5510   32.6110   46.4970 C   0  0  0  0  0  0  0  0  0  0  0  0
   40.4530   33.1820   46.5290 H   0  0  0  0  0  0  0  0  0  0  0  0
   38.9090   32.4770   45.2900 C   0  0  0  0  0  3  0  0  0  0  0  0
   37.7630   31.7480   45.2670 C   0  0  0  0  0  3  0  0  0  0  0  0
   35.0710   28.1350   49.5960 O   0  0  0  0  0  0  0  0  0  0  0  0
   33.7660   28.5900   49.2520 C   0  0  0  0  0  0  0  0  0  0  0  0
   33.7350   29.6070   48.8670 H   0  0  0  0  0  0  0  0  0  0  0  0
   33.2020   28.6170   50.2290 H   0  0  0  0  0  0  0  0  0  0  0  0
   33.0780   27.5710   48.3910 C   0  0  0  0  0  0  0  0  0  0  0  0
   33.5660   27.6270   47.3790 H   0  0  0  0  0  0  0  0  0  0  0  0
   33.2060   26.5250   48.7400 H   0  0  0  0  0  0  0  0  0  0  0  0
   31.6420   27.9030   48.1650 C   0  0  0  0  0  0  0  0  0  0  0  0
   30.7650   27.6180   49.2040 C   0  0  0  0  0  0  0  0  0  0  0  0
   29.4170   27.8720   49.1390 C   0  0  0  0  0  0  0  0  0  0  0  0
   28.9460   28.4140   48.0240 N   0  0  0  0  0  0  0  0  0  0  0  0
   29.7940   28.6960   47.0000 C   0  0  0  0  0  0  0  0  0  0  0  0
   31.1240   28.4530   47.0460 N   0  0  0  0  0  0  0  0  0  0  0  0
   31.1530   27.1680   50.1300 H   0  0  0  0  0  0  0  0  0  0  0  0
   28.8030   27.6280   49.9740 H   0  0  0  0  0  0  0  0  0  0  0  0
   29.3530   29.1370   46.1170 H   0  0  0  0  0  0  0  0  0  0  0  0
  1  7  1  0  0  0  0
  2  8  1  0  0  0  0
  2  1  2  0  0  0  0
  3  2  1  0  0  0  0
  4  3  2  0  0  0  0
  4  5  1  0  0  0  0
  5  6  2  0  0  0  0
  6  1  1  0  0  0  0
  9 10  1  0  0  0  0
 10 11  1  0  0  0  0
 11  3  1  0  0  0  0
 12 11  2  0  0  0  0
 12 13  1  0  0  0  0
 14 15  1  0  0  0  0
 14 12  1  0  0  0  0
 16 14  2  0  0  0  0
 17 16  1  0  0  0  0
 17 10  2  0  0  0  0
 18  5  1  0  0  0  0
 19 18  1  0  0  0  0
 19 21  1  0  0  0  0
 20 19  1  0  0  0  0
 22 24  1  0  0  0  0
 22 19  1  0  0  0  0
 23 22  1  0  0  0  0
 25 22  1  0  0  0  0
 25 26  1  0  0  0  0
 26 31  1  0  0  0  0
 27 26  2  0  0  0  0
 27 32  1  0  0  0  0
 28 27  1  0  0  0  0
 29 30  1  0  0  0  0
 29 28  2  0  0  0  0
 30 25  2  0  0  0  0
 33 29  1  0  0  0  0
M  END
>  <minimizedAffinity>
-5.97902775

>  <minimizedRMSD>
0.672733188

$$$$
