
 OpenBabel03272510173D

 28 30  0  0  0  0  0  0  0  0999 V2000
   37.2300   29.3940   51.0440 Br  0  0  0  0  0  0  0  0  0  0  0  0
   35.9490   29.3480   49.6350 C   0  0  0  0  0  0  0  0  0  0  0  0
   36.0220   30.2310   48.5780 C   0  0  0  0  0  0  0  0  0  0  0  0
   35.0600   30.1520   47.5770 C   0  0  0  0  0  0  0  0  0  0  0  0
   34.0380   29.2100   47.6230 C   0  0  0  0  0  0  0  0  0  0  0  0
   33.9890   28.3470   48.6830 C   0  0  0  0  0  0  0  0  0  0  0  0
   34.9390   28.4200   49.6780 C   0  0  0  0  0  0  0  0  0  0  0  0
   35.1730   30.8700   46.7770 H   0  0  0  0  0  0  0  0  0  0  0  0
   33.1810   27.6260   48.6900 H   0  0  0  0  0  0  0  0  0  0  0  0
   34.8810   27.7280   50.5070 H   0  0  0  0  0  0  0  0  0  0  0  0
   38.0120   33.1680   49.4210 C   0  0  0  0  0  0  0  0  0  0  0  0
   39.0610   33.1610   48.4530 C   0  0  0  0  0  0  0  0  0  0  0  0
   39.0530   32.1250   47.5200 C   0  0  0  0  0  0  0  0  0  0  0  0
   38.0620   31.1800   47.5700 N   0  0  0  0  0  0  0  0  0  0  0  0
   37.0910   31.2330   48.5080 C   0  0  0  0  0  0  0  0  0  0  0  0
   37.0620   32.2260   49.4380 N   0  0  0  0  0  0  0  0  0  0  0  0
   37.9650   33.9380   50.1640 H   0  0  0  0  0  0  0  0  0  0  0  0
   39.8010   33.9390   48.4800 H   0  0  0  0  0  0  0  0  0  0  0  0
   39.8320   32.0870   46.7700 H   0  0  0  0  0  0  0  0  0  0  0  0
   33.7230   26.5620   45.9560 Br  0  0  0  0  0  0  0  0  0  0  0  0
   32.8270   28.2060   45.6490 C   0  0  0  0  0  0  0  0  0  0  0  0
   33.1070   29.2540   46.5000 C   0  0  0  0  0  0  0  0  0  0  0  0
   32.4420   30.4610   46.2670 C   0  0  0  0  0  0  0  0  0  0  0  0
   32.5600   31.3660   46.8480 H   0  0  0  0  0  0  0  0  0  0  0  0
   31.5370   30.5670   45.2060 C   0  0  0  0  0  0  0  0  0  0  0  0
   30.9960   31.4940   44.9900 H   0  0  0  0  0  0  0  0  0  0  0  0
   31.2780   29.5000   44.3730 C   0  0  0  0  0  3  0  0  0  0  0  0
   31.9380   28.3130   44.6080 C   0  0  0  0  0  3  0  0  0  0  0  0
  2  7  1  0  0  0  0
  2  1  1  0  0  0  0
  3  2  2  0  0  0  0
  4  5  2  0  0  0  0
  4  3  1  0  0  0  0
  5  6  1  0  0  0  0
  6  9  1  0  0  0  0
  6  7  2  0  0  0  0
  7 10  1  0  0  0  0
  8  4  1  0  0  0  0
 11 16  1  0  0  0  0
 11 17  1  0  0  0  0
 12 18  1  0  0  0  0
 12 11  2  0  0  0  0
 13 14  2  0  0  0  0
 13 12  1  0  0  0  0
 14 15  1  0  0  0  0
 15  3  1  0  0  0  0
 15 16  2  0  0  0  0
 19 13  1  0  0  0  0
 21 20  1  0  0  0  0
 21 22  1  0  0  0  0
 22  5  1  0  0  0  0
 23 22  2  0  0  0  0
 23 24  1  0  0  0  0
 25 23  1  0  0  0  0
 26 25  1  0  0  0  0
 27 28  1  0  0  0  0
 27 25  2  0  0  0  0
 28 21  2  0  0  0  0
M  END
>  <minimizedAffinity>
-6.03577757

>  <minimizedRMSD>
0.202904567

$$$$
