
 OpenBabel03262521033D

 18 19  0  0  0  0  0  0  0  0999 V2000
   37.9350   30.0630   49.8840 C   0  0  0  0  0  0  0  0  0  0  0  0
   37.4490   30.6770   48.7200 C   0  0  0  0  0  0  0  0  0  0  0  0
   36.0490   30.7360   48.5470 C   0  0  0  0  0  0  0  0  0  0  0  0
   35.2530   30.1920   49.5280 N   0  0  0  0  0  0  0  0  0  0  0  0
   35.7770   29.6150   50.6240 C   0  0  0  0  0  0  0  0  0  0  0  0
   37.1120   29.5490   50.8050 N   0  0  0  0  0  0  0  0  0  0  0  0
   38.9920   30.0190   50.0110 H   0  0  0  0  0  0  0  0  0  0  0  0
   35.5640   31.1760   47.7080 H   0  0  0  0  0  0  0  0  0  0  0  0
   35.0940   29.2120   51.3460 H   0  0  0  0  0  0  0  0  0  0  0  0
   38.6980   33.5120   49.2650 Br  0  0  0  0  0  0  0  0  0  0  0  0
   38.9400   32.4710   47.6960 C   0  0  0  0  0  0  0  0  0  0  0  0
   38.2920   31.2540   47.6800 C   0  0  0  0  0  0  0  0  0  0  0  0
   38.4210   30.4300   46.5580 C   0  0  0  0  0  0  0  0  0  0  0  0
   37.9500   29.4420   46.4360 H   0  0  0  0  0  0  0  0  0  0  0  0
   39.2010   30.8520   45.4770 C   0  0  0  0  0  0  0  0  0  0  0  0
   39.3330   30.2520   44.5870 H   0  0  0  0  0  0  0  0  0  0  0  0
   39.8090   32.0650   45.5680 C   0  0  0  0  0  0  0  0  0  0  0  0
   39.7060   32.9050   46.6570 C   0  0  0  0  0  0  0  0  0  0  0  0
  1  7  1  0  0  0  0
  1  6  1  0  0  0  0
  2  1  2  0  0  0  0
  3  2  1  0  0  0  0
  3  4  2  0  0  0  0
  4  5  1  0  0  0  0
  5  6  2  0  0  0  0
  5  9  1  0  0  0  0
  8  3  1  0  0  0  0
 11 10  1  0  0  0  0
 12 11  1  0  0  0  0
 12  2  1  0  0  0  0
 13 12  2  0  0  0  0
 14 13  1  0  0  0  0
 15 17  2  0  0  0  0
 15 13  1  0  0  0  0
 16 15  1  0  0  0  0
 17 18  1  0  0  0  0
 18 11  2  0  0  0  0
M  END
>  <minimizedAffinity>
-5.09091759

>  <minimizedRMSD>
3.47998285

$$$$
