
 OpenBabel03272509543D

 43 46  0  0  0  0  0  0  0  0999 V2000
   34.1100   29.0280   48.1720 C   0  0  0  0  0  0  0  0  0  0  0  0
   33.4190   29.5690   48.8500 H   0  0  0  0  0  0  0  0  0  0  0  0
   34.5810   29.7860   47.5100 H   0  0  0  0  0  0  0  0  0  0  0  0
   33.3090   28.0100   47.4250 C   0  0  0  0  0  0  0  0  0  0  0  0
   33.6940   26.9820   47.4940 H   0  0  0  0  0  0  0  0  0  0  0  0
   33.3260   28.2550   46.3280 H   0  0  0  0  0  0  0  0  0  0  0  0
   31.8740   28.0060   47.8230 C   0  0  0  0  0  0  0  0  0  0  0  0
   31.5600   27.7440   49.1430 C   0  0  0  0  0  0  0  0  0  0  0  0
   30.2720   27.7210   49.5850 C   0  0  0  0  0  0  0  0  0  0  0  0
   29.2860   27.9540   48.7420 N   0  0  0  0  0  0  0  0  0  0  0  0
   29.5820   28.2150   47.4330 C   0  0  0  0  0  0  0  0  0  0  0  0
   30.8530   28.2450   46.9590 N   0  0  0  0  0  0  0  0  0  0  0  0
   32.3620   27.5510   49.8420 H   0  0  0  0  0  0  0  0  0  0  0  0
   30.0710   27.5090   50.6430 H   0  0  0  0  0  0  0  0  0  0  0  0
   28.5600   25.6070   46.1080 Br  0  0  0  0  0  0  0  0  0  0  0  0
   27.9390   27.3970   45.7930 C   0  0  0  0  0  0  0  0  0  0  0  0
   28.5070   28.4770   46.4740 C   0  0  0  0  0  0  0  0  0  0  0  0
   28.0360   29.7440   46.2220 C   0  0  0  0  0  0  0  0  0  0  0  0
   28.4600   30.5920   46.7370 H   0  0  0  0  0  0  0  0  0  0  0  0
   27.0240   29.9870   45.3200 C   0  0  0  0  0  0  0  0  0  0  0  0
   26.6640   30.9790   45.1310 H   0  0  0  0  0  0  0  0  0  0  0  0
   26.4980   28.8900   44.6740 C   0  0  0  0  0  3  0  0  0  0  0  0
   26.9090   27.5840   44.8650 C   0  0  0  0  0  3  0  0  0  0  0  0
   35.0590   28.3960   49.0050 O   0  0  0  0  0  0  0  0  0  0  0  0
   37.2040   30.0740   51.3800 C   0  0  0  0  0  0  0  0  0  0  0  0
   38.0030   30.8460   50.5050 C   0  0  0  0  0  0  0  0  0  0  0  0
   37.7440   30.7330   49.1440 C   0  0  0  0  0  0  0  0  0  0  0  0
   36.7320   29.8780   48.7820 N   0  0  0  0  0  0  0  0  0  0  0  0
   36.0010   29.1680   49.6270 C   0  0  0  0  0  0  0  0  0  0  0  0
   36.2520   29.2770   50.9540 N   0  0  0  0  0  0  0  0  0  0  0  0
   37.4370   30.1900   52.4380 H   0  0  0  0  0  0  0  0  0  0  0  0
   38.7970   31.5160   50.7900 H   0  0  0  0  0  0  0  0  0  0  0  0
   38.8010   33.4300   49.1940 F   0  0  0  0  0  0  0  0  0  0  0  0
   38.9490   32.6950   48.1010 C   0  0  0  0  0  0  0  0  0  0  0  0
   38.4490   31.4370   48.0950 C   0  0  0  0  0  0  0  0  0  0  0  0
   38.6620   30.7550   46.8950 C   0  0  0  0  0  0  0  0  0  0  0  0
   39.3140   31.3120   45.8310 C   0  0  0  0  0  0  0  0  0  0  0  0
   39.8020   32.5850   45.8800 C   0  0  0  0  0  0  0  0  0  0  0  0
   39.6120   33.2810   47.0370 C   0  0  0  0  0  0  0  0  0  0  0  0
   38.3110   29.7240   46.7450 H   0  0  0  0  0  0  0  0  0  0  0  0
   39.4640   30.7530   44.9070 H   0  0  0  0  0  0  0  0  0  0  0  0
   40.3150   33.0030   45.0240 H   0  0  0  0  0  0  0  0  0  0  0  0
   39.9860   34.2900   47.1090 H   0  0  0  0  0  0  0  0  0  0  0  0
  1  2  1  0  0  0  0
  1 24  1  0  0  0  0
  3  1  1  0  0  0  0
  4  5  1  0  0  0  0
  4  7  1  0  0  0  0
  4  1  1  0  0  0  0
  6  4  1  0  0  0  0
  7  8  1  0  0  0  0
  8  9  2  0  0  0  0
  8 13  1  0  0  0  0
  9 14  1  0  0  0  0
 10  9  1  0  0  0  0
 11 10  2  0  0  0  0
 12 11  1  0  0  0  0
 12  7  2  0  0  0  0
 16 15  1  0  0  0  0
 16 17  1  0  0  0  0
 17 11  1  0  0  0  0
 18 17  2  0  0  0  0
 18 19  1  0  0  0  0
 20 18  1  0  0  0  0
 21 20  1  0  0  0  0
 22 23  1  0  0  0  0
 22 20  2  0  0  0  0
 23 16  2  0  0  0  0
 24 29  1  0  0  0  0
 25 31  1  0  0  0  0
 26 32  1  0  0  0  0
 26 25  2  0  0  0  0
 27 26  1  0  0  0  0
 28 27  2  0  0  0  0
 28 29  1  0  0  0  0
 29 30  2  0  0  0  0
 30 25  1  0  0  0  0
 34 33  1  0  0  0  0
 35 34  1  0  0  0  0
 35 27  1  0  0  0  0
 36 35  2  0  0  0  0
 37 38  2  0  0  0  0
 37 36  1  0  0  0  0
 38 39  1  0  0  0  0
 39 43  1  0  0  0  0
 39 34  2  0  0  0  0
 40 36  1  0  0  0  0
 41 37  1  0  0  0  0
 42 38  1  0  0  0  0
M  END
>  <minimizedAffinity>
-6.95356512

>  <minimizedRMSD>
1.29500914

$$$$
