
 OpenBabel03272509543D

 43 46  0  0  0  0  0  0  0  0999 V2000
   34.0900   28.9890   48.2020 C   0  0  0  0  0  0  0  0  0  0  0  0
   33.4060   29.5580   48.8660 H   0  0  0  0  0  0  0  0  0  0  0  0
   34.5570   29.7210   47.5080 H   0  0  0  0  0  0  0  0  0  0  0  0
   33.2800   27.9470   47.5000 C   0  0  0  0  0  0  0  0  0  0  0  0
   33.6480   26.9180   47.6240 H   0  0  0  0  0  0  0  0  0  0  0  0
   33.3090   28.1360   46.3920 H   0  0  0  0  0  0  0  0  0  0  0  0
   31.8420   27.9840   47.8850 C   0  0  0  0  0  0  0  0  0  0  0  0
   31.5110   27.7630   49.2090 C   0  0  0  0  0  0  0  0  0  0  0  0
   30.2180   27.7800   49.6400 C   0  0  0  0  0  0  0  0  0  0  0  0
   29.2450   28.0130   48.7820 N   0  0  0  0  0  0  0  0  0  0  0  0
   29.5580   28.2330   47.4700 C   0  0  0  0  0  0  0  0  0  0  0  0
   30.8330   28.2230   47.0060 N   0  0  0  0  0  0  0  0  0  0  0  0
   32.3020   27.5720   49.9200 H   0  0  0  0  0  0  0  0  0  0  0  0
   30.0040   27.6000   50.7010 H   0  0  0  0  0  0  0  0  0  0  0  0
   28.5330   25.6200   46.1580 Br  0  0  0  0  0  0  0  0  0  0  0  0
   27.9300   27.4100   45.8170 C   0  0  0  0  0  0  0  0  0  0  0  0
   28.4970   28.4930   46.4950 C   0  0  0  0  0  0  0  0  0  0  0  0
   28.0390   29.7610   46.2230 C   0  0  0  0  0  0  0  0  0  0  0  0
   28.4620   30.6110   46.7360 H   0  0  0  0  0  0  0  0  0  0  0  0
   27.0390   30.0030   45.3060 C   0  0  0  0  0  0  0  0  0  0  0  0
   26.6900   30.9960   45.1020 H   0  0  0  0  0  0  0  0  0  0  0  0
   26.5130   28.9030   44.6640 C   0  0  0  0  0  3  0  0  0  0  0  0
   26.9120   27.5960   44.8750 C   0  0  0  0  0  3  0  0  0  0  0  0
   35.0450   28.3860   49.0500 O   0  0  0  0  0  0  0  0  0  0  0  0
   37.2770   30.1410   51.2840 C   0  0  0  0  0  0  0  0  0  0  0  0
   38.0600   30.8620   50.3520 C   0  0  0  0  0  0  0  0  0  0  0  0
   37.7600   30.6910   49.0050 C   0  0  0  0  0  0  0  0  0  0  0  0
   36.7280   29.8340   48.7120 N   0  0  0  0  0  0  0  0  0  0  0  0
   36.0130   29.1720   49.6080 C   0  0  0  0  0  0  0  0  0  0  0  0
   36.3040   29.3380   50.9220 N   0  0  0  0  0  0  0  0  0  0  0  0
   37.5420   30.3020   52.3280 H   0  0  0  0  0  0  0  0  0  0  0  0
   38.8690   31.5330   50.5840 H   0  0  0  0  0  0  0  0  0  0  0  0
   38.9230   33.3430   48.9300 F   0  0  0  0  0  0  0  0  0  0  0  0
   38.9920   32.5740   47.8530 C   0  0  0  0  0  0  0  0  0  0  0  0
   38.4430   31.3370   47.9060 C   0  0  0  0  0  0  0  0  0  0  0  0
   38.5740   30.6140   46.7180 C   0  0  0  0  0  0  0  0  0  0  0  0
   39.1970   31.1160   45.6100 C   0  0  0  0  0  0  0  0  0  0  0  0
   39.7370   32.3690   45.6000 C   0  0  0  0  0  0  0  0  0  0  0  0
   39.6280   33.1020   46.7440 C   0  0  0  0  0  0  0  0  0  0  0  0
   38.1760   29.5940   46.6140 H   0  0  0  0  0  0  0  0  0  0  0  0
   39.2830   30.5250   44.6970 H   0  0  0  0  0  0  0  0  0  0  0  0
   40.2250   32.7420   44.7100 H   0  0  0  0  0  0  0  0  0  0  0  0
   40.0440   34.0970   46.7690 H   0  0  0  0  0  0  0  0  0  0  0  0
  1  2  1  0  0  0  0
  1 24  1  0  0  0  0
  3  1  1  0  0  0  0
  4  5  1  0  0  0  0
  4  7  1  0  0  0  0
  4  1  1  0  0  0  0
  6  4  1  0  0  0  0
  7  8  1  0  0  0  0
  8  9  2  0  0  0  0
  8 13  1  0  0  0  0
  9 14  1  0  0  0  0
 10  9  1  0  0  0  0
 11 10  2  0  0  0  0
 12 11  1  0  0  0  0
 12  7  2  0  0  0  0
 16 15  1  0  0  0  0
 16 17  1  0  0  0  0
 17 11  1  0  0  0  0
 18 17  2  0  0  0  0
 18 19  1  0  0  0  0
 20 18  1  0  0  0  0
 21 20  1  0  0  0  0
 22 23  1  0  0  0  0
 22 20  2  0  0  0  0
 23 16  2  0  0  0  0
 24 29  1  0  0  0  0
 25 31  1  0  0  0  0
 26 32  1  0  0  0  0
 26 25  2  0  0  0  0
 27 26  1  0  0  0  0
 28 27  2  0  0  0  0
 28 29  1  0  0  0  0
 29 30  2  0  0  0  0
 30 25  1  0  0  0  0
 34 35  1  0  0  0  0
 34 33  1  0  0  0  0
 35 27  1  0  0  0  0
 36 35  2  0  0  0  0
 37 36  1  0  0  0  0
 38 37  2  0  0  0  0
 38 39  1  0  0  0  0
 39 43  1  0  0  0  0
 39 34  2  0  0  0  0
 40 36  1  0  0  0  0
 41 37  1  0  0  0  0
 42 38  1  0  0  0  0
M  END
>  <minimizedAffinity>
-6.97089767

>  <minimizedRMSD>
1.24471855

$$$$
