
 OpenBabel03272508373D

 44 47  0  0  1  0  0  0  0  0999 V2000
   40.4140   31.6460   44.3710 C   0  0  0  0  0  0  0  0  0  0  0  0
   41.5360   31.6610   44.3580 H   0  0  0  0  0  0  0  0  0  0  0  0
   40.1910   30.5770   44.6620 H   0  0  0  0  0  0  0  0  0  0  0  0
   39.9920   31.7960   43.0380 N   0  0  0  0  0  0  0  0  0  0  0  0
   39.4150   33.0320   42.6940 C   0  0  0  0  0  0  0  0  0  0  0  0
   37.9990   33.0000   42.2490 C   0  0  0  0  0  0  0  0  0  0  0  0
   37.7080   31.8990   41.4410 O   0  0  0  0  0  0  0  0  0  0  0  0
   38.0490   30.7360   42.0500 C   0  0  0  0  0  0  0  0  0  0  0  0
   39.5110   30.6760   42.3620 C   0  0  1  0  0  0  0  0  0  0  0  0
   39.6470   33.9210   43.2810 H   0  0  0  0  0  0  0  0  0  0  0  0
   40.0160   33.2660   41.7780 H   0  0  0  0  0  0  0  0  0  0  0  0
   37.9500   33.8180   41.4270 H   0  0  0  0  0  0  0  0  0  0  0  0
   37.2210   33.3910   42.8710 H   0  0  0  0  0  0  0  0  0  0  0  0
   37.9590   30.0000   41.2040 H   0  0  0  0  0  0  0  0  0  0  0  0
   37.3600   30.2970   42.7640 H   0  0  0  0  0  0  0  0  0  0  0  0
   39.5410   29.8440   43.1680 H   0  0  0  0  0  0  0  0  0  0  0  0
   39.7700   27.5830   42.4640 Br  0  0  0  0  0  0  0  0  0  0  0  0
   40.6000   28.7510   41.1710 C   0  0  0  0  0  0  0  0  0  0  0  0
   40.3630   30.1290   41.2980 C   0  0  0  0  0  0  0  0  0  0  0  0
   41.0200   30.8180   40.3060 C   0  0  0  0  0  0  0  0  0  0  0  0
   40.9320   31.8900   40.2610 H   0  0  0  0  0  0  0  0  0  0  0  0
   41.8070   30.2840   39.3130 C   0  0  0  0  0  0  0  0  0  0  0  0
   42.2920   30.8900   38.5670 H   0  0  0  0  0  0  0  0  0  0  0  0
   41.9770   28.9180   39.2790 C   0  0  0  0  0  3  0  0  0  0  0  0
   41.3680   28.1180   40.2190 C   0  0  0  0  0  3  0  0  0  0  0  0
   39.8620   32.5120   45.3910 C   0  0  0  0  0  0  0  0  0  0  0  0
   40.7030   32.7260   46.1320 H   0  0  0  0  0  0  0  0  0  0  0  0
   39.4510   33.4910   45.2100 H   0  0  0  0  0  0  0  0  0  0  0  0
   37.7400   30.9410   47.8210 C   0  0  0  0  0  0  0  0  0  0  0  0
   36.9650   30.8090   46.6850 C   0  0  0  0  0  0  0  0  0  0  0  0
   37.6800   31.3870   45.6310 C   0  0  0  0  0  0  0  0  0  0  0  0
   38.8230   31.8290   46.1550 N   0  0  0  0  0  0  0  0  0  0  0  0
   38.8580   31.5620   47.4670 N   0  0  0  0  0  0  0  0  0  0  0  0
   35.9650   30.3350   46.6310 H   0  0  0  0  0  0  0  0  0  0  0  0
   37.2260   31.3630   44.7100 H   0  0  0  0  0  0  0  0  0  0  0  0
   37.4540   30.1920   51.4860 C   0  0  0  0  0  0  0  0  0  0  0  0
   37.9530   30.7100   50.3110 C   0  0  0  0  0  0  0  0  0  0  0  0
   37.3110   30.4530   49.1080 C   0  0  0  0  0  0  0  0  0  0  0  0
   36.2020   29.6810   49.2040 N   0  0  0  0  0  0  0  0  0  0  0  0
   35.7200   29.1780   50.3680 C   0  0  0  0  0  0  0  0  0  0  0  0
   36.3620   29.4460   51.4930 N   0  0  0  0  0  0  0  0  0  0  0  0
   38.0650   30.4800   52.3440 H   0  0  0  0  0  0  0  0  0  0  0  0
   38.8450   31.3310   50.2300 H   0  0  0  0  0  0  0  0  0  0  0  0
   34.8240   28.5650   50.3740 H   0  0  0  0  0  0  0  0  0  0  0  0
  1  3  1  0  0  0  0
  1 26  1  0  0  0  0
  2  1  1  0  0  0  0
  4  1  1  0  0  0  0
  5  4  1  0  0  0  0
  5 10  1  0  0  0  0
  6  5  1  0  0  0  0
  6 13  1  0  0  0  0
  7  8  1  0  0  0  0
  7  6  1  0  0  0  0
  8  9  1  0  0  0  0
  8 15  1  0  0  0  0
  9  4  1  0  0  0  0
  9 16  1  1  0  0  0
 11  5  1  0  0  0  0
 12  6  1  0  0  0  0
 14  8  1  0  0  0  0
 18 19  1  0  0  0  0
 18 17  1  0  0  0  0
 19  9  1  0  0  0  0
 20 19  2  0  0  0  0
 21 20  1  0  0  0  0
 22 20  1  0  0  0  0
 23 22  1  0  0  0  0
 24 22  2  0  0  0  0
 24 25  1  0  0  0  0
 25 18  2  0  0  0  0
 26 27  1  0  0  0  0
 26 32  1  0  0  0  0
 28 26  1  0  0  0  0
 29 38  1  0  0  0  0
 30 29  1  0  0  0  0
 31 32  1  0  0  0  0
 31 30  2  0  0  0  0
 32 33  1  0  0  0  0
 33 29  2  0  0  0  0
 34 30  1  0  0  0  0
 35 31  1  0  0  0  0
 36 41  1  0  0  0  0
 36 42  1  0  0  0  0
 37 36  2  0  0  0  0
 38 39  2  0  0  0  0
 38 37  1  0  0  0  0
 39 40  1  0  0  0  0
 40 44  1  0  0  0  0
 40 41  2  0  0  0  0
 43 37  1  0  0  0  0
M  END
>  <minimizedAffinity>
-5.85280085

>  <minimizedRMSD>
0.998249054

$$$$
