
 OpenBabel03262520143D

 42 44  0  0  0  0  0  0  0  0999 V2000
   37.0690   27.7250   31.6710 C   0  0  0  0  0  0  0  0  0  0  0  0
   37.7760   27.4990   30.8190 H   0  0  0  0  0  0  0  0  0  0  0  0
   36.8800   28.8230   31.6060 H   0  0  0  0  0  0  0  0  0  0  0  0
   40.0290   26.6890   31.3570 Br  0  0  0  0  0  0  0  0  0  0  0  0
   39.0880   27.0540   32.9970 C   0  0  0  0  0  0  0  0  0  0  0  0
   39.7060   26.8700   34.2140 C   0  0  0  0  0  0  0  0  0  0  0  0
   38.9910   27.1330   35.3410 C   0  0  0  0  0  0  0  0  0  0  0  0
   37.6760   27.5760   35.3000 C   0  0  0  0  0  0  0  0  0  0  0  0
   37.0820   27.7520   34.0500 C   0  0  0  0  0  0  0  0  0  0  0  0
   37.7980   27.4880   32.9150 C   0  0  0  0  0  0  0  0  0  0  0  0
   39.5370   26.9690   36.2860 H   0  0  0  0  0  0  0  0  0  0  0  0
   37.2650   27.7350   36.2660 H   0  0  0  0  0  0  0  0  0  0  0  0
   36.0840   28.0750   34.2320 H   0  0  0  0  0  0  0  0  0  0  0  0
   43.3510   26.8880   33.9570 C   0  0  0  0  0  0  0  0  0  0  0  0
   43.7260   25.5830   34.4050 C   0  0  0  0  0  0  0  0  0  0  0  0
   42.7050   24.7350   34.7840 C   0  0  0  0  0  0  0  0  0  0  0  0
   41.3970   25.1550   34.7210 N   0  0  0  0  0  0  0  0  0  0  0  0
   41.0960   26.3950   34.2900 C   0  0  0  0  0  0  0  0  0  0  0  0
   42.0720   27.2370   33.9170 N   0  0  0  0  0  0  0  0  0  0  0  0
   44.1120   27.5800   33.6520 H   0  0  0  0  0  0  0  0  0  0  0  0
   44.7650   25.3640   34.4140 H   0  0  0  0  0  0  0  0  0  0  0  0
   42.9790   23.7490   35.1230 H   0  0  0  0  0  0  0  0  0  0  0  0
   35.7560   27.0510   31.5200 C   0  0  0  0  0  0  0  0  0  0  0  0
   34.9600   27.7630   31.4580 H   0  0  0  0  0  0  0  0  0  0  0  0
   35.5930   26.5540   32.5410 H   0  0  0  0  0  0  0  0  0  0  0  0
   35.8730   25.9740   30.6160 N   0  0  0  0  0  0  0  0  0  0  0  0
   35.4790   26.1730   29.6620 H   0  0  0  0  0  0  0  0  0  0  0  0
   35.4560   24.6910   31.0600 C   0  0  0  0  0  0  0  0  0  0  0  0
   35.0910   24.6810   32.1140 H   0  0  0  0  0  0  0  0  0  0  0  0
   34.6400   24.2630   30.4300 H   0  0  0  0  0  0  0  0  0  0  0  0
   36.6220   23.7640   30.9650 C   0  0  0  0  0  0  0  0  0  0  0  0
   36.6930   23.3870   29.9210 H   0  0  0  0  0  0  0  0  0  0  0  0
   37.5560   24.0180   31.4210 H   0  0  0  0  0  0  0  0  0  0  0  0
   38.0750   23.4690   33.7640 Br  0  0  0  0  0  0  0  0  0  0  0  0
   36.8000   22.2700   32.9700 C   0  0  0  0  0  0  0  0  0  0  0  0
   36.2230   22.5010   31.7420 C   0  0  0  0  0  0  0  0  0  0  0  0
   35.3160   21.5900   31.2550 C   0  0  0  0  0  0  0  0  0  0  0  0
   34.8600   21.7710   30.2890 H   0  0  0  0  0  0  0  0  0  0  0  0
   35.0400   20.4890   32.0360 C   0  0  0  0  0  0  0  0  0  0  0  0
   34.3320   19.7500   31.6880 H   0  0  0  0  0  0  0  0  0  0  0  0
   35.6130   20.2490   33.2660 C   0  0  0  0  0  3  0  0  0  0  0  0
   36.5360   21.1740   33.7640 C   0  0  0  0  0  3  0  0  0  0  0  0
  1 10  1  0  0  0  0
  2  1  1  0  0  0  0
  3  1  1  0  0  0  0
  4  5  1  0  0  0  0
  5  6  1  0  0  0  0
  6 18  1  0  0  0  0
  6  7  2  0  0  0  0
  7 11  1  0  0  0  0
  8  7  1  0  0  0  0
  8 12  1  0  0  0  0
  9 13  1  0  0  0  0
  9  8  2  0  0  0  0
 10  5  2  0  0  0  0
 10  9  1  0  0  0  0
 14 15  1  0  0  0  0
 15 21  1  0  0  0  0
 15 16  2  0  0  0  0
 16 22  1  0  0  0  0
 17 16  1  0  0  0  0
 18 17  2  0  0  0  0
 19 14  2  0  0  0  0
 19 18  1  0  0  0  0
 20 14  1  0  0  0  0
 23  1  1  0  0  0  0
 23 25  1  0  0  0  0
 24 23  1  0  0  0  0
 26 28  1  0  0  0  0
 26 23  1  0  0  0  0
 27 26  1  0  0  0  0
 28 29  1  0  0  0  0
 30 28  1  0  0  0  0
 31 28  1  0  0  0  0
 31 33  1  0  0  0  0
 31 36  1  0  0  0  0
 32 31  1  0  0  0  0
 35 34  1  0  0  0  0
 35 42  1  0  0  0  0
 36 35  2  0  0  0  0
 37 36  1  0  0  0  0
 37 39  2  0  0  0  0
 38 37  1  0  0  0  0
 39 41  1  0  0  0  0
 40 39  1  0  0  0  0
 41 42  2  0  0  0  0
M  END
>  <minimizedAffinity>
-5.80465698

$$$$

 OpenBabel03262520143D

 42 44  0  0  0  0  0  0  0  0999 V2000
   37.8360   27.5390   32.5630 C   0  0  0  0  0  0  0  0  0  0  0  0
   38.9030   27.9080   32.5070 H   0  0  0  0  0  0  0  0  0  0  0  0
   37.3650   28.1380   33.3780 H   0  0  0  0  0  0  0  0  0  0  0  0
   38.5030   27.1120   35.6130 Br  0  0  0  0  0  0  0  0  0  0  0  0
   38.1340   25.7550   34.2980 C   0  0  0  0  0  0  0  0  0  0  0  0
   38.1410   24.4230   34.6470 C   0  0  0  0  0  0  0  0  0  0  0  0
   37.8830   23.5050   33.6760 C   0  0  0  0  0  0  0  0  0  0  0  0
   37.6190   23.8680   32.3620 C   0  0  0  0  0  0  0  0  0  0  0  0
   37.6210   25.2280   32.0440 C   0  0  0  0  0  0  0  0  0  0  0  0
   37.8780   26.1520   33.0180 C   0  0  0  0  0  0  0  0  0  0  0  0
   37.9000   22.4550   34.0120 H   0  0  0  0  0  0  0  0  0  0  0  0
   37.4380   23.0330   31.7320 H   0  0  0  0  0  0  0  0  0  0  0  0
   37.4150   25.2950   31.0020 H   0  0  0  0  0  0  0  0  0  0  0  0
   39.9300   22.9950   37.4950 C   0  0  0  0  0  0  0  0  0  0  0  0
   39.0320   23.1940   38.5900 C   0  0  0  0  0  0  0  0  0  0  0  0
   37.8330   23.8170   38.3100 C   0  0  0  0  0  0  0  0  0  0  0  0
   37.5440   24.2170   37.0250 N   0  0  0  0  0  0  0  0  0  0  0  0
   38.4240   24.0050   36.0290 C   0  0  0  0  0  0  0  0  0  0  0  0
   39.5960   23.4010   36.2770 N   0  0  0  0  0  0  0  0  0  0  0  0
   40.8730   22.5150   37.6670 H   0  0  0  0  0  0  0  0  0  0  0  0
   39.3560   22.8470   39.5400 H   0  0  0  0  0  0  0  0  0  0  0  0
   37.1500   23.9710   39.1300 H   0  0  0  0  0  0  0  0  0  0  0  0
   37.0690   27.8190   31.3230 C   0  0  0  0  0  0  0  0  0  0  0  0
   37.1220   26.9970   30.6410 H   0  0  0  0  0  0  0  0  0  0  0  0
   37.6860   28.6360   30.8070 H   0  0  0  0  0  0  0  0  0  0  0  0
   35.8490   28.4480   31.6490 N   0  0  0  0  0  0  0  0  0  0  0  0
   35.3490   28.8640   30.8220 H   0  0  0  0  0  0  0  0  0  0  0  0
   35.8480   29.3650   32.7330 C   0  0  0  0  0  0  0  0  0  0  0  0
   36.6330   29.1540   33.4960 H   0  0  0  0  0  0  0  0  0  0  0  0
   35.9920   30.4220   32.4030 H   0  0  0  0  0  0  0  0  0  0  0  0
   34.5180   29.2890   33.4060 C   0  0  0  0  0  0  0  0  0  0  0  0
   33.7650   29.8010   32.7650 H   0  0  0  0  0  0  0  0  0  0  0  0
   34.1860   28.3760   33.8530 H   0  0  0  0  0  0  0  0  0  0  0  0
   31.7480   29.7390   34.8730 Br  0  0  0  0  0  0  0  0  0  0  0  0
   33.4550   30.4950   35.3280 C   0  0  0  0  0  0  0  0  0  0  0  0
   34.6030   30.2250   34.6200 C   0  0  0  0  0  0  0  0  0  0  0  0
   35.7810   30.8070   35.0230 C   0  0  0  0  0  0  0  0  0  0  0  0
   36.6870   30.5950   34.4670 H   0  0  0  0  0  0  0  0  0  0  0  0
   35.7370   31.6350   36.1230 C   0  0  0  0  0  0  0  0  0  0  0  0
   36.6420   32.1120   36.4710 H   0  0  0  0  0  0  0  0  0  0  0  0
   34.5920   31.9120   36.8390 C   0  0  0  0  0  3  0  0  0  0  0  0
   33.3920   31.3210   36.4310 C   0  0  0  0  0  3  0  0  0  0  0  0
  1 10  1  0  0  0  0
  1  3  1  0  0  0  0
  2  1  1  0  0  0  0
  5  6  1  0  0  0  0
  5  4  1  0  0  0  0
  6 18  1  0  0  0  0
  7 11  1  0  0  0  0
  7  6  2  0  0  0  0
  8  7  1  0  0  0  0
  9  8  2  0  0  0  0
  9 10  1  0  0  0  0
 10  5  2  0  0  0  0
 12  8  1  0  0  0  0
 13  9  1  0  0  0  0
 14 20  1  0  0  0  0
 14 15  1  0  0  0  0
 15 21  1  0  0  0  0
 16 15  2  0  0  0  0
 16 22  1  0  0  0  0
 17 16  1  0  0  0  0
 18 19  1  0  0  0  0
 18 17  2  0  0  0  0
 19 14  2  0  0  0  0
 23 26  1  0  0  0  0
 23  1  1  0  0  0  0
 24 23  1  0  0  0  0
 25 23  1  0  0  0  0
 26 28  1  0  0  0  0
 27 26  1  0  0  0  0
 28 31  1  0  0  0  0
 28 29  1  0  0  0  0
 30 28  1  0  0  0  0
 31 33  1  0  0  0  0
 31 36  1  0  0  0  0
 32 31  1  0  0  0  0
 34 35  1  0  0  0  0
 35 42  1  0  0  0  0
 36 37  1  0  0  0  0
 36 35  2  0  0  0  0
 37 39  2  0  0  0  0
 38 37  1  0  0  0  0
 39 40  1  0  0  0  0
 39 41  1  0  0  0  0
 42 41  2  0  0  0  0
M  END
>  <minimizedAffinity>
-5.76264763

$$$$

 OpenBabel03262520143D

 42 44  0  0  0  0  0  0  0  0999 V2000
   37.4100   27.7480   32.7310 C   0  0  0  0  0  0  0  0  0  0  0  0
   37.9680   27.9360   31.7670 H   0  0  0  0  0  0  0  0  0  0  0  0
   37.9660   28.3280   33.5050 H   0  0  0  0  0  0  0  0  0  0  0  0
   38.4510   27.1160   35.6370 Br  0  0  0  0  0  0  0  0  0  0  0  0
   37.9920   25.8500   34.2610 C   0  0  0  0  0  0  0  0  0  0  0  0
   38.1010   24.4960   34.4910 C   0  0  0  0  0  0  0  0  0  0  0  0
   37.7730   23.6470   33.4800 C   0  0  0  0  0  0  0  0  0  0  0  0
   37.3390   24.0990   32.2410 C   0  0  0  0  0  0  0  0  0  0  0  0
   37.2410   25.4770   32.0430 C   0  0  0  0  0  0  0  0  0  0  0  0
   37.5690   26.3330   33.0570 C   0  0  0  0  0  0  0  0  0  0  0  0
   37.8780   22.5750   33.7210 H   0  0  0  0  0  0  0  0  0  0  0  0
   37.1240   23.3080   31.5660 H   0  0  0  0  0  0  0  0  0  0  0  0
   36.9100   25.6160   31.0410 H   0  0  0  0  0  0  0  0  0  0  0  0
   40.3060   23.0140   37.0000 C   0  0  0  0  0  0  0  0  0  0  0  0
   39.5090   23.0120   38.1870 C   0  0  0  0  0  0  0  0  0  0  0  0
   38.2320   23.5230   38.0840 C   0  0  0  0  0  0  0  0  0  0  0  0
   37.7750   24.0070   36.8800 N   0  0  0  0  0  0  0  0  0  0  0  0
   38.5650   23.9860   35.7900 C   0  0  0  0  0  0  0  0  0  0  0  0
   39.8100   23.4930   35.8660 N   0  0  0  0  0  0  0  0  0  0  0  0
   41.3050   22.6260   37.0330 H   0  0  0  0  0  0  0  0  0  0  0  0
   39.9620   22.6150   39.0620 H   0  0  0  0  0  0  0  0  0  0  0  0
   37.6250   23.5250   38.9750 H   0  0  0  0  0  0  0  0  0  0  0  0
   36.0250   28.2820   32.7030 C   0  0  0  0  0  0  0  0  0  0  0  0
   35.3880   27.6750   32.0960 H   0  0  0  0  0  0  0  0  0  0  0  0
   36.1260   29.2530   32.1000 H   0  0  0  0  0  0  0  0  0  0  0  0
   35.6510   28.7060   33.9960 N   0  0  0  0  0  0  0  0  0  0  0  0
   35.2990   27.9300   34.6140 H   0  0  0  0  0  0  0  0  0  0  0  0
   34.8010   29.8380   34.1000 C   0  0  0  0  0  0  0  0  0  0  0  0
   34.2680   30.0830   33.1510 H   0  0  0  0  0  0  0  0  0  0  0  0
   34.0210   29.7190   34.8890 H   0  0  0  0  0  0  0  0  0  0  0  0
   35.6380   31.0150   34.4780 C   0  0  0  0  0  0  0  0  0  0  0  0
   36.5310   30.6530   35.0340 H   0  0  0  0  0  0  0  0  0  0  0  0
   35.8300   31.7950   33.7710 H   0  0  0  0  0  0  0  0  0  0  0  0
   36.9070   33.8000   35.2910 Br  0  0  0  0  0  0  0  0  0  0  0  0
   35.3200   32.9790   36.0010 C   0  0  0  0  0  0  0  0  0  0  0  0
   34.8530   31.7600   35.5670 C   0  0  0  0  0  0  0  0  0  0  0  0
   33.7060   31.2530   36.1290 C   0  0  0  0  0  0  0  0  0  0  0  0
   33.3360   30.2930   35.7880 H   0  0  0  0  0  0  0  0  0  0  0  0
   33.0900   32.0060   37.1040 C   0  0  0  0  0  0  0  0  0  0  0  0
   32.1850   31.6420   37.5700 H   0  0  0  0  0  0  0  0  0  0  0  0
   33.5500   33.2280   37.5460 C   0  0  0  0  0  3  0  0  0  0  0  0
   34.7170   33.7460   36.9760 C   0  0  0  0  0  3  0  0  0  0  0  0
  1 10  1  0  0  0  0
  1  3  1  0  0  0  0
  2  1  1  0  0  0  0
  5  6  1  0  0  0  0
  5  4  1  0  0  0  0
  6 18  1  0  0  0  0
  7 11  1  0  0  0  0
  7  6  2  0  0  0  0
  8  7  1  0  0  0  0
  9  8  2  0  0  0  0
  9 10  1  0  0  0  0
 10  5  2  0  0  0  0
 12  8  1  0  0  0  0
 13  9  1  0  0  0  0
 14 20  1  0  0  0  0
 14 15  1  0  0  0  0
 15 21  1  0  0  0  0
 16 15  2  0  0  0  0
 16 22  1  0  0  0  0
 17 16  1  0  0  0  0
 18 19  1  0  0  0  0
 18 17  2  0  0  0  0
 19 14  2  0  0  0  0
 23  1  1  0  0  0  0
 23 26  1  0  0  0  0
 24 23  1  0  0  0  0
 25 23  1  0  0  0  0
 26 28  1  0  0  0  0
 26 27  1  0  0  0  0
 28 31  1  0  0  0  0
 28 30  1  0  0  0  0
 29 28  1  0  0  0  0
 31 32  1  0  0  0  0
 31 36  1  0  0  0  0
 33 31  1  0  0  0  0
 34 35  1  0  0  0  0
 35 42  1  0  0  0  0
 36 35  2  0  0  0  0
 36 37  1  0  0  0  0
 37 39  2  0  0  0  0
 38 37  1  0  0  0  0
 39 41  1  0  0  0  0
 39 40  1  0  0  0  0
 42 41  2  0  0  0  0
M  END
>  <minimizedAffinity>
-5.60354376

$$$$

 OpenBabel03262520143D

 42 44  0  0  0  0  0  0  0  0999 V2000
   36.9170   27.7900   31.9930 C   0  0  0  0  0  0  0  0  0  0  0  0
   37.0300   26.9230   31.2770 H   0  0  0  0  0  0  0  0  0  0  0  0
   37.3740   28.6610   31.4660 H   0  0  0  0  0  0  0  0  0  0  0  0
   39.8210   26.7310   31.3790 Br  0  0  0  0  0  0  0  0  0  0  0  0
   39.0380   27.0550   33.1080 C   0  0  0  0  0  0  0  0  0  0  0  0
   39.7610   26.8260   34.2580 C   0  0  0  0  0  0  0  0  0  0  0  0
   39.1550   27.0620   35.4530 C   0  0  0  0  0  0  0  0  0  0  0  0
   37.8480   27.5210   35.5450 C   0  0  0  0  0  0  0  0  0  0  0  0
   37.1450   27.7420   34.3600 C   0  0  0  0  0  0  0  0  0  0  0  0
   37.7510   27.5060   33.1570 C   0  0  0  0  0  0  0  0  0  0  0  0
   39.7810   26.8630   36.3390 H   0  0  0  0  0  0  0  0  0  0  0  0
   37.5290   27.6540   36.5490 H   0  0  0  0  0  0  0  0  0  0  0  0
   36.1730   28.0720   34.6420 H   0  0  0  0  0  0  0  0  0  0  0  0
   43.3930   26.8580   33.8620 C   0  0  0  0  0  0  0  0  0  0  0  0
   43.7640   25.4900   34.0570 C   0  0  0  0  0  0  0  0  0  0  0  0
   42.7460   24.5980   34.3200 C   0  0  0  0  0  0  0  0  0  0  0  0
   41.4420   25.0340   34.3850 N   0  0  0  0  0  0  0  0  0  0  0  0
   41.1450   26.3330   34.1930 C   0  0  0  0  0  0  0  0  0  0  0  0
   42.1190   27.2190   33.9360 N   0  0  0  0  0  0  0  0  0  0  0  0
   44.1520   27.5860   33.6550 H   0  0  0  0  0  0  0  0  0  0  0  0
   44.7990   25.2640   33.9850 H   0  0  0  0  0  0  0  0  0  0  0  0
   43.0170   23.5650   34.4680 H   0  0  0  0  0  0  0  0  0  0  0  0
   35.4970   28.1380   32.2490 C   0  0  0  0  0  0  0  0  0  0  0  0
   35.1940   27.8330   33.2280 H   0  0  0  0  0  0  0  0  0  0  0  0
   34.9200   27.4290   31.5560 H   0  0  0  0  0  0  0  0  0  0  0  0
   35.2230   29.4270   31.7450 N   0  0  0  0  0  0  0  0  0  0  0  0
   36.0840   29.9860   31.5130 H   0  0  0  0  0  0  0  0  0  0  0  0
   34.2940   30.2310   32.4570 C   0  0  0  0  0  0  0  0  0  0  0  0
   34.6920   31.2370   32.7290 H   0  0  0  0  0  0  0  0  0  0  0  0
   33.3480   30.3990   31.8900 H   0  0  0  0  0  0  0  0  0  0  0  0
   33.9350   29.5200   33.7190 C   0  0  0  0  0  0  0  0  0  0  0  0
   32.8250   29.4850   33.8040 H   0  0  0  0  0  0  0  0  0  0  0  0
   34.4390   28.6180   33.9970 H   0  0  0  0  0  0  0  0  0  0  0  0
   31.5440   30.1930   35.6840 Br  0  0  0  0  0  0  0  0  0  0  0  0
   33.3550   30.8310   35.7740 C   0  0  0  0  0  0  0  0  0  0  0  0
   34.3200   30.4670   34.8640 C   0  0  0  0  0  0  0  0  0  0  0  0
   35.5910   30.9690   35.0110 C   0  0  0  0  0  0  0  0  0  0  0  0
   36.3540   30.6830   34.2960 H   0  0  0  0  0  0  0  0  0  0  0  0
   35.8200   31.8170   36.0720 C   0  0  0  0  0  0  0  0  0  0  0  0
   36.8070   32.2320   36.2230 H   0  0  0  0  0  0  0  0  0  0  0  0
   34.8600   32.1880   36.9890 C   0  0  0  0  0  3  0  0  0  0  0  0
   33.5660   31.6780   36.8420 C   0  0  0  0  0  3  0  0  0  0  0  0
  1 23  1  0  0  0  0
  1 10  1  0  0  0  0
  2  1  1  0  0  0  0
  3  1  1  0  0  0  0
  4  5  1  0  0  0  0
  5 10  2  0  0  0  0
  5  6  1  0  0  0  0
  6  7  2  0  0  0  0
  7  8  1  0  0  0  0
  7 11  1  0  0  0  0
  8 12  1  0  0  0  0
  9 13  1  0  0  0  0
  9  8  2  0  0  0  0
 10  9  1  0  0  0  0
 14 19  2  0  0  0  0
 14 15  1  0  0  0  0
 15 16  2  0  0  0  0
 16 17  1  0  0  0  0
 16 22  1  0  0  0  0
 18  6  1  0  0  0  0
 18 17  2  0  0  0  0
 19 18  1  0  0  0  0
 20 14  1  0  0  0  0
 21 15  1  0  0  0  0
 23 24  1  0  0  0  0
 25 23  1  0  0  0  0
 26 23  1  0  0  0  0
 26 28  1  0  0  0  0
 27 26  1  0  0  0  0
 28 29  1  0  0  0  0
 28 31  1  0  0  0  0
 30 28  1  0  0  0  0
 31 32  1  0  0  0  0
 31 33  1  0  0  0  0
 31 36  1  0  0  0  0
 34 35  1  0  0  0  0
 35 42  1  0  0  0  0
 36 37  1  0  0  0  0
 36 35  2  0  0  0  0
 37 39  2  0  0  0  0
 38 37  1  0  0  0  0
 39 40  1  0  0  0  0
 39 41  1  0  0  0  0
 42 41  2  0  0  0  0
M  END
>  <minimizedAffinity>
-5.52253532

$$$$

 OpenBabel03262520143D

 42 44  0  0  0  0  0  0  0  0999 V2000
   36.5780   24.2140   31.0120 C   0  0  0  0  0  0  0  0  0  0  0  0
   36.4740   23.6610   30.0320 H   0  0  0  0  0  0  0  0  0  0  0  0
   37.5590   24.7420   30.9430 H   0  0  0  0  0  0  0  0  0  0  0  0
   38.6070   24.8970   33.3250 Br  0  0  0  0  0  0  0  0  0  0  0  0
   37.5140   23.3200   33.1590 C   0  0  0  0  0  0  0  0  0  0  0  0
   37.5630   22.3320   34.1170 C   0  0  0  0  0  0  0  0  0  0  0  0
   36.7770   21.2350   33.9440 C   0  0  0  0  0  0  0  0  0  0  0  0
   35.9400   21.0850   32.8470 C   0  0  0  0  0  0  0  0  0  0  0  0
   35.9170   22.1070   31.8960 C   0  0  0  0  0  0  0  0  0  0  0  0
   36.7050   23.2110   32.0670 C   0  0  0  0  0  0  0  0  0  0  0  0
   36.8560   20.4770   34.7420 H   0  0  0  0  0  0  0  0  0  0  0  0
   35.3960   20.1740   32.8660 H   0  0  0  0  0  0  0  0  0  0  0  0
   35.2350   21.7990   31.1390 H   0  0  0  0  0  0  0  0  0  0  0  0
   38.6940   23.2340   37.4720 C   0  0  0  0  0  0  0  0  0  0  0  0
   40.0320   22.7330   37.5220 C   0  0  0  0  0  0  0  0  0  0  0  0
   40.5030   22.0980   36.3920 C   0  0  0  0  0  0  0  0  0  0  0  0
   39.6990   21.9680   35.2830 N   0  0  0  0  0  0  0  0  0  0  0  0
   38.4440   22.4580   35.2870 C   0  0  0  0  0  0  0  0  0  0  0  0
   37.9640   23.0800   36.3750 N   0  0  0  0  0  0  0  0  0  0  0  0
   38.2860   23.7350   38.3280 H   0  0  0  0  0  0  0  0  0  0  0  0
   40.5640   22.8880   38.4270 H   0  0  0  0  0  0  0  0  0  0  0  0
   41.5120   21.7170   36.4200 H   0  0  0  0  0  0  0  0  0  0  0  0
   35.5380   25.2560   31.1940 C   0  0  0  0  0  0  0  0  0  0  0  0
   35.3250   25.4140   32.2300 H   0  0  0  0  0  0  0  0  0  0  0  0
   34.5860   24.7540   30.7970 H   0  0  0  0  0  0  0  0  0  0  0  0
   35.7720   26.3250   30.3030 N   0  0  0  0  0  0  0  0  0  0  0  0
   36.0400   26.0200   29.3320 H   0  0  0  0  0  0  0  0  0  0  0  0
   36.6250   27.3730   30.7400 C   0  0  0  0  0  0  0  0  0  0  0  0
   37.6390   27.0250   31.0460 H   0  0  0  0  0  0  0  0  0  0  0  0
   36.7730   28.1590   29.9610 H   0  0  0  0  0  0  0  0  0  0  0  0
   35.9870   28.0320   31.9170 C   0  0  0  0  0  0  0  0  0  0  0  0
   34.8820   27.9290   31.8280 H   0  0  0  0  0  0  0  0  0  0  0  0
   36.3780   27.8820   32.9020 H   0  0  0  0  0  0  0  0  0  0  0  0
   34.9100   29.7930   34.3190 Br  0  0  0  0  0  0  0  0  0  0  0  0
   35.7540   30.4000   32.7020 C   0  0  0  0  0  0  0  0  0  0  0  0
   36.1910   29.5410   31.7210 C   0  0  0  0  0  0  0  0  0  0  0  0
   36.7890   30.0660   30.6000 C   0  0  0  0  0  0  0  0  0  0  0  0
   37.1350   29.3910   29.8260 H   0  0  0  0  0  0  0  0  0  0  0  0
   36.9120   31.4360   30.5280 C   0  0  0  0  0  0  0  0  0  0  0  0
   37.3770   31.8870   29.6640 H   0  0  0  0  0  0  0  0  0  0  0  0
   36.4770   32.3050   31.5060 C   0  0  0  0  0  3  0  0  0  0  0  0
   35.8690   31.7740   32.6470 C   0  0  0  0  0  3  0  0  0  0  0  0
  1 23  1  0  0  0  0
  1 10  1  0  0  0  0
  2  1  1  0  0  0  0
  3  1  1  0  0  0  0
  5  4  1  0  0  0  0
  5  6  1  0  0  0  0
  6 18  1  0  0  0  0
  7  6  2  0  0  0  0
  7 11  1  0  0  0  0
  8 12  1  0  0  0  0
  8  7  1  0  0  0  0
  9 10  1  0  0  0  0
  9  8  2  0  0  0  0
 10  5  2  0  0  0  0
 13  9  1  0  0  0  0
 14 15  1  0  0  0  0
 14 20  1  0  0  0  0
 15 21  1  0  0  0  0
 16 22  1  0  0  0  0
 16 15  2  0  0  0  0
 17 18  2  0  0  0  0
 17 16  1  0  0  0  0
 18 19  1  0  0  0  0
 19 14  2  0  0  0  0
 23 24  1  0  0  0  0
 25 23  1  0  0  0  0
 26 28  1  0  0  0  0
 26 23  1  0  0  0  0
 27 26  1  0  0  0  0
 28 29  1  0  0  0  0
 28 31  1  0  0  0  0
 30 28  1  0  0  0  0
 31 33  1  0  0  0  0
 32 31  1  0  0  0  0
 35 34  1  0  0  0  0
 36 31  1  0  0  0  0
 36 35  2  0  0  0  0
 37 36  1  0  0  0  0
 38 37  1  0  0  0  0
 39 37  2  0  0  0  0
 39 41  1  0  0  0  0
 40 39  1  0  0  0  0
 41 42  2  0  0  0  0
 42 35  1  0  0  0  0
M  END
>  <minimizedAffinity>
-5.43198442

$$$$

 OpenBabel03262520143D

 42 44  0  0  0  0  0  0  0  0999 V2000
   37.1480   27.8780   32.9640 C   0  0  0  0  0  0  0  0  0  0  0  0
   37.9080   28.4420   33.5820 H   0  0  0  0  0  0  0  0  0  0  0  0
   36.1640   28.1070   33.4370 H   0  0  0  0  0  0  0  0  0  0  0  0
   38.4820   27.0820   35.7060 Br  0  0  0  0  0  0  0  0  0  0  0  0
   37.9510   25.9010   34.2800 C   0  0  0  0  0  0  0  0  0  0  0  0
   38.1380   24.5420   34.3920 C   0  0  0  0  0  0  0  0  0  0  0  0
   37.7540   23.7550   33.3500 C   0  0  0  0  0  0  0  0  0  0  0  0
   37.1870   24.2770   32.1950 C   0  0  0  0  0  0  0  0  0  0  0  0
   37.0120   25.6600   32.1170 C   0  0  0  0  0  0  0  0  0  0  0  0
   37.3970   26.4520   33.1620 C   0  0  0  0  0  0  0  0  0  0  0  0
   37.9260   22.6750   33.4950 H   0  0  0  0  0  0  0  0  0  0  0  0
   36.9440   23.5290   31.4820 H   0  0  0  0  0  0  0  0  0  0  0  0
   36.5840   25.8560   31.1620 H   0  0  0  0  0  0  0  0  0  0  0  0
   40.6260   22.9800   36.5650 C   0  0  0  0  0  0  0  0  0  0  0  0
   39.9470   22.8550   37.8170 C   0  0  0  0  0  0  0  0  0  0  0  0
   38.6480   23.3150   37.8720 C   0  0  0  0  0  0  0  0  0  0  0  0
   38.0600   23.8640   36.7560 N   0  0  0  0  0  0  0  0  0  0  0  0
   38.7430   23.9590   35.5990 C   0  0  0  0  0  0  0  0  0  0  0  0
   40.0080   23.5180   35.5220 N   0  0  0  0  0  0  0  0  0  0  0  0
   41.6380   22.6350   36.4760 H   0  0  0  0  0  0  0  0  0  0  0  0
   40.4960   22.4160   38.6130 H   0  0  0  0  0  0  0  0  0  0  0  0
   38.1280   23.2250   38.8130 H   0  0  0  0  0  0  0  0  0  0  0  0
   37.0770   28.3620   31.5630 C   0  0  0  0  0  0  0  0  0  0  0  0
   37.3910   27.6050   30.8750 H   0  0  0  0  0  0  0  0  0  0  0  0
   37.9170   29.1410   31.5070 H   0  0  0  0  0  0  0  0  0  0  0  0
   35.8920   29.1050   31.3740 N   0  0  0  0  0  0  0  0  0  0  0  0
   36.0560   30.0960   31.0620 H   0  0  0  0  0  0  0  0  0  0  0  0
   34.9200   29.0710   32.4080 C   0  0  0  0  0  0  0  0  0  0  0  0
   34.1030   28.3330   32.2270 H   0  0  0  0  0  0  0  0  0  0  0  0
   35.3600   28.8300   33.4050 H   0  0  0  0  0  0  0  0  0  0  0  0
   34.3040   30.4260   32.5110 C   0  0  0  0  0  0  0  0  0  0  0  0
   34.6000   31.0210   31.6180 H   0  0  0  0  0  0  0  0  0  0  0  0
   33.2830   30.5380   32.8130 H   0  0  0  0  0  0  0  0  0  0  0  0
   35.7480   33.0940   31.6030 Br  0  0  0  0  0  0  0  0  0  0  0  0
   35.7190   32.3130   33.3590 C   0  0  0  0  0  0  0  0  0  0  0  0
   35.0500   31.1450   33.6440 C   0  0  0  0  0  0  0  0  0  0  0  0
   35.0790   30.6630   34.9310 C   0  0  0  0  0  0  0  0  0  0  0  0
   34.5520   29.7440   35.1590 H   0  0  0  0  0  0  0  0  0  0  0  0
   35.7870   31.3880   35.8650 C   0  0  0  0  0  0  0  0  0  0  0  0
   35.8340   31.0430   36.8880 H   0  0  0  0  0  0  0  0  0  0  0  0
   36.4600   32.5590   35.5890 C   0  0  0  0  0  3  0  0  0  0  0  0
   36.4320   33.0510   34.2810 C   0  0  0  0  0  3  0  0  0  0  0  0
  1 10  1  0  0  0  0
  1  3  1  0  0  0  0
  1  2  1  0  0  0  0
  5  6  1  0  0  0  0
  5  4  1  0  0  0  0
  6 18  1  0  0  0  0
  7 11  1  0  0  0  0
  7  6  2  0  0  0  0
  8  7  1  0  0  0  0
  9  8  2  0  0  0  0
  9 10  1  0  0  0  0
 10  5  2  0  0  0  0
 12  8  1  0  0  0  0
 13  9  1  0  0  0  0
 14 15  1  0  0  0  0
 15 16  2  0  0  0  0
 15 21  1  0  0  0  0
 16 22  1  0  0  0  0
 17 16  1  0  0  0  0
 18 17  2  0  0  0  0
 19 18  1  0  0  0  0
 19 14  2  0  0  0  0
 20 14  1  0  0  0  0
 23  1  1  0  0  0  0
 24 23  1  0  0  0  0
 25 23  1  0  0  0  0
 26 23  1  0  0  0  0
 26 28  1  0  0  0  0
 27 26  1  0  0  0  0
 28 31  1  0  0  0  0
 28 30  1  0  0  0  0
 29 28  1  0  0  0  0
 31 33  1  0  0  0  0
 31 36  1  0  0  0  0
 32 31  1  0  0  0  0
 34 35  1  0  0  0  0
 35 36  2  0  0  0  0
 35 42  1  0  0  0  0
 36 37  1  0  0  0  0
 37 38  1  0  0  0  0
 37 39  2  0  0  0  0
 39 40  1  0  0  0  0
 41 39  1  0  0  0  0
 42 41  2  0  0  0  0
M  END
>  <minimizedAffinity>
-5.39963484

$$$$

 OpenBabel03262520143D

 42 44  0  0  0  0  0  0  0  0999 V2000
   36.8080   27.4050   32.0570 C   0  0  0  0  0  0  0  0  0  0  0  0
   36.7230   26.3750   31.6010 H   0  0  0  0  0  0  0  0  0  0  0  0
   37.3580   28.0120   31.2990 H   0  0  0  0  0  0  0  0  0  0  0  0
   39.7970   26.5870   31.4840 Br  0  0  0  0  0  0  0  0  0  0  0  0
   38.9980   26.9660   33.1940 C   0  0  0  0  0  0  0  0  0  0  0  0
   39.7480   26.8960   34.3470 C   0  0  0  0  0  0  0  0  0  0  0  0
   39.1300   27.1630   35.5290 C   0  0  0  0  0  0  0  0  0  0  0  0
   37.7850   27.4990   35.6060 C   0  0  0  0  0  0  0  0  0  0  0  0
   37.0560   27.5610   34.4170 C   0  0  0  0  0  0  0  0  0  0  0  0
   37.6740   27.2920   33.2270 C   0  0  0  0  0  0  0  0  0  0  0  0
   39.7790   27.0940   36.4190 H   0  0  0  0  0  0  0  0  0  0  0  0
   37.4610   27.6780   36.6010 H   0  0  0  0  0  0  0  0  0  0  0  0
   36.0590   27.8150   34.6870 H   0  0  0  0  0  0  0  0  0  0  0  0
   42.8020   24.9370   34.7810 C   0  0  0  0  0  0  0  0  0  0  0  0
   43.8230   25.7850   34.2490 C   0  0  0  0  0  0  0  0  0  0  0  0
   43.4240   27.0100   33.7560 C   0  0  0  0  0  0  0  0  0  0  0  0
   42.0970   27.3710   33.7890 N   0  0  0  0  0  0  0  0  0  0  0  0
   41.1730   26.5350   34.3010 C   0  0  0  0  0  0  0  0  0  0  0  0
   41.5380   25.3390   34.7860 N   0  0  0  0  0  0  0  0  0  0  0  0
   43.0670   23.9750   35.1750 H   0  0  0  0  0  0  0  0  0  0  0  0
   44.8150   25.4070   34.2730 H   0  0  0  0  0  0  0  0  0  0  0  0
   44.1880   27.6560   33.3530 H   0  0  0  0  0  0  0  0  0  0  0  0
   35.4880   28.0540   32.2540 C   0  0  0  0  0  0  0  0  0  0  0  0
   35.0800   27.8180   33.2140 H   0  0  0  0  0  0  0  0  0  0  0  0
   34.8030   27.4920   31.5260 H   0  0  0  0  0  0  0  0  0  0  0  0
   35.5260   29.3740   31.7580 N   0  0  0  0  0  0  0  0  0  0  0  0
   36.4980   29.7310   31.5710 H   0  0  0  0  0  0  0  0  0  0  0  0
   34.7650   30.3590   32.4410 C   0  0  0  0  0  0  0  0  0  0  0  0
   34.6480   31.3080   31.8680 H   0  0  0  0  0  0  0  0  0  0  0  0
   33.7380   30.0060   32.6990 H   0  0  0  0  0  0  0  0  0  0  0  0
   35.4590   30.6750   33.7240 C   0  0  0  0  0  0  0  0  0  0  0  0
   36.0980   29.8090   34.0060 H   0  0  0  0  0  0  0  0  0  0  0  0
   35.9040   31.6360   33.8780 H   0  0  0  0  0  0  0  0  0  0  0  0
   35.7880   32.9370   35.9160 Br  0  0  0  0  0  0  0  0  0  0  0  0
   34.4250   31.5860   35.8170 C   0  0  0  0  0  0  0  0  0  0  0  0
   34.3750   30.6490   34.8100 C   0  0  0  0  0  0  0  0  0  0  0  0
   33.3590   29.7230   34.8180 C   0  0  0  0  0  0  0  0  0  0  0  0
   33.3170   28.9850   34.0250 H   0  0  0  0  0  0  0  0  0  0  0  0
   32.4460   29.7910   35.8470 C   0  0  0  0  0  0  0  0  0  0  0  0
   31.6320   29.0810   35.8880 H   0  0  0  0  0  0  0  0  0  0  0  0
   32.4870   30.7240   36.8600 C   0  0  0  0  0  3  0  0  0  0  0  0
   33.5190   31.6680   36.8550 C   0  0  0  0  0  3  0  0  0  0  0  0
  1 23  1  0  0  0  0
  1 10  1  0  0  0  0
  2  1  1  0  0  0  0
  3  1  1  0  0  0  0
  4  5  1  0  0  0  0
  5 10  2  0  0  0  0
  5  6  1  0  0  0  0
  6  7  2  0  0  0  0
  7  8  1  0  0  0  0
  7 11  1  0  0  0  0
  8 12  1  0  0  0  0
  9 13  1  0  0  0  0
  9  8  2  0  0  0  0
 10  9  1  0  0  0  0
 14 19  1  0  0  0  0
 14 20  1  0  0  0  0
 15 21  1  0  0  0  0
 15 14  2  0  0  0  0
 16 17  2  0  0  0  0
 16 15  1  0  0  0  0
 17 18  1  0  0  0  0
 18  6  1  0  0  0  0
 18 19  2  0  0  0  0
 22 16  1  0  0  0  0
 23 24  1  0  0  0  0
 25 23  1  0  0  0  0
 26 23  1  0  0  0  0
 26 28  1  0  0  0  0
 27 26  1  0  0  0  0
 28 30  1  0  0  0  0
 28 31  1  0  0  0  0
 29 28  1  0  0  0  0
 31 33  1  0  0  0  0
 31 32  1  0  0  0  0
 31 36  1  0  0  0  0
 35 34  1  0  0  0  0
 35 42  1  0  0  0  0
 36 37  1  0  0  0  0
 36 35  2  0  0  0  0
 37 39  2  0  0  0  0
 38 37  1  0  0  0  0
 39 40  1  0  0  0  0
 39 41  1  0  0  0  0
 42 41  2  0  0  0  0
M  END
>  <minimizedAffinity>
-5.38269615

$$$$

 OpenBabel03262520143D

 42 44  0  0  0  0  0  0  0  0999 V2000
   38.8330   26.5590   32.4730 C   0  0  0  0  0  0  0  0  0  0  0  0
   39.0960   26.6610   33.5660 H   0  0  0  0  0  0  0  0  0  0  0  0
   39.7450   26.8940   31.9230 H   0  0  0  0  0  0  0  0  0  0  0  0
   37.2150   27.6110   34.9640 Br  0  0  0  0  0  0  0  0  0  0  0  0
   36.9770   28.1140   33.1200 C   0  0  0  0  0  0  0  0  0  0  0  0
   36.0140   29.0320   32.7650 C   0  0  0  0  0  0  0  0  0  0  0  0
   35.8830   29.3440   31.4470 C   0  0  0  0  0  0  0  0  0  0  0  0
   36.6790   28.7710   30.4650 C   0  0  0  0  0  0  0  0  0  0  0  0
   37.6450   27.8440   30.8620 C   0  0  0  0  0  0  0  0  0  0  0  0
   37.7790   27.5290   32.1850 C   0  0  0  0  0  0  0  0  0  0  0  0
   35.0980   30.0850   31.2210 H   0  0  0  0  0  0  0  0  0  0  0  0
   36.4490   29.1230   29.4900 H   0  0  0  0  0  0  0  0  0  0  0  0
   38.1310   27.5150   29.9740 H   0  0  0  0  0  0  0  0  0  0  0  0
   34.9110   31.3280   35.3850 C   0  0  0  0  0  0  0  0  0  0  0  0
   33.5930   30.8700   35.6990 C   0  0  0  0  0  0  0  0  0  0  0  0
   33.1250   29.7810   34.9940 C   0  0  0  0  0  0  0  0  0  0  0  0
   33.9150   29.1830   34.0390 N   0  0  0  0  0  0  0  0  0  0  0  0
   35.1500   29.6520   33.7810 C   0  0  0  0  0  0  0  0  0  0  0  0
   35.6270   30.7110   34.4540 N   0  0  0  0  0  0  0  0  0  0  0  0
   35.3150   32.1720   35.9090 H   0  0  0  0  0  0  0  0  0  0  0  0
   33.0720   31.4060   36.4530 H   0  0  0  0  0  0  0  0  0  0  0  0
   32.1320   29.4290   35.2250 H   0  0  0  0  0  0  0  0  0  0  0  0
   38.5810   25.1520   32.0740 C   0  0  0  0  0  0  0  0  0  0  0  0
   39.4980   24.6210   31.9270 H   0  0  0  0  0  0  0  0  0  0  0  0
   38.1530   25.2480   31.0140 H   0  0  0  0  0  0  0  0  0  0  0  0
   37.5200   24.6220   32.8380 N   0  0  0  0  0  0  0  0  0  0  0  0
   36.9780   25.3460   33.3750 H   0  0  0  0  0  0  0  0  0  0  0  0
   37.7980   23.5040   33.6680 C   0  0  0  0  0  0  0  0  0  0  0  0
   37.0660   23.3730   34.4990 H   0  0  0  0  0  0  0  0  0  0  0  0
   37.8200   22.5420   33.1010 H   0  0  0  0  0  0  0  0  0  0  0  0
   39.1510   23.6950   34.2690 C   0  0  0  0  0  0  0  0  0  0  0  0
   39.7620   22.7880   34.0640 H   0  0  0  0  0  0  0  0  0  0  0  0
   39.6680   24.6250   34.1580 H   0  0  0  0  0  0  0  0  0  0  0  0
   41.5110   22.2370   35.7960 Br  0  0  0  0  0  0  0  0  0  0  0  0
   39.9180   23.0010   36.5510 C   0  0  0  0  0  0  0  0  0  0  0  0
   38.9530   23.6200   35.7890 C   0  0  0  0  0  0  0  0  0  0  0  0
   37.8480   24.1420   36.4180 C   0  0  0  0  0  0  0  0  0  0  0  0
   37.0880   24.6310   35.8200 H   0  0  0  0  0  0  0  0  0  0  0  0
   37.7740   24.0100   37.7870 C   0  0  0  0  0  0  0  0  0  0  0  0
   36.9210   24.4080   38.3180 H   0  0  0  0  0  0  0  0  0  0  0  0
   38.7340   23.3910   38.5590 C   0  0  0  0  0  3  0  0  0  0  0  0
   39.8590   22.8590   37.9220 C   0  0  0  0  0  3  0  0  0  0  0  0
  1  2  1  0  0  0  0
  3  1  1  0  0  0  0
  5  4  1  0  0  0  0
  6  5  1  0  0  0  0
  6 18  1  0  0  0  0
  7  6  2  0  0  0  0
  8  9  2  0  0  0  0
  8  7  1  0  0  0  0
  9 10  1  0  0  0  0
 10  1  1  0  0  0  0
 10  5  2  0  0  0  0
 11  7  1  0  0  0  0
 12  8  1  0  0  0  0
 13  9  1  0  0  0  0
 14 15  1  0  0  0  0
 14 20  1  0  0  0  0
 15 21  1  0  0  0  0
 16 22  1  0  0  0  0
 16 15  2  0  0  0  0
 17 16  1  0  0  0  0
 18 17  2  0  0  0  0
 18 19  1  0  0  0  0
 19 14  2  0  0  0  0
 23  1  1  0  0  0  0
 23 26  1  0  0  0  0
 24 23  1  0  0  0  0
 25 23  1  0  0  0  0
 26 27  1  0  0  0  0
 26 28  1  0  0  0  0
 28 31  1  0  0  0  0
 28 29  1  0  0  0  0
 30 28  1  0  0  0  0
 31 36  1  0  0  0  0
 32 31  1  0  0  0  0
 33 31  1  0  0  0  0
 34 35  1  0  0  0  0
 35 42  1  0  0  0  0
 36 37  1  0  0  0  0
 36 35  2  0  0  0  0
 37 39  2  0  0  0  0
 38 37  1  0  0  0  0
 39 40  1  0  0  0  0
 39 41  1  0  0  0  0
 42 41  2  0  0  0  0
M  END
>  <minimizedAffinity>
-5.32139349

$$$$

 OpenBabel03262520143D

 42 44  0  0  0  0  0  0  0  0999 V2000
   38.2940   26.9630   31.8060 C   0  0  0  0  0  0  0  0  0  0  0  0
   37.9910   26.3070   32.6740 H   0  0  0  0  0  0  0  0  0  0  0  0
   39.2960   27.3690   32.0850 H   0  0  0  0  0  0  0  0  0  0  0  0
   36.8410   27.6370   34.5200 Br  0  0  0  0  0  0  0  0  0  0  0  0
   36.6540   28.5540   32.8370 C   0  0  0  0  0  0  0  0  0  0  0  0
   35.8120   29.6380   32.7220 C   0  0  0  0  0  0  0  0  0  0  0  0
   35.7110   30.2420   31.5070 C   0  0  0  0  0  0  0  0  0  0  0  0
   36.4200   29.8040   30.3970 C   0  0  0  0  0  0  0  0  0  0  0  0
   37.2640   28.7020   30.5520 C   0  0  0  0  0  0  0  0  0  0  0  0
   37.3690   28.0930   31.7710 C   0  0  0  0  0  0  0  0  0  0  0  0
   35.0240   31.1040   31.4730 H   0  0  0  0  0  0  0  0  0  0  0  0
   36.2280   30.3850   29.5300 H   0  0  0  0  0  0  0  0  0  0  0  0
   37.6980   28.5180   29.5970 H   0  0  0  0  0  0  0  0  0  0  0  0
   33.0420   30.0190   35.0740 C   0  0  0  0  0  0  0  0  0  0  0  0
   33.5310   30.9770   36.0160 C   0  0  0  0  0  0  0  0  0  0  0  0
   34.8060   31.4630   35.8090 C   0  0  0  0  0  0  0  0  0  0  0  0
   35.5470   31.0260   34.7350 N   0  0  0  0  0  0  0  0  0  0  0  0
   35.0410   30.1220   33.8760 C   0  0  0  0  0  0  0  0  0  0  0  0
   33.8030   29.6350   34.0580 N   0  0  0  0  0  0  0  0  0  0  0  0
   32.0570   29.6140   35.1960 H   0  0  0  0  0  0  0  0  0  0  0  0
   32.8750   31.2430   36.8070 H   0  0  0  0  0  0  0  0  0  0  0  0
   35.1820   32.1860   36.5140 H   0  0  0  0  0  0  0  0  0  0  0  0
   38.4730   26.2000   30.5460 C   0  0  0  0  0  0  0  0  0  0  0  0
   39.5090   26.0980   30.2990 H   0  0  0  0  0  0  0  0  0  0  0  0
   38.0730   26.9140   29.7430 H   0  0  0  0  0  0  0  0  0  0  0  0
   37.5840   25.1040   30.5210 N   0  0  0  0  0  0  0  0  0  0  0  0
   36.7350   25.2590   29.9190 H   0  0  0  0  0  0  0  0  0  0  0  0
   37.2060   24.5330   31.7640 C   0  0  0  0  0  0  0  0  0  0  0  0
   37.4270   25.1860   32.6410 H   0  0  0  0  0  0  0  0  0  0  0  0
   36.1180   24.2850   31.8100 H   0  0  0  0  0  0  0  0  0  0  0  0
   37.9590   23.2560   31.9380 C   0  0  0  0  0  0  0  0  0  0  0  0
   38.3730   22.9500   30.9510 H   0  0  0  0  0  0  0  0  0  0  0  0
   38.6200   23.1230   32.7680 H   0  0  0  0  0  0  0  0  0  0  0  0
   37.9520   22.1600   34.9090 Br  0  0  0  0  0  0  0  0  0  0  0  0
   36.8160   21.6220   33.4550 C   0  0  0  0  0  0  0  0  0  0  0  0
   36.9020   22.1730   32.1970 C   0  0  0  0  0  0  0  0  0  0  0  0
   36.0430   21.7290   31.2200 C   0  0  0  0  0  0  0  0  0  0  0  0
   36.1090   22.1620   30.2290 H   0  0  0  0  0  0  0  0  0  0  0  0
   35.1410   20.7470   31.5660 C   0  0  0  0  0  0  0  0  0  0  0  0
   34.4480   20.3720   30.8260 H   0  0  0  0  0  0  0  0  0  0  0  0
   35.0460   20.1890   32.8220 C   0  0  0  0  0  3  0  0  0  0  0  0
   35.9190   20.6380   33.8190 C   0  0  0  0  0  3  0  0  0  0  0  0
  1  3  1  0  0  0  0
  1  2  1  0  0  0  0
  5  4  1  0  0  0  0
  6  5  1  0  0  0  0
  6 18  1  0  0  0  0
  7  6  2  0  0  0  0
  8  9  2  0  0  0  0
  8  7  1  0  0  0  0
  9 10  1  0  0  0  0
 10  1  1  0  0  0  0
 10  5  2  0  0  0  0
 11  7  1  0  0  0  0
 12  8  1  0  0  0  0
 13  9  1  0  0  0  0
 14 20  1  0  0  0  0
 14 15  1  0  0  0  0
 15 21  1  0  0  0  0
 16 15  2  0  0  0  0
 16 22  1  0  0  0  0
 17 16  1  0  0  0  0
 18 19  1  0  0  0  0
 18 17  2  0  0  0  0
 19 14  2  0  0  0  0
 23  1  1  0  0  0  0
 24 23  1  0  0  0  0
 25 23  1  0  0  0  0
 26 23  1  0  0  0  0
 26 28  1  0  0  0  0
 27 26  1  0  0  0  0
 28 30  1  0  0  0  0
 28 31  1  0  0  0  0
 28 29  1  0  0  0  0
 31 36  1  0  0  0  0
 31 33  1  0  0  0  0
 32 31  1  0  0  0  0
 35 42  1  0  0  0  0
 35 34  1  0  0  0  0
 36 35  2  0  0  0  0
 37 39  2  0  0  0  0
 37 36  1  0  0  0  0
 38 37  1  0  0  0  0
 39 41  1  0  0  0  0
 40 39  1  0  0  0  0
 41 42  2  0  0  0  0
M  END
>  <minimizedAffinity>
-5.24893856

$$$$
