
 OpenBabel03272505343D

 35 37  0  0  1  0  0  0  0  0999 V2000
   37.3560   30.4480   49.5590 C   0  0  0  0  0  0  0  0  0  0  0  0
   37.2790   31.7050   50.1370 C   0  0  0  0  0  0  0  0  0  0  0  0
   37.6940   32.8140   49.3810 C   0  0  0  0  0  0  0  0  0  0  0  0
   38.1530   32.5760   48.1070 N   0  0  0  0  0  0  0  0  0  0  0  0
   38.2100   31.3410   47.5840 C   0  0  0  0  0  0  0  0  0  0  0  0
   37.8150   30.3130   48.3130 N   0  0  0  0  0  0  0  0  0  0  0  0
   38.6960   31.2100   46.2640 N   0  0  0  0  0  0  0  0  0  0  0  0
   40.1300   31.0030   46.0530 C   0  0  0  0  0  0  0  0  0  0  0  0
   40.6520   31.8470   44.9110 C   0  0  0  0  0  0  0  0  0  0  0  0
   39.7940   31.7940   43.7530 N   0  0  0  0  0  0  0  0  0  0  0  0
   38.6770   30.9290   43.8950 C   0  0  0  0  0  0  0  0  0  0  0  0
   37.8360   31.2740   45.1010 C   0  0  1  0  0  0  0  0  0  0  0  0
   36.9240   31.8970   51.1250 H   0  0  0  0  0  0  0  0  0  0  0  0
   37.6610   33.8160   49.7670 H   0  0  0  0  0  0  0  0  0  0  0  0
   40.7240   31.2350   46.9520 H   0  0  0  0  0  0  0  0  0  0  0  0
   40.2890   29.9100   45.8390 H   0  0  0  0  0  0  0  0  0  0  0  0
   40.6360   32.8980   45.2790 H   0  0  0  0  0  0  0  0  0  0  0  0
   41.6820   31.5140   44.7290 H   0  0  0  0  0  0  0  0  0  0  0  0
   40.2790   31.6310   42.8640 H   0  0  0  0  0  0  0  0  0  0  0  0
   39.0960   29.8910   44.0440 H   0  0  0  0  0  0  0  0  0  0  0  0
   38.1040   30.9340   42.9620 H   0  0  0  0  0  0  0  0  0  0  0  0
   37.6170   32.3800   44.9770 H   0  0  0  0  0  0  0  0  0  0  0  0
   37.2160   29.6350   42.4850 Br  0  0  0  0  0  0  0  0  0  0  0  0
   36.1850   29.6970   44.1090 C   0  0  0  0  0  0  0  0  0  0  0  0
   36.6090   30.4880   45.1820 C   0  0  0  0  0  0  0  0  0  0  0  0
   35.7820   30.4400   46.2780 C   0  0  0  0  0  0  0  0  0  0  0  0
   36.0140   31.0010   47.1550 H   0  0  0  0  0  0  0  0  0  0  0  0
   34.6160   29.6880   46.3630 C   0  0  0  0  0  0  0  0  0  0  0  0
   34.0020   29.6920   47.2610 H   0  0  0  0  0  0  0  0  0  0  0  0
   34.2510   28.9280   45.2710 C   0  0  0  0  0  0  0  0  0  0  0  0
   35.0270   28.9220   44.1350 C   0  0  0  0  0  0  0  0  0  0  0  0
   36.9150   29.2620   50.3560 C   0  0  0  0  0  0  0  0  0  0  0  0
   36.3310   29.7010   51.5500 F   0  0  0  0  0  0  0  0  0  0  0  0
   36.0930   28.5130   49.5930 F   0  0  0  0  0  0  0  0  0  0  0  0
   38.0610   28.5740   50.7330 F   0  0  0  0  0  0  0  0  0  0  0  0
  1  2  1  0  0  0  0
  1 32  1  0  0  0  0
  2 13  1  0  0  0  0
  3 14  1  0  0  0  0
  3  2  2  0  0  0  0
  4  3  1  0  0  0  0
  5  4  2  0  0  0  0
  5  6  1  0  0  0  0
  6  1  2  0  0  0  0
  7  5  1  0  0  0  0
  8  7  1  0  0  0  0
  8 15  1  0  0  0  0
  9 17  1  0  0  0  0
  9  8  1  0  0  0  0
 10 11  1  0  0  0  0
 10  9  1  0  0  0  0
 11 20  1  0  0  0  0
 11 12  1  0  0  0  0
 12 22  1  6  0  0  0
 12 25  1  0  0  0  0
 12  7  1  0  0  0  0
 16  8  1  0  0  0  0
 18  9  1  0  0  0  0
 19 10  1  0  0  0  0
 21 11  1  0  0  0  0
 23 24  1  0  0  0  0
 24 31  2  0  0  0  0
 24 25  1  0  0  0  0
 25 26  2  0  0  0  0
 26 28  1  0  0  0  0
 26 27  1  0  0  0  0
 28 29  1  0  0  0  0
 30 28  2  0  0  0  0
 31 30  1  0  0  0  0
 32 35  1  0  0  0  0
 32 33  1  0  0  0  0
 34 32  1  0  0  0  0
M  END
>  <minimizedAffinity>
-6.54839134

>  <minimizedRMSD>
1.81674516

$$$$
