
 OpenBabel03272510163D

 28 30  0  0  0  0  0  0  0  0999 V2000
   36.6680   29.6580   51.2180 Br  0  0  0  0  0  0  0  0  0  0  0  0
   35.7560   29.2450   49.5970 C   0  0  0  0  0  0  0  0  0  0  0  0
   36.0400   29.9190   48.4280 C   0  0  0  0  0  0  0  0  0  0  0  0
   35.3440   29.5760   47.2750 C   0  0  0  0  0  0  0  0  0  0  0  0
   34.3760   28.5770   47.2790 C   0  0  0  0  0  0  0  0  0  0  0  0
   34.1120   27.9240   48.4530 C   0  0  0  0  0  0  0  0  0  0  0  0
   34.8000   28.2590   49.5990 C   0  0  0  0  0  0  0  0  0  0  0  0
   35.6130   30.1400   46.3930 H   0  0  0  0  0  0  0  0  0  0  0  0
   33.3530   27.1530   48.4230 H   0  0  0  0  0  0  0  0  0  0  0  0
   34.5760   27.7310   50.5160 H   0  0  0  0  0  0  0  0  0  0  0  0
   37.8430   32.9520   49.3510 C   0  0  0  0  0  0  0  0  0  0  0  0
   38.9230   33.0050   48.4200 C   0  0  0  0  0  0  0  0  0  0  0  0
   39.0020   31.9750   47.4830 C   0  0  0  0  0  0  0  0  0  0  0  0
   38.0610   30.9790   47.4950 N   0  0  0  0  0  0  0  0  0  0  0  0
   37.0570   30.9760   48.3990 C   0  0  0  0  0  0  0  0  0  0  0  0
   36.9440   31.9610   49.3310 N   0  0  0  0  0  0  0  0  0  0  0  0
   37.7300   33.7140   50.0950 H   0  0  0  0  0  0  0  0  0  0  0  0
   39.6210   33.8200   48.4750 H   0  0  0  0  0  0  0  0  0  0  0  0
   39.8080   31.9820   46.7610 H   0  0  0  0  0  0  0  0  0  0  0  0
   32.5200   30.8670   46.1800 Br  0  0  0  0  0  0  0  0  0  0  0  0
   32.8860   29.2050   45.3400 C   0  0  0  0  0  0  0  0  0  0  0  0
   33.7330   28.3340   45.9920 C   0  0  0  0  0  0  0  0  0  0  0  0
   33.9960   27.1120   45.3670 C   0  0  0  0  0  0  0  0  0  0  0  0
   34.6370   26.3330   45.7560 H   0  0  0  0  0  0  0  0  0  0  0  0
   33.4110   26.8200   44.1310 C   0  0  0  0  0  0  0  0  0  0  0  0
   33.5920   25.8730   43.6080 H   0  0  0  0  0  0  0  0  0  0  0  0
   32.5690   27.7120   43.5040 C   0  0  0  0  0  3  0  0  0  0  0  0
   32.3120   28.9150   44.1270 C   0  0  0  0  0  3  0  0  0  0  0  0
  2  7  1  0  0  0  0
  2  1  1  0  0  0  0
  3  2  2  0  0  0  0
  4  5  2  0  0  0  0
  4  3  1  0  0  0  0
  5  6  1  0  0  0  0
  6  7  2  0  0  0  0
  7 10  1  0  0  0  0
  8  4  1  0  0  0  0
  9  6  1  0  0  0  0
 11 17  1  0  0  0  0
 12 18  1  0  0  0  0
 12 11  2  0  0  0  0
 13 14  2  0  0  0  0
 13 12  1  0  0  0  0
 14 15  1  0  0  0  0
 15  3  1  0  0  0  0
 15 16  2  0  0  0  0
 16 11  1  0  0  0  0
 19 13  1  0  0  0  0
 21 22  1  0  0  0  0
 21 20  1  0  0  0  0
 22  5  1  0  0  0  0
 23 24  1  0  0  0  0
 23 22  2  0  0  0  0
 25 23  1  0  0  0  0
 26 25  1  0  0  0  0
 27 28  1  0  0  0  0
 27 25  2  0  0  0  0
 28 21  2  0  0  0  0
M  END
>  <minimizedAffinity>
-5.60618162

>  <minimizedRMSD>
1.09807527

$$$$
