
 OpenBabel03272503563D

 34 37  0  0  0  0  0  0  0  0999 V2000
   37.2470   29.7070   50.2260 C   0  0  0  0  0  0  0  0  0  0  0  0
   38.1680   30.3800   49.3890 C   0  0  0  0  0  0  0  0  0  0  0  0
   37.7510   30.6010   48.0760 C   0  0  0  0  0  0  0  0  0  0  0  0
   36.5550   30.1740   47.7190 N   0  0  0  0  0  0  0  0  0  0  0  0
   35.6760   29.5440   48.4740 C   0  0  0  0  0  0  0  0  0  0  0  0
   36.0790   29.3360   49.7280 N   0  0  0  0  0  0  0  0  0  0  0  0
   39.0630   30.6250   49.8990 H   0  0  0  0  0  0  0  0  0  0  0  0
   34.3360   29.0240   48.2240 C   0  0  0  0  0  0  0  0  0  0  0  0
   33.6500   28.2700   49.1290 N   0  0  0  0  0  0  0  0  0  0  0  0
   32.4250   27.8210   48.9030 C   0  0  0  0  0  0  0  0  0  0  0  0
   31.7320   28.0530   47.7750 N   0  0  0  0  0  0  0  0  0  0  0  0
   32.3450   28.7920   46.8290 C   0  0  0  0  0  0  0  0  0  0  0  0
   31.6520   29.0410   45.6700 C   0  0  0  0  0  0  0  0  0  0  0  0
   32.2360   29.7940   44.6630 C   0  0  0  0  0  0  0  0  0  0  0  0
   33.5190   30.2630   44.8960 C   0  0  0  0  0  0  0  0  0  0  0  0
   34.1590   29.9810   46.0770 C   0  0  0  0  0  0  0  0  0  0  0  0
   33.6140   29.2450   47.0870 C   0  0  0  0  0  0  0  0  0  0  0  0
   31.8840   27.2080   49.6550 H   0  0  0  0  0  0  0  0  0  0  0  0
   30.6510   28.6490   45.5400 H   0  0  0  0  0  0  0  0  0  0  0  0
   31.6540   29.9590   43.7840 H   0  0  0  0  0  0  0  0  0  0  0  0
   33.9260   30.8430   44.0800 H   0  0  0  0  0  0  0  0  0  0  0  0
   35.1490   30.3900   46.0940 H   0  0  0  0  0  0  0  0  0  0  0  0
   38.5460   33.5550   49.0110 Br  0  0  0  0  0  0  0  0  0  0  0  0
   39.1300   32.6020   47.4760 C   0  0  0  0  0  0  0  0  0  0  0  0
   38.6790   31.3380   47.2470 C   0  0  0  0  0  0  0  0  0  0  0  0
   39.2270   30.7720   46.1140 C   0  0  0  0  0  0  0  0  0  0  0  0
   38.9980   29.7820   45.7590 H   0  0  0  0  0  0  0  0  0  0  0  0
   40.1260   31.4110   45.3110 C   0  0  0  0  0  0  0  0  0  0  0  0
   40.5660   30.9630   44.4060 H   0  0  0  0  0  0  0  0  0  0  0  0
   40.5550   32.6880   45.5790 C   0  0  0  0  0  3  0  0  0  0  0  0
   40.0270   33.3040   46.7170 C   0  0  0  0  0  3  0  0  0  0  0  0
   37.5350   29.4300   51.6120 N   0  0  0  0  0  0  0  0  0  0  0  0
   37.5960   28.4970   52.0670 H   0  0  0  0  0  0  0  0  0  0  0  0
   37.6810   30.3250   52.1240 H   0  0  0  0  0  0  0  0  0  0  0  0
  1 32  1  0  0  0  0
  2  7  1  0  0  0  0
  2  1  2  0  0  0  0
  3  2  1  0  0  0  0
  4  3  2  0  0  0  0
  4  5  1  0  0  0  0
  5  6  2  0  0  0  0
  6  1  1  0  0  0  0
  8  5  1  0  0  0  0
  8  9  1  0  0  0  0
 10  9  2  0  0  0  0
 10 18  1  0  0  0  0
 11 10  1  0  0  0  0
 12 17  1  0  0  0  0
 12 11  2  0  0  0  0
 13 12  1  0  0  0  0
 14 15  1  0  0  0  0
 14 13  2  0  0  0  0
 15 16  2  0  0  0  0
 16 22  1  0  0  0  0
 16 17  1  0  0  0  0
 17  8  2  0  0  0  0
 19 13  1  0  0  0  0
 20 14  1  0  0  0  0
 21 15  1  0  0  0  0
 24 23  1  0  0  0  0
 25 24  1  0  0  0  0
 25  3  1  0  0  0  0
 26 25  2  0  0  0  0
 27 26  1  0  0  0  0
 28 30  2  0  0  0  0
 28 26  1  0  0  0  0
 29 28  1  0  0  0  0
 30 31  1  0  0  0  0
 31 24  2  0  0  0  0
 32 33  1  0  0  0  0
 32 34  1  0  0  0  0
M  END
>  <minimizedAffinity>
-7.16248941

>  <minimizedRMSD>
1.62541938

$$$$
