
 OpenBabel03272508383D

 44 47  0  0  1  0  0  0  0  0999 V2000
   38.1780   25.2840   36.3310 C   0  0  0  0  0  0  0  0  0  0  0  0
   38.3710   25.7780   37.3190 H   0  0  0  0  0  0  0  0  0  0  0  0
   37.0800   25.4980   36.1650 H   0  0  0  0  0  0  0  0  0  0  0  0
   38.2890   23.8980   36.5410 N   0  0  0  0  0  0  0  0  0  0  0  0
   38.7540   23.4880   37.8050 C   0  0  0  0  0  0  0  0  0  0  0  0
   40.0350   22.7370   37.8260 C   0  0  0  0  0  0  0  0  0  0  0  0
   40.1560   21.8390   36.7630 O   0  0  0  0  0  0  0  0  0  0  0  0
   39.9790   22.4580   35.5700 C   0  0  0  0  0  0  0  0  0  0  0  0
   38.6250   23.0850   35.4610 C   0  0  1  0  0  0  0  0  0  0  0  0
   38.6450   24.1490   38.6640 H   0  0  0  0  0  0  0  0  0  0  0  0
   37.9590   22.7400   38.0580 H   0  0  0  0  0  0  0  0  0  0  0  0
   39.8850   21.9610   38.6750 H   0  0  0  0  0  0  0  0  0  0  0  0
   40.9260   23.1870   38.2130 H   0  0  0  0  0  0  0  0  0  0  0  0
   39.8890   21.5830   34.8690 H   0  0  0  0  0  0  0  0  0  0  0  0
   40.8170   22.9810   35.1220 H   0  0  0  0  0  0  0  0  0  0  0  0
   38.7900   23.8420   34.5980 H   0  0  0  0  0  0  0  0  0  0  0  0
   38.4420   23.1150   32.3610 Br  0  0  0  0  0  0  0  0  0  0  0  0
   37.3270   22.0880   33.5550 C   0  0  0  0  0  0  0  0  0  0  0  0
   37.5660   22.2150   34.9330 C   0  0  0  0  0  0  0  0  0  0  0  0
   36.6940   21.4240   35.6420 C   0  0  0  0  0  0  0  0  0  0  0  0
   36.7530   21.4050   36.7170 H   0  0  0  0  0  0  0  0  0  0  0  0
   35.7130   20.6090   35.1260 C   0  0  0  0  0  0  0  0  0  0  0  0
   35.0640   20.0150   35.7480 H   0  0  0  0  0  0  0  0  0  0  0  0
   35.5610   20.5580   33.7590 C   0  0  0  0  0  3  0  0  0  0  0  0
   36.3760   21.3050   32.9400 C   0  0  0  0  0  3  0  0  0  0  0  0
   38.9210   25.9000   35.2510 C   0  0  0  0  0  0  0  0  0  0  0  0
   39.6840   26.5970   35.7330 H   0  0  0  0  0  0  0  0  0  0  0  0
   39.5130   25.3630   34.5290 H   0  0  0  0  0  0  0  0  0  0  0  0
   36.5330   28.1970   33.8750 C   0  0  0  0  0  0  0  0  0  0  0  0
   37.1500   27.7520   32.7210 C   0  0  0  0  0  0  0  0  0  0  0  0
   38.1260   26.8280   33.1090 C   0  0  0  0  0  0  0  0  0  0  0  0
   38.0600   26.7520   34.4380 N   0  0  0  0  0  0  0  0  0  0  0  0
   37.1050   27.5720   34.8960 N   0  0  0  0  0  0  0  0  0  0  0  0
   36.9100   28.0760   31.6900 H   0  0  0  0  0  0  0  0  0  0  0  0
   38.6730   26.4040   32.3500 H   0  0  0  0  0  0  0  0  0  0  0  0
   34.2740   31.0950   34.6300 C   0  0  0  0  0  0  0  0  0  0  0  0
   35.3350   30.2250   34.7430 C   0  0  0  0  0  0  0  0  0  0  0  0
   35.4670   29.1670   33.8540 C   0  0  0  0  0  0  0  0  0  0  0  0
   34.4950   29.0860   32.9130 N   0  0  0  0  0  0  0  0  0  0  0  0
   33.4560   29.9510   32.8120 C   0  0  0  0  0  0  0  0  0  0  0  0
   33.3660   30.9450   33.6800 N   0  0  0  0  0  0  0  0  0  0  0  0
   34.3070   31.8720   35.3980 H   0  0  0  0  0  0  0  0  0  0  0  0
   36.1180   30.2870   35.4990 H   0  0  0  0  0  0  0  0  0  0  0  0
   32.7090   29.8280   32.0330 H   0  0  0  0  0  0  0  0  0  0  0  0
  1  4  1  0  0  0  0
  1  2  1  0  0  0  0
  3  1  1  0  0  0  0
  4  5  1  0  0  0  0
  5  6  1  0  0  0  0
  5 11  1  0  0  0  0
  5 10  1  0  0  0  0
  6 13  1  0  0  0  0
  6 12  1  0  0  0  0
  7  6  1  0  0  0  0
  8  7  1  0  0  0  0
  9 16  1  6  0  0  0
  9  8  1  0  0  0  0
  9  4  1  0  0  0  0
 14  8  1  0  0  0  0
 15  8  1  0  0  0  0
 17 18  1  0  0  0  0
 18 19  1  0  0  0  0
 19  9  1  0  0  0  0
 19 20  2  0  0  0  0
 20 21  1  0  0  0  0
 22 20  1  0  0  0  0
 22 23  1  0  0  0  0
 24 22  2  0  0  0  0
 25 18  2  0  0  0  0
 25 24  1  0  0  0  0
 26 27  1  0  0  0  0
 26  1  1  0  0  0  0
 28 26  1  0  0  0  0
 29 33  2  0  0  0  0
 30 31  2  0  0  0  0
 30 29  1  0  0  0  0
 31 32  1  0  0  0  0
 32 33  1  0  0  0  0
 32 26  1  0  0  0  0
 34 30  1  0  0  0  0
 35 31  1  0  0  0  0
 36 37  1  0  0  0  0
 36 42  1  0  0  0  0
 37 43  1  0  0  0  0
 38 29  1  0  0  0  0
 38 37  2  0  0  0  0
 39 38  1  0  0  0  0
 40 39  2  0  0  0  0
 40 41  1  0  0  0  0
 41 36  2  0  0  0  0
 44 40  1  0  0  0  0
M  END
>  <minimizedAffinity>
-5.82159376

$$$$

 OpenBabel03272508383D

 44 47  0  0  1  0  0  0  0  0999 V2000
   38.6380   23.2510   33.0430 C   0  0  0  0  0  0  0  0  0  0  0  0
   39.4150   22.7440   32.4130 H   0  0  0  0  0  0  0  0  0  0  0  0
   38.7970   24.3420   32.7910 H   0  0  0  0  0  0  0  0  0  0  0  0
   39.0340   23.0880   34.3830 N   0  0  0  0  0  0  0  0  0  0  0  0
   38.3230   22.1370   35.1390 C   0  0  0  0  0  0  0  0  0  0  0  0
   37.5700   22.6520   36.3100 C   0  0  0  0  0  0  0  0  0  0  0  0
   38.2570   23.6520   37.0010 O   0  0  0  0  0  0  0  0  0  0  0  0
   38.6180   24.6650   36.1750 C   0  0  0  0  0  0  0  0  0  0  0  0
   39.5160   24.1970   35.0750 C   0  0  1  0  0  0  0  0  0  0  0  0
   37.8030   21.3220   34.6350 H   0  0  0  0  0  0  0  0  0  0  0  0
   39.1850   21.5590   35.5610 H   0  0  0  0  0  0  0  0  0  0  0  0
   37.6780   21.8090   37.1000 H   0  0  0  0  0  0  0  0  0  0  0  0
   36.5000   22.6880   36.3000 H   0  0  0  0  0  0  0  0  0  0  0  0
   39.3270   25.2490   36.8240 H   0  0  0  0  0  0  0  0  0  0  0  0
   37.8900   25.4350   35.9420 H   0  0  0  0  0  0  0  0  0  0  0  0
   39.4090   25.0590   34.3070 H   0  0  0  0  0  0  0  0  0  0  0  0
   40.9800   26.7100   33.9860 Br  0  0  0  0  0  0  0  0  0  0  0  0
   41.7880   25.2660   34.9790 C   0  0  0  0  0  0  0  0  0  0  0  0
   40.9530   24.2110   35.3810 C   0  0  0  0  0  0  0  0  0  0  0  0
   41.6760   23.2690   36.0740 C   0  0  0  0  0  0  0  0  0  0  0  0
   41.1760   22.3970   36.4580 H   0  0  0  0  0  0  0  0  0  0  0  0
   43.0210   23.3070   36.3570 C   0  0  0  0  0  0  0  0  0  0  0  0
   43.5210   22.5280   36.9070 H   0  0  0  0  0  0  0  0  0  0  0  0
   43.7510   24.3880   35.9150 C   0  0  0  0  0  3  0  0  0  0  0  0
   43.1390   25.3990   35.2100 C   0  0  0  0  0  3  0  0  0  0  0  0
   37.2900   22.8940   32.6530 C   0  0  0  0  0  0  0  0  0  0  0  0
   37.3820   22.1200   31.8210 H   0  0  0  0  0  0  0  0  0  0  0  0
   36.5580   22.4520   33.3080 H   0  0  0  0  0  0  0  0  0  0  0  0
   36.0860   26.0760   31.5150 C   0  0  0  0  0  0  0  0  0  0  0  0
   35.1630   25.2320   30.9270 C   0  0  0  0  0  0  0  0  0  0  0  0
   35.5110   23.9270   31.2930 C   0  0  0  0  0  0  0  0  0  0  0  0
   36.5940   24.0330   32.0630 N   0  0  0  0  0  0  0  0  0  0  0  0
   36.9370   25.3200   32.1950 N   0  0  0  0  0  0  0  0  0  0  0  0
   34.3130   25.5410   30.2880 H   0  0  0  0  0  0  0  0  0  0  0  0
   34.9080   23.1800   30.9290 H   0  0  0  0  0  0  0  0  0  0  0  0
   35.3730   29.7350   31.9370 C   0  0  0  0  0  0  0  0  0  0  0  0
   35.3540   28.3810   32.1880 C   0  0  0  0  0  0  0  0  0  0  0  0
   36.0340   27.5080   31.3510 C   0  0  0  0  0  0  0  0  0  0  0  0
   36.6830   28.0950   30.3160 N   0  0  0  0  0  0  0  0  0  0  0  0
   36.6940   29.4300   30.0810 C   0  0  0  0  0  0  0  0  0  0  0  0
   36.0330   30.2290   30.9030 N   0  0  0  0  0  0  0  0  0  0  0  0
   34.7950   30.2900   32.6800 H   0  0  0  0  0  0  0  0  0  0  0  0
   34.8330   27.9060   33.0190 H   0  0  0  0  0  0  0  0  0  0  0  0
   37.2360   29.8360   29.2310 H   0  0  0  0  0  0  0  0  0  0  0  0
  1  4  1  0  0  0  0
  2  1  1  0  0  0  0
  3  1  1  0  0  0  0
  4  9  1  0  0  0  0
  4  5  1  0  0  0  0
  5 11  1  0  0  0  0
  5  6  1  0  0  0  0
  6  7  1  0  0  0  0
  6 12  1  0  0  0  0
  8 14  1  0  0  0  0
  8  7  1  0  0  0  0
  9 16  1  6  0  0  0
  9 19  1  0  0  0  0
  9  8  1  0  0  0  0
 10  5  1  0  0  0  0
 13  6  1  0  0  0  0
 15  8  1  0  0  0  0
 17 18  1  0  0  0  0
 18 25  2  0  0  0  0
 18 19  1  0  0  0  0
 19 20  2  0  0  0  0
 20 22  1  0  0  0  0
 20 21  1  0  0  0  0
 22 23  1  0  0  0  0
 24 22  2  0  0  0  0
 25 24  1  0  0  0  0
 26  1  1  0  0  0  0
 26 28  1  0  0  0  0
 27 26  1  0  0  0  0
 29 33  2  0  0  0  0
 30 31  2  0  0  0  0
 30 29  1  0  0  0  0
 31 32  1  0  0  0  0
 32 33  1  0  0  0  0
 32 26  1  0  0  0  0
 34 30  1  0  0  0  0
 35 31  1  0  0  0  0
 36 37  1  0  0  0  0
 36 42  1  0  0  0  0
 37 43  1  0  0  0  0
 38 29  1  0  0  0  0
 38 37  2  0  0  0  0
 39 38  1  0  0  0  0
 40 39  2  0  0  0  0
 40 41  1  0  0  0  0
 41 36  2  0  0  0  0
 44 40  1  0  0  0  0
M  END
>  <minimizedAffinity>
-5.74887276

$$$$

 OpenBabel03272508383D

 44 47  0  0  1  0  0  0  0  0999 V2000
   37.8820   25.3400   33.8280 C   0  0  0  0  0  0  0  0  0  0  0  0
   38.2860   25.7470   34.7910 H   0  0  0  0  0  0  0  0  0  0  0  0
   36.7950   25.1560   34.0810 H   0  0  0  0  0  0  0  0  0  0  0  0
   38.4700   24.0750   33.6440 N   0  0  0  0  0  0  0  0  0  0  0  0
   38.6300   23.6420   32.3150 C   0  0  0  0  0  0  0  0  0  0  0  0
   37.8900   22.4150   31.9260 C   0  0  0  0  0  0  0  0  0  0  0  0
   37.8800   21.4450   32.9310 O   0  0  0  0  0  0  0  0  0  0  0  0
   37.4030   21.9470   34.0970 C   0  0  0  0  0  0  0  0  0  0  0  0
   38.2340   23.0870   34.5970 C   0  0  1  0  0  0  0  0  0  0  0  0
   38.6770   24.3730   31.5070 H   0  0  0  0  0  0  0  0  0  0  0  0
   39.7100   23.3480   32.3470 H   0  0  0  0  0  0  0  0  0  0  0  0
   38.6120   21.8770   31.1940 H   0  0  0  0  0  0  0  0  0  0  0  0
   37.0490   22.4690   31.2670 H   0  0  0  0  0  0  0  0  0  0  0  0
   37.6660   21.1290   34.8240 H   0  0  0  0  0  0  0  0  0  0  0  0
   36.3300   22.0010   34.2460 H   0  0  0  0  0  0  0  0  0  0  0  0
   37.5040   23.5980   35.3380 H   0  0  0  0  0  0  0  0  0  0  0  0
   37.7830   23.7880   37.5880 Br  0  0  0  0  0  0  0  0  0  0  0  0
   39.3510   22.9460   36.8430 C   0  0  0  0  0  0  0  0  0  0  0  0
   39.3650   22.7150   35.4580 C   0  0  0  0  0  0  0  0  0  0  0  0
   40.5440   22.1120   35.0870 C   0  0  0  0  0  0  0  0  0  0  0  0
   40.7070   21.8620   34.0530 H   0  0  0  0  0  0  0  0  0  0  0  0
   41.5880   21.7650   35.9130 C   0  0  0  0  0  0  0  0  0  0  0  0
   42.4840   21.2930   35.5490 H   0  0  0  0  0  0  0  0  0  0  0  0
   41.4730   22.0370   37.2580 C   0  0  0  0  0  3  0  0  0  0  0  0
   40.3390   22.6380   37.7520 C   0  0  0  0  0  3  0  0  0  0  0  0
   37.9320   26.3090   32.7530 C   0  0  0  0  0  0  0  0  0  0  0  0
   38.9500   26.8190   32.8180 H   0  0  0  0  0  0  0  0  0  0  0  0
   37.8530   26.0690   31.7050 H   0  0  0  0  0  0  0  0  0  0  0  0
   35.7890   28.9570   33.8780 C   0  0  0  0  0  0  0  0  0  0  0  0
   35.3230   28.7850   32.5890 C   0  0  0  0  0  0  0  0  0  0  0  0
   36.0790   27.7580   32.0130 C   0  0  0  0  0  0  0  0  0  0  0  0
   36.9430   27.3640   32.9480 N   0  0  0  0  0  0  0  0  0  0  0  0
   36.7690   28.0820   34.0650 N   0  0  0  0  0  0  0  0  0  0  0  0
   34.5040   29.3580   32.1120 H   0  0  0  0  0  0  0  0  0  0  0  0
   35.8430   27.5120   31.0450 H   0  0  0  0  0  0  0  0  0  0  0  0
   35.3400   31.7640   36.3270 C   0  0  0  0  0  0  0  0  0  0  0  0
   35.9750   30.8650   35.4990 C   0  0  0  0  0  0  0  0  0  0  0  0
   35.2350   29.9420   34.7740 C   0  0  0  0  0  0  0  0  0  0  0  0
   33.8940   30.0140   34.9550 N   0  0  0  0  0  0  0  0  0  0  0  0
   33.2810   30.9050   35.7730 C   0  0  0  0  0  0  0  0  0  0  0  0
   34.0230   31.7680   36.4470 N   0  0  0  0  0  0  0  0  0  0  0  0
   36.0530   32.4220   36.8280 H   0  0  0  0  0  0  0  0  0  0  0  0
   37.0530   30.8040   35.3520 H   0  0  0  0  0  0  0  0  0  0  0  0
   32.1990   30.9090   35.8720 H   0  0  0  0  0  0  0  0  0  0  0  0
  1  3  1  0  0  0  0
  1  2  1  0  0  0  0
  4  1  1  0  0  0  0
  4  9  1  0  0  0  0
  5 11  1  0  0  0  0
  5  4  1  0  0  0  0
  6  5  1  0  0  0  0
  6  7  1  0  0  0  0
  7  8  1  0  0  0  0
  8 15  1  0  0  0  0
  8  9  1  0  0  0  0
  8 14  1  0  0  0  0
  9 16  1  1  0  0  0
  9 19  1  0  0  0  0
 10  5  1  0  0  0  0
 12  6  1  0  0  0  0
 13  6  1  0  0  0  0
 18 17  1  0  0  0  0
 18 25  1  0  0  0  0
 19 18  2  0  0  0  0
 20 19  1  0  0  0  0
 20 22  2  0  0  0  0
 21 20  1  0  0  0  0
 22 24  1  0  0  0  0
 23 22  1  0  0  0  0
 24 25  2  0  0  0  0
 26 27  1  0  0  0  0
 26 32  1  0  0  0  0
 26  1  1  0  0  0  0
 28 26  1  0  0  0  0
 29 33  2  0  0  0  0
 29 38  1  0  0  0  0
 30 29  1  0  0  0  0
 31 30  2  0  0  0  0
 31 32  1  0  0  0  0
 32 33  1  0  0  0  0
 34 30  1  0  0  0  0
 35 31  1  0  0  0  0
 36 41  1  0  0  0  0
 36 42  1  0  0  0  0
 37 36  2  0  0  0  0
 38 39  2  0  0  0  0
 38 37  1  0  0  0  0
 39 40  1  0  0  0  0
 40 44  1  0  0  0  0
 40 41  2  0  0  0  0
 43 37  1  0  0  0  0
M  END
>  <minimizedAffinity>
-5.63293123

$$$$

 OpenBabel03272508383D

 44 47  0  0  1  0  0  0  0  0999 V2000
   37.8990   23.8850   30.4520 C   0  0  0  0  0  0  0  0  0  0  0  0
   38.6480   24.5830   29.9960 H   0  0  0  0  0  0  0  0  0  0  0  0
   37.2570   23.6060   29.5650 H   0  0  0  0  0  0  0  0  0  0  0  0
   37.0910   24.6590   31.3040 N   0  0  0  0  0  0  0  0  0  0  0  0
   35.7170   24.3540   31.3200 C   0  0  0  0  0  0  0  0  0  0  0  0
   34.7960   25.4260   30.8650 C   0  0  0  0  0  0  0  0  0  0  0  0
   35.1860   26.6960   31.2960 O   0  0  0  0  0  0  0  0  0  0  0  0
   36.4630   26.9700   30.9330 C   0  0  0  0  0  0  0  0  0  0  0  0
   37.4330   25.9930   31.5170 C   0  0  1  0  0  0  0  0  0  0  0  0
   35.3790   23.3600   31.0240 H   0  0  0  0  0  0  0  0  0  0  0  0
   35.5620   24.2670   32.4260 H   0  0  0  0  0  0  0  0  0  0  0  0
   33.8690   25.3020   31.5520 H   0  0  0  0  0  0  0  0  0  0  0  0
   34.2800   25.3440   29.9310 H   0  0  0  0  0  0  0  0  0  0  0  0
   36.6770   27.8990   31.5300 H   0  0  0  0  0  0  0  0  0  0  0  0
   36.6550   27.3360   29.9290 H   0  0  0  0  0  0  0  0  0  0  0  0
   38.3560   26.1450   30.8310 H   0  0  0  0  0  0  0  0  0  0  0  0
   40.4400   26.7680   31.4910 Br  0  0  0  0  0  0  0  0  0  0  0  0
   39.2930   26.7200   33.0420 C   0  0  0  0  0  0  0  0  0  0  0  0
   37.9560   26.3380   32.8460 C   0  0  0  0  0  0  0  0  0  0  0  0
   37.2760   26.3550   34.0400 C   0  0  0  0  0  0  0  0  0  0  0  0
   36.2330   26.0920   34.0570 H   0  0  0  0  0  0  0  0  0  0  0  0
   37.7840   26.6900   35.2730 C   0  0  0  0  0  0  0  0  0  0  0  0
   37.1870   26.6800   36.1700 H   0  0  0  0  0  0  0  0  0  0  0  0
   39.1100   27.0500   35.3570 C   0  0  0  0  0  3  0  0  0  0  0  0
   39.8970   27.0730   34.2280 C   0  0  0  0  0  3  0  0  0  0  0  0
   38.5090   22.6740   30.9600 C   0  0  0  0  0  0  0  0  0  0  0  0
   37.6670   21.9200   31.1120 H   0  0  0  0  0  0  0  0  0  0  0  0
   39.2530   22.0950   30.4380 H   0  0  0  0  0  0  0  0  0  0  0  0
   39.2890   23.0720   34.4390 C   0  0  0  0  0  0  0  0  0  0  0  0
   40.5300   23.2940   33.8750 C   0  0  0  0  0  0  0  0  0  0  0  0
   40.3780   23.1720   32.4890 C   0  0  0  0  0  0  0  0  0  0  0  0
   39.0930   22.8910   32.2800 N   0  0  0  0  0  0  0  0  0  0  0  0
   38.4410   22.8310   33.4480 N   0  0  0  0  0  0  0  0  0  0  0  0
   41.4630   23.5240   34.4260 H   0  0  0  0  0  0  0  0  0  0  0  0
   41.2260   23.3150   31.9280 H   0  0  0  0  0  0  0  0  0  0  0  0
   37.7600   23.4190   37.8480 C   0  0  0  0  0  0  0  0  0  0  0  0
   37.8560   23.4010   36.4740 C   0  0  0  0  0  0  0  0  0  0  0  0
   39.0710   23.1190   35.8640 C   0  0  0  0  0  0  0  0  0  0  0  0
   40.0960   22.8770   36.7150 N   0  0  0  0  0  0  0  0  0  0  0  0
   39.9880   22.8960   38.0670 C   0  0  0  0  0  0  0  0  0  0  0  0
   38.8130   23.1700   38.6090 N   0  0  0  0  0  0  0  0  0  0  0  0
   36.7460   23.6550   38.1770 H   0  0  0  0  0  0  0  0  0  0  0  0
   37.0330   23.5960   35.7860 H   0  0  0  0  0  0  0  0  0  0  0  0
   40.8520   22.6920   38.6920 H   0  0  0  0  0  0  0  0  0  0  0  0
  1 26  1  0  0  0  0
  1  4  1  0  0  0  0
  2  1  1  0  0  0  0
  3  1  1  0  0  0  0
  4  5  1  0  0  0  0
  4  9  1  0  0  0  0
  5 11  1  0  0  0  0
  6  7  1  0  0  0  0
  6  5  1  0  0  0  0
  6 12  1  0  0  0  0
  8  7  1  0  0  0  0
  8  9  1  0  0  0  0
  8 14  1  0  0  0  0
  9 16  1  6  0  0  0
  9 19  1  0  0  0  0
 10  5  1  0  0  0  0
 13  6  1  0  0  0  0
 15  8  1  0  0  0  0
 17 18  1  0  0  0  0
 18 25  1  0  0  0  0
 19 18  2  0  0  0  0
 19 20  1  0  0  0  0
 20 21  1  0  0  0  0
 20 22  2  0  0  0  0
 22 24  1  0  0  0  0
 22 23  1  0  0  0  0
 25 24  2  0  0  0  0
 26 27  1  0  0  0  0
 26 32  1  0  0  0  0
 28 26  1  0  0  0  0
 29 38  1  0  0  0  0
 30 34  1  0  0  0  0
 30 29  1  0  0  0  0
 31 30  2  0  0  0  0
 32 31  1  0  0  0  0
 32 33  1  0  0  0  0
 33 29  2  0  0  0  0
 35 31  1  0  0  0  0
 36 42  1  0  0  0  0
 36 41  1  0  0  0  0
 37 36  2  0  0  0  0
 38 37  1  0  0  0  0
 38 39  2  0  0  0  0
 39 40  1  0  0  0  0
 40 41  2  0  0  0  0
 40 44  1  0  0  0  0
 43 37  1  0  0  0  0
M  END
>  <minimizedAffinity>
-5.62647629

$$$$

 OpenBabel03272508383D

 44 47  0  0  1  0  0  0  0  0999 V2000
   37.8760   25.5590   34.5770 C   0  0  0  0  0  0  0  0  0  0  0  0
   38.7310   26.1020   35.0600 H   0  0  0  0  0  0  0  0  0  0  0  0
   37.0080   25.8320   35.2490 H   0  0  0  0  0  0  0  0  0  0  0  0
   38.1110   24.1850   34.7640 N   0  0  0  0  0  0  0  0  0  0  0  0
   38.7770   23.8140   35.9470 C   0  0  0  0  0  0  0  0  0  0  0  0
   40.0970   23.1540   35.7840 C   0  0  0  0  0  0  0  0  0  0  0  0
   40.1290   22.2600   34.7110 O   0  0  0  0  0  0  0  0  0  0  0  0
   39.7430   22.8600   33.5580 C   0  0  0  0  0  0  0  0  0  0  0  0
   38.3470   23.3920   33.6430 C   0  0  1  0  0  0  0  0  0  0  0  0
   38.7440   24.4710   36.8170 H   0  0  0  0  0  0  0  0  0  0  0  0
   38.0790   23.0150   36.3060 H   0  0  0  0  0  0  0  0  0  0  0  0
   40.1220   22.3730   36.6420 H   0  0  0  0  0  0  0  0  0  0  0  0
   41.0000   23.6650   36.0440 H   0  0  0  0  0  0  0  0  0  0  0  0
   39.6160   21.9770   32.8720 H   0  0  0  0  0  0  0  0  0  0  0  0
   40.4710   23.4370   32.9980 H   0  0  0  0  0  0  0  0  0  0  0  0
   38.3370   24.1530   32.7690 H   0  0  0  0  0  0  0  0  0  0  0  0
   37.4770   23.6460   30.6730 Br  0  0  0  0  0  0  0  0  0  0  0  0
   36.7600   22.4040   31.9640 C   0  0  0  0  0  0  0  0  0  0  0  0
   37.2870   22.4480   33.2660 C   0  0  0  0  0  0  0  0  0  0  0  0
   36.6760   21.5060   34.0580 C   0  0  0  0  0  0  0  0  0  0  0  0
   36.9740   21.4080   35.0880 H   0  0  0  0  0  0  0  0  0  0  0  0
   35.6880   20.6260   33.6810 C   0  0  0  0  0  0  0  0  0  0  0  0
   35.2550   19.9120   34.3620 H   0  0  0  0  0  0  0  0  0  0  0  0
   35.2420   20.6650   32.3800 C   0  0  0  0  0  3  0  0  0  0  0  0
   35.7770   21.5660   31.4880 C   0  0  0  0  0  3  0  0  0  0  0  0
   37.5860   26.0550   33.2490 C   0  0  0  0  0  0  0  0  0  0  0  0
   38.5840   26.3510   32.7820 H   0  0  0  0  0  0  0  0  0  0  0  0
   37.1200   25.4800   32.4660 H   0  0  0  0  0  0  0  0  0  0  0  0
   35.7880   29.0470   34.0800 C   0  0  0  0  0  0  0  0  0  0  0  0
   35.5830   28.9990   32.7140 C   0  0  0  0  0  0  0  0  0  0  0  0
   36.2380   27.8580   32.2410 C   0  0  0  0  0  0  0  0  0  0  0  0
   36.7940   27.2800   33.3050 N   0  0  0  0  0  0  0  0  0  0  0  0
   36.5240   27.9920   34.4060 N   0  0  0  0  0  0  0  0  0  0  0  0
   35.0060   29.7340   32.1180 H   0  0  0  0  0  0  0  0  0  0  0  0
   36.1720   27.6860   31.2300 H   0  0  0  0  0  0  0  0  0  0  0  0
   35.3880   31.9900   36.3720 C   0  0  0  0  0  0  0  0  0  0  0  0
   36.0090   31.0210   35.6150 C   0  0  0  0  0  0  0  0  0  0  0  0
   35.2500   30.1010   34.9040 C   0  0  0  0  0  0  0  0  0  0  0  0
   33.9100   30.2470   35.0270 N   0  0  0  0  0  0  0  0  0  0  0  0
   33.3120   31.2070   35.7760 C   0  0  0  0  0  0  0  0  0  0  0  0
   34.0700   32.0640   36.4390 N   0  0  0  0  0  0  0  0  0  0  0  0
   36.1150   32.6370   36.8700 H   0  0  0  0  0  0  0  0  0  0  0  0
   37.0870   30.9000   35.5140 H   0  0  0  0  0  0  0  0  0  0  0  0
   32.2280   31.2680   35.8310 H   0  0  0  0  0  0  0  0  0  0  0  0
  1  4  1  0  0  0  0
  1  2  1  0  0  0  0
  1  3  1  0  0  0  0
  4  5  1  0  0  0  0
  5 11  1  0  0  0  0
  5 10  1  0  0  0  0
  6  5  1  0  0  0  0
  6 13  1  0  0  0  0
  6 12  1  0  0  0  0
  7  6  1  0  0  0  0
  8  9  1  0  0  0  0
  8  7  1  0  0  0  0
  9 16  1  6  0  0  0
  9  4  1  0  0  0  0
 14  8  1  0  0  0  0
 15  8  1  0  0  0  0
 17 18  1  0  0  0  0
 18 19  1  0  0  0  0
 19  9  1  0  0  0  0
 19 20  2  0  0  0  0
 20 21  1  0  0  0  0
 22 20  1  0  0  0  0
 22 23  1  0  0  0  0
 24 22  2  0  0  0  0
 25 18  2  0  0  0  0
 25 24  1  0  0  0  0
 26 32  1  0  0  0  0
 26  1  1  0  0  0  0
 27 26  1  0  0  0  0
 28 26  1  0  0  0  0
 29 33  2  0  0  0  0
 29 38  1  0  0  0  0
 30 29  1  0  0  0  0
 31 30  2  0  0  0  0
 31 32  1  0  0  0  0
 32 33  1  0  0  0  0
 34 30  1  0  0  0  0
 35 31  1  0  0  0  0
 36 41  1  0  0  0  0
 36 42  1  0  0  0  0
 37 36  2  0  0  0  0
 38 39  2  0  0  0  0
 38 37  1  0  0  0  0
 39 40  1  0  0  0  0
 40 44  1  0  0  0  0
 40 41  2  0  0  0  0
 43 37  1  0  0  0  0
M  END
>  <minimizedAffinity>
-5.61864519

$$$$

 OpenBabel03272508383D

 44 47  0  0  1  0  0  0  0  0999 V2000
   38.2470   25.3140   36.0930 C   0  0  0  0  0  0  0  0  0  0  0  0
   38.3110   25.8250   37.0890 H   0  0  0  0  0  0  0  0  0  0  0  0
   37.1860   25.5400   35.7740 H   0  0  0  0  0  0  0  0  0  0  0  0
   38.3040   23.9310   36.3430 N   0  0  0  0  0  0  0  0  0  0  0  0
   38.7240   23.5390   37.6270 C   0  0  0  0  0  0  0  0  0  0  0  0
   39.9770   22.7460   37.7000 C   0  0  0  0  0  0  0  0  0  0  0  0
   40.0910   21.8150   36.6650 O   0  0  0  0  0  0  0  0  0  0  0  0
   39.9650   22.4080   35.4520 C   0  0  0  0  0  0  0  0  0  0  0  0
   38.6370   23.0780   35.2930 C   0  0  1  0  0  0  0  0  0  0  0  0
   38.6170   24.2270   38.4670 H   0  0  0  0  0  0  0  0  0  0  0  0
   37.8970   22.8270   37.8800 H   0  0  0  0  0  0  0  0  0  0  0  0
   39.7790   21.9980   38.5650 H   0  0  0  0  0  0  0  0  0  0  0  0
   40.8730   23.1740   38.0970 H   0  0  0  0  0  0  0  0  0  0  0  0
   39.8610   21.5180   34.7720 H   0  0  0  0  0  0  0  0  0  0  0  0
   40.8310   22.8890   35.0110 H   0  0  0  0  0  0  0  0  0  0  0  0
   38.8490   23.8050   34.4140 H   0  0  0  0  0  0  0  0  0  0  0  0
   38.3020   23.3050   32.2140 Br  0  0  0  0  0  0  0  0  0  0  0  0
   37.2550   22.1900   33.3910 C   0  0  0  0  0  0  0  0  0  0  0  0
   37.5600   22.2310   34.7620 C   0  0  0  0  0  0  0  0  0  0  0  0
   36.7310   21.3860   35.4590 C   0  0  0  0  0  0  0  0  0  0  0  0
   36.8430   21.2990   36.5260 H   0  0  0  0  0  0  0  0  0  0  0  0
   35.7330   20.5950   34.9400 C   0  0  0  0  0  0  0  0  0  0  0  0
   35.1210   19.9550   35.5520 H   0  0  0  0  0  0  0  0  0  0  0  0
   35.5150   20.6290   33.5810 C   0  0  0  0  0  3  0  0  0  0  0  0
   36.2820   21.4370   32.7730 C   0  0  0  0  0  3  0  0  0  0  0  0
   39.1410   25.8960   35.1140 C   0  0  0  0  0  0  0  0  0  0  0  0
   39.7240   26.7180   35.6490 H   0  0  0  0  0  0  0  0  0  0  0  0
   39.9150   25.3580   34.5930 H   0  0  0  0  0  0  0  0  0  0  0  0
   37.9340   27.5350   32.1600 C   0  0  0  0  0  0  0  0  0  0  0  0
   36.7700   27.4570   32.9000 C   0  0  0  0  0  0  0  0  0  0  0  0
   37.0930   26.8290   34.1080 C   0  0  0  0  0  0  0  0  0  0  0  0
   38.3970   26.5630   34.0510 N   0  0  0  0  0  0  0  0  0  0  0  0
   38.9010   26.9860   32.8840 N   0  0  0  0  0  0  0  0  0  0  0  0
   35.7730   27.8250   32.5850 H   0  0  0  0  0  0  0  0  0  0  0  0
   36.3190   26.7000   34.7710 H   0  0  0  0  0  0  0  0  0  0  0  0
   37.3430   29.7140   29.1640 C   0  0  0  0  0  0  0  0  0  0  0  0
   37.2240   29.2260   30.4460 C   0  0  0  0  0  0  0  0  0  0  0  0
   37.9750   28.1300   30.8470 C   0  0  0  0  0  0  0  0  0  0  0  0
   38.7920   27.6170   29.8970 N   0  0  0  0  0  0  0  0  0  0  0  0
   38.9000   28.1080   28.6370 C   0  0  0  0  0  0  0  0  0  0  0  0
   38.1670   29.1540   28.2940 N   0  0  0  0  0  0  0  0  0  0  0  0
   36.6910   30.5750   28.9990 H   0  0  0  0  0  0  0  0  0  0  0  0
   36.5670   29.6360   31.2140 H   0  0  0  0  0  0  0  0  0  0  0  0
   39.5760   27.6480   27.9220 H   0  0  0  0  0  0  0  0  0  0  0  0
  1  4  1  0  0  0  0
  1  2  1  0  0  0  0
  3  1  1  0  0  0  0
  4  5  1  0  0  0  0
  5  6  1  0  0  0  0
  5 11  1  0  0  0  0
  5 10  1  0  0  0  0
  6 13  1  0  0  0  0
  6 12  1  0  0  0  0
  7  6  1  0  0  0  0
  8  7  1  0  0  0  0
  9 16  1  6  0  0  0
  9  8  1  0  0  0  0
  9  4  1  0  0  0  0
 14  8  1  0  0  0  0
 15  8  1  0  0  0  0
 17 18  1  0  0  0  0
 18 19  1  0  0  0  0
 19  9  1  0  0  0  0
 19 20  2  0  0  0  0
 20 21  1  0  0  0  0
 22 20  1  0  0  0  0
 22 23  1  0  0  0  0
 24 22  2  0  0  0  0
 25 18  2  0  0  0  0
 25 24  1  0  0  0  0
 26 27  1  0  0  0  0
 26  1  1  0  0  0  0
 28 26  1  0  0  0  0
 29 33  2  0  0  0  0
 29 30  1  0  0  0  0
 30 31  2  0  0  0  0
 31 35  1  0  0  0  0
 32 31  1  0  0  0  0
 32 26  1  0  0  0  0
 33 32  1  0  0  0  0
 34 30  1  0  0  0  0
 36 37  1  0  0  0  0
 37 38  2  0  0  0  0
 37 43  1  0  0  0  0
 38 29  1  0  0  0  0
 39 38  1  0  0  0  0
 40 39  2  0  0  0  0
 41 40  1  0  0  0  0
 41 36  2  0  0  0  0
 42 36  1  0  0  0  0
 44 40  1  0  0  0  0
M  END
>  <minimizedAffinity>
-5.58262444

$$$$

 OpenBabel03272508383D

 44 47  0  0  1  0  0  0  0  0999 V2000
   37.3500   24.7530   30.7500 C   0  0  0  0  0  0  0  0  0  0  0  0
   38.4530   24.5960   30.6220 H   0  0  0  0  0  0  0  0  0  0  0  0
   36.9900   24.8200   29.6800 H   0  0  0  0  0  0  0  0  0  0  0  0
   37.1850   26.0330   31.3090 N   0  0  0  0  0  0  0  0  0  0  0  0
   36.1500   26.8250   30.7780 C   0  0  0  0  0  0  0  0  0  0  0  0
   36.5570   28.0920   30.1200 C   0  0  0  0  0  0  0  0  0  0  0  0
   37.5960   28.7420   30.7900 O   0  0  0  0  0  0  0  0  0  0  0  0
   38.6620   27.9220   30.9610 C   0  0  0  0  0  0  0  0  0  0  0  0
   38.3130   26.7110   31.7660 C   0  0  1  0  0  0  0  0  0  0  0  0
   35.3050   26.3490   30.2780 H   0  0  0  0  0  0  0  0  0  0  0  0
   35.6420   27.1250   31.7300 H   0  0  0  0  0  0  0  0  0  0  0  0
   35.7050   28.8310   30.3930 H   0  0  0  0  0  0  0  0  0  0  0  0
   36.4920   28.2020   29.0580 H   0  0  0  0  0  0  0  0  0  0  0  0
   39.2910   28.5120   31.6850 H   0  0  0  0  0  0  0  0  0  0  0  0
   39.3670   27.8020   30.1450 H   0  0  0  0  0  0  0  0  0  0  0  0
   39.1840   25.9950   31.4950 H   0  0  0  0  0  0  0  0  0  0  0  0
   40.9510   25.5040   32.8740 Br  0  0  0  0  0  0  0  0  0  0  0  0
   39.5790   26.3790   33.9110 C   0  0  0  0  0  0  0  0  0  0  0  0
   38.4530   26.8560   33.2210 C   0  0  0  0  0  0  0  0  0  0  0  0
   37.5750   27.4500   34.0970 C   0  0  0  0  0  0  0  0  0  0  0  0
   36.6610   27.8740   33.7210 H   0  0  0  0  0  0  0  0  0  0  0  0
   37.7300   27.5830   35.4570 C   0  0  0  0  0  0  0  0  0  0  0  0
   36.9960   28.0630   36.0810 H   0  0  0  0  0  0  0  0  0  0  0  0
   38.8730   27.0780   36.0350 C   0  0  0  0  0  3  0  0  0  0  0  0
   39.8300   26.4610   35.2620 C   0  0  0  0  0  3  0  0  0  0  0  0
   36.6980   23.6190   31.3700 C   0  0  0  0  0  0  0  0  0  0  0  0
   35.7230   24.0040   31.8190 H   0  0  0  0  0  0  0  0  0  0  0  0
   36.3840   22.7300   30.8480 H   0  0  0  0  0  0  0  0  0  0  0  0
   38.2890   22.8740   34.4980 C   0  0  0  0  0  0  0  0  0  0  0  0
   38.8570   21.9080   33.6890 C   0  0  0  0  0  0  0  0  0  0  0  0
   38.3220   22.0800   32.4080 C   0  0  0  0  0  0  0  0  0  0  0  0
   37.4800   23.1100   32.4920 N   0  0  0  0  0  0  0  0  0  0  0  0
   37.4610   23.5850   33.7440 N   0  0  0  0  0  0  0  0  0  0  0  0
   39.5950   21.1460   34.0070 H   0  0  0  0  0  0  0  0  0  0  0  0
   38.6550   21.4280   31.6880 H   0  0  0  0  0  0  0  0  0  0  0  0
   38.2000   23.6280   38.1720 C   0  0  0  0  0  0  0  0  0  0  0  0
   37.7890   23.5650   36.8590 C   0  0  0  0  0  0  0  0  0  0  0  0
   38.6130   22.9950   35.8980 C   0  0  0  0  0  0  0  0  0  0  0  0
   39.7980   22.5320   36.3610 N   0  0  0  0  0  0  0  0  0  0  0  0
   40.1900   22.5990   37.6580 C   0  0  0  0  0  0  0  0  0  0  0  0
   39.3770   23.1510   38.5430 N   0  0  0  0  0  0  0  0  0  0  0  0
   37.4470   24.1010   38.8070 H   0  0  0  0  0  0  0  0  0  0  0  0
   36.8360   23.9370   36.4830 H   0  0  0  0  0  0  0  0  0  0  0  0
   41.1570   22.2080   37.9630 H   0  0  0  0  0  0  0  0  0  0  0  0
  1  4  1  0  0  0  0
  1 26  1  0  0  0  0
  2  1  1  0  0  0  0
  3  1  1  0  0  0  0
  4  9  1  0  0  0  0
  5  4  1  0  0  0  0
  5 11  1  0  0  0  0
  6 12  1  0  0  0  0
  6  5  1  0  0  0  0
  6  7  1  0  0  0  0
  7  8  1  0  0  0  0
  8 14  1  0  0  0  0
  8  9  1  0  0  0  0
  9 16  1  6  0  0  0
  9 19  1  0  0  0  0
 10  5  1  0  0  0  0
 13  6  1  0  0  0  0
 15  8  1  0  0  0  0
 17 18  1  0  0  0  0
 18 25  1  0  0  0  0
 19 18  2  0  0  0  0
 19 20  1  0  0  0  0
 20 22  2  0  0  0  0
 21 20  1  0  0  0  0
 22 24  1  0  0  0  0
 22 23  1  0  0  0  0
 25 24  2  0  0  0  0
 26 27  1  0  0  0  0
 26 32  1  0  0  0  0
 28 26  1  0  0  0  0
 29 38  1  0  0  0  0
 30 34  1  0  0  0  0
 30 29  1  0  0  0  0
 31 32  1  0  0  0  0
 31 30  2  0  0  0  0
 32 33  1  0  0  0  0
 33 29  2  0  0  0  0
 35 31  1  0  0  0  0
 36 41  1  0  0  0  0
 36 42  1  0  0  0  0
 37 36  2  0  0  0  0
 38 39  2  0  0  0  0
 38 37  1  0  0  0  0
 39 40  1  0  0  0  0
 40 44  1  0  0  0  0
 40 41  2  0  0  0  0
 43 37  1  0  0  0  0
M  END
>  <minimizedAffinity>
-5.52611351

$$$$

 OpenBabel03272508383D

 44 47  0  0  1  0  0  0  0  0999 V2000
   38.0910   24.8190   35.5060 C   0  0  0  0  0  0  0  0  0  0  0  0
   38.0360   24.8700   36.6250 H   0  0  0  0  0  0  0  0  0  0  0  0
   37.0260   25.0450   35.2010 H   0  0  0  0  0  0  0  0  0  0  0  0
   38.3260   23.4730   35.1730 N   0  0  0  0  0  0  0  0  0  0  0  0
   39.1950   22.7560   36.0170 C   0  0  0  0  0  0  0  0  0  0  0  0
   40.4440   22.2450   35.4000 C   0  0  0  0  0  0  0  0  0  0  0  0
   40.2530   21.7640   34.1030 O   0  0  0  0  0  0  0  0  0  0  0  0
   39.6690   22.6970   33.3110 C   0  0  0  0  0  0  0  0  0  0  0  0
   38.3280   23.1100   33.8280 C   0  0  1  0  0  0  0  0  0  0  0  0
   39.3420   23.0830   37.0470 H   0  0  0  0  0  0  0  0  0  0  0  0
   38.5590   21.8540   36.2100 H   0  0  0  0  0  0  0  0  0  0  0  0
   40.6140   21.2250   35.9250 H   0  0  0  0  0  0  0  0  0  0  0  0
   41.3920   22.6790   35.6440 H   0  0  0  0  0  0  0  0  0  0  0  0
   39.3950   22.0900   32.4050 H   0  0  0  0  0  0  0  0  0  0  0  0
   40.2920   23.4590   32.8530 H   0  0  0  0  0  0  0  0  0  0  0  0
   38.1690   24.1190   33.2780 H   0  0  0  0  0  0  0  0  0  0  0  0
   37.0820   24.1600   31.1840 Br  0  0  0  0  0  0  0  0  0  0  0  0
   36.4990   22.6120   32.1780 C   0  0  0  0  0  0  0  0  0  0  0  0
   37.1930   22.3020   33.3590 C   0  0  0  0  0  0  0  0  0  0  0  0
   36.6590   21.1790   33.9450 C   0  0  0  0  0  0  0  0  0  0  0  0
   37.0880   20.8070   34.8590 H   0  0  0  0  0  0  0  0  0  0  0  0
   35.6010   20.4330   33.4830 C   0  0  0  0  0  0  0  0  0  0  0  0
   35.2360   19.5610   33.9990 H   0  0  0  0  0  0  0  0  0  0  0  0
   34.9880   20.8240   32.3140 C   0  0  0  0  0  3  0  0  0  0  0  0
   35.4320   21.9330   31.6330 C   0  0  0  0  0  3  0  0  0  0  0  0
   38.9430   25.8470   34.9470 C   0  0  0  0  0  0  0  0  0  0  0  0
   39.2490   26.5260   35.8100 H   0  0  0  0  0  0  0  0  0  0  0  0
   39.8790   25.6640   34.4460 H   0  0  0  0  0  0  0  0  0  0  0  0
   37.6910   27.8360   32.2360 C   0  0  0  0  0  0  0  0  0  0  0  0
   36.6390   27.9310   33.1270 C   0  0  0  0  0  0  0  0  0  0  0  0
   36.9930   27.1900   34.2600 C   0  0  0  0  0  0  0  0  0  0  0  0
   38.2050   26.6950   34.0160 N   0  0  0  0  0  0  0  0  0  0  0  0
   38.6230   27.0820   32.8040 N   0  0  0  0  0  0  0  0  0  0  0  0
   35.6970   28.4910   32.9630 H   0  0  0  0  0  0  0  0  0  0  0  0
   36.3020   27.1690   35.0190 H   0  0  0  0  0  0  0  0  0  0  0  0
   38.1670   28.6800   28.6120 C   0  0  0  0  0  0  0  0  0  0  0  0
   38.2470   27.9750   29.7920 C   0  0  0  0  0  0  0  0  0  0  0  0
   37.6710   28.4840   30.9480 C   0  0  0  0  0  0  0  0  0  0  0  0
   37.0560   29.6820   30.8020 N   0  0  0  0  0  0  0  0  0  0  0  0
   36.9840   30.3650   29.6320 C   0  0  0  0  0  0  0  0  0  0  0  0
   37.5460   29.8460   28.5540 N   0  0  0  0  0  0  0  0  0  0  0  0
   38.6650   28.1530   27.7940 H   0  0  0  0  0  0  0  0  0  0  0  0
   38.7410   27.0110   29.9140 H   0  0  0  0  0  0  0  0  0  0  0  0
   36.4740   31.3230   29.5840 H   0  0  0  0  0  0  0  0  0  0  0  0
  1  2  1  0  0  0  0
  3  1  1  0  0  0  0
  4  1  1  0  0  0  0
  4  5  1  0  0  0  0
  5 11  1  0  0  0  0
  5 10  1  0  0  0  0
  6 13  1  0  0  0  0
  6 12  1  0  0  0  0
  6  5  1  0  0  0  0
  7  6  1  0  0  0  0
  8  9  1  0  0  0  0
  8  7  1  0  0  0  0
  9 16  1  6  0  0  0
  9  4  1  0  0  0  0
 14  8  1  0  0  0  0
 15  8  1  0  0  0  0
 17 18  1  0  0  0  0
 18 19  1  0  0  0  0
 19  9  1  0  0  0  0
 19 20  2  0  0  0  0
 20 21  1  0  0  0  0
 22 20  1  0  0  0  0
 22 23  1  0  0  0  0
 24 22  2  0  0  0  0
 25 18  2  0  0  0  0
 25 24  1  0  0  0  0
 26  1  1  0  0  0  0
 26 27  1  0  0  0  0
 28 26  1  0  0  0  0
 29 33  2  0  0  0  0
 29 30  1  0  0  0  0
 30 31  2  0  0  0  0
 31 35  1  0  0  0  0
 32 31  1  0  0  0  0
 32 26  1  0  0  0  0
 33 32  1  0  0  0  0
 34 30  1  0  0  0  0
 36 37  1  0  0  0  0
 37 43  1  0  0  0  0
 37 38  2  0  0  0  0
 38 29  1  0  0  0  0
 39 38  1  0  0  0  0
 40 39  2  0  0  0  0
 41 36  2  0  0  0  0
 41 40  1  0  0  0  0
 42 36  1  0  0  0  0
 44 40  1  0  0  0  0
M  END
>  <minimizedAffinity>
-5.31575966

$$$$

 OpenBabel03272508383D

 44 47  0  0  1  0  0  0  0  0999 V2000
   38.7540   23.7400   32.7770 C   0  0  0  0  0  0  0  0  0  0  0  0
   39.0860   23.0000   32.0030 H   0  0  0  0  0  0  0  0  0  0  0  0
   39.4320   24.6220   32.5750 H   0  0  0  0  0  0  0  0  0  0  0  0
   39.1350   23.2190   34.0260 N   0  0  0  0  0  0  0  0  0  0  0  0
   38.4810   22.0460   34.4470 C   0  0  0  0  0  0  0  0  0  0  0  0
   37.6710   22.1490   35.6870 C   0  0  0  0  0  0  0  0  0  0  0  0
   38.2730   22.9450   36.6640 O   0  0  0  0  0  0  0  0  0  0  0  0
   38.5760   24.1760   36.1810 C   0  0  0  0  0  0  0  0  0  0  0  0
   39.5250   24.1060   35.0270 C   0  0  1  0  0  0  0  0  0  0  0  0
   38.0290   21.3820   33.7090 H   0  0  0  0  0  0  0  0  0  0  0  0
   39.3730   21.4250   34.7160 H   0  0  0  0  0  0  0  0  0  0  0  0
   37.8250   21.1210   36.2030 H   0  0  0  0  0  0  0  0  0  0  0  0
   36.6020   22.1190   35.6470 H   0  0  0  0  0  0  0  0  0  0  0  0
   39.2300   24.5880   36.9980 H   0  0  0  0  0  0  0  0  0  0  0  0
   37.7990   24.9330   36.1530 H   0  0  0  0  0  0  0  0  0  0  0  0
   39.3710   25.1460   34.5380 H   0  0  0  0  0  0  0  0  0  0  0  0
   40.9970   26.6740   34.0860 Br  0  0  0  0  0  0  0  0  0  0  0  0
   41.7880   25.1980   35.0460 C   0  0  0  0  0  0  0  0  0  0  0  0
   40.9510   24.1200   35.3800 C   0  0  0  0  0  0  0  0  0  0  0  0
   41.6620   23.1580   36.0570 C   0  0  0  0  0  0  0  0  0  0  0  0
   41.1580   22.2670   36.3900 H   0  0  0  0  0  0  0  0  0  0  0  0
   42.9970   23.1960   36.3830 C   0  0  0  0  0  0  0  0  0  0  0  0
   43.4870   22.4000   36.9180 H   0  0  0  0  0  0  0  0  0  0  0  0
   43.7290   24.3000   36.0080 C   0  0  0  0  0  3  0  0  0  0  0  0
   43.1300   25.3330   35.3250 C   0  0  0  0  0  3  0  0  0  0  0  0
   37.3870   24.1740   32.5770 C   0  0  0  0  0  0  0  0  0  0  0  0
   37.0350   23.7120   31.5950 H   0  0  0  0  0  0  0  0  0  0  0  0
   36.5700   23.9580   33.2450 H   0  0  0  0  0  0  0  0  0  0  0  0
   37.2660   27.5670   31.4180 C   0  0  0  0  0  0  0  0  0  0  0  0
   37.1340   27.7600   32.7800 C   0  0  0  0  0  0  0  0  0  0  0  0
   37.1680   26.4950   33.3780 C   0  0  0  0  0  0  0  0  0  0  0  0
   37.3150   25.6180   32.3860 N   0  0  0  0  0  0  0  0  0  0  0  0
   37.3740   26.2610   31.2120 N   0  0  0  0  0  0  0  0  0  0  0  0
   37.0230   28.7370   33.2910 H   0  0  0  0  0  0  0  0  0  0  0  0
   37.0820   26.4780   34.4010 H   0  0  0  0  0  0  0  0  0  0  0  0
   37.7570   29.7230   28.3870 C   0  0  0  0  0  0  0  0  0  0  0  0
   37.8050   28.6120   29.2010 C   0  0  0  0  0  0  0  0  0  0  0  0
   37.2730   28.6630   30.4820 C   0  0  0  0  0  0  0  0  0  0  0  0
   36.7320   29.8550   30.8300 N   0  0  0  0  0  0  0  0  0  0  0  0
   36.6900   30.9410   30.0180 C   0  0  0  0  0  0  0  0  0  0  0  0
   37.2090   30.8510   28.8050 N   0  0  0  0  0  0  0  0  0  0  0  0
   38.2130   29.5280   27.4140 H   0  0  0  0  0  0  0  0  0  0  0  0
   38.2400   27.6520   28.9240 H   0  0  0  0  0  0  0  0  0  0  0  0
   36.2400   31.8680   30.3610 H   0  0  0  0  0  0  0  0  0  0  0  0
  1  4  1  0  0  0  0
  2  1  1  0  0  0  0
  3  1  1  0  0  0  0
  4  5  1  0  0  0  0
  4  9  1  0  0  0  0
  5 11  1  0  0  0  0
  5  6  1  0  0  0  0
  6 12  1  0  0  0  0
  6  7  1  0  0  0  0
  8  7  1  0  0  0  0
  8 14  1  0  0  0  0
  9 16  1  6  0  0  0
  9 19  1  0  0  0  0
  9  8  1  0  0  0  0
 10  5  1  0  0  0  0
 13  6  1  0  0  0  0
 15  8  1  0  0  0  0
 17 18  1  0  0  0  0
 18 25  2  0  0  0  0
 18 19  1  0  0  0  0
 19 20  2  0  0  0  0
 20 22  1  0  0  0  0
 20 21  1  0  0  0  0
 22 23  1  0  0  0  0
 24 22  2  0  0  0  0
 25 24  1  0  0  0  0
 26  1  1  0  0  0  0
 26 28  1  0  0  0  0
 27 26  1  0  0  0  0
 29 30  1  0  0  0  0
 30 34  1  0  0  0  0
 30 31  2  0  0  0  0
 31 35  1  0  0  0  0
 32 26  1  0  0  0  0
 32 31  1  0  0  0  0
 33 29  2  0  0  0  0
 33 32  1  0  0  0  0
 36 41  2  0  0  0  0
 36 37  1  0  0  0  0
 37 38  2  0  0  0  0
 38 39  1  0  0  0  0
 38 29  1  0  0  0  0
 40 44  1  0  0  0  0
 40 39  2  0  0  0  0
 41 40  1  0  0  0  0
 42 36  1  0  0  0  0
 43 37  1  0  0  0  0
M  END
>  <minimizedAffinity>
-5.20096111

$$$$
