
 OpenBabel03262523583D

 28 30  0  0  0  0  0  0  0  0999 V2000
   36.6230   30.8050   47.3970 C   0  0  0  0  0  0  0  0  0  0  0  0
   37.0860   30.8740   46.0450 C   0  0  0  0  0  0  0  0  0  0  0  0
   36.2690   30.3070   45.0800 C   0  0  0  0  0  0  0  0  0  0  0  0
   35.0980   29.7270   45.4560 N   0  0  0  0  0  0  0  0  0  0  0  0
   34.6930   29.6810   46.7460 C   0  0  0  0  0  0  0  0  0  0  0  0
   35.4670   30.2270   47.7120 N   0  0  0  0  0  0  0  0  0  0  0  0
   37.1910   31.2220   48.2300 H   0  0  0  0  0  0  0  0  0  0  0  0
   36.6210   30.3620   44.0680 H   0  0  0  0  0  0  0  0  0  0  0  0
   34.8260   28.2360   49.5200 Br  0  0  0  0  0  0  0  0  0  0  0  0
   33.3330   28.3870   48.3340 C   0  0  0  0  0  0  0  0  0  0  0  0
   33.4410   29.0610   47.1420 C   0  0  0  0  0  0  0  0  0  0  0  0
   32.3140   29.1190   46.3480 C   0  0  0  0  0  0  0  0  0  0  0  0
   31.1040   28.5430   46.6880 C   0  0  0  0  0  0  0  0  0  0  0  0
   31.0300   27.8780   47.8850 C   0  0  0  0  0  0  0  0  0  0  0  0
   32.1460   27.8040   48.7010 C   0  0  0  0  0  0  0  0  0  0  0  0
   32.3370   29.6410   45.3890 H   0  0  0  0  0  0  0  0  0  0  0  0
   30.2220   28.5930   46.0610 H   0  0  0  0  0  0  0  0  0  0  0  0
   30.1350   27.3910   48.2490 H   0  0  0  0  0  0  0  0  0  0  0  0
   32.0880   27.2770   49.6480 H   0  0  0  0  0  0  0  0  0  0  0  0
   38.2470   32.5750   48.4240 Br  0  0  0  0  0  0  0  0  0  0  0  0
   39.0490   32.3210   46.7130 C   0  0  0  0  0  0  0  0  0  0  0  0
   38.3670   31.5320   45.8090 C   0  0  0  0  0  0  0  0  0  0  0  0
   38.9330   31.3400   44.5750 C   0  0  0  0  0  0  0  0  0  0  0  0
   38.4620   30.7330   43.8020 H   0  0  0  0  0  0  0  0  0  0  0  0
   40.1590   31.9160   44.2230 C   0  0  0  0  0  0  0  0  0  0  0  0
   40.5970   31.7590   43.2470 H   0  0  0  0  0  0  0  0  0  0  0  0
   40.8330   32.6960   45.1160 C   0  0  0  0  0  0  0  0  0  0  0  0
   40.2570   32.8840   46.3560 C   0  0  0  0  0  0  0  0  0  0  0  0
  1  6  1  0  0  0  0
  1  7  1  0  0  0  0
  2  1  2  0  0  0  0
  3  4  2  0  0  0  0
  3  2  1  0  0  0  0
  4  5  1  0  0  0  0
  5 11  1  0  0  0  0
  5  6  2  0  0  0  0
  8  3  1  0  0  0  0
 10 15  1  0  0  0  0
 10  9  1  0  0  0  0
 11 10  2  0  0  0  0
 12 13  2  0  0  0  0
 12 11  1  0  0  0  0
 13 14  1  0  0  0  0
 14 18  1  0  0  0  0
 14 15  2  0  0  0  0
 15 19  1  0  0  0  0
 16 12  1  0  0  0  0
 17 13  1  0  0  0  0
 21 20  1  0  0  0  0
 22  2  1  0  0  0  0
 22 21  2  0  0  0  0
 23 22  1  0  0  0  0
 24 23  1  0  0  0  0
 25 23  2  0  0  0  0
 25 27  1  0  0  0  0
 26 25  1  0  0  0  0
 27 28  2  0  0  0  0
 28 21  1  0  0  0  0
M  END
>  <minimizedAffinity>
-5.61452389

>  <minimizedRMSD>
3.83334994

$$$$
