
 OpenBabel03262520133D

 42 44  0  0  0  0  0  0  0  0999 V2000
   35.3100   30.5220   49.5060 C   0  0  0  0  0  0  0  0  0  0  0  0
   34.9700   31.5650   49.7750 H   0  0  0  0  0  0  0  0  0  0  0  0
   36.2210   30.3460   50.1260 H   0  0  0  0  0  0  0  0  0  0  0  0
   38.1990   31.6680   48.9810 Br  0  0  0  0  0  0  0  0  0  0  0  0
   36.9550   30.9950   47.6740 C   0  0  0  0  0  0  0  0  0  0  0  0
   37.2880   30.9740   46.3380 C   0  0  0  0  0  0  0  0  0  0  0  0
   36.3680   30.4970   45.4570 C   0  0  0  0  0  0  0  0  0  0  0  0
   35.1210   30.0380   45.8600 C   0  0  0  0  0  0  0  0  0  0  0  0
   34.8180   30.0730   47.2220 C   0  0  0  0  0  0  0  0  0  0  0  0
   35.7410   30.5520   48.1100 C   0  0  0  0  0  0  0  0  0  0  0  0
   36.6880   30.5030   44.4010 H   0  0  0  0  0  0  0  0  0  0  0  0
   34.5250   29.7000   45.0490 H   0  0  0  0  0  0  0  0  0  0  0  0
   33.8270   29.6980   47.3210 H   0  0  0  0  0  0  0  0  0  0  0  0
   39.8290   33.2470   45.0220 C   0  0  0  0  0  0  0  0  0  0  0  0
   41.0150   32.4490   45.0020 C   0  0  0  0  0  0  0  0  0  0  0  0
   40.9000   31.1470   45.4450 C   0  0  0  0  0  0  0  0  0  0  0  0
   39.6860   30.6680   45.8790 N   0  0  0  0  0  0  0  0  0  0  0  0
   38.5980   31.4610   45.8780 C   0  0  0  0  0  0  0  0  0  0  0  0
   38.6850   32.7300   45.4520 N   0  0  0  0  0  0  0  0  0  0  0  0
   39.8720   34.2650   44.6860 H   0  0  0  0  0  0  0  0  0  0  0  0
   41.8980   32.9190   44.6470 H   0  0  0  0  0  0  0  0  0  0  0  0
   41.7900   30.5380   45.4320 H   0  0  0  0  0  0  0  0  0  0  0  0
   34.3220   29.4820   49.8840 C   0  0  0  0  0  0  0  0  0  0  0  0
   33.3230   29.8030   49.6780 H   0  0  0  0  0  0  0  0  0  0  0  0
   34.3700   29.4740   51.0300 H   0  0  0  0  0  0  0  0  0  0  0  0
   34.7970   28.2100   49.5000 N   0  0  0  0  0  0  0  0  0  0  0  0
   35.7430   28.2290   49.0410 H   0  0  0  0  0  0  0  0  0  0  0  0
   33.9150   27.3690   48.7710 C   0  0  0  0  0  0  0  0  0  0  0  0
   34.1440   27.3220   47.6810 H   0  0  0  0  0  0  0  0  0  0  0  0
   33.9140   26.3180   49.1480 H   0  0  0  0  0  0  0  0  0  0  0  0
   32.5290   27.8970   48.9310 C   0  0  0  0  0  0  0  0  0  0  0  0
   32.0580   27.4030   49.8090 H   0  0  0  0  0  0  0  0  0  0  0  0
   32.3340   28.9460   48.8420 H   0  0  0  0  0  0  0  0  0  0  0  0
   29.5240   27.2210   49.6620 Br  0  0  0  0  0  0  0  0  0  0  0  0
   30.4010   26.9870   47.9690 C   0  0  0  0  0  0  0  0  0  0  0  0
   31.7190   27.3230   47.7600 C   0  0  0  0  0  0  0  0  0  0  0  0
   32.2620   27.1270   46.5120 C   0  0  0  0  0  0  0  0  0  0  0  0
   33.3000   27.3910   46.3440 H   0  0  0  0  0  0  0  0  0  0  0  0
   31.4420   26.5990   45.5380 C   0  0  0  0  0  0  0  0  0  0  0  0
   31.8320   26.4300   44.5440 H   0  0  0  0  0  0  0  0  0  0  0  0
   30.1220   26.2580   45.7380 C   0  0  0  0  0  3  0  0  0  0  0  0
   29.5680   26.4580   47.0070 C   0  0  0  0  0  3  0  0  0  0  0  0
  1  2  1  0  0  0  0
  1 23  1  0  0  0  0
  1  3  1  0  0  0  0
  5 10  1  0  0  0  0
  5  4  1  0  0  0  0
  6  5  2  0  0  0  0
  7  8  2  0  0  0  0
  7  6  1  0  0  0  0
  8  9  1  0  0  0  0
  9 13  1  0  0  0  0
  9 10  2  0  0  0  0
 10  1  1  0  0  0  0
 11  7  1  0  0  0  0
 12  8  1  0  0  0  0
 14 19  1  0  0  0  0
 15 14  2  0  0  0  0
 15 16  1  0  0  0  0
 16 17  2  0  0  0  0
 18 17  1  0  0  0  0
 18  6  1  0  0  0  0
 19 18  2  0  0  0  0
 20 14  1  0  0  0  0
 21 15  1  0  0  0  0
 22 16  1  0  0  0  0
 23 25  1  0  0  0  0
 24 23  1  0  0  0  0
 26 23  1  0  0  0  0
 27 26  1  0  0  0  0
 28 31  1  0  0  0  0
 28 30  1  0  0  0  0
 28 26  1  0  0  0  0
 29 28  1  0  0  0  0
 31 32  1  0  0  0  0
 33 31  1  0  0  0  0
 35 34  1  0  0  0  0
 36 35  1  0  0  0  0
 36 31  1  0  0  0  0
 37 36  2  0  0  0  0
 38 37  1  0  0  0  0
 39 41  2  0  0  0  0
 39 37  1  0  0  0  0
 40 39  1  0  0  0  0
 41 42  1  0  0  0  0
 42 35  2  0  0  0  0
M  END
>  <minimizedAffinity>
-5.5949254

>  <minimizedRMSD>
0.625963748

$$$$
