
 OpenBabel03272510203D

 36 39  0  0  0  0  0  0  0  0999 V2000
   37.2340   29.2700   50.9870 Br  0  0  0  0  0  0  0  0  0  0  0  0
   35.9310   29.3310   49.5960 C   0  0  0  0  0  0  0  0  0  0  0  0
   35.9930   30.3120   48.5990 C   0  0  0  0  0  0  0  0  0  0  0  0
   35.0230   30.2950   47.6310 C   0  0  0  0  0  0  0  0  0  0  0  0
   33.9960   29.3610   47.5950 C   0  0  0  0  0  0  0  0  0  0  0  0
   33.9710   28.4240   48.5800 C   0  0  0  0  0  0  0  0  0  0  0  0
   34.9320   28.4180   49.5660 C   0  0  0  0  0  0  0  0  0  0  0  0
   35.0530   31.0450   46.8520 H   0  0  0  0  0  0  0  0  0  0  0  0
   33.1790   27.6830   48.5750 H   0  0  0  0  0  0  0  0  0  0  0  0
   34.8420   27.6390   50.3140 H   0  0  0  0  0  0  0  0  0  0  0  0
   37.9390   33.2290   49.6180 C   0  0  0  0  0  0  0  0  0  0  0  0
   39.0120   33.2440   48.6900 C   0  0  0  0  0  0  0  0  0  0  0  0
   39.0470   32.2550   47.7350 C   0  0  0  0  0  0  0  0  0  0  0  0
   38.0590   31.2950   47.7030 N   0  0  0  0  0  0  0  0  0  0  0  0
   37.0530   31.3100   48.6010 C   0  0  0  0  0  0  0  0  0  0  0  0
   36.9980   32.2850   49.5620 N   0  0  0  0  0  0  0  0  0  0  0  0
   37.8700   33.9810   50.3820 H   0  0  0  0  0  0  0  0  0  0  0  0
   39.7660   34.0170   48.7520 H   0  0  0  0  0  0  0  0  0  0  0  0
   39.8580   32.2200   46.9900 H   0  0  0  0  0  0  0  0  0  0  0  0
   32.9730   29.3500   46.5670 C   0  0  0  0  0  0  0  0  0  0  0  0
   31.7860   28.6700   46.6470 C   0  0  0  0  0  0  0  0  0  0  0  0
   30.8220   28.6660   45.6630 C   0  0  0  0  0  0  0  0  0  0  0  0
   31.0490   29.3670   44.5580 N   0  0  0  0  0  0  0  0  0  0  0  0
   32.2110   30.0560   44.4360 C   0  0  0  0  0  0  0  0  0  0  0  0
   33.1280   30.0330   45.4220 N   0  0  0  0  0  0  0  0  0  0  0  0
   31.5850   28.0840   47.5580 H   0  0  0  0  0  0  0  0  0  0  0  0
   29.9040   28.1120   45.7780 H   0  0  0  0  0  0  0  0  0  0  0  0
   31.3880   32.9810   44.7460 Br  0  0  0  0  0  0  0  0  0  0  0  0
   32.1660   32.1850   43.2190 C   0  0  0  0  0  0  0  0  0  0  0  0
   32.4890   30.8430   43.2190 C   0  0  0  0  0  0  0  0  0  0  0  0
   33.0660   30.2210   42.1070 C   0  0  0  0  0  0  0  0  0  0  0  0
   33.3130   29.1670   42.1270 H   0  0  0  0  0  0  0  0  0  0  0  0
   33.3240   30.9820   40.9610 C   0  0  0  0  0  0  0  0  0  0  0  0
   33.7700   30.5400   40.0790 H   0  0  0  0  0  0  0  0  0  0  0  0
   32.9830   32.3130   41.0170 C   0  0  0  0  0  3  0  0  0  0  0  0
   32.4140   32.9620   42.0900 C   0  0  0  0  0  3  0  0  0  0  0  0
  2  1  1  0  0  0  0
  3 15  1  0  0  0  0
  3  2  2  0  0  0  0
  4  3  1  0  0  0  0
  5  4  2  0  0  0  0
  5  6  1  0  0  0  0
  6  7  2  0  0  0  0
  7  2  1  0  0  0  0
  7 10  1  0  0  0  0
  8  4  1  0  0  0  0
  9  6  1  0  0  0  0
 11 17  1  0  0  0  0
 12 18  1  0  0  0  0
 12 11  2  0  0  0  0
 13 12  1  0  0  0  0
 14 13  2  0  0  0  0
 14 15  1  0  0  0  0
 15 16  2  0  0  0  0
 16 11  1  0  0  0  0
 19 13  1  0  0  0  0
 20 21  1  0  0  0  0
 20  5  1  0  0  0  0
 21 26  1  0  0  0  0
 22 27  1  0  0  0  0
 22 21  2  0  0  0  0
 23 22  1  0  0  0  0
 24 23  2  0  0  0  0
 24 25  1  0  0  0  0
 25 20  2  0  0  0  0
 29 30  1  0  0  0  0
 29 28  1  0  0  0  0
 30 24  1  0  0  0  0
 31 32  1  0  0  0  0
 31 30  2  0  0  0  0
 33 35  2  0  0  0  0
 33 31  1  0  0  0  0
 34 33  1  0  0  0  0
 35 36  1  0  0  0  0
 36 29  2  0  0  0  0
M  END
>  <minimizedAffinity>
-6.21296692

>  <minimizedRMSD>
1.67871475

$$$$
