
 OpenBabel03272510203D

 36 39  0  0  0  0  0  0  0  0999 V2000
   37.2350   29.2710   50.9870 Br  0  0  0  0  0  0  0  0  0  0  0  0
   35.9320   29.3310   49.5960 C   0  0  0  0  0  0  0  0  0  0  0  0
   35.9930   30.3130   48.5980 C   0  0  0  0  0  0  0  0  0  0  0  0
   35.0240   30.2960   47.6310 C   0  0  0  0  0  0  0  0  0  0  0  0
   33.9970   29.3610   47.5950 C   0  0  0  0  0  0  0  0  0  0  0  0
   33.9720   28.4250   48.5800 C   0  0  0  0  0  0  0  0  0  0  0  0
   34.9320   28.4190   49.5650 C   0  0  0  0  0  0  0  0  0  0  0  0
   35.0540   31.0460   46.8520 H   0  0  0  0  0  0  0  0  0  0  0  0
   33.1790   27.6840   48.5750 H   0  0  0  0  0  0  0  0  0  0  0  0
   34.8430   27.6400   50.3130 H   0  0  0  0  0  0  0  0  0  0  0  0
   37.9400   33.2290   49.6180 C   0  0  0  0  0  0  0  0  0  0  0  0
   39.0130   33.2440   48.6900 C   0  0  0  0  0  0  0  0  0  0  0  0
   39.0470   32.2560   47.7340 C   0  0  0  0  0  0  0  0  0  0  0  0
   38.0600   31.2960   47.7030 N   0  0  0  0  0  0  0  0  0  0  0  0
   37.0530   31.3100   48.6000 C   0  0  0  0  0  0  0  0  0  0  0  0
   36.9990   32.2850   49.5620 N   0  0  0  0  0  0  0  0  0  0  0  0
   37.8710   33.9810   50.3820 H   0  0  0  0  0  0  0  0  0  0  0  0
   39.7660   34.0170   48.7520 H   0  0  0  0  0  0  0  0  0  0  0  0
   39.8580   32.2210   46.9890 H   0  0  0  0  0  0  0  0  0  0  0  0
   32.9740   29.3500   46.5660 C   0  0  0  0  0  0  0  0  0  0  0  0
   31.7870   28.6700   46.6460 C   0  0  0  0  0  0  0  0  0  0  0  0
   30.8230   28.6660   45.6620 C   0  0  0  0  0  0  0  0  0  0  0  0
   31.0500   29.3680   44.5570 N   0  0  0  0  0  0  0  0  0  0  0  0
   32.2120   30.0570   44.4360 C   0  0  0  0  0  0  0  0  0  0  0  0
   33.1280   30.0340   45.4210 N   0  0  0  0  0  0  0  0  0  0  0  0
   31.5860   28.0840   47.5570 H   0  0  0  0  0  0  0  0  0  0  0  0
   29.9050   28.1130   45.7770 H   0  0  0  0  0  0  0  0  0  0  0  0
   31.3870   32.9820   44.7450 Br  0  0  0  0  0  0  0  0  0  0  0  0
   32.1670   32.1860   43.2180 C   0  0  0  0  0  0  0  0  0  0  0  0
   32.4900   30.8440   43.2180 C   0  0  0  0  0  0  0  0  0  0  0  0
   33.0680   30.2220   42.1070 C   0  0  0  0  0  0  0  0  0  0  0  0
   33.3150   29.1690   42.1260 H   0  0  0  0  0  0  0  0  0  0  0  0
   33.3260   30.9830   40.9600 C   0  0  0  0  0  0  0  0  0  0  0  0
   33.7710   30.5410   40.0790 H   0  0  0  0  0  0  0  0  0  0  0  0
   32.9830   32.3150   41.0160 C   0  0  0  0  0  3  0  0  0  0  0  0
   32.4130   32.9630   42.0900 C   0  0  0  0  0  3  0  0  0  0  0  0
  2  1  1  0  0  0  0
  3 15  1  0  0  0  0
  3  2  2  0  0  0  0
  4  3  1  0  0  0  0
  5  4  2  0  0  0  0
  5  6  1  0  0  0  0
  6  7  2  0  0  0  0
  7  2  1  0  0  0  0
  7 10  1  0  0  0  0
  8  4  1  0  0  0  0
  9  6  1  0  0  0  0
 11 17  1  0  0  0  0
 12 18  1  0  0  0  0
 12 11  2  0  0  0  0
 13 12  1  0  0  0  0
 14 13  2  0  0  0  0
 14 15  1  0  0  0  0
 15 16  2  0  0  0  0
 16 11  1  0  0  0  0
 19 13  1  0  0  0  0
 20 21  1  0  0  0  0
 20  5  1  0  0  0  0
 21 26  1  0  0  0  0
 22 27  1  0  0  0  0
 22 21  2  0  0  0  0
 23 22  1  0  0  0  0
 24 23  2  0  0  0  0
 24 25  1  0  0  0  0
 25 20  2  0  0  0  0
 29 30  1  0  0  0  0
 29 28  1  0  0  0  0
 30 24  1  0  0  0  0
 31 32  1  0  0  0  0
 31 30  2  0  0  0  0
 33 35  2  0  0  0  0
 33 31  1  0  0  0  0
 34 33  1  0  0  0  0
 35 36  1  0  0  0  0
 36 29  2  0  0  0  0
M  END
>  <minimizedAffinity>
-6.2105031

>  <minimizedRMSD>
1.6890763

$$$$
