
 OpenBabel03272510173D

 28 30  0  0  0  0  0  0  0  0999 V2000
   37.3170   29.3490   51.0960 Br  0  0  0  0  0  0  0  0  0  0  0  0
   35.9820   29.3030   49.7380 C   0  0  0  0  0  0  0  0  0  0  0  0
   36.0020   30.1970   48.6890 C   0  0  0  0  0  0  0  0  0  0  0  0
   35.0020   30.1170   47.7260 C   0  0  0  0  0  0  0  0  0  0  0  0
   33.9940   29.1620   47.8010 C   0  0  0  0  0  0  0  0  0  0  0  0
   33.9970   28.2870   48.8530 C   0  0  0  0  0  0  0  0  0  0  0  0
   34.9850   28.3610   49.8100 C   0  0  0  0  0  0  0  0  0  0  0  0
   35.0740   30.8450   46.9300 H   0  0  0  0  0  0  0  0  0  0  0  0
   33.1990   27.5560   48.8830 H   0  0  0  0  0  0  0  0  0  0  0  0
   34.9690   27.6590   50.6330 H   0  0  0  0  0  0  0  0  0  0  0  0
   37.9530   33.1830   49.4500 C   0  0  0  0  0  0  0  0  0  0  0  0
   38.9950   33.1690   48.4740 C   0  0  0  0  0  0  0  0  0  0  0  0
   38.9960   32.1120   47.5650 C   0  0  0  0  0  0  0  0  0  0  0  0
   38.0200   31.1530   47.6440 N   0  0  0  0  0  0  0  0  0  0  0  0
   37.0550   31.2130   48.5880 C   0  0  0  0  0  0  0  0  0  0  0  0
   37.0170   32.2270   49.4950 N   0  0  0  0  0  0  0  0  0  0  0  0
   37.9000   33.9690   50.1750 H   0  0  0  0  0  0  0  0  0  0  0  0
   39.7240   33.9580   48.4780 H   0  0  0  0  0  0  0  0  0  0  0  0
   39.7710   32.0680   46.8110 H   0  0  0  0  0  0  0  0  0  0  0  0
   31.2990   27.6080   48.2700 Br  0  0  0  0  0  0  0  0  0  0  0  0
   31.7830   28.5940   46.7240 C   0  0  0  0  0  0  0  0  0  0  0  0
   33.0190   29.2060   46.7170 C   0  0  0  0  0  0  0  0  0  0  0  0
   33.3660   29.9300   45.5730 C   0  0  0  0  0  0  0  0  0  0  0  0
   34.2970   30.4610   45.4250 H   0  0  0  0  0  0  0  0  0  0  0  0
   32.4750   30.0090   44.4990 C   0  0  0  0  0  0  0  0  0  0  0  0
   32.7090   30.5660   43.5850 H   0  0  0  0  0  0  0  0  0  0  0  0
   31.2470   29.3870   44.5360 C   0  0  0  0  0  3  0  0  0  0  0  0
   30.9100   28.6740   45.6670 C   0  0  0  0  0  3  0  0  0  0  0  0
  2  7  1  0  0  0  0
  2  1  1  0  0  0  0
  3  2  2  0  0  0  0
  4  5  2  0  0  0  0
  4  3  1  0  0  0  0
  5  6  1  0  0  0  0
  6  9  1  0  0  0  0
  6  7  2  0  0  0  0
  7 10  1  0  0  0  0
  8  4  1  0  0  0  0
 11 16  1  0  0  0  0
 11 17  1  0  0  0  0
 12 18  1  0  0  0  0
 12 11  2  0  0  0  0
 13 14  2  0  0  0  0
 13 12  1  0  0  0  0
 14 15  1  0  0  0  0
 15  3  1  0  0  0  0
 15 16  2  0  0  0  0
 19 13  1  0  0  0  0
 21 20  1  0  0  0  0
 22 21  1  0  0  0  0
 22  5  1  0  0  0  0
 23 22  2  0  0  0  0
 24 23  1  0  0  0  0
 25 27  2  0  0  0  0
 25 23  1  0  0  0  0
 26 25  1  0  0  0  0
 27 28  1  0  0  0  0
 28 21  2  0  0  0  0
M  END
>  <minimizedAffinity>
-6.17068434

>  <minimizedRMSD>
0.10809122

$$$$
