
 OpenBabel03272510173D

 28 30  0  0  0  0  0  0  0  0999 V2000
   37.2370   29.3810   51.0250 Br  0  0  0  0  0  0  0  0  0  0  0  0
   35.9540   29.3440   49.6180 C   0  0  0  0  0  0  0  0  0  0  0  0
   36.0240   30.2330   48.5660 C   0  0  0  0  0  0  0  0  0  0  0  0
   35.0600   30.1610   47.5670 C   0  0  0  0  0  0  0  0  0  0  0  0
   34.0380   29.2190   47.6080 C   0  0  0  0  0  0  0  0  0  0  0  0
   33.9910   28.3490   48.6640 C   0  0  0  0  0  0  0  0  0  0  0  0
   34.9430   28.4160   49.6570 C   0  0  0  0  0  0  0  0  0  0  0  0
   35.1720   30.8840   46.7710 H   0  0  0  0  0  0  0  0  0  0  0  0
   33.1830   27.6290   48.6670 H   0  0  0  0  0  0  0  0  0  0  0  0
   34.8870   27.7190   50.4820 H   0  0  0  0  0  0  0  0  0  0  0  0
   38.0140   33.1680   49.4210 C   0  0  0  0  0  0  0  0  0  0  0  0
   39.0630   33.1640   48.4540 C   0  0  0  0  0  0  0  0  0  0  0  0
   39.0550   32.1320   47.5170 C   0  0  0  0  0  0  0  0  0  0  0  0
   38.0650   31.1860   47.5630 N   0  0  0  0  0  0  0  0  0  0  0  0
   37.0930   31.2360   48.5000 C   0  0  0  0  0  0  0  0  0  0  0  0
   37.0640   32.2260   49.4340 N   0  0  0  0  0  0  0  0  0  0  0  0
   37.9670   33.9350   50.1670 H   0  0  0  0  0  0  0  0  0  0  0  0
   39.8040   33.9420   48.4840 H   0  0  0  0  0  0  0  0  0  0  0  0
   39.8350   32.0960   46.7670 H   0  0  0  0  0  0  0  0  0  0  0  0
   33.7210   26.5820   45.9230 Br  0  0  0  0  0  0  0  0  0  0  0  0
   32.8230   28.2280   45.6300 C   0  0  0  0  0  0  0  0  0  0  0  0
   33.1050   29.2700   46.4880 C   0  0  0  0  0  0  0  0  0  0  0  0
   32.4390   30.4790   46.2650 C   0  0  0  0  0  0  0  0  0  0  0  0
   32.5570   31.3790   46.8520 H   0  0  0  0  0  0  0  0  0  0  0  0
   31.5320   30.5910   45.2070 C   0  0  0  0  0  0  0  0  0  0  0  0
   30.9900   31.5190   44.9970 H   0  0  0  0  0  0  0  0  0  0  0  0
   31.2710   29.5300   44.3660 C   0  0  0  0  0  3  0  0  0  0  0  0
   31.9320   28.3410   44.5920 C   0  0  0  0  0  3  0  0  0  0  0  0
  2  7  1  0  0  0  0
  2  1  1  0  0  0  0
  3  2  2  0  0  0  0
  4  5  2  0  0  0  0
  4  3  1  0  0  0  0
  5  6  1  0  0  0  0
  6  9  1  0  0  0  0
  6  7  2  0  0  0  0
  7 10  1  0  0  0  0
  8  4  1  0  0  0  0
 11 16  1  0  0  0  0
 11 17  1  0  0  0  0
 12 18  1  0  0  0  0
 12 11  2  0  0  0  0
 13 14  2  0  0  0  0
 13 12  1  0  0  0  0
 14 15  1  0  0  0  0
 15  3  1  0  0  0  0
 15 16  2  0  0  0  0
 19 13  1  0  0  0  0
 21 20  1  0  0  0  0
 21 22  1  0  0  0  0
 22  5  1  0  0  0  0
 23 22  2  0  0  0  0
 23 24  1  0  0  0  0
 25 23  1  0  0  0  0
 26 25  1  0  0  0  0
 27 28  1  0  0  0  0
 27 25  2  0  0  0  0
 28 21  2  0  0  0  0
M  END
>  <minimizedAffinity>
-6.03168964

>  <minimizedRMSD>
0.465681702

$$$$
