
 OpenBabel03262522333D

 27 29  0  0  0  0  0  0  0  0999 V2000
   36.6690   27.9270   33.5060 C   0  0  0  0  0  0  0  0  0  0  0  0
   36.7420   28.4370   32.2430 C   0  0  0  0  0  0  0  0  0  0  0  0
   36.2600   29.6610   31.8370 C   0  0  0  0  0  0  0  0  0  0  0  0
   35.6390   30.4630   32.7870 C   0  0  0  0  0  0  0  0  0  0  0  0
   35.5680   29.9460   34.0530 C   0  0  0  0  0  0  0  0  0  0  0  0
   36.0620   28.7400   34.3800 N   0  0  0  0  0  0  0  0  0  0  0  0
   37.2240   27.8430   31.4500 H   0  0  0  0  0  0  0  0  0  0  0  0
   36.3590   29.9940   30.8050 H   0  0  0  0  0  0  0  0  0  0  0  0
   35.2560   31.4230   32.4850 H   0  0  0  0  0  0  0  0  0  0  0  0
   37.4220   25.5790   32.9940 C   0  0  0  0  0  0  0  0  0  0  0  0
   37.1840   26.6360   33.8950 C   0  0  0  0  0  0  0  0  0  0  0  0
   37.4570   26.4080   35.2310 C   0  0  0  0  0  0  0  0  0  0  0  0
   37.9400   25.1870   35.6120 N   0  0  0  0  0  0  0  0  0  0  0  0
   38.1510   24.2090   34.7150 C   0  0  0  0  0  0  0  0  0  0  0  0
   37.8970   24.3900   33.3960 N   0  0  0  0  0  0  0  0  0  0  0  0
   37.1970   25.7860   31.9390 H   0  0  0  0  0  0  0  0  0  0  0  0
   37.2880   27.1940   35.9530 H   0  0  0  0  0  0  0  0  0  0  0  0
   38.5360   23.2620   35.0810 H   0  0  0  0  0  0  0  0  0  0  0  0
   32.5320   29.4440   34.2850 Br  0  0  0  0  0  0  0  0  0  0  0  0
   33.5780   30.6260   35.3820 C   0  0  0  0  0  0  0  0  0  0  0  0
   34.9350   30.7130   35.1190 C   0  0  0  0  0  0  0  0  0  0  0  0
   35.5830   31.5880   35.9650 C   0  0  0  0  0  0  0  0  0  0  0  0
   36.6470   31.7310   35.8450 H   0  0  0  0  0  0  0  0  0  0  0  0
   34.9580   32.2960   36.9590 C   0  0  0  0  0  0  0  0  0  0  0  0
   35.5430   32.9680   37.5870 H   0  0  0  0  0  0  0  0  0  0  0  0
   33.6170   32.1600   37.1620 C   0  0  0  0  0  3  0  0  0  0  0  0
   32.9000   31.3140   36.3670 C   0  0  0  0  0  3  0  0  0  0  0  0
  1 11  1  0  0  0  0
  1  6  1  0  0  0  0
  2  1  2  0  0  0  0
  3  2  1  0  0  0  0
  3  4  2  0  0  0  0
  4  5  1  0  0  0  0
  5  6  2  0  0  0  0
  5 21  1  0  0  0  0
  7  2  1  0  0  0  0
  8  3  1  0  0  0  0
  9  4  1  0  0  0  0
 10 15  2  0  0  0  0
 10 11  1  0  0  0  0
 11 12  2  0  0  0  0
 12 13  1  0  0  0  0
 12 17  1  0  0  0  0
 14 18  1  0  0  0  0
 14 13  2  0  0  0  0
 15 14  1  0  0  0  0
 16 10  1  0  0  0  0
 19 20  1  0  0  0  0
 20 27  1  0  0  0  0
 21 20  2  0  0  0  0
 21 22  1  0  0  0  0
 22 24  2  0  0  0  0
 23 22  1  0  0  0  0
 24 26  1  0  0  0  0
 24 25  1  0  0  0  0
 27 26  2  0  0  0  0
M  END
>  <minimizedAffinity>
-5.48760033

$$$$

 OpenBabel03262522333D

 27 29  0  0  0  0  0  0  0  0999 V2000
   38.3190   25.6340   33.2640 C   0  0  0  0  0  0  0  0  0  0  0  0
   38.9490   26.8430   33.3160 C   0  0  0  0  0  0  0  0  0  0  0  0
   40.0480   27.1500   34.0860 C   0  0  0  0  0  0  0  0  0  0  0  0
   40.5760   26.1490   34.8920 C   0  0  0  0  0  0  0  0  0  0  0  0
   39.9400   24.9370   34.8370 C   0  0  0  0  0  0  0  0  0  0  0  0
   38.8690   24.7070   34.0590 N   0  0  0  0  0  0  0  0  0  0  0  0
   38.5710   27.6730   32.6960 H   0  0  0  0  0  0  0  0  0  0  0  0
   40.4910   28.1440   34.0690 H   0  0  0  0  0  0  0  0  0  0  0  0
   41.4360   26.3720   35.5020 H   0  0  0  0  0  0  0  0  0  0  0  0
   36.7370   24.0470   32.1160 C   0  0  0  0  0  0  0  0  0  0  0  0
   37.1660   25.3480   32.4450 C   0  0  0  0  0  0  0  0  0  0  0  0
   36.4330   26.4060   31.9420 C   0  0  0  0  0  0  0  0  0  0  0  0
   35.3410   26.1480   31.1610 N   0  0  0  0  0  0  0  0  0  0  0  0
   34.9700   24.8880   30.8750 C   0  0  0  0  0  0  0  0  0  0  0  0
   35.6600   23.8210   31.3480 N   0  0  0  0  0  0  0  0  0  0  0  0
   37.3370   23.2230   32.5290 H   0  0  0  0  0  0  0  0  0  0  0  0
   36.7290   27.4200   32.1710 H   0  0  0  0  0  0  0  0  0  0  0  0
   34.0940   24.7480   30.2490 H   0  0  0  0  0  0  0  0  0  0  0  0
   38.1290   24.3110   37.2570 Br  0  0  0  0  0  0  0  0  0  0  0  0
   39.7470   23.3910   36.7760 C   0  0  0  0  0  0  0  0  0  0  0  0
   40.4210   23.8240   35.6470 C   0  0  0  0  0  0  0  0  0  0  0  0
   41.5640   23.0930   35.4000 C   0  0  0  0  0  0  0  0  0  0  0  0
   42.1660   23.3500   34.5400 H   0  0  0  0  0  0  0  0  0  0  0  0
   41.9900   22.0510   36.1820 C   0  0  0  0  0  0  0  0  0  0  0  0
   42.9060   21.5220   35.9170 H   0  0  0  0  0  0  0  0  0  0  0  0
   41.2750   21.6770   37.2810 C   0  0  0  0  0  3  0  0  0  0  0  0
   40.1310   22.3500   37.5970 C   0  0  0  0  0  3  0  0  0  0  0  0
  1  2  2  0  0  0  0
  1  6  1  0  0  0  0
  2  3  1  0  0  0  0
  3  4  2  0  0  0  0
  4  9  1  0  0  0  0
  5  4  1  0  0  0  0
  5 21  1  0  0  0  0
  6  5  2  0  0  0  0
  7  2  1  0  0  0  0
  8  3  1  0  0  0  0
 10 11  1  0  0  0  0
 10 16  1  0  0  0  0
 11  1  1  0  0  0  0
 12 17  1  0  0  0  0
 12 11  2  0  0  0  0
 13 12  1  0  0  0  0
 14 13  2  0  0  0  0
 14 15  1  0  0  0  0
 15 10  2  0  0  0  0
 18 14  1  0  0  0  0
 20 19  1  0  0  0  0
 20 27  1  0  0  0  0
 21 20  2  0  0  0  0
 22 21  1  0  0  0  0
 22 24  2  0  0  0  0
 23 22  1  0  0  0  0
 24 26  1  0  0  0  0
 25 24  1  0  0  0  0
 26 27  2  0  0  0  0
M  END
>  <minimizedAffinity>
-5.29073143

$$$$

 OpenBabel03262522333D

 27 29  0  0  0  0  0  0  0  0999 V2000
   36.0190   23.4160   31.6440 C   0  0  0  0  0  0  0  0  0  0  0  0
   35.2720   24.2200   30.8330 C   0  0  0  0  0  0  0  0  0  0  0  0
   35.2570   25.5960   30.8520 C   0  0  0  0  0  0  0  0  0  0  0  0
   36.0700   26.2420   31.7750 C   0  0  0  0  0  0  0  0  0  0  0  0
   36.8170   25.4310   32.5870 C   0  0  0  0  0  0  0  0  0  0  0  0
   36.7830   24.0900   32.5130 N   0  0  0  0  0  0  0  0  0  0  0  0
   34.6090   23.7590   30.0830 H   0  0  0  0  0  0  0  0  0  0  0  0
   34.6290   26.1640   30.1680 H   0  0  0  0  0  0  0  0  0  0  0  0
   36.0700   27.3190   31.8030 H   0  0  0  0  0  0  0  0  0  0  0  0
   36.9590   21.2000   30.9050 C   0  0  0  0  0  0  0  0  0  0  0  0
   36.0070   21.9730   31.5980 C   0  0  0  0  0  0  0  0  0  0  0  0
   35.0030   21.2980   32.2660 C   0  0  0  0  0  0  0  0  0  0  0  0
   34.9790   19.9320   32.2260 N   0  0  0  0  0  0  0  0  0  0  0  0
   35.9100   19.2370   31.5510 C   0  0  0  0  0  0  0  0  0  0  0  0
   36.9120   19.8590   30.8820 N   0  0  0  0  0  0  0  0  0  0  0  0
   37.7470   21.7610   30.3820 H   0  0  0  0  0  0  0  0  0  0  0  0
   34.2540   21.8550   32.8100 H   0  0  0  0  0  0  0  0  0  0  0  0
   35.8370   18.1540   31.5570 H   0  0  0  0  0  0  0  0  0  0  0  0
   39.6980   25.8690   31.5680 Br  0  0  0  0  0  0  0  0  0  0  0  0
   39.0330   26.2890   33.3220 C   0  0  0  0  0  0  0  0  0  0  0  0
   37.7010   26.0160   33.5860 C   0  0  0  0  0  0  0  0  0  0  0  0
   37.3370   26.3580   34.8720 C   0  0  0  0  0  0  0  0  0  0  0  0
   36.3170   26.1850   35.1830 H   0  0  0  0  0  0  0  0  0  0  0  0
   38.1940   26.9070   35.7910 C   0  0  0  0  0  0  0  0  0  0  0  0
   37.8260   27.1490   36.7880 H   0  0  0  0  0  0  0  0  0  0  0  0
   39.4940   27.1490   35.4610 C   0  0  0  0  0  3  0  0  0  0  0  0
   39.9370   26.8400   34.2080 C   0  0  0  0  0  3  0  0  0  0  0  0
  1  6  1  0  0  0  0
  2  3  1  0  0  0  0
  2  1  2  0  0  0  0
  3  4  2  0  0  0  0
  4  9  1  0  0  0  0
  4  5  1  0  0  0  0
  5 21  1  0  0  0  0
  6  5  2  0  0  0  0
  7  2  1  0  0  0  0
  8  3  1  0  0  0  0
 10 11  1  0  0  0  0
 11  1  1  0  0  0  0
 11 12  2  0  0  0  0
 12 17  1  0  0  0  0
 13 12  1  0  0  0  0
 14 18  1  0  0  0  0
 14 13  2  0  0  0  0
 15 10  2  0  0  0  0
 15 14  1  0  0  0  0
 16 10  1  0  0  0  0
 19 20  1  0  0  0  0
 20 21  2  0  0  0  0
 20 27  1  0  0  0  0
 21 22  1  0  0  0  0
 22 23  1  0  0  0  0
 22 24  2  0  0  0  0
 24 25  1  0  0  0  0
 26 24  1  0  0  0  0
 27 26  2  0  0  0  0
M  END
>  <minimizedAffinity>
-5.24522209

$$$$

 OpenBabel03262522333D

 27 29  0  0  0  0  0  0  0  0999 V2000
   36.5040   28.1890   33.5890 C   0  0  0  0  0  0  0  0  0  0  0  0
   36.4200   28.6690   32.3160 C   0  0  0  0  0  0  0  0  0  0  0  0
   35.5810   29.6710   31.8830 C   0  0  0  0  0  0  0  0  0  0  0  0
   34.7360   30.2590   32.8160 C   0  0  0  0  0  0  0  0  0  0  0  0
   34.8230   29.7730   34.0940 C   0  0  0  0  0  0  0  0  0  0  0  0
   35.6680   28.7900   34.4460 N   0  0  0  0  0  0  0  0  0  0  0  0
   37.0690   28.2380   31.5350 H   0  0  0  0  0  0  0  0  0  0  0  0
   35.5770   29.9950   30.8440 H   0  0  0  0  0  0  0  0  0  0  0  0
   34.0720   31.0440   32.4930 H   0  0  0  0  0  0  0  0  0  0  0  0
   38.3190   27.2550   35.0650 C   0  0  0  0  0  0  0  0  0  0  0  0
   37.3940   27.1330   34.0070 C   0  0  0  0  0  0  0  0  0  0  0  0
   37.3520   25.9270   33.3350 C   0  0  0  0  0  0  0  0  0  0  0  0
   38.1950   24.9210   33.7190 N   0  0  0  0  0  0  0  0  0  0  0  0
   39.0600   25.0850   34.7340 C   0  0  0  0  0  0  0  0  0  0  0  0
   39.1340   26.2510   35.4210 N   0  0  0  0  0  0  0  0  0  0  0  0
   38.3320   28.2240   35.5830 H   0  0  0  0  0  0  0  0  0  0  0  0
   36.6570   25.7930   32.5190 H   0  0  0  0  0  0  0  0  0  0  0  0
   39.7030   24.2480   34.9910 H   0  0  0  0  0  0  0  0  0  0  0  0
   36.1480   32.0930   35.6400 Br  0  0  0  0  0  0  0  0  0  0  0  0
   34.3920   31.3740   35.9480 C   0  0  0  0  0  0  0  0  0  0  0  0
   33.9770   30.3270   35.1430 C   0  0  0  0  0  0  0  0  0  0  0  0
   32.7050   29.8930   35.4540 C   0  0  0  0  0  0  0  0  0  0  0  0
   32.2830   29.0770   34.8840 H   0  0  0  0  0  0  0  0  0  0  0  0
   31.9330   30.4350   36.4490 C   0  0  0  0  0  0  0  0  0  0  0  0
   30.9350   30.0340   36.6310 H   0  0  0  0  0  0  0  0  0  0  0  0
   32.4060   31.4660   37.2040 C   0  0  0  0  0  3  0  0  0  0  0  0
   33.6570   31.9550   36.9610 C   0  0  0  0  0  3  0  0  0  0  0  0
  1 11  1  0  0  0  0
  1  6  1  0  0  0  0
  2  1  2  0  0  0  0
  3  2  1  0  0  0  0
  3  4  2  0  0  0  0
  4  5  1  0  0  0  0
  5  6  2  0  0  0  0
  5 21  1  0  0  0  0
  7  2  1  0  0  0  0
  8  3  1  0  0  0  0
  9  4  1  0  0  0  0
 10 15  1  0  0  0  0
 10 16  1  0  0  0  0
 11 10  2  0  0  0  0
 12 13  2  0  0  0  0
 12 11  1  0  0  0  0
 13 14  1  0  0  0  0
 14 18  1  0  0  0  0
 14 15  2  0  0  0  0
 17 12  1  0  0  0  0
 19 20  1  0  0  0  0
 20 27  1  0  0  0  0
 21 22  1  0  0  0  0
 21 20  2  0  0  0  0
 22 24  2  0  0  0  0
 23 22  1  0  0  0  0
 24 25  1  0  0  0  0
 24 26  1  0  0  0  0
 27 26  2  0  0  0  0
M  END
>  <minimizedAffinity>
-5.14147568

$$$$

 OpenBabel03262522333D

 27 29  0  0  0  0  0  0  0  0999 V2000
   35.5570   30.0270   33.1900 C   0  0  0  0  0  0  0  0  0  0  0  0
   36.0080   30.7690   32.1380 C   0  0  0  0  0  0  0  0  0  0  0  0
   36.5110   30.2740   30.9570 C   0  0  0  0  0  0  0  0  0  0  0  0
   36.5740   28.8940   30.8050 C   0  0  0  0  0  0  0  0  0  0  0  0
   36.1210   28.1530   31.8640 C   0  0  0  0  0  0  0  0  0  0  0  0
   35.6400   28.7060   32.9910 N   0  0  0  0  0  0  0  0  0  0  0  0
   35.9800   31.8690   32.2060 H   0  0  0  0  0  0  0  0  0  0  0  0
   36.8500   30.9380   30.1640 H   0  0  0  0  0  0  0  0  0  0  0  0
   36.9660   28.4900   29.8860 H   0  0  0  0  0  0  0  0  0  0  0  0
   35.8340   31.2160   35.3940 C   0  0  0  0  0  0  0  0  0  0  0  0
   35.0380   30.5820   34.4180 C   0  0  0  0  0  0  0  0  0  0  0  0
   33.6820   30.4860   34.6660 C   0  0  0  0  0  0  0  0  0  0  0  0
   33.1800   31.0030   35.8280 N   0  0  0  0  0  0  0  0  0  0  0  0
   33.9800   31.6000   36.7290 C   0  0  0  0  0  0  0  0  0  0  0  0
   35.3150   31.7150   36.5260 N   0  0  0  0  0  0  0  0  0  0  0  0
   36.9090   31.2790   35.1720 H   0  0  0  0  0  0  0  0  0  0  0  0
   33.0380   30.0070   33.9430 H   0  0  0  0  0  0  0  0  0  0  0  0
   33.5210   31.9900   37.6320 H   0  0  0  0  0  0  0  0  0  0  0  0
   38.4780   26.9000   33.4130 Br  0  0  0  0  0  0  0  0  0  0  0  0
   37.1270   25.9500   32.4300 C   0  0  0  0  0  0  0  0  0  0  0  0
   36.1460   26.6980   31.7990 C   0  0  0  0  0  0  0  0  0  0  0  0
   35.2340   25.9120   31.1270 C   0  0  0  0  0  0  0  0  0  0  0  0
   34.4250   26.3970   30.5980 H   0  0  0  0  0  0  0  0  0  0  0  0
   35.2860   24.5430   31.0840 C   0  0  0  0  0  0  0  0  0  0  0  0
   34.5230   23.9950   30.5300 H   0  0  0  0  0  0  0  0  0  0  0  0
   36.2810   23.8710   31.7300 C   0  0  0  0  0  3  0  0  0  0  0  0
   37.2260   24.5740   32.4190 C   0  0  0  0  0  3  0  0  0  0  0  0
  1 11  1  0  0  0  0
  2  7  1  0  0  0  0
  2  1  2  0  0  0  0
  3  2  1  0  0  0  0
  4  3  2  0  0  0  0
  4  5  1  0  0  0  0
  5  6  2  0  0  0  0
  6  1  1  0  0  0  0
  8  3  1  0  0  0  0
  9  4  1  0  0  0  0
 10 15  1  0  0  0  0
 11 12  1  0  0  0  0
 11 10  2  0  0  0  0
 12 13  2  0  0  0  0
 13 14  1  0  0  0  0
 14 18  1  0  0  0  0
 15 14  2  0  0  0  0
 16 10  1  0  0  0  0
 17 12  1  0  0  0  0
 20 19  1  0  0  0  0
 21  5  1  0  0  0  0
 21 20  2  0  0  0  0
 22 21  1  0  0  0  0
 23 22  1  0  0  0  0
 24 22  2  0  0  0  0
 24 26  1  0  0  0  0
 25 24  1  0  0  0  0
 26 27  2  0  0  0  0
 27 20  1  0  0  0  0
M  END
>  <minimizedAffinity>
-5.11391783

$$$$

 OpenBabel03262522333D

 27 29  0  0  0  0  0  0  0  0999 V2000
   36.2800   23.7070   31.5810 C   0  0  0  0  0  0  0  0  0  0  0  0
   35.3030   24.5460   31.1310 C   0  0  0  0  0  0  0  0  0  0  0  0
   35.3670   25.9210   31.1040 C   0  0  0  0  0  0  0  0  0  0  0  0
   36.5250   26.5260   31.5760 C   0  0  0  0  0  0  0  0  0  0  0  0
   37.5030   25.6800   32.0270 C   0  0  0  0  0  0  0  0  0  0  0  0
   37.3720   24.3430   32.0230 N   0  0  0  0  0  0  0  0  0  0  0  0
   34.3630   24.1180   30.7460 H   0  0  0  0  0  0  0  0  0  0  0  0
   34.5390   26.5180   30.7270 H   0  0  0  0  0  0  0  0  0  0  0  0
   36.5910   27.6020   31.5620 H   0  0  0  0  0  0  0  0  0  0  0  0
   37.0990   21.4050   30.9700 C   0  0  0  0  0  0  0  0  0  0  0  0
   36.1770   22.2680   31.5980 C   0  0  0  0  0  0  0  0  0  0  0  0
   35.1110   21.6880   32.2600 C   0  0  0  0  0  0  0  0  0  0  0  0
   35.0010   20.3250   32.2780 N   0  0  0  0  0  0  0  0  0  0  0  0
   35.9070   19.5440   31.6640 C   0  0  0  0  0  0  0  0  0  0  0  0
   36.9660   20.0700   31.0040 N   0  0  0  0  0  0  0  0  0  0  0  0
   37.9360   21.8920   30.4510 H   0  0  0  0  0  0  0  0  0  0  0  0
   34.3830   22.3150   32.7540 H   0  0  0  0  0  0  0  0  0  0  0  0
   35.7630   18.4680   31.7140 H   0  0  0  0  0  0  0  0  0  0  0  0
   37.4800   26.1290   35.0810 Br  0  0  0  0  0  0  0  0  0  0  0  0
   38.9420   26.4930   33.8860 C   0  0  0  0  0  0  0  0  0  0  0  0
   38.7550   26.2220   32.5410 C   0  0  0  0  0  0  0  0  0  0  0  0
   39.8660   26.5210   31.7820 C   0  0  0  0  0  0  0  0  0  0  0  0
   39.8270   26.3470   30.7160 H   0  0  0  0  0  0  0  0  0  0  0  0
   41.0310   27.0310   32.2960 C   0  0  0  0  0  0  0  0  0  0  0  0
   41.8650   27.2400   31.6270 H   0  0  0  0  0  0  0  0  0  0  0  0
   41.1450   27.2730   33.6330 C   0  0  0  0  0  3  0  0  0  0  0  0
   40.0900   27.0050   34.4560 C   0  0  0  0  0  3  0  0  0  0  0  0
  1 11  1  0  0  0  0
  1  6  1  0  0  0  0
  2  1  2  0  0  0  0
  3  2  1  0  0  0  0
  3  4  2  0  0  0  0
  4  5  1  0  0  0  0
  5 21  1  0  0  0  0
  6  5  2  0  0  0  0
  7  2  1  0  0  0  0
  8  3  1  0  0  0  0
  9  4  1  0  0  0  0
 10 15  2  0  0  0  0
 10 11  1  0  0  0  0
 11 12  2  0  0  0  0
 12 13  1  0  0  0  0
 12 17  1  0  0  0  0
 14 18  1  0  0  0  0
 14 13  2  0  0  0  0
 15 14  1  0  0  0  0
 16 10  1  0  0  0  0
 20 27  1  0  0  0  0
 20 19  1  0  0  0  0
 21 20  2  0  0  0  0
 22 24  2  0  0  0  0
 22 21  1  0  0  0  0
 23 22  1  0  0  0  0
 24 26  1  0  0  0  0
 25 24  1  0  0  0  0
 26 27  2  0  0  0  0
M  END
>  <minimizedAffinity>
-4.97810841

$$$$

 OpenBabel03262522333D

 27 29  0  0  0  0  0  0  0  0999 V2000
   36.3960   28.4930   31.3910 C   0  0  0  0  0  0  0  0  0  0  0  0
   36.6720   29.4280   30.4370 C   0  0  0  0  0  0  0  0  0  0  0  0
   36.4910   30.7870   30.5620 C   0  0  0  0  0  0  0  0  0  0  0  0
   35.9810   31.2670   31.7620 C   0  0  0  0  0  0  0  0  0  0  0  0
   35.7050   30.3240   32.7160 C   0  0  0  0  0  0  0  0  0  0  0  0
   35.9080   29.0100   32.5260 N   0  0  0  0  0  0  0  0  0  0  0  0
   37.0790   29.1020   29.4660 H   0  0  0  0  0  0  0  0  0  0  0  0
   36.7370   31.4670   29.7480 H   0  0  0  0  0  0  0  0  0  0  0  0
   35.8330   32.3280   31.8750 H   0  0  0  0  0  0  0  0  0  0  0  0
   37.8560   26.4730   31.0220 C   0  0  0  0  0  0  0  0  0  0  0  0
   36.5960   27.0730   31.2240 C   0  0  0  0  0  0  0  0  0  0  0  0
   35.4930   26.2410   31.2570 C   0  0  0  0  0  0  0  0  0  0  0  0
   35.6700   24.8950   31.0960 N   0  0  0  0  0  0  0  0  0  0  0  0
   36.8920   24.3700   30.9050 C   0  0  0  0  0  0  0  0  0  0  0  0
   38.0000   25.1480   30.8660 N   0  0  0  0  0  0  0  0  0  0  0  0
   38.7160   27.1570   30.9990 H   0  0  0  0  0  0  0  0  0  0  0  0
   34.5100   26.6620   31.4110 H   0  0  0  0  0  0  0  0  0  0  0  0
   36.9660   23.2930   30.7830 H   0  0  0  0  0  0  0  0  0  0  0  0
   32.6640   29.8650   32.9750 Br  0  0  0  0  0  0  0  0  0  0  0  0
   33.8230   30.6050   34.3180 C   0  0  0  0  0  0  0  0  0  0  0  0
   35.1670   30.7310   34.0080 C   0  0  0  0  0  0  0  0  0  0  0  0
   35.9000   31.2720   35.0430 C   0  0  0  0  0  0  0  0  0  0  0  0
   36.9630   31.4140   34.9060 H   0  0  0  0  0  0  0  0  0  0  0  0
   35.3630   31.6450   36.2490 C   0  0  0  0  0  0  0  0  0  0  0  0
   36.0130   32.0650   37.0170 H   0  0  0  0  0  0  0  0  0  0  0  0
   34.0300   31.4920   36.4850 C   0  0  0  0  0  3  0  0  0  0  0  0
   33.2320   30.9640   35.5120 C   0  0  0  0  0  3  0  0  0  0  0  0
  1  6  1  0  0  0  0
  2  3  1  0  0  0  0
  2  1  2  0  0  0  0
  3  4  2  0  0  0  0
  4  9  1  0  0  0  0
  4  5  1  0  0  0  0
  5 21  1  0  0  0  0
  6  5  2  0  0  0  0
  7  2  1  0  0  0  0
  8  3  1  0  0  0  0
 10 11  1  0  0  0  0
 11 12  2  0  0  0  0
 11  1  1  0  0  0  0
 12 17  1  0  0  0  0
 13 12  1  0  0  0  0
 14 13  2  0  0  0  0
 15 14  1  0  0  0  0
 15 10  2  0  0  0  0
 16 10  1  0  0  0  0
 18 14  1  0  0  0  0
 19 20  1  0  0  0  0
 20 27  1  0  0  0  0
 21 20  2  0  0  0  0
 21 22  1  0  0  0  0
 22 24  2  0  0  0  0
 23 22  1  0  0  0  0
 24 26  1  0  0  0  0
 24 25  1  0  0  0  0
 27 26  2  0  0  0  0
M  END
>  <minimizedAffinity>
-4.88429451

$$$$

 OpenBabel03262522333D

 27 29  0  0  0  0  0  0  0  0999 V2000
   37.4020   24.9070   32.6230 C   0  0  0  0  0  0  0  0  0  0  0  0
   36.5130   25.5730   31.8320 C   0  0  0  0  0  0  0  0  0  0  0  0
   35.5110   25.0000   31.0810 C   0  0  0  0  0  0  0  0  0  0  0  0
   35.3800   23.6170   31.1220 C   0  0  0  0  0  0  0  0  0  0  0  0
   36.2750   22.9530   31.9180 C   0  0  0  0  0  0  0  0  0  0  0  0
   37.2300   23.5790   32.6260 N   0  0  0  0  0  0  0  0  0  0  0  0
   36.5730   26.6720   31.7630 H   0  0  0  0  0  0  0  0  0  0  0  0
   34.8420   25.6070   30.4740 H   0  0  0  0  0  0  0  0  0  0  0  0
   34.6010   23.1520   30.5400 H   0  0  0  0  0  0  0  0  0  0  0  0
   39.8160   25.2560   33.2500 C   0  0  0  0  0  0  0  0  0  0  0  0
   38.4430   25.5420   33.3950 C   0  0  0  0  0  0  0  0  0  0  0  0
   38.0860   26.4840   34.3410 C   0  0  0  0  0  0  0  0  0  0  0  0
   39.0640   27.0890   35.0810 N   0  0  0  0  0  0  0  0  0  0  0  0
   40.3610   26.7820   34.9060 C   0  0  0  0  0  0  0  0  0  0  0  0
   40.7560   25.8640   33.9900 N   0  0  0  0  0  0  0  0  0  0  0  0
   40.0730   24.5030   32.4920 H   0  0  0  0  0  0  0  0  0  0  0  0
   37.0440   26.7320   34.4820 H   0  0  0  0  0  0  0  0  0  0  0  0
   41.0900   27.2960   35.5250 H   0  0  0  0  0  0  0  0  0  0  0  0
   38.4850   21.5160   30.3120 Br  0  0  0  0  0  0  0  0  0  0  0  0
   37.1210   20.6780   31.3770 C   0  0  0  0  0  0  0  0  0  0  0  0
   36.2160   21.5010   32.0250 C   0  0  0  0  0  0  0  0  0  0  0  0
   35.2870   20.7910   32.7570 C   0  0  0  0  0  0  0  0  0  0  0  0
   34.5310   21.3390   33.3030 H   0  0  0  0  0  0  0  0  0  0  0  0
   35.2580   19.4230   32.8370 C   0  0  0  0  0  0  0  0  0  0  0  0
   34.4890   18.9380   33.4400 H   0  0  0  0  0  0  0  0  0  0  0  0
   36.1830   18.6740   32.1720 C   0  0  0  0  0  3  0  0  0  0  0  0
   37.1380   19.2980   31.4240 C   0  0  0  0  0  3  0  0  0  0  0  0
  1  6  1  0  0  0  0
  1 11  1  0  0  0  0
  2  1  2  0  0  0  0
  3  4  2  0  0  0  0
  3  2  1  0  0  0  0
  4  5  1  0  0  0  0
  5 21  1  0  0  0  0
  5  6  2  0  0  0  0
  7  2  1  0  0  0  0
  8  3  1  0  0  0  0
  9  4  1  0  0  0  0
 10 11  2  0  0  0  0
 10 15  1  0  0  0  0
 11 12  1  0  0  0  0
 12 17  1  0  0  0  0
 12 13  2  0  0  0  0
 14 13  1  0  0  0  0
 14 18  1  0  0  0  0
 15 14  2  0  0  0  0
 16 10  1  0  0  0  0
 19 20  1  0  0  0  0
 20 27  2  0  0  0  0
 20 21  1  0  0  0  0
 21 22  2  0  0  0  0
 22 24  1  0  0  0  0
 22 23  1  0  0  0  0
 24 25  1  0  0  0  0
 26 24  2  0  0  0  0
 27 26  1  0  0  0  0
M  END
>  <minimizedAffinity>
-4.79437637

$$$$

 OpenBabel03262522333D

 27 29  0  0  0  0  0  0  0  0999 V2000
   35.4550   29.2270   31.9450 C   0  0  0  0  0  0  0  0  0  0  0  0
   36.2630   29.3320   30.8510 C   0  0  0  0  0  0  0  0  0  0  0  0
   37.4980   28.7430   30.6990 C   0  0  0  0  0  0  0  0  0  0  0  0
   37.9820   27.9680   31.7450 C   0  0  0  0  0  0  0  0  0  0  0  0
   37.1670   27.8660   32.8420 C   0  0  0  0  0  0  0  0  0  0  0  0
   35.9700   28.4700   32.9220 N   0  0  0  0  0  0  0  0  0  0  0  0
   35.9280   29.9350   29.9910 H   0  0  0  0  0  0  0  0  0  0  0  0
   38.0800   28.8780   29.7890 H   0  0  0  0  0  0  0  0  0  0  0  0
   38.9470   27.5000   31.6430 H   0  0  0  0  0  0  0  0  0  0  0  0
   33.8020   31.0470   31.3990 C   0  0  0  0  0  0  0  0  0  0  0  0
   34.1660   29.8630   32.0720 C   0  0  0  0  0  0  0  0  0  0  0  0
   33.2240   29.2890   32.9050 C   0  0  0  0  0  0  0  0  0  0  0  0
   32.0010   29.8850   33.0360 N   0  0  0  0  0  0  0  0  0  0  0  0
   31.7000   31.0150   32.3730 C   0  0  0  0  0  0  0  0  0  0  0  0
   32.5930   31.6110   31.5460 N   0  0  0  0  0  0  0  0  0  0  0  0
   34.5690   31.4830   30.7430 H   0  0  0  0  0  0  0  0  0  0  0  0
   33.4640   28.3810   33.4380 H   0  0  0  0  0  0  0  0  0  0  0  0
   30.7110   31.4400   32.5200 H   0  0  0  0  0  0  0  0  0  0  0  0
   37.0230   24.8230   32.3510 Br  0  0  0  0  0  0  0  0  0  0  0  0
   37.5930   25.6900   33.9680 C   0  0  0  0  0  0  0  0  0  0  0  0
   37.5880   27.0740   33.9910 C   0  0  0  0  0  0  0  0  0  0  0  0
   38.0160   27.5850   35.1990 C   0  0  0  0  0  0  0  0  0  0  0  0
   38.0490   28.6580   35.3240 H   0  0  0  0  0  0  0  0  0  0  0  0
   38.4050   26.8120   36.2620 C   0  0  0  0  0  0  0  0  0  0  0  0
   38.7310   27.2950   37.1840 H   0  0  0  0  0  0  0  0  0  0  0  0
   38.3850   25.4520   36.1690 C   0  0  0  0  0  3  0  0  0  0  0  0
   37.9750   24.8660   35.0080 C   0  0  0  0  0  3  0  0  0  0  0  0
  1 11  1  0  0  0  0
  1  6  1  0  0  0  0
  2  1  2  0  0  0  0
  3  2  1  0  0  0  0
  3  4  2  0  0  0  0
  4  5  1  0  0  0  0
  5  6  2  0  0  0  0
  5 21  1  0  0  0  0
  7  2  1  0  0  0  0
  8  3  1  0  0  0  0
  9  4  1  0  0  0  0
 10 15  2  0  0  0  0
 10 11  1  0  0  0  0
 11 12  2  0  0  0  0
 12 13  1  0  0  0  0
 12 17  1  0  0  0  0
 14 18  1  0  0  0  0
 14 13  2  0  0  0  0
 15 14  1  0  0  0  0
 16 10  1  0  0  0  0
 19 20  1  0  0  0  0
 20 21  2  0  0  0  0
 20 27  1  0  0  0  0
 21 22  1  0  0  0  0
 22 23  1  0  0  0  0
 22 24  2  0  0  0  0
 24 25  1  0  0  0  0
 26 24  1  0  0  0  0
 27 26  2  0  0  0  0
M  END
>  <minimizedAffinity>
-4.79140949

$$$$
