
 OpenBabel03272510213D

 36 39  0  0  0  0  0  0  0  0999 V2000
   37.2920   29.8310   51.4690 Br  0  0  0  0  0  0  0  0  0  0  0  0
   36.1160   29.4840   50.0080 C   0  0  0  0  0  0  0  0  0  0  0  0
   36.2120   30.2210   48.8200 C   0  0  0  0  0  0  0  0  0  0  0  0
   35.3350   29.9170   47.8130 C   0  0  0  0  0  0  0  0  0  0  0  0
   34.3680   28.9250   47.9150 C   0  0  0  0  0  0  0  0  0  0  0  0
   34.3070   28.2320   49.0830 C   0  0  0  0  0  0  0  0  0  0  0  0
   35.1750   28.5160   50.1120 C   0  0  0  0  0  0  0  0  0  0  0  0
   35.3920   30.4750   46.8880 H   0  0  0  0  0  0  0  0  0  0  0  0
   33.5600   27.4520   49.1880 H   0  0  0  0  0  0  0  0  0  0  0  0
   35.0620   27.9190   51.0090 H   0  0  0  0  0  0  0  0  0  0  0  0
   38.0150   33.3350   49.4420 C   0  0  0  0  0  0  0  0  0  0  0  0
   39.0550   33.3050   48.4770 C   0  0  0  0  0  0  0  0  0  0  0  0
   39.1170   32.2210   47.6340 C   0  0  0  0  0  0  0  0  0  0  0  0
   38.1880   31.2100   47.7450 N   0  0  0  0  0  0  0  0  0  0  0  0
   37.2110   31.2690   48.6740 C   0  0  0  0  0  0  0  0  0  0  0  0
   37.1290   32.3400   49.5240 N   0  0  0  0  0  0  0  0  0  0  0  0
   37.9260   34.1620   50.1210 H   0  0  0  0  0  0  0  0  0  0  0  0
   39.7640   34.1210   48.4260 H   0  0  0  0  0  0  0  0  0  0  0  0
   39.9050   32.1470   46.8680 H   0  0  0  0  0  0  0  0  0  0  0  0
   33.4420   28.6100   46.8430 C   0  0  0  0  0  0  0  0  0  0  0  0
   33.2380   27.3590   46.3240 C   0  0  0  0  0  0  0  0  0  0  0  0
   32.3570   27.0720   45.3050 C   0  0  0  0  0  0  0  0  0  0  0  0
   31.6510   28.0700   44.7850 N   0  0  0  0  0  0  0  0  0  0  0  0
   31.8210   29.3250   45.2690 C   0  0  0  0  0  0  0  0  0  0  0  0
   32.6930   29.5630   46.2660 N   0  0  0  0  0  0  0  0  0  0  0  0
   33.8170   26.5220   46.7460 H   0  0  0  0  0  0  0  0  0  0  0  0
   32.2350   26.0680   44.9330 H   0  0  0  0  0  0  0  0  0  0  0  0
   28.9720   29.4340   46.3700 Br  0  0  0  0  0  0  0  0  0  0  0  0
   29.7440   30.6230   45.1210 C   0  0  0  0  0  0  0  0  0  0  0  0
   31.0490   30.4530   44.7090 C   0  0  0  0  0  0  0  0  0  0  0  0
   31.6540   31.3140   43.7870 C   0  0  0  0  0  0  0  0  0  0  0  0
   32.6800   31.1650   43.4760 H   0  0  0  0  0  0  0  0  0  0  0  0
   30.9100   32.3800   43.2660 C   0  0  0  0  0  0  0  0  0  0  0  0
   31.3380   33.0690   42.5490 H   0  0  0  0  0  0  0  0  0  0  0  0
   29.6140   32.5000   43.7110 C   0  0  0  0  0  3  0  0  0  0  0  0
   28.9850   31.6750   44.6160 C   0  0  0  0  0  3  0  0  0  0  0  0
  2  7  1  0  0  0  0
  2  1  1  0  0  0  0
  3  2  2  0  0  0  0
  4  5  2  0  0  0  0
  4  3  1  0  0  0  0
  5  6  1  0  0  0  0
  6  9  1  0  0  0  0
  6  7  2  0  0  0  0
  7 10  1  0  0  0  0
  8  4  1  0  0  0  0
 11 16  1  0  0  0  0
 11 17  1  0  0  0  0
 12 11  2  0  0  0  0
 13 14  2  0  0  0  0
 13 12  1  0  0  0  0
 14 15  1  0  0  0  0
 15  3  1  0  0  0  0
 15 16  2  0  0  0  0
 18 12  1  0  0  0  0
 19 13  1  0  0  0  0
 20  5  1  0  0  0  0
 21 26  1  0  0  0  0
 21 20  1  0  0  0  0
 22 21  2  0  0  0  0
 23 24  2  0  0  0  0
 23 22  1  0  0  0  0
 24 25  1  0  0  0  0
 25 20  2  0  0  0  0
 27 22  1  0  0  0  0
 29 28  1  0  0  0  0
 30 29  1  0  0  0  0
 30 24  1  0  0  0  0
 31 30  2  0  0  0  0
 32 31  1  0  0  0  0
 33 35  2  0  0  0  0
 33 31  1  0  0  0  0
 34 33  1  0  0  0  0
 35 36  1  0  0  0  0
 36 29  2  0  0  0  0
M  END
>  <minimizedAffinity>
-6.43604898

>  <minimizedRMSD>
0.965438724

$$$$
