
 OpenBabel03262520083D

 18 19  0  0  0  0  0  0  0  0999 V2000
   37.8540   29.8950   50.0870 C   0  0  0  0  0  0  0  0  0  0  0  0
   38.1780   31.1320   49.4690 C   0  0  0  0  0  0  0  0  0  0  0  0
   37.3280   31.5800   48.4580 C   0  0  0  0  0  0  0  0  0  0  0  0
   36.2400   30.8240   48.1120 N   0  0  0  0  0  0  0  0  0  0  0  0
   35.9720   29.6430   48.7350 C   0  0  0  0  0  0  0  0  0  0  0  0
   36.7790   29.1860   49.7190 N   0  0  0  0  0  0  0  0  0  0  0  0
   38.4900   29.5120   50.8770 H   0  0  0  0  0  0  0  0  0  0  0  0
   39.0470   31.6490   49.8070 H   0  0  0  0  0  0  0  0  0  0  0  0
   37.5440   32.5040   47.9750 H   0  0  0  0  0  0  0  0  0  0  0  0
   33.7070   29.6470   50.9040 Br  0  0  0  0  0  0  0  0  0  0  0  0
   33.7280   28.7330   49.2250 C   0  0  0  0  0  0  0  0  0  0  0  0
   34.8140   28.8330   48.3710 C   0  0  0  0  0  0  0  0  0  0  0  0
   34.7520   28.1430   47.1780 C   0  0  0  0  0  0  0  0  0  0  0  0
   35.6050   28.2430   46.5450 H   0  0  0  0  0  0  0  0  0  0  0  0
   33.6720   27.3650   46.8010 C   0  0  0  0  0  0  0  0  0  0  0  0
   33.7630   26.8790   45.8310 H   0  0  0  0  0  0  0  0  0  0  0  0
   32.6090   27.2890   47.6780 C   0  0  0  0  0  3  0  0  0  0  0  0
   32.6460   27.9730   48.8830 C   0  0  0  0  0  3  0  0  0  0  0  0
  1  7  1  0  0  0  0
  2  8  1  0  0  0  0
  2  1  2  0  0  0  0
  3  2  1  0  0  0  0
  4  3  2  0  0  0  0
  4  5  1  0  0  0  0
  5  6  2  0  0  0  0
  6  1  1  0  0  0  0
  9  3  1  0  0  0  0
 11 10  1  0  0  0  0
 12  5  1  0  0  0  0
 12 11  2  0  0  0  0
 13 12  1  0  0  0  0
 14 13  1  0  0  0  0
 15 13  2  0  0  0  0
 15 17  1  0  0  0  0
 16 15  1  0  0  0  0
 17 18  2  0  0  0  0
 18 11  1  0  0  0  0
M  END
>  <minimizedAffinity>
-3.48510551

>  <minimizedRMSD>
1.53585494

$$$$
