
 OpenBabel03262520083D

 18 19  0  0  0  0  0  0  0  0999 V2000
   39.2690   22.9100   37.9240 C   0  0  0  0  0  0  0  0  0  0  0  0
   40.5410   22.4230   37.5190 C   0  0  0  0  0  0  0  0  0  0  0  0
   41.1050   22.9910   36.3770 C   0  0  0  0  0  0  0  0  0  0  0  0
   40.4220   23.9720   35.7090 N   0  0  0  0  0  0  0  0  0  0  0  0
   39.2050   24.4050   36.1370 C   0  0  0  0  0  0  0  0  0  0  0  0
   38.6350   23.8720   37.2420 N   0  0  0  0  0  0  0  0  0  0  0  0
   38.7980   22.4950   38.8070 H   0  0  0  0  0  0  0  0  0  0  0  0
   40.9940   21.6560   38.1050 H   0  0  0  0  0  0  0  0  0  0  0  0
   42.0570   22.6480   36.0470 H   0  0  0  0  0  0  0  0  0  0  0  0
   37.9560   23.4490   33.4240 Br  0  0  0  0  0  0  0  0  0  0  0  0
   37.8610   25.1860   34.2150 C   0  0  0  0  0  0  0  0  0  0  0  0
   38.4730   25.4510   35.4300 C   0  0  0  0  0  0  0  0  0  0  0  0
   38.3590   26.7300   35.9350 C   0  0  0  0  0  0  0  0  0  0  0  0
   38.8410   26.8980   36.8720 H   0  0  0  0  0  0  0  0  0  0  0  0
   37.6730   27.7460   35.2930 C   0  0  0  0  0  0  0  0  0  0  0  0
   37.6680   28.7040   35.8110 H   0  0  0  0  0  0  0  0  0  0  0  0
   37.0780   27.4440   34.0840 C   0  0  0  0  0  3  0  0  0  0  0  0
   37.1780   26.1660   33.5560 C   0  0  0  0  0  3  0  0  0  0  0  0
  1  7  1  0  0  0  0
  2  1  1  0  0  0  0
  2  8  1  0  0  0  0
  3  2  2  0  0  0  0
  4  5  2  0  0  0  0
  4  3  1  0  0  0  0
  5  6  1  0  0  0  0
  6  1  2  0  0  0  0
  9  3  1  0  0  0  0
 10 11  1  0  0  0  0
 11 12  1  0  0  0  0
 12 13  2  0  0  0  0
 12  5  1  0  0  0  0
 13 14  1  0  0  0  0
 15 16  1  0  0  0  0
 15 13  1  0  0  0  0
 17 15  2  0  0  0  0
 18 17  1  0  0  0  0
 18 11  2  0  0  0  0
M  END
>  <minimizedAffinity>
-4.114995

$$$$

 OpenBabel03262520083D

 18 19  0  0  0  0  0  0  0  0999 V2000
   39.3420   26.9750   33.4940 C   0  0  0  0  0  0  0  0  0  0  0  0
   38.5540   26.5090   32.4090 C   0  0  0  0  0  0  0  0  0  0  0  0
   37.8240   25.3380   32.6090 C   0  0  0  0  0  0  0  0  0  0  0  0
   37.8980   24.7010   33.8190 N   0  0  0  0  0  0  0  0  0  0  0  0
   38.6690   25.1870   34.8300 C   0  0  0  0  0  0  0  0  0  0  0  0
   39.3860   26.3220   34.6620 N   0  0  0  0  0  0  0  0  0  0  0  0
   39.9240   27.8820   33.3780 H   0  0  0  0  0  0  0  0  0  0  0  0
   38.5600   27.0750   31.5050 H   0  0  0  0  0  0  0  0  0  0  0  0
   37.2230   24.9620   31.8140 H   0  0  0  0  0  0  0  0  0  0  0  0
   40.8770   22.9620   34.9460 Br  0  0  0  0  0  0  0  0  0  0  0  0
   39.6790   23.5050   36.3330 C   0  0  0  0  0  0  0  0  0  0  0  0
   38.7520   24.5130   36.1210 C   0  0  0  0  0  0  0  0  0  0  0  0
   37.9230   24.8470   37.1720 C   0  0  0  0  0  0  0  0  0  0  0  0
   37.2220   25.6270   36.9750 H   0  0  0  0  0  0  0  0  0  0  0  0
   37.9730   24.2300   38.4100 C   0  0  0  0  0  0  0  0  0  0  0  0
   37.2570   24.5980   39.1430 H   0  0  0  0  0  0  0  0  0  0  0  0
   38.9080   23.2300   38.5830 C   0  0  0  0  0  3  0  0  0  0  0  0
   39.7530   22.8760   37.5420 C   0  0  0  0  0  3  0  0  0  0  0  0
  1  6  1  0  0  0  0
  2  3  1  0  0  0  0
  2  1  2  0  0  0  0
  3  4  2  0  0  0  0
  4  5  1  0  0  0  0
  5 12  1  0  0  0  0
  6  5  2  0  0  0  0
  7  1  1  0  0  0  0
  8  2  1  0  0  0  0
  9  3  1  0  0  0  0
 10 11  1  0  0  0  0
 11 18  1  0  0  0  0
 12 11  2  0  0  0  0
 12 13  1  0  0  0  0
 13 15  2  0  0  0  0
 14 13  1  0  0  0  0
 15 17  1  0  0  0  0
 15 16  1  0  0  0  0
 18 17  2  0  0  0  0
M  END
>  <minimizedAffinity>
-4.01875639

$$$$

 OpenBabel03262520083D

 18 19  0  0  0  0  0  0  0  0999 V2000
   36.5860   27.9680   33.1170 C   0  0  0  0  0  0  0  0  0  0  0  0
   36.7410   28.5090   31.8130 C   0  0  0  0  0  0  0  0  0  0  0  0
   36.2620   29.8030   31.6010 C   0  0  0  0  0  0  0  0  0  0  0  0
   35.6780   30.4800   32.6370 N   0  0  0  0  0  0  0  0  0  0  0  0
   35.5530   29.9170   33.8700 C   0  0  0  0  0  0  0  0  0  0  0  0
   36.0080   28.6650   34.1040 N   0  0  0  0  0  0  0  0  0  0  0  0
   36.9450   26.9670   33.3230 H   0  0  0  0  0  0  0  0  0  0  0  0
   37.2100   27.9040   31.0710 H   0  0  0  0  0  0  0  0  0  0  0  0
   36.3630   30.2370   30.6330 H   0  0  0  0  0  0  0  0  0  0  0  0
   32.4540   29.4770   34.0690 Br  0  0  0  0  0  0  0  0  0  0  0  0
   33.5660   30.5420   35.2010 C   0  0  0  0  0  0  0  0  0  0  0  0
   34.9310   30.6340   34.9780 C   0  0  0  0  0  0  0  0  0  0  0  0
   35.6650   31.4230   35.8400 C   0  0  0  0  0  0  0  0  0  0  0  0
   36.7120   31.4710   35.6400 H   0  0  0  0  0  0  0  0  0  0  0  0
   35.1090   32.1170   36.9000 C   0  0  0  0  0  0  0  0  0  0  0  0
   35.8120   32.6980   37.4960 H   0  0  0  0  0  0  0  0  0  0  0  0
   33.7470   32.0010   37.0900 C   0  0  0  0  0  3  0  0  0  0  0  0
   32.9870   31.2140   36.2390 C   0  0  0  0  0  3  0  0  0  0  0  0
  1  7  1  0  0  0  0
  1  6  1  0  0  0  0
  2  1  2  0  0  0  0
  3  2  1  0  0  0  0
  3  4  2  0  0  0  0
  4  5  1  0  0  0  0
  5  6  2  0  0  0  0
  5 12  1  0  0  0  0
  8  2  1  0  0  0  0
  9  3  1  0  0  0  0
 10 11  1  0  0  0  0
 11 18  1  0  0  0  0
 12 11  2  0  0  0  0
 12 13  1  0  0  0  0
 13 15  2  0  0  0  0
 14 13  1  0  0  0  0
 15 17  1  0  0  0  0
 15 16  1  0  0  0  0
 18 17  2  0  0  0  0
M  END
>  <minimizedAffinity>
-4.013978

$$$$

 OpenBabel03262520083D

 18 19  0  0  0  0  0  0  0  0999 V2000
   39.9950   22.3910   37.1530 C   0  0  0  0  0  0  0  0  0  0  0  0
   39.4310   23.1920   38.1820 C   0  0  0  0  0  0  0  0  0  0  0  0
   38.0950   23.5670   38.0350 C   0  0  0  0  0  0  0  0  0  0  0  0
   37.4010   23.1560   36.9290 N   0  0  0  0  0  0  0  0  0  0  0  0
   37.9870   22.3890   35.9690 C   0  0  0  0  0  0  0  0  0  0  0  0
   39.2800   22.0100   36.0870 N   0  0  0  0  0  0  0  0  0  0  0  0
   41.0300   22.0780   37.2300 H   0  0  0  0  0  0  0  0  0  0  0  0
   40.0520   23.4610   39.0050 H   0  0  0  0  0  0  0  0  0  0  0  0
   37.6430   24.1680   38.7900 H   0  0  0  0  0  0  0  0  0  0  0  0
   38.7660   23.9350   33.3540 Br  0  0  0  0  0  0  0  0  0  0  0  0
   37.4830   22.5320   33.5540 C   0  0  0  0  0  0  0  0  0  0  0  0
   37.2520   21.9470   34.7890 C   0  0  0  0  0  0  0  0  0  0  0  0
   36.3090   20.9420   34.8500 C   0  0  0  0  0  0  0  0  0  0  0  0
   36.1570   20.5130   35.8160 H   0  0  0  0  0  0  0  0  0  0  0  0
   35.5940   20.4980   33.7530 C   0  0  0  0  0  0  0  0  0  0  0  0
   34.8830   19.6970   33.9530 H   0  0  0  0  0  0  0  0  0  0  0  0
   35.8500   21.1050   32.5400 C   0  0  0  0  0  3  0  0  0  0  0  0
   36.7930   22.1180   32.4520 C   0  0  0  0  0  3  0  0  0  0  0  0
  1  7  1  0  0  0  0
  1  2  1  0  0  0  0
  2  8  1  0  0  0  0
  3  2  2  0  0  0  0
  3  9  1  0  0  0  0
  4  3  1  0  0  0  0
  5  6  1  0  0  0  0
  5  4  2  0  0  0  0
  6  1  2  0  0  0  0
 10 11  1  0  0  0  0
 11 12  1  0  0  0  0
 12 13  2  0  0  0  0
 12  5  1  0  0  0  0
 13 14  1  0  0  0  0
 15 16  1  0  0  0  0
 15 13  1  0  0  0  0
 17 15  2  0  0  0  0
 18 17  1  0  0  0  0
 18 11  2  0  0  0  0
M  END
>  <minimizedAffinity>
-4.00956726

$$$$

 OpenBabel03262520083D

 18 19  0  0  0  0  0  0  0  0999 V2000
   37.7360   27.7630   35.2240 C   0  0  0  0  0  0  0  0  0  0  0  0
   37.0750   27.5350   33.9880 C   0  0  0  0  0  0  0  0  0  0  0  0
   37.0990   26.2340   33.4850 C   0  0  0  0  0  0  0  0  0  0  0  0
   37.7450   25.2540   34.1900 N   0  0  0  0  0  0  0  0  0  0  0  0
   38.3650   25.5240   35.3710 C   0  0  0  0  0  0  0  0  0  0  0  0
   38.3570   26.7760   35.8820 N   0  0  0  0  0  0  0  0  0  0  0  0
   37.7410   28.7600   35.6490 H   0  0  0  0  0  0  0  0  0  0  0  0
   36.5990   28.3620   33.5130 H   0  0  0  0  0  0  0  0  0  0  0  0
   36.6120   26.0300   32.5600 H   0  0  0  0  0  0  0  0  0  0  0  0
   41.0960   24.6490   34.1010 Br  0  0  0  0  0  0  0  0  0  0  0  0
   40.2760   23.9900   35.6960 C   0  0  0  0  0  0  0  0  0  0  0  0
   39.0550   24.4830   36.1280 C   0  0  0  0  0  0  0  0  0  0  0  0
   38.5290   23.9550   37.2890 C   0  0  0  0  0  0  0  0  0  0  0  0
   37.5890   24.3590   37.5920 H   0  0  0  0  0  0  0  0  0  0  0  0
   39.1540   22.9690   38.0310 C   0  0  0  0  0  0  0  0  0  0  0  0
   38.6200   22.6500   38.9240 H   0  0  0  0  0  0  0  0  0  0  0  0
   40.3680   22.5020   37.5690 C   0  0  0  0  0  3  0  0  0  0  0  0
   40.9190   23.0170   36.4050 C   0  0  0  0  0  3  0  0  0  0  0  0
  1  7  1  0  0  0  0
  1  6  1  0  0  0  0
  2  1  2  0  0  0  0
  3  2  1  0  0  0  0
  3  4  2  0  0  0  0
  4  5  1  0  0  0  0
  5  6  2  0  0  0  0
  5 12  1  0  0  0  0
  8  2  1  0  0  0  0
  9  3  1  0  0  0  0
 10 11  1  0  0  0  0
 11 12  2  0  0  0  0
 11 18  1  0  0  0  0
 12 13  1  0  0  0  0
 13 14  1  0  0  0  0
 13 15  2  0  0  0  0
 15 16  1  0  0  0  0
 17 15  1  0  0  0  0
 18 17  2  0  0  0  0
M  END
>  <minimizedAffinity>
-3.98341703

$$$$

 OpenBabel03262520083D

 18 19  0  0  0  0  0  0  0  0999 V2000
   40.0320   23.0390   37.1250 C   0  0  0  0  0  0  0  0  0  0  0  0
   39.1450   23.0630   38.2340 C   0  0  0  0  0  0  0  0  0  0  0  0
   37.8960   23.6520   38.0360 C   0  0  0  0  0  0  0  0  0  0  0  0
   37.5870   24.1720   36.8080 N   0  0  0  0  0  0  0  0  0  0  0  0
   38.4730   24.1250   35.7750 C   0  0  0  0  0  0  0  0  0  0  0  0
   39.6900   23.5580   35.9390 N   0  0  0  0  0  0  0  0  0  0  0  0
   41.0120   22.5890   37.2380 H   0  0  0  0  0  0  0  0  0  0  0  0
   39.4760   22.6320   39.1510 H   0  0  0  0  0  0  0  0  0  0  0  0
   37.2080   23.6860   38.8480 H   0  0  0  0  0  0  0  0  0  0  0  0
   38.6490   27.2530   35.6500 Br  0  0  0  0  0  0  0  0  0  0  0  0
   38.1820   26.0440   34.2460 C   0  0  0  0  0  0  0  0  0  0  0  0
   38.1490   24.6760   34.4640 C   0  0  0  0  0  0  0  0  0  0  0  0
   37.8020   23.8700   33.3990 C   0  0  0  0  0  0  0  0  0  0  0  0
   37.7870   22.8220   33.6030 H   0  0  0  0  0  0  0  0  0  0  0  0
   37.4880   24.3570   32.1430 C   0  0  0  0  0  0  0  0  0  0  0  0
   37.2330   23.6010   31.4010 H   0  0  0  0  0  0  0  0  0  0  0  0
   37.5310   25.7240   31.9640 C   0  0  0  0  0  3  0  0  0  0  0  0
   37.8780   26.5560   33.0180 C   0  0  0  0  0  3  0  0  0  0  0  0
  1  7  1  0  0  0  0
  1  2  1  0  0  0  0
  2  8  1  0  0  0  0
  3  2  2  0  0  0  0
  3  9  1  0  0  0  0
  4  3  1  0  0  0  0
  5  6  1  0  0  0  0
  5  4  2  0  0  0  0
  6  1  2  0  0  0  0
 11 12  1  0  0  0  0
 11 10  1  0  0  0  0
 12  5  1  0  0  0  0
 13 14  1  0  0  0  0
 13 12  2  0  0  0  0
 15 13  1  0  0  0  0
 16 15  1  0  0  0  0
 17 15  2  0  0  0  0
 17 18  1  0  0  0  0
 18 11  2  0  0  0  0
M  END
>  <minimizedAffinity>
-3.93950272

$$$$

 OpenBabel03262520083D

 18 19  0  0  0  0  0  0  0  0999 V2000
   37.3440   25.9040   33.5550 C   0  0  0  0  0  0  0  0  0  0  0  0
   37.1300   27.1680   34.1660 C   0  0  0  0  0  0  0  0  0  0  0  0
   37.8460   27.4410   35.3320 C   0  0  0  0  0  0  0  0  0  0  0  0
   38.7060   26.4970   35.8270 N   0  0  0  0  0  0  0  0  0  0  0  0
   38.8760   25.2980   35.2050 C   0  0  0  0  0  0  0  0  0  0  0  0
   38.1960   25.0090   34.0730 N   0  0  0  0  0  0  0  0  0  0  0  0
   36.8080   25.6540   32.6480 H   0  0  0  0  0  0  0  0  0  0  0  0
   36.4400   27.8380   33.7050 H   0  0  0  0  0  0  0  0  0  0  0  0
   37.7070   28.3800   35.8140 H   0  0  0  0  0  0  0  0  0  0  0  0
   37.6260   23.5200   37.4650 Br  0  0  0  0  0  0  0  0  0  0  0  0
   39.3880   23.4230   36.7310 C   0  0  0  0  0  0  0  0  0  0  0  0
   39.7910   24.2890   35.7270 C   0  0  0  0  0  0  0  0  0  0  0  0
   41.0790   24.1550   35.2500 C   0  0  0  0  0  0  0  0  0  0  0  0
   41.3550   24.8370   34.4770 H   0  0  0  0  0  0  0  0  0  0  0  0
   41.9730   23.2100   35.7210 C   0  0  0  0  0  0  0  0  0  0  0  0
   42.9550   23.2220   35.2500 H   0  0  0  0  0  0  0  0  0  0  0  0
   41.5350   22.3660   36.7220 C   0  0  0  0  0  3  0  0  0  0  0  0
   40.2460   22.4800   37.2170 C   0  0  0  0  0  3  0  0  0  0  0  0
  1  6  2  0  0  0  0
  1  2  1  0  0  0  0
  2  3  2  0  0  0  0
  3  9  1  0  0  0  0
  3  4  1  0  0  0  0
  5 12  1  0  0  0  0
  5  4  2  0  0  0  0
  6  5  1  0  0  0  0
  7  1  1  0  0  0  0
  8  2  1  0  0  0  0
 11 18  1  0  0  0  0
 11 10  1  0  0  0  0
 12 11  2  0  0  0  0
 13 15  2  0  0  0  0
 13 12  1  0  0  0  0
 14 13  1  0  0  0  0
 15 17  1  0  0  0  0
 16 15  1  0  0  0  0
 17 18  2  0  0  0  0
M  END
>  <minimizedAffinity>
-3.90353703

$$$$

 OpenBabel03262520083D

 18 19  0  0  0  0  0  0  0  0999 V2000
   37.6840   24.3520   32.6610 C   0  0  0  0  0  0  0  0  0  0  0  0
   37.2210   23.1850   31.9970 C   0  0  0  0  0  0  0  0  0  0  0  0
   37.1600   22.0100   32.7470 C   0  0  0  0  0  0  0  0  0  0  0  0
   37.5410   22.0330   34.0620 N   0  0  0  0  0  0  0  0  0  0  0  0
   37.9780   23.1790   34.6530 C   0  0  0  0  0  0  0  0  0  0  0  0
   38.0460   24.3320   33.9500 N   0  0  0  0  0  0  0  0  0  0  0  0
   37.7460   25.2860   32.1130 H   0  0  0  0  0  0  0  0  0  0  0  0
   36.9470   23.2660   30.9700 H   0  0  0  0  0  0  0  0  0  0  0  0
   36.8170   21.1170   32.2780 H   0  0  0  0  0  0  0  0  0  0  0  0
   40.9100   22.1750   35.1320 Br  0  0  0  0  0  0  0  0  0  0  0  0
   39.6530   22.7980   36.4300 C   0  0  0  0  0  0  0  0  0  0  0  0
   38.3840   23.2100   36.0540 C   0  0  0  0  0  0  0  0  0  0  0  0
   37.5350   23.6450   37.0500 C   0  0  0  0  0  0  0  0  0  0  0  0
   36.5670   23.9560   36.7250 H   0  0  0  0  0  0  0  0  0  0  0  0
   37.8860   23.6880   38.3880 C   0  0  0  0  0  0  0  0  0  0  0  0
   37.1120   24.0550   39.0610 H   0  0  0  0  0  0  0  0  0  0  0  0
   39.1570   23.2690   38.7240 C   0  0  0  0  0  3  0  0  0  0  0  0
   40.0300   22.8280   37.7410 C   0  0  0  0  0  3  0  0  0  0  0  0
  1  6  1  0  0  0  0
  2  1  2  0  0  0  0
  2  3  1  0  0  0  0
  3  4  2  0  0  0  0
  4  5  1  0  0  0  0
  5 12  1  0  0  0  0
  6  5  2  0  0  0  0
  7  1  1  0  0  0  0
  8  2  1  0  0  0  0
  9  3  1  0  0  0  0
 10 11  1  0  0  0  0
 11 18  1  0  0  0  0
 12 11  2  0  0  0  0
 12 13  1  0  0  0  0
 13 15  2  0  0  0  0
 14 13  1  0  0  0  0
 15 17  1  0  0  0  0
 15 16  1  0  0  0  0
 18 17  2  0  0  0  0
M  END
>  <minimizedAffinity>
-3.89550686

$$$$

 OpenBabel03262520083D

 18 19  0  0  0  0  0  0  0  0999 V2000
   37.7950   24.0260   32.4990 C   0  0  0  0  0  0  0  0  0  0  0  0
   38.5030   25.1220   31.9370 C   0  0  0  0  0  0  0  0  0  0  0  0
   39.3140   25.8630   32.7980 C   0  0  0  0  0  0  0  0  0  0  0  0
   39.3900   25.5090   34.1180 N   0  0  0  0  0  0  0  0  0  0  0  0
   38.6910   24.4490   34.6090 C   0  0  0  0  0  0  0  0  0  0  0  0
   37.8980   23.7130   33.7970 N   0  0  0  0  0  0  0  0  0  0  0  0
   37.1550   23.4250   31.8630 H   0  0  0  0  0  0  0  0  0  0  0  0
   38.3790   25.3190   30.8970 H   0  0  0  0  0  0  0  0  0  0  0  0
   39.8580   26.6910   32.4070 H   0  0  0  0  0  0  0  0  0  0  0  0
   40.9760   22.3910   35.2260 Br  0  0  0  0  0  0  0  0  0  0  0  0
   39.7270   23.1650   36.4490 C   0  0  0  0  0  0  0  0  0  0  0  0
   38.7680   24.0660   36.0150 C   0  0  0  0  0  0  0  0  0  0  0  0
   37.9030   24.5800   36.9590 C   0  0  0  0  0  0  0  0  0  0  0  0
   37.1790   25.2720   36.5900 H   0  0  0  0  0  0  0  0  0  0  0  0
   37.9470   24.2400   38.2990 C   0  0  0  0  0  0  0  0  0  0  0  0
   37.2010   24.7250   38.9280 H   0  0  0  0  0  0  0  0  0  0  0  0
   38.9150   23.3380   38.6940 C   0  0  0  0  0  3  0  0  0  0  0  0
   39.7970   22.8090   37.7640 C   0  0  0  0  0  3  0  0  0  0  0  0
  1  6  1  0  0  0  0
  2  1  2  0  0  0  0
  2  3  1  0  0  0  0
  3  4  2  0  0  0  0
  4  5  1  0  0  0  0
  5 12  1  0  0  0  0
  6  5  2  0  0  0  0
  7  1  1  0  0  0  0
  8  2  1  0  0  0  0
  9  3  1  0  0  0  0
 10 11  1  0  0  0  0
 11 18  1  0  0  0  0
 12 11  2  0  0  0  0
 12 13  1  0  0  0  0
 13 15  2  0  0  0  0
 14 13  1  0  0  0  0
 15 17  1  0  0  0  0
 15 16  1  0  0  0  0
 18 17  2  0  0  0  0
M  END
>  <minimizedAffinity>
-3.8841455

$$$$
