
 OpenBabel03272504503D

 42 45  0  0  1  0  0  0  0  0999 V2000
   37.4310   31.2170   47.1290 N   0  0  0  0  0  0  0  0  0  0  0  0
   38.1020   31.3610   48.4190 C   0  0  0  0  0  0  0  0  0  0  0  0
   39.2950   32.2510   48.3820 C   0  0  0  0  0  0  0  0  0  0  0  0
   39.0950   33.3780   47.3690 C   0  0  0  0  0  0  0  0  0  0  0  0
   39.0590   32.6800   46.0450 C   0  0  0  0  0  0  0  0  0  0  0  0
   37.8430   31.8070   45.9010 C   0  0  1  0  0  0  0  0  0  0  0  0
   37.3390   31.8690   49.0760 H   0  0  0  0  0  0  0  0  0  0  0  0
   38.3530   30.4350   48.9160 H   0  0  0  0  0  0  0  0  0  0  0  0
   40.2420   31.7430   48.1210 H   0  0  0  0  0  0  0  0  0  0  0  0
   39.3990   32.7370   49.3850 H   0  0  0  0  0  0  0  0  0  0  0  0
   38.0990   33.8570   47.4990 H   0  0  0  0  0  0  0  0  0  0  0  0
   39.9270   34.0820   47.4210 H   0  0  0  0  0  0  0  0  0  0  0  0
   39.1620   33.3440   45.1720 H   0  0  0  0  0  0  0  0  0  0  0  0
   39.9330   31.9670   46.0550 H   0  0  0  0  0  0  0  0  0  0  0  0
   37.0140   32.5160   45.6190 H   0  0  0  0  0  0  0  0  0  0  0  0
   36.3490   32.4520   43.1270 Br  0  0  0  0  0  0  0  0  0  0  0  0
   37.4600   30.9800   43.4990 C   0  0  0  0  0  0  0  0  0  0  0  0
   38.0070   30.8950   44.7530 C   0  0  0  0  0  0  0  0  0  0  0  0
   38.8080   29.7510   44.9040 C   0  0  0  0  0  0  0  0  0  0  0  0
   39.2890   29.6020   45.8850 H   0  0  0  0  0  0  0  0  0  0  0  0
   39.0500   28.7970   43.9410 C   0  0  0  0  0  0  0  0  0  0  0  0
   39.6890   27.9590   44.1820 H   0  0  0  0  0  0  0  0  0  0  0  0
   38.4620   28.9650   42.7150 C   0  0  0  0  0  3  0  0  0  0  0  0
   37.6660   30.0610   42.4970 C   0  0  0  0  0  3  0  0  0  0  0  0
   35.9130   29.6540   48.2480 C   0  0  0  0  0  0  0  0  0  0  0  0
   36.2600   30.4220   47.1450 C   0  0  0  0  0  0  0  0  0  0  0  0
   35.3990   30.3670   46.0640 C   0  0  0  0  0  0  0  0  0  0  0  0
   34.2830   29.5870   46.1220 N   0  0  0  0  0  0  0  0  0  0  0  0
   33.9840   28.8590   47.2110 C   0  0  0  0  0  0  0  0  0  0  0  0
   34.8050   28.9030   48.2630 N   0  0  0  0  0  0  0  0  0  0  0  0
   36.5050   29.6210   49.1420 H   0  0  0  0  0  0  0  0  0  0  0  0
   35.5480   30.9190   45.1550 H   0  0  0  0  0  0  0  0  0  0  0  0
   32.7900   28.0410   47.2460 C   0  0  0  0  0  0  0  0  0  0  0  0
   32.8080   26.8100   47.8560 C   0  0  0  0  0  0  0  0  0  0  0  0
   31.7020   25.9940   47.9200 C   0  0  0  0  0  0  0  0  0  0  0  0
   30.5770   26.4900   47.3340 C   0  0  0  0  0  0  0  0  0  0  0  0
   30.5050   27.7340   46.7020 C   0  0  0  0  0  0  0  0  0  0  0  0
   31.6500   28.5030   46.6730 N   0  0  0  0  0  0  0  0  0  0  0  0
   33.7580   26.4880   48.3030 H   0  0  0  0  0  0  0  0  0  0  0  0
   31.7590   25.0430   48.4040 H   0  0  0  0  0  0  0  0  0  0  0  0
   29.6610   25.9030   47.3430 H   0  0  0  0  0  0  0  0  0  0  0  0
   29.6120   28.0970   46.2530 H   0  0  0  0  0  0  0  0  0  0  0  0
  1 26  1  0  0  0  0
  1  2  1  0  0  0  0
  2  8  1  0  0  0  0
  2  7  1  0  0  0  0
  3  2  1  0  0  0  0
  3 10  1  0  0  0  0
  4 12  1  0  0  0  0
  4 11  1  0  0  0  0
  4  3  1  0  0  0  0
  5 14  1  0  0  0  0
  5  4  1  0  0  0  0
  6 15  1  6  0  0  0
  6  5  1  0  0  0  0
  6  1  1  0  0  0  0
  9  3  1  0  0  0  0
 13  5  1  0  0  0  0
 16 17  1  0  0  0  0
 17 18  1  0  0  0  0
 18 19  2  0  0  0  0
 18  6  1  0  0  0  0
 19 20  1  0  0  0  0
 21 22  1  0  0  0  0
 21 19  1  0  0  0  0
 23 21  2  0  0  0  0
 24 23  1  0  0  0  0
 24 17  2  0  0  0  0
 25 30  1  0  0  0  0
 25 31  1  0  0  0  0
 26 25  2  0  0  0  0
 27 28  2  0  0  0  0
 27 26  1  0  0  0  0
 28 29  1  0  0  0  0
 29 33  1  0  0  0  0
 29 30  2  0  0  0  0
 32 27  1  0  0  0  0
 33 34  1  0  0  0  0
 34 35  2  0  0  0  0
 34 39  1  0  0  0  0
 35 40  1  0  0  0  0
 36 41  1  0  0  0  0
 36 35  1  0  0  0  0
 37 36  2  0  0  0  0
 38 37  1  0  0  0  0
 38 33  2  0  0  0  0
 42 37  1  0  0  0  0
M  END
>  <minimizedAffinity>
-4.34858227

>  <minimizedRMSD>
1.38346636

$$$$
