
 OpenBabel03272507313D

 29 31  0  0  0  0  0  0  0  0999 V2000
   37.6640   26.3660   34.1150 C   0  0  0  0  0  0  0  0  0  0  0  0
   37.2680   27.5030   33.4830 C   0  0  0  0  0  0  0  0  0  0  0  0
   36.5630   27.1090   32.3340 C   0  0  0  0  0  0  0  0  0  0  0  0
   36.5810   25.7190   32.3540 C   0  0  0  0  0  0  0  0  0  0  0  0
   37.2380   25.3500   33.4170 O   0  0  0  0  0  0  0  0  0  0  0  0
   37.4280   28.5420   33.7480 H   0  0  0  0  0  0  0  0  0  0  0  0
   36.1100   27.7870   31.6060 H   0  0  0  0  0  0  0  0  0  0  0  0
   38.4270   26.3930   35.3550 C   0  0  0  0  0  0  0  0  0  0  0  0
   38.7240   27.4950   35.8440 O   0  0  0  0  0  0  0  0  0  0  0  0
   38.7880   25.1220   35.9340 C   0  0  0  0  0  0  0  0  0  0  0  0
   37.9960   24.6360   36.9630 C   0  0  0  0  0  0  0  0  0  0  0  0
   38.2790   23.4270   37.5650 C   0  0  0  0  0  0  0  0  0  0  0  0
   39.3610   22.7570   37.0930 N   0  0  0  0  0  0  0  0  0  0  0  0
   40.1420   23.2200   36.0910 C   0  0  0  0  0  0  0  0  0  0  0  0
   39.8360   24.4060   35.5260 N   0  0  0  0  0  0  0  0  0  0  0  0
   37.1310   25.2050   37.3150 H   0  0  0  0  0  0  0  0  0  0  0  0
   37.7140   22.9880   38.3630 H   0  0  0  0  0  0  0  0  0  0  0  0
   40.9950   22.6340   35.7610 H   0  0  0  0  0  0  0  0  0  0  0  0
   35.9600   24.8580   31.3390 C   0  0  0  0  0  0  0  0  0  0  0  0
   35.0600   25.3270   30.5890 O   0  0  0  0  0  0  0  0  0  0  0  0
   38.8010   24.4050   30.0740 Br  0  0  0  0  0  0  0  0  0  0  0  0
   37.6330   23.0460   30.7270 C   0  0  0  0  0  0  0  0  0  0  0  0
   36.4260   23.4660   31.2440 C   0  0  0  0  0  0  0  0  0  0  0  0
   35.5020   22.5420   31.7480 C   0  0  0  0  0  0  0  0  0  0  0  0
   34.5340   22.7710   32.1710 H   0  0  0  0  0  0  0  0  0  0  0  0
   35.9190   21.2120   31.6710 C   0  0  0  0  0  0  0  0  0  0  0  0
   35.2040   20.4690   32.0610 H   0  0  0  0  0  0  0  0  0  0  0  0
   37.1100   20.7360   31.1640 C   0  0  0  0  0  3  0  0  0  0  0  0
   37.9650   21.7090   30.6890 C   0  0  0  0  0  3  0  0  0  0  0  0
  1  8  1  0  0  0  0
  2  6  1  0  0  0  0
  2  1  2  0  0  0  0
  3  4  2  0  0  0  0
  3  2  1  0  0  0  0
  4  5  1  0  0  0  0
  5  1  1  0  0  0  0
  7  3  1  0  0  0  0
  8  9  2  0  0  0  0
  8 10  1  0  0  0  0
 10 11  1  0  0  0  0
 11 16  1  0  0  0  0
 11 12  2  0  0  0  0
 12 17  1  0  0  0  0
 13 12  1  0  0  0  0
 14 13  2  0  0  0  0
 15 10  2  0  0  0  0
 15 14  1  0  0  0  0
 18 14  1  0  0  0  0
 19  4  1  0  0  0  0
 20 19  2  0  0  0  0
 21 22  1  0  0  0  0
 22 23  1  0  0  0  0
 23 19  1  0  0  0  0
 23 24  2  0  0  0  0
 24 25  1  0  0  0  0
 26 24  1  0  0  0  0
 26 27  1  0  0  0  0
 28 26  2  0  0  0  0
 29 22  2  0  0  0  0
 29 28  1  0  0  0  0
M  END
>  <minimizedAffinity>
-5.53657866

$$$$

 OpenBabel03272507313D

 29 31  0  0  0  0  0  0  0  0999 V2000
   37.8610   27.1310   34.4230 C   0  0  0  0  0  0  0  0  0  0  0  0
   37.6890   27.1380   33.0730 C   0  0  0  0  0  0  0  0  0  0  0  0
   36.6560   28.0490   32.7970 C   0  0  0  0  0  0  0  0  0  0  0  0
   36.2650   28.5440   34.0370 C   0  0  0  0  0  0  0  0  0  0  0  0
   37.0070   27.9690   34.9400 O   0  0  0  0  0  0  0  0  0  0  0  0
   38.2040   26.5800   32.3000 H   0  0  0  0  0  0  0  0  0  0  0  0
   36.2720   28.2880   31.8020 H   0  0  0  0  0  0  0  0  0  0  0  0
   38.8590   26.2930   35.0720 C   0  0  0  0  0  0  0  0  0  0  0  0
   40.0040   26.7490   35.2300 O   0  0  0  0  0  0  0  0  0  0  0  0
   38.4430   24.9780   35.4920 C   0  0  0  0  0  0  0  0  0  0  0  0
   38.0370   24.8210   36.8080 C   0  0  0  0  0  0  0  0  0  0  0  0
   37.6240   23.5920   37.2820 C   0  0  0  0  0  0  0  0  0  0  0  0
   37.6400   22.5670   36.3920 N   0  0  0  0  0  0  0  0  0  0  0  0
   38.0330   22.7060   35.1060 C   0  0  0  0  0  0  0  0  0  0  0  0
   38.4310   23.9210   34.6780 N   0  0  0  0  0  0  0  0  0  0  0  0
   38.0380   25.6720   37.4960 H   0  0  0  0  0  0  0  0  0  0  0  0
   37.2980   23.3950   38.2830 H   0  0  0  0  0  0  0  0  0  0  0  0
   38.0230   21.8440   34.4460 H   0  0  0  0  0  0  0  0  0  0  0  0
   35.2030   29.5360   34.2460 C   0  0  0  0  0  0  0  0  0  0  0  0
   34.0000   29.1590   34.3080 O   0  0  0  0  0  0  0  0  0  0  0  0
   35.1440   31.2630   31.6200 Br  0  0  0  0  0  0  0  0  0  0  0  0
   35.6440   31.8750   33.3560 C   0  0  0  0  0  0  0  0  0  0  0  0
   35.5990   30.9470   34.3740 C   0  0  0  0  0  0  0  0  0  0  0  0
   35.9490   31.3020   35.6830 C   0  0  0  0  0  0  0  0  0  0  0  0
   35.9460   30.6500   36.5460 H   0  0  0  0  0  0  0  0  0  0  0  0
   36.3300   32.6360   35.8350 C   0  0  0  0  0  0  0  0  0  0  0  0
   36.6100   32.9350   36.8580 H   0  0  0  0  0  0  0  0  0  0  0  0
   36.3950   33.6050   34.8550 C   0  0  0  0  0  3  0  0  0  0  0  0
   36.0340   33.1750   33.5940 C   0  0  0  0  0  3  0  0  0  0  0  0
  1  5  1  0  0  0  0
  1  8  1  0  0  0  0
  2  1  2  0  0  0  0
  3  2  1  0  0  0  0
  3  4  2  0  0  0  0
  4 19  1  0  0  0  0
  4  5  1  0  0  0  0
  6  2  1  0  0  0  0
  7  3  1  0  0  0  0
  8  9  2  0  0  0  0
  8 10  1  0  0  0  0
 10 11  1  0  0  0  0
 11 12  2  0  0  0  0
 11 16  1  0  0  0  0
 12 17  1  0  0  0  0
 13 12  1  0  0  0  0
 14 13  2  0  0  0  0
 15 14  1  0  0  0  0
 15 10  2  0  0  0  0
 18 14  1  0  0  0  0
 19 20  2  0  0  0  0
 19 23  1  0  0  0  0
 21 22  1  0  0  0  0
 22 29  2  0  0  0  0
 22 23  1  0  0  0  0
 23 24  2  0  0  0  0
 24 26  1  0  0  0  0
 24 25  1  0  0  0  0
 26 27  1  0  0  0  0
 28 26  2  0  0  0  0
 29 28  1  0  0  0  0
M  END
>  <minimizedAffinity>
-5.43788528

$$$$

 OpenBabel03272507313D

 29 31  0  0  0  0  0  0  0  0999 V2000
   36.6220   25.3440   32.2590 C   0  0  0  0  0  0  0  0  0  0  0  0
   36.5520   26.6990   32.1660 C   0  0  0  0  0  0  0  0  0  0  0  0
   37.4350   27.2210   33.1260 C   0  0  0  0  0  0  0  0  0  0  0  0
   37.9950   26.1110   33.7490 C   0  0  0  0  0  0  0  0  0  0  0  0
   37.4780   25.0500   33.1970 O   0  0  0  0  0  0  0  0  0  0  0  0
   35.9570   27.3250   31.5120 H   0  0  0  0  0  0  0  0  0  0  0  0
   37.6140   28.2840   33.3090 H   0  0  0  0  0  0  0  0  0  0  0  0
   35.8320   24.4670   31.4060 C   0  0  0  0  0  0  0  0  0  0  0  0
   34.8800   24.9540   30.7740 O   0  0  0  0  0  0  0  0  0  0  0  0
   36.2170   23.0780   31.3540 C   0  0  0  0  0  0  0  0  0  0  0  0
   35.3520   22.1500   31.9130 C   0  0  0  0  0  0  0  0  0  0  0  0
   35.6520   20.8030   31.9010 C   0  0  0  0  0  0  0  0  0  0  0  0
   36.8260   20.4520   31.3160 N   0  0  0  0  0  0  0  0  0  0  0  0
   37.6780   21.3460   30.7680 C   0  0  0  0  0  0  0  0  0  0  0  0
   37.3530   22.6550   30.7990 N   0  0  0  0  0  0  0  0  0  0  0  0
   34.4140   22.4720   32.3750 H   0  0  0  0  0  0  0  0  0  0  0  0
   35.0330   20.0300   32.3110 H   0  0  0  0  0  0  0  0  0  0  0  0
   38.6030   20.9990   30.3160 H   0  0  0  0  0  0  0  0  0  0  0  0
   38.9860   26.1680   34.8310 C   0  0  0  0  0  0  0  0  0  0  0  0
   39.8110   27.1220   34.8720 O   0  0  0  0  0  0  0  0  0  0  0  0
   40.9650   23.7720   34.3620 Br  0  0  0  0  0  0  0  0  0  0  0  0
   39.7490   23.9560   35.8200 C   0  0  0  0  0  0  0  0  0  0  0  0
   38.9680   25.0910   35.8330 C   0  0  0  0  0  0  0  0  0  0  0  0
   38.0450   25.3140   36.8630 C   0  0  0  0  0  0  0  0  0  0  0  0
   37.3900   26.1690   36.9610 H   0  0  0  0  0  0  0  0  0  0  0  0
   38.0060   24.3060   37.8280 C   0  0  0  0  0  0  0  0  0  0  0  0
   37.2850   24.4640   38.6470 H   0  0  0  0  0  0  0  0  0  0  0  0
   38.7610   23.1530   37.8650 C   0  0  0  0  0  3  0  0  0  0  0  0
   39.6460   23.0080   36.8160 C   0  0  0  0  0  3  0  0  0  0  0  0
  1  5  1  0  0  0  0
  2  1  2  0  0  0  0
  2  3  1  0  0  0  0
  3  7  1  0  0  0  0
  3  4  2  0  0  0  0
  4 19  1  0  0  0  0
  5  4  1  0  0  0  0
  6  2  1  0  0  0  0
  8  1  1  0  0  0  0
  9  8  2  0  0  0  0
 10  8  1  0  0  0  0
 10 11  1  0  0  0  0
 11 16  1  0  0  0  0
 12 11  2  0  0  0  0
 12 17  1  0  0  0  0
 13 12  1  0  0  0  0
 14 15  1  0  0  0  0
 14 13  2  0  0  0  0
 15 10  2  0  0  0  0
 18 14  1  0  0  0  0
 19 20  2  0  0  0  0
 19 23  1  0  0  0  0
 21 22  1  0  0  0  0
 22 23  2  0  0  0  0
 22 29  1  0  0  0  0
 23 24  1  0  0  0  0
 24 25  1  0  0  0  0
 24 26  2  0  0  0  0
 26 28  1  0  0  0  0
 26 27  1  0  0  0  0
 29 28  2  0  0  0  0
M  END
>  <minimizedAffinity>
-5.42893457

$$$$

 OpenBabel03272507313D

 29 31  0  0  0  0  0  0  0  0999 V2000
   37.1880   27.2560   34.3110 C   0  0  0  0  0  0  0  0  0  0  0  0
   38.0790   27.5000   35.3100 C   0  0  0  0  0  0  0  0  0  0  0  0
   38.6660   26.2690   35.6450 C   0  0  0  0  0  0  0  0  0  0  0  0
   38.0730   25.3390   34.7980 C   0  0  0  0  0  0  0  0  0  0  0  0
   37.2220   25.9800   34.0470 O   0  0  0  0  0  0  0  0  0  0  0  0
   38.3380   28.4290   35.8040 H   0  0  0  0  0  0  0  0  0  0  0  0
   39.4270   26.1190   36.4150 H   0  0  0  0  0  0  0  0  0  0  0  0
   36.3880   28.3140   33.7110 C   0  0  0  0  0  0  0  0  0  0  0  0
   35.5220   28.8690   34.4060 O   0  0  0  0  0  0  0  0  0  0  0  0
   36.6610   28.6450   32.3340 C   0  0  0  0  0  0  0  0  0  0  0  0
   37.5940   27.8720   31.6600 C   0  0  0  0  0  0  0  0  0  0  0  0
   37.9070   28.1290   30.3400 C   0  0  0  0  0  0  0  0  0  0  0  0
   37.2530   29.1650   29.7560 N   0  0  0  0  0  0  0  0  0  0  0  0
   36.3420   29.9260   30.4020 C   0  0  0  0  0  0  0  0  0  0  0  0
   36.0610   29.6480   31.6910 N   0  0  0  0  0  0  0  0  0  0  0  0
   38.1000   27.0440   32.1650 H   0  0  0  0  0  0  0  0  0  0  0  0
   38.6150   27.5760   29.7560 H   0  0  0  0  0  0  0  0  0  0  0  0
   35.8550   30.7420   29.8760 H   0  0  0  0  0  0  0  0  0  0  0  0
   38.3770   23.9020   34.7850 C   0  0  0  0  0  0  0  0  0  0  0  0
   37.6940   23.1260   34.0620 O   0  0  0  0  0  0  0  0  0  0  0  0
   37.6840   23.2460   37.7790 Br  0  0  0  0  0  0  0  0  0  0  0  0
   39.4010   23.0880   36.9630 C   0  0  0  0  0  0  0  0  0  0  0  0
   39.4840   23.4300   35.6300 C   0  0  0  0  0  0  0  0  0  0  0  0
   40.7030   23.3470   34.9440 C   0  0  0  0  0  0  0  0  0  0  0  0
   40.8700   23.5920   33.9050 H   0  0  0  0  0  0  0  0  0  0  0  0
   41.7720   22.9020   35.7240 C   0  0  0  0  0  0  0  0  0  0  0  0
   42.7400   22.8300   35.2020 H   0  0  0  0  0  0  0  0  0  0  0  0
   41.7460   22.5480   37.0570 C   0  0  0  0  0  3  0  0  0  0  0  0
   40.5100   22.6570   37.6590 C   0  0  0  0  0  3  0  0  0  0  0  0
  1  2  2  0  0  0  0
  2  3  1  0  0  0  0
  2  6  1  0  0  0  0
  3  7  1  0  0  0  0
  4  3  2  0  0  0  0
  5  1  1  0  0  0  0
  5  4  1  0  0  0  0
  8  1  1  0  0  0  0
  8  9  2  0  0  0  0
 10  8  1  0  0  0  0
 11 16  1  0  0  0  0
 11 10  2  0  0  0  0
 12 11  1  0  0  0  0
 13 12  2  0  0  0  0
 13 14  1  0  0  0  0
 14 15  2  0  0  0  0
 15 10  1  0  0  0  0
 17 12  1  0  0  0  0
 18 14  1  0  0  0  0
 19  4  1  0  0  0  0
 19 23  1  0  0  0  0
 20 19  2  0  0  0  0
 22 29  1  0  0  0  0
 22 21  1  0  0  0  0
 23 22  2  0  0  0  0
 24 23  1  0  0  0  0
 24 26  2  0  0  0  0
 25 24  1  0  0  0  0
 26 28  1  0  0  0  0
 27 26  1  0  0  0  0
 28 29  2  0  0  0  0
M  END
>  <minimizedAffinity>
-5.32775354

$$$$

 OpenBabel03272507313D

 29 31  0  0  0  0  0  0  0  0999 V2000
   37.5420   26.2950   34.1760 C   0  0  0  0  0  0  0  0  0  0  0  0
   37.0680   27.4020   33.5440 C   0  0  0  0  0  0  0  0  0  0  0  0
   36.5000   26.9700   32.3340 C   0  0  0  0  0  0  0  0  0  0  0  0
   36.6740   25.5910   32.3200 C   0  0  0  0  0  0  0  0  0  0  0  0
   37.2870   25.2620   33.4220 O   0  0  0  0  0  0  0  0  0  0  0  0
   37.0890   28.4420   33.8470 H   0  0  0  0  0  0  0  0  0  0  0  0
   36.0290   27.6180   31.5890 H   0  0  0  0  0  0  0  0  0  0  0  0
   38.2020   26.3650   35.4720 C   0  0  0  0  0  0  0  0  0  0  0  0
   38.4080   27.4830   35.9730 O   0  0  0  0  0  0  0  0  0  0  0  0
   38.5760   25.1160   36.0890 C   0  0  0  0  0  0  0  0  0  0  0  0
   39.7040   24.4720   35.6060 C   0  0  0  0  0  0  0  0  0  0  0  0
   40.1240   23.2740   36.1470 C   0  0  0  0  0  0  0  0  0  0  0  0
   39.3750   22.7770   37.1650 N   0  0  0  0  0  0  0  0  0  0  0  0
   38.2730   23.3940   37.6450 C   0  0  0  0  0  0  0  0  0  0  0  0
   37.8910   24.5640   37.0920 N   0  0  0  0  0  0  0  0  0  0  0  0
   40.2830   24.9050   34.7840 H   0  0  0  0  0  0  0  0  0  0  0  0
   40.9840   22.7200   35.8270 H   0  0  0  0  0  0  0  0  0  0  0  0
   37.7180   22.9420   38.4610 H   0  0  0  0  0  0  0  0  0  0  0  0
   36.2320   24.7010   31.2380 C   0  0  0  0  0  0  0  0  0  0  0  0
   35.1120   24.8930   30.6900 O   0  0  0  0  0  0  0  0  0  0  0  0
   35.4200   21.8020   32.1420 Br  0  0  0  0  0  0  0  0  0  0  0  0
   36.9670   22.2710   31.1290 C   0  0  0  0  0  0  0  0  0  0  0  0
   37.1340   23.6080   30.8410 C   0  0  0  0  0  0  0  0  0  0  0  0
   38.2390   24.0500   30.1020 C   0  0  0  0  0  0  0  0  0  0  0  0
   38.4580   25.0720   29.8270 H   0  0  0  0  0  0  0  0  0  0  0  0
   39.1120   23.0330   29.7110 C   0  0  0  0  0  0  0  0  0  0  0  0
   39.9890   23.3610   29.1300 H   0  0  0  0  0  0  0  0  0  0  0  0
   38.9960   21.6840   29.9720 C   0  0  0  0  0  3  0  0  0  0  0  0
   37.8810   21.3310   30.7040 C   0  0  0  0  0  3  0  0  0  0  0  0
  1  8  1  0  0  0  0
  2  6  1  0  0  0  0
  2  1  2  0  0  0  0
  3  2  1  0  0  0  0
  4  3  2  0  0  0  0
  4  5  1  0  0  0  0
  5  1  1  0  0  0  0
  7  3  1  0  0  0  0
  8  9  2  0  0  0  0
  8 10  1  0  0  0  0
 10 15  1  0  0  0  0
 11 10  2  0  0  0  0
 11 12  1  0  0  0  0
 12 13  2  0  0  0  0
 13 14  1  0  0  0  0
 14 18  1  0  0  0  0
 15 14  2  0  0  0  0
 16 11  1  0  0  0  0
 17 12  1  0  0  0  0
 19  4  1  0  0  0  0
 20 19  2  0  0  0  0
 22 21  1  0  0  0  0
 23 22  1  0  0  0  0
 23 19  1  0  0  0  0
 24 23  2  0  0  0  0
 25 24  1  0  0  0  0
 26 28  2  0  0  0  0
 26 24  1  0  0  0  0
 27 26  1  0  0  0  0
 28 29  1  0  0  0  0
 29 22  2  0  0  0  0
M  END
>  <minimizedAffinity>
-5.30933809

$$$$

 OpenBabel03272507313D

 29 31  0  0  0  0  0  0  0  0999 V2000
   36.9240   27.7260   34.1560 C   0  0  0  0  0  0  0  0  0  0  0  0
   37.6390   27.8890   35.3020 C   0  0  0  0  0  0  0  0  0  0  0  0
   38.1930   26.6390   35.6200 C   0  0  0  0  0  0  0  0  0  0  0  0
   37.7640   25.7820   34.6130 C   0  0  0  0  0  0  0  0  0  0  0  0
   37.0290   26.4780   33.7930 O   0  0  0  0  0  0  0  0  0  0  0  0
   37.7950   28.7740   35.9080 H   0  0  0  0  0  0  0  0  0  0  0  0
   38.8260   26.4290   36.4870 H   0  0  0  0  0  0  0  0  0  0  0  0
   36.2060   28.8250   33.5270 C   0  0  0  0  0  0  0  0  0  0  0  0
   36.4390   29.0810   32.3350 O   0  0  0  0  0  0  0  0  0  0  0  0
   35.2620   29.5480   34.3450 C   0  0  0  0  0  0  0  0  0  0  0  0
   35.7230   30.6670   35.0210 C   0  0  0  0  0  0  0  0  0  0  0  0
   34.8780   31.4090   35.8210 C   0  0  0  0  0  0  0  0  0  0  0  0
   33.5920   30.9820   35.9010 N   0  0  0  0  0  0  0  0  0  0  0  0
   33.1310   29.8930   35.2470 C   0  0  0  0  0  0  0  0  0  0  0  0
   33.9840   29.1900   34.4740 N   0  0  0  0  0  0  0  0  0  0  0  0
   36.7670   30.9800   34.9310 H   0  0  0  0  0  0  0  0  0  0  0  0
   35.1620   32.2830   36.3730 H   0  0  0  0  0  0  0  0  0  0  0  0
   32.0890   29.6040   35.3540 H   0  0  0  0  0  0  0  0  0  0  0  0
   38.1000   24.3540   34.5260 C   0  0  0  0  0  0  0  0  0  0  0  0
   37.6210   23.6560   33.5900 O   0  0  0  0  0  0  0  0  0  0  0  0
   41.1410   24.1180   33.7700 Br  0  0  0  0  0  0  0  0  0  0  0  0
   40.3540   23.6100   35.4310 C   0  0  0  0  0  0  0  0  0  0  0  0
   38.9940   23.7990   35.5540 C   0  0  0  0  0  0  0  0  0  0  0  0
   38.3260   23.4560   36.7360 C   0  0  0  0  0  0  0  0  0  0  0  0
   37.2680   23.5650   36.9280 H   0  0  0  0  0  0  0  0  0  0  0  0
   39.1520   22.9260   37.7290 C   0  0  0  0  0  0  0  0  0  0  0  0
   38.6440   22.6490   38.6670 H   0  0  0  0  0  0  0  0  0  0  0  0
   40.5130   22.7140   37.6610 C   0  0  0  0  0  3  0  0  0  0  0  0
   41.0950   23.0780   36.4650 C   0  0  0  0  0  3  0  0  0  0  0  0
  1  2  2  0  0  0  0
  2  3  1  0  0  0  0
  2  6  1  0  0  0  0
  3  7  1  0  0  0  0
  4  3  2  0  0  0  0
  5  1  1  0  0  0  0
  5  4  1  0  0  0  0
  8  1  1  0  0  0  0
  8 10  1  0  0  0  0
  9  8  2  0  0  0  0
 10 15  2  0  0  0  0
 10 11  1  0  0  0  0
 11 12  2  0  0  0  0
 12 13  1  0  0  0  0
 12 17  1  0  0  0  0
 14 18  1  0  0  0  0
 14 13  2  0  0  0  0
 15 14  1  0  0  0  0
 16 11  1  0  0  0  0
 19  4  1  0  0  0  0
 19 23  1  0  0  0  0
 20 19  2  0  0  0  0
 21 22  1  0  0  0  0
 22 23  2  0  0  0  0
 22 29  1  0  0  0  0
 23 24  1  0  0  0  0
 24 25  1  0  0  0  0
 24 26  2  0  0  0  0
 26 27  1  0  0  0  0
 28 26  1  0  0  0  0
 29 28  2  0  0  0  0
M  END
>  <minimizedAffinity>
-5.27007627

$$$$

 OpenBabel03272507313D

 29 31  0  0  0  0  0  0  0  0999 V2000
   36.5040   25.1900   32.0320 C   0  0  0  0  0  0  0  0  0  0  0  0
   35.4300   24.7780   31.3070 C   0  0  0  0  0  0  0  0  0  0  0  0
   35.6620   23.4380   30.9550 C   0  0  0  0  0  0  0  0  0  0  0  0
   36.8980   23.1240   31.5110 C   0  0  0  0  0  0  0  0  0  0  0  0
   37.3340   24.1880   32.1230 O   0  0  0  0  0  0  0  0  0  0  0  0
   34.5360   25.3170   31.0150 H   0  0  0  0  0  0  0  0  0  0  0  0
   34.9860   22.8120   30.3690 H   0  0  0  0  0  0  0  0  0  0  0  0
   36.6070   26.5400   32.5670 C   0  0  0  0  0  0  0  0  0  0  0  0
   35.8820   27.4260   32.0850 O   0  0  0  0  0  0  0  0  0  0  0  0
   37.5560   26.7560   33.6310 C   0  0  0  0  0  0  0  0  0  0  0  0
   38.8950   26.8650   33.2870 C   0  0  0  0  0  0  0  0  0  0  0  0
   39.8600   27.0730   34.2520 C   0  0  0  0  0  0  0  0  0  0  0  0
   39.4230   27.1630   35.5340 N   0  0  0  0  0  0  0  0  0  0  0  0
   38.1210   27.0580   35.8820 C   0  0  0  0  0  0  0  0  0  0  0  0
   37.2040   26.8550   34.9140 N   0  0  0  0  0  0  0  0  0  0  0  0
   39.2080   26.7870   32.2420 H   0  0  0  0  0  0  0  0  0  0  0  0
   40.9110   27.1670   34.0620 H   0  0  0  0  0  0  0  0  0  0  0  0
   37.8380   27.1390   36.9280 H   0  0  0  0  0  0  0  0  0  0  0  0
   37.5580   21.8170   31.4020 C   0  0  0  0  0  0  0  0  0  0  0  0
   38.7400   21.7490   30.9620 O   0  0  0  0  0  0  0  0  0  0  0  0
   37.4020   19.4490   29.3400 Br  0  0  0  0  0  0  0  0  0  0  0  0
   36.6040   19.4860   31.0720 C   0  0  0  0  0  0  0  0  0  0  0  0
   36.7970   20.6290   31.8170 C   0  0  0  0  0  0  0  0  0  0  0  0
   36.2490   20.7500   33.1010 C   0  0  0  0  0  0  0  0  0  0  0  0
   36.3430   21.6020   33.7590 H   0  0  0  0  0  0  0  0  0  0  0  0
   35.5200   19.6360   33.5210 C   0  0  0  0  0  0  0  0  0  0  0  0
   35.0800   19.7110   34.5290 H   0  0  0  0  0  0  0  0  0  0  0  0
   35.2940   18.4700   32.8200 C   0  0  0  0  0  3  0  0  0  0  0  0
   35.8670   18.4300   31.5660 C   0  0  0  0  0  3  0  0  0  0  0  0
  1  5  1  0  0  0  0
  1  8  1  0  0  0  0
  2  1  2  0  0  0  0
  3  2  1  0  0  0  0
  3  4  2  0  0  0  0
  4  5  1  0  0  0  0
  6  2  1  0  0  0  0
  7  3  1  0  0  0  0
  8 10  1  0  0  0  0
  9  8  2  0  0  0  0
 10 15  1  0  0  0  0
 11 10  2  0  0  0  0
 11 12  1  0  0  0  0
 12 13  2  0  0  0  0
 13 14  1  0  0  0  0
 14 18  1  0  0  0  0
 15 14  2  0  0  0  0
 16 11  1  0  0  0  0
 17 12  1  0  0  0  0
 19  4  1  0  0  0  0
 19 23  1  0  0  0  0
 20 19  2  0  0  0  0
 21 22  1  0  0  0  0
 22 29  2  0  0  0  0
 22 23  1  0  0  0  0
 23 24  2  0  0  0  0
 24 26  1  0  0  0  0
 24 25  1  0  0  0  0
 26 27  1  0  0  0  0
 28 26  2  0  0  0  0
 29 28  1  0  0  0  0
M  END
>  <minimizedAffinity>
-5.24123096

$$$$

 OpenBabel03272507313D

 29 31  0  0  0  0  0  0  0  0999 V2000
   36.7120   27.7490   34.0120 C   0  0  0  0  0  0  0  0  0  0  0  0
   37.5800   28.1070   34.9960 C   0  0  0  0  0  0  0  0  0  0  0  0
   38.2260   26.9330   35.4190 C   0  0  0  0  0  0  0  0  0  0  0  0
   37.6880   25.9180   34.6360 C   0  0  0  0  0  0  0  0  0  0  0  0
   36.8120   26.4600   33.8380 O   0  0  0  0  0  0  0  0  0  0  0  0
   37.7870   29.0800   35.4250 H   0  0  0  0  0  0  0  0  0  0  0  0
   38.9870   26.8770   36.2010 H   0  0  0  0  0  0  0  0  0  0  0  0
   35.8640   28.7200   33.3360 C   0  0  0  0  0  0  0  0  0  0  0  0
   34.8310   29.1060   33.9080 O   0  0  0  0  0  0  0  0  0  0  0  0
   36.2880   29.1690   32.0330 C   0  0  0  0  0  0  0  0  0  0  0  0
   36.5810   28.2030   31.0830 C   0  0  0  0  0  0  0  0  0  0  0  0
   36.9920   28.5570   29.8140 C   0  0  0  0  0  0  0  0  0  0  0  0
   37.0890   29.8870   29.5600 N   0  0  0  0  0  0  0  0  0  0  0  0
   36.8070   30.8390   30.4770 C   0  0  0  0  0  0  0  0  0  0  0  0
   36.4080   30.4570   31.7080 N   0  0  0  0  0  0  0  0  0  0  0  0
   36.4900   27.1400   31.3250 H   0  0  0  0  0  0  0  0  0  0  0  0
   37.2350   27.8680   29.0290 H   0  0  0  0  0  0  0  0  0  0  0  0
   36.9050   31.8880   30.2100 H   0  0  0  0  0  0  0  0  0  0  0  0
   38.0650   24.5010   34.7240 C   0  0  0  0  0  0  0  0  0  0  0  0
   37.9920   23.7700   33.6980 O   0  0  0  0  0  0  0  0  0  0  0  0
   41.0600   23.5650   34.9100 Br  0  0  0  0  0  0  0  0  0  0  0  0
   39.7840   23.5370   36.3280 C   0  0  0  0  0  0  0  0  0  0  0  0
   38.5190   23.9940   36.0290 C   0  0  0  0  0  0  0  0  0  0  0  0
   37.5130   24.0120   37.0040 C   0  0  0  0  0  0  0  0  0  0  0  0
   36.4960   24.3500   36.8680 H   0  0  0  0  0  0  0  0  0  0  0  0
   37.9160   23.5360   38.2530 C   0  0  0  0  0  0  0  0  0  0  0  0
   37.1390   23.5410   39.0340 H   0  0  0  0  0  0  0  0  0  0  0  0
   39.1640   23.0660   38.6070 C   0  0  0  0  0  3  0  0  0  0  0  0
   40.0970   23.0820   37.5910 C   0  0  0  0  0  3  0  0  0  0  0  0
  1  2  2  0  0  0  0
  2  3  1  0  0  0  0
  2  6  1  0  0  0  0
  3  7  1  0  0  0  0
  4 19  1  0  0  0  0
  4  3  2  0  0  0  0
  5  1  1  0  0  0  0
  5  4  1  0  0  0  0
  8  9  2  0  0  0  0
  8  1  1  0  0  0  0
 10  8  1  0  0  0  0
 11 16  1  0  0  0  0
 11 10  2  0  0  0  0
 12 11  1  0  0  0  0
 13 12  2  0  0  0  0
 13 14  1  0  0  0  0
 14 15  2  0  0  0  0
 15 10  1  0  0  0  0
 17 12  1  0  0  0  0
 18 14  1  0  0  0  0
 19 23  1  0  0  0  0
 20 19  2  0  0  0  0
 21 22  1  0  0  0  0
 22 29  1  0  0  0  0
 23 22  2  0  0  0  0
 23 24  1  0  0  0  0
 24 26  2  0  0  0  0
 25 24  1  0  0  0  0
 26 28  1  0  0  0  0
 26 27  1  0  0  0  0
 29 28  2  0  0  0  0
M  END
>  <minimizedAffinity>
-5.2402873

$$$$

 OpenBabel03272507313D

 29 31  0  0  0  0  0  0  0  0999 V2000
   37.7900   23.5960   33.5880 C   0  0  0  0  0  0  0  0  0  0  0  0
   37.3630   23.4780   32.3020 C   0  0  0  0  0  0  0  0  0  0  0  0
   37.4700   24.7500   31.7160 C   0  0  0  0  0  0  0  0  0  0  0  0
   37.9710   25.5730   32.7190 C   0  0  0  0  0  0  0  0  0  0  0  0
   38.1340   24.8390   33.7830 O   0  0  0  0  0  0  0  0  0  0  0  0
   36.9970   22.6110   31.7640 H   0  0  0  0  0  0  0  0  0  0  0  0
   37.2060   24.9950   30.6840 H   0  0  0  0  0  0  0  0  0  0  0  0
   37.8170   22.4650   34.5030 C   0  0  0  0  0  0  0  0  0  0  0  0
   37.4340   21.3580   34.0900 O   0  0  0  0  0  0  0  0  0  0  0  0
   38.2920   22.7120   35.8420 C   0  0  0  0  0  0  0  0  0  0  0  0
   39.6060   22.3740   36.1310 C   0  0  0  0  0  0  0  0  0  0  0  0
   40.1310   22.5820   37.3900 C   0  0  0  0  0  0  0  0  0  0  0  0
   39.2960   23.1300   38.3100 N   0  0  0  0  0  0  0  0  0  0  0  0
   38.0140   23.4640   38.0410 C   0  0  0  0  0  0  0  0  0  0  0  0
   37.5330   23.2460   36.8000 N   0  0  0  0  0  0  0  0  0  0  0  0
   40.2490   21.9340   35.3630 H   0  0  0  0  0  0  0  0  0  0  0  0
   41.1340   22.3470   37.6860 H   0  0  0  0  0  0  0  0  0  0  0  0
   37.3980   23.8990   38.8230 H   0  0  0  0  0  0  0  0  0  0  0  0
   38.2500   27.0070   32.5650 C   0  0  0  0  0  0  0  0  0  0  0  0
   39.4190   27.3880   32.2790 O   0  0  0  0  0  0  0  0  0  0  0  0
   37.1340   28.4140   29.9860 Br  0  0  0  0  0  0  0  0  0  0  0  0
   36.4980   28.6640   31.7670 C   0  0  0  0  0  0  0  0  0  0  0  0
   37.1340   27.9450   32.7560 C   0  0  0  0  0  0  0  0  0  0  0  0
   36.7380   28.0620   34.0950 C   0  0  0  0  0  0  0  0  0  0  0  0
   37.1710   27.5430   34.9380 H   0  0  0  0  0  0  0  0  0  0  0  0
   35.6790   28.9470   34.3050 C   0  0  0  0  0  0  0  0  0  0  0  0
   35.3530   29.0540   35.3530 H   0  0  0  0  0  0  0  0  0  0  0  0
   35.0090   29.6910   33.3570 C   0  0  0  0  0  3  0  0  0  0  0  0
   35.4590   29.5190   32.0640 C   0  0  0  0  0  3  0  0  0  0  0  0
  1  5  1  0  0  0  0
  1  8  1  0  0  0  0
  2  1  2  0  0  0  0
  3  2  1  0  0  0  0
  3  4  2  0  0  0  0
  4  5  1  0  0  0  0
  6  2  1  0  0  0  0
  7  3  1  0  0  0  0
  8 10  1  0  0  0  0
  9  8  2  0  0  0  0
 10 11  2  0  0  0  0
 10 15  1  0  0  0  0
 11 12  1  0  0  0  0
 12 17  1  0  0  0  0
 12 13  2  0  0  0  0
 14 13  1  0  0  0  0
 14 18  1  0  0  0  0
 15 14  2  0  0  0  0
 16 11  1  0  0  0  0
 19  4  1  0  0  0  0
 19 23  1  0  0  0  0
 20 19  2  0  0  0  0
 21 22  1  0  0  0  0
 22 29  2  0  0  0  0
 22 23  1  0  0  0  0
 23 24  2  0  0  0  0
 24 26  1  0  0  0  0
 24 25  1  0  0  0  0
 26 27  1  0  0  0  0
 28 26  2  0  0  0  0
 29 28  1  0  0  0  0
M  END
>  <minimizedAffinity>
-5.21447992

$$$$
