
 OpenBabel03272505483D

 28 30  0  0  0  0  0  0  0  0999 V2000
   38.8200   25.7210   34.9940 C   0  0  0  0  0  0  0  0  0  0  0  0
   38.9710   27.1700   35.2430 C   0  0  0  0  0  0  0  0  0  0  0  0
   40.1020   26.3980   34.6210 C   0  0  0  0  0  0  0  0  0  0  0  0
   38.4600   27.8880   34.5850 H   0  0  0  0  0  0  0  0  0  0  0  0
   39.2110   27.4720   36.3040 H   0  0  0  0  0  0  0  0  0  0  0  0
   41.0130   26.1520   35.2020 H   0  0  0  0  0  0  0  0  0  0  0  0
   40.3110   26.4940   33.5350 H   0  0  0  0  0  0  0  0  0  0  0  0
   36.4760   25.5780   32.1380 C   0  0  0  0  0  0  0  0  0  0  0  0
   36.4730   24.2070   31.8120 C   0  0  0  0  0  0  0  0  0  0  0  0
   37.2790   23.3390   32.5840 C   0  0  0  0  0  0  0  0  0  0  0  0
   38.0150   23.8620   33.5980 N   0  0  0  0  0  0  0  0  0  0  0  0
   37.9940   25.2030   33.8870 C   0  0  0  0  0  0  0  0  0  0  0  0
   37.2330   26.0520   33.1660 N   0  0  0  0  0  0  0  0  0  0  0  0
   35.8430   26.1910   31.5160 H   0  0  0  0  0  0  0  0  0  0  0  0
   35.8990   23.7840   31.0180 H   0  0  0  0  0  0  0  0  0  0  0  0
   37.3490   22.2780   32.4200 H   0  0  0  0  0  0  0  0  0  0  0  0
   38.8250   24.7920   36.1730 C   0  0  0  0  0  0  0  0  0  0  0  0
   37.8800   24.8790   37.1410 C   0  0  0  0  0  0  0  0  0  0  0  0
   37.8880   24.0100   38.2250 C   0  0  0  0  0  0  0  0  0  0  0  0
   38.8950   23.0510   38.2860 C   0  0  0  0  0  0  0  0  0  0  0  0
   39.8640   22.9680   37.2870 C   0  0  0  0  0  0  0  0  0  0  0  0
   39.7850   23.8440   36.2740 N   0  0  0  0  0  0  0  0  0  0  0  0
   37.0650   25.5660   37.2510 H   0  0  0  0  0  0  0  0  0  0  0  0
   37.1870   23.9880   39.0490 H   0  0  0  0  0  0  0  0  0  0  0  0
   38.9590   22.3360   39.1100 H   0  0  0  0  0  0  0  0  0  0  0  0
   40.9140   21.9250   37.4080 C   0  0  0  0  0  2  0  0  0  0  0  0
   42.1450   22.2540   36.6370 C   0  0  0  0  0  2  0  0  0  0  0  0
   42.8990   21.4780   36.8720 H   0  0  0  0  0  0  0  0  0  0  0  0
  1  2  1  0  0  0  0
  1 17  1  0  0  0  0
  2  5  1  0  0  0  0
  3  1  1  0  0  0  0
  3  6  1  0  0  0  0
  3  2  1  0  0  0  0
  4  2  1  0  0  0  0
  7  3  1  0  0  0  0
  8 13  1  0  0  0  0
  9  8  2  0  0  0  0
  9 10  1  0  0  0  0
 10 11  2  0  0  0  0
 11 12  1  0  0  0  0
 12  1  1  0  0  0  0
 13 12  2  0  0  0  0
 14  8  1  0  0  0  0
 15  9  1  0  0  0  0
 16 10  1  0  0  0  0
 17 22  2  0  0  0  0
 17 18  1  0  0  0  0
 18 23  1  0  0  0  0
 18 19  2  0  0  0  0
 19 20  1  0  0  0  0
 19 24  1  0  0  0  0
 20 25  1  0  0  0  0
 21 26  1  0  0  0  0
 21 20  2  0  0  0  0
 22 21  1  0  0  0  0
 27 28  1  0  0  0  0
 27 26  1  0  0  0  0
M  END
>  <minimizedAffinity>
-5.04266262

$$$$

 OpenBabel03272505483D

 28 30  0  0  0  0  0  0  0  0999 V2000
   38.6040   23.3360   36.7320 C   0  0  0  0  0  0  0  0  0  0  0  0
   39.7330   22.7910   37.5160 C   0  0  0  0  0  0  0  0  0  0  0  0
   38.5160   23.3150   38.2260 C   0  0  0  0  0  0  0  0  0  0  0  0
   39.8850   21.7030   37.5600 H   0  0  0  0  0  0  0  0  0  0  0  0
   40.6200   23.4760   37.6550 H   0  0  0  0  0  0  0  0  0  0  0  0
   38.5420   24.2820   38.7670 H   0  0  0  0  0  0  0  0  0  0  0  0
   37.7810   22.6090   38.6670 H   0  0  0  0  0  0  0  0  0  0  0  0
   35.7840   21.0670   35.9750 C   0  0  0  0  0  0  0  0  0  0  0  0
   35.9340   20.8420   34.5930 C   0  0  0  0  0  0  0  0  0  0  0  0
   37.0110   21.4740   33.9290 C   0  0  0  0  0  0  0  0  0  0  0  0
   37.8470   22.2640   34.6510 N   0  0  0  0  0  0  0  0  0  0  0  0
   37.6710   22.4600   35.9970 C   0  0  0  0  0  0  0  0  0  0  0  0
   36.6520   21.8690   36.6530 N   0  0  0  0  0  0  0  0  0  0  0  0
   34.9460   20.5590   36.4260 H   0  0  0  0  0  0  0  0  0  0  0  0
   35.2830   20.2240   34.0150 H   0  0  0  0  0  0  0  0  0  0  0  0
   37.2150   21.3700   32.8790 H   0  0  0  0  0  0  0  0  0  0  0  0
   38.7840   24.6610   36.0500 C   0  0  0  0  0  0  0  0  0  0  0  0
   37.7780   25.5680   35.9980 C   0  0  0  0  0  0  0  0  0  0  0  0
   37.9560   26.7950   35.3710 C   0  0  0  0  0  0  0  0  0  0  0  0
   39.1970   27.0620   34.7990 C   0  0  0  0  0  0  0  0  0  0  0  0
   40.2270   26.1240   34.8570 C   0  0  0  0  0  0  0  0  0  0  0  0
   39.9720   24.9640   35.4810 N   0  0  0  0  0  0  0  0  0  0  0  0
   36.7720   25.5060   36.3630 H   0  0  0  0  0  0  0  0  0  0  0  0
   37.2280   27.5890   35.2720 H   0  0  0  0  0  0  0  0  0  0  0  0
   39.4040   28.0080   34.2920 H   0  0  0  0  0  0  0  0  0  0  0  0
   41.5270   26.4670   34.2270 C   0  0  0  0  0  2  0  0  0  0  0  0
   41.3890   27.4550   33.1220 C   0  0  0  0  0  2  0  0  0  0  0  0
   42.4110   27.7240   32.7890 H   0  0  0  0  0  0  0  0  0  0  0  0
  1  2  1  0  0  0  0
  1  3  1  0  0  0  0
  2  4  1  0  0  0  0
  2  5  1  0  0  0  0
  2  3  1  0  0  0  0
  3  7  1  0  0  0  0
  3  6  1  0  0  0  0
  8 14  1  0  0  0  0
  8 13  1  0  0  0  0
  9  8  2  0  0  0  0
 10  9  1  0  0  0  0
 10 11  2  0  0  0  0
 11 12  1  0  0  0  0
 12 13  2  0  0  0  0
 12  1  1  0  0  0  0
 15  9  1  0  0  0  0
 16 10  1  0  0  0  0
 17  1  1  0  0  0  0
 18 17  1  0  0  0  0
 18 23  1  0  0  0  0
 19 18  2  0  0  0  0
 20 21  2  0  0  0  0
 20 19  1  0  0  0  0
 21 22  1  0  0  0  0
 22 17  2  0  0  0  0
 24 19  1  0  0  0  0
 25 20  1  0  0  0  0
 26 21  1  0  0  0  0
 27 26  1  0  0  0  0
 28 27  1  0  0  0  0
M  END
>  <minimizedAffinity>
-4.96635342

$$$$

 OpenBabel03272505483D

 28 30  0  0  0  0  0  0  0  0999 V2000
   38.5830   23.3610   36.6460 C   0  0  0  0  0  0  0  0  0  0  0  0
   39.6460   22.8300   37.5250 C   0  0  0  0  0  0  0  0  0  0  0  0
   38.4250   23.4670   38.1310 C   0  0  0  0  0  0  0  0  0  0  0  0
   39.7390   21.7420   37.6640 H   0  0  0  0  0  0  0  0  0  0  0  0
   40.5590   23.4810   37.6540 H   0  0  0  0  0  0  0  0  0  0  0  0
   38.4760   24.4720   38.5930 H   0  0  0  0  0  0  0  0  0  0  0  0
   37.6360   22.8340   38.5890 H   0  0  0  0  0  0  0  0  0  0  0  0
   36.9350   21.4250   33.9610 C   0  0  0  0  0  0  0  0  0  0  0  0
   35.8770   20.7940   34.6430 C   0  0  0  0  0  0  0  0  0  0  0  0
   35.7360   21.0430   36.0280 C   0  0  0  0  0  0  0  0  0  0  0  0
   36.6220   21.8750   36.6340 N   0  0  0  0  0  0  0  0  0  0  0  0
   37.6410   22.4730   35.9370 C   0  0  0  0  0  0  0  0  0  0  0  0
   37.7970   22.2510   34.6170 N   0  0  0  0  0  0  0  0  0  0  0  0
   36.9930   21.1970   32.9090 H   0  0  0  0  0  0  0  0  0  0  0  0
   35.1750   20.1380   34.1790 H   0  0  0  0  0  0  0  0  0  0  0  0
   34.9640   20.6140   36.6420 H   0  0  0  0  0  0  0  0  0  0  0  0
   38.8620   24.6160   35.8710 C   0  0  0  0  0  0  0  0  0  0  0  0
   40.0810   24.8500   35.3270 C   0  0  0  0  0  0  0  0  0  0  0  0
   40.3280   26.0110   34.6040 C   0  0  0  0  0  0  0  0  0  0  0  0
   39.2870   26.9240   34.4590 C   0  0  0  0  0  0  0  0  0  0  0  0
   38.0360   26.6760   35.0230 C   0  0  0  0  0  0  0  0  0  0  0  0
   37.8800   25.5320   35.7040 N   0  0  0  0  0  0  0  0  0  0  0  0
   40.9790   24.2680   35.3680 H   0  0  0  0  0  0  0  0  0  0  0  0
   41.2560   26.2990   34.1290 H   0  0  0  0  0  0  0  0  0  0  0  0
   39.4140   27.8560   33.9030 H   0  0  0  0  0  0  0  0  0  0  0  0
   36.9660   27.6880   34.8340 C   0  0  0  0  0  2  0  0  0  0  0  0
   36.6560   27.9370   33.3990 C   0  0  0  0  0  2  0  0  0  0  0  0
   35.7830   28.6190   33.3630 H   0  0  0  0  0  0  0  0  0  0  0  0
  1  2  1  0  0  0  0
  1  3  1  0  0  0  0
  2  5  1  0  0  0  0
  2  4  1  0  0  0  0
  2  3  1  0  0  0  0
  3  7  1  0  0  0  0
  3  6  1  0  0  0  0
  8 13  2  0  0  0  0
  8  9  1  0  0  0  0
  9 10  2  0  0  0  0
 10 11  1  0  0  0  0
 10 16  1  0  0  0  0
 12 11  2  0  0  0  0
 12  1  1  0  0  0  0
 13 12  1  0  0  0  0
 14  8  1  0  0  0  0
 15  9  1  0  0  0  0
 17  1  1  0  0  0  0
 18 23  1  0  0  0  0
 18 17  2  0  0  0  0
 19 18  1  0  0  0  0
 20 19  2  0  0  0  0
 20 21  1  0  0  0  0
 21 22  2  0  0  0  0
 22 17  1  0  0  0  0
 24 19  1  0  0  0  0
 25 20  1  0  0  0  0
 26 21  1  0  0  0  0
 27 26  1  0  0  0  0
 28 27  1  0  0  0  0
M  END
>  <minimizedAffinity>
-4.90546131

$$$$

 OpenBabel03272505483D

 28 30  0  0  0  0  0  0  0  0999 V2000
   38.5000   24.0720   36.9730 C   0  0  0  0  0  0  0  0  0  0  0  0
   37.9490   24.1610   38.3420 C   0  0  0  0  0  0  0  0  0  0  0  0
   37.3590   23.1850   37.3620 C   0  0  0  0  0  0  0  0  0  0  0  0
   38.5110   23.7210   39.1800 H   0  0  0  0  0  0  0  0  0  0  0  0
   37.2470   25.0220   38.5440 H   0  0  0  0  0  0  0  0  0  0  0  0
   36.3690   23.3700   36.8990 H   0  0  0  0  0  0  0  0  0  0  0  0
   37.5840   22.1010   37.4500 H   0  0  0  0  0  0  0  0  0  0  0  0
   41.7620   23.2660   35.4310 C   0  0  0  0  0  0  0  0  0  0  0  0
   42.2060   22.1750   36.2050 C   0  0  0  0  0  0  0  0  0  0  0  0
   41.3730   21.7220   37.2540 C   0  0  0  0  0  0  0  0  0  0  0  0
   40.1910   22.3550   37.4670 N   0  0  0  0  0  0  0  0  0  0  0  0
   39.7900   23.4140   36.6930 C   0  0  0  0  0  0  0  0  0  0  0  0
   40.5660   23.8650   35.6870 N   0  0  0  0  0  0  0  0  0  0  0  0
   42.4380   23.5670   34.6470 H   0  0  0  0  0  0  0  0  0  0  0  0
   43.1330   21.6700   36.0480 H   0  0  0  0  0  0  0  0  0  0  0  0
   41.6160   20.8990   37.9030 H   0  0  0  0  0  0  0  0  0  0  0  0
   38.2280   25.2020   36.0220 C   0  0  0  0  0  0  0  0  0  0  0  0
   38.4380   26.4920   36.3840 C   0  0  0  0  0  0  0  0  0  0  0  0
   38.1910   27.5310   35.4960 C   0  0  0  0  0  0  0  0  0  0  0  0
   37.7210   27.2060   34.2260 C   0  0  0  0  0  0  0  0  0  0  0  0
   37.5070   25.8770   33.8620 C   0  0  0  0  0  0  0  0  0  0  0  0
   37.7710   24.9350   34.7780 N   0  0  0  0  0  0  0  0  0  0  0  0
   38.7680   26.9020   37.3180 H   0  0  0  0  0  0  0  0  0  0  0  0
   38.3230   28.5890   35.6760 H   0  0  0  0  0  0  0  0  0  0  0  0
   37.5080   27.9750   33.4790 H   0  0  0  0  0  0  0  0  0  0  0  0
   37.0050   25.5950   32.4930 C   0  0  0  0  0  2  0  0  0  0  0  0
   36.5550   26.8230   31.7800 C   0  0  0  0  0  2  0  0  0  0  0  0
   36.3000   26.5280   30.7430 H   0  0  0  0  0  0  0  0  0  0  0  0
  1  3  1  0  0  0  0
  1  2  1  0  0  0  0
  2  5  1  0  0  0  0
  2  4  1  0  0  0  0
  3  7  1  0  0  0  0
  3  2  1  0  0  0  0
  6  3  1  0  0  0  0
  8 13  2  0  0  0  0
  8  9  1  0  0  0  0
  9 10  2  0  0  0  0
 10 11  1  0  0  0  0
 10 16  1  0  0  0  0
 12  1  1  0  0  0  0
 12 11  2  0  0  0  0
 13 12  1  0  0  0  0
 14  8  1  0  0  0  0
 15  9  1  0  0  0  0
 17 18  1  0  0  0  0
 17  1  1  0  0  0  0
 18 23  1  0  0  0  0
 19 24  1  0  0  0  0
 19 18  2  0  0  0  0
 20 19  1  0  0  0  0
 21 20  2  0  0  0  0
 21 22  1  0  0  0  0
 22 17  2  0  0  0  0
 25 20  1  0  0  0  0
 26 21  1  0  0  0  0
 27 26  1  0  0  0  0
 28 27  1  0  0  0  0
M  END
>  <minimizedAffinity>
-4.88497257

$$$$

 OpenBabel03272505483D

 28 30  0  0  0  0  0  0  0  0999 V2000
   38.8100   25.9590   34.9310 C   0  0  0  0  0  0  0  0  0  0  0  0
   39.9140   26.9080   34.6740 C   0  0  0  0  0  0  0  0  0  0  0  0
   38.7170   27.3530   35.4670 C   0  0  0  0  0  0  0  0  0  0  0  0
   40.8540   26.8090   35.2370 H   0  0  0  0  0  0  0  0  0  0  0  0
   39.9350   27.3860   33.6510 H   0  0  0  0  0  0  0  0  0  0  0  0
   37.9620   28.0350   35.0270 H   0  0  0  0  0  0  0  0  0  0  0  0
   38.7880   27.4630   36.5700 H   0  0  0  0  0  0  0  0  0  0  0  0
   40.0830   23.0060   36.7560 C   0  0  0  0  0  0  0  0  0  0  0  0
   39.1430   22.8580   37.7940 C   0  0  0  0  0  0  0  0  0  0  0  0
   38.0710   23.7790   37.8570 C   0  0  0  0  0  0  0  0  0  0  0  0
   37.9980   24.7570   36.9180 N   0  0  0  0  0  0  0  0  0  0  0  0
   38.9320   24.8710   35.9200 C   0  0  0  0  0  0  0  0  0  0  0  0
   39.9630   24.0060   35.8390 N   0  0  0  0  0  0  0  0  0  0  0  0
   40.8770   22.2760   36.7590 H   0  0  0  0  0  0  0  0  0  0  0  0
   39.1900   22.0940   38.5370 H   0  0  0  0  0  0  0  0  0  0  0  0
   37.3000   23.7560   38.6060 H   0  0  0  0  0  0  0  0  0  0  0  0
   37.9180   25.5780   33.7840 C   0  0  0  0  0  0  0  0  0  0  0  0
   37.1950   26.5100   33.1160 C   0  0  0  0  0  0  0  0  0  0  0  0
   36.3780   26.1500   32.0510 C   0  0  0  0  0  0  0  0  0  0  0  0
   36.3250   24.8050   31.6950 C   0  0  0  0  0  0  0  0  0  0  0  0
   37.0710   23.8520   32.3880 C   0  0  0  0  0  0  0  0  0  0  0  0
   37.8350   24.2840   33.4030 N   0  0  0  0  0  0  0  0  0  0  0  0
   37.1090   27.5660   33.2800 H   0  0  0  0  0  0  0  0  0  0  0  0
   35.7630   26.8050   31.4500 H   0  0  0  0  0  0  0  0  0  0  0  0
   35.7040   24.4540   30.8680 H   0  0  0  0  0  0  0  0  0  0  0  0
   36.9720   22.4330   31.9620 C   0  0  0  0  0  2  0  0  0  0  0  0
   35.6800   22.1240   31.2890 C   0  0  0  0  0  2  0  0  0  0  0  0
   35.7420   21.0820   30.9170 H   0  0  0  0  0  0  0  0  0  0  0  0
  1  3  1  0  0  0  0
  1 12  1  0  0  0  0
  2  1  1  0  0  0  0
  2  4  1  0  0  0  0
  2  3  1  0  0  0  0
  3  7  1  0  0  0  0
  5  2  1  0  0  0  0
  6  3  1  0  0  0  0
  8 14  1  0  0  0  0
  8  9  1  0  0  0  0
  9 10  2  0  0  0  0
  9 15  1  0  0  0  0
 10 16  1  0  0  0  0
 11 10  1  0  0  0  0
 12 11  2  0  0  0  0
 13 12  1  0  0  0  0
 13  8  2  0  0  0  0
 17  1  1  0  0  0  0
 18 23  1  0  0  0  0
 18 17  2  0  0  0  0
 19 18  1  0  0  0  0
 20 19  2  0  0  0  0
 20 21  1  0  0  0  0
 21 22  2  0  0  0  0
 22 17  1  0  0  0  0
 24 19  1  0  0  0  0
 25 20  1  0  0  0  0
 26 21  1  0  0  0  0
 27 26  1  0  0  0  0
 28 27  1  0  0  0  0
M  END
>  <minimizedAffinity>
-4.7787838

$$$$

 OpenBabel03272505483D

 28 30  0  0  0  0  0  0  0  0999 V2000
   37.4660   27.4250   31.8400 C   0  0  0  0  0  0  0  0  0  0  0  0
   37.0650   28.7590   31.3460 C   0  0  0  0  0  0  0  0  0  0  0  0
   38.2720   28.0780   30.7610 C   0  0  0  0  0  0  0  0  0  0  0  0
   36.1940   28.8500   30.6800 H   0  0  0  0  0  0  0  0  0  0  0  0
   37.3580   29.6390   31.9900 H   0  0  0  0  0  0  0  0  0  0  0  0
   39.2960   28.4220   31.0060 H   0  0  0  0  0  0  0  0  0  0  0  0
   38.2160   27.6140   29.7540 H   0  0  0  0  0  0  0  0  0  0  0  0
   36.6860   23.8870   31.0980 C   0  0  0  0  0  0  0  0  0  0  0  0
   35.3100   23.9330   30.7980 C   0  0  0  0  0  0  0  0  0  0  0  0
   34.6600   25.1870   30.8510 C   0  0  0  0  0  0  0  0  0  0  0  0
   35.3860   26.2840   31.1860 N   0  0  0  0  0  0  0  0  0  0  0  0
   36.7250   26.2030   31.4720 C   0  0  0  0  0  0  0  0  0  0  0  0
   37.3690   25.0190   31.4290 N   0  0  0  0  0  0  0  0  0  0  0  0
   37.1270   22.9050   31.0420 H   0  0  0  0  0  0  0  0  0  0  0  0
   34.7290   23.0780   30.5340 H   0  0  0  0  0  0  0  0  0  0  0  0
   33.6150   25.3330   30.6400 H   0  0  0  0  0  0  0  0  0  0  0  0
   38.0670   27.3250   33.2120 C   0  0  0  0  0  0  0  0  0  0  0  0
   37.3290   27.5720   34.3220 C   0  0  0  0  0  0  0  0  0  0  0  0
   37.8910   27.4700   35.5890 C   0  0  0  0  0  0  0  0  0  0  0  0
   39.2320   27.1080   35.6810 C   0  0  0  0  0  0  0  0  0  0  0  0
   39.9840   26.8560   34.5340 C   0  0  0  0  0  0  0  0  0  0  0  0
   39.3660   26.9760   33.3510 N   0  0  0  0  0  0  0  0  0  0  0  0
   36.3070   27.8800   34.4180 H   0  0  0  0  0  0  0  0  0  0  0  0
   37.3990   27.6420   36.5370 H   0  0  0  0  0  0  0  0  0  0  0  0
   39.7350   27.0090   36.6460 H   0  0  0  0  0  0  0  0  0  0  0  0
   41.4100   26.4750   34.6970 C   0  0  0  0  0  2  0  0  0  0  0  0
   42.3010   27.1430   33.7080 C   0  0  0  0  0  2  0  0  0  0  0  0
   43.3440   26.8810   33.9740 H   0  0  0  0  0  0  0  0  0  0  0  0
  1 17  1  0  0  0  0
  2  1  1  0  0  0  0
  2  5  1  0  0  0  0
  3  6  1  0  0  0  0
  3  2  1  0  0  0  0
  3  1  1  0  0  0  0
  4  2  1  0  0  0  0
  7  3  1  0  0  0  0
  8 13  1  0  0  0  0
  9 10  1  0  0  0  0
  9  8  2  0  0  0  0
 10 11  2  0  0  0  0
 11 12  1  0  0  0  0
 12  1  1  0  0  0  0
 13 12  2  0  0  0  0
 14  8  1  0  0  0  0
 15  9  1  0  0  0  0
 16 10  1  0  0  0  0
 17 22  2  0  0  0  0
 17 18  1  0  0  0  0
 18 23  1  0  0  0  0
 18 19  2  0  0  0  0
 19 20  1  0  0  0  0
 19 24  1  0  0  0  0
 20 25  1  0  0  0  0
 21 26  1  0  0  0  0
 21 20  2  0  0  0  0
 22 21  1  0  0  0  0
 27 28  1  0  0  0  0
 27 26  1  0  0  0  0
M  END
>  <minimizedAffinity>
-4.67306519

$$$$

 OpenBabel03272505483D

 28 30  0  0  0  0  0  0  0  0999 V2000
   38.4930   24.0570   36.6730 C   0  0  0  0  0  0  0  0  0  0  0  0
   37.4590   23.1010   37.1240 C   0  0  0  0  0  0  0  0  0  0  0  0
   38.0220   24.1040   38.0930 C   0  0  0  0  0  0  0  0  0  0  0  0
   36.4120   23.2570   36.8240 H   0  0  0  0  0  0  0  0  0  0  0  0
   37.8140   22.0550   37.3580 H   0  0  0  0  0  0  0  0  0  0  0  0
   38.7260   23.7940   38.8900 H   0  0  0  0  0  0  0  0  0  0  0  0
   37.4230   24.9930   38.3850 H   0  0  0  0  0  0  0  0  0  0  0  0
   38.0210   27.5390   35.5230 C   0  0  0  0  0  0  0  0  0  0  0  0
   37.5600   27.3660   34.2030 C   0  0  0  0  0  0  0  0  0  0  0  0
   37.4120   26.0460   33.7180 C   0  0  0  0  0  0  0  0  0  0  0  0
   37.7190   25.0110   34.5420 N   0  0  0  0  0  0  0  0  0  0  0  0
   38.1650   25.2170   35.8230 C   0  0  0  0  0  0  0  0  0  0  0  0
   38.3150   26.4660   36.3080 N   0  0  0  0  0  0  0  0  0  0  0  0
   38.1150   28.5670   35.8370 H   0  0  0  0  0  0  0  0  0  0  0  0
   37.3170   28.1710   33.5460 H   0  0  0  0  0  0  0  0  0  0  0  0
   37.0680   25.8030   32.7290 H   0  0  0  0  0  0  0  0  0  0  0  0
   39.8750   23.5350   36.4010 C   0  0  0  0  0  0  0  0  0  0  0  0
   40.6690   24.1040   35.4620 C   0  0  0  0  0  0  0  0  0  0  0  0
   41.9490   23.6190   35.2220 C   0  0  0  0  0  0  0  0  0  0  0  0
   42.3870   22.5320   35.9740 C   0  0  0  0  0  0  0  0  0  0  0  0
   41.5630   21.9520   36.9380 C   0  0  0  0  0  0  0  0  0  0  0  0
   40.3430   22.4810   37.1080 N   0  0  0  0  0  0  0  0  0  0  0  0
   40.4740   24.9180   34.7930 H   0  0  0  0  0  0  0  0  0  0  0  0
   42.6650   23.9940   34.5030 H   0  0  0  0  0  0  0  0  0  0  0  0
   43.3820   22.1020   35.8370 H   0  0  0  0  0  0  0  0  0  0  0  0
   42.0870   20.7950   37.7080 C   0  0  0  0  0  2  0  0  0  0  0  0
   43.0720   19.9890   36.9350 C   0  0  0  0  0  2  0  0  0  0  0  0
   43.4800   19.2200   37.6200 H   0  0  0  0  0  0  0  0  0  0  0  0
  1  2  1  0  0  0  0
  1  3  1  0  0  0  0
  2  5  1  0  0  0  0
  2  3  1  0  0  0  0
  3  7  1  0  0  0  0
  3  6  1  0  0  0  0
  4  2  1  0  0  0  0
  8 14  1  0  0  0  0
  8 13  1  0  0  0  0
  9  8  2  0  0  0  0
 10  9  1  0  0  0  0
 10 11  2  0  0  0  0
 11 12  1  0  0  0  0
 12 13  2  0  0  0  0
 12  1  1  0  0  0  0
 15  9  1  0  0  0  0
 16 10  1  0  0  0  0
 17  1  1  0  0  0  0
 17 22  1  0  0  0  0
 18 17  2  0  0  0  0
 19 18  1  0  0  0  0
 19 20  2  0  0  0  0
 20 21  1  0  0  0  0
 21 22  2  0  0  0  0
 21 26  1  0  0  0  0
 23 18  1  0  0  0  0
 24 19  1  0  0  0  0
 25 20  1  0  0  0  0
 27 28  1  0  0  0  0
 27 26  1  0  0  0  0
M  END
>  <minimizedAffinity>
-4.63111162

$$$$

 OpenBabel03272505483D

 28 30  0  0  0  0  0  0  0  0999 V2000
   39.0770   25.7740   34.6330 C   0  0  0  0  0  0  0  0  0  0  0  0
   40.0720   26.8670   34.6020 C   0  0  0  0  0  0  0  0  0  0  0  0
   38.6250   27.1830   34.8640 C   0  0  0  0  0  0  0  0  0  0  0  0
   40.7550   27.0010   35.4540 H   0  0  0  0  0  0  0  0  0  0  0  0
   40.3940   27.2200   33.5790 H   0  0  0  0  0  0  0  0  0  0  0  0
   37.9970   27.6650   34.0890 H   0  0  0  0  0  0  0  0  0  0  0  0
   38.2860   27.4300   35.8920 H   0  0  0  0  0  0  0  0  0  0  0  0
   37.8690   24.1280   37.7160 C   0  0  0  0  0  0  0  0  0  0  0  0
   38.7990   23.0840   37.8900 C   0  0  0  0  0  0  0  0  0  0  0  0
   39.8410   22.9560   36.9430 C   0  0  0  0  0  0  0  0  0  0  0  0
   39.8980   23.8410   35.9140 N   0  0  0  0  0  0  0  0  0  0  0  0
   38.9750   24.8460   35.7760 C   0  0  0  0  0  0  0  0  0  0  0  0
   37.9720   24.9890   36.6650 N   0  0  0  0  0  0  0  0  0  0  0  0
   37.0980   24.1750   38.4680 H   0  0  0  0  0  0  0  0  0  0  0  0
   38.7650   22.3830   38.6940 H   0  0  0  0  0  0  0  0  0  0  0  0
   40.6010   22.1970   36.9830 H   0  0  0  0  0  0  0  0  0  0  0  0
   38.7050   25.1130   33.3370 C   0  0  0  0  0  0  0  0  0  0  0  0
   39.6540   24.6990   32.4620 C   0  0  0  0  0  0  0  0  0  0  0  0
   39.3010   24.0810   31.2680 C   0  0  0  0  0  0  0  0  0  0  0  0
   37.9460   23.9020   31.0010 C   0  0  0  0  0  0  0  0  0  0  0  0
   36.9770   24.3310   31.9070 C   0  0  0  0  0  0  0  0  0  0  0  0
   37.4020   24.9180   33.0360 N   0  0  0  0  0  0  0  0  0  0  0  0
   40.7210   24.7850   32.5080 H   0  0  0  0  0  0  0  0  0  0  0  0
   39.9690   23.7130   30.5020 H   0  0  0  0  0  0  0  0  0  0  0  0
   37.6000   23.4230   30.0820 H   0  0  0  0  0  0  0  0  0  0  0  0
   35.5480   24.1130   31.5650 C   0  0  0  0  0  2  0  0  0  0  0  0
   34.9490   25.2630   30.8340 C   0  0  0  0  0  2  0  0  0  0  0  0
   33.9250   24.9670   30.5330 H   0  0  0  0  0  0  0  0  0  0  0  0
  1  3  1  0  0  0  0
  1 12  1  0  0  0  0
  2  1  1  0  0  0  0
  2  3  1  0  0  0  0
  2  4  1  0  0  0  0
  3  7  1  0  0  0  0
  5  2  1  0  0  0  0
  6  3  1  0  0  0  0
  8  9  1  0  0  0  0
  8 14  1  0  0  0  0
  9 15  1  0  0  0  0
 10 16  1  0  0  0  0
 10  9  2  0  0  0  0
 11 10  1  0  0  0  0
 12 11  2  0  0  0  0
 12 13  1  0  0  0  0
 13  8  2  0  0  0  0
 17  1  1  0  0  0  0
 18 23  1  0  0  0  0
 18 17  2  0  0  0  0
 19 18  1  0  0  0  0
 20 19  2  0  0  0  0
 20 21  1  0  0  0  0
 21 22  2  0  0  0  0
 22 17  1  0  0  0  0
 24 19  1  0  0  0  0
 25 20  1  0  0  0  0
 26 21  1  0  0  0  0
 27 26  1  0  0  0  0
 28 27  1  0  0  0  0
M  END
>  <minimizedAffinity>
-4.5832305

$$$$

 OpenBabel03272505483D

 28 30  0  0  0  0  0  0  0  0999 V2000
   38.7630   23.0210   35.6790 C   0  0  0  0  0  0  0  0  0  0  0  0
   37.4890   22.4720   36.1900 C   0  0  0  0  0  0  0  0  0  0  0  0
   37.8330   22.3280   34.7330 C   0  0  0  0  0  0  0  0  0  0  0  0
   37.4980   21.5440   36.7800 H   0  0  0  0  0  0  0  0  0  0  0  0
   36.6530   23.2140   36.3460 H   0  0  0  0  0  0  0  0  0  0  0  0
   37.3200   22.9360   33.9620 H   0  0  0  0  0  0  0  0  0  0  0  0
   38.1740   21.3480   34.3350 H   0  0  0  0  0  0  0  0  0  0  0  0
   41.6610   21.5750   37.4640 C   0  0  0  0  0  0  0  0  0  0  0  0
   42.4720   21.1130   36.4090 C   0  0  0  0  0  0  0  0  0  0  0  0
   42.0140   21.3070   35.0850 C   0  0  0  0  0  0  0  0  0  0  0  0
   40.8210   21.9260   34.8920 N   0  0  0  0  0  0  0  0  0  0  0  0
   40.0570   22.3630   35.9440 C   0  0  0  0  0  0  0  0  0  0  0  0
   40.4710   22.1900   37.2150 N   0  0  0  0  0  0  0  0  0  0  0  0
   42.0610   21.3990   38.4500 H   0  0  0  0  0  0  0  0  0  0  0  0
   43.4110   20.6250   36.5470 H   0  0  0  0  0  0  0  0  0  0  0  0
   42.5550   20.9940   34.2090 H   0  0  0  0  0  0  0  0  0  0  0  0
   38.9040   24.5120   35.5720 C   0  0  0  0  0  0  0  0  0  0  0  0
   37.9690   25.3450   36.0910 C   0  0  0  0  0  0  0  0  0  0  0  0
   38.1110   26.7240   35.9940 C   0  0  0  0  0  0  0  0  0  0  0  0
   39.2390   27.2200   35.3470 C   0  0  0  0  0  0  0  0  0  0  0  0
   40.1950   26.3560   34.8140 C   0  0  0  0  0  0  0  0  0  0  0  0
   39.9830   25.0390   34.9510 N   0  0  0  0  0  0  0  0  0  0  0  0
   37.0470   25.1240   36.5900 H   0  0  0  0  0  0  0  0  0  0  0  0
   37.4330   27.4780   36.3710 H   0  0  0  0  0  0  0  0  0  0  0  0
   39.4120   28.2940   35.2360 H   0  0  0  0  0  0  0  0  0  0  0  0
   41.3760   26.9460   34.1340 C   0  0  0  0  0  2  0  0  0  0  0  0
   42.6010   26.1120   34.2820 C   0  0  0  0  0  2  0  0  0  0  0  0
   43.3930   26.5750   33.6600 H   0  0  0  0  0  0  0  0  0  0  0  0
  1 12  1  0  0  0  0
  1  2  1  0  0  0  0
  2  5  1  0  0  0  0
  2  4  1  0  0  0  0
  3  1  1  0  0  0  0
  3  2  1  0  0  0  0
  6  3  1  0  0  0  0
  7  3  1  0  0  0  0
  8 14  1  0  0  0  0
  9 15  1  0  0  0  0
  9  8  2  0  0  0  0
 10  9  1  0  0  0  0
 11 10  2  0  0  0  0
 11 12  1  0  0  0  0
 12 13  2  0  0  0  0
 13  8  1  0  0  0  0
 16 10  1  0  0  0  0
 17  1  1  0  0  0  0
 17 18  1  0  0  0  0
 18 23  1  0  0  0  0
 19 18  2  0  0  0  0
 19 24  1  0  0  0  0
 20 19  1  0  0  0  0
 21 22  1  0  0  0  0
 21 20  2  0  0  0  0
 22 17  2  0  0  0  0
 25 20  1  0  0  0  0
 26 27  1  0  0  0  0
 26 21  1  0  0  0  0
 28 27  1  0  0  0  0
M  END
>  <minimizedAffinity>
-4.46100903

$$$$
