
 OpenBabel03272510263D

 39 42  0  0  1  0  0  0  0  0999 V2000
   36.2390   30.2020   46.8650 C   0  0  0  0  0  0  0  0  0  0  0  0
   37.0850   30.7730   47.8130 C   0  0  0  0  0  0  0  0  0  0  0  0
   38.0670   31.6770   47.4410 C   0  0  0  0  0  0  0  0  0  0  0  0
   38.1610   31.9770   46.0860 C   0  0  0  0  0  0  0  0  0  0  0  0
   39.0390   32.8290   45.4830 N   0  0  0  0  0  0  0  0  0  0  0  0
   38.7530   32.7980   44.1710 C   0  0  0  0  0  0  0  0  0  0  0  0
   37.7540   31.9750   43.9410 N   0  0  0  0  0  0  0  0  0  0  0  0
   37.3450   31.4340   45.1150 C   0  0  0  0  0  0  0  0  0  0  0  0
   36.3590   30.5230   45.5180 C   0  0  0  0  0  0  0  0  0  0  0  0
   35.4510   29.4920   47.0760 H   0  0  0  0  0  0  0  0  0  0  0  0
   38.7180   32.1140   48.1820 H   0  0  0  0  0  0  0  0  0  0  0  0
   39.7910   33.4000   45.9530 H   0  0  0  0  0  0  0  0  0  0  0  0
   35.7230   30.1020   44.7480 H   0  0  0  0  0  0  0  0  0  0  0  0
   37.5000   30.1600   51.4900 C   0  0  0  0  0  0  0  0  0  0  0  0
   37.7940   30.5980   50.2110 C   0  0  0  0  0  0  0  0  0  0  0  0
   36.8820   30.3650   49.1880 C   0  0  0  0  0  0  0  0  0  0  0  0
   35.7290   29.7060   49.5090 N   0  0  0  0  0  0  0  0  0  0  0  0
   35.4510   29.2830   50.7580 C   0  0  0  0  0  0  0  0  0  0  0  0
   36.3320   29.5110   51.7300 N   0  0  0  0  0  0  0  0  0  0  0  0
   38.2060   30.3390   52.2820 H   0  0  0  0  0  0  0  0  0  0  0  0
   38.7130   31.1180   49.9720 H   0  0  0  0  0  0  0  0  0  0  0  0
   34.4950   28.7730   50.8610 H   0  0  0  0  0  0  0  0  0  0  0  0
   39.4730   33.5680   43.2450 O   0  0  0  0  0  0  0  0  0  0  0  0
   39.5780   31.8640   41.7310 N   0  0  0  0  0  0  0  0  0  0  0  0
   39.2200   33.2900   41.8750 C   0  0  1  0  0  0  0  0  0  0  0  0
   37.8130   33.4520   41.5260 C   0  0  0  0  0  0  0  0  0  0  0  0
   37.6520   33.1450   40.1630 O   0  0  0  0  0  0  0  0  0  0  0  0
   38.0970   31.9120   39.7860 C   0  0  0  0  0  0  0  0  0  0  0  0
   39.4640   31.5810   40.3190 C   0  0  2  0  0  0  0  0  0  0  0  0
   40.6170   31.8580   41.9390 H   0  0  0  0  0  0  0  0  0  0  0  0
   39.8340   33.9080   41.2010 H   0  0  0  0  0  0  0  0  0  0  0  0
   37.5800   34.5600   41.5690 H   0  0  0  0  0  0  0  0  0  0  0  0
   37.0060   32.9560   41.9930 H   0  0  0  0  0  0  0  0  0  0  0  0
   37.3910   31.0760   40.0600 H   0  0  0  0  0  0  0  0  0  0  0  0
   38.1990   31.9380   38.6800 H   0  0  0  0  0  0  0  0  0  0  0  0
   40.2730   32.0880   39.7520 H   0  0  0  0  0  0  0  0  0  0  0  0
   39.7020   30.0820   40.1670 C   0  0  0  0  0  2  0  0  0  0  0  0
   39.2510   29.3040   41.3590 C   0  0  0  0  0  2  0  0  0  0  0  0
   38.5170   29.8300   42.0010 H   0  0  0  0  0  0  0  0  0  0  0  0
  1 10  1  0  0  0  0
  1  2  1  0  0  0  0
  2 16  1  0  0  0  0
  3  2  2  0  0  0  0
  3 11  1  0  0  0  0
  4  3  1  0  0  0  0
  5 12  1  0  0  0  0
  5  4  1  0  0  0  0
  6  5  1  0  0  0  0
  7  6  2  0  0  0  0
  7  8  1  0  0  0  0
  8  9  1  0  0  0  0
  8  4  2  0  0  0  0
  9  1  2  0  0  0  0
 13  9  1  0  0  0  0
 14 19  1  0  0  0  0
 14 20  1  0  0  0  0
 15 14  2  0  0  0  0
 16 17  2  0  0  0  0
 16 15  1  0  0  0  0
 17 18  1  0  0  0  0
 18 22  1  0  0  0  0
 18 19  2  0  0  0  0
 21 15  1  0  0  0  0
 23  6  1  0  0  0  0
 24 25  1  0  0  0  0
 24 30  1  0  0  0  0
 25 31  1  6  0  0  0
 25 23  1  0  0  0  0
 26 32  1  0  0  0  0
 26 25  1  0  0  0  0
 26 33  1  0  0  0  0
 27 26  1  0  0  0  0
 28 34  1  0  0  0  0
 28 27  1  0  0  0  0
 28 29  1  0  0  0  0
 29 36  1  6  0  0  0
 29 24  1  0  0  0  0
 35 28  1  0  0  0  0
 37 29  1  0  0  0  0
 37 38  1  0  0  0  0
 38 39  1  0  0  0  0
M  END
>  <minimizedAffinity>
-5.53503561

>  <minimizedRMSD>
0.0279878415

$$$$
