
 OpenBabel03272510263D

 39 42  0  0  1  0  0  0  0  0999 V2000
   35.9800   30.0910   46.8890 C   0  0  0  0  0  0  0  0  0  0  0  0
   36.9030   30.6900   47.7430 C   0  0  0  0  0  0  0  0  0  0  0  0
   37.8540   31.5740   47.2580 C   0  0  0  0  0  0  0  0  0  0  0  0
   37.8370   31.8250   45.8900 C   0  0  0  0  0  0  0  0  0  0  0  0
   38.6640   32.6490   45.1860 N   0  0  0  0  0  0  0  0  0  0  0  0
   38.2720   32.5720   43.9040 C   0  0  0  0  0  0  0  0  0  0  0  0
   37.2540   31.7470   43.7870 N   0  0  0  0  0  0  0  0  0  0  0  0
   36.9410   31.2520   45.0100 C   0  0  0  0  0  0  0  0  0  0  0  0
   35.9890   30.3630   45.5260 C   0  0  0  0  0  0  0  0  0  0  0  0
   35.2100   29.3940   47.1900 H   0  0  0  0  0  0  0  0  0  0  0  0
   38.5650   32.0340   47.9270 H   0  0  0  0  0  0  0  0  0  0  0  0
   39.4560   33.2320   45.5710 H   0  0  0  0  0  0  0  0  0  0  0  0
   35.2900   29.9180   44.8270 H   0  0  0  0  0  0  0  0  0  0  0  0
   37.6060   30.2350   51.3990 C   0  0  0  0  0  0  0  0  0  0  0  0
   37.7930   30.6280   50.0850 C   0  0  0  0  0  0  0  0  0  0  0  0
   36.8130   30.3340   49.1440 C   0  0  0  0  0  0  0  0  0  0  0  0
   35.7050   29.6630   49.5760 N   0  0  0  0  0  0  0  0  0  0  0  0
   35.5310   29.2850   50.8570 C   0  0  0  0  0  0  0  0  0  0  0  0
   36.4760   29.5710   51.7510 N   0  0  0  0  0  0  0  0  0  0  0  0
   38.3630   30.4620   52.1280 H   0  0  0  0  0  0  0  0  0  0  0  0
   38.6770   31.1590   49.7580 H   0  0  0  0  0  0  0  0  0  0  0  0
   34.5980   28.7580   51.0520 H   0  0  0  0  0  0  0  0  0  0  0  0
   38.9150   33.3040   42.8940 O   0  0  0  0  0  0  0  0  0  0  0  0
   40.0310   31.3430   42.5510 N   0  0  0  0  0  0  0  0  0  0  0  0
   39.5110   32.5390   41.8560 C   0  0  1  0  0  0  0  0  0  0  0  0
   38.5400   32.1070   40.8560 C   0  0  0  0  0  0  0  0  0  0  0  0
   39.2100   31.3490   39.8790 O   0  0  0  0  0  0  0  0  0  0  0  0
   39.9130   30.2810   40.3510 C   0  0  0  0  0  0  0  0  0  0  0  0
   40.7650   30.6060   41.5480 C   0  0  2  0  0  0  0  0  0  0  0  0
   40.7640   31.7460   43.2000 H   0  0  0  0  0  0  0  0  0  0  0  0
   40.3310   33.0770   41.3560 H   0  0  0  0  0  0  0  0  0  0  0  0
   38.2110   33.0290   40.2850 H   0  0  0  0  0  0  0  0  0  0  0  0
   37.6660   31.5480   41.0540 H   0  0  0  0  0  0  0  0  0  0  0  0
   39.2670   29.3910   40.6010 H   0  0  0  0  0  0  0  0  0  0  0  0
   40.6200   29.9870   39.5450 H   0  0  0  0  0  0  0  0  0  0  0  0
   41.6960   31.1440   41.2700 H   0  0  0  0  0  0  0  0  0  0  0  0
   41.1990   29.3030   42.2120 C   0  0  0  0  0  2  0  0  0  0  0  0
   40.1060   28.2880   42.2550 C   0  0  0  0  0  2  0  0  0  0  0  0
   39.2900   28.4570   41.5250 H   0  0  0  0  0  0  0  0  0  0  0  0
  1 10  1  0  0  0  0
  1  2  1  0  0  0  0
  2 16  1  0  0  0  0
  3  2  2  0  0  0  0
  3 11  1  0  0  0  0
  4  3  1  0  0  0  0
  5 12  1  0  0  0  0
  5  4  1  0  0  0  0
  6  5  1  0  0  0  0
  7  6  2  0  0  0  0
  7  8  1  0  0  0  0
  8  9  1  0  0  0  0
  8  4  2  0  0  0  0
  9  1  2  0  0  0  0
 13  9  1  0  0  0  0
 14 19  1  0  0  0  0
 14 20  1  0  0  0  0
 15 14  2  0  0  0  0
 16 17  2  0  0  0  0
 16 15  1  0  0  0  0
 17 18  1  0  0  0  0
 18 22  1  0  0  0  0
 18 19  2  0  0  0  0
 21 15  1  0  0  0  0
 23  6  1  0  0  0  0
 24 30  1  0  0  0  0
 25 31  1  6  0  0  0
 25 24  1  0  0  0  0
 25 23  1  0  0  0  0
 26 33  1  0  0  0  0
 26 25  1  0  0  0  0
 27 28  1  0  0  0  0
 27 26  1  0  0  0  0
 28 34  1  0  0  0  0
 28 29  1  0  0  0  0
 29 36  1  6  0  0  0
 29 37  1  0  0  0  0
 29 24  1  0  0  0  0
 32 26  1  0  0  0  0
 35 28  1  0  0  0  0
 37 38  1  0  0  0  0
 39 38  1  0  0  0  0
M  END
>  <minimizedAffinity>
-5.6349144

>  <minimizedRMSD>
1.36332965

$$$$
