
 OpenBabel03262521263D

 41 43  0  0  0  0  0  0  0  0999 V2000
   37.1010   27.8180   33.5180 C   0  0  0  0  0  0  0  0  0  0  0  0
   37.2660   26.9990   32.7740 H   0  0  0  0  0  0  0  0  0  0  0  0
   38.0310   28.4370   33.4770 H   0  0  0  0  0  0  0  0  0  0  0  0
   36.8810   27.1860   34.8770 C   0  0  0  0  0  0  0  0  0  0  0  0
   36.3640   27.9570   35.4900 H   0  0  0  0  0  0  0  0  0  0  0  0
   36.0740   26.4180   34.6890 H   0  0  0  0  0  0  0  0  0  0  0  0
   38.0020   26.6460   35.4210 C   0  0  0  0  0  0  0  0  0  0  0  0
   38.4150   27.2100   36.3080 H   0  0  0  0  0  0  0  0  0  0  0  0
   38.8610   26.4900   34.7340 H   0  0  0  0  0  0  0  0  0  0  0  0
   37.4600   25.4660   35.8720 O   0  0  0  0  0  0  0  0  0  0  0  0
   38.3020   24.5340   36.4170 C   0  0  0  0  0  0  0  0  0  0  0  0
   38.0470   24.3020   37.7500 C   0  0  0  0  0  0  0  0  0  0  0  0
   38.8400   23.3620   38.4400 C   0  0  0  0  0  0  0  0  0  0  0  0
   39.8250   22.7350   37.7280 N   0  0  0  0  0  0  0  0  0  0  0  0
   40.0500   22.9900   36.4060 C   0  0  0  0  0  0  0  0  0  0  0  0
   39.2770   23.8890   35.7810 N   0  0  0  0  0  0  0  0  0  0  0  0
   41.8360   21.4140   36.6180 C   0  0  0  0  0  0  0  0  0  0  0  0
   41.6310   21.2380   37.8510 O   0  0  0  0  0  0  0  0  0  0  0  0
   41.1040   22.2740   35.7740 N   0  0  0  0  0  0  0  0  0  0  0  0
   37.3030   24.7320   38.4120 H   0  0  0  0  0  0  0  0  0  0  0  0
   38.7250   23.1130   39.4650 H   0  0  0  0  0  0  0  0  0  0  0  0
   42.6570   20.8330   36.2090 H   0  0  0  0  0  0  0  0  0  0  0  0
   41.2770   22.4110   34.7730 H   0  0  0  0  0  0  0  0  0  0  0  0
   35.7370   28.8100   32.9390 S   0  0  0  0  0  0  0  0  0  0  0  0
   33.5680   29.4720   34.6510 C   0  0  0  0  0  0  0  0  0  0  0  0
   34.8800   29.6830   34.1970 C   0  0  0  0  0  0  0  0  0  0  0  0
   35.5810   30.7100   34.8220 C   0  0  0  0  0  0  0  0  0  0  0  0
   35.0390   31.4730   35.8180 C   0  0  0  0  0  0  0  0  0  0  0  0
   35.4600   32.4870   36.5720 N   0  0  0  0  0  0  0  0  0  0  0  0
   34.4960   32.9040   37.4490 C   0  0  0  0  0  0  0  0  0  0  0  0
   33.4040   32.0890   37.2200 C   0  0  0  0  0  0  0  0  0  0  0  0
   33.7500   31.2130   36.2160 C   0  0  0  0  0  0  0  0  0  0  0  0
   33.0070   30.2240   35.6470 C   0  0  0  0  0  0  0  0  0  0  0  0
   33.0590   28.6660   34.1390 H   0  0  0  0  0  0  0  0  0  0  0  0
   36.5990   30.9600   34.5500 H   0  0  0  0  0  0  0  0  0  0  0  0
   36.4050   32.9320   36.5210 H   0  0  0  0  0  0  0  0  0  0  0  0
   34.6040   33.7130   38.1650 H   0  0  0  0  0  0  0  0  0  0  0  0
   32.4630   32.1590   37.7580 H   0  0  0  0  0  0  0  0  0  0  0  0
   31.6240   29.9620   36.0890 C   0  0  0  0  0  2  0  0  0  0  0  0
   31.5350   28.5750   36.7030 C   0  0  0  0  0  2  0  0  0  0  0  0
   30.4880   28.4020   37.0550 H   0  0  0  0  0  0  0  0  0  0  0  0
  1  4  1  0  0  0  0
  2  1  1  0  0  0  0
  3  1  1  0  0  0  0
  4  7  1  0  0  0  0
  4  5  1  0  0  0  0
  6  4  1  0  0  0  0
  7 10  1  0  0  0  0
  7  8  1  0  0  0  0
  9  7  1  0  0  0  0
 10 11  1  0  0  0  0
 11 12  1  0  0  0  0
 12 20  1  0  0  0  0
 12 13  2  0  0  0  0
 13 21  1  0  0  0  0
 14 13  1  0  0  0  0
 15 14  2  0  0  0  0
 16 15  1  0  0  0  0
 16 11  2  0  0  0  0
 17 18  2  0  0  0  0
 19 15  1  0  0  0  0
 19 17  1  0  0  0  0
 22 17  1  0  0  0  0
 23 19  1  0  0  0  0
 24  1  1  0  0  0  0
 24 26  1  0  0  0  0
 25 33  1  0  0  0  0
 26 25  2  0  0  0  0
 26 27  1  0  0  0  0
 27 28  2  0  0  0  0
 28 32  1  0  0  0  0
 28 29  1  0  0  0  0
 29 30  1  0  0  0  0
 30 37  1  0  0  0  0
 31 30  2  0  0  0  0
 31 38  1  0  0  0  0
 32 31  1  0  0  0  0
 33 39  1  0  0  0  0
 33 32  2  0  0  0  0
 34 25  1  0  0  0  0
 35 27  1  0  0  0  0
 36 29  1  0  0  0  0
 39 40  1  0  0  0  0
 40 41  1  0  0  0  0
M  END
>  <minimizedAffinity>
-5.67621422

$$$$

 OpenBabel03262521263D

 41 43  0  0  0  0  0  0  0  0999 V2000
   37.0000   27.6080   33.5640 C   0  0  0  0  0  0  0  0  0  0  0  0
   36.6310   26.5970   33.2610 H   0  0  0  0  0  0  0  0  0  0  0  0
   37.9810   27.7260   33.0420 H   0  0  0  0  0  0  0  0  0  0  0  0
   37.1370   27.6280   35.0740 C   0  0  0  0  0  0  0  0  0  0  0  0
   37.0400   28.6950   35.3720 H   0  0  0  0  0  0  0  0  0  0  0  0
   36.1710   27.1670   35.4360 H   0  0  0  0  0  0  0  0  0  0  0  0
   38.2350   26.9760   35.5350 C   0  0  0  0  0  0  0  0  0  0  0  0
   38.5800   27.3000   36.5610 H   0  0  0  0  0  0  0  0  0  0  0  0
   39.1380   27.0070   34.8880 H   0  0  0  0  0  0  0  0  0  0  0  0
   37.6960   25.7160   35.6370 O   0  0  0  0  0  0  0  0  0  0  0  0
   38.4520   24.7330   36.2150 C   0  0  0  0  0  0  0  0  0  0  0  0
   38.0220   24.4060   37.4810 C   0  0  0  0  0  0  0  0  0  0  0  0
   38.7110   23.4050   38.1970 C   0  0  0  0  0  0  0  0  0  0  0  0
   39.7780   22.8180   37.5750 N   0  0  0  0  0  0  0  0  0  0  0  0
   40.1780   23.1670   36.3170 C   0  0  0  0  0  0  0  0  0  0  0  0
   39.4990   24.1220   35.6660 N   0  0  0  0  0  0  0  0  0  0  0  0
   41.9100   21.5510   36.6420 C   0  0  0  0  0  0  0  0  0  0  0  0
   41.5430   21.2870   37.8210 O   0  0  0  0  0  0  0  0  0  0  0  0
   41.3020   22.4840   35.7770 N   0  0  0  0  0  0  0  0  0  0  0  0
   37.1990   24.7980   38.0700 H   0  0  0  0  0  0  0  0  0  0  0  0
   38.4590   23.0820   39.1750 H   0  0  0  0  0  0  0  0  0  0  0  0
   42.7750   20.9890   36.3020 H   0  0  0  0  0  0  0  0  0  0  0  0
   41.6070   22.6920   34.8210 H   0  0  0  0  0  0  0  0  0  0  0  0
   35.8660   28.8200   32.9130 S   0  0  0  0  0  0  0  0  0  0  0  0
   35.5550   30.8950   34.8310 C   0  0  0  0  0  0  0  0  0  0  0  0
   35.0500   29.7880   34.1280 C   0  0  0  0  0  0  0  0  0  0  0  0
   33.7450   29.4180   34.4370 C   0  0  0  0  0  0  0  0  0  0  0  0
   32.9890   30.0800   35.3630 C   0  0  0  0  0  0  0  0  0  0  0  0
   31.7540   29.9540   35.8460 N   0  0  0  0  0  0  0  0  0  0  0  0
   31.4780   30.9050   36.7910 C   0  0  0  0  0  0  0  0  0  0  0  0
   32.6220   31.6720   36.8960 C   0  0  0  0  0  0  0  0  0  0  0  0
   33.5440   31.1560   36.0150 C   0  0  0  0  0  0  0  0  0  0  0  0
   34.8160   31.5720   35.7610 C   0  0  0  0  0  0  0  0  0  0  0  0
   36.5720   31.1490   34.5610 H   0  0  0  0  0  0  0  0  0  0  0  0
   33.2560   28.5800   33.9570 H   0  0  0  0  0  0  0  0  0  0  0  0
   31.0600   29.2270   35.5600 H   0  0  0  0  0  0  0  0  0  0  0  0
   30.5380   31.0060   37.3260 H   0  0  0  0  0  0  0  0  0  0  0  0
   32.7330   32.5200   37.5660 H   0  0  0  0  0  0  0  0  0  0  0  0
   35.3930   32.7290   36.4720 C   0  0  0  0  0  2  0  0  0  0  0  0
   36.3960   33.4350   35.5750 C   0  0  0  0  0  2  0  0  0  0  0  0
   36.8040   34.3230   36.1190 H   0  0  0  0  0  0  0  0  0  0  0  0
  1  4  1  0  0  0  0
  2  1  1  0  0  0  0
  3  1  1  0  0  0  0
  4  5  1  0  0  0  0
  4  6  1  0  0  0  0
  4  7  1  0  0  0  0
  7 10  1  0  0  0  0
  7  8  1  0  0  0  0
  9  7  1  0  0  0  0
 10 11  1  0  0  0  0
 11 12  1  0  0  0  0
 12 20  1  0  0  0  0
 12 13  2  0  0  0  0
 13 21  1  0  0  0  0
 14 13  1  0  0  0  0
 15 14  2  0  0  0  0
 16 11  2  0  0  0  0
 16 15  1  0  0  0  0
 17 18  2  0  0  0  0
 19 15  1  0  0  0  0
 19 17  1  0  0  0  0
 22 17  1  0  0  0  0
 23 19  1  0  0  0  0
 24  1  1  0  0  0  0
 24 26  1  0  0  0  0
 25 33  1  0  0  0  0
 26 27  1  0  0  0  0
 26 25  2  0  0  0  0
 27 28  2  0  0  0  0
 28 29  1  0  0  0  0
 28 32  1  0  0  0  0
 29 30  1  0  0  0  0
 30 31  2  0  0  0  0
 30 37  1  0  0  0  0
 31 38  1  0  0  0  0
 32 31  1  0  0  0  0
 33 32  2  0  0  0  0
 33 39  1  0  0  0  0
 34 25  1  0  0  0  0
 35 27  1  0  0  0  0
 36 29  1  0  0  0  0
 40 41  1  0  0  0  0
 40 39  1  0  0  0  0
M  END
>  <minimizedAffinity>
-5.63240671

$$$$

 OpenBabel03262521263D

 41 43  0  0  0  0  0  0  0  0999 V2000
   37.1050   23.7250   30.9610 C   0  0  0  0  0  0  0  0  0  0  0  0
   37.5470   24.7110   30.6720 H   0  0  0  0  0  0  0  0  0  0  0  0
   37.0950   23.1260   30.0180 H   0  0  0  0  0  0  0  0  0  0  0  0
   35.7140   23.9730   31.5090 C   0  0  0  0  0  0  0  0  0  0  0  0
   35.1190   23.0710   31.2460 H   0  0  0  0  0  0  0  0  0  0  0  0
   35.8460   23.8810   32.6280 H   0  0  0  0  0  0  0  0  0  0  0  0
   35.1810   25.1670   31.1400 C   0  0  0  0  0  0  0  0  0  0  0  0
   34.1870   25.4080   31.6180 H   0  0  0  0  0  0  0  0  0  0  0  0
   35.0430   25.3310   30.0500 H   0  0  0  0  0  0  0  0  0  0  0  0
   36.1360   25.9920   31.6850 O   0  0  0  0  0  0  0  0  0  0  0  0
   36.2220   27.2770   31.2210 C   0  0  0  0  0  0  0  0  0  0  0  0
   35.5210   28.1710   31.9980 C   0  0  0  0  0  0  0  0  0  0  0  0
   35.5220   29.5340   31.6370 C   0  0  0  0  0  0  0  0  0  0  0  0
   36.2310   29.8810   30.5200 N   0  0  0  0  0  0  0  0  0  0  0  0
   36.9160   28.9670   29.7720 C   0  0  0  0  0  0  0  0  0  0  0  0
   36.8930   27.6800   30.1450 N   0  0  0  0  0  0  0  0  0  0  0  0
   37.4700   30.8300   28.3780 C   0  0  0  0  0  0  0  0  0  0  0  0
   36.7880   31.6400   29.0650 O   0  0  0  0  0  0  0  0  0  0  0  0
   37.6160   29.4510   28.6320 N   0  0  0  0  0  0  0  0  0  0  0  0
   34.9300   28.0150   32.8940 H   0  0  0  0  0  0  0  0  0  0  0  0
   35.0150   30.2990   32.1670 H   0  0  0  0  0  0  0  0  0  0  0  0
   37.9740   31.2740   27.5250 H   0  0  0  0  0  0  0  0  0  0  0  0
   38.1720   28.7990   28.0690 H   0  0  0  0  0  0  0  0  0  0  0  0
   38.2210   22.9450   32.1120 S   0  0  0  0  0  0  0  0  0  0  0  0
   38.3830   24.9710   34.0990 C   0  0  0  0  0  0  0  0  0  0  0  0
   38.2020   23.6280   33.7290 C   0  0  0  0  0  0  0  0  0  0  0  0
   37.9830   22.7350   34.7730 C   0  0  0  0  0  0  0  0  0  0  0  0
   37.9430   23.1250   36.0820 C   0  0  0  0  0  0  0  0  0  0  0  0
   37.7570   22.5130   37.2500 N   0  0  0  0  0  0  0  0  0  0  0  0
   37.8130   23.3900   38.2990 C   0  0  0  0  0  0  0  0  0  0  0  0
   38.0490   24.6300   37.7390 C   0  0  0  0  0  0  0  0  0  0  0  0
   38.1270   24.4560   36.3760 C   0  0  0  0  0  0  0  0  0  0  0  0
   38.3460   25.3830   35.4030 C   0  0  0  0  0  0  0  0  0  0  0  0
   38.5500   25.6310   33.2580 H   0  0  0  0  0  0  0  0  0  0  0  0
   37.8320   21.6760   34.6030 H   0  0  0  0  0  0  0  0  0  0  0  0
   37.5890   21.4890   37.3800 H   0  0  0  0  0  0  0  0  0  0  0  0
   37.6920   23.1270   39.3460 H   0  0  0  0  0  0  0  0  0  0  0  0
   38.1480   25.5510   38.3060 H   0  0  0  0  0  0  0  0  0  0  0  0
   38.5410   26.8060   35.7400 C   0  0  0  0  0  2  0  0  0  0  0  0
   37.4470   27.6410   35.0950 C   0  0  0  0  0  2  0  0  0  0  0  0
   37.5950   28.7120   35.3810 H   0  0  0  0  0  0  0  0  0  0  0  0
  1  4  1  0  0  0  0
  1 24  1  0  0  0  0
  2  1  1  0  0  0  0
  3  1  1  0  0  0  0
  4  6  1  0  0  0  0
  5  4  1  0  0  0  0
  7  4  1  0  0  0  0
  7  8  1  0  0  0  0
  7 10  1  0  0  0  0
  9  7  1  0  0  0  0
 11 10  1  0  0  0  0
 11 12  1  0  0  0  0
 12 20  1  0  0  0  0
 13 12  2  0  0  0  0
 13 21  1  0  0  0  0
 14 13  1  0  0  0  0
 15 16  1  0  0  0  0
 15 14  2  0  0  0  0
 16 11  2  0  0  0  0
 17 19  1  0  0  0  0
 17 18  2  0  0  0  0
 19 15  1  0  0  0  0
 22 17  1  0  0  0  0
 23 19  1  0  0  0  0
 24 26  1  0  0  0  0
 25 33  1  0  0  0  0
 26 25  2  0  0  0  0
 26 27  1  0  0  0  0
 27 28  2  0  0  0  0
 28 32  1  0  0  0  0
 28 29  1  0  0  0  0
 29 36  1  0  0  0  0
 29 30  1  0  0  0  0
 30 37  1  0  0  0  0
 31 30  2  0  0  0  0
 31 38  1  0  0  0  0
 32 31  1  0  0  0  0
 33 39  1  0  0  0  0
 33 32  2  0  0  0  0
 34 25  1  0  0  0  0
 35 27  1  0  0  0  0
 40 41  1  0  0  0  0
 40 39  1  0  0  0  0
M  END
>  <minimizedAffinity>
-5.61078215

$$$$

 OpenBabel03262521263D

 41 43  0  0  0  0  0  0  0  0999 V2000
   36.6500   21.0020   32.7810 C   0  0  0  0  0  0  0  0  0  0  0  0
   36.8500   20.1760   32.0540 H   0  0  0  0  0  0  0  0  0  0  0  0
   36.2930   20.4920   33.7090 H   0  0  0  0  0  0  0  0  0  0  0  0
   35.6030   21.9180   32.1790 C   0  0  0  0  0  0  0  0  0  0  0  0
   34.7460   21.2610   31.9090 H   0  0  0  0  0  0  0  0  0  0  0  0
   35.2150   22.5010   33.0660 H   0  0  0  0  0  0  0  0  0  0  0  0
   36.0750   22.7190   31.1900 C   0  0  0  0  0  0  0  0  0  0  0  0
   35.6330   22.5210   30.1700 H   0  0  0  0  0  0  0  0  0  0  0  0
   37.1770   22.7310   31.0460 H   0  0  0  0  0  0  0  0  0  0  0  0
   35.5860   23.9180   31.6500 O   0  0  0  0  0  0  0  0  0  0  0  0
   36.2310   25.0670   31.2770 C   0  0  0  0  0  0  0  0  0  0  0  0
   37.5640   24.8610   31.0000 C   0  0  0  0  0  0  0  0  0  0  0  0
   38.3540   25.9590   30.6030 C   0  0  0  0  0  0  0  0  0  0  0  0
   37.7320   27.1740   30.5170 N   0  0  0  0  0  0  0  0  0  0  0  0
   36.4070   27.3420   30.7990 C   0  0  0  0  0  0  0  0  0  0  0  0
   35.6860   26.2760   31.1740 N   0  0  0  0  0  0  0  0  0  0  0  0
   36.8080   29.6510   30.3200 C   0  0  0  0  0  0  0  0  0  0  0  0
   38.0400   29.4690   30.1140 O   0  0  0  0  0  0  0  0  0  0  0  0
   35.8750   28.6550   30.6740 N   0  0  0  0  0  0  0  0  0  0  0  0
   38.1600   23.9550   31.0320 H   0  0  0  0  0  0  0  0  0  0  0  0
   39.3870   25.9060   30.3680 H   0  0  0  0  0  0  0  0  0  0  0  0
   36.4790   30.6790   30.2060 H   0  0  0  0  0  0  0  0  0  0  0  0
   34.8750   28.8120   30.8400 H   0  0  0  0  0  0  0  0  0  0  0  0
   38.2050   21.7990   33.1390 S   0  0  0  0  0  0  0  0  0  0  0  0
   38.1930   24.3090   34.4730 C   0  0  0  0  0  0  0  0  0  0  0  0
   38.1650   22.9050   34.5010 C   0  0  0  0  0  0  0  0  0  0  0  0
   38.0990   22.3250   35.7640 C   0  0  0  0  0  0  0  0  0  0  0  0
   38.0620   23.0630   36.9140 C   0  0  0  0  0  0  0  0  0  0  0  0
   37.9990   22.7890   38.2160 N   0  0  0  0  0  0  0  0  0  0  0  0
   37.9870   23.9270   38.9760 C   0  0  0  0  0  0  0  0  0  0  0  0
   38.0450   24.9760   38.0790 C   0  0  0  0  0  0  0  0  0  0  0  0
   38.0910   24.4330   36.8150 C   0  0  0  0  0  0  0  0  0  0  0  0
   38.1560   25.0660   35.6110 C   0  0  0  0  0  0  0  0  0  0  0  0
   38.2440   24.7190   33.4720 H   0  0  0  0  0  0  0  0  0  0  0  0
   38.0740   21.2520   35.9040 H   0  0  0  0  0  0  0  0  0  0  0  0
   37.9640   21.8320   38.6360 H   0  0  0  0  0  0  0  0  0  0  0  0
   37.9390   23.9590   40.0600 H   0  0  0  0  0  0  0  0  0  0  0  0
   38.0520   26.0250   38.3620 H   0  0  0  0  0  0  0  0  0  0  0  0
   38.1870   26.5390   35.5270 C   0  0  0  0  0  2  0  0  0  0  0  0
   37.2260   27.0120   34.4490 C   0  0  0  0  0  2  0  0  0  0  0  0
   37.2430   28.1300   34.4160 H   0  0  0  0  0  0  0  0  0  0  0  0
  1 24  1  0  0  0  0
  1  3  1  0  0  0  0
  2  1  1  0  0  0  0
  4  1  1  0  0  0  0
  4  6  1  0  0  0  0
  5  4  1  0  0  0  0
  7 10  1  0  0  0  0
  7  4  1  0  0  0  0
  8  7  1  0  0  0  0
  9  7  1  0  0  0  0
 11 10  1  0  0  0  0
 12 20  1  0  0  0  0
 12 11  2  0  0  0  0
 13 12  1  0  0  0  0
 14 13  2  0  0  0  0
 14 15  1  0  0  0  0
 15 16  2  0  0  0  0
 16 11  1  0  0  0  0
 17 19  1  0  0  0  0
 18 17  2  0  0  0  0
 19 15  1  0  0  0  0
 19 23  1  0  0  0  0
 21 13  1  0  0  0  0
 22 17  1  0  0  0  0
 24 26  1  0  0  0  0
 25 26  2  0  0  0  0
 25 33  1  0  0  0  0
 26 27  1  0  0  0  0
 27 35  1  0  0  0  0
 27 28  2  0  0  0  0
 28 29  1  0  0  0  0
 29 36  1  0  0  0  0
 29 30  1  0  0  0  0
 30 37  1  0  0  0  0
 31 38  1  0  0  0  0
 31 30  2  0  0  0  0
 32 28  1  0  0  0  0
 32 31  1  0  0  0  0
 33 32  2  0  0  0  0
 34 25  1  0  0  0  0
 39 33  1  0  0  0  0
 40 39  1  0  0  0  0
 41 40  1  0  0  0  0
M  END
>  <minimizedAffinity>
-5.45471191

$$$$

 OpenBabel03262521263D

 41 43  0  0  0  0  0  0  0  0999 V2000
   36.6060   20.7600   32.5380 C   0  0  0  0  0  0  0  0  0  0  0  0
   36.5800   19.9330   31.7870 H   0  0  0  0  0  0  0  0  0  0  0  0
   36.3750   20.2710   33.5160 H   0  0  0  0  0  0  0  0  0  0  0  0
   35.5700   21.7920   32.1420 C   0  0  0  0  0  0  0  0  0  0  0  0
   34.6350   21.2210   31.9430 H   0  0  0  0  0  0  0  0  0  0  0  0
   35.3450   22.3320   33.1090 H   0  0  0  0  0  0  0  0  0  0  0  0
   35.9770   22.6310   31.1550 C   0  0  0  0  0  0  0  0  0  0  0  0
   35.4040   22.5350   30.1870 H   0  0  0  0  0  0  0  0  0  0  0  0
   37.0520   22.5840   30.8770 H   0  0  0  0  0  0  0  0  0  0  0  0
   35.6320   23.8230   31.7460 O   0  0  0  0  0  0  0  0  0  0  0  0
   36.2880   24.9570   31.3480 C   0  0  0  0  0  0  0  0  0  0  0  0
   37.6200   24.7350   31.0840 C   0  0  0  0  0  0  0  0  0  0  0  0
   38.4200   25.8170   30.6630 C   0  0  0  0  0  0  0  0  0  0  0  0
   37.8070   27.0340   30.5440 N   0  0  0  0  0  0  0  0  0  0  0  0
   36.4820   27.2190   30.8150 C   0  0  0  0  0  0  0  0  0  0  0  0
   35.7520   26.1670   31.2130 N   0  0  0  0  0  0  0  0  0  0  0  0
   36.9020   29.5110   30.2810 C   0  0  0  0  0  0  0  0  0  0  0  0
   38.1340   29.3160   30.0850 O   0  0  0  0  0  0  0  0  0  0  0  0
   35.9600   28.5310   30.6540 N   0  0  0  0  0  0  0  0  0  0  0  0
   38.2100   23.8260   31.1420 H   0  0  0  0  0  0  0  0  0  0  0  0
   39.4530   25.7510   30.4350 H   0  0  0  0  0  0  0  0  0  0  0  0
   36.5800   30.5380   30.1390 H   0  0  0  0  0  0  0  0  0  0  0  0
   34.9600   28.6990   30.8110 H   0  0  0  0  0  0  0  0  0  0  0  0
   38.2770   21.3830   32.6020 S   0  0  0  0  0  0  0  0  0  0  0  0
   40.1040   22.1760   34.6300 C   0  0  0  0  0  0  0  0  0  0  0  0
   38.7930   21.9340   34.1870 C   0  0  0  0  0  0  0  0  0  0  0  0
   37.7860   22.1580   35.1190 C   0  0  0  0  0  0  0  0  0  0  0  0
   38.0400   22.5880   36.3920 C   0  0  0  0  0  0  0  0  0  0  0  0
   37.3020   22.8780   37.4620 N   0  0  0  0  0  0  0  0  0  0  0  0
   38.0730   23.2770   38.5190 C   0  0  0  0  0  0  0  0  0  0  0  0
   39.3780   23.2310   38.0700 C   0  0  0  0  0  0  0  0  0  0  0  0
   39.3460   22.8070   36.7610 C   0  0  0  0  0  0  0  0  0  0  0  0
   40.3810   22.6060   35.8980 C   0  0  0  0  0  0  0  0  0  0  0  0
   40.8550   21.9890   33.8740 H   0  0  0  0  0  0  0  0  0  0  0  0
   36.7400   22.0040   34.8860 H   0  0  0  0  0  0  0  0  0  0  0  0
   36.2600   22.8160   37.5160 H   0  0  0  0  0  0  0  0  0  0  0  0
   37.6980   23.5650   39.4970 H   0  0  0  0  0  0  0  0  0  0  0  0
   40.2440   23.4910   38.6720 H   0  0  0  0  0  0  0  0  0  0  0  0
   41.7760   22.8460   36.3160 C   0  0  0  0  0  2  0  0  0  0  0  0
   42.3900   21.5520   36.8220 C   0  0  0  0  0  2  0  0  0  0  0  0
   43.4530   21.7460   37.1100 H   0  0  0  0  0  0  0  0  0  0  0  0
  1 24  1  0  0  0  0
  1  3  1  0  0  0  0
  2  1  1  0  0  0  0
  4  1  1  0  0  0  0
  4  6  1  0  0  0  0
  5  4  1  0  0  0  0
  7 10  1  0  0  0  0
  7  4  1  0  0  0  0
  8  7  1  0  0  0  0
  9  7  1  0  0  0  0
 11 10  1  0  0  0  0
 12 20  1  0  0  0  0
 12 11  2  0  0  0  0
 13 12  1  0  0  0  0
 14 13  2  0  0  0  0
 14 15  1  0  0  0  0
 15 16  2  0  0  0  0
 16 11  1  0  0  0  0
 17 19  1  0  0  0  0
 18 17  2  0  0  0  0
 19 23  1  0  0  0  0
 19 15  1  0  0  0  0
 21 13  1  0  0  0  0
 22 17  1  0  0  0  0
 24 26  1  0  0  0  0
 25 33  1  0  0  0  0
 26 25  2  0  0  0  0
 26 27  1  0  0  0  0
 27 28  2  0  0  0  0
 28 32  1  0  0  0  0
 28 29  1  0  0  0  0
 29 36  1  0  0  0  0
 29 30  1  0  0  0  0
 30 37  1  0  0  0  0
 31 30  2  0  0  0  0
 31 38  1  0  0  0  0
 32 31  1  0  0  0  0
 33 39  1  0  0  0  0
 33 32  2  0  0  0  0
 34 25  1  0  0  0  0
 35 27  1  0  0  0  0
 39 40  1  0  0  0  0
 40 41  1  0  0  0  0
M  END
>  <minimizedAffinity>
-5.30012035

$$$$

 OpenBabel03262521263D

 41 43  0  0  0  0  0  0  0  0999 V2000
   36.8050   22.4840   31.2720 C   0  0  0  0  0  0  0  0  0  0  0  0
   36.4270   22.5740   32.3210 H   0  0  0  0  0  0  0  0  0  0  0  0
   35.9090   22.2050   30.6650 H   0  0  0  0  0  0  0  0  0  0  0  0
   37.8820   21.4180   31.2470 C   0  0  0  0  0  0  0  0  0  0  0  0
   37.5650   20.6860   30.4720 H   0  0  0  0  0  0  0  0  0  0  0  0
   38.7630   21.9380   30.7690 H   0  0  0  0  0  0  0  0  0  0  0  0
   38.1750   20.9030   32.4690 C   0  0  0  0  0  0  0  0  0  0  0  0
   38.5830   19.8500   32.4520 H   0  0  0  0  0  0  0  0  0  0  0  0
   37.3530   20.8990   33.2150 H   0  0  0  0  0  0  0  0  0  0  0  0
   39.1970   21.7580   32.8090 O   0  0  0  0  0  0  0  0  0  0  0  0
   39.2180   22.2680   34.0790 C   0  0  0  0  0  0  0  0  0  0  0  0
   40.4030   22.9020   34.3770 C   0  0  0  0  0  0  0  0  0  0  0  0
   40.5650   23.4770   35.6540 C   0  0  0  0  0  0  0  0  0  0  0  0
   39.5160   23.3630   36.5250 N   0  0  0  0  0  0  0  0  0  0  0  0
   38.3540   22.7280   36.1950 C   0  0  0  0  0  0  0  0  0  0  0  0
   38.2350   22.1930   34.9720 N   0  0  0  0  0  0  0  0  0  0  0  0
   37.6750   23.2490   38.4280 C   0  0  0  0  0  0  0  0  0  0  0  0
   38.7800   23.7870   38.7160 O   0  0  0  0  0  0  0  0  0  0  0  0
   37.3350   22.6750   37.1860 N   0  0  0  0  0  0  0  0  0  0  0  0
   41.2940   23.0530   33.7770 H   0  0  0  0  0  0  0  0  0  0  0  0
   41.4360   23.9850   35.9820 H   0  0  0  0  0  0  0  0  0  0  0  0
   36.9500   23.2470   39.2360 H   0  0  0  0  0  0  0  0  0  0  0  0
   36.4350   22.2390   36.9610 H   0  0  0  0  0  0  0  0  0  0  0  0
   37.3570   24.0990   30.7530 S   0  0  0  0  0  0  0  0  0  0  0  0
   37.5610   25.4150   33.2640 C   0  0  0  0  0  0  0  0  0  0  0  0
   37.1090   25.3730   31.9350 C   0  0  0  0  0  0  0  0  0  0  0  0
   36.3760   26.4750   31.5070 C   0  0  0  0  0  0  0  0  0  0  0  0
   36.1050   27.5410   32.3190 C   0  0  0  0  0  0  0  0  0  0  0  0
   35.4520   28.6940   32.1850 N   0  0  0  0  0  0  0  0  0  0  0  0
   35.4770   29.4300   33.3390 C   0  0  0  0  0  0  0  0  0  0  0  0
   36.1960   28.6780   34.2470 C   0  0  0  0  0  0  0  0  0  0  0  0
   36.5780   27.5200   33.6100 C   0  0  0  0  0  0  0  0  0  0  0  0
   37.3020   26.4720   34.0930 C   0  0  0  0  0  0  0  0  0  0  0  0
   38.1260   24.5390   33.5550 H   0  0  0  0  0  0  0  0  0  0  0  0
   35.9790   26.5480   30.5030 H   0  0  0  0  0  0  0  0  0  0  0  0
   34.9680   29.0230   31.3190 H   0  0  0  0  0  0  0  0  0  0  0  0
   35.0140   30.4030   33.4750 H   0  0  0  0  0  0  0  0  0  0  0  0
   36.4020   28.9820   35.2700 H   0  0  0  0  0  0  0  0  0  0  0  0
   37.8000   26.4690   35.4820 C   0  0  0  0  0  2  0  0  0  0  0  0
   39.2280   26.9870   35.5160 C   0  0  0  0  0  2  0  0  0  0  0  0
   39.5800   27.0020   36.5780 H   0  0  0  0  0  0  0  0  0  0  0  0
  1  2  1  0  0  0  0
  3  1  1  0  0  0  0
  4  1  1  0  0  0  0
  4  7  1  0  0  0  0
  5  4  1  0  0  0  0
  6  4  1  0  0  0  0
  7 10  1  0  0  0  0
  7  9  1  0  0  0  0
  8  7  1  0  0  0  0
 10 11  1  0  0  0  0
 11 12  2  0  0  0  0
 11 16  1  0  0  0  0
 12 13  1  0  0  0  0
 13 21  1  0  0  0  0
 13 14  2  0  0  0  0
 15 14  1  0  0  0  0
 15 19  1  0  0  0  0
 16 15  2  0  0  0  0
 17 18  2  0  0  0  0
 17 22  1  0  0  0  0
 19 17  1  0  0  0  0
 20 12  1  0  0  0  0
 23 19  1  0  0  0  0
 24  1  1  0  0  0  0
 24 26  1  0  0  0  0
 25 34  1  0  0  0  0
 25 33  1  0  0  0  0
 26 25  2  0  0  0  0
 27 26  1  0  0  0  0
 27 28  2  0  0  0  0
 28 32  1  0  0  0  0
 29 28  1  0  0  0  0
 29 30  1  0  0  0  0
 30 37  1  0  0  0  0
 30 31  2  0  0  0  0
 31 38  1  0  0  0  0
 32 33  2  0  0  0  0
 32 31  1  0  0  0  0
 33 39  1  0  0  0  0
 35 27  1  0  0  0  0
 36 29  1  0  0  0  0
 39 40  1  0  0  0  0
 40 41  1  0  0  0  0
M  END
>  <minimizedAffinity>
-5.2327466

$$$$

 OpenBabel03262521263D

 41 43  0  0  0  0  0  0  0  0999 V2000
   37.5420   27.0780   33.7860 C   0  0  0  0  0  0  0  0  0  0  0  0
   36.8150   27.1670   34.6310 H   0  0  0  0  0  0  0  0  0  0  0  0
   38.5040   27.4800   34.1890 H   0  0  0  0  0  0  0  0  0  0  0  0
   37.0140   27.8880   32.6190 C   0  0  0  0  0  0  0  0  0  0  0  0
   37.8760   28.4870   32.2520 H   0  0  0  0  0  0  0  0  0  0  0  0
   36.8660   27.1190   31.8040 H   0  0  0  0  0  0  0  0  0  0  0  0
   35.8810   28.5820   32.8990 C   0  0  0  0  0  0  0  0  0  0  0  0
   34.9450   27.9540   32.9580 H   0  0  0  0  0  0  0  0  0  0  0  0
   35.6380   29.4270   32.2200 H   0  0  0  0  0  0  0  0  0  0  0  0
   36.2060   28.9970   34.1690 O   0  0  0  0  0  0  0  0  0  0  0  0
   35.3390   29.8340   34.8180 C   0  0  0  0  0  0  0  0  0  0  0  0
   35.9850   30.8190   35.5300 C   0  0  0  0  0  0  0  0  0  0  0  0
   35.2130   31.7550   36.2490 C   0  0  0  0  0  0  0  0  0  0  0  0
   33.8540   31.6180   36.1890 N   0  0  0  0  0  0  0  0  0  0  0  0
   33.2460   30.6280   35.4720 C   0  0  0  0  0  0  0  0  0  0  0  0
   34.0110   29.7550   34.8010 N   0  0  0  0  0  0  0  0  0  0  0  0
   31.2060   31.5620   36.2990 C   0  0  0  0  0  0  0  0  0  0  0  0
   31.8010   32.4360   36.9900 O   0  0  0  0  0  0  0  0  0  0  0  0
   31.8250   30.5900   35.4880 N   0  0  0  0  0  0  0  0  0  0  0  0
   37.0430   31.0260   35.6500 H   0  0  0  0  0  0  0  0  0  0  0  0
   35.6130   32.5500   36.8270 H   0  0  0  0  0  0  0  0  0  0  0  0
   30.1230   31.5970   36.3640 H   0  0  0  0  0  0  0  0  0  0  0  0
   31.3340   29.8830   34.9300 H   0  0  0  0  0  0  0  0  0  0  0  0
   37.7600   25.3420   33.4380 S   0  0  0  0  0  0  0  0  0  0  0  0
   38.1400   24.2830   36.0480 C   0  0  0  0  0  0  0  0  0  0  0  0
   38.5510   24.4320   34.7130 C   0  0  0  0  0  0  0  0  0  0  0  0
   39.7280   23.7790   34.3640 C   0  0  0  0  0  0  0  0  0  0  0  0
   40.4500   23.0340   35.2540 C   0  0  0  0  0  0  0  0  0  0  0  0
   41.5750   22.3210   35.2030 N   0  0  0  0  0  0  0  0  0  0  0  0
   41.8720   21.7530   36.4120 C   0  0  0  0  0  0  0  0  0  0  0  0
   40.8600   22.1410   37.2680 C   0  0  0  0  0  0  0  0  0  0  0  0
   39.9920   22.9280   36.5450 C   0  0  0  0  0  0  0  0  0  0  0  0
   38.8470   23.5420   36.9540 C   0  0  0  0  0  0  0  0  0  0  0  0
   37.2210   24.8070   36.2770 H   0  0  0  0  0  0  0  0  0  0  0  0
   40.1380   23.8260   33.3630 H   0  0  0  0  0  0  0  0  0  0  0  0
   42.1770   22.1950   34.3590 H   0  0  0  0  0  0  0  0  0  0  0  0
   42.7360   21.1280   36.6180 H   0  0  0  0  0  0  0  0  0  0  0  0
   40.7970   21.8560   38.3140 H   0  0  0  0  0  0  0  0  0  0  0  0
   38.3720   23.4160   38.3460 C   0  0  0  0  0  2  0  0  0  0  0  0
   37.9640   24.7810   38.8740 C   0  0  0  0  0  2  0  0  0  0  0  0
   37.5840   24.6640   39.9200 H   0  0  0  0  0  0  0  0  0  0  0  0
  1  3  1  0  0  0  0
  1  2  1  0  0  0  0
  4  7  1  0  0  0  0
  4  1  1  0  0  0  0
  5  4  1  0  0  0  0
  6  4  1  0  0  0  0
  7  8  1  0  0  0  0
  7 10  1  0  0  0  0
  9  7  1  0  0  0  0
 10 11  1  0  0  0  0
 11 12  1  0  0  0  0
 12 20  1  0  0  0  0
 12 13  2  0  0  0  0
 13 21  1  0  0  0  0
 14 13  1  0  0  0  0
 15 19  1  0  0  0  0
 15 14  2  0  0  0  0
 16 11  2  0  0  0  0
 16 15  1  0  0  0  0
 17 22  1  0  0  0  0
 17 18  2  0  0  0  0
 19 17  1  0  0  0  0
 23 19  1  0  0  0  0
 24  1  1  0  0  0  0
 24 26  1  0  0  0  0
 25 34  1  0  0  0  0
 25 33  1  0  0  0  0
 26 25  2  0  0  0  0
 27 26  1  0  0  0  0
 27 28  2  0  0  0  0
 28 32  1  0  0  0  0
 29 28  1  0  0  0  0
 29 30  1  0  0  0  0
 30 37  1  0  0  0  0
 30 31  2  0  0  0  0
 31 38  1  0  0  0  0
 32 33  2  0  0  0  0
 32 31  1  0  0  0  0
 33 39  1  0  0  0  0
 35 27  1  0  0  0  0
 36 29  1  0  0  0  0
 39 40  1  0  0  0  0
 40 41  1  0  0  0  0
M  END
>  <minimizedAffinity>
-5.17970657

$$$$

 OpenBabel03262521263D

 41 43  0  0  0  0  0  0  0  0999 V2000
   36.8900   27.0530   34.1730 C   0  0  0  0  0  0  0  0  0  0  0  0
   36.2460   27.9530   34.3340 H   0  0  0  0  0  0  0  0  0  0  0  0
   36.3380   26.2110   34.6570 H   0  0  0  0  0  0  0  0  0  0  0  0
   38.2360   27.3150   34.8180 C   0  0  0  0  0  0  0  0  0  0  0  0
   38.9880   26.8300   34.1560 H   0  0  0  0  0  0  0  0  0  0  0  0
   38.4080   28.4180   34.6430 H   0  0  0  0  0  0  0  0  0  0  0  0
   38.2930   26.9760   36.1310 C   0  0  0  0  0  0  0  0  0  0  0  0
   37.6040   27.5680   36.8020 H   0  0  0  0  0  0  0  0  0  0  0  0
   39.2940   27.0180   36.6110 H   0  0  0  0  0  0  0  0  0  0  0  0
   37.8050   25.6940   36.0310 O   0  0  0  0  0  0  0  0  0  0  0  0
   38.5640   24.6710   36.5320 C   0  0  0  0  0  0  0  0  0  0  0  0
   38.1870   24.3020   37.8030 C   0  0  0  0  0  0  0  0  0  0  0  0
   38.8850   23.2570   38.4430 C   0  0  0  0  0  0  0  0  0  0  0  0
   39.9060   22.6730   37.7470 N   0  0  0  0  0  0  0  0  0  0  0  0
   40.2540   23.0650   36.4860 C   0  0  0  0  0  0  0  0  0  0  0  0
   39.5680   24.0610   35.9080 N   0  0  0  0  0  0  0  0  0  0  0  0
   41.9610   21.3990   36.6600 C   0  0  0  0  0  0  0  0  0  0  0  0
   41.6440   21.0940   37.8440 O   0  0  0  0  0  0  0  0  0  0  0  0
   41.3340   22.3800   35.8650 N   0  0  0  0  0  0  0  0  0  0  0  0
   37.4030   24.6870   38.4470 H   0  0  0  0  0  0  0  0  0  0  0  0
   38.6730   22.8990   39.4190 H   0  0  0  0  0  0  0  0  0  0  0  0
   42.7950   20.8330   36.2560 H   0  0  0  0  0  0  0  0  0  0  0  0
   41.5980   22.6210   34.9040 H   0  0  0  0  0  0  0  0  0  0  0  0
   36.9630   26.7430   32.4180 S   0  0  0  0  0  0  0  0  0  0  0  0
   36.5040   29.4670   31.7480 C   0  0  0  0  0  0  0  0  0  0  0  0
   36.9780   28.1860   31.4190 C   0  0  0  0  0  0  0  0  0  0  0  0
   37.5230   28.0490   30.1460 C   0  0  0  0  0  0  0  0  0  0  0  0
   37.6000   29.0870   29.2610 C   0  0  0  0  0  0  0  0  0  0  0  0
   38.0560   29.2440   28.0190 N   0  0  0  0  0  0  0  0  0  0  0  0
   37.8900   30.5270   27.5740 C   0  0  0  0  0  0  0  0  0  0  0  0
   37.2920   31.2100   28.6150 C   0  0  0  0  0  0  0  0  0  0  0  0
   37.1180   30.3160   29.6460 C   0  0  0  0  0  0  0  0  0  0  0  0
   36.5720   30.5190   30.8770 C   0  0  0  0  0  0  0  0  0  0  0  0
   36.0880   29.5290   32.7450 H   0  0  0  0  0  0  0  0  0  0  0  0
   37.9180   27.1070   29.7880 H   0  0  0  0  0  0  0  0  0  0  0  0
   38.4890   28.4960   27.4310 H   0  0  0  0  0  0  0  0  0  0  0  0
   38.1830   30.8970   26.5960 H   0  0  0  0  0  0  0  0  0  0  0  0
   37.0230   32.2620   28.5840 H   0  0  0  0  0  0  0  0  0  0  0  0
   36.0600   31.8460   31.2710 C   0  0  0  0  0  2  0  0  0  0  0  0
   34.5410   31.8210   31.3060 C   0  0  0  0  0  2  0  0  0  0  0  0
   34.1710   32.8250   31.6300 H   0  0  0  0  0  0  0  0  0  0  0  0
  1  2  1  0  0  0  0
  1  3  1  0  0  0  0
  1  4  1  0  0  0  0
  4  7  1  0  0  0  0
  5  4  1  0  0  0  0
  6  4  1  0  0  0  0
  7  9  1  0  0  0  0
  7  8  1  0  0  0  0
 10  7  1  0  0  0  0
 10 11  1  0  0  0  0
 11 12  1  0  0  0  0
 12 13  2  0  0  0  0
 12 20  1  0  0  0  0
 13 21  1  0  0  0  0
 14 13  1  0  0  0  0
 15 14  2  0  0  0  0
 16 15  1  0  0  0  0
 16 11  2  0  0  0  0
 17 18  2  0  0  0  0
 19 15  1  0  0  0  0
 19 17  1  0  0  0  0
 22 17  1  0  0  0  0
 23 19  1  0  0  0  0
 24  1  1  0  0  0  0
 25 34  1  0  0  0  0
 26 25  1  0  0  0  0
 26 24  1  0  0  0  0
 27 26  2  0  0  0  0
 28 32  2  0  0  0  0
 28 27  1  0  0  0  0
 29 28  1  0  0  0  0
 30 29  1  0  0  0  0
 30 31  2  0  0  0  0
 31 32  1  0  0  0  0
 32 33  1  0  0  0  0
 33 39  1  0  0  0  0
 33 25  2  0  0  0  0
 35 27  1  0  0  0  0
 36 29  1  0  0  0  0
 37 30  1  0  0  0  0
 38 31  1  0  0  0  0
 39 40  1  0  0  0  0
 40 41  1  0  0  0  0
M  END
>  <minimizedAffinity>
-5.14950752

$$$$

 OpenBabel03262521263D

 41 43  0  0  0  0  0  0  0  0999 V2000
   37.9510   27.2760   33.1490 C   0  0  0  0  0  0  0  0  0  0  0  0
   37.3710   27.1110   34.0910 H   0  0  0  0  0  0  0  0  0  0  0  0
   38.5780   28.1790   33.3500 H   0  0  0  0  0  0  0  0  0  0  0  0
   36.9670   27.4880   32.0180 C   0  0  0  0  0  0  0  0  0  0  0  0
   37.5340   28.0150   31.2180 H   0  0  0  0  0  0  0  0  0  0  0  0
   36.8180   26.4520   31.5930 H   0  0  0  0  0  0  0  0  0  0  0  0
   35.8020   28.0700   32.4030 C   0  0  0  0  0  0  0  0  0  0  0  0
   35.1410   27.4210   33.0500 H   0  0  0  0  0  0  0  0  0  0  0  0
   35.1480   28.4550   31.5920 H   0  0  0  0  0  0  0  0  0  0  0  0
   36.3250   29.0720   33.1860 O   0  0  0  0  0  0  0  0  0  0  0  0
   35.4790   29.7470   34.0240 C   0  0  0  0  0  0  0  0  0  0  0  0
   34.1530   29.4740   33.7740 C   0  0  0  0  0  0  0  0  0  0  0  0
   33.1690   30.1010   34.5650 C   0  0  0  0  0  0  0  0  0  0  0  0
   33.6050   30.9530   35.5410 N   0  0  0  0  0  0  0  0  0  0  0  0
   34.9290   31.2010   35.7620 C   0  0  0  0  0  0  0  0  0  0  0  0
   35.8380   30.5870   34.9910 N   0  0  0  0  0  0  0  0  0  0  0  0
   34.1550   32.6900   37.4660 C   0  0  0  0  0  0  0  0  0  0  0  0
   32.9390   32.4750   37.2040 O   0  0  0  0  0  0  0  0  0  0  0  0
   35.2570   32.1070   36.8080 N   0  0  0  0  0  0  0  0  0  0  0  0
   33.6930   28.8250   33.0370 H   0  0  0  0  0  0  0  0  0  0  0  0
   32.1240   29.9590   34.4530 H   0  0  0  0  0  0  0  0  0  0  0  0
   34.3250   33.3930   38.2760 H   0  0  0  0  0  0  0  0  0  0  0  0
   36.2430   32.2880   37.0270 H   0  0  0  0  0  0  0  0  0  0  0  0
   39.0360   25.8770   32.9270 S   0  0  0  0  0  0  0  0  0  0  0  0
   40.4560   24.1570   34.6890 C   0  0  0  0  0  0  0  0  0  0  0  0
   39.3310   24.9400   34.3820 C   0  0  0  0  0  0  0  0  0  0  0  0
   38.3310   24.9740   35.3490 C   0  0  0  0  0  0  0  0  0  0  0  0
   38.4250   24.2920   36.5300 C   0  0  0  0  0  0  0  0  0  0  0  0
   37.6520   24.1450   37.6050 N   0  0  0  0  0  0  0  0  0  0  0  0
   38.2300   23.3290   38.5400 C   0  0  0  0  0  0  0  0  0  0  0  0
   39.4440   22.9470   38.0040 C   0  0  0  0  0  0  0  0  0  0  0  0
   39.5540   23.5450   36.7700 C   0  0  0  0  0  0  0  0  0  0  0  0
   40.5700   23.4680   35.8660 C   0  0  0  0  0  0  0  0  0  0  0  0
   41.2070   24.1590   33.9110 H   0  0  0  0  0  0  0  0  0  0  0  0
   37.4210   25.5440   35.2170 H   0  0  0  0  0  0  0  0  0  0  0  0
   36.7140   24.5850   37.7450 H   0  0  0  0  0  0  0  0  0  0  0  0
   37.7920   23.0600   39.4970 H   0  0  0  0  0  0  0  0  0  0  0  0
   40.1550   22.2920   38.5000 H   0  0  0  0  0  0  0  0  0  0  0  0
   41.7730   22.6600   36.1420 C   0  0  0  0  0  2  0  0  0  0  0  0
   42.9640   23.5740   36.3730 C   0  0  0  0  0  2  0  0  0  0  0  0
   43.8610   22.9480   36.6050 H   0  0  0  0  0  0  0  0  0  0  0  0
  1  3  1  0  0  0  0
  1  2  1  0  0  0  0
  4  7  1  0  0  0  0
  4  1  1  0  0  0  0
  5  4  1  0  0  0  0
  6  4  1  0  0  0  0
  7  8  1  0  0  0  0
  7 10  1  0  0  0  0
  9  7  1  0  0  0  0
 10 11  1  0  0  0  0
 11 16  1  0  0  0  0
 12 11  2  0  0  0  0
 12 13  1  0  0  0  0
 13 14  2  0  0  0  0
 14 15  1  0  0  0  0
 15 19  1  0  0  0  0
 16 15  2  0  0  0  0
 17 22  1  0  0  0  0
 18 17  2  0  0  0  0
 19 23  1  0  0  0  0
 19 17  1  0  0  0  0
 20 12  1  0  0  0  0
 21 13  1  0  0  0  0
 24  1  1  0  0  0  0
 24 26  1  0  0  0  0
 25 33  1  0  0  0  0
 26 25  2  0  0  0  0
 26 27  1  0  0  0  0
 27 28  2  0  0  0  0
 28 32  1  0  0  0  0
 28 29  1  0  0  0  0
 29 36  1  0  0  0  0
 29 30  1  0  0  0  0
 30 37  1  0  0  0  0
 31 38  1  0  0  0  0
 31 30  2  0  0  0  0
 32 31  1  0  0  0  0
 33 39  1  0  0  0  0
 33 32  2  0  0  0  0
 34 25  1  0  0  0  0
 35 27  1  0  0  0  0
 39 40  1  0  0  0  0
 40 41  1  0  0  0  0
M  END
>  <minimizedAffinity>
-5.13597202

$$$$
