
 OpenBabel03262523123D

 23 24  0  0  0  0  0  0  0  0999 V2000
   34.9420   29.5100   48.3350 C   0  0  0  0  0  0  0  0  0  0  0  0
   34.5770   28.2310   48.6730 C   0  0  0  0  0  0  0  0  0  0  0  0
   33.4700   27.7780   47.9870 C   0  0  0  0  0  0  0  0  0  0  0  0
   32.7910   28.5230   47.0540 C   0  0  0  0  0  0  0  0  0  0  0  0
   33.2250   29.8010   46.7720 C   0  0  0  0  0  0  0  0  0  0  0  0
   34.3010   30.2690   47.4270 N   0  0  0  0  0  0  0  0  0  0  0  0
   35.1030   27.6510   49.3970 H   0  0  0  0  0  0  0  0  0  0  0  0
   33.0890   26.7660   48.1800 H   0  0  0  0  0  0  0  0  0  0  0  0
   31.9180   28.1370   46.5270 H   0  0  0  0  0  0  0  0  0  0  0  0
   37.5860   30.2190   50.7920 C   0  0  0  0  0  0  0  0  0  0  0  0
   38.3050   31.2540   50.1810 C   0  0  0  0  0  0  0  0  0  0  0  0
   37.8630   31.6970   48.9190 C   0  0  0  0  0  0  0  0  0  0  0  0
   36.7840   31.1000   48.3850 N   0  0  0  0  0  0  0  0  0  0  0  0
   36.1060   30.1040   48.9920 C   0  0  0  0  0  0  0  0  0  0  0  0
   36.5270   29.6790   50.2000 N   0  0  0  0  0  0  0  0  0  0  0  0
   39.1610   31.6930   50.6590 H   0  0  0  0  0  0  0  0  0  0  0  0
   38.3910   32.4960   48.4110 H   0  0  0  0  0  0  0  0  0  0  0  0
   37.9690   29.7170   52.0660 N   0  0  0  0  0  0  0  0  0  0  0  0
   37.2680   29.2600   52.6890 H   0  0  0  0  0  0  0  0  0  0  0  0
   38.9700   29.8190   52.3580 H   0  0  0  0  0  0  0  0  0  0  0  0
   32.4920   30.6100   45.7640 C   0  0  0  0  0  0  0  0  0  0  0  0
   31.0610   30.0690   45.7540 C   0  0  0  0  0  0  0  0  0  0  0  0
   30.3490   30.8870   45.6210 H   0  0  0  0  0  0  0  0  0  0  0  0
  1  2  1  0  0  0  0
  1 14  1  0  0  0  0
  2  7  1  0  0  0  0
  3  8  1  0  0  0  0
  3  2  2  0  0  0  0
  4  3  1  0  0  0  0
  5  4  2  0  0  0  0
  5  6  1  0  0  0  0
  6  1  2  0  0  0  0
  9  4  1  0  0  0  0
 10 18  1  0  0  0  0
 11 16  1  0  0  0  0
 11 10  2  0  0  0  0
 12 11  1  0  0  0  0
 13 12  2  0  0  0  0
 13 14  1  0  0  0  0
 14 15  2  0  0  0  0
 15 10  1  0  0  0  0
 17 12  1  0  0  0  0
 18 20  1  0  0  0  0
 18 19  1  0  0  0  0
 21  5  1  0  0  0  0
 22 21  1  0  0  0  0
 23 22  1  0  0  0  0
M  END
>  <minimizedAffinity>
-4.94157982

>  <minimizedRMSD>
0.443906933

$$$$
