
 OpenBabel03272510263D

 39 42  0  0  1  0  0  0  0  0999 V2000
   36.1750   30.1790   46.9750 C   0  0  0  0  0  0  0  0  0  0  0  0
   37.0230   30.7400   47.9260 C   0  0  0  0  0  0  0  0  0  0  0  0
   38.0090   31.6420   47.5600 C   0  0  0  0  0  0  0  0  0  0  0  0
   38.1060   31.9500   46.2070 C   0  0  0  0  0  0  0  0  0  0  0  0
   38.9870   32.8010   45.6090 N   0  0  0  0  0  0  0  0  0  0  0  0
   38.7030   32.7780   44.2960 C   0  0  0  0  0  0  0  0  0  0  0  0
   37.6990   31.9610   44.0610 N   0  0  0  0  0  0  0  0  0  0  0  0
   37.2870   31.4160   45.2320 C   0  0  0  0  0  0  0  0  0  0  0  0
   36.2970   30.5070   45.6300 C   0  0  0  0  0  0  0  0  0  0  0  0
   35.3840   29.4710   47.1810 H   0  0  0  0  0  0  0  0  0  0  0  0
   38.6620   32.0720   48.3040 H   0  0  0  0  0  0  0  0  0  0  0  0
   39.7430   33.3660   46.0820 H   0  0  0  0  0  0  0  0  0  0  0  0
   35.6600   30.0940   44.8570 H   0  0  0  0  0  0  0  0  0  0  0  0
   37.4320   30.1080   51.6010 C   0  0  0  0  0  0  0  0  0  0  0  0
   37.7280   30.5520   50.3240 C   0  0  0  0  0  0  0  0  0  0  0  0
   36.8170   30.3260   49.2990 C   0  0  0  0  0  0  0  0  0  0  0  0
   35.6630   29.6680   49.6150 N   0  0  0  0  0  0  0  0  0  0  0  0
   35.3820   29.2390   50.8620 C   0  0  0  0  0  0  0  0  0  0  0  0
   36.2620   29.4600   51.8360 N   0  0  0  0  0  0  0  0  0  0  0  0
   38.1360   30.2820   52.3940 H   0  0  0  0  0  0  0  0  0  0  0  0
   38.6480   31.0720   50.0900 H   0  0  0  0  0  0  0  0  0  0  0  0
   34.4250   28.7300   50.9610 H   0  0  0  0  0  0  0  0  0  0  0  0
   39.4270   33.5500   43.3750 O   0  0  0  0  0  0  0  0  0  0  0  0
   39.9230   31.6350   42.2380 N   0  0  0  0  0  0  0  0  0  0  0  0
   39.4950   33.0370   42.0520 C   0  0  1  0  0  0  0  0  0  0  0  0
   38.1960   33.0410   41.3870 C   0  0  0  0  0  0  0  0  0  0  0  0
   38.3530   32.5080   40.0960 O   0  0  0  0  0  0  0  0  0  0  0  0
   38.9120   31.2640   40.0420 C   0  0  0  0  0  0  0  0  0  0  0  0
   40.1360   31.1200   40.9040 C   0  0  2  0  0  0  0  0  0  0  0  0
   40.8880   31.7360   42.6610 H   0  0  0  0  0  0  0  0  0  0  0  0
   40.2230   33.5800   41.4290 H   0  0  0  0  0  0  0  0  0  0  0  0
   37.9230   34.1220   41.1880 H   0  0  0  0  0  0  0  0  0  0  0  0
   37.3230   32.5720   41.7490 H   0  0  0  0  0  0  0  0  0  0  0  0
   38.1910   30.4360   40.2990 H   0  0  0  0  0  0  0  0  0  0  0  0
   39.2570   31.1180   38.9960 H   0  0  0  0  0  0  0  0  0  0  0  0
   41.0340   31.5840   40.4450 H   0  0  0  0  0  0  0  0  0  0  0  0
   40.4500   29.6370   41.0690 C   0  0  0  0  0  2  0  0  0  0  0  0
   40.1620   29.1370   42.4450 C   0  0  0  0  0  2  0  0  0  0  0  0
   39.4590   29.7670   43.0270 H   0  0  0  0  0  0  0  0  0  0  0  0
  1 10  1  0  0  0  0
  1  2  1  0  0  0  0
  2 16  1  0  0  0  0
  3  2  2  0  0  0  0
  3 11  1  0  0  0  0
  4  3  1  0  0  0  0
  5 12  1  0  0  0  0
  5  4  1  0  0  0  0
  6  5  1  0  0  0  0
  7  6  2  0  0  0  0
  7  8  1  0  0  0  0
  8  9  1  0  0  0  0
  8  4  2  0  0  0  0
  9  1  2  0  0  0  0
 13  9  1  0  0  0  0
 14 19  1  0  0  0  0
 14 20  1  0  0  0  0
 15 14  2  0  0  0  0
 16 17  2  0  0  0  0
 16 15  1  0  0  0  0
 17 18  1  0  0  0  0
 18 22  1  0  0  0  0
 18 19  2  0  0  0  0
 21 15  1  0  0  0  0
 23  6  1  0  0  0  0
 24 30  1  0  0  0  0
 25 31  1  6  0  0  0
 25 24  1  0  0  0  0
 25 23  1  0  0  0  0
 26 33  1  0  0  0  0
 26 25  1  0  0  0  0
 27 26  1  0  0  0  0
 28 27  1  0  0  0  0
 28 34  1  0  0  0  0
 28 29  1  0  0  0  0
 29 36  1  6  0  0  0
 29 37  1  0  0  0  0
 29 24  1  0  0  0  0
 32 26  1  0  0  0  0
 35 28  1  0  0  0  0
 37 38  1  0  0  0  0
 38 39  1  0  0  0  0
M  END
>  <minimizedAffinity>
-5.57539701

>  <minimizedRMSD>
0.553830445

$$$$
