
 OpenBabel03272501483D

 14 14  0  0  0  0  0  0  0  0999 V2000
   37.1780   29.5960   51.2730 C   0  0  0  0  0  0  0  0  0  0  0  0
   37.8990   30.7030   50.7730 C   0  0  0  0  0  0  0  0  0  0  0  0
   37.2230   31.5500   49.8460 C   0  0  0  0  0  0  0  0  0  0  0  0
   35.9270   31.2360   49.5030 N   0  0  0  0  0  0  0  0  0  0  0  0
   35.3120   30.1660   50.0220 C   0  0  0  0  0  0  0  0  0  0  0  0
   35.9110   29.3400   50.9000 N   0  0  0  0  0  0  0  0  0  0  0  0
   33.9660   29.9730   49.5690 N   0  0  0  0  0  0  0  0  0  0  0  0
   37.6620   28.9330   51.9790 H   0  0  0  0  0  0  0  0  0  0  0  0
   38.9140   30.9200   51.0630 H   0  0  0  0  0  0  0  0  0  0  0  0
   33.6670   29.3960   48.7500 H   0  0  0  0  0  0  0  0  0  0  0  0
   33.4870   30.5560   50.2880 H   0  0  0  0  0  0  0  0  0  0  0  0
   37.9440   32.7150   49.3040 C   0  0  0  0  0  0  0  0  0  0  0  0
   38.7360   32.4200   48.0730 C   0  0  0  0  0  0  0  0  0  0  0  0
   38.2080   32.8450   47.2020 H   0  0  0  0  0  0  0  0  0  0  0  0
  1  8  1  0  0  0  0
  2  9  1  0  0  0  0
  2  1  2  0  0  0  0
  3  2  1  0  0  0  0
  4  3  2  0  0  0  0
  4  5  1  0  0  0  0
  5  6  2  0  0  0  0
  6  1  1  0  0  0  0
  7  5  1  0  0  0  0
  7 11  1  0  0  0  0
 10  7  1  0  0  0  0
 12  3  1  0  0  0  0
 13 12  1  0  0  0  0
 14 13  1  0  0  0  0
M  END
>  <minimizedAffinity>
-4.00861454

>  <minimizedRMSD>
1.5914011

$$$$
