
 OpenBabel03272500403D

 19 20  0  0  1  0  0  0  0  0999 V2000
   37.8750   26.3520   35.0350 C   0  0  1  0  0  0  0  0  0  0  0  0
   38.2800   27.4260   35.9370 C   0  0  0  0  0  0  0  0  0  0  0  0
   39.1440   27.1260   34.7450 C   0  0  1  0  0  0  0  0  0  0  0  0
   37.0340   26.4930   34.3240 H   0  0  0  0  0  0  0  0  0  0  0  0
   37.6670   28.3460   35.9740 H   0  0  0  0  0  0  0  0  0  0  0  0
   38.7170   27.1900   36.9240 H   0  0  0  0  0  0  0  0  0  0  0  0
   39.0330   27.8870   33.9450 H   0  0  0  0  0  0  0  0  0  0  0  0
   38.1120   24.9190   35.3940 C   0  0  0  0  0  0  0  0  0  0  0  0
   38.2070   24.5970   36.7620 C   0  0  0  0  0  0  0  0  0  0  0  0
   38.4620   23.2590   37.0630 C   0  0  0  0  0  0  0  0  0  0  0  0
   38.6040   22.3460   36.0520 N   0  0  0  0  0  0  0  0  0  0  0  0
   38.5050   22.7020   34.7530 C   0  0  0  0  0  0  0  0  0  0  0  0
   38.2550   24.0000   34.4180 N   0  0  0  0  0  0  0  0  0  0  0  0
   38.0840   25.3710   37.5070 H   0  0  0  0  0  0  0  0  0  0  0  0
   38.5440   22.9680   38.1050 H   0  0  0  0  0  0  0  0  0  0  0  0
   38.6140   21.9930   33.9420 H   0  0  0  0  0  0  0  0  0  0  0  0
   40.4650   26.4430   34.8730 C   0  0  0  0  0  2  0  0  0  0  0  0
   41.4230   27.0270   33.8940 C   0  0  0  0  0  2  0  0  0  0  0  0
   40.8910   27.6480   33.1440 H   0  0  0  0  0  0  0  0  0  0  0  0
  1  4  1  6  0  0  0
  1  8  1  0  0  0  0
  1  2  1  0  0  0  0
  2  5  1  0  0  0  0
  2  6  1  0  0  0  0
  3  7  1  6  0  0  0
  3 17  1  0  0  0  0
  3  1  1  0  0  0  0
  3  2  1  0  0  0  0
  8  9  1  0  0  0  0
  9 10  2  0  0  0  0
  9 14  1  0  0  0  0
 10 15  1  0  0  0  0
 11 10  1  0  0  0  0
 12 11  2  0  0  0  0
 13 12  1  0  0  0  0
 13  8  2  0  0  0  0
 16 12  1  0  0  0  0
 18 17  1  0  0  0  0
 19 18  1  0  0  0  0
M  END
>  <minimizedAffinity>
-3.67060113

$$$$

 OpenBabel03272500403D

 19 20  0  0  1  0  0  0  0  0999 V2000
   37.9820   23.2320   37.1280 C   0  0  1  0  0  0  0  0  0  0  0  0
   37.9490   24.2340   38.1880 C   0  0  0  0  0  0  0  0  0  0  0  0
   37.6950   24.6760   36.7740 C   0  0  1  0  0  0  0  0  0  0  0  0
   37.1470   22.5120   36.9980 H   0  0  0  0  0  0  0  0  0  0  0  0
   37.1260   24.1980   38.9260 H   0  0  0  0  0  0  0  0  0  0  0  0
   38.8880   24.5940   38.6460 H   0  0  0  0  0  0  0  0  0  0  0  0
   36.6210   24.8880   36.5890 H   0  0  0  0  0  0  0  0  0  0  0  0
   39.2850   22.7280   36.5900 C   0  0  0  0  0  0  0  0  0  0  0  0
   40.3660   22.6310   37.4870 C   0  0  0  0  0  0  0  0  0  0  0  0
   41.5750   22.1910   36.9480 C   0  0  0  0  0  0  0  0  0  0  0  0
   41.6580   21.8830   35.6160 N   0  0  0  0  0  0  0  0  0  0  0  0
   40.5930   21.9920   34.7930 C   0  0  0  0  0  0  0  0  0  0  0  0
   39.3930   22.4180   35.2820 N   0  0  0  0  0  0  0  0  0  0  0  0
   40.2280   22.8920   38.5280 H   0  0  0  0  0  0  0  0  0  0  0  0
   42.4350   22.1020   37.6050 H   0  0  0  0  0  0  0  0  0  0  0  0
   40.6410   21.7520   33.7380 H   0  0  0  0  0  0  0  0  0  0  0  0
   38.6990   25.4540   35.9930 C   0  0  0  0  0  2  0  0  0  0  0  0
   38.4020   26.9090   36.1120 C   0  0  0  0  0  2  0  0  0  0  0  0
   37.3910   27.0720   36.5370 H   0  0  0  0  0  0  0  0  0  0  0  0
  1  4  1  6  0  0  0
  1  2  1  0  0  0  0
  2  6  1  0  0  0  0
  2  5  1  0  0  0  0
  3  7  1  6  0  0  0
  3  1  1  0  0  0  0
  3  2  1  0  0  0  0
  8  1  1  0  0  0  0
  8  9  1  0  0  0  0
  9 14  1  0  0  0  0
 10  9  2  0  0  0  0
 10 15  1  0  0  0  0
 11 10  1  0  0  0  0
 12 13  1  0  0  0  0
 12 11  2  0  0  0  0
 13  8  2  0  0  0  0
 16 12  1  0  0  0  0
 17 18  1  0  0  0  0
 17  3  1  0  0  0  0
 18 19  1  0  0  0  0
M  END
>  <minimizedAffinity>
-3.60357308

$$$$

 OpenBabel03272500403D

 19 20  0  0  1  0  0  0  0  0999 V2000
   37.5430   27.1360   35.3060 C   0  0  1  0  0  0  0  0  0  0  0  0
   38.2370   26.0720   36.0240 C   0  0  0  0  0  0  0  0  0  0  0  0
   39.0480   27.2030   35.4570 C   0  0  1  0  0  0  0  0  0  0  0  0
   36.9540   27.9020   35.8540 H   0  0  0  0  0  0  0  0  0  0  0  0
   38.0810   25.9780   37.1140 H   0  0  0  0  0  0  0  0  0  0  0  0
   38.3860   25.0840   35.5490 H   0  0  0  0  0  0  0  0  0  0  0  0
   39.3900   27.9070   36.2440 H   0  0  0  0  0  0  0  0  0  0  0  0
   37.0870   26.9390   33.8940 C   0  0  0  0  0  0  0  0  0  0  0  0
   36.6440   28.0740   33.1880 C   0  0  0  0  0  0  0  0  0  0  0  0
   36.1940   27.8510   31.8860 C   0  0  0  0  0  0  0  0  0  0  0  0
   36.2010   26.5830   31.3680 N   0  0  0  0  0  0  0  0  0  0  0  0
   36.6370   25.5240   32.0840 C   0  0  0  0  0  0  0  0  0  0  0  0
   37.0850   25.7010   33.3590 N   0  0  0  0  0  0  0  0  0  0  0  0
   36.6660   29.0460   33.6620 H   0  0  0  0  0  0  0  0  0  0  0  0
   35.8430   28.6990   31.3060 H   0  0  0  0  0  0  0  0  0  0  0  0
   36.6500   24.5170   31.6890 H   0  0  0  0  0  0  0  0  0  0  0  0
   39.9150   27.0350   34.2540 C   0  0  0  0  0  2  0  0  0  0  0  0
   41.1750   26.3430   34.6440 C   0  0  0  0  0  2  0  0  0  0  0  0
   41.2930   26.3280   35.7460 H   0  0  0  0  0  0  0  0  0  0  0  0
  1  3  1  0  0  0  0
  1  4  1  1  0  0  0
  1  2  1  0  0  0  0
  2  5  1  0  0  0  0
  3  2  1  0  0  0  0
  3  7  1  1  0  0  0
  6  2  1  0  0  0  0
  8  1  1  0  0  0  0
  9 14  1  0  0  0  0
  9  8  2  0  0  0  0
 10  9  1  0  0  0  0
 11 10  2  0  0  0  0
 11 12  1  0  0  0  0
 12 13  2  0  0  0  0
 13  8  1  0  0  0  0
 15 10  1  0  0  0  0
 16 12  1  0  0  0  0
 17 18  1  0  0  0  0
 17  3  1  0  0  0  0
 18 19  1  0  0  0  0
M  END
>  <minimizedAffinity>
-3.58080292

$$$$

 OpenBabel03272500403D

 19 20  0  0  1  0  0  0  0  0999 V2000
   39.3150   26.3460   35.8230 C   0  0  1  0  0  0  0  0  0  0  0  0
   39.6050   27.0050   34.5530 C   0  0  0  0  0  0  0  0  0  0  0  0
   38.3860   27.4320   35.3210 C   0  0  1  0  0  0  0  0  0  0  0  0
   39.9060   26.5780   36.7330 H   0  0  0  0  0  0  0  0  0  0  0  0
   40.4920   27.6630   34.4880 H   0  0  0  0  0  0  0  0  0  0  0  0
   39.4170   26.4830   33.5970 H   0  0  0  0  0  0  0  0  0  0  0  0
   38.5290   28.4120   35.8220 H   0  0  0  0  0  0  0  0  0  0  0  0
   38.6900   24.9860   35.8550 C   0  0  0  0  0  0  0  0  0  0  0  0
   38.0670   24.5840   37.0530 C   0  0  0  0  0  0  0  0  0  0  0  0
   37.5240   23.2980   37.0610 C   0  0  0  0  0  0  0  0  0  0  0  0
   37.6160   22.5100   35.9450 N   0  0  0  0  0  0  0  0  0  0  0  0
   38.2230   22.9400   34.8180 C   0  0  0  0  0  0  0  0  0  0  0  0
   38.7650   24.1900   34.7700 N   0  0  0  0  0  0  0  0  0  0  0  0
   38.0330   25.2600   37.8950 H   0  0  0  0  0  0  0  0  0  0  0  0
   37.0360   22.9480   37.9650 H   0  0  0  0  0  0  0  0  0  0  0  0
   38.3030   22.3300   33.9280 H   0  0  0  0  0  0  0  0  0  0  0  0
   37.0060   27.0730   34.8830 C   0  0  0  0  0  2  0  0  0  0  0  0
   36.6700   27.8190   33.6380 C   0  0  0  0  0  2  0  0  0  0  0  0
   37.4010   28.6330   33.4570 H   0  0  0  0  0  0  0  0  0  0  0  0
  1  8  1  0  0  0  0
  1  4  1  1  0  0  0
  2  3  1  0  0  0  0
  2  1  1  0  0  0  0
  3  7  1  1  0  0  0
  3  1  1  0  0  0  0
  5  2  1  0  0  0  0
  6  2  1  0  0  0  0
  8  9  1  0  0  0  0
  9 10  2  0  0  0  0
  9 14  1  0  0  0  0
 10 15  1  0  0  0  0
 11 10  1  0  0  0  0
 12 11  2  0  0  0  0
 13 12  1  0  0  0  0
 13  8  2  0  0  0  0
 16 12  1  0  0  0  0
 17  3  1  0  0  0  0
 18 17  1  0  0  0  0
 19 18  1  0  0  0  0
M  END
>  <minimizedAffinity>
-3.53330493

$$$$

 OpenBabel03272500403D

 19 20  0  0  1  0  0  0  0  0999 V2000
   37.6760   24.3420   37.1810 C   0  0  1  0  0  0  0  0  0  0  0  0
   37.3620   22.9240   37.0350 C   0  0  0  0  0  0  0  0  0  0  0  0
   38.6940   23.3080   37.6160 C   0  0  1  0  0  0  0  0  0  0  0  0
   37.2090   24.9490   37.9850 H   0  0  0  0  0  0  0  0  0  0  0  0
   36.5710   22.4880   37.6730 H   0  0  0  0  0  0  0  0  0  0  0  0
   37.3880   22.4460   36.0380 H   0  0  0  0  0  0  0  0  0  0  0  0
   38.7320   23.1500   38.7130 H   0  0  0  0  0  0  0  0  0  0  0  0
   38.1100   25.1560   36.0020 C   0  0  0  0  0  0  0  0  0  0  0  0
   38.5560   26.4700   36.2460 C   0  0  0  0  0  0  0  0  0  0  0  0
   38.9210   27.2140   35.1240 C   0  0  0  0  0  0  0  0  0  0  0  0
   38.8340   26.6560   33.8760 N   0  0  0  0  0  0  0  0  0  0  0  0
   38.4000   25.3910   33.6910 C   0  0  0  0  0  0  0  0  0  0  0  0
   38.0350   24.6310   34.7630 N   0  0  0  0  0  0  0  0  0  0  0  0
   38.5980   26.8440   37.2600 H   0  0  0  0  0  0  0  0  0  0  0  0
   39.2700   28.2310   35.2670 H   0  0  0  0  0  0  0  0  0  0  0  0
   38.3260   24.9350   32.7120 H   0  0  0  0  0  0  0  0  0  0  0  0
   39.9660   23.1630   36.8490 C   0  0  0  0  0  2  0  0  0  0  0  0
   40.7990   22.0950   37.4690 C   0  0  0  0  0  2  0  0  0  0  0  0
   40.4120   21.8250   38.4720 H   0  0  0  0  0  0  0  0  0  0  0  0
  1  3  1  0  0  0  0
  1  4  1  1  0  0  0
  2  1  1  0  0  0  0
  2  3  1  0  0  0  0
  2  5  1  0  0  0  0
  3  7  1  1  0  0  0
  6  2  1  0  0  0  0
  8  9  1  0  0  0  0
  8  1  1  0  0  0  0
  9 14  1  0  0  0  0
 10 15  1  0  0  0  0
 10  9  2  0  0  0  0
 11 10  1  0  0  0  0
 12 11  2  0  0  0  0
 12 13  1  0  0  0  0
 13  8  2  0  0  0  0
 16 12  1  0  0  0  0
 17 18  1  0  0  0  0
 17  3  1  0  0  0  0
 18 19  1  0  0  0  0
M  END
>  <minimizedAffinity>
-3.44399571

$$$$

 OpenBabel03272500403D

 19 20  0  0  1  0  0  0  0  0999 V2000
   35.1530   20.7050   31.6950 C   0  0  1  0  0  0  0  0  0  0  0  0
   35.6600   19.3800   32.0430 C   0  0  0  0  0  0  0  0  0  0  0  0
   35.2290   20.2980   33.1520 C   0  0  1  0  0  0  0  0  0  0  0  0
   34.1370   20.8310   31.2670 H   0  0  0  0  0  0  0  0  0  0  0  0
   35.0550   18.4940   31.7750 H   0  0  0  0  0  0  0  0  0  0  0  0
   36.7420   19.1640   31.9860 H   0  0  0  0  0  0  0  0  0  0  0  0
   34.2520   20.0000   33.5860 H   0  0  0  0  0  0  0  0  0  0  0  0
   36.0910   21.8120   31.3300 C   0  0  0  0  0  0  0  0  0  0  0  0
   35.5940   23.1290   31.3770 C   0  0  0  0  0  0  0  0  0  0  0  0
   36.4830   24.1360   30.9970 C   0  0  0  0  0  0  0  0  0  0  0  0
   37.7560   23.8130   30.6080 N   0  0  0  0  0  0  0  0  0  0  0  0
   38.1880   22.5340   30.5790 C   0  0  0  0  0  0  0  0  0  0  0  0
   37.3500   21.5220   30.9430 N   0  0  0  0  0  0  0  0  0  0  0  0
   34.5760   23.3100   31.6950 H   0  0  0  0  0  0  0  0  0  0  0  0
   36.1400   25.1660   31.0190 H   0  0  0  0  0  0  0  0  0  0  0  0
   39.1900   22.2620   30.2740 H   0  0  0  0  0  0  0  0  0  0  0  0
   36.2110   20.9710   34.0520 C   0  0  0  0  0  2  0  0  0  0  0  0
   35.7650   20.8320   35.4660 C   0  0  0  0  0  2  0  0  0  0  0  0
   34.7130   20.4840   35.5160 H   0  0  0  0  0  0  0  0  0  0  0  0
  1  4  1  6  0  0  0
  1  2  1  0  0  0  0
  1  3  1  0  0  0  0
  2  3  1  0  0  0  0
  3  7  1  1  0  0  0
  3 17  1  0  0  0  0
  5  2  1  0  0  0  0
  6  2  1  0  0  0  0
  8  9  1  0  0  0  0
  8  1  1  0  0  0  0
  9 14  1  0  0  0  0
 10 15  1  0  0  0  0
 10  9  2  0  0  0  0
 11 10  1  0  0  0  0
 12 11  2  0  0  0  0
 12 13  1  0  0  0  0
 13  8  2  0  0  0  0
 16 12  1  0  0  0  0
 17 18  1  0  0  0  0
 18 19  1  0  0  0  0
M  END
>  <minimizedAffinity>
-3.40242791

$$$$

 OpenBabel03272500403D

 19 20  0  0  1  0  0  0  0  0999 V2000
   39.4180   26.3590   35.7160 C   0  0  1  0  0  0  0  0  0  0  0  0
   39.6330   27.0050   34.4250 C   0  0  0  0  0  0  0  0  0  0  0  0
   38.4550   27.4330   35.2550 C   0  0  1  0  0  0  0  0  0  0  0  0
   40.0560   26.6060   36.5900 H   0  0  0  0  0  0  0  0  0  0  0  0
   40.5100   27.6680   34.3040 H   0  0  0  0  0  0  0  0  0  0  0  0
   39.3970   26.4710   33.4870 H   0  0  0  0  0  0  0  0  0  0  0  0
   38.6180   28.4190   35.7360 H   0  0  0  0  0  0  0  0  0  0  0  0
   38.8060   24.9950   35.7980 C   0  0  0  0  0  0  0  0  0  0  0  0
   38.9110   24.1650   34.6660 C   0  0  0  0  0  0  0  0  0  0  0  0
   38.3010   22.9140   34.7620 C   0  0  0  0  0  0  0  0  0  0  0  0
   37.6480   22.5580   35.9120 N   0  0  0  0  0  0  0  0  0  0  0  0
   37.5730   23.3890   36.9730 C   0  0  0  0  0  0  0  0  0  0  0  0
   38.1570   24.6200   36.9190 N   0  0  0  0  0  0  0  0  0  0  0  0
   39.4430   24.5120   33.7910 H   0  0  0  0  0  0  0  0  0  0  0  0
   38.3580   22.2420   33.9110 H   0  0  0  0  0  0  0  0  0  0  0  0
   37.0610   23.1240   37.8890 H   0  0  0  0  0  0  0  0  0  0  0  0
   37.0550   27.0580   34.8980 C   0  0  0  0  0  2  0  0  0  0  0  0
   36.6310   27.8190   33.6890 C   0  0  0  0  0  2  0  0  0  0  0  0
   37.3370   28.6480   33.4770 H   0  0  0  0  0  0  0  0  0  0  0  0
  1  8  1  0  0  0  0
  1  4  1  1  0  0  0
  2  3  1  0  0  0  0
  2  1  1  0  0  0  0
  3  1  1  0  0  0  0
  3  7  1  1  0  0  0
  5  2  1  0  0  0  0
  6  2  1  0  0  0  0
  8 13  1  0  0  0  0
  9 10  1  0  0  0  0
  9  8  2  0  0  0  0
 10 11  2  0  0  0  0
 11 12  1  0  0  0  0
 12 16  1  0  0  0  0
 13 12  2  0  0  0  0
 14  9  1  0  0  0  0
 15 10  1  0  0  0  0
 17  3  1  0  0  0  0
 18 17  1  0  0  0  0
 19 18  1  0  0  0  0
M  END
>  <minimizedAffinity>
-3.38884687

$$$$

 OpenBabel03272500403D

 19 20  0  0  1  0  0  0  0  0999 V2000
   36.0250   31.5300   35.7580 C   0  0  1  0  0  0  0  0  0  0  0  0
   35.7460   32.9320   36.0540 C   0  0  0  0  0  0  0  0  0  0  0  0
   34.8710   31.8790   36.6740 C   0  0  1  0  0  0  0  0  0  0  0  0
   36.8900   31.0110   36.2220 H   0  0  0  0  0  0  0  0  0  0  0  0
   36.4700   33.4990   36.6670 H   0  0  0  0  0  0  0  0  0  0  0  0
   35.2640   33.5770   35.2960 H   0  0  0  0  0  0  0  0  0  0  0  0
   35.0930   31.7320   37.7510 H   0  0  0  0  0  0  0  0  0  0  0  0
   35.5990   30.9220   34.4580 C   0  0  0  0  0  0  0  0  0  0  0  0
   35.5890   29.5160   34.3690 C   0  0  0  0  0  0  0  0  0  0  0  0
   35.2200   28.9810   33.1350 C   0  0  0  0  0  0  0  0  0  0  0  0
   34.8960   29.8140   32.0970 N   0  0  0  0  0  0  0  0  0  0  0  0
   34.9210   31.1580   32.2300 C   0  0  0  0  0  0  0  0  0  0  0  0
   35.2750   31.7190   33.4210 N   0  0  0  0  0  0  0  0  0  0  0  0
   35.8570   28.9200   35.2310 H   0  0  0  0  0  0  0  0  0  0  0  0
   35.1990   27.9010   33.0230 H   0  0  0  0  0  0  0  0  0  0  0  0
   34.6670   31.8300   31.4200 H   0  0  0  0  0  0  0  0  0  0  0  0
   33.4720   31.6380   36.2160 C   0  0  0  0  0  2  0  0  0  0  0  0
   32.6680   31.0900   37.3440 C   0  0  0  0  0  2  0  0  0  0  0  0
   33.3260   30.7620   38.1750 H   0  0  0  0  0  0  0  0  0  0  0  0
  1  2  1  0  0  0  0
  1  4  1  1  0  0  0
  1  3  1  0  0  0  0
  2  5  1  0  0  0  0
  2  3  1  0  0  0  0
  3  7  1  1  0  0  0
  6  2  1  0  0  0  0
  8  1  1  0  0  0  0
  9  8  1  0  0  0  0
  9 14  1  0  0  0  0
 10  9  2  0  0  0  0
 11 12  2  0  0  0  0
 11 10  1  0  0  0  0
 12 13  1  0  0  0  0
 13  8  2  0  0  0  0
 15 10  1  0  0  0  0
 16 12  1  0  0  0  0
 17  3  1  0  0  0  0
 17 18  1  0  0  0  0
 18 19  1  0  0  0  0
M  END
>  <minimizedAffinity>
-3.34278846

$$$$

 OpenBabel03272500403D

 19 20  0  0  1  0  0  0  0  0999 V2000
   38.4210   23.2180   34.9230 C   0  0  1  0  0  0  0  0  0  0  0  0
   39.5060   22.2590   34.7340 C   0  0  0  0  0  0  0  0  0  0  0  0
   38.8350   22.3290   36.0780 C   0  0  1  0  0  0  0  0  0  0  0  0
   37.4160   23.0330   34.4890 H   0  0  0  0  0  0  0  0  0  0  0  0
   39.3400   21.3960   34.0630 H   0  0  0  0  0  0  0  0  0  0  0  0
   40.5560   22.6040   34.6990 H   0  0  0  0  0  0  0  0  0  0  0  0
   38.1540   21.4700   36.2500 H   0  0  0  0  0  0  0  0  0  0  0  0
   38.7110   24.6690   35.1470 C   0  0  0  0  0  0  0  0  0  0  0  0
   39.9360   25.1700   34.6660 C   0  0  0  0  0  0  0  0  0  0  0  0
   40.1920   26.5180   34.9200 C   0  0  0  0  0  0  0  0  0  0  0  0
   39.2740   27.2710   35.6020 N   0  0  0  0  0  0  0  0  0  0  0  0
   38.1110   26.7460   36.0450 C   0  0  0  0  0  0  0  0  0  0  0  0
   37.8240   25.4330   35.8160 N   0  0  0  0  0  0  0  0  0  0  0  0
   40.6140   24.5160   34.1340 H   0  0  0  0  0  0  0  0  0  0  0  0
   41.1250   26.9450   34.5660 H   0  0  0  0  0  0  0  0  0  0  0  0
   37.3750   27.3270   36.5860 H   0  0  0  0  0  0  0  0  0  0  0  0
   39.5020   22.9340   37.2670 C   0  0  0  0  0  2  0  0  0  0  0  0
   40.7740   22.2100   37.5450 C   0  0  0  0  0  2  0  0  0  0  0  0
   40.8190   21.2590   36.9760 H   0  0  0  0  0  0  0  0  0  0  0  0
  1  4  1  6  0  0  0
  1  8  1  0  0  0  0
  1  3  1  0  0  0  0
  2  1  1  0  0  0  0
  2  3  1  0  0  0  0
  3  7  1  1  0  0  0
  3 17  1  0  0  0  0
  5  2  1  0  0  0  0
  6  2  1  0  0  0  0
  8 13  1  0  0  0  0
  9 10  1  0  0  0  0
  9  8  2  0  0  0  0
 10 11  2  0  0  0  0
 11 12  1  0  0  0  0
 12 16  1  0  0  0  0
 13 12  2  0  0  0  0
 14  9  1  0  0  0  0
 15 10  1  0  0  0  0
 17 18  1  0  0  0  0
 19 18  1  0  0  0  0
M  END
>  <minimizedAffinity>
-3.24965525

$$$$
