
 OpenBabel03272506153D

 18 18  0  0  0  0  0  0  0  0999 V2000
   38.9550   24.4510   36.0640 C   0  0  0  0  0  0  0  0  0  0  0  0
   39.9420   23.4670   36.2380 C   0  0  0  0  0  0  0  0  0  0  0  0
   40.0090   22.7600   37.4220 C   0  0  0  0  0  0  0  0  0  0  0  0
   39.0950   23.0490   38.4000 N   0  0  0  0  0  0  0  0  0  0  0  0
   38.1520   24.0010   38.2140 C   0  0  0  0  0  0  0  0  0  0  0  0
   38.0740   24.7080   37.0490 N   0  0  0  0  0  0  0  0  0  0  0  0
   40.5960   23.3290   35.4130 H   0  0  0  0  0  0  0  0  0  0  0  0
   37.4420   24.2050   39.0110 H   0  0  0  0  0  0  0  0  0  0  0  0
   38.7620   25.2370   34.9470 O   0  0  0  0  0  0  0  0  0  0  0  0
   39.0920   27.4550   33.4810 O   0  0  0  0  0  0  0  0  0  0  0  0
   39.4050   26.8210   34.8220 P   0  0  0  0  0  0  0  0  0  0  0  0
   38.7480   27.7120   36.0990 O   0  0  0  0  0  0  0  0  0  0  0  0
   38.1210   27.2010   36.6670 H   0  0  0  0  0  0  0  0  0  0  0  0
   41.0980   26.7410   34.9320 O   0  0  0  0  0  0  0  0  0  0  0  0
   41.4040   25.8280   35.2020 H   0  0  0  0  0  0  0  0  0  0  0  0
   41.0660   21.7260   37.5700 C   0  0  0  0  0  2  0  0  0  0  0  0
   42.1660   21.9180   36.5780 C   0  0  0  0  0  2  0  0  0  0  0  0
   43.1000   22.1340   37.1700 H   0  0  0  0  0  0  0  0  0  0  0  0
  1  2  2  0  0  0  0
  1  6  1  0  0  0  0
  2  3  1  0  0  0  0
  3 16  1  0  0  0  0
  3  4  2  0  0  0  0
  5  4  1  0  0  0  0
  5  8  1  0  0  0  0
  6  5  2  0  0  0  0
  7  2  1  0  0  0  0
  9  1  1  0  0  0  0
 10 11  2  0  0  0  0
 11 14  1  0  0  0  0
 11  9  1  0  0  0  0
 11 12  1  0  0  0  0
 12 13  1  0  0  0  0
 14 15  1  0  0  0  0
 17 18  1  0  0  0  0
 17 16  1  0  0  0  0
M  END
>  <minimizedAffinity>
-4.32451248

$$$$

 OpenBabel03272506153D

 18 18  0  0  0  0  0  0  0  0999 V2000
   38.4240   24.9640   35.3770 C   0  0  0  0  0  0  0  0  0  0  0  0
   37.8730   26.2540   35.4390 C   0  0  0  0  0  0  0  0  0  0  0  0
   37.1710   26.7560   34.3600 C   0  0  0  0  0  0  0  0  0  0  0  0
   37.0360   25.9630   33.2510 N   0  0  0  0  0  0  0  0  0  0  0  0
   37.5750   24.7240   33.2110 C   0  0  0  0  0  0  0  0  0  0  0  0
   38.2710   24.2150   34.2690 N   0  0  0  0  0  0  0  0  0  0  0  0
   38.0400   26.7770   36.3480 H   0  0  0  0  0  0  0  0  0  0  0  0
   37.4500   24.1220   32.3150 H   0  0  0  0  0  0  0  0  0  0  0  0
   39.1470   24.3280   36.3650 O   0  0  0  0  0  0  0  0  0  0  0  0
   37.7780   24.3520   38.6680 O   0  0  0  0  0  0  0  0  0  0  0  0
   38.3920   23.4410   37.6220 P   0  0  0  0  0  0  0  0  0  0  0  0
   37.2260   22.4610   36.8900 O   0  0  0  0  0  0  0  0  0  0  0  0
   37.1650   22.5690   35.9100 H   0  0  0  0  0  0  0  0  0  0  0  0
   39.5640   22.5110   38.4250 O   0  0  0  0  0  0  0  0  0  0  0  0
   40.4370   22.5220   37.9360 H   0  0  0  0  0  0  0  0  0  0  0  0
   36.6010   28.1250   34.4620 C   0  0  0  0  0  2  0  0  0  0  0  0
   36.0460   28.5880   33.1550 C   0  0  0  0  0  2  0  0  0  0  0  0
   34.9400   28.7380   33.3090 H   0  0  0  0  0  0  0  0  0  0  0  0
  1  2  1  0  0  0  0
  1  9  1  0  0  0  0
  2  7  1  0  0  0  0
  3 16  1  0  0  0  0
  3  2  2  0  0  0  0
  4  3  1  0  0  0  0
  5  4  2  0  0  0  0
  5  6  1  0  0  0  0
  6  1  2  0  0  0  0
  8  5  1  0  0  0  0
  9 11  1  0  0  0  0
 11 14  1  0  0  0  0
 11 10  2  0  0  0  0
 12 11  1  0  0  0  0
 13 12  1  0  0  0  0
 15 14  1  0  0  0  0
 17 18  1  0  0  0  0
 17 16  1  0  0  0  0
M  END
>  <minimizedAffinity>
-4.2422781

$$$$

 OpenBabel03272506153D

 18 18  0  0  0  0  0  0  0  0999 V2000
   38.5260   24.4540   36.0510 C   0  0  0  0  0  0  0  0  0  0  0  0
   39.5660   23.5190   36.1820 C   0  0  0  0  0  0  0  0  0  0  0  0
   39.8010   22.9150   37.4020 C   0  0  0  0  0  0  0  0  0  0  0  0
   38.9980   23.2580   38.4580 N   0  0  0  0  0  0  0  0  0  0  0  0
   38.0020   24.1610   38.3120 C   0  0  0  0  0  0  0  0  0  0  0  0
   37.7580   24.7650   37.1130 N   0  0  0  0  0  0  0  0  0  0  0  0
   40.1220   23.3310   35.2980 H   0  0  0  0  0  0  0  0  0  0  0  0
   37.3840   24.4100   39.1700 H   0  0  0  0  0  0  0  0  0  0  0  0
   38.1700   25.1370   34.9070 O   0  0  0  0  0  0  0  0  0  0  0  0
   36.6720   27.3570   34.8200 O   0  0  0  0  0  0  0  0  0  0  0  0
   38.1000   26.8480   34.8490 P   0  0  0  0  0  0  0  0  0  0  0  0
   38.9330   27.4120   36.2080 O   0  0  0  0  0  0  0  0  0  0  0  0
   39.2890   26.6970   36.7890 H   0  0  0  0  0  0  0  0  0  0  0  0
   38.8300   27.3840   33.4120 O   0  0  0  0  0  0  0  0  0  0  0  0
   39.3000   26.6370   32.9410 H   0  0  0  0  0  0  0  0  0  0  0  0
   40.9090   21.9300   37.5030 C   0  0  0  0  0  2  0  0  0  0  0  0
   42.0870   22.3410   36.6810 C   0  0  0  0  0  2  0  0  0  0  0  0
   42.9390   22.5080   37.4000 H   0  0  0  0  0  0  0  0  0  0  0  0
  1  2  2  0  0  0  0
  1  6  1  0  0  0  0
  2  3  1  0  0  0  0
  3 16  1  0  0  0  0
  3  4  2  0  0  0  0
  5  4  1  0  0  0  0
  5  8  1  0  0  0  0
  6  5  2  0  0  0  0
  7  2  1  0  0  0  0
  9  1  1  0  0  0  0
 10 11  2  0  0  0  0
 11  9  1  0  0  0  0
 11 12  1  0  0  0  0
 12 13  1  0  0  0  0
 14 11  1  0  0  0  0
 15 14  1  0  0  0  0
 17 18  1  0  0  0  0
 17 16  1  0  0  0  0
M  END
>  <minimizedAffinity>
-4.17965889

$$$$

 OpenBabel03272506153D

 18 18  0  0  0  0  0  0  0  0999 V2000
   38.4410   24.8080   35.2600 C   0  0  0  0  0  0  0  0  0  0  0  0
   38.2070   24.3070   33.9690 C   0  0  0  0  0  0  0  0  0  0  0  0
   37.4550   25.0400   33.0720 C   0  0  0  0  0  0  0  0  0  0  0  0
   36.9560   26.2480   33.4810 N   0  0  0  0  0  0  0  0  0  0  0  0
   37.1920   26.7130   34.7290 C   0  0  0  0  0  0  0  0  0  0  0  0
   37.9330   26.0010   35.6270 N   0  0  0  0  0  0  0  0  0  0  0  0
   38.6420   23.3620   33.7630 H   0  0  0  0  0  0  0  0  0  0  0  0
   36.7810   27.6750   35.0210 H   0  0  0  0  0  0  0  0  0  0  0  0
   39.1660   24.1980   36.2630 O   0  0  0  0  0  0  0  0  0  0  0  0
   37.9450   24.4970   38.6300 O   0  0  0  0  0  0  0  0  0  0  0  0
   38.4140   23.4680   37.6190 P   0  0  0  0  0  0  0  0  0  0  0  0
   37.1260   22.5510   37.0220 O   0  0  0  0  0  0  0  0  0  0  0  0
   37.0170   22.5990   36.0420 H   0  0  0  0  0  0  0  0  0  0  0  0
   39.5480   22.4910   38.4210 O   0  0  0  0  0  0  0  0  0  0  0  0
   40.3880   22.3920   37.8860 H   0  0  0  0  0  0  0  0  0  0  0  0
   37.2290   24.4790   31.7140 C   0  0  0  0  0  2  0  0  0  0  0  0
   35.8110   24.0490   31.5260 C   0  0  0  0  0  2  0  0  0  0  0  0
   35.3860   24.6920   30.7030 H   0  0  0  0  0  0  0  0  0  0  0  0
  1  6  1  0  0  0  0
  1  9  1  0  0  0  0
  2  1  2  0  0  0  0
  3  4  2  0  0  0  0
  3  2  1  0  0  0  0
  4  5  1  0  0  0  0
  5  8  1  0  0  0  0
  5  6  2  0  0  0  0
  7  2  1  0  0  0  0
  9 11  1  0  0  0  0
 11 14  1  0  0  0  0
 11 10  2  0  0  0  0
 12 11  1  0  0  0  0
 13 12  1  0  0  0  0
 15 14  1  0  0  0  0
 16  3  1  0  0  0  0
 17 16  1  0  0  0  0
 18 17  1  0  0  0  0
M  END
>  <minimizedAffinity>
-4.09341097

$$$$

 OpenBabel03272506153D

 18 18  0  0  0  0  0  0  0  0999 V2000
   38.8500   24.7600   35.9050 C   0  0  0  0  0  0  0  0  0  0  0  0
   40.0810   24.5350   35.2690 C   0  0  0  0  0  0  0  0  0  0  0  0
   40.7800   25.5950   34.7250 C   0  0  0  0  0  0  0  0  0  0  0  0
   40.2350   26.8480   34.8280 N   0  0  0  0  0  0  0  0  0  0  0  0
   39.0480   27.0440   35.4450 C   0  0  0  0  0  0  0  0  0  0  0  0
   38.3460   26.0060   35.9860 N   0  0  0  0  0  0  0  0  0  0  0  0
   40.4040   23.5240   35.2490 H   0  0  0  0  0  0  0  0  0  0  0  0
   38.6450   28.0510   35.5080 H   0  0  0  0  0  0  0  0  0  0  0  0
   38.0390   23.8100   36.4920 O   0  0  0  0  0  0  0  0  0  0  0  0
   38.0810   24.6290   39.0430 O   0  0  0  0  0  0  0  0  0  0  0  0
   38.1620   23.4040   38.1520 P   0  0  0  0  0  0  0  0  0  0  0  0
   36.9110   22.3150   38.4780 O   0  0  0  0  0  0  0  0  0  0  0  0
   36.3360   22.1170   37.6990 H   0  0  0  0  0  0  0  0  0  0  0  0
   39.6810   22.7020   38.4400 O   0  0  0  0  0  0  0  0  0  0  0  0
   40.1620   22.5100   37.5840 H   0  0  0  0  0  0  0  0  0  0  0  0
   42.0790   25.3200   34.0600 C   0  0  0  0  0  2  0  0  0  0  0  0
   43.2270   25.5020   34.9980 C   0  0  0  0  0  2  0  0  0  0  0  0
   43.7220   24.4940   35.1020 H   0  0  0  0  0  0  0  0  0  0  0  0
  1  6  1  0  0  0  0
  1  9  1  0  0  0  0
  2  1  2  0  0  0  0
  3  4  2  0  0  0  0
  3  2  1  0  0  0  0
  4  5  1  0  0  0  0
  5  8  1  0  0  0  0
  5  6  2  0  0  0  0
  7  2  1  0  0  0  0
  9 11  1  0  0  0  0
 11 14  1  0  0  0  0
 11 12  1  0  0  0  0
 11 10  2  0  0  0  0
 13 12  1  0  0  0  0
 15 14  1  0  0  0  0
 16  3  1  0  0  0  0
 16 17  1  0  0  0  0
 17 18  1  0  0  0  0
M  END
>  <minimizedAffinity>
-4.09144688

$$$$

 OpenBabel03272506153D

 18 18  0  0  0  0  0  0  0  0999 V2000
   38.4960   23.7190   34.9850 C   0  0  0  0  0  0  0  0  0  0  0  0
   37.9620   24.3610   33.8560 C   0  0  0  0  0  0  0  0  0  0  0  0
   37.7910   23.6570   32.6790 C   0  0  0  0  0  0  0  0  0  0  0  0
   38.1560   22.3370   32.6570 N   0  0  0  0  0  0  0  0  0  0  0  0
   38.6690   21.7370   33.7550 C   0  0  0  0  0  0  0  0  0  0  0  0
   38.8430   22.4190   34.9240 N   0  0  0  0  0  0  0  0  0  0  0  0
   37.7150   25.3840   33.9890 H   0  0  0  0  0  0  0  0  0  0  0  0
   38.9480   20.6880   33.7020 H   0  0  0  0  0  0  0  0  0  0  0  0
   38.7260   24.2830   36.2230 O   0  0  0  0  0  0  0  0  0  0  0  0
   38.0670   24.4370   38.8160 O   0  0  0  0  0  0  0  0  0  0  0  0
   38.3460   23.4680   37.6820 P   0  0  0  0  0  0  0  0  0  0  0  0
   37.0050   22.4920   37.3560 O   0  0  0  0  0  0  0  0  0  0  0  0
   36.6710   22.5620   36.4290 H   0  0  0  0  0  0  0  0  0  0  0  0
   39.6840   22.5390   38.1630 O   0  0  0  0  0  0  0  0  0  0  0  0
   40.3820   22.5070   37.4470 H   0  0  0  0  0  0  0  0  0  0  0  0
   37.2220   24.3690   31.5050 C   0  0  0  0  0  2  0  0  0  0  0  0
   35.7460   24.1670   31.4010 C   0  0  0  0  0  2  0  0  0  0  0  0
   35.2730   25.1830   31.5210 H   0  0  0  0  0  0  0  0  0  0  0  0
  1  9  1  0  0  0  0
  2  7  1  0  0  0  0
  2  1  2  0  0  0  0
  3  2  1  0  0  0  0
  4  3  2  0  0  0  0
  4  5  1  0  0  0  0
  5  6  2  0  0  0  0
  6  1  1  0  0  0  0
  8  5  1  0  0  0  0
  9 11  1  0  0  0  0
 11 14  1  0  0  0  0
 11 10  2  0  0  0  0
 12 11  1  0  0  0  0
 13 12  1  0  0  0  0
 15 14  1  0  0  0  0
 16  3  1  0  0  0  0
 17 16  1  0  0  0  0
 17 18  1  0  0  0  0
M  END
>  <minimizedAffinity>
-3.83711123

$$$$

 OpenBabel03272506153D

 18 18  0  0  0  0  0  0  0  0999 V2000
   37.7910   22.4850   34.5080 C   0  0  0  0  0  0  0  0  0  0  0  0
   38.1310   23.8070   34.1770 C   0  0  0  0  0  0  0  0  0  0  0  0
   38.2900   24.7490   35.1750 C   0  0  0  0  0  0  0  0  0  0  0  0
   38.1050   24.3520   36.4730 N   0  0  0  0  0  0  0  0  0  0  0  0
   37.7770   23.0740   36.7720 C   0  0  0  0  0  0  0  0  0  0  0  0
   37.6160   22.1330   35.7970 N   0  0  0  0  0  0  0  0  0  0  0  0
   38.2490   23.9990   33.1400 H   0  0  0  0  0  0  0  0  0  0  0  0
   37.6370   22.7940   37.8120 H   0  0  0  0  0  0  0  0  0  0  0  0
   37.5980   21.4380   33.6310 O   0  0  0  0  0  0  0  0  0  0  0  0
   36.1530   19.4380   32.5850 O   0  0  0  0  0  0  0  0  0  0  0  0
   36.0600   20.7210   33.3890 P   0  0  0  0  0  0  0  0  0  0  0  0
   35.4070   20.4470   34.9230 O   0  0  0  0  0  0  0  0  0  0  0  0
   35.9980   20.7170   35.6680 H   0  0  0  0  0  0  0  0  0  0  0  0
   35.0900   21.7830   32.4860 O   0  0  0  0  0  0  0  0  0  0  0  0
   35.5210   22.6810   32.3920 H   0  0  0  0  0  0  0  0  0  0  0  0
   38.6510   26.1370   34.7870 C   0  0  0  0  0  2  0  0  0  0  0  0
   38.5610   27.0730   35.9470 C   0  0  0  0  0  2  0  0  0  0  0  0
   39.6020   27.4660   36.1260 H   0  0  0  0  0  0  0  0  0  0  0  0
  1  6  1  0  0  0  0
  2  1  2  0  0  0  0
  2  3  1  0  0  0  0
  3  4  2  0  0  0  0
  4  5  1  0  0  0  0
  5  8  1  0  0  0  0
  6  5  2  0  0  0  0
  7  2  1  0  0  0  0
  9  1  1  0  0  0  0
 10 11  2  0  0  0  0
 11  9  1  0  0  0  0
 11 12  1  0  0  0  0
 12 13  1  0  0  0  0
 14 11  1  0  0  0  0
 15 14  1  0  0  0  0
 16  3  1  0  0  0  0
 16 17  1  0  0  0  0
 17 18  1  0  0  0  0
M  END
>  <minimizedAffinity>
-3.76113796

$$$$

 OpenBabel03272506153D

 18 18  0  0  0  0  0  0  0  0999 V2000
   37.5930   22.0640   34.1610 C   0  0  0  0  0  0  0  0  0  0  0  0
   36.5840   21.2040   33.6990 C   0  0  0  0  0  0  0  0  0  0  0  0
   35.8520   21.5410   32.5770 C   0  0  0  0  0  0  0  0  0  0  0  0
   36.1430   22.7220   31.9460 N   0  0  0  0  0  0  0  0  0  0  0  0
   37.1190   23.5360   32.4070 C   0  0  0  0  0  0  0  0  0  0  0  0
   37.8500   23.2170   33.5140 N   0  0  0  0  0  0  0  0  0  0  0  0
   36.4470   20.3180   34.2660 H   0  0  0  0  0  0  0  0  0  0  0  0
   37.3230   24.4660   31.8830 H   0  0  0  0  0  0  0  0  0  0  0  0
   38.4040   21.8690   35.2600 O   0  0  0  0  0  0  0  0  0  0  0  0
   37.3240   23.6280   36.9690 O   0  0  0  0  0  0  0  0  0  0  0  0
   38.6390   23.0810   36.4480 P   0  0  0  0  0  0  0  0  0  0  0  0
   39.5520   22.3760   37.6840 O   0  0  0  0  0  0  0  0  0  0  0  0
   39.7720   21.4250   37.5310 H   0  0  0  0  0  0  0  0  0  0  0  0
   39.4600   24.3920   35.7470 O   0  0  0  0  0  0  0  0  0  0  0  0
   39.7920   24.1670   34.8310 H   0  0  0  0  0  0  0  0  0  0  0  0
   34.7920   20.6070   32.1160 C   0  0  0  0  0  2  0  0  0  0  0  0
   35.1240   19.1900   32.4530 C   0  0  0  0  0  2  0  0  0  0  0  0
   34.3260   18.8320   33.1640 H   0  0  0  0  0  0  0  0  0  0  0  0
  1  9  1  0  0  0  0
  2  1  1  0  0  0  0
  2  7  1  0  0  0  0
  3  2  2  0  0  0  0
  4  5  2  0  0  0  0
  4  3  1  0  0  0  0
  5  6  1  0  0  0  0
  6  1  2  0  0  0  0
  8  5  1  0  0  0  0
  9 11  1  0  0  0  0
 11 10  2  0  0  0  0
 11 12  1  0  0  0  0
 13 12  1  0  0  0  0
 14 11  1  0  0  0  0
 15 14  1  0  0  0  0
 16 17  1  0  0  0  0
 16  3  1  0  0  0  0
 17 18  1  0  0  0  0
M  END
>  <minimizedAffinity>
-3.75347018

$$$$

 OpenBabel03272506153D

 18 18  0  0  0  0  0  0  0  0999 V2000
   35.3630   29.0900   33.2110 C   0  0  0  0  0  0  0  0  0  0  0  0
   35.8940   29.8000   34.3000 C   0  0  0  0  0  0  0  0  0  0  0  0
   35.1500   30.7960   34.9030 C   0  0  0  0  0  0  0  0  0  0  0  0
   33.9010   31.0590   34.4060 N   0  0  0  0  0  0  0  0  0  0  0  0
   33.4080   30.3640   33.3560 C   0  0  0  0  0  0  0  0  0  0  0  0
   34.1310   29.3780   32.7510 N   0  0  0  0  0  0  0  0  0  0  0  0
   36.8710   29.5100   34.5990 H   0  0  0  0  0  0  0  0  0  0  0  0
   32.4130   30.5990   32.9880 H   0  0  0  0  0  0  0  0  0  0  0  0
   35.9800   28.0760   32.5080 O   0  0  0  0  0  0  0  0  0  0  0  0
   38.0480   28.4740   30.8520 O   0  0  0  0  0  0  0  0  0  0  0  0
   36.5440   28.2880   30.9040 P   0  0  0  0  0  0  0  0  0  0  0  0
   36.0560   26.9220   30.0360 O   0  0  0  0  0  0  0  0  0  0  0  0
   35.5660   26.2550   30.5750 H   0  0  0  0  0  0  0  0  0  0  0  0
   35.8630   29.7040   30.2600 O   0  0  0  0  0  0  0  0  0  0  0  0
   35.1490   30.0700   30.8580 H   0  0  0  0  0  0  0  0  0  0  0  0
   35.7440   31.5250   36.0530 C   0  0  0  0  0  2  0  0  0  0  0  0
   34.6940   32.1740   36.8940 C   0  0  0  0  0  2  0  0  0  0  0  0
   34.7510   31.6920   37.9110 H   0  0  0  0  0  0  0  0  0  0  0  0
  1  2  1  0  0  0  0
  2  7  1  0  0  0  0
  2  3  2  0  0  0  0
  3 16  1  0  0  0  0
  4  3  1  0  0  0  0
  5  4  2  0  0  0  0
  6  1  2  0  0  0  0
  6  5  1  0  0  0  0
  8  5  1  0  0  0  0
  9  1  1  0  0  0  0
 10 11  2  0  0  0  0
 11  9  1  0  0  0  0
 12 13  1  0  0  0  0
 12 11  1  0  0  0  0
 14 15  1  0  0  0  0
 14 11  1  0  0  0  0
 16 17  1  0  0  0  0
 17 18  1  0  0  0  0
M  END
>  <minimizedAffinity>
-3.73357916

$$$$
