
 OpenBabel03272510263D

 39 42  0  0  1  0  0  0  0  0999 V2000
   36.2330   30.1990   46.8700 C   0  0  0  0  0  0  0  0  0  0  0  0
   37.0780   30.7700   47.8190 C   0  0  0  0  0  0  0  0  0  0  0  0
   38.0620   31.6730   47.4470 C   0  0  0  0  0  0  0  0  0  0  0  0
   38.1580   31.9730   46.0930 C   0  0  0  0  0  0  0  0  0  0  0  0
   39.0370   32.8250   45.4910 N   0  0  0  0  0  0  0  0  0  0  0  0
   38.7530   32.7930   44.1780 C   0  0  0  0  0  0  0  0  0  0  0  0
   37.7530   31.9710   43.9470 N   0  0  0  0  0  0  0  0  0  0  0  0
   37.3420   31.4310   45.1210 C   0  0  0  0  0  0  0  0  0  0  0  0
   36.3550   30.5210   45.5230 C   0  0  0  0  0  0  0  0  0  0  0  0
   35.4450   29.4900   47.0800 H   0  0  0  0  0  0  0  0  0  0  0  0
   38.7120   32.1100   48.1900 H   0  0  0  0  0  0  0  0  0  0  0  0
   39.7890   33.3950   45.9610 H   0  0  0  0  0  0  0  0  0  0  0  0
   35.7200   30.1000   44.7520 H   0  0  0  0  0  0  0  0  0  0  0  0
   37.4890   30.1560   51.4960 C   0  0  0  0  0  0  0  0  0  0  0  0
   37.7850   30.5940   50.2170 C   0  0  0  0  0  0  0  0  0  0  0  0
   36.8730   30.3620   49.1930 C   0  0  0  0  0  0  0  0  0  0  0  0
   35.7200   29.7040   49.5130 N   0  0  0  0  0  0  0  0  0  0  0  0
   35.4400   29.2820   50.7620 C   0  0  0  0  0  0  0  0  0  0  0  0
   36.3200   29.5080   51.7350 N   0  0  0  0  0  0  0  0  0  0  0  0
   38.1940   30.3350   52.2890 H   0  0  0  0  0  0  0  0  0  0  0  0
   38.7040   31.1140   49.9800 H   0  0  0  0  0  0  0  0  0  0  0  0
   34.4840   28.7720   50.8640 H   0  0  0  0  0  0  0  0  0  0  0  0
   39.4750   33.5630   43.2530 O   0  0  0  0  0  0  0  0  0  0  0  0
   39.5920   31.8700   41.7280 N   0  0  0  0  0  0  0  0  0  0  0  0
   39.2170   33.2910   41.8830 C   0  0  1  0  0  0  0  0  0  0  0  0
   37.8060   33.4370   41.5430 C   0  0  0  0  0  0  0  0  0  0  0  0
   37.6400   33.1370   40.1790 O   0  0  0  0  0  0  0  0  0  0  0  0
   38.0990   31.9130   39.7920 C   0  0  0  0  0  0  0  0  0  0  0  0
   39.4730   31.5950   40.3140 C   0  0  2  0  0  0  0  0  0  0  0  0
   40.6310   31.8750   41.9300 H   0  0  0  0  0  0  0  0  0  0  0  0
   39.8200   33.9200   41.2100 H   0  0  0  0  0  0  0  0  0  0  0  0
   37.5590   34.5420   41.5950 H   0  0  0  0  0  0  0  0  0  0  0  0
   37.0080   32.9280   42.0120 H   0  0  0  0  0  0  0  0  0  0  0  0
   37.4050   31.0660   40.0640 H   0  0  0  0  0  0  0  0  0  0  0  0
   38.1940   31.9470   38.6850 H   0  0  0  0  0  0  0  0  0  0  0  0
   40.2720   32.1150   39.7460 H   0  0  0  0  0  0  0  0  0  0  0  0
   39.7280   30.1000   40.1510 C   0  0  0  0  0  2  0  0  0  0  0  0
   38.7320   29.4400   39.2580 C   0  0  0  0  0  2  0  0  0  0  0  0
   38.1920   30.1290   38.5790 H   0  0  0  0  0  0  0  0  0  0  0  0
  1 10  1  0  0  0  0
  1  2  1  0  0  0  0
  2 16  1  0  0  0  0
  3  2  2  0  0  0  0
  3 11  1  0  0  0  0
  4  3  1  0  0  0  0
  5 12  1  0  0  0  0
  5  4  1  0  0  0  0
  6  5  1  0  0  0  0
  7  6  2  0  0  0  0
  7  8  1  0  0  0  0
  8  9  1  0  0  0  0
  8  4  2  0  0  0  0
  9  1  2  0  0  0  0
 13  9  1  0  0  0  0
 14 19  1  0  0  0  0
 14 20  1  0  0  0  0
 15 14  2  0  0  0  0
 16 17  2  0  0  0  0
 16 15  1  0  0  0  0
 17 18  1  0  0  0  0
 18 22  1  0  0  0  0
 18 19  2  0  0  0  0
 21 15  1  0  0  0  0
 23  6  1  0  0  0  0
 24 25  1  0  0  0  0
 24 30  1  0  0  0  0
 25 31  1  6  0  0  0
 25 23  1  0  0  0  0
 26 32  1  0  0  0  0
 26 25  1  0  0  0  0
 26 33  1  0  0  0  0
 27 26  1  0  0  0  0
 28 34  1  0  0  0  0
 28 27  1  0  0  0  0
 28 29  1  0  0  0  0
 29 36  1  6  0  0  0
 29 24  1  0  0  0  0
 35 28  1  0  0  0  0
 37 29  1  0  0  0  0
 38 37  1  0  0  0  0
 39 38  1  0  0  0  0
M  END
>  <minimizedAffinity>
-5.49555492

>  <minimizedRMSD>
0.0356811546

$$$$
