
 OpenBabel03272510263D

 39 42  0  0  1  0  0  0  0  0999 V2000
   36.0710   30.2190   47.0200 C   0  0  0  0  0  0  0  0  0  0  0  0
   36.9890   30.7430   47.9260 C   0  0  0  0  0  0  0  0  0  0  0  0
   37.9830   31.6160   47.5110 C   0  0  0  0  0  0  0  0  0  0  0  0
   38.0130   31.9340   46.1580 C   0  0  0  0  0  0  0  0  0  0  0  0
   38.8860   32.7630   45.5180 N   0  0  0  0  0  0  0  0  0  0  0  0
   38.5270   32.7620   44.2240 C   0  0  0  0  0  0  0  0  0  0  0  0
   37.4860   31.9810   44.0390 N   0  0  0  0  0  0  0  0  0  0  0  0
   37.1230   31.4380   45.2270 C   0  0  0  0  0  0  0  0  0  0  0  0
   36.1270   30.5570   45.6730 C   0  0  0  0  0  0  0  0  0  0  0  0
   35.2700   29.5360   47.2650 H   0  0  0  0  0  0  0  0  0  0  0  0
   38.6900   32.0180   48.2210 H   0  0  0  0  0  0  0  0  0  0  0  0
   39.6850   33.2980   45.9520 H   0  0  0  0  0  0  0  0  0  0  0  0
   35.4340   30.1720   44.9340 H   0  0  0  0  0  0  0  0  0  0  0  0
   37.5740   30.0840   51.5720 C   0  0  0  0  0  0  0  0  0  0  0  0
   37.8110   30.5330   50.2850 C   0  0  0  0  0  0  0  0  0  0  0  0
   36.8480   30.3220   49.3050 C   0  0  0  0  0  0  0  0  0  0  0  0
   35.7060   29.6710   49.6730 N   0  0  0  0  0  0  0  0  0  0  0  0
   35.4840   29.2360   50.9300 C   0  0  0  0  0  0  0  0  0  0  0  0
   36.4120   29.4430   51.8610 N   0  0  0  0  0  0  0  0  0  0  0  0
   38.3190   30.2460   52.3310 H   0  0  0  0  0  0  0  0  0  0  0  0
   38.7220   31.0480   50.0080 H   0  0  0  0  0  0  0  0  0  0  0  0
   34.5280   28.7340   51.0730 H   0  0  0  0  0  0  0  0  0  0  0  0
   39.2230   33.5200   43.2690 O   0  0  0  0  0  0  0  0  0  0  0  0
   39.7560   31.4680   42.4250 N   0  0  0  0  0  0  0  0  0  0  0  0
   39.4930   32.8690   42.0360 C   0  0  1  0  0  0  0  0  0  0  0  0
   38.3470   32.8920   41.1330 C   0  0  0  0  0  0  0  0  0  0  0  0
   38.6970   32.2180   39.9490 O   0  0  0  0  0  0  0  0  0  0  0  0
   39.1460   30.9410   40.1170 C   0  0  0  0  0  0  0  0  0  0  0  0
   40.1700   30.8050   41.2100 C   0  0  2  0  0  0  0  0  0  0  0  0
   40.6300   31.5470   43.0180 H   0  0  0  0  0  0  0  0  0  0  0  0
   40.3700   33.2940   41.5210 H   0  0  0  0  0  0  0  0  0  0  0  0
   38.2110   33.9630   40.7880 H   0  0  0  0  0  0  0  0  0  0  0  0
   37.3840   32.5230   41.3580 H   0  0  0  0  0  0  0  0  0  0  0  0
   38.3210   30.1940   40.3000 H   0  0  0  0  0  0  0  0  0  0  0  0
   39.6680   30.6640   39.1750 H   0  0  0  0  0  0  0  0  0  0  0  0
   41.1750   31.1570   40.8950 H   0  0  0  0  0  0  0  0  0  0  0  0
   40.3190   29.3290   41.5640 C   0  0  0  0  0  2  0  0  0  0  0  0
   41.7280   28.9540   41.8820 C   0  0  0  0  0  2  0  0  0  0  0  0
   42.3800   29.8050   42.1620 H   0  0  0  0  0  0  0  0  0  0  0  0
  1 10  1  0  0  0  0
  1  2  1  0  0  0  0
  2 16  1  0  0  0  0
  3  2  2  0  0  0  0
  3 11  1  0  0  0  0
  4  3  1  0  0  0  0
  5 12  1  0  0  0  0
  5  4  1  0  0  0  0
  6  5  1  0  0  0  0
  7  6  2  0  0  0  0
  7  8  1  0  0  0  0
  8  9  1  0  0  0  0
  8  4  2  0  0  0  0
  9  1  2  0  0  0  0
 13  9  1  0  0  0  0
 14 19  1  0  0  0  0
 14 20  1  0  0  0  0
 15 14  2  0  0  0  0
 16 17  2  0  0  0  0
 16 15  1  0  0  0  0
 17 18  1  0  0  0  0
 18 22  1  0  0  0  0
 18 19  2  0  0  0  0
 21 15  1  0  0  0  0
 23  6  1  0  0  0  0
 24 30  1  0  0  0  0
 25 31  1  6  0  0  0
 25 24  1  0  0  0  0
 25 23  1  0  0  0  0
 26 33  1  0  0  0  0
 26 25  1  0  0  0  0
 27 28  1  0  0  0  0
 27 26  1  0  0  0  0
 28 34  1  0  0  0  0
 28 29  1  0  0  0  0
 29 36  1  6  0  0  0
 29 37  1  0  0  0  0
 29 24  1  0  0  0  0
 32 26  1  0  0  0  0
 35 28  1  0  0  0  0
 37 38  1  0  0  0  0
 38 39  1  0  0  0  0
M  END
>  <minimizedAffinity>
-5.62053776

>  <minimizedRMSD>
0.831891239

$$$$
