
 OpenBabel03272505513D

 38 40  0  0  1  0  0  0  0  0999 V2000
   37.1840   29.2190   50.4960 C   0  0  0  0  0  0  0  0  0  0  0  0
   37.3410   30.5850   50.8340 C   0  0  0  0  0  0  0  0  0  0  0  0
   36.6110   31.5040   50.0900 C   0  0  0  0  0  0  0  0  0  0  0  0
   35.8040   31.0380   49.1010 N   0  0  0  0  0  0  0  0  0  0  0  0
   35.6860   29.7240   48.8150 C   0  0  0  0  0  0  0  0  0  0  0  0
   36.3720   28.8200   49.5080 N   0  0  0  0  0  0  0  0  0  0  0  0
   34.8280   29.3370   47.7750 N   0  0  0  0  0  0  0  0  0  0  0  0
   34.1710   28.0190   47.7760 C   0  0  0  0  0  0  0  0  0  0  0  0
   32.6990   28.2060   47.6530 C   0  0  0  0  0  0  0  0  0  0  0  0
   32.2540   29.4120   47.1720 N   0  0  0  0  0  0  0  0  0  0  0  0
   33.1040   30.2890   46.4120 C   0  0  0  0  0  0  0  0  0  0  0  0
   34.5340   30.1980   46.6440 C   0  0  2  0  0  0  0  0  0  0  0  0
   37.7530   28.4800   51.0720 H   0  0  0  0  0  0  0  0  0  0  0  0
   37.9950   30.9190   51.6300 H   0  0  0  0  0  0  0  0  0  0  0  0
   36.6690   32.5700   50.2790 H   0  0  0  0  0  0  0  0  0  0  0  0
   34.5710   27.4930   46.8940 H   0  0  0  0  0  0  0  0  0  0  0  0
   34.4520   27.4450   48.6820 H   0  0  0  0  0  0  0  0  0  0  0  0
   32.2610   27.9990   48.6530 H   0  0  0  0  0  0  0  0  0  0  0  0
   32.3210   27.3600   47.0180 H   0  0  0  0  0  0  0  0  0  0  0  0
   31.5100   29.8520   47.7160 H   0  0  0  0  0  0  0  0  0  0  0  0
   32.6800   30.2410   45.4150 H   0  0  0  0  0  0  0  0  0  0  0  0
   32.7720   31.3220   46.7520 H   0  0  0  0  0  0  0  0  0  0  0  0
   35.0120   31.1980   46.8690 H   0  0  0  0  0  0  0  0  0  0  0  0
   35.2770   29.6670   45.5030 N   0  0  2  0  0  0  0  0  0  0  0  0
   36.4960   30.4070   45.2590 C   0  0  0  0  0  0  0  0  0  0  0  0
   36.7050   30.4520   43.7620 C   0  0  0  0  0  0  0  0  0  0  0  0
   35.6680   29.5250   43.2580 C   0  0  0  0  0  0  0  0  0  0  0  0
   34.5280   29.6560   44.2930 C   0  0  1  0  0  0  0  0  0  0  0  0
   37.3610   30.0660   45.8300 H   0  0  0  0  0  0  0  0  0  0  0  0
   36.2480   31.4700   45.5470 H   0  0  0  0  0  0  0  0  0  0  0  0
   37.6980   29.9900   43.5800 H   0  0  0  0  0  0  0  0  0  0  0  0
   36.7170   31.4600   43.3380 H   0  0  0  0  0  0  0  0  0  0  0  0
   35.3070   29.7330   42.2370 H   0  0  0  0  0  0  0  0  0  0  0  0
   36.0580   28.4660   43.2790 H   0  0  0  0  0  0  0  0  0  0  0  0
   34.1170   30.6080   43.9420 H   0  0  0  0  0  0  0  0  0  0  0  0
   33.7350   28.4430   43.9650 C   0  0  0  0  0  0  0  0  0  0  0  0
   34.6200   27.2220   44.1480 C   0  0  0  0  0  0  0  0  0  0  0  0
   35.6930   27.5190   44.3150 H   0  0  0  0  0  0  0  0  0  0  0  0
  1  2  1  0  0  0  0
  1 13  1  0  0  0  0
  2 14  1  0  0  0  0
  3 15  1  0  0  0  0
  3  2  2  0  0  0  0
  4  3  1  0  0  0  0
  5  4  2  0  0  0  0
  5  6  1  0  0  0  0
  6  1  2  0  0  0  0
  7  8  1  0  0  0  0
  7  5  1  0  0  0  0
  8 17  1  0  0  0  0
  9  8  1  0  0  0  0
  9 18  1  0  0  0  0
 10  9  1  0  0  0  0
 10 20  1  0  0  0  0
 11 12  1  0  0  0  0
 11 22  1  0  0  0  0
 11 10  1  0  0  0  0
 12 23  1  1  0  0  0
 12  7  1  0  0  0  0
 16  8  1  0  0  0  0
 19  9  1  0  0  0  0
 21 11  1  0  0  0  0
 24 25  1  6  0  0  0
 24 12  1  0  0  0  0
 25 30  1  0  0  0  0
 25 29  1  0  0  0  0
 26 25  1  0  0  0  0
 27 34  1  0  0  0  0
 27 26  1  0  0  0  0
 27 28  1  0  0  0  0
 28 35  1  6  0  0  0
 28 24  1  0  0  0  0
 31 26  1  0  0  0  0
 32 26  1  0  0  0  0
 33 27  1  0  0  0  0
 36 37  1  0  0  0  0
 36 28  1  0  0  0  0
 37 38  1  0  0  0  0
M  END
>  <minimizedAffinity>
-4.46649837

>  <minimizedRMSD>
0.231126979

$$$$
