
 OpenBabel03272507183D

 24 25  0  0  1  0  0  0  0  0999 V2000
   36.9150   30.6410   50.5940 C   0  0  1  0  0  0  0  0  0  0  0  0
   36.1240   29.4460   50.3070 C   0  0  2  0  0  0  0  0  0  0  0  0
   37.5040   29.2360   50.8530 C   0  0  0  0  0  0  0  0  0  0  0  0
   36.7490   31.2310   51.5140 H   0  0  0  0  0  0  0  0  0  0  0  0
   35.2220   29.3610   50.9870 H   0  0  0  0  0  0  0  0  0  0  0  0
   38.2830   28.8570   50.1740 H   0  0  0  0  0  0  0  0  0  0  0  0
   37.6020   28.9630   51.9310 H   0  0  0  0  0  0  0  0  0  0  0  0
   37.6740   31.3620   49.5150 C   0  0  0  0  0  0  0  0  0  0  0  0
   37.9740   32.6970   49.7680 C   0  0  0  0  0  0  0  0  0  0  0  0
   38.6670   33.3410   48.7470 C   0  0  0  0  0  0  0  0  0  0  0  0
   39.0110   32.6820   47.6000 N   0  0  0  0  0  0  0  0  0  0  0  0
   38.6990   31.3730   47.3930 C   0  0  0  0  0  0  0  0  0  0  0  0
   38.0170   30.7100   48.3760 N   0  0  0  0  0  0  0  0  0  0  0  0
   37.6810   33.1780   50.6900 H   0  0  0  0  0  0  0  0  0  0  0  0
   38.9270   34.3840   48.8900 H   0  0  0  0  0  0  0  0  0  0  0  0
   39.1000   30.7260   46.1310 C   0  0  0  0  0  0  0  0  0  0  0  0
   40.4460   31.1990   45.6390 C   0  0  0  0  0  0  0  0  0  0  0  0
   40.5690   30.8140   44.6030 H   0  0  0  0  0  0  0  0  0  0  0  0
   35.8710   29.1600   48.9730 O   0  0  0  0  0  0  0  0  0  0  0  0
   34.7020   29.0210   48.3120 C   0  0  0  0  0  0  0  0  0  0  0  0
   34.2950   27.9190   47.8870 O   0  0  0  0  0  0  0  0  0  0  0  0
   34.1080   30.2820   48.2230 N   0  0  0  0  0  0  0  0  0  0  0  0
   34.5240   30.9950   47.5690 H   0  0  0  0  0  0  0  0  0  0  0  0
   33.3180   30.1880   48.9010 H   0  0  0  0  0  0  0  0  0  0  0  0
  1  3  1  0  0  0  0
  1  4  1  1  0  0  0
  2  1  1  0  0  0  0
  2  3  1  0  0  0  0
  2  5  1  1  0  0  0
  3  7  1  0  0  0  0
  6  3  1  0  0  0  0
  8  9  1  0  0  0  0
  8  1  1  0  0  0  0
  9 14  1  0  0  0  0
 10 15  1  0  0  0  0
 10  9  2  0  0  0  0
 11 10  1  0  0  0  0
 12 11  2  0  0  0  0
 12 13  1  0  0  0  0
 13  8  2  0  0  0  0
 16 12  1  0  0  0  0
 17 16  1  0  0  0  0
 18 17  1  0  0  0  0
 19  2  1  0  0  0  0
 20 19  1  0  0  0  0
 21 20  2  0  0  0  0
 22 20  1  0  0  0  0
 22 24  1  0  0  0  0
 23 22  1  0  0  0  0
M  END
>  <minimizedAffinity>
-5.14496851

>  <minimizedRMSD>
1.5315671

$$$$
