
 OpenBabel03272509373D

 24 25  0  0  0  0  0  0  0  0999 V2000
   36.0530   29.5310   49.0900 C   0  0  0  0  0  0  0  0  0  0  0  0
   36.1610   29.4540   50.4930 C   0  0  0  0  0  0  0  0  0  0  0  0
   37.1570   30.1250   51.2080 C   0  0  0  0  0  0  0  0  0  0  0  0
   38.0830   30.9070   50.4850 C   0  0  0  0  0  0  0  0  0  0  0  0
   37.9570   30.9680   49.0960 C   0  0  0  0  0  0  0  0  0  0  0  0
   36.9670   30.2960   48.4100 C   0  0  0  0  0  0  0  0  0  0  0  0
   35.4480   28.8500   51.0500 H   0  0  0  0  0  0  0  0  0  0  0  0
   37.2430   30.0710   52.2640 H   0  0  0  0  0  0  0  0  0  0  0  0
   38.8640   31.4410   50.9910 H   0  0  0  0  0  0  0  0  0  0  0  0
   38.7060   31.5920   48.6030 H   0  0  0  0  0  0  0  0  0  0  0  0
   34.9570   28.7980   48.4580 C   0  0  0  0  0  0  0  0  0  0  0  0
   34.6370   27.7270   49.0580 O   0  0  0  0  0  0  0  0  0  0  0  0
   32.9120   30.8980   46.3120 C   0  0  0  0  0  0  0  0  0  0  0  0
   32.9030   30.2270   45.0940 C   0  0  0  0  0  0  0  0  0  0  0  0
   33.6020   29.0400   45.0070 C   0  0  0  0  0  0  0  0  0  0  0  0
   34.2720   28.5620   46.0950 N   0  0  0  0  0  0  0  0  0  0  0  0
   34.2640   29.2220   47.2480 C   0  0  0  0  0  0  0  0  0  0  0  0
   33.5870   30.3720   47.3300 N   0  0  0  0  0  0  0  0  0  0  0  0
   32.3800   31.8460   46.4700 H   0  0  0  0  0  0  0  0  0  0  0  0
   32.3420   30.7080   44.3220 H   0  0  0  0  0  0  0  0  0  0  0  0
   33.5820   28.5340   44.0520 H   0  0  0  0  0  0  0  0  0  0  0  0
   36.9470   30.4100   46.9390 C   0  0  0  0  0  2  0  0  0  0  0  0
   37.8380   31.5940   46.5070 C   0  0  0  0  0  2  0  0  0  0  0  0
   37.2220   32.5160   46.5600 H   0  0  0  0  0  0  0  0  0  0  0  0
  1  2  1  0  0  0  0
  2  7  1  0  0  0  0
  2  3  2  0  0  0  0
  3  8  1  0  0  0  0
  4  9  1  0  0  0  0
  4  3  1  0  0  0  0
  5  4  2  0  0  0  0
  6  1  2  0  0  0  0
  6  5  1  0  0  0  0
 10  5  1  0  0  0  0
 11 12  2  0  0  0  0
 11  1  1  0  0  0  0
 13 19  1  0  0  0  0
 13 18  1  0  0  0  0
 14 13  2  0  0  0  0
 15 14  1  0  0  0  0
 15 16  2  0  0  0  0
 16 17  1  0  0  0  0
 17 18  2  0  0  0  0
 17 11  1  0  0  0  0
 20 14  1  0  0  0  0
 21 15  1  0  0  0  0
 22  6  1  0  0  0  0
 23 24  1  0  0  0  0
 23 22  1  0  0  0  0
M  END
>  <minimizedAffinity>
-4.89384413

>  <minimizedRMSD>
0.712560236

$$$$
