
 OpenBabel03272507093D

 21 22  0  0  0  0  0  0  0  0999 V2000
   37.1050   30.2670   50.3240 C   0  0  0  0  0  0  0  0  0  0  0  0
   37.5130   30.1220   51.4990 O   0  0  0  0  0  0  0  0  0  0  0  0
   37.7850   31.0860   49.3350 C   0  0  0  0  0  0  0  0  0  0  0  0
   38.0950   32.3890   49.7030 C   0  0  0  0  0  0  0  0  0  0  0  0
   38.7490   33.1990   48.7710 C   0  0  0  0  0  0  0  0  0  0  0  0
   39.0450   32.6530   47.5470 N   0  0  0  0  0  0  0  0  0  0  0  0
   38.7300   31.3900   47.2240 C   0  0  0  0  0  0  0  0  0  0  0  0
   38.0980   30.6020   48.1190 N   0  0  0  0  0  0  0  0  0  0  0  0
   37.8460   32.7780   50.6720 H   0  0  0  0  0  0  0  0  0  0  0  0
   39.0020   34.2060   49.0230 H   0  0  0  0  0  0  0  0  0  0  0  0
   38.9990   31.0410   46.2410 H   0  0  0  0  0  0  0  0  0  0  0  0
   35.8870   29.5860   49.9170 C   0  0  0  0  0  0  0  0  0  0  0  0
   34.6680   29.9280   50.4100 C   0  0  0  0  0  0  0  0  0  0  0  0
   33.7440   29.0680   49.7980 C   0  0  0  0  0  0  0  0  0  0  0  0
   34.4820   28.2510   48.9620 C   0  0  0  0  0  0  0  0  0  0  0  0
   35.7340   28.5920   49.0650 O   0  0  0  0  0  0  0  0  0  0  0  0
   34.3780   30.6980   51.1340 H   0  0  0  0  0  0  0  0  0  0  0  0
   32.6880   29.0220   49.9250 H   0  0  0  0  0  0  0  0  0  0  0  0
   34.0460   27.1530   48.0630 C   0  0  0  0  0  0  0  0  0  0  0  0
   32.5640   27.0260   48.0330 C   0  0  0  0  0  0  0  0  0  0  0  0
   31.9870   27.9070   48.3170 H   0  0  0  0  0  0  0  0  0  0  0  0
  1  2  2  0  0  0  0
  3  4  1  0  0  0  0
  3  1  1  0  0  0  0
  4  9  1  0  0  0  0
  5 10  1  0  0  0  0
  5  4  2  0  0  0  0
  6  5  1  0  0  0  0
  7  6  2  0  0  0  0
  7  8  1  0  0  0  0
  8  3  2  0  0  0  0
 11  7  1  0  0  0  0
 12  1  1  0  0  0  0
 12 13  2  0  0  0  0
 13 17  1  0  0  0  0
 14 18  1  0  0  0  0
 14 13  1  0  0  0  0
 15 16  1  0  0  0  0
 15 14  2  0  0  0  0
 16 12  1  0  0  0  0
 19 15  1  0  0  0  0
 20 19  1  0  0  0  0
 20 21  1  0  0  0  0
M  END
>  <minimizedAffinity>
-4.90715504

>  <minimizedRMSD>
0.414918363

$$$$
