
 OpenBabel03272505453D

 19 20  0  0  0  0  0  0  0  0999 V2000
   36.0990   30.0420   49.5620 C   0  0  0  0  0  0  0  0  0  0  0  0
   35.2040   29.3920   48.6370 C   0  0  0  0  0  0  0  0  0  0  0  0
   34.6400   30.4170   49.5590 C   0  0  0  0  0  0  0  0  0  0  0  0
   34.9210   28.3240   48.7060 H   0  0  0  0  0  0  0  0  0  0  0  0
   35.2640   29.7480   47.5670 H   0  0  0  0  0  0  0  0  0  0  0  0
   34.0050   30.0470   50.3920 H   0  0  0  0  0  0  0  0  0  0  0  0
   34.3390   31.4100   49.2020 H   0  0  0  0  0  0  0  0  0  0  0  0
   37.9820   33.2090   49.3180 C   0  0  0  0  0  0  0  0  0  0  0  0
   38.9030   32.9670   48.2980 C   0  0  0  0  0  0  0  0  0  0  0  0
   38.8740   31.6990   47.7040 C   0  0  0  0  0  0  0  0  0  0  0  0
   37.9590   30.7890   48.1510 N   0  0  0  0  0  0  0  0  0  0  0  0
   37.0870   31.0690   49.1420 C   0  0  0  0  0  0  0  0  0  0  0  0
   37.1010   32.2690   49.7180 N   0  0  0  0  0  0  0  0  0  0  0  0
   38.0070   34.1900   49.7740 H   0  0  0  0  0  0  0  0  0  0  0  0
   39.6250   33.6640   47.9330 H   0  0  0  0  0  0  0  0  0  0  0  0
   39.5260   31.3700   46.9040 H   0  0  0  0  0  0  0  0  0  0  0  0
   36.5710   29.2230   50.7730 C   0  0  0  0  0  0  0  0  0  0  0  0
   37.3980   30.0450   51.7210 C   0  0  0  0  0  0  0  0  0  0  0  0
   37.0920   31.0870   51.8220 H   0  0  0  0  0  0  0  0  0  0  0  0
  1 17  1  0  0  0  0
  2  4  1  0  0  0  0
  2  3  1  0  0  0  0
  2  1  1  0  0  0  0
  3  1  1  0  0  0  0
  3  6  1  0  0  0  0
  5  2  1  0  0  0  0
  7  3  1  0  0  0  0
  8 13  1  0  0  0  0
  8 14  1  0  0  0  0
  9  8  2  0  0  0  0
 10 11  2  0  0  0  0
 10  9  1  0  0  0  0
 11 12  1  0  0  0  0
 12  1  1  0  0  0  0
 12 13  2  0  0  0  0
 15  9  1  0  0  0  0
 16 10  1  0  0  0  0
 17 18  1  0  0  0  0
 18 19  1  0  0  0  0
M  END
>  <minimizedAffinity>
-4.71653843

>  <minimizedRMSD>
1.55739295

$$$$
