
 OpenBabel03272505373D

 25 26  0  0  0  0  0  0  0  0999 V2000
   37.8650   30.8090   46.1330 C   0  0  0  0  0  0  0  0  0  0  0  0
   36.6640   30.4880   45.5340 C   0  0  0  0  0  0  0  0  0  0  0  0
   36.6240   30.1090   44.2150 C   0  0  0  0  0  0  0  0  0  0  0  0
   37.7520   30.0280   43.4250 C   0  0  0  0  0  0  0  0  0  0  0  0
   38.9470   30.3460   44.0140 C   0  0  0  0  0  0  0  0  0  0  0  0
   39.0010   30.7330   45.3550 C   0  0  0  0  0  0  0  0  0  0  0  0
   35.7800   30.5530   46.1590 H   0  0  0  0  0  0  0  0  0  0  0  0
   35.6300   29.8800   43.8520 H   0  0  0  0  0  0  0  0  0  0  0  0
   37.6530   29.7220   42.3870 H   0  0  0  0  0  0  0  0  0  0  0  0
   39.8150   30.2730   43.3660 H   0  0  0  0  0  0  0  0  0  0  0  0
   37.6240   30.6800   49.7860 C   0  0  0  0  0  0  0  0  0  0  0  0
   38.0370   31.9500   50.1720 C   0  0  0  0  0  0  0  0  0  0  0  0
   38.3980   32.8530   49.1650 C   0  0  0  0  0  0  0  0  0  0  0  0
   38.3150   32.4140   47.8870 N   0  0  0  0  0  0  0  0  0  0  0  0
   37.9170   31.1920   47.5350 C   0  0  0  0  0  0  0  0  0  0  0  0
   37.5670   30.3130   48.4900 N   0  0  0  0  0  0  0  0  0  0  0  0
   38.0760   32.2230   51.2260 H   0  0  0  0  0  0  0  0  0  0  0  0
   38.7280   33.8560   49.4160 H   0  0  0  0  0  0  0  0  0  0  0  0
   37.2310   29.7080   50.8750 C   0  0  0  0  0  0  0  0  0  0  0  0
   35.8480   29.5830   50.8980 F   0  0  0  0  0  0  0  0  0  0  0  0
   37.8690   28.5380   50.6500 F   0  0  0  0  0  0  0  0  0  0  0  0
   37.5970   30.2840   52.0870 F   0  0  0  0  0  0  0  0  0  0  0  0
   40.3730   31.0670   45.7990 C   0  0  0  0  0  0  0  0  0  0  0  0
   40.8980   32.3630   45.2570 C   0  0  0  0  0  0  0  0  0  0  0  0
   40.0740   32.9590   44.7920 H   0  0  0  0  0  0  0  0  0  0  0  0
  1 15  1  0  0  0  0
  2  1  1  0  0  0  0
  2  7  1  0  0  0  0
  3  2  2  0  0  0  0
  4  5  2  0  0  0  0
  4  3  1  0  0  0  0
  5  6  1  0  0  0  0
  6 23  1  0  0  0  0
  6  1  2  0  0  0  0
  8  3  1  0  0  0  0
  9  4  1  0  0  0  0
 10  5  1  0  0  0  0
 11 12  1  0  0  0  0
 11 19  1  0  0  0  0
 12 17  1  0  0  0  0
 13 18  1  0  0  0  0
 13 12  2  0  0  0  0
 14 13  1  0  0  0  0
 15 14  2  0  0  0  0
 15 16  1  0  0  0  0
 16 11  2  0  0  0  0
 19 20  1  0  0  0  0
 19 22  1  0  0  0  0
 21 19  1  0  0  0  0
 24 23  1  0  0  0  0
 25 24  1  0  0  0  0
M  END
>  <minimizedAffinity>
-6.03656673

>  <minimizedRMSD>
1.60477924

$$$$
