
 OpenBabel03272506563D

 14 14  0  0  0  0  0  0  0  0999 V2000
   38.7940   23.3230   37.9110 C   0  0  0  0  0  0  0  0  0  0  0  0
   39.9090   22.7780   37.2720 C   0  0  0  0  0  0  0  0  0  0  0  0
   40.2760   23.3590   36.0440 C   0  0  0  0  0  0  0  0  0  0  0  0
   39.5460   24.3930   35.5570 N   0  0  0  0  0  0  0  0  0  0  0  0
   38.4700   24.8880   36.2160 C   0  0  0  0  0  0  0  0  0  0  0  0
   38.0700   24.3620   37.4100 N   0  0  0  0  0  0  0  0  0  0  0  0
   38.5270   22.8570   38.8610 H   0  0  0  0  0  0  0  0  0  0  0  0
   41.1370   22.9370   35.5530 H   0  0  0  0  0  0  0  0  0  0  0  0
   40.6130   21.6870   37.8660 N   0  0  0  0  0  0  0  0  0  0  0  0
   40.3860   20.6730   37.9500 H   0  0  0  0  0  0  0  0  0  0  0  0
   41.5280   21.9350   38.3040 H   0  0  0  0  0  0  0  0  0  0  0  0
   37.7410   26.0220   35.5930 C   0  0  0  0  0  2  0  0  0  0  0  0
   38.4490   27.3380   35.7020 C   0  0  0  0  0  2  0  0  0  0  0  0
   37.9610   28.0010   36.4760 H   0  0  0  0  0  0  0  0  0  0  0  0
  1  7  1  0  0  0  0
  2  9  1  0  0  0  0
  2  1  2  0  0  0  0
  3  2  1  0  0  0  0
  4  3  2  0  0  0  0
  4  5  1  0  0  0  0
  5  6  2  0  0  0  0
  6  1  1  0  0  0  0
  8  3  1  0  0  0  0
  9 10  1  0  0  0  0
  9 11  1  0  0  0  0
 12 13  1  0  0  0  0
 12  5  1  0  0  0  0
 13 14  1  0  0  0  0
M  END
>  <minimizedAffinity>
-3.72633862

$$$$

 OpenBabel03272506563D

 14 14  0  0  0  0  0  0  0  0999 V2000
   40.2160   23.3520   36.0900 C   0  0  0  0  0  0  0  0  0  0  0  0
   39.8440   22.8000   37.3150 C   0  0  0  0  0  0  0  0  0  0  0  0
   38.7180   23.3630   37.9420 C   0  0  0  0  0  0  0  0  0  0  0  0
   38.0670   24.3880   37.3380 N   0  0  0  0  0  0  0  0  0  0  0  0
   38.4680   24.8910   36.1450 C   0  0  0  0  0  0  0  0  0  0  0  0
   39.5540   24.3820   35.4930 N   0  0  0  0  0  0  0  0  0  0  0  0
   41.0930   22.9000   35.6210 H   0  0  0  0  0  0  0  0  0  0  0  0
   38.4320   22.9340   38.8890 H   0  0  0  0  0  0  0  0  0  0  0  0
   40.5940   21.7190   37.8710 N   0  0  0  0  0  0  0  0  0  0  0  0
   41.5240   21.6840   38.3390 H   0  0  0  0  0  0  0  0  0  0  0  0
   40.1390   20.7820   37.8050 H   0  0  0  0  0  0  0  0  0  0  0  0
   37.6850   26.0150   35.5710 C   0  0  0  0  0  2  0  0  0  0  0  0
   37.5450   25.9650   34.0810 C   0  0  0  0  0  2  0  0  0  0  0  0
   38.2100   26.7320   33.5830 H   0  0  0  0  0  0  0  0  0  0  0  0
  1  2  1  0  0  0  0
  2  9  1  0  0  0  0
  2  3  2  0  0  0  0
  3  8  1  0  0  0  0
  4  3  1  0  0  0  0
  5  4  2  0  0  0  0
  6  1  2  0  0  0  0
  6  5  1  0  0  0  0
  7  1  1  0  0  0  0
  9 10  1  0  0  0  0
 11  9  1  0  0  0  0
 12  5  1  0  0  0  0
 13 12  1  0  0  0  0
 14 13  1  0  0  0  0
M  END
>  <minimizedAffinity>
-3.35191059

$$$$

 OpenBabel03272506563D

 14 14  0  0  0  0  0  0  0  0999 V2000
   36.6130   28.1930   32.2050 C   0  0  0  0  0  0  0  0  0  0  0  0
   36.6920   27.2360   31.1930 C   0  0  0  0  0  0  0  0  0  0  0  0
   37.0470   25.9330   31.5870 C   0  0  0  0  0  0  0  0  0  0  0  0
   37.2870   25.6790   32.8970 N   0  0  0  0  0  0  0  0  0  0  0  0
   37.1970   26.6440   33.8450 C   0  0  0  0  0  0  0  0  0  0  0  0
   36.8570   27.9250   33.5180 N   0  0  0  0  0  0  0  0  0  0  0  0
   36.3370   29.1970   31.8770 H   0  0  0  0  0  0  0  0  0  0  0  0
   37.1060   25.1950   30.8030 H   0  0  0  0  0  0  0  0  0  0  0  0
   36.4200   27.6010   29.8400 N   0  0  0  0  0  0  0  0  0  0  0  0
   36.9740   28.1330   29.1350 H   0  0  0  0  0  0  0  0  0  0  0  0
   35.4960   27.2820   29.4700 H   0  0  0  0  0  0  0  0  0  0  0  0
   37.4820   26.2600   35.2510 C   0  0  0  0  0  2  0  0  0  0  0  0
   38.4660   27.1530   35.9420 C   0  0  0  0  0  2  0  0  0  0  0  0
   39.4710   26.6490   36.0460 H   0  0  0  0  0  0  0  0  0  0  0  0
  1  6  1  0  0  0  0
  2  3  1  0  0  0  0
  2  1  2  0  0  0  0
  3  4  2  0  0  0  0
  4  5  1  0  0  0  0
  5 12  1  0  0  0  0
  6  5  2  0  0  0  0
  7  1  1  0  0  0  0
  8  3  1  0  0  0  0
  9  2  1  0  0  0  0
 10  9  1  0  0  0  0
 11  9  1  0  0  0  0
 12 13  1  0  0  0  0
 13 14  1  0  0  0  0
M  END
>  <minimizedAffinity>
-3.11365795

$$$$

 OpenBabel03272506563D

 14 14  0  0  0  0  0  0  0  0999 V2000
   38.2730   23.3530   34.8940 C   0  0  0  0  0  0  0  0  0  0  0  0
   37.7340   23.0290   36.1390 C   0  0  0  0  0  0  0  0  0  0  0  0
   37.7170   24.0540   37.1030 C   0  0  0  0  0  0  0  0  0  0  0  0
   38.2120   25.2740   36.7800 N   0  0  0  0  0  0  0  0  0  0  0  0
   38.7260   25.5410   35.5550 C   0  0  0  0  0  0  0  0  0  0  0  0
   38.7680   24.5840   34.5830 N   0  0  0  0  0  0  0  0  0  0  0  0
   38.2770   22.5440   34.1620 H   0  0  0  0  0  0  0  0  0  0  0  0
   37.2990   23.8010   38.0640 H   0  0  0  0  0  0  0  0  0  0  0  0
   37.2360   21.7130   36.3830 N   0  0  0  0  0  0  0  0  0  0  0  0
   37.7180   20.8050   36.5530 H   0  0  0  0  0  0  0  0  0  0  0  0
   36.1950   21.6270   36.3960 H   0  0  0  0  0  0  0  0  0  0  0  0
   39.2430   26.9110   35.3070 C   0  0  0  0  0  2  0  0  0  0  0  0
   40.5120   26.9520   34.5120 C   0  0  0  0  0  2  0  0  0  0  0  0
   41.3980   27.1940   35.1700 H   0  0  0  0  0  0  0  0  0  0  0  0
  1  2  1  0  0  0  0
  2  9  1  0  0  0  0
  2  3  2  0  0  0  0
  3  8  1  0  0  0  0
  4  3  1  0  0  0  0
  5  4  2  0  0  0  0
  6  1  2  0  0  0  0
  6  5  1  0  0  0  0
  7  1  1  0  0  0  0
  9 11  1  0  0  0  0
  9 10  1  0  0  0  0
 12  5  1  0  0  0  0
 13 14  1  0  0  0  0
 13 12  1  0  0  0  0
M  END
>  <minimizedAffinity>
-3.10963821

$$$$

 OpenBabel03272506563D

 14 14  0  0  0  0  0  0  0  0999 V2000
   37.2650   26.4300   31.3870 C   0  0  0  0  0  0  0  0  0  0  0  0
   36.7660   27.6620   30.9650 C   0  0  0  0  0  0  0  0  0  0  0  0
   36.4310   28.5840   31.9730 C   0  0  0  0  0  0  0  0  0  0  0  0
   36.6070   28.2370   33.2720 N   0  0  0  0  0  0  0  0  0  0  0  0
   37.0960   27.0260   33.6330 C   0  0  0  0  0  0  0  0  0  0  0  0
   37.4370   26.0940   32.6960 N   0  0  0  0  0  0  0  0  0  0  0  0
   37.5180   25.7300   30.5880 H   0  0  0  0  0  0  0  0  0  0  0  0
   36.0470   29.5350   31.6440 H   0  0  0  0  0  0  0  0  0  0  0  0
   36.6180   27.9350   29.5710 N   0  0  0  0  0  0  0  0  0  0  0  0
   35.9200   27.6110   28.8670 H   0  0  0  0  0  0  0  0  0  0  0  0
   37.3340   28.5770   29.1650 H   0  0  0  0  0  0  0  0  0  0  0  0
   37.2480   26.7470   35.0840 C   0  0  0  0  0  2  0  0  0  0  0  0
   38.4660   27.3640   35.7010 C   0  0  0  0  0  2  0  0  0  0  0  0
   39.2610   26.5870   35.9000 H   0  0  0  0  0  0  0  0  0  0  0  0
  1  6  1  0  0  0  0
  2  1  2  0  0  0  0
  2  3  1  0  0  0  0
  3  4  2  0  0  0  0
  4  5  1  0  0  0  0
  5 12  1  0  0  0  0
  6  5  2  0  0  0  0
  7  1  1  0  0  0  0
  8  3  1  0  0  0  0
  9  2  1  0  0  0  0
 10  9  1  0  0  0  0
 11  9  1  0  0  0  0
 12 13  1  0  0  0  0
 13 14  1  0  0  0  0
M  END
>  <minimizedAffinity>
-3.09430599

$$$$

 OpenBabel03272506563D

 14 14  0  0  0  0  0  0  0  0999 V2000
   36.5750   27.4670   32.2990 C   0  0  0  0  0  0  0  0  0  0  0  0
   37.2260   27.5090   31.0650 C   0  0  0  0  0  0  0  0  0  0  0  0
   38.6260   27.3830   31.0890 C   0  0  0  0  0  0  0  0  0  0  0  0
   39.2580   27.2290   32.2790 N   0  0  0  0  0  0  0  0  0  0  0  0
   38.5810   27.1930   33.4530 C   0  0  0  0  0  0  0  0  0  0  0  0
   37.2210   27.3120   33.4880 N   0  0  0  0  0  0  0  0  0  0  0  0
   35.4890   27.5670   32.2570 H   0  0  0  0  0  0  0  0  0  0  0  0
   39.1270   27.4150   30.1350 H   0  0  0  0  0  0  0  0  0  0  0  0
   36.4720   27.6740   29.8640 N   0  0  0  0  0  0  0  0  0  0  0  0
   36.0010   28.5050   29.4440 H   0  0  0  0  0  0  0  0  0  0  0  0
   36.3630   26.8120   29.2860 H   0  0  0  0  0  0  0  0  0  0  0  0
   39.3690   27.0210   34.7000 C   0  0  0  0  0  2  0  0  0  0  0  0
   38.5570   27.1130   35.9550 C   0  0  0  0  0  2  0  0  0  0  0  0
   38.7320   28.0970   36.4830 H   0  0  0  0  0  0  0  0  0  0  0  0
  1  6  1  0  0  0  0
  2  3  1  0  0  0  0
  2  1  2  0  0  0  0
  3  4  2  0  0  0  0
  4  5  1  0  0  0  0
  5  6  2  0  0  0  0
  5 12  1  0  0  0  0
  7  1  1  0  0  0  0
  8  3  1  0  0  0  0
  9  2  1  0  0  0  0
 10  9  1  0  0  0  0
 11  9  1  0  0  0  0
 12 13  1  0  0  0  0
 13 14  1  0  0  0  0
M  END
>  <minimizedAffinity>
-3.01153421

$$$$

 OpenBabel03272506563D

 14 14  0  0  0  0  0  0  0  0999 V2000
   38.0450   24.5060   37.2720 C   0  0  0  0  0  0  0  0  0  0  0  0
   38.6880   23.2800   37.4490 C   0  0  0  0  0  0  0  0  0  0  0  0
   39.0920   22.6080   36.2810 C   0  0  0  0  0  0  0  0  0  0  0  0
   38.8430   23.1720   35.0730 N   0  0  0  0  0  0  0  0  0  0  0  0
   38.2150   24.3670   34.9520 C   0  0  0  0  0  0  0  0  0  0  0  0
   37.8010   25.0610   36.0530 N   0  0  0  0  0  0  0  0  0  0  0  0
   37.7400   25.0090   38.1910 H   0  0  0  0  0  0  0  0  0  0  0  0
   39.5880   21.6620   36.4200 H   0  0  0  0  0  0  0  0  0  0  0  0
   38.9050   22.7690   38.7640 N   0  0  0  0  0  0  0  0  0  0  0  0
   38.2610   22.3300   39.4570 H   0  0  0  0  0  0  0  0  0  0  0  0
   39.8860   22.8400   39.1130 H   0  0  0  0  0  0  0  0  0  0  0  0
   37.9910   24.8950   33.5820 C   0  0  0  0  0  2  0  0  0  0  0  0
   37.5760   23.8550   32.5870 C   0  0  0  0  0  2  0  0  0  0  0  0
   38.4260   23.5940   31.8910 H   0  0  0  0  0  0  0  0  0  0  0  0
  1  2  1  0  0  0  0
  1  7  1  0  0  0  0
  2  9  1  0  0  0  0
  3  8  1  0  0  0  0
  3  2  2  0  0  0  0
  4  3  1  0  0  0  0
  5  4  2  0  0  0  0
  5  6  1  0  0  0  0
  6  1  2  0  0  0  0
  9 11  1  0  0  0  0
  9 10  1  0  0  0  0
 12  5  1  0  0  0  0
 13 12  1  0  0  0  0
 14 13  1  0  0  0  0
M  END
>  <minimizedAffinity>
-2.99878073

$$$$

 OpenBabel03272506563D

 14 14  0  0  0  0  0  0  0  0999 V2000
   37.2560   27.5490   34.0800 C   0  0  0  0  0  0  0  0  0  0  0  0
   38.0770   26.9230   35.0180 C   0  0  0  0  0  0  0  0  0  0  0  0
   38.3530   25.5610   34.8010 C   0  0  0  0  0  0  0  0  0  0  0  0
   37.8210   24.9410   33.7180 N   0  0  0  0  0  0  0  0  0  0  0  0
   37.0280   25.5940   32.8330 C   0  0  0  0  0  0  0  0  0  0  0  0
   36.7280   26.9150   32.9960 N   0  0  0  0  0  0  0  0  0  0  0  0
   37.0550   28.6060   34.2670 H   0  0  0  0  0  0  0  0  0  0  0  0
   38.9880   25.0790   35.5270 H   0  0  0  0  0  0  0  0  0  0  0  0
   38.5900   27.6620   36.1270 N   0  0  0  0  0  0  0  0  0  0  0  0
   38.1440   28.0000   37.0060 H   0  0  0  0  0  0  0  0  0  0  0  0
   39.6000   27.9190   36.0610 H   0  0  0  0  0  0  0  0  0  0  0  0
   36.4970   24.8210   31.6820 C   0  0  0  0  0  2  0  0  0  0  0  0
   35.2690   25.4130   31.0620 C   0  0  0  0  0  2  0  0  0  0  0  0
   34.3460   24.8230   31.3400 H   0  0  0  0  0  0  0  0  0  0  0  0
  1  7  1  0  0  0  0
  1  2  1  0  0  0  0
  2  9  1  0  0  0  0
  3  2  2  0  0  0  0
  3  8  1  0  0  0  0
  4  3  1  0  0  0  0
  5  6  1  0  0  0  0
  5  4  2  0  0  0  0
  6  1  2  0  0  0  0
  9 10  1  0  0  0  0
 11  9  1  0  0  0  0
 12  5  1  0  0  0  0
 13 14  1  0  0  0  0
 13 12  1  0  0  0  0
M  END
>  <minimizedAffinity>
-2.99799466

$$$$

 OpenBabel03272506563D

 14 14  0  0  0  0  0  0  0  0999 V2000
   38.3910   25.6450   34.8090 C   0  0  0  0  0  0  0  0  0  0  0  0
   38.0430   26.9760   35.0430 C   0  0  0  0  0  0  0  0  0  0  0  0
   37.1670   27.5690   34.1150 C   0  0  0  0  0  0  0  0  0  0  0  0
   36.7160   26.8350   33.0680 N   0  0  0  0  0  0  0  0  0  0  0  0
   37.0830   25.5430   32.8840 C   0  0  0  0  0  0  0  0  0  0  0  0
   37.9310   24.9190   33.7530 N   0  0  0  0  0  0  0  0  0  0  0  0
   39.0720   25.2060   35.5410 H   0  0  0  0  0  0  0  0  0  0  0  0
   36.9000   28.5960   34.2980 H   0  0  0  0  0  0  0  0  0  0  0  0
   38.5710   27.6660   36.1760 N   0  0  0  0  0  0  0  0  0  0  0  0
   39.5140   28.0630   36.3740 H   0  0  0  0  0  0  0  0  0  0  0  0
   37.9000   27.8070   36.9630 H   0  0  0  0  0  0  0  0  0  0  0  0
   36.5310   24.8300   31.7040 C   0  0  0  0  0  2  0  0  0  0  0  0
   35.3370   25.4950   31.0900 C   0  0  0  0  0  2  0  0  0  0  0  0
   34.3860   24.9380   31.3400 H   0  0  0  0  0  0  0  0  0  0  0  0
  1  2  1  0  0  0  0
  1  7  1  0  0  0  0
  2  9  1  0  0  0  0
  3  8  1  0  0  0  0
  3  2  2  0  0  0  0
  4  3  1  0  0  0  0
  5  4  2  0  0  0  0
  5  6  1  0  0  0  0
  6  1  2  0  0  0  0
  9 10  1  0  0  0  0
  9 11  1  0  0  0  0
 12  5  1  0  0  0  0
 13 14  1  0  0  0  0
 13 12  1  0  0  0  0
M  END
>  <minimizedAffinity>
-2.99031353

$$$$
