
 OpenBabel03272509173D

 24 25  0  0  0  0  0  0  0  0999 V2000
   38.7900   23.5440   36.6870 C   0  0  0  0  0  0  0  0  0  0  0  0
   39.3310   23.7670   35.4500 C   0  0  0  0  0  0  0  0  0  0  0  0
   40.6520   23.3090   35.3050 C   0  0  0  0  0  0  0  0  0  0  0  0
   41.3260   22.6840   36.3530 C   0  0  0  0  0  0  0  0  0  0  0  0
   40.6840   22.5040   37.5790 C   0  0  0  0  0  0  0  0  0  0  0  0
   39.3970   22.9440   37.7390 C   0  0  0  0  0  0  0  0  0  0  0  0
   41.1970   23.4310   34.3550 H   0  0  0  0  0  0  0  0  0  0  0  0
   42.3460   22.3300   36.2430 H   0  0  0  0  0  0  0  0  0  0  0  0
   41.1800   22.0200   38.4250 H   0  0  0  0  0  0  0  0  0  0  0  0
   37.9030   23.6390   33.4630 C   0  0  0  0  0  0  0  0  0  0  0  0
   38.6490   24.4100   34.3710 C   0  0  0  0  0  0  0  0  0  0  0  0
   38.6840   25.7790   34.1530 C   0  0  0  0  0  0  0  0  0  0  0  0
   38.0080   26.3030   33.0920 N   0  0  0  0  0  0  0  0  0  0  0  0
   37.2960   25.5110   32.2390 C   0  0  0  0  0  0  0  0  0  0  0  0
   37.2470   24.1640   32.4330 N   0  0  0  0  0  0  0  0  0  0  0  0
   37.8630   22.5580   33.6180 H   0  0  0  0  0  0  0  0  0  0  0  0
   36.8340   26.1110   31.4650 H   0  0  0  0  0  0  0  0  0  0  0  0
   39.4290   26.6750   35.0610 C   0  0  0  0  0  2  0  0  0  0  0  0
   38.4960   27.3490   36.0710 C   0  0  0  0  0  2  0  0  0  0  0  0
   38.0970   28.3020   35.6460 H   0  0  0  0  0  0  0  0  0  0  0  0
   37.4590   23.9730   36.9170 O   0  0  0  0  0  0  0  0  0  0  0  0
   36.8510   23.2180   37.2080 H   0  0  0  0  0  0  0  0  0  0  0  0
   38.7800   22.7540   38.9720 O   0  0  0  0  0  0  0  0  0  0  0  0
   39.2760   22.8670   39.8420 H   0  0  0  0  0  0  0  0  0  0  0  0
  1 21  1  0  0  0  0
  1  6  1  0  0  0  0
  2  1  2  0  0  0  0
  3  2  1  0  0  0  0
  3  4  2  0  0  0  0
  4  5  1  0  0  0  0
  5  6  2  0  0  0  0
  5  9  1  0  0  0  0
  6 23  1  0  0  0  0
  7  3  1  0  0  0  0
  8  4  1  0  0  0  0
 10 16  1  0  0  0  0
 10 11  1  0  0  0  0
 11  2  1  0  0  0  0
 12 11  2  0  0  0  0
 12 18  1  0  0  0  0
 13 12  1  0  0  0  0
 14 15  1  0  0  0  0
 14 13  2  0  0  0  0
 15 10  2  0  0  0  0
 17 14  1  0  0  0  0
 18 19  1  0  0  0  0
 20 19  1  0  0  0  0
 21 22  1  0  0  0  0
 23 24  1  0  0  0  0
M  END
>  <minimizedAffinity>
-5.0884943

$$$$

 OpenBabel03272509173D

 24 25  0  0  0  0  0  0  0  0999 V2000
   39.5840   23.2270   36.2880 C   0  0  0  0  0  0  0  0  0  0  0  0
   38.7470   24.2100   35.8330 C   0  0  0  0  0  0  0  0  0  0  0  0
   37.9270   24.7780   36.8230 C   0  0  0  0  0  0  0  0  0  0  0  0
   37.9850   24.3530   38.1490 C   0  0  0  0  0  0  0  0  0  0  0  0
   38.8750   23.3420   38.5130 C   0  0  0  0  0  0  0  0  0  0  0  0
   39.6820   22.7760   37.5620 C   0  0  0  0  0  0  0  0  0  0  0  0
   37.2100   25.5790   36.5810 H   0  0  0  0  0  0  0  0  0  0  0  0
   37.3540   24.7900   38.9150 H   0  0  0  0  0  0  0  0  0  0  0  0
   38.9490   22.9800   39.5430 H   0  0  0  0  0  0  0  0  0  0  0  0
   37.8560   23.9650   33.5640 C   0  0  0  0  0  0  0  0  0  0  0  0
   38.6780   24.6500   34.4750 C   0  0  0  0  0  0  0  0  0  0  0  0
   39.3920   25.7330   33.9840 C   0  0  0  0  0  0  0  0  0  0  0  0
   39.2690   26.0760   32.6710 N   0  0  0  0  0  0  0  0  0  0  0  0
   38.4560   25.3760   31.8270 C   0  0  0  0  0  0  0  0  0  0  0  0
   37.7440   24.3100   32.2850 N   0  0  0  0  0  0  0  0  0  0  0  0
   37.2850   23.1080   33.9300 H   0  0  0  0  0  0  0  0  0  0  0  0
   38.4940   25.8010   30.8310 H   0  0  0  0  0  0  0  0  0  0  0  0
   40.2710   26.5260   34.8680 C   0  0  0  0  0  2  0  0  0  0  0  0
   41.7500   26.2460   34.5850 C   0  0  0  0  0  2  0  0  0  0  0  0
   42.1000   25.3840   35.2030 H   0  0  0  0  0  0  0  0  0  0  0  0
   40.4480   22.6050   35.3540 O   0  0  0  0  0  0  0  0  0  0  0  0
   41.4230   22.6820   35.6120 H   0  0  0  0  0  0  0  0  0  0  0  0
   40.5590   21.7680   37.9500 O   0  0  0  0  0  0  0  0  0  0  0  0
   40.3000   21.0620   38.6220 H   0  0  0  0  0  0  0  0  0  0  0  0
  1  6  1  0  0  0  0
  2  1  2  0  0  0  0
  2  3  1  0  0  0  0
  3  4  2  0  0  0  0
  4  5  1  0  0  0  0
  4  8  1  0  0  0  0
  5  9  1  0  0  0  0
  6 23  1  0  0  0  0
  6  5  2  0  0  0  0
  7  3  1  0  0  0  0
 10 16  1  0  0  0  0
 10 11  1  0  0  0  0
 11  2  1  0  0  0  0
 12 11  2  0  0  0  0
 12 18  1  0  0  0  0
 13 12  1  0  0  0  0
 14 15  1  0  0  0  0
 14 13  2  0  0  0  0
 15 10  2  0  0  0  0
 17 14  1  0  0  0  0
 19 18  1  0  0  0  0
 19 20  1  0  0  0  0
 21 22  1  0  0  0  0
 21  1  1  0  0  0  0
 23 24  1  0  0  0  0
M  END
>  <minimizedAffinity>
-4.96480083

$$$$

 OpenBabel03272509173D

 24 25  0  0  0  0  0  0  0  0999 V2000
   38.0050   25.2070   34.1170 C   0  0  0  0  0  0  0  0  0  0  0  0
   38.7880   25.3410   35.2310 C   0  0  0  0  0  0  0  0  0  0  0  0
   38.7120   26.6030   35.8440 C   0  0  0  0  0  0  0  0  0  0  0  0
   37.8970   27.6130   35.3350 C   0  0  0  0  0  0  0  0  0  0  0  0
   37.1350   27.3750   34.1910 C   0  0  0  0  0  0  0  0  0  0  0  0
   37.1970   26.1510   33.5790 C   0  0  0  0  0  0  0  0  0  0  0  0
   39.2960   26.8340   36.7500 H   0  0  0  0  0  0  0  0  0  0  0  0
   37.8360   28.5870   35.8070 H   0  0  0  0  0  0  0  0  0  0  0  0
   36.4840   28.1420   33.7600 H   0  0  0  0  0  0  0  0  0  0  0  0
   40.9350   24.1610   35.2620 C   0  0  0  0  0  0  0  0  0  0  0  0
   39.6290   24.3130   35.7590 C   0  0  0  0  0  0  0  0  0  0  0  0
   39.2270   23.4290   36.7490 C   0  0  0  0  0  0  0  0  0  0  0  0
   40.0960   22.4750   37.1860 N   0  0  0  0  0  0  0  0  0  0  0  0
   41.3550   22.3700   36.6710 C   0  0  0  0  0  0  0  0  0  0  0  0
   41.7740   23.2260   35.6980 N   0  0  0  0  0  0  0  0  0  0  0  0
   41.2720   24.8480   34.4810 H   0  0  0  0  0  0  0  0  0  0  0  0
   41.8890   21.5550   37.1450 H   0  0  0  0  0  0  0  0  0  0  0  0
   37.8780   23.5180   37.3450 C   0  0  0  0  0  2  0  0  0  0  0  0
   37.9010   24.2860   38.6690 C   0  0  0  0  0  2  0  0  0  0  0  0
   38.1020   23.5840   39.5150 H   0  0  0  0  0  0  0  0  0  0  0  0
   38.0210   23.9620   33.4390 O   0  0  0  0  0  0  0  0  0  0  0  0
   37.1010   23.5460   33.3660 H   0  0  0  0  0  0  0  0  0  0  0  0
   36.4280   25.9410   32.4380 O   0  0  0  0  0  0  0  0  0  0  0  0
   36.3080   26.6530   31.7350 H   0  0  0  0  0  0  0  0  0  0  0  0
  1  2  1  0  0  0  0
  2 11  1  0  0  0  0
  2  3  2  0  0  0  0
  3  7  1  0  0  0  0
  4  8  1  0  0  0  0
  4  3  1  0  0  0  0
  5  4  2  0  0  0  0
  6  1  2  0  0  0  0
  6  5  1  0  0  0  0
  9  5  1  0  0  0  0
 10 15  2  0  0  0  0
 10 11  1  0  0  0  0
 11 12  2  0  0  0  0
 12 13  1  0  0  0  0
 12 18  1  0  0  0  0
 14 17  1  0  0  0  0
 14 13  2  0  0  0  0
 15 14  1  0  0  0  0
 16 10  1  0  0  0  0
 18 19  1  0  0  0  0
 19 20  1  0  0  0  0
 21  1  1  0  0  0  0
 22 21  1  0  0  0  0
 23  6  1  0  0  0  0
 24 23  1  0  0  0  0
M  END
>  <minimizedAffinity>
-4.7852025

$$$$

 OpenBabel03272509173D

 24 25  0  0  0  0  0  0  0  0999 V2000
   39.8870   23.5260   36.4060 C   0  0  0  0  0  0  0  0  0  0  0  0
   39.1370   24.5950   35.9950 C   0  0  0  0  0  0  0  0  0  0  0  0
   38.1000   24.9480   36.8750 C   0  0  0  0  0  0  0  0  0  0  0  0
   37.8810   24.2490   38.0610 C   0  0  0  0  0  0  0  0  0  0  0  0
   38.7030   23.1710   38.3900 C   0  0  0  0  0  0  0  0  0  0  0  0
   39.7190   22.8120   37.5440 C   0  0  0  0  0  0  0  0  0  0  0  0
   37.4260   25.7920   36.6550 H   0  0  0  0  0  0  0  0  0  0  0  0
   37.0810   24.5200   38.7420 H   0  0  0  0  0  0  0  0  0  0  0  0
   38.5630   22.5960   39.3110 H   0  0  0  0  0  0  0  0  0  0  0  0
   40.1780   26.4530   34.7830 C   0  0  0  0  0  0  0  0  0  0  0  0
   39.3510   25.3160   34.7790 C   0  0  0  0  0  0  0  0  0  0  0  0
   38.7770   24.9610   33.5680 C   0  0  0  0  0  0  0  0  0  0  0  0
   39.0330   25.7130   32.4610 N   0  0  0  0  0  0  0  0  0  0  0  0
   39.8440   26.8090   32.5170 C   0  0  0  0  0  0  0  0  0  0  0  0
   40.4200   27.1780   33.6950 N   0  0  0  0  0  0  0  0  0  0  0  0
   40.6400   26.7500   35.7270 H   0  0  0  0  0  0  0  0  0  0  0  0
   39.9220   27.2700   31.5400 H   0  0  0  0  0  0  0  0  0  0  0  0
   37.9050   23.7730   33.4600 C   0  0  0  0  0  2  0  0  0  0  0  0
   37.0560   23.8160   32.1860 C   0  0  0  0  0  2  0  0  0  0  0  0
   36.0980   24.3570   32.3840 H   0  0  0  0  0  0  0  0  0  0  0  0
   40.9560   23.1070   35.5760 O   0  0  0  0  0  0  0  0  0  0  0  0
   41.8470   23.1140   36.0540 H   0  0  0  0  0  0  0  0  0  0  0  0
   40.5230   21.7320   37.8950 O   0  0  0  0  0  0  0  0  0  0  0  0
   40.1490   20.9030   38.3270 H   0  0  0  0  0  0  0  0  0  0  0  0
  1  6  1  0  0  0  0
  2  1  2  0  0  0  0
  2  3  1  0  0  0  0
  3  4  2  0  0  0  0
  4  5  1  0  0  0  0
  4  8  1  0  0  0  0
  5  9  1  0  0  0  0
  6 23  1  0  0  0  0
  6  5  2  0  0  0  0
  7  3  1  0  0  0  0
 10 16  1  0  0  0  0
 11 10  1  0  0  0  0
 11  2  1  0  0  0  0
 12 11  2  0  0  0  0
 13 14  2  0  0  0  0
 13 12  1  0  0  0  0
 14 15  1  0  0  0  0
 15 10  2  0  0  0  0
 17 14  1  0  0  0  0
 18 12  1  0  0  0  0
 19 20  1  0  0  0  0
 19 18  1  0  0  0  0
 21 22  1  0  0  0  0
 21  1  1  0  0  0  0
 23 24  1  0  0  0  0
M  END
>  <minimizedAffinity>
-4.78512192

$$$$

 OpenBabel03272509173D

 24 25  0  0  0  0  0  0  0  0999 V2000
   38.7180   23.7510   36.8480 C   0  0  0  0  0  0  0  0  0  0  0  0
   39.2800   24.1800   35.6760 C   0  0  0  0  0  0  0  0  0  0  0  0
   40.6070   23.7590   35.4810 C   0  0  0  0  0  0  0  0  0  0  0  0
   41.2660   22.9700   36.4220 C   0  0  0  0  0  0  0  0  0  0  0  0
   40.6040   22.5840   37.5880 C   0  0  0  0  0  0  0  0  0  0  0  0
   39.3110   22.9860   37.7950 C   0  0  0  0  0  0  0  0  0  0  0  0
   41.1680   24.0390   34.5750 H   0  0  0  0  0  0  0  0  0  0  0  0
   42.2900   22.6440   36.2740 H   0  0  0  0  0  0  0  0  0  0  0  0
   41.0880   21.9670   38.3510 H   0  0  0  0  0  0  0  0  0  0  0  0
   38.6690   26.3910   34.8150 C   0  0  0  0  0  0  0  0  0  0  0  0
   38.6130   24.9910   34.7060 C   0  0  0  0  0  0  0  0  0  0  0  0
   37.8900   24.4730   33.6420 C   0  0  0  0  0  0  0  0  0  0  0  0
   37.2810   25.3240   32.7700 N   0  0  0  0  0  0  0  0  0  0  0  0
   37.3660   26.6780   32.9210 C   0  0  0  0  0  0  0  0  0  0  0  0
   38.0700   27.2110   33.9570 N   0  0  0  0  0  0  0  0  0  0  0  0
   39.2340   26.8200   35.6470 H   0  0  0  0  0  0  0  0  0  0  0  0
   36.8180   27.1790   32.1320 H   0  0  0  0  0  0  0  0  0  0  0  0
   37.7850   23.0130   33.4340 C   0  0  0  0  0  2  0  0  0  0  0  0
   36.7870   22.6770   32.3230 C   0  0  0  0  0  2  0  0  0  0  0  0
   35.7600   22.5730   32.7520 H   0  0  0  0  0  0  0  0  0  0  0  0
   37.3800   24.1300   37.1200 O   0  0  0  0  0  0  0  0  0  0  0  0
   36.7730   23.3340   37.2690 H   0  0  0  0  0  0  0  0  0  0  0  0
   38.6730   22.5900   38.9670 O   0  0  0  0  0  0  0  0  0  0  0  0
   39.1520   22.5580   39.8530 H   0  0  0  0  0  0  0  0  0  0  0  0
  1 21  1  0  0  0  0
  1  6  1  0  0  0  0
  2  1  2  0  0  0  0
  3  2  1  0  0  0  0
  3  4  2  0  0  0  0
  4  5  1  0  0  0  0
  5  6  2  0  0  0  0
  5  9  1  0  0  0  0
  6 23  1  0  0  0  0
  7  3  1  0  0  0  0
  8  4  1  0  0  0  0
 10 16  1  0  0  0  0
 11 10  1  0  0  0  0
 11  2  1  0  0  0  0
 12 11  2  0  0  0  0
 13 14  2  0  0  0  0
 13 12  1  0  0  0  0
 14 15  1  0  0  0  0
 15 10  2  0  0  0  0
 17 14  1  0  0  0  0
 18 12  1  0  0  0  0
 19 20  1  0  0  0  0
 19 18  1  0  0  0  0
 21 22  1  0  0  0  0
 23 24  1  0  0  0  0
M  END
>  <minimizedAffinity>
-4.71984196

$$$$

 OpenBabel03272509173D

 24 25  0  0  0  0  0  0  0  0999 V2000
   39.9600   22.6830   37.2200 C   0  0  0  0  0  0  0  0  0  0  0  0
   40.4290   23.1490   36.0220 C   0  0  0  0  0  0  0  0  0  0  0  0
   39.7090   24.2390   35.5030 C   0  0  0  0  0  0  0  0  0  0  0  0
   38.6140   24.7770   36.1770 C   0  0  0  0  0  0  0  0  0  0  0  0
   38.2150   24.2280   37.3960 C   0  0  0  0  0  0  0  0  0  0  0  0
   38.9040   23.1650   37.9170 C   0  0  0  0  0  0  0  0  0  0  0  0
   39.9890   24.7040   34.5440 H   0  0  0  0  0  0  0  0  0  0  0  0
   38.0580   25.6180   35.7790 H   0  0  0  0  0  0  0  0  0  0  0  0
   37.3600   24.6210   37.9550 H   0  0  0  0  0  0  0  0  0  0  0  0
   41.3400   21.6230   34.3350 C   0  0  0  0  0  0  0  0  0  0  0  0
   41.5480   22.6020   35.3210 C   0  0  0  0  0  0  0  0  0  0  0  0
   42.8610   22.9810   35.5630 C   0  0  0  0  0  0  0  0  0  0  0  0
   43.8660   22.3990   34.8500 N   0  0  0  0  0  0  0  0  0  0  0  0
   43.6100   21.4520   33.9020 C   0  0  0  0  0  0  0  0  0  0  0  0
   42.3300   21.0640   33.6460 N   0  0  0  0  0  0  0  0  0  0  0  0
   40.3130   21.3100   34.1300 H   0  0  0  0  0  0  0  0  0  0  0  0
   44.5340   21.1130   33.4490 H   0  0  0  0  0  0  0  0  0  0  0  0
   43.1810   24.0140   36.5690 C   0  0  0  0  0  2  0  0  0  0  0  0
   44.1430   25.0640   36.0070 C   0  0  0  0  0  2  0  0  0  0  0  0
   45.2000   24.7410   36.1720 H   0  0  0  0  0  0  0  0  0  0  0  0
   40.6330   21.5860   37.8150 O   0  0  0  0  0  0  0  0  0  0  0  0
   40.9730   21.7950   38.7440 H   0  0  0  0  0  0  0  0  0  0  0  0
   38.4840   22.6350   39.1340 O   0  0  0  0  0  0  0  0  0  0  0  0
   37.5090   22.5400   39.3680 H   0  0  0  0  0  0  0  0  0  0  0  0
  1 21  1  0  0  0  0
  1  6  1  0  0  0  0
  2  1  2  0  0  0  0
  3  2  1  0  0  0  0
  3  4  2  0  0  0  0
  4  5  1  0  0  0  0
  5  6  2  0  0  0  0
  5  9  1  0  0  0  0
  6 23  1  0  0  0  0
  7  3  1  0  0  0  0
  8  4  1  0  0  0  0
 10 11  1  0  0  0  0
 11 12  2  0  0  0  0
 11  2  1  0  0  0  0
 12 18  1  0  0  0  0
 13 12  1  0  0  0  0
 14 13  2  0  0  0  0
 15 14  1  0  0  0  0
 15 10  2  0  0  0  0
 16 10  1  0  0  0  0
 17 14  1  0  0  0  0
 19 20  1  0  0  0  0
 19 18  1  0  0  0  0
 21 22  1  0  0  0  0
 23 24  1  0  0  0  0
M  END
>  <minimizedAffinity>
-4.6795001

$$$$

 OpenBabel03272509173D

 24 25  0  0  0  0  0  0  0  0999 V2000
   39.6680   22.8470   37.3700 C   0  0  0  0  0  0  0  0  0  0  0  0
   40.0600   23.4870   36.2250 C   0  0  0  0  0  0  0  0  0  0  0  0
   39.2430   24.5690   35.8570 C   0  0  0  0  0  0  0  0  0  0  0  0
   38.1320   24.9350   36.6160 C   0  0  0  0  0  0  0  0  0  0  0  0
   37.8160   24.2160   37.7700 C   0  0  0  0  0  0  0  0  0  0  0  0
   38.6010   23.1580   38.1440 C   0  0  0  0  0  0  0  0  0  0  0  0
   39.4550   25.1640   34.9540 H   0  0  0  0  0  0  0  0  0  0  0  0
   37.5000   25.7700   36.3340 H   0  0  0  0  0  0  0  0  0  0  0  0
   36.9520   24.4710   38.3910 H   0  0  0  0  0  0  0  0  0  0  0  0
   42.4730   23.5740   35.8040 C   0  0  0  0  0  0  0  0  0  0  0  0
   41.1950   23.1170   35.4390 C   0  0  0  0  0  0  0  0  0  0  0  0
   41.1130   22.3210   34.3060 C   0  0  0  0  0  0  0  0  0  0  0  0
   42.2490   22.0250   33.6130 N   0  0  0  0  0  0  0  0  0  0  0  0
   43.4670   22.4950   34.0100 C   0  0  0  0  0  0  0  0  0  0  0  0
   43.5730   23.2780   35.1200 N   0  0  0  0  0  0  0  0  0  0  0  0
   42.5590   24.2030   36.6940 H   0  0  0  0  0  0  0  0  0  0  0  0
   44.2410   22.1530   33.3340 H   0  0  0  0  0  0  0  0  0  0  0  0
   39.8160   21.7790   33.8500 C   0  0  0  0  0  2  0  0  0  0  0  0
   39.9650   20.9950   32.5430 C   0  0  0  0  0  2  0  0  0  0  0  0
   39.8530   21.6840   31.6700 H   0  0  0  0  0  0  0  0  0  0  0  0
   40.4410   21.7450   37.8130 O   0  0  0  0  0  0  0  0  0  0  0  0
   40.7930   21.8690   38.7530 H   0  0  0  0  0  0  0  0  0  0  0  0
   38.2620   22.4570   39.2970 O   0  0  0  0  0  0  0  0  0  0  0  0
   37.3050   22.2570   39.5410 H   0  0  0  0  0  0  0  0  0  0  0  0
  1 21  1  0  0  0  0
  1  6  1  0  0  0  0
  2  1  2  0  0  0  0
  3  2  1  0  0  0  0
  3  4  2  0  0  0  0
  4  5  1  0  0  0  0
  5  6  2  0  0  0  0
  5  9  1  0  0  0  0
  6 23  1  0  0  0  0
  7  3  1  0  0  0  0
  8  4  1  0  0  0  0
 10 16  1  0  0  0  0
 11 10  1  0  0  0  0
 11  2  1  0  0  0  0
 12 11  2  0  0  0  0
 13 14  2  0  0  0  0
 13 12  1  0  0  0  0
 14 15  1  0  0  0  0
 15 10  2  0  0  0  0
 17 14  1  0  0  0  0
 18 12  1  0  0  0  0
 19 18  1  0  0  0  0
 20 19  1  0  0  0  0
 21 22  1  0  0  0  0
 23 24  1  0  0  0  0
M  END
>  <minimizedAffinity>
-4.59488058

$$$$

 OpenBabel03272509173D

 24 25  0  0  0  0  0  0  0  0999 V2000
   34.8530   31.3310   35.5900 C   0  0  0  0  0  0  0  0  0  0  0  0
   34.3160   30.4840   34.6590 C   0  0  0  0  0  0  0  0  0  0  0  0
   33.0490   29.9800   34.9970 C   0  0  0  0  0  0  0  0  0  0  0  0
   32.4180   30.3330   36.1880 C   0  0  0  0  0  0  0  0  0  0  0  0
   33.0510   31.2070   37.0730 C   0  0  0  0  0  0  0  0  0  0  0  0
   34.2870   31.7080   36.7610 C   0  0  0  0  0  0  0  0  0  0  0  0
   32.5130   29.2870   34.3280 H   0  0  0  0  0  0  0  0  0  0  0  0
   31.4400   29.9450   36.4510 H   0  0  0  0  0  0  0  0  0  0  0  0
   32.5890   31.5060   38.0190 H   0  0  0  0  0  0  0  0  0  0  0  0
   34.6350   30.7930   32.2490 C   0  0  0  0  0  0  0  0  0  0  0  0
   34.9570   30.1130   33.4360 C   0  0  0  0  0  0  0  0  0  0  0  0
   35.8940   29.0950   33.3420 C   0  0  0  0  0  0  0  0  0  0  0  0
   36.4480   28.8070   32.1310 N   0  0  0  0  0  0  0  0  0  0  0  0
   36.1010   29.4980   31.0070 C   0  0  0  0  0  0  0  0  0  0  0  0
   35.1830   30.5020   31.0730 N   0  0  0  0  0  0  0  0  0  0  0  0
   33.8980   31.5990   32.3010 H   0  0  0  0  0  0  0  0  0  0  0  0
   36.6470   29.1220   30.1500 H   0  0  0  0  0  0  0  0  0  0  0  0
   36.3100   28.3320   34.5370 C   0  0  0  0  0  2  0  0  0  0  0  0
   37.3620   27.2760   34.1890 C   0  0  0  0  0  2  0  0  0  0  0  0
   36.8610   26.3210   33.8960 H   0  0  0  0  0  0  0  0  0  0  0  0
   36.1290   31.8880   35.3240 O   0  0  0  0  0  0  0  0  0  0  0  0
   36.1220   32.8990   35.3290 H   0  0  0  0  0  0  0  0  0  0  0  0
   34.8970   32.5760   37.6620 O   0  0  0  0  0  0  0  0  0  0  0  0
   34.8410   32.4390   38.6590 H   0  0  0  0  0  0  0  0  0  0  0  0
  1  6  1  0  0  0  0
  2  3  1  0  0  0  0
  2  1  2  0  0  0  0
  3  4  2  0  0  0  0
  4  8  1  0  0  0  0
  4  5  1  0  0  0  0
  5  9  1  0  0  0  0
  6  5  2  0  0  0  0
  6 23  1  0  0  0  0
  7  3  1  0  0  0  0
 10 16  1  0  0  0  0
 10 11  1  0  0  0  0
 11  2  1  0  0  0  0
 12 11  2  0  0  0  0
 12 18  1  0  0  0  0
 13 12  1  0  0  0  0
 14 15  1  0  0  0  0
 14 13  2  0  0  0  0
 15 10  2  0  0  0  0
 17 14  1  0  0  0  0
 19 18  1  0  0  0  0
 20 19  1  0  0  0  0
 21 22  1  0  0  0  0
 21  1  1  0  0  0  0
 23 24  1  0  0  0  0
M  END
>  <minimizedAffinity>
-4.54747391

$$$$

 OpenBabel03272509173D

 24 25  0  0  0  0  0  0  0  0999 V2000
   36.5610   28.0180   30.8670 C   0  0  0  0  0  0  0  0  0  0  0  0
   37.1750   27.0380   31.5990 C   0  0  0  0  0  0  0  0  0  0  0  0
   37.0960   27.2190   32.9910 C   0  0  0  0  0  0  0  0  0  0  0  0
   36.4390   28.3150   33.5470 C   0  0  0  0  0  0  0  0  0  0  0  0
   35.8440   29.2610   32.7130 C   0  0  0  0  0  0  0  0  0  0  0  0
   35.9110   29.1020   31.3540 C   0  0  0  0  0  0  0  0  0  0  0  0
   37.5520   26.4960   33.6870 H   0  0  0  0  0  0  0  0  0  0  0  0
   36.3770   28.4560   34.6210 H   0  0  0  0  0  0  0  0  0  0  0  0
   35.3200   30.1360   33.1110 H   0  0  0  0  0  0  0  0  0  0  0  0
   39.2080   26.0260   30.6780 C   0  0  0  0  0  0  0  0  0  0  0  0
   37.8540   25.9130   31.0380 C   0  0  0  0  0  0  0  0  0  0  0  0
   37.2450   24.6870   30.8130 C   0  0  0  0  0  0  0  0  0  0  0  0
   37.9700   23.6710   30.2660 N   0  0  0  0  0  0  0  0  0  0  0  0
   39.2830   23.8330   29.9340 C   0  0  0  0  0  0  0  0  0  0  0  0
   39.9040   25.0260   30.1450 N   0  0  0  0  0  0  0  0  0  0  0  0
   39.7060   26.9840   30.8470 H   0  0  0  0  0  0  0  0  0  0  0  0
   39.6810   22.9160   29.5150 H   0  0  0  0  0  0  0  0  0  0  0  0
   35.8290   24.4650   31.1710 C   0  0  0  0  0  2  0  0  0  0  0  0
   35.5850   23.0220   31.6220 C   0  0  0  0  0  2  0  0  0  0  0  0
   35.3420   22.3820   30.7390 H   0  0  0  0  0  0  0  0  0  0  0  0
   36.5920   27.9100   29.4550 O   0  0  0  0  0  0  0  0  0  0  0  0
   35.6670   27.9000   29.0450 H   0  0  0  0  0  0  0  0  0  0  0  0
   35.3100   30.0620   30.5440 O   0  0  0  0  0  0  0  0  0  0  0  0
   35.3470   31.0450   30.7610 H   0  0  0  0  0  0  0  0  0  0  0  0
  1  6  2  0  0  0  0
  1  2  1  0  0  0  0
  2  3  2  0  0  0  0
  3  4  1  0  0  0  0
  3  7  1  0  0  0  0
  4  8  1  0  0  0  0
  5  9  1  0  0  0  0
  5  4  2  0  0  0  0
  6  5  1  0  0  0  0
 10 16  1  0  0  0  0
 10 11  1  0  0  0  0
 11  2  1  0  0  0  0
 12 11  2  0  0  0  0
 12 18  1  0  0  0  0
 13 12  1  0  0  0  0
 14 15  1  0  0  0  0
 14 13  2  0  0  0  0
 15 10  2  0  0  0  0
 17 14  1  0  0  0  0
 18 19  1  0  0  0  0
 20 19  1  0  0  0  0
 21  1  1  0  0  0  0
 22 21  1  0  0  0  0
 23 24  1  0  0  0  0
 23  6  1  0  0  0  0
M  END
>  <minimizedAffinity>
-4.48462152

$$$$
