
 OpenBabel03272506313D

 28 29  0  0  1  0  0  0  0  0999 V2000
   39.3510   25.2600   34.7880 C   0  0  1  0  0  0  0  0  0  0  0  0
   38.4010   25.0070   33.7070 C   0  0  0  0  0  0  0  0  0  0  0  0
   37.2050   25.9120   33.6170 C   0  0  0  0  0  0  0  0  0  0  0  0
   37.4310   27.3290   33.9960 C   0  0  0  0  0  0  0  0  0  0  0  0
   38.3990   27.6020   35.0850 C   0  0  0  0  0  0  0  0  0  0  0  0
   39.6070   26.7160   35.0260 C   0  0  2  0  0  0  0  0  0  0  0  0
   40.3690   24.8660   34.4630 H   0  0  0  0  0  0  0  0  0  0  0  0
   38.0660   23.9900   33.5520 H   0  0  0  0  0  0  0  0  0  0  0  0
   38.9660   25.2350   32.7420 H   0  0  0  0  0  0  0  0  0  0  0  0
   36.7990   25.8750   32.5850 H   0  0  0  0  0  0  0  0  0  0  0  0
   36.4030   25.4670   34.2600 H   0  0  0  0  0  0  0  0  0  0  0  0
   36.4320   27.7360   34.3330 H   0  0  0  0  0  0  0  0  0  0  0  0
   37.6750   27.9180   33.0840 H   0  0  0  0  0  0  0  0  0  0  0  0
   37.9480   27.5270   36.1110 H   0  0  0  0  0  0  0  0  0  0  0  0
   38.7560   28.6480   34.9940 H   0  0  0  0  0  0  0  0  0  0  0  0
   40.2620   26.9550   35.8520 H   0  0  0  0  0  0  0  0  0  0  0  0
   39.9120   23.4160   36.4600 C   0  0  0  0  0  0  0  0  0  0  0  0
   39.1080   24.5110   36.0450 C   0  0  0  0  0  0  0  0  0  0  0  0
   38.0710   24.8600   36.8900 C   0  0  0  0  0  0  0  0  0  0  0  0
   37.8690   24.1640   38.0470 N   0  0  0  0  0  0  0  0  0  0  0  0
   38.6620   23.1320   38.3950 C   0  0  0  0  0  0  0  0  0  0  0  0
   39.6860   22.7620   37.5920 N   0  0  0  0  0  0  0  0  0  0  0  0
   40.7420   23.0760   35.8610 H   0  0  0  0  0  0  0  0  0  0  0  0
   37.3730   25.6460   36.7520 H   0  0  0  0  0  0  0  0  0  0  0  0
   38.5150   22.5730   39.3060 H   0  0  0  0  0  0  0  0  0  0  0  0
   40.3830   27.1830   33.7760 C   0  0  0  0  0  2  0  0  0  0  0  0
   41.8820   26.9260   33.9810 C   0  0  0  0  0  2  0  0  0  0  0  0
   41.9810   26.0710   34.6720 H   0  0  0  0  0  0  0  0  0  0  0  0
  1  7  1  6  0  0  0
  1  6  1  0  0  0  0
  1 18  1  0  0  0  0
  2  1  1  0  0  0  0
  3  2  1  0  0  0  0
  3  4  1  0  0  0  0
  3 11  1  0  0  0  0
  4 12  1  0  0  0  0
  4  5  1  0  0  0  0
  5 14  1  0  0  0  0
  6  5  1  0  0  0  0
  6 16  1  1  0  0  0
  8  2  1  0  0  0  0
  9  2  1  0  0  0  0
 10  3  1  0  0  0  0
 13  4  1  0  0  0  0
 15  5  1  0  0  0  0
 17 22  1  0  0  0  0
 18 17  2  0  0  0  0
 18 19  1  0  0  0  0
 19 20  2  0  0  0  0
 20 21  1  0  0  0  0
 21 25  1  0  0  0  0
 22 21  2  0  0  0  0
 23 17  1  0  0  0  0
 24 19  1  0  0  0  0
 26 27  1  0  0  0  0
 26  6  1  0  0  0  0
 27 28  1  0  0  0  0
M  END
>  <minimizedAffinity>
-4.30266094

$$$$

 OpenBabel03272506313D

 28 29  0  0  1  0  0  0  0  0999 V2000
   38.2140   26.3620   35.3450 C   0  0  1  0  0  0  0  0  0  0  0  0
   39.5110   26.8930   34.9330 C   0  0  0  0  0  0  0  0  0  0  0  0
   39.7720   27.0010   33.4580 C   0  0  0  0  0  0  0  0  0  0  0  0
   38.6030   27.3530   32.6140 C   0  0  0  0  0  0  0  0  0  0  0  0
   37.2780   26.8290   33.0240 C   0  0  0  0  0  0  0  0  0  0  0  0
   37.0750   26.8590   34.5100 C   0  0  2  0  0  0  0  0  0  0  0  0
   37.9770   26.7740   36.3810 H   0  0  0  0  0  0  0  0  0  0  0  0
   40.3990   26.4900   35.4020 H   0  0  0  0  0  0  0  0  0  0  0  0
   39.5200   27.9820   35.2740 H   0  0  0  0  0  0  0  0  0  0  0  0
   40.5780   27.7450   33.2850 H   0  0  0  0  0  0  0  0  0  0  0  0
   40.2050   26.0240   33.1240 H   0  0  0  0  0  0  0  0  0  0  0  0
   38.8140   26.9420   31.5820 H   0  0  0  0  0  0  0  0  0  0  0  0
   38.5720   28.4560   32.4700 H   0  0  0  0  0  0  0  0  0  0  0  0
   37.0770   25.7880   32.6550 H   0  0  0  0  0  0  0  0  0  0  0  0
   36.4870   27.4620   32.5740 H   0  0  0  0  0  0  0  0  0  0  0  0
   36.1020   26.4530   34.7430 H   0  0  0  0  0  0  0  0  0  0  0  0
   38.5700   23.9510   34.5910 C   0  0  0  0  0  0  0  0  0  0  0  0
   38.1600   24.8960   35.5680 C   0  0  0  0  0  0  0  0  0  0  0  0
   37.7060   24.3770   36.7660 C   0  0  0  0  0  0  0  0  0  0  0  0
   37.6720   23.0250   36.9550 N   0  0  0  0  0  0  0  0  0  0  0  0
   38.0730   22.1700   35.9940 C   0  0  0  0  0  0  0  0  0  0  0  0
   38.5220   22.6430   34.8090 N   0  0  0  0  0  0  0  0  0  0  0  0
   38.9370   24.2680   33.6270 H   0  0  0  0  0  0  0  0  0  0  0  0
   37.3650   24.9230   37.6090 H   0  0  0  0  0  0  0  0  0  0  0  0
   38.0520   21.1000   36.1290 H   0  0  0  0  0  0  0  0  0  0  0  0
   36.9580   28.3570   34.8650 C   0  0  0  0  0  2  0  0  0  0  0  0
   35.6990   28.9400   34.2110 C   0  0  0  0  0  2  0  0  0  0  0  0
   34.9710   28.1170   34.0990 H   0  0  0  0  0  0  0  0  0  0  0  0
  1 18  1  0  0  0  0
  1  7  1  1  0  0  0
  2  9  1  0  0  0  0
  2  1  1  0  0  0  0
  2  8  1  0  0  0  0
  3  2  1  0  0  0  0
  4  5  1  0  0  0  0
  4  3  1  0  0  0  0
  5  6  1  0  0  0  0
  6 16  1  1  0  0  0
  6 26  1  0  0  0  0
  6  1  1  0  0  0  0
 10  3  1  0  0  0  0
 11  3  1  0  0  0  0
 12  4  1  0  0  0  0
 13  4  1  0  0  0  0
 14  5  1  0  0  0  0
 15  5  1  0  0  0  0
 17 22  2  0  0  0  0
 17 18  1  0  0  0  0
 18 19  2  0  0  0  0
 19 20  1  0  0  0  0
 19 24  1  0  0  0  0
 21 25  1  0  0  0  0
 21 20  2  0  0  0  0
 22 21  1  0  0  0  0
 23 17  1  0  0  0  0
 27 26  1  0  0  0  0
 28 27  1  0  0  0  0
M  END
>  <minimizedAffinity>
-4.20585251

$$$$

 OpenBabel03272506313D

 28 29  0  0  1  0  0  0  0  0999 V2000
   37.4640   26.7320   33.7020 C   0  0  1  0  0  0  0  0  0  0  0  0
   38.6430   26.4500   32.8860 C   0  0  0  0  0  0  0  0  0  0  0  0
   39.9660   26.9480   33.3970 C   0  0  0  0  0  0  0  0  0  0  0  0
   40.1460   26.9250   34.8700 C   0  0  0  0  0  0  0  0  0  0  0  0
   38.9570   27.1990   35.7110 C   0  0  0  0  0  0  0  0  0  0  0  0
   37.7050   26.5730   35.1720 C   0  0  2  0  0  0  0  0  0  0  0  0
   36.6820   25.9340   33.4790 H   0  0  0  0  0  0  0  0  0  0  0  0
   38.5910   26.6620   31.8270 H   0  0  0  0  0  0  0  0  0  0  0  0
   38.7710   25.3170   32.9110 H   0  0  0  0  0  0  0  0  0  0  0  0
   40.7810   26.3600   32.9250 H   0  0  0  0  0  0  0  0  0  0  0  0
   40.1010   27.9910   33.0110 H   0  0  0  0  0  0  0  0  0  0  0  0
   40.9130   27.7190   35.1130 H   0  0  0  0  0  0  0  0  0  0  0  0
   40.6350   25.9700   35.1650 H   0  0  0  0  0  0  0  0  0  0  0  0
   38.7700   28.2950   35.8740 H   0  0  0  0  0  0  0  0  0  0  0  0
   39.1260   26.7740   36.7210 H   0  0  0  0  0  0  0  0  0  0  0  0
   36.8770   26.8220   35.8190 H   0  0  0  0  0  0  0  0  0  0  0  0
   35.9610   28.6970   34.3260 C   0  0  0  0  0  0  0  0  0  0  0  0
   36.7410   27.9850   33.3760 C   0  0  0  0  0  0  0  0  0  0  0  0
   36.8020   28.5300   32.1070 C   0  0  0  0  0  0  0  0  0  0  0  0
   36.1360   29.6890   31.8280 N   0  0  0  0  0  0  0  0  0  0  0  0
   35.4100   30.3260   32.7670 C   0  0  0  0  0  0  0  0  0  0  0  0
   35.3260   29.8210   34.0190 N   0  0  0  0  0  0  0  0  0  0  0  0
   35.8580   28.3430   35.3390 H   0  0  0  0  0  0  0  0  0  0  0  0
   37.3340   28.1460   31.2730 H   0  0  0  0  0  0  0  0  0  0  0  0
   34.8780   31.2420   32.5620 H   0  0  0  0  0  0  0  0  0  0  0  0
   37.9020   25.0550   35.3700 C   0  0  0  0  0  2  0  0  0  0  0  0
   37.9700   24.7420   36.8710 C   0  0  0  0  0  2  0  0  0  0  0  0
   37.3880   25.5170   37.3990 H   0  0  0  0  0  0  0  0  0  0  0  0
  1  7  1  6  0  0  0
  1  6  1  0  0  0  0
  2  9  1  0  0  0  0
  2  3  1  0  0  0  0
  2  1  1  0  0  0  0
  3  4  1  0  0  0  0
  4 12  1  0  0  0  0
  4 13  1  0  0  0  0
  4  5  1  0  0  0  0
  5 14  1  0  0  0  0
  5 15  1  0  0  0  0
  6 26  1  0  0  0  0
  6  5  1  0  0  0  0
  6 16  1  1  0  0  0
  8  2  1  0  0  0  0
 10  3  1  0  0  0  0
 11  3  1  0  0  0  0
 17 23  1  0  0  0  0
 18  1  1  0  0  0  0
 18 17  2  0  0  0  0
 19 18  1  0  0  0  0
 20 19  2  0  0  0  0
 20 21  1  0  0  0  0
 21 22  2  0  0  0  0
 22 17  1  0  0  0  0
 24 19  1  0  0  0  0
 25 21  1  0  0  0  0
 26 27  1  0  0  0  0
 27 28  1  0  0  0  0
M  END
>  <minimizedAffinity>
-4.18137693

$$$$

 OpenBabel03272506313D

 28 29  0  0  1  0  0  0  0  0999 V2000
   37.0950   22.2210   31.9310 C   0  0  1  0  0  0  0  0  0  0  0  0
   37.4370   21.7900   33.2840 C   0  0  0  0  0  0  0  0  0  0  0  0
   36.3530   21.1350   34.0900 C   0  0  0  0  0  0  0  0  0  0  0  0
   35.4020   20.2830   33.3330 C   0  0  0  0  0  0  0  0  0  0  0  0
   35.0530   20.7020   31.9550 C   0  0  0  0  0  0  0  0  0  0  0  0
   36.2270   21.2470   31.1970 C   0  0  2  0  0  0  0  0  0  0  0  0
   38.0520   22.2350   31.3120 H   0  0  0  0  0  0  0  0  0  0  0  0
   37.9560   22.4910   33.9250 H   0  0  0  0  0  0  0  0  0  0  0  0
   38.2010   20.9530   33.1560 H   0  0  0  0  0  0  0  0  0  0  0  0
   36.8160   20.5290   34.8970 H   0  0  0  0  0  0  0  0  0  0  0  0
   35.7960   21.9490   34.6230 H   0  0  0  0  0  0  0  0  0  0  0  0
   34.4410   20.2650   33.9260 H   0  0  0  0  0  0  0  0  0  0  0  0
   35.7580   19.2280   33.3540 H   0  0  0  0  0  0  0  0  0  0  0  0
   34.2190   21.4530   31.9150 H   0  0  0  0  0  0  0  0  0  0  0  0
   34.6840   19.8190   31.3940 H   0  0  0  0  0  0  0  0  0  0  0  0
   35.9040   21.5460   30.2110 H   0  0  0  0  0  0  0  0  0  0  0  0
   37.2380   24.7130   32.4600 C   0  0  0  0  0  0  0  0  0  0  0  0
   36.6160   23.6200   31.8020 C   0  0  0  0  0  0  0  0  0  0  0  0
   35.5240   23.9250   31.0120 C   0  0  0  0  0  0  0  0  0  0  0  0
   35.1020   25.2190   30.8990 N   0  0  0  0  0  0  0  0  0  0  0  0
   35.7300   26.2210   31.5460 C   0  0  0  0  0  0  0  0  0  0  0  0
   36.8010   25.9590   32.3280 N   0  0  0  0  0  0  0  0  0  0  0  0
   38.0960   24.5660   33.0970 H   0  0  0  0  0  0  0  0  0  0  0  0
   34.9370   23.2480   30.4450 H   0  0  0  0  0  0  0  0  0  0  0  0
   35.4090   27.2490   31.4660 H   0  0  0  0  0  0  0  0  0  0  0  0
   37.1390   20.0270   30.9450 C   0  0  0  0  0  2  0  0  0  0  0  0
   36.6490   19.2700   29.7040 C   0  0  0  0  0  2  0  0  0  0  0  0
   36.1430   20.0000   29.0480 H   0  0  0  0  0  0  0  0  0  0  0  0
  1  7  1  6  0  0  0
  1  2  1  0  0  0  0
  2  8  1  0  0  0  0
  2  3  1  0  0  0  0
  3 11  1  0  0  0  0
  3 10  1  0  0  0  0
  4 13  1  0  0  0  0
  4 12  1  0  0  0  0
  4  3  1  0  0  0  0
  5  4  1  0  0  0  0
  6 16  1  6  0  0  0
  6  1  1  0  0  0  0
  6  5  1  0  0  0  0
  9  2  1  0  0  0  0
 14  5  1  0  0  0  0
 15  5  1  0  0  0  0
 17 23  1  0  0  0  0
 18  1  1  0  0  0  0
 18 17  2  0  0  0  0
 19 18  1  0  0  0  0
 20 19  2  0  0  0  0
 20 21  1  0  0  0  0
 21 22  2  0  0  0  0
 22 17  1  0  0  0  0
 24 19  1  0  0  0  0
 25 21  1  0  0  0  0
 26  6  1  0  0  0  0
 27 26  1  0  0  0  0
 28 27  1  0  0  0  0
M  END
>  <minimizedAffinity>
-4.12581015

$$$$

 OpenBabel03272506313D

 28 29  0  0  1  0  0  0  0  0999 V2000
   38.0900   26.4380   32.8300 C   0  0  1  0  0  0  0  0  0  0  0  0
   37.3520   27.6360   33.2210 C   0  0  0  0  0  0  0  0  0  0  0  0
   36.9940   27.7790   34.6730 C   0  0  0  0  0  0  0  0  0  0  0  0
   37.9870   27.2530   35.6430 C   0  0  0  0  0  0  0  0  0  0  0  0
   38.7510   26.0440   35.2560 C   0  0  0  0  0  0  0  0  0  0  0  0
   39.1510   26.0450   33.8110 C   0  0  2  0  0  0  0  0  0  0  0  0
   38.6840   26.6810   31.8880 H   0  0  0  0  0  0  0  0  0  0  0  0
   36.4880   27.9160   32.6330 H   0  0  0  0  0  0  0  0  0  0  0  0
   38.0670   28.5080   33.0480 H   0  0  0  0  0  0  0  0  0  0  0  0
   36.8030   28.8490   34.8960 H   0  0  0  0  0  0  0  0  0  0  0  0
   36.0060   27.2710   34.8240 H   0  0  0  0  0  0  0  0  0  0  0  0
   37.4150   26.9960   36.5830 H   0  0  0  0  0  0  0  0  0  0  0  0
   38.6690   28.0770   35.9530 H   0  0  0  0  0  0  0  0  0  0  0  0
   38.2100   25.0850   35.4790 H   0  0  0  0  0  0  0  0  0  0  0  0
   39.6840   26.0020   35.8530 H   0  0  0  0  0  0  0  0  0  0  0  0
   39.6890   25.1340   33.5910 H   0  0  0  0  0  0  0  0  0  0  0  0
   37.6230   23.9360   32.6480 C   0  0  0  0  0  0  0  0  0  0  0  0
   37.2630   25.2860   32.3940 C   0  0  0  0  0  0  0  0  0  0  0  0
   36.0760   25.4830   31.7140 C   0  0  0  0  0  0  0  0  0  0  0  0
   35.3230   24.4110   31.3280 N   0  0  0  0  0  0  0  0  0  0  0  0
   35.7110   23.1480   31.5950 C   0  0  0  0  0  0  0  0  0  0  0  0
   36.8670   22.9180   32.2580 N   0  0  0  0  0  0  0  0  0  0  0  0
   38.5330   23.6910   33.1720 H   0  0  0  0  0  0  0  0  0  0  0  0
   35.6440   26.4120   31.4390 H   0  0  0  0  0  0  0  0  0  0  0  0
   35.1270   22.2900   31.2970 H   0  0  0  0  0  0  0  0  0  0  0  0
   40.2170   27.1550   33.6940 C   0  0  0  0  0  2  0  0  0  0  0  0
   41.5420   26.6540   34.2830 C   0  0  0  0  0  2  0  0  0  0  0  0
   41.5610   25.5550   34.1720 H   0  0  0  0  0  0  0  0  0  0  0  0
  1  7  1  6  0  0  0
  1  2  1  0  0  0  0
  1  6  1  0  0  0  0
  2  3  1  0  0  0  0
  3 11  1  0  0  0  0
  3 10  1  0  0  0  0
  3  4  1  0  0  0  0
  4 13  1  0  0  0  0
  4 12  1  0  0  0  0
  5 14  1  0  0  0  0
  5  4  1  0  0  0  0
  5 15  1  0  0  0  0
  6 16  1  6  0  0  0
  6  5  1  0  0  0  0
  8  2  1  0  0  0  0
  9  2  1  0  0  0  0
 17 23  1  0  0  0  0
 18 17  1  0  0  0  0
 18  1  1  0  0  0  0
 19 18  2  0  0  0  0
 20 21  2  0  0  0  0
 20 19  1  0  0  0  0
 21 22  1  0  0  0  0
 22 17  2  0  0  0  0
 24 19  1  0  0  0  0
 25 21  1  0  0  0  0
 26  6  1  0  0  0  0
 26 27  1  0  0  0  0
 28 27  1  0  0  0  0
M  END
>  <minimizedAffinity>
-4.09522247

$$$$

 OpenBabel03272506313D

 28 29  0  0  1  0  0  0  0  0999 V2000
   38.6430   25.6880   33.5960 C   0  0  1  0  0  0  0  0  0  0  0  0
   38.9950   27.0290   34.0550 C   0  0  0  0  0  0  0  0  0  0  0  0
   38.4150   27.4800   35.3660 C   0  0  0  0  0  0  0  0  0  0  0  0
   38.2620   26.4320   36.4060 C   0  0  0  0  0  0  0  0  0  0  0  0
   37.9150   25.0640   35.9540 C   0  0  0  0  0  0  0  0  0  0  0  0
   38.6240   24.6680   34.6930 C   0  0  2  0  0  0  0  0  0  0  0  0
   39.4760   25.3190   32.9120 H   0  0  0  0  0  0  0  0  0  0  0  0
   38.9090   27.8460   33.3520 H   0  0  0  0  0  0  0  0  0  0  0  0
   40.1140   26.9970   34.2690 H   0  0  0  0  0  0  0  0  0  0  0  0
   39.0380   28.3040   35.7740 H   0  0  0  0  0  0  0  0  0  0  0  0
   37.4220   27.9500   35.1470 H   0  0  0  0  0  0  0  0  0  0  0  0
   37.4310   26.7750   37.0900 H   0  0  0  0  0  0  0  0  0  0  0  0
   39.1670   26.4240   37.0540 H   0  0  0  0  0  0  0  0  0  0  0  0
   36.8120   24.9080   35.8100 H   0  0  0  0  0  0  0  0  0  0  0  0
   38.2160   24.3400   36.7390 H   0  0  0  0  0  0  0  0  0  0  0  0
   38.3180   23.6720   34.4120 H   0  0  0  0  0  0  0  0  0  0  0  0
   36.7640   26.7430   32.2300 C   0  0  0  0  0  0  0  0  0  0  0  0
   37.4500   25.6000   32.7170 C   0  0  0  0  0  0  0  0  0  0  0  0
   36.9510   24.3740   32.3200 C   0  0  0  0  0  0  0  0  0  0  0  0
   35.8570   24.3130   31.5050 N   0  0  0  0  0  0  0  0  0  0  0  0
   35.2430   25.4300   31.0690 C   0  0  0  0  0  0  0  0  0  0  0  0
   35.7040   26.6470   31.4380 N   0  0  0  0  0  0  0  0  0  0  0  0
   37.0860   27.7390   32.4900 H   0  0  0  0  0  0  0  0  0  0  0  0
   37.3290   23.4170   32.5780 H   0  0  0  0  0  0  0  0  0  0  0  0
   34.3780   25.3990   30.4240 H   0  0  0  0  0  0  0  0  0  0  0  0
   40.1040   24.5110   35.1020 C   0  0  0  0  0  2  0  0  0  0  0  0
   40.2550   23.2870   36.0140 C   0  0  0  0  0  2  0  0  0  0  0  0
   39.4500   22.5780   35.7540 H   0  0  0  0  0  0  0  0  0  0  0  0
  1  7  1  6  0  0  0
  1  2  1  0  0  0  0
  1  6  1  0  0  0  0
  2  9  1  0  0  0  0
  2  3  1  0  0  0  0
  3 10  1  0  0  0  0
  3  4  1  0  0  0  0
  4 13  1  0  0  0  0
  4 12  1  0  0  0  0
  5  4  1  0  0  0  0
  5 15  1  0  0  0  0
  6 16  1  6  0  0  0
  6 26  1  0  0  0  0
  6  5  1  0  0  0  0
  8  2  1  0  0  0  0
 11  3  1  0  0  0  0
 14  5  1  0  0  0  0
 17 23  1  0  0  0  0
 17 18  1  0  0  0  0
 18  1  1  0  0  0  0
 19 24  1  0  0  0  0
 19 18  2  0  0  0  0
 20 19  1  0  0  0  0
 21 22  1  0  0  0  0
 21 20  2  0  0  0  0
 22 17  2  0  0  0  0
 25 21  1  0  0  0  0
 26 27  1  0  0  0  0
 28 27  1  0  0  0  0
M  END
>  <minimizedAffinity>
-4.02479458

$$$$

 OpenBabel03272506313D

 28 29  0  0  1  0  0  0  0  0999 V2000
   39.0870   23.4570   35.3630 C   0  0  1  0  0  0  0  0  0  0  0  0
   39.2120   24.8970   35.5750 C   0  0  0  0  0  0  0  0  0  0  0  0
   38.2570   25.5340   36.5440 C   0  0  0  0  0  0  0  0  0  0  0  0
   37.8780   24.7110   37.7200 C   0  0  0  0  0  0  0  0  0  0  0  0
   37.7560   23.2470   37.5220 C   0  0  0  0  0  0  0  0  0  0  0  0
   38.8170   22.6910   36.6210 C   0  0  2  0  0  0  0  0  0  0  0  0
   40.1010   23.0600   35.0280 H   0  0  0  0  0  0  0  0  0  0  0  0
   39.2820   25.5350   34.7050 H   0  0  0  0  0  0  0  0  0  0  0  0
   40.2240   25.0470   36.0790 H   0  0  0  0  0  0  0  0  0  0  0  0
   38.6870   26.4930   36.9000 H   0  0  0  0  0  0  0  0  0  0  0  0
   37.3410   25.8240   35.9680 H   0  0  0  0  0  0  0  0  0  0  0  0
   36.8660   25.0830   38.0610 H   0  0  0  0  0  0  0  0  0  0  0  0
   38.5580   24.9470   38.5690 H   0  0  0  0  0  0  0  0  0  0  0  0
   36.7510   22.9320   37.1320 H   0  0  0  0  0  0  0  0  0  0  0  0
   37.8640   22.7430   38.5040 H   0  0  0  0  0  0  0  0  0  0  0  0
   38.6640   21.6280   36.5070 H   0  0  0  0  0  0  0  0  0  0  0  0
   37.8350   23.9200   33.1890 C   0  0  0  0  0  0  0  0  0  0  0  0
   38.2020   23.0460   34.2450 C   0  0  0  0  0  0  0  0  0  0  0  0
   37.6930   21.7630   34.1790 C   0  0  0  0  0  0  0  0  0  0  0  0
   36.8870   21.4000   33.1390 N   0  0  0  0  0  0  0  0  0  0  0  0
   36.5690   22.2700   32.1600 C   0  0  0  0  0  0  0  0  0  0  0  0
   37.0480   23.5340   32.1920 N   0  0  0  0  0  0  0  0  0  0  0  0
   38.1860   24.9400   33.1610 H   0  0  0  0  0  0  0  0  0  0  0  0
   37.8590   20.9740   34.8690 H   0  0  0  0  0  0  0  0  0  0  0  0
   35.9330   21.9980   31.3310 H   0  0  0  0  0  0  0  0  0  0  0  0
   40.1260   22.8030   37.4310 C   0  0  0  0  0  2  0  0  0  0  0  0
   41.0780   21.6710   37.0210 C   0  0  0  0  0  2  0  0  0  0  0  0
   40.8410   21.3980   35.9780 H   0  0  0  0  0  0  0  0  0  0  0  0
  1  7  1  6  0  0  0
  1  2  1  0  0  0  0
  1  6  1  0  0  0  0
  2  9  1  0  0  0  0
  2  3  1  0  0  0  0
  3 10  1  0  0  0  0
  3  4  1  0  0  0  0
  4 12  1  0  0  0  0
  4 13  1  0  0  0  0
  5  4  1  0  0  0  0
  5 15  1  0  0  0  0
  6 16  1  6  0  0  0
  6 26  1  0  0  0  0
  6  5  1  0  0  0  0
  8  2  1  0  0  0  0
 11  3  1  0  0  0  0
 14  5  1  0  0  0  0
 17 18  1  0  0  0  0
 18  1  1  0  0  0  0
 19 18  2  0  0  0  0
 19 24  1  0  0  0  0
 20 19  1  0  0  0  0
 21 22  1  0  0  0  0
 21 20  2  0  0  0  0
 22 17  2  0  0  0  0
 23 17  1  0  0  0  0
 25 21  1  0  0  0  0
 27 26  1  0  0  0  0
 28 27  1  0  0  0  0
M  END
>  <minimizedAffinity>
-4.00356007

$$$$

 OpenBabel03272506313D

 28 29  0  0  1  0  0  0  0  0999 V2000
   38.6400   23.2840   35.5420 C   0  0  1  0  0  0  0  0  0  0  0  0
   38.3940   23.9300   36.8290 C   0  0  0  0  0  0  0  0  0  0  0  0
   38.9710   23.2720   38.0490 C   0  0  0  0  0  0  0  0  0  0  0  0
   40.2860   22.6080   37.8710 C   0  0  0  0  0  0  0  0  0  0  0  0
   40.5540   21.9560   36.5670 C   0  0  0  0  0  0  0  0  0  0  0  0
   40.0290   22.7420   35.4030 C   0  0  2  0  0  0  0  0  0  0  0  0
   38.5890   24.0820   34.7300 H   0  0  0  0  0  0  0  0  0  0  0  0
   37.3820   24.2360   37.0590 H   0  0  0  0  0  0  0  0  0  0  0  0
   38.9540   24.9230   36.7860 H   0  0  0  0  0  0  0  0  0  0  0  0
   39.0540   24.0230   38.8620 H   0  0  0  0  0  0  0  0  0  0  0  0
   38.2150   22.5310   38.4170 H   0  0  0  0  0  0  0  0  0  0  0  0
   40.3520   21.8030   38.6620 H   0  0  0  0  0  0  0  0  0  0  0  0
   41.0970   23.3220   38.1370 H   0  0  0  0  0  0  0  0  0  0  0  0
   40.1550   20.9080   36.5020 H   0  0  0  0  0  0  0  0  0  0  0  0
   41.6510   21.8640   36.4300 H   0  0  0  0  0  0  0  0  0  0  0  0
   40.2430   22.2080   34.4890 H   0  0  0  0  0  0  0  0  0  0  0  0
   36.7030   21.6850   35.9960 C   0  0  0  0  0  0  0  0  0  0  0  0
   37.6050   22.3160   35.0990 C   0  0  0  0  0  0  0  0  0  0  0  0
   37.4670   21.9870   33.7640 C   0  0  0  0  0  0  0  0  0  0  0  0
   36.5040   21.1020   33.3740 N   0  0  0  0  0  0  0  0  0  0  0  0
   35.6720   20.5300   34.2670 C   0  0  0  0  0  0  0  0  0  0  0  0
   35.7780   20.8280   35.5820 N   0  0  0  0  0  0  0  0  0  0  0  0
   36.7410   21.8830   37.0560 H   0  0  0  0  0  0  0  0  0  0  0  0
   38.0420   22.3580   32.9530 H   0  0  0  0  0  0  0  0  0  0  0  0
   34.9050   19.8290   33.9750 H   0  0  0  0  0  0  0  0  0  0  0  0
   40.9280   23.9960   35.3320 C   0  0  0  0  0  2  0  0  0  0  0  0
   40.6890   24.7190   34.0000 C   0  0  0  0  0  2  0  0  0  0  0  0
   39.6560   24.4950   33.6800 H   0  0  0  0  0  0  0  0  0  0  0  0
  1  7  1  6  0  0  0
  1  2  1  0  0  0  0
  2  8  1  0  0  0  0
  2  3  1  0  0  0  0
  3 11  1  0  0  0  0
  3 10  1  0  0  0  0
  4  3  1  0  0  0  0
  4 13  1  0  0  0  0
  4 12  1  0  0  0  0
  5  4  1  0  0  0  0
  6 16  1  6  0  0  0
  6  1  1  0  0  0  0
  6  5  1  0  0  0  0
  9  2  1  0  0  0  0
 14  5  1  0  0  0  0
 15  5  1  0  0  0  0
 17 23  1  0  0  0  0
 18  1  1  0  0  0  0
 18 17  2  0  0  0  0
 19 18  1  0  0  0  0
 20 19  2  0  0  0  0
 20 21  1  0  0  0  0
 21 22  2  0  0  0  0
 22 17  1  0  0  0  0
 24 19  1  0  0  0  0
 25 21  1  0  0  0  0
 26  6  1  0  0  0  0
 27 26  1  0  0  0  0
 28 27  1  0  0  0  0
M  END
>  <minimizedAffinity>
-3.96313787

$$$$

 OpenBabel03272506313D

 28 29  0  0  1  0  0  0  0  0999 V2000
   39.1640   24.4350   34.8770 C   0  0  1  0  0  0  0  0  0  0  0  0
   38.0030   24.9430   35.6030 C   0  0  0  0  0  0  0  0  0  0  0  0
   38.1550   26.2640   36.3040 C   0  0  0  0  0  0  0  0  0  0  0  0
   39.0160   27.2650   35.6260 C   0  0  0  0  0  0  0  0  0  0  0  0
   40.1920   26.7640   34.8770 C   0  0  0  0  0  0  0  0  0  0  0  0
   39.9080   25.4970   34.1270 C   0  0  2  0  0  0  0  0  0  0  0  0
   38.7890   23.7470   34.0500 H   0  0  0  0  0  0  0  0  0  0  0  0
   37.4840   24.2680   36.2700 H   0  0  0  0  0  0  0  0  0  0  0  0
   37.2160   25.1660   34.8080 H   0  0  0  0  0  0  0  0  0  0  0  0
   37.1500   26.7050   36.4690 H   0  0  0  0  0  0  0  0  0  0  0  0
   38.5500   26.0520   37.3310 H   0  0  0  0  0  0  0  0  0  0  0  0
   39.4070   27.9530   36.4330 H   0  0  0  0  0  0  0  0  0  0  0  0
   38.3820   27.9210   34.9880 H   0  0  0  0  0  0  0  0  0  0  0  0
   41.0970   26.6050   35.5230 H   0  0  0  0  0  0  0  0  0  0  0  0
   40.4920   27.5260   34.1290 H   0  0  0  0  0  0  0  0  0  0  0  0
   40.8060   25.1780   33.6170 H   0  0  0  0  0  0  0  0  0  0  0  0
   39.7190   23.0010   36.9130 C   0  0  0  0  0  0  0  0  0  0  0  0
   40.0660   23.5440   35.6470 C   0  0  0  0  0  0  0  0  0  0  0  0
   41.3060   23.1880   35.1500 C   0  0  0  0  0  0  0  0  0  0  0  0
   42.1180   22.3600   35.8690 N   0  0  0  0  0  0  0  0  0  0  0  0
   41.7410   21.8710   37.0670 C   0  0  0  0  0  0  0  0  0  0  0  0
   40.5350   22.1980   37.5850 N   0  0  0  0  0  0  0  0  0  0  0  0
   38.7720   23.2270   37.3750 H   0  0  0  0  0  0  0  0  0  0  0  0
   41.7330   23.4890   34.2270 H   0  0  0  0  0  0  0  0  0  0  0  0
   42.3720   21.2160   37.6470 H   0  0  0  0  0  0  0  0  0  0  0  0
   38.9510   25.9120   32.9900 C   0  0  0  0  0  2  0  0  0  0  0  0
   39.6850   26.8500   32.0220 C   0  0  0  0  0  2  0  0  0  0  0  0
   40.7590   26.6020   32.0700 H   0  0  0  0  0  0  0  0  0  0  0  0
  1  7  1  6  0  0  0
  1  2  1  0  0  0  0
  1 18  1  0  0  0  0
  2  8  1  0  0  0  0
  2  3  1  0  0  0  0
  3 10  1  0  0  0  0
  3 11  1  0  0  0  0
  4  3  1  0  0  0  0
  4 12  1  0  0  0  0
  5 14  1  0  0  0  0
  5  4  1  0  0  0  0
  6 16  1  6  0  0  0
  6  5  1  0  0  0  0
  6  1  1  0  0  0  0
  9  2  1  0  0  0  0
 13  4  1  0  0  0  0
 15  5  1  0  0  0  0
 17 23  1  0  0  0  0
 17 22  1  0  0  0  0
 18 17  2  0  0  0  0
 19 18  1  0  0  0  0
 19 20  2  0  0  0  0
 20 21  1  0  0  0  0
 21 22  2  0  0  0  0
 21 25  1  0  0  0  0
 24 19  1  0  0  0  0
 26  6  1  0  0  0  0
 27 28  1  0  0  0  0
 27 26  1  0  0  0  0
M  END
>  <minimizedAffinity>
-3.91678691

$$$$
