
 OpenBabel03272503223D

 24 25  0  0  1  0  0  0  0  0999 V2000
   36.2130   29.8630   49.1300 N   0  0  0  0  0  0  0  0  0  0  0  0
   36.8600   31.0970   48.7820 C   0  0  1  0  0  0  0  0  0  0  0  0
   37.4790   31.5340   50.1190 C   0  0  0  0  0  0  0  0  0  0  0  0
   37.2640   30.3790   51.0850 C   0  0  0  0  0  0  0  0  0  0  0  0
   37.0610   29.2260   50.1320 C   0  0  0  0  0  0  0  0  0  0  0  0
   36.2120   31.8630   48.3620 H   0  0  0  0  0  0  0  0  0  0  0  0
   38.5240   31.8220   50.0320 H   0  0  0  0  0  0  0  0  0  0  0  0
   36.8380   32.3650   50.4940 H   0  0  0  0  0  0  0  0  0  0  0  0
   38.2330   30.1830   51.6310 H   0  0  0  0  0  0  0  0  0  0  0  0
   36.4080   30.5350   51.7420 H   0  0  0  0  0  0  0  0  0  0  0  0
   38.0120   28.8880   49.7040 H   0  0  0  0  0  0  0  0  0  0  0  0
   36.5250   28.4110   50.6470 H   0  0  0  0  0  0  0  0  0  0  0  0
   34.9950   29.3410   48.6220 C   0  0  0  0  0  0  0  0  0  0  0  0
   34.5700   29.8040   47.3770 C   0  0  0  0  0  0  0  0  0  0  0  0
   33.3780   29.3080   46.8530 C   0  0  0  0  0  0  0  0  0  0  0  0
   32.6900   28.3880   47.5980 N   0  0  0  0  0  0  0  0  0  0  0  0
   33.1270   27.9600   48.7960 C   0  0  0  0  0  0  0  0  0  0  0  0
   34.2950   28.4410   49.3190 N   0  0  0  0  0  0  0  0  0  0  0  0
   35.0850   30.5290   46.7600 H   0  0  0  0  0  0  0  0  0  0  0  0
   32.9980   29.6200   45.9090 H   0  0  0  0  0  0  0  0  0  0  0  0
   32.5550   27.2330   49.3550 H   0  0  0  0  0  0  0  0  0  0  0  0
   38.0610   30.8710   47.8550 C   0  0  0  0  0  0  0  0  0  0  0  0
   38.8860   32.1200   47.7320 C   0  0  0  0  0  0  0  0  0  0  0  0
   38.7640   32.7490   48.6470 H   0  0  0  0  0  0  0  0  0  0  0  0
  1  5  1  0  0  0  0
  2  6  1  6  0  0  0
  2  1  1  0  0  0  0
  2  3  1  0  0  0  0
  3  8  1  0  0  0  0
  3  4  1  0  0  0  0
  4  9  1  0  0  0  0
  4 10  1  0  0  0  0
  5 12  1  0  0  0  0
  5  4  1  0  0  0  0
  7  3  1  0  0  0  0
 11  5  1  0  0  0  0
 13  1  1  0  0  0  0
 13 18  1  0  0  0  0
 14 13  2  0  0  0  0
 15 14  1  0  0  0  0
 15 16  2  0  0  0  0
 16 17  1  0  0  0  0
 17 18  2  0  0  0  0
 17 21  1  0  0  0  0
 19 14  1  0  0  0  0
 20 15  1  0  0  0  0
 22  2  1  0  0  0  0
 23 22  1  0  0  0  0
 23 24  1  0  0  0  0
M  END
>  <minimizedAffinity>
-4.53423262

>  <minimizedRMSD>
1.2124908

$$$$
