
 OpenBabel03272507403D

 28 29  0  0  0  0  0  0  0  0999 V2000
   38.4820   23.9960   35.0210 O   0  0  0  0  0  0  0  0  0  0  0  0
   37.4240   25.7260   33.6200 C   0  0  0  0  0  0  0  0  0  0  0  0
   38.0500   25.2910   34.7580 C   0  0  0  0  0  0  0  0  0  0  0  0
   38.3210   26.1640   35.8000 C   0  0  0  0  0  0  0  0  0  0  0  0
   37.9410   27.5030   35.6680 C   0  0  0  0  0  0  0  0  0  0  0  0
   37.3090   27.9410   34.5170 C   0  0  0  0  0  0  0  0  0  0  0  0
   37.0590   27.0340   33.5020 C   0  0  0  0  0  0  0  0  0  0  0  0
   38.8170   25.8700   36.7300 H   0  0  0  0  0  0  0  0  0  0  0  0
   38.1420   28.2060   36.4690 H   0  0  0  0  0  0  0  0  0  0  0  0
   37.0000   28.9610   34.3800 H   0  0  0  0  0  0  0  0  0  0  0  0
   36.9670   23.9600   31.7870 N   0  0  0  0  0  0  0  0  0  0  0  0
   37.1810   24.7530   32.6050 C   0  0  0  0  0  0  0  0  0  0  0  0
   36.3880   27.5230   32.2700 C   0  0  0  0  0  2  0  0  0  0  0  0
   37.3860   28.3630   31.4640 C   0  0  0  0  0  2  0  0  0  0  0  0
   36.7620   28.9660   30.7440 H   0  0  0  0  0  0  0  0  0  0  0  0
   39.7060   23.6820   35.5210 C   0  0  0  0  0  0  0  0  0  0  0  0
   39.5980   22.9600   36.7220 C   0  0  0  0  0  0  0  0  0  0  0  0
   40.7320   22.5390   37.4020 C   0  0  0  0  0  0  0  0  0  0  0  0
   41.9450   22.8660   36.8350 N   0  0  0  0  0  0  0  0  0  0  0  0
   42.0240   23.5570   35.6820 C   0  0  0  0  0  0  0  0  0  0  0  0
   40.9350   23.9460   35.0560 N   0  0  0  0  0  0  0  0  0  0  0  0
   40.7300   21.9840   38.3250 H   0  0  0  0  0  0  0  0  0  0  0  0
   43.0250   23.7450   35.3500 H   0  0  0  0  0  0  0  0  0  0  0  0
   37.7920   23.4300   38.3040 C   0  0  0  0  0  0  0  0  0  0  0  0
   38.1450   24.5180   38.9020 O   0  0  0  0  0  0  0  0  0  0  0  0
   38.4140   22.5670   37.3510 N   0  0  0  0  0  0  0  0  0  0  0  0
   36.9280   23.6470   38.9180 H   0  0  0  0  0  0  0  0  0  0  0  0
   37.6920   21.8510   37.4720 H   0  0  0  0  0  0  0  0  0  0  0  0
  1 16  1  0  0  0  0
  2  3  1  0  0  0  0
  3  1  1  0  0  0  0
  3  4  2  0  0  0  0
  4  8  1  0  0  0  0
  5  4  1  0  0  0  0
  5  9  1  0  0  0  0
  6  5  2  0  0  0  0
  7  2  2  0  0  0  0
  7  6  1  0  0  0  0
 10  6  1  0  0  0  0
 11 12  3  0  0  0  0
 12  2  1  0  0  0  0
 13  7  1  0  0  0  0
 14 13  1  0  0  0  0
 15 14  1  0  0  0  0
 16 17  1  0  0  0  0
 17 26  1  0  0  0  0
 17 18  2  0  0  0  0
 18 22  1  0  0  0  0
 19 18  1  0  0  0  0
 20 19  2  0  0  0  0
 21 16  2  0  0  0  0
 21 20  1  0  0  0  0
 23 20  1  0  0  0  0
 24 25  2  0  0  0  0
 24 27  1  0  0  0  0
 26 28  1  0  0  0  0
 26 24  1  0  0  0  0
M  END
>  <minimizedAffinity>
-5.07016516

$$$$

 OpenBabel03272507403D

 28 29  0  0  0  0  0  0  0  0999 V2000
   38.4010   25.5360   33.2840 O   0  0  0  0  0  0  0  0  0  0  0  0
   38.1840   24.9380   35.6650 C   0  0  0  0  0  0  0  0  0  0  0  0
   38.1950   24.6410   34.3270 C   0  0  0  0  0  0  0  0  0  0  0  0
   37.9890   23.3440   33.8840 C   0  0  0  0  0  0  0  0  0  0  0  0
   37.7690   22.3390   34.8310 C   0  0  0  0  0  0  0  0  0  0  0  0
   37.7600   22.6410   36.1810 C   0  0  0  0  0  0  0  0  0  0  0  0
   37.9700   23.9490   36.5790 C   0  0  0  0  0  0  0  0  0  0  0  0
   37.9870   23.0530   32.8290 H   0  0  0  0  0  0  0  0  0  0  0  0
   37.6060   21.3170   34.5090 H   0  0  0  0  0  0  0  0  0  0  0  0
   37.5920   21.8960   36.9380 H   0  0  0  0  0  0  0  0  0  0  0  0
   38.5620   27.4070   36.3330 N   0  0  0  0  0  0  0  0  0  0  0  0
   38.3970   26.3020   36.0250 C   0  0  0  0  0  0  0  0  0  0  0  0
   37.9650   24.2530   38.0330 C   0  0  0  0  0  2  0  0  0  0  0  0
   38.9640   23.3260   38.7350 C   0  0  0  0  0  2  0  0  0  0  0  0
   38.6900   23.3580   39.8280 H   0  0  0  0  0  0  0  0  0  0  0  0
   37.4710   26.4180   32.8350 C   0  0  0  0  0  0  0  0  0  0  0  0
   37.0510   26.1000   31.5310 C   0  0  0  0  0  0  0  0  0  0  0  0
   36.1020   26.8770   30.8810 C   0  0  0  0  0  0  0  0  0  0  0  0
   35.6070   27.9560   31.5810 N   0  0  0  0  0  0  0  0  0  0  0  0
   36.0230   28.2410   32.8300 C   0  0  0  0  0  0  0  0  0  0  0  0
   36.9240   27.4900   33.4250 N   0  0  0  0  0  0  0  0  0  0  0  0
   35.7310   26.6970   29.8850 H   0  0  0  0  0  0  0  0  0  0  0  0
   35.5600   29.1040   33.2610 H   0  0  0  0  0  0  0  0  0  0  0  0
   36.6830   23.8330   30.6880 C   0  0  0  0  0  0  0  0  0  0  0  0
   35.6420   23.4050   31.3190 O   0  0  0  0  0  0  0  0  0  0  0  0
   37.4810   25.0160   30.7620 N   0  0  0  0  0  0  0  0  0  0  0  0
   36.5050   22.8750   30.2180 H   0  0  0  0  0  0  0  0  0  0  0  0
   38.1990   24.6160   30.1530 H   0  0  0  0  0  0  0  0  0  0  0  0
  1  3  1  0  0  0  0
  2 12  1  0  0  0  0
  2  7  1  0  0  0  0
  3  2  2  0  0  0  0
  4  3  1  0  0  0  0
  4  5  2  0  0  0  0
  5  6  1  0  0  0  0
  6  7  2  0  0  0  0
  6 10  1  0  0  0  0
  7 13  1  0  0  0  0
  8  4  1  0  0  0  0
  9  5  1  0  0  0  0
 12 11  3  0  0  0  0
 13 14  1  0  0  0  0
 14 15  1  0  0  0  0
 16  1  1  0  0  0  0
 16 21  1  0  0  0  0
 17 16  2  0  0  0  0
 18 17  1  0  0  0  0
 18 19  2  0  0  0  0
 19 20  1  0  0  0  0
 20 23  1  0  0  0  0
 20 21  2  0  0  0  0
 22 18  1  0  0  0  0
 24 26  1  0  0  0  0
 24 25  2  0  0  0  0
 26 17  1  0  0  0  0
 27 24  1  0  0  0  0
 28 26  1  0  0  0  0
M  END
>  <minimizedAffinity>
-4.69328022

$$$$

 OpenBabel03272507403D

 28 29  0  0  0  0  0  0  0  0999 V2000
   38.2960   24.0150   35.1380 O   0  0  0  0  0  0  0  0  0  0  0  0
   37.9340   25.9670   33.6760 C   0  0  0  0  0  0  0  0  0  0  0  0
   38.0200   24.6210   33.9180 C   0  0  0  0  0  0  0  0  0  0  0  0
   37.8250   23.7010   32.9000 C   0  0  0  0  0  0  0  0  0  0  0  0
   37.5360   24.1730   31.6160 C   0  0  0  0  0  0  0  0  0  0  0  0
   37.4490   25.5320   31.3740 C   0  0  0  0  0  0  0  0  0  0  0  0
   37.6520   26.4160   32.4210 C   0  0  0  0  0  0  0  0  0  0  0  0
   37.8820   22.6170   33.0380 H   0  0  0  0  0  0  0  0  0  0  0  0
   37.3790   23.4740   30.8030 H   0  0  0  0  0  0  0  0  0  0  0  0
   37.2320   25.9340   30.4010 H   0  0  0  0  0  0  0  0  0  0  0  0
   38.3370   27.5290   35.6970 N   0  0  0  0  0  0  0  0  0  0  0  0
   38.1580   26.8370   34.7850 C   0  0  0  0  0  0  0  0  0  0  0  0
   37.5450   27.8710   32.1450 C   0  0  0  0  0  2  0  0  0  0  0  0
   36.0660   28.2370   31.9820 C   0  0  0  0  0  2  0  0  0  0  0  0
   36.0560   29.2370   31.4620 H   0  0  0  0  0  0  0  0  0  0  0  0
   39.5440   23.6960   35.5710 C   0  0  0  0  0  0  0  0  0  0  0  0
   39.4990   22.9940   36.7890 C   0  0  0  0  0  0  0  0  0  0  0  0
   40.6670   22.5730   37.4090 C   0  0  0  0  0  0  0  0  0  0  0  0
   41.8480   22.8780   36.7670 N   0  0  0  0  0  0  0  0  0  0  0  0
   41.8670   23.5500   35.6000 C   0  0  0  0  0  0  0  0  0  0  0  0
   40.7460   23.9400   35.0320 N   0  0  0  0  0  0  0  0  0  0  0  0
   40.7130   22.0320   38.3400 H   0  0  0  0  0  0  0  0  0  0  0  0
   42.8480   23.7220   35.2080 H   0  0  0  0  0  0  0  0  0  0  0  0
   37.7310   23.5500   38.3860 C   0  0  0  0  0  0  0  0  0  0  0  0
   38.0670   24.6970   38.8710 O   0  0  0  0  0  0  0  0  0  0  0  0
   38.3500   22.6240   37.4910 N   0  0  0  0  0  0  0  0  0  0  0  0
   36.8810   23.7950   39.0080 H   0  0  0  0  0  0  0  0  0  0  0  0
   37.6570   21.9000   37.7000 H   0  0  0  0  0  0  0  0  0  0  0  0
  1 16  1  0  0  0  0
  2  3  1  0  0  0  0
  2 12  1  0  0  0  0
  3  1  1  0  0  0  0
  4  8  1  0  0  0  0
  4  3  2  0  0  0  0
  5  4  1  0  0  0  0
  6  5  2  0  0  0  0
  6  7  1  0  0  0  0
  7  2  2  0  0  0  0
  9  5  1  0  0  0  0
 10  6  1  0  0  0  0
 12 11  3  0  0  0  0
 13  7  1  0  0  0  0
 14 13  1  0  0  0  0
 15 14  1  0  0  0  0
 16 17  1  0  0  0  0
 17 18  2  0  0  0  0
 17 26  1  0  0  0  0
 18 22  1  0  0  0  0
 19 18  1  0  0  0  0
 20 19  2  0  0  0  0
 21 16  2  0  0  0  0
 21 20  1  0  0  0  0
 23 20  1  0  0  0  0
 24 25  2  0  0  0  0
 24 27  1  0  0  0  0
 26 28  1  0  0  0  0
 26 24  1  0  0  0  0
M  END
>  <minimizedAffinity>
-4.64672995

$$$$

 OpenBabel03272507403D

 28 29  0  0  0  0  0  0  0  0999 V2000
   38.1350   24.2950   34.4840 O   0  0  0  0  0  0  0  0  0  0  0  0
   37.0280   25.8520   32.9260 C   0  0  0  0  0  0  0  0  0  0  0  0
   37.6180   25.5330   34.1210 C   0  0  0  0  0  0  0  0  0  0  0  0
   37.7530   26.4810   35.1240 C   0  0  0  0  0  0  0  0  0  0  0  0
   37.2760   27.7740   34.8920 C   0  0  0  0  0  0  0  0  0  0  0  0
   36.6820   28.0950   33.6840 C   0  0  0  0  0  0  0  0  0  0  0  0
   36.5670   27.1170   32.7120 C   0  0  0  0  0  0  0  0  0  0  0  0
   38.2150   26.2790   36.0960 H   0  0  0  0  0  0  0  0  0  0  0  0
   37.3710   28.5330   35.6600 H   0  0  0  0  0  0  0  0  0  0  0  0
   36.3010   29.0770   33.4700 H   0  0  0  0  0  0  0  0  0  0  0  0
   36.8480   23.9490   31.1860 N   0  0  0  0  0  0  0  0  0  0  0  0
   36.9260   24.8090   31.9580 C   0  0  0  0  0  0  0  0  0  0  0  0
   35.9350   27.4810   31.4180 C   0  0  0  0  0  2  0  0  0  0  0  0
   36.8270   28.5020   30.7020 C   0  0  0  0  0  2  0  0  0  0  0  0
   36.1710   28.9820   29.9200 H   0  0  0  0  0  0  0  0  0  0  0  0
   38.3650   23.9060   35.7650 C   0  0  0  0  0  0  0  0  0  0  0  0
   39.6840   23.4470   35.9310 C   0  0  0  0  0  0  0  0  0  0  0  0
   40.1300   23.0000   37.1660 C   0  0  0  0  0  0  0  0  0  0  0  0
   39.2190   23.0350   38.1990 N   0  0  0  0  0  0  0  0  0  0  0  0
   37.9600   23.4810   38.0180 C   0  0  0  0  0  0  0  0  0  0  0  0
   37.5600   23.8990   36.8370 N   0  0  0  0  0  0  0  0  0  0  0  0
   41.1230   22.6340   37.3710 H   0  0  0  0  0  0  0  0  0  0  0  0
   37.3540   23.4560   38.9000 H   0  0  0  0  0  0  0  0  0  0  0  0
   41.4350   24.5720   34.6440 C   0  0  0  0  0  0  0  0  0  0  0  0
   41.3390   25.8180   34.9660 O   0  0  0  0  0  0  0  0  0  0  0  0
   40.6770   23.4000   34.9480 N   0  0  0  0  0  0  0  0  0  0  0  0
   42.2800   25.0090   34.1290 H   0  0  0  0  0  0  0  0  0  0  0  0
   41.1740   22.8490   34.2450 H   0  0  0  0  0  0  0  0  0  0  0  0
  1 16  1  0  0  0  0
  2  3  1  0  0  0  0
  3  1  1  0  0  0  0
  3  4  2  0  0  0  0
  4  8  1  0  0  0  0
  5  4  1  0  0  0  0
  5  9  1  0  0  0  0
  6  5  2  0  0  0  0
  7  2  2  0  0  0  0
  7  6  1  0  0  0  0
 10  6  1  0  0  0  0
 11 12  3  0  0  0  0
 12  2  1  0  0  0  0
 13  7  1  0  0  0  0
 14 13  1  0  0  0  0
 15 14  1  0  0  0  0
 16 17  2  0  0  0  0
 16 21  1  0  0  0  0
 17 18  1  0  0  0  0
 18 22  1  0  0  0  0
 18 19  2  0  0  0  0
 20 19  1  0  0  0  0
 20 23  1  0  0  0  0
 21 20  2  0  0  0  0
 24 26  1  0  0  0  0
 24 25  2  0  0  0  0
 26 17  1  0  0  0  0
 27 24  1  0  0  0  0
 28 26  1  0  0  0  0
M  END
>  <minimizedAffinity>
-4.60996771

$$$$

 OpenBabel03272507403D

 28 29  0  0  0  0  0  0  0  0999 V2000
   37.9710   24.5320   33.9840 O   0  0  0  0  0  0  0  0  0  0  0  0
   39.2740   23.4700   35.7870 C   0  0  0  0  0  0  0  0  0  0  0  0
   39.1550   24.1830   34.6230 C   0  0  0  0  0  0  0  0  0  0  0  0
   40.2780   24.6410   33.9510 C   0  0  0  0  0  0  0  0  0  0  0  0
   41.5390   24.3610   34.4850 C   0  0  0  0  0  0  0  0  0  0  0  0
   41.6570   23.6420   35.6610 C   0  0  0  0  0  0  0  0  0  0  0  0
   40.5090   23.2040   36.2980 C   0  0  0  0  0  0  0  0  0  0  0  0
   40.2400   25.2130   33.0190 H   0  0  0  0  0  0  0  0  0  0  0  0
   42.4320   24.7090   33.9780 H   0  0  0  0  0  0  0  0  0  0  0  0
   42.6090   23.4050   36.1010 H   0  0  0  0  0  0  0  0  0  0  0  0
   37.0840   22.6890   36.9180 N   0  0  0  0  0  0  0  0  0  0  0  0
   38.0630   23.0340   36.4020 C   0  0  0  0  0  0  0  0  0  0  0  0
   40.6540   22.4410   37.5640 C   0  0  0  0  0  2  0  0  0  0  0  0
   41.7090   21.3470   37.3640 C   0  0  0  0  0  2  0  0  0  0  0  0
   41.5480   20.6120   38.2040 H   0  0  0  0  0  0  0  0  0  0  0  0
   37.4780   25.7970   33.9210 C   0  0  0  0  0  0  0  0  0  0  0  0
   37.1850   26.1660   32.5960 C   0  0  0  0  0  0  0  0  0  0  0  0
   36.6710   27.4220   32.3070 C   0  0  0  0  0  0  0  0  0  0  0  0
   36.4660   28.2640   33.3780 N   0  0  0  0  0  0  0  0  0  0  0  0
   36.7520   27.8880   34.6400 C   0  0  0  0  0  0  0  0  0  0  0  0
   37.2400   26.6930   34.8890 N   0  0  0  0  0  0  0  0  0  0  0  0
   36.4230   27.7770   31.3200 H   0  0  0  0  0  0  0  0  0  0  0  0
   36.5460   28.6350   35.3780 H   0  0  0  0  0  0  0  0  0  0  0  0
   36.2530   24.5600   31.0040 C   0  0  0  0  0  0  0  0  0  0  0  0
   35.1070   24.2280   31.4950 O   0  0  0  0  0  0  0  0  0  0  0  0
   37.3380   25.3690   31.4590 N   0  0  0  0  0  0  0  0  0  0  0  0
   35.8430   23.9290   30.2270 H   0  0  0  0  0  0  0  0  0  0  0  0
   37.9480   25.0440   30.7040 H   0  0  0  0  0  0  0  0  0  0  0  0
  1  3  1  0  0  0  0
  2  7  1  0  0  0  0
  2 12  1  0  0  0  0
  3  2  2  0  0  0  0
  4  5  2  0  0  0  0
  4  3  1  0  0  0  0
  5  6  1  0  0  0  0
  6 10  1  0  0  0  0
  6  7  2  0  0  0  0
  7 13  1  0  0  0  0
  8  4  1  0  0  0  0
  9  5  1  0  0  0  0
 12 11  3  0  0  0  0
 14 13  1  0  0  0  0
 14 15  1  0  0  0  0
 16  1  1  0  0  0  0
 16 21  1  0  0  0  0
 17 16  2  0  0  0  0
 18 17  1  0  0  0  0
 18 19  2  0  0  0  0
 19 20  1  0  0  0  0
 20 21  2  0  0  0  0
 20 23  1  0  0  0  0
 22 18  1  0  0  0  0
 24 26  1  0  0  0  0
 24 25  2  0  0  0  0
 26 17  1  0  0  0  0
 27 24  1  0  0  0  0
 28 26  1  0  0  0  0
M  END
>  <minimizedAffinity>
-4.54587173

$$$$

 OpenBabel03272507403D

 28 29  0  0  0  0  0  0  0  0999 V2000
   34.6790   29.3490   33.2400 O   0  0  0  0  0  0  0  0  0  0  0  0
   33.4900   30.3010   35.1780 C   0  0  0  0  0  0  0  0  0  0  0  0
   34.5910   30.1410   34.3790 C   0  0  0  0  0  0  0  0  0  0  0  0
   35.7770   30.8000   34.6610 C   0  0  0  0  0  0  0  0  0  0  0  0
   35.8290   31.6350   35.7810 C   0  0  0  0  0  0  0  0  0  0  0  0
   34.7160   31.7960   36.5860 C   0  0  0  0  0  0  0  0  0  0  0  0
   33.5520   31.1180   36.2670 C   0  0  0  0  0  0  0  0  0  0  0  0
   36.6860   30.7080   34.0580 H   0  0  0  0  0  0  0  0  0  0  0  0
   36.7460   32.1620   36.0230 H   0  0  0  0  0  0  0  0  0  0  0  0
   34.7180   32.4270   37.4570 H   0  0  0  0  0  0  0  0  0  0  0  0
   31.3550   29.0030   34.5100 N   0  0  0  0  0  0  0  0  0  0  0  0
   32.3160   29.5760   34.8110 C   0  0  0  0  0  0  0  0  0  0  0  0
   32.3640   31.3100   37.1370 C   0  0  0  0  0  2  0  0  0  0  0  0
   31.7270   32.6660   36.8130 C   0  0  0  0  0  2  0  0  0  0  0  0
   31.0620   32.9060   37.6910 H   0  0  0  0  0  0  0  0  0  0  0  0
   35.8190   28.7470   32.8110 C   0  0  0  0  0  0  0  0  0  0  0  0
   36.1880   29.2010   31.5330 C   0  0  0  0  0  0  0  0  0  0  0  0
   37.3250   28.7120   30.9060 C   0  0  0  0  0  0  0  0  0  0  0  0
   38.0560   27.7740   31.6030 N   0  0  0  0  0  0  0  0  0  0  0  0
   37.6850   27.3550   32.8280 C   0  0  0  0  0  0  0  0  0  0  0  0
   36.6020   27.8320   33.4020 N   0  0  0  0  0  0  0  0  0  0  0  0
   37.6710   29.0100   29.9300 H   0  0  0  0  0  0  0  0  0  0  0  0
   38.3390   26.6260   33.2600 H   0  0  0  0  0  0  0  0  0  0  0  0
   35.9560   31.5230   30.7970 C   0  0  0  0  0  0  0  0  0  0  0  0
   36.7920   32.1890   31.5210 O   0  0  0  0  0  0  0  0  0  0  0  0
   35.5210   30.1620   30.7690 N   0  0  0  0  0  0  0  0  0  0  0  0
   35.8870   32.5160   30.3740 H   0  0  0  0  0  0  0  0  0  0  0  0
   34.7600   30.3790   30.1200 H   0  0  0  0  0  0  0  0  0  0  0  0
  1  3  1  0  0  0  0
  2  7  1  0  0  0  0
  3  4  1  0  0  0  0
  3  2  2  0  0  0  0
  4  5  2  0  0  0  0
  5  9  1  0  0  0  0
  5  6  1  0  0  0  0
  6 10  1  0  0  0  0
  7  6  2  0  0  0  0
  7 13  1  0  0  0  0
  8  4  1  0  0  0  0
 11 12  3  0  0  0  0
 12  2  1  0  0  0  0
 14 13  1  0  0  0  0
 14 15  1  0  0  0  0
 16  1  1  0  0  0  0
 16 21  1  0  0  0  0
 17 16  2  0  0  0  0
 18 17  1  0  0  0  0
 18 19  2  0  0  0  0
 19 20  1  0  0  0  0
 20 23  1  0  0  0  0
 20 21  2  0  0  0  0
 22 18  1  0  0  0  0
 24 25  2  0  0  0  0
 26 24  1  0  0  0  0
 26 17  1  0  0  0  0
 27 24  1  0  0  0  0
 28 26  1  0  0  0  0
M  END
>  <minimizedAffinity>
-4.51021147

$$$$

 OpenBabel03272507403D

 28 29  0  0  0  0  0  0  0  0999 V2000
   39.1290   23.9930   34.5510 O   0  0  0  0  0  0  0  0  0  0  0  0
   37.5820   24.8630   32.8400 C   0  0  0  0  0  0  0  0  0  0  0  0
   38.1230   23.8600   33.6020 C   0  0  0  0  0  0  0  0  0  0  0  0
   37.6790   22.5530   33.4770 C   0  0  0  0  0  0  0  0  0  0  0  0
   36.6650   22.2750   32.5550 C   0  0  0  0  0  0  0  0  0  0  0  0
   36.1200   23.2890   31.7880 C   0  0  0  0  0  0  0  0  0  0  0  0
   36.5940   24.5800   31.9460 C   0  0  0  0  0  0  0  0  0  0  0  0
   38.0760   21.7150   34.0590 H   0  0  0  0  0  0  0  0  0  0  0  0
   36.3000   21.2610   32.4400 H   0  0  0  0  0  0  0  0  0  0  0  0
   35.3410   23.1140   31.0680 H   0  0  0  0  0  0  0  0  0  0  0  0
   38.5430   27.2400   33.1730 N   0  0  0  0  0  0  0  0  0  0  0  0
   38.1090   26.1750   33.0330 C   0  0  0  0  0  0  0  0  0  0  0  0
   35.9910   25.6570   31.1200 C   0  0  0  0  0  2  0  0  0  0  0  0
   34.5590   25.2530   30.7480 C   0  0  0  0  0  2  0  0  0  0  0  0
   34.2740   25.9130   29.8800 H   0  0  0  0  0  0  0  0  0  0  0  0
   38.9430   23.8600   35.8900 C   0  0  0  0  0  0  0  0  0  0  0  0
   39.8970   22.9950   36.4560 C   0  0  0  0  0  0  0  0  0  0  0  0
   39.8860   22.7190   37.8160 C   0  0  0  0  0  0  0  0  0  0  0  0
   38.9030   23.3340   38.5610 N   0  0  0  0  0  0  0  0  0  0  0  0
   38.0000   24.1600   37.9980 C   0  0  0  0  0  0  0  0  0  0  0  0
   38.0300   24.4060   36.7060 N   0  0  0  0  0  0  0  0  0  0  0  0
   40.5810   22.0690   38.3210 H   0  0  0  0  0  0  0  0  0  0  0  0
   37.2920   24.5730   38.6860 H   0  0  0  0  0  0  0  0  0  0  0  0
   42.2390   22.9400   35.7520 C   0  0  0  0  0  0  0  0  0  0  0  0
   42.7190   24.0880   36.0920 O   0  0  0  0  0  0  0  0  0  0  0  0
   40.9370   22.3520   35.7820 N   0  0  0  0  0  0  0  0  0  0  0  0
   43.2870   22.8320   35.5090 H   0  0  0  0  0  0  0  0  0  0  0  0
   41.2420   21.5550   35.2160 H   0  0  0  0  0  0  0  0  0  0  0  0
  1 16  1  0  0  0  0
  2 12  1  0  0  0  0
  2  3  1  0  0  0  0
  3  1  1  0  0  0  0
  4  3  2  0  0  0  0
  4  8  1  0  0  0  0
  5  4  1  0  0  0  0
  6  7  1  0  0  0  0
  6  5  2  0  0  0  0
  7  2  2  0  0  0  0
  9  5  1  0  0  0  0
 10  6  1  0  0  0  0
 12 11  3  0  0  0  0
 13  7  1  0  0  0  0
 14 13  1  0  0  0  0
 15 14  1  0  0  0  0
 16 17  2  0  0  0  0
 16 21  1  0  0  0  0
 17 18  1  0  0  0  0
 18 22  1  0  0  0  0
 18 19  2  0  0  0  0
 20 19  1  0  0  0  0
 20 23  1  0  0  0  0
 21 20  2  0  0  0  0
 24 26  1  0  0  0  0
 24 25  2  0  0  0  0
 26 17  1  0  0  0  0
 27 24  1  0  0  0  0
 28 26  1  0  0  0  0
M  END
>  <minimizedAffinity>
-4.49021292

$$$$

 OpenBabel03272507403D

 28 29  0  0  0  0  0  0  0  0999 V2000
   38.3170   24.6570   33.0470 O   0  0  0  0  0  0  0  0  0  0  0  0
   37.2290   22.4680   33.3620 C   0  0  0  0  0  0  0  0  0  0  0  0
   37.4180   23.6540   32.7030 C   0  0  0  0  0  0  0  0  0  0  0  0
   36.6810   23.9660   31.5710 C   0  0  0  0  0  0  0  0  0  0  0  0
   35.7370   23.0420   31.1120 C   0  0  0  0  0  0  0  0  0  0  0  0
   35.5480   21.8450   31.7780 C   0  0  0  0  0  0  0  0  0  0  0  0
   36.3070   21.5750   32.9040 C   0  0  0  0  0  0  0  0  0  0  0  0
   36.7910   24.8980   31.0090 H   0  0  0  0  0  0  0  0  0  0  0  0
   35.1480   23.2620   30.2280 H   0  0  0  0  0  0  0  0  0  0  0  0
   34.8310   21.1110   31.4570 H   0  0  0  0  0  0  0  0  0  0  0  0
   38.6760   22.0720   35.4680 N   0  0  0  0  0  0  0  0  0  0  0  0
   38.0290   22.2400   34.5220 C   0  0  0  0  0  0  0  0  0  0  0  0
   36.0970   20.2810   33.6020 C   0  0  0  0  0  2  0  0  0  0  0  0
   35.1870   19.3970   32.7410 C   0  0  0  0  0  2  0  0  0  0  0  0
   34.7980   18.5970   33.4330 H   0  0  0  0  0  0  0  0  0  0  0  0
   38.0020   25.7480   33.7930 C   0  0  0  0  0  0  0  0  0  0  0  0
   38.9460   25.9590   34.8140 C   0  0  0  0  0  0  0  0  0  0  0  0
   38.8120   27.0230   35.6950 C   0  0  0  0  0  0  0  0  0  0  0  0
   37.7200   27.8420   35.5080 N   0  0  0  0  0  0  0  0  0  0  0  0
   36.8290   27.6220   34.5220 C   0  0  0  0  0  0  0  0  0  0  0  0
   36.9770   26.6060   33.6990 N   0  0  0  0  0  0  0  0  0  0  0  0
   39.4920   27.2500   36.5000 H   0  0  0  0  0  0  0  0  0  0  0  0
   36.0290   28.3310   34.4860 H   0  0  0  0  0  0  0  0  0  0  0  0
   41.3840   25.7500   34.8110 C   0  0  0  0  0  0  0  0  0  0  0  0
   41.8110   26.8200   34.2310 O   0  0  0  0  0  0  0  0  0  0  0  0
   40.0900   25.1960   35.0580 N   0  0  0  0  0  0  0  0  0  0  0  0
   42.4560   25.6570   34.9190 H   0  0  0  0  0  0  0  0  0  0  0  0
   40.4880   24.3040   35.3630 H   0  0  0  0  0  0  0  0  0  0  0  0
  1 16  1  0  0  0  0
  2 12  1  0  0  0  0
  3  1  1  0  0  0  0
  3  2  2  0  0  0  0
  4  3  1  0  0  0  0
  5  4  2  0  0  0  0
  5  6  1  0  0  0  0
  6  7  2  0  0  0  0
  7  2  1  0  0  0  0
  7 13  1  0  0  0  0
  8  4  1  0  0  0  0
  9  5  1  0  0  0  0
 10  6  1  0  0  0  0
 12 11  3  0  0  0  0
 14 15  1  0  0  0  0
 14 13  1  0  0  0  0
 16 17  1  0  0  0  0
 17 26  1  0  0  0  0
 17 18  2  0  0  0  0
 18 22  1  0  0  0  0
 19 18  1  0  0  0  0
 20 19  2  0  0  0  0
 21 16  2  0  0  0  0
 21 20  1  0  0  0  0
 23 20  1  0  0  0  0
 24 27  1  0  0  0  0
 24 26  1  0  0  0  0
 25 24  2  0  0  0  0
 26 28  1  0  0  0  0
M  END
>  <minimizedAffinity>
-4.46440983

$$$$

 OpenBabel03272507403D

 28 29  0  0  0  0  0  0  0  0999 V2000
   38.4540   22.2950   34.2470 O   0  0  0  0  0  0  0  0  0  0  0  0
   37.5180   21.1730   32.2610 C   0  0  0  0  0  0  0  0  0  0  0  0
   37.5010   21.5310   33.5840 C   0  0  0  0  0  0  0  0  0  0  0  0
   36.4650   21.1350   34.4150 C   0  0  0  0  0  0  0  0  0  0  0  0
   35.4330   20.3600   33.8770 C   0  0  0  0  0  0  0  0  0  0  0  0
   35.4520   20.0000   32.5410 C   0  0  0  0  0  0  0  0  0  0  0  0
   36.5060   20.4180   31.7480 C   0  0  0  0  0  0  0  0  0  0  0  0
   36.4020   21.3920   35.4770 H   0  0  0  0  0  0  0  0  0  0  0  0
   34.6110   20.0380   34.5070 H   0  0  0  0  0  0  0  0  0  0  0  0
   34.6780   19.4040   32.0920 H   0  0  0  0  0  0  0  0  0  0  0  0
   39.5210   21.9860   30.8430 N   0  0  0  0  0  0  0  0  0  0  0  0
   38.6300   21.6200   31.4870 C   0  0  0  0  0  0  0  0  0  0  0  0
   36.5060   20.0300   30.3140 C   0  0  0  0  0  2  0  0  0  0  0  0
   36.7760   18.5250   30.2090 C   0  0  0  0  0  2  0  0  0  0  0  0
   37.0900   18.3470   29.1410 H   0  0  0  0  0  0  0  0  0  0  0  0
   38.2430   23.5560   34.7060 C   0  0  0  0  0  0  0  0  0  0  0  0
   38.4330   23.6320   36.0970 C   0  0  0  0  0  0  0  0  0  0  0  0
   38.2650   24.8330   36.7720 C   0  0  0  0  0  0  0  0  0  0  0  0
   37.9120   25.9230   36.0070 N   0  0  0  0  0  0  0  0  0  0  0  0
   37.7380   25.8280   34.6750 C   0  0  0  0  0  0  0  0  0  0  0  0
   37.9010   24.6770   34.0580 N   0  0  0  0  0  0  0  0  0  0  0  0
   38.3920   24.9700   37.8330 H   0  0  0  0  0  0  0  0  0  0  0  0
   37.4650   26.7470   34.2000 H   0  0  0  0  0  0  0  0  0  0  0  0
   40.1880   22.4170   37.2920 C   0  0  0  0  0  0  0  0  0  0  0  0
   41.2950   22.9370   36.8810 O   0  0  0  0  0  0  0  0  0  0  0  0
   38.8130   22.5860   36.9420 N   0  0  0  0  0  0  0  0  0  0  0  0
   40.9210   21.9190   37.9120 H   0  0  0  0  0  0  0  0  0  0  0  0
   38.5330   21.7710   37.4930 H   0  0  0  0  0  0  0  0  0  0  0  0
  1 16  1  0  0  0  0
  2  3  1  0  0  0  0
  3  1  1  0  0  0  0
  3  4  2  0  0  0  0
  4  8  1  0  0  0  0
  5  4  1  0  0  0  0
  5  9  1  0  0  0  0
  6  5  2  0  0  0  0
  7  2  2  0  0  0  0
  7  6  1  0  0  0  0
 10  6  1  0  0  0  0
 11 12  3  0  0  0  0
 12  2  1  0  0  0  0
 13  7  1  0  0  0  0
 14 13  1  0  0  0  0
 15 14  1  0  0  0  0
 16 17  1  0  0  0  0
 17 18  2  0  0  0  0
 17 26  1  0  0  0  0
 18 22  1  0  0  0  0
 19 18  1  0  0  0  0
 20 19  2  0  0  0  0
 21 20  1  0  0  0  0
 21 16  2  0  0  0  0
 23 20  1  0  0  0  0
 24 27  1  0  0  0  0
 25 24  2  0  0  0  0
 26 24  1  0  0  0  0
 26 28  1  0  0  0  0
M  END
>  <minimizedAffinity>
-4.45376635

$$$$
