
 OpenBabel03272503233D

 24 25  0  0  1  0  0  0  0  0999 V2000
   38.0400   23.1420   36.3110 N   0  0  0  0  0  0  0  0  0  0  0  0
   37.7440   24.5160   36.6060 C   0  0  1  0  0  0  0  0  0  0  0  0
   38.1330   24.6270   38.0890 C   0  0  0  0  0  0  0  0  0  0  0  0
   38.7970   23.3080   38.4540 C   0  0  0  0  0  0  0  0  0  0  0  0
   39.2210   22.8000   37.0960 C   0  0  0  0  0  0  0  0  0  0  0  0
   36.7150   24.8220   36.4290 H   0  0  0  0  0  0  0  0  0  0  0  0
   38.7610   25.4890   38.3020 H   0  0  0  0  0  0  0  0  0  0  0  0
   37.1740   24.6480   38.6540 H   0  0  0  0  0  0  0  0  0  0  0  0
   39.7440   23.5300   39.0280 H   0  0  0  0  0  0  0  0  0  0  0  0
   38.1200   22.6240   38.9640 H   0  0  0  0  0  0  0  0  0  0  0  0
   40.1150   23.3230   36.7340 H   0  0  0  0  0  0  0  0  0  0  0  0
   39.3690   21.7080   37.1390 H   0  0  0  0  0  0  0  0  0  0  0  0
   37.3440   22.2660   35.4380 C   0  0  0  0  0  0  0  0  0  0  0  0
   36.3450   21.4680   35.9950 C   0  0  0  0  0  0  0  0  0  0  0  0
   35.6440   20.5980   35.1620 C   0  0  0  0  0  0  0  0  0  0  0  0
   35.9810   20.5790   33.8350 N   0  0  0  0  0  0  0  0  0  0  0  0
   36.9500   21.3630   33.3270 C   0  0  0  0  0  0  0  0  0  0  0  0
   37.6440   22.2190   34.1360 N   0  0  0  0  0  0  0  0  0  0  0  0
   36.0500   21.4540   37.0360 H   0  0  0  0  0  0  0  0  0  0  0  0
   34.8710   19.9630   35.5240 H   0  0  0  0  0  0  0  0  0  0  0  0
   37.1880   21.3190   32.2740 H   0  0  0  0  0  0  0  0  0  0  0  0
   38.7000   25.4740   35.8830 C   0  0  0  0  0  2  0  0  0  0  0  0
   38.3540   26.9040   36.1840 C   0  0  0  0  0  2  0  0  0  0  0  0
   37.8470   26.9720   37.1770 H   0  0  0  0  0  0  0  0  0  0  0  0
  1  2  1  0  0  0  0
  1  5  1  0  0  0  0
  2  6  1  6  0  0  0
  2  3  1  0  0  0  0
  3  7  1  0  0  0  0
  3  4  1  0  0  0  0
  3  8  1  0  0  0  0
  4 10  1  0  0  0  0
  4  9  1  0  0  0  0
  5 12  1  0  0  0  0
  5  4  1  0  0  0  0
 11  5  1  0  0  0  0
 13 14  1  0  0  0  0
 13  1  1  0  0  0  0
 14 19  1  0  0  0  0
 15 20  1  0  0  0  0
 15 14  2  0  0  0  0
 16 15  1  0  0  0  0
 17 16  2  0  0  0  0
 17 18  1  0  0  0  0
 18 13  2  0  0  0  0
 21 17  1  0  0  0  0
 22 23  1  0  0  0  0
 22  2  1  0  0  0  0
 23 24  1  0  0  0  0
M  END
>  <minimizedAffinity>
-3.99265575

$$$$

 OpenBabel03272503233D

 24 25  0  0  1  0  0  0  0  0999 V2000
   38.4810   24.1340   36.3890 N   0  0  0  0  0  0  0  0  0  0  0  0
   39.6980   23.3720   36.3690 C   0  0  1  0  0  0  0  0  0  0  0  0
   39.8610   22.9700   37.8430 C   0  0  0  0  0  0  0  0  0  0  0  0
   38.5860   23.4090   38.5470 C   0  0  0  0  0  0  0  0  0  0  0  0
   37.6220   23.5070   37.3880 C   0  0  0  0  0  0  0  0  0  0  0  0
   40.5720   23.8970   35.9890 H   0  0  0  0  0  0  0  0  0  0  0  0
   40.0730   21.9110   37.9760 H   0  0  0  0  0  0  0  0  0  0  0  0
   40.6690   23.6200   38.2480 H   0  0  0  0  0  0  0  0  0  0  0  0
   38.2260   22.5600   39.1990 H   0  0  0  0  0  0  0  0  0  0  0  0
   38.7030   24.3550   39.0750 H   0  0  0  0  0  0  0  0  0  0  0  0
   37.2820   22.5150   37.0660 H   0  0  0  0  0  0  0  0  0  0  0  0
   36.7810   24.1650   37.6620 H   0  0  0  0  0  0  0  0  0  0  0  0
   38.1490   25.2720   35.6100 C   0  0  0  0  0  0  0  0  0  0  0  0
   38.2870   26.5230   36.2110 C   0  0  0  0  0  0  0  0  0  0  0  0
   37.9690   27.6580   35.4690 C   0  0  0  0  0  0  0  0  0  0  0  0
   37.5350   27.4770   34.1830 N   0  0  0  0  0  0  0  0  0  0  0  0
   37.4120   26.2570   33.6300 C   0  0  0  0  0  0  0  0  0  0  0  0
   37.7220   25.1360   34.3500 N   0  0  0  0  0  0  0  0  0  0  0  0
   38.6260   26.7070   37.2220 H   0  0  0  0  0  0  0  0  0  0  0  0
   38.0520   28.6410   35.8690 H   0  0  0  0  0  0  0  0  0  0  0  0
   37.0660   26.1540   32.6120 H   0  0  0  0  0  0  0  0  0  0  0  0
   39.5280   22.0430   35.6210 C   0  0  0  0  0  2  0  0  0  0  0  0
   39.8680   22.1980   34.1670 C   0  0  0  0  0  2  0  0  0  0  0  0
   40.5940   23.0360   34.0330 H   0  0  0  0  0  0  0  0  0  0  0  0
  1  5  1  0  0  0  0
  2  6  1  6  0  0  0
  2  1  1  0  0  0  0
  2  3  1  0  0  0  0
  3  7  1  0  0  0  0
  3  8  1  0  0  0  0
  3  4  1  0  0  0  0
  4 10  1  0  0  0  0
  4  9  1  0  0  0  0
  5 12  1  0  0  0  0
  5  4  1  0  0  0  0
 11  5  1  0  0  0  0
 13 14  1  0  0  0  0
 13  1  1  0  0  0  0
 14 19  1  0  0  0  0
 15 20  1  0  0  0  0
 15 14  2  0  0  0  0
 16 15  1  0  0  0  0
 17 16  2  0  0  0  0
 17 18  1  0  0  0  0
 18 13  2  0  0  0  0
 21 17  1  0  0  0  0
 22  2  1  0  0  0  0
 23 22  1  0  0  0  0
 24 23  1  0  0  0  0
M  END
>  <minimizedAffinity>
-3.8690443

$$$$

 OpenBabel03272503233D

 24 25  0  0  1  0  0  0  0  0999 V2000
   38.0440   25.8850   34.0080 N   0  0  0  0  0  0  0  0  0  0  0  0
   38.7650   27.0890   34.3080 C   0  0  1  0  0  0  0  0  0  0  0  0
   38.7510   27.1090   35.8450 C   0  0  0  0  0  0  0  0  0  0  0  0
   38.1550   25.7790   36.2820 C   0  0  0  0  0  0  0  0  0  0  0  0
   38.3890   24.9290   35.0560 C   0  0  0  0  0  0  0  0  0  0  0  0
   38.3510   28.0020   33.8840 H   0  0  0  0  0  0  0  0  0  0  0  0
   39.7310   27.2950   36.2790 H   0  0  0  0  0  0  0  0  0  0  0  0
   38.0040   27.8830   36.1330 H   0  0  0  0  0  0  0  0  0  0  0  0
   38.8010   25.3500   37.1030 H   0  0  0  0  0  0  0  0  0  0  0  0
   37.1000   25.8570   36.5420 H   0  0  0  0  0  0  0  0  0  0  0  0
   39.4350   24.6090   34.9840 H   0  0  0  0  0  0  0  0  0  0  0  0
   37.6930   24.0740   35.0610 H   0  0  0  0  0  0  0  0  0  0  0  0
   37.1640   25.6400   32.9220 C   0  0  0  0  0  0  0  0  0  0  0  0
   36.5560   26.7470   32.3290 C   0  0  0  0  0  0  0  0  0  0  0  0
   35.6880   26.5370   31.2600 C   0  0  0  0  0  0  0  0  0  0  0  0
   35.4820   25.2460   30.8510 N   0  0  0  0  0  0  0  0  0  0  0  0
   36.0850   24.1990   31.4440 C   0  0  0  0  0  0  0  0  0  0  0  0
   36.9380   24.3940   32.4940 N   0  0  0  0  0  0  0  0  0  0  0  0
   36.6930   27.7790   32.6220 H   0  0  0  0  0  0  0  0  0  0  0  0
   35.1920   27.3370   30.7640 H   0  0  0  0  0  0  0  0  0  0  0  0
   35.8970   23.1940   31.0930 H   0  0  0  0  0  0  0  0  0  0  0  0
   40.2490   26.9750   33.9370 C   0  0  0  0  0  2  0  0  0  0  0  0
   40.4480   27.1590   32.4600 C   0  0  0  0  0  2  0  0  0  0  0  0
   39.6260   27.7880   32.0410 H   0  0  0  0  0  0  0  0  0  0  0  0
  1  2  1  0  0  0  0
  1  5  1  0  0  0  0
  2  6  1  6  0  0  0
  2  3  1  0  0  0  0
  3  8  1  0  0  0  0
  3  7  1  0  0  0  0
  3  4  1  0  0  0  0
  4 10  1  0  0  0  0
  4  9  1  0  0  0  0
  5 12  1  0  0  0  0
  5  4  1  0  0  0  0
 11  5  1  0  0  0  0
 13  1  1  0  0  0  0
 14 19  1  0  0  0  0
 14 13  2  0  0  0  0
 15 14  1  0  0  0  0
 16 15  2  0  0  0  0
 16 17  1  0  0  0  0
 17 18  2  0  0  0  0
 18 13  1  0  0  0  0
 20 15  1  0  0  0  0
 21 17  1  0  0  0  0
 22  2  1  0  0  0  0
 23 22  1  0  0  0  0
 24 23  1  0  0  0  0
M  END
>  <minimizedAffinity>
-3.75254822

$$$$

 OpenBabel03272503233D

 24 25  0  0  1  0  0  0  0  0999 V2000
   38.5490   25.8170   35.3060 N   0  0  0  0  0  0  0  0  0  0  0  0
   37.8100   25.7920   34.0750 C   0  0  1  0  0  0  0  0  0  0  0  0
   37.0230   27.1110   34.1350 C   0  0  0  0  0  0  0  0  0  0  0  0
   37.5440   27.8610   35.3520 C   0  0  0  0  0  0  0  0  0  0  0  0
   38.8940   27.2140   35.5480 C   0  0  0  0  0  0  0  0  0  0  0  0
   37.1560   24.9320   33.9390 H   0  0  0  0  0  0  0  0  0  0  0  0
   37.0930   27.6920   33.2190 H   0  0  0  0  0  0  0  0  0  0  0  0
   35.9740   26.8280   34.3810 H   0  0  0  0  0  0  0  0  0  0  0  0
   37.7380   28.9330   35.0550 H   0  0  0  0  0  0  0  0  0  0  0  0
   36.8960   27.7520   36.2210 H   0  0  0  0  0  0  0  0  0  0  0  0
   39.6250   27.5830   34.8190 H   0  0  0  0  0  0  0  0  0  0  0  0
   39.2300   27.3680   36.5870 H   0  0  0  0  0  0  0  0  0  0  0  0
   38.8910   24.7230   36.1430 C   0  0  0  0  0  0  0  0  0  0  0  0
   38.1120   24.5200   37.2820 C   0  0  0  0  0  0  0  0  0  0  0  0
   38.4240   23.4530   38.1210 C   0  0  0  0  0  0  0  0  0  0  0  0
   39.4860   22.6610   37.7760 N   0  0  0  0  0  0  0  0  0  0  0  0
   40.2190   22.8820   36.6690 C   0  0  0  0  0  0  0  0  0  0  0  0
   39.9210   23.9270   35.8380 N   0  0  0  0  0  0  0  0  0  0  0  0
   37.2670   25.1220   37.5880 H   0  0  0  0  0  0  0  0  0  0  0  0
   37.8700   23.2440   39.0060 H   0  0  0  0  0  0  0  0  0  0  0  0
   41.0500   22.2350   36.4290 H   0  0  0  0  0  0  0  0  0  0  0  0
   38.7260   25.9430   32.8550 C   0  0  0  0  0  2  0  0  0  0  0  0
   38.1130   26.8590   31.8340 C   0  0  0  0  0  2  0  0  0  0  0  0
   37.4210   27.5780   32.3350 H   0  0  0  0  0  0  0  0  0  0  0  0
  1  5  1  0  0  0  0
  1 13  1  0  0  0  0
  2  6  1  6  0  0  0
  2  3  1  0  0  0  0
  2  1  1  0  0  0  0
  3  8  1  0  0  0  0
  3  4  1  0  0  0  0
  4  5  1  0  0  0  0
  4 10  1  0  0  0  0
  5 12  1  0  0  0  0
  7  3  1  0  0  0  0
  9  4  1  0  0  0  0
 11  5  1  0  0  0  0
 13 14  1  0  0  0  0
 14 19  1  0  0  0  0
 14 15  2  0  0  0  0
 15 20  1  0  0  0  0
 16 15  1  0  0  0  0
 17 16  2  0  0  0  0
 18 13  2  0  0  0  0
 18 17  1  0  0  0  0
 21 17  1  0  0  0  0
 22  2  1  0  0  0  0
 23 24  1  0  0  0  0
 23 22  1  0  0  0  0
M  END
>  <minimizedAffinity>
-3.74778748

$$$$

 OpenBabel03272503233D

 24 25  0  0  1  0  0  0  0  0999 V2000
   36.6040   22.3400   31.7570 N   0  0  0  0  0  0  0  0  0  0  0  0
   35.5850   21.3290   31.7840 C   0  0  1  0  0  0  0  0  0  0  0  0
   36.1630   20.2520   30.8530 C   0  0  0  0  0  0  0  0  0  0  0  0
   37.5790   20.6950   30.5170 C   0  0  0  0  0  0  0  0  0  0  0  0
   37.8770   21.6340   31.6610 C   0  0  0  0  0  0  0  0  0  0  0  0
   34.5950   21.6530   31.4680 H   0  0  0  0  0  0  0  0  0  0  0  0
   36.1240   19.2520   31.2800 H   0  0  0  0  0  0  0  0  0  0  0  0
   35.5890   20.3310   29.9020 H   0  0  0  0  0  0  0  0  0  0  0  0
   38.2690   19.8100   30.6350 H   0  0  0  0  0  0  0  0  0  0  0  0
   37.6460   21.1840   29.5460 H   0  0  0  0  0  0  0  0  0  0  0  0
   38.1070   21.0840   32.5820 H   0  0  0  0  0  0  0  0  0  0  0  0
   38.6930   22.3190   31.3750 H   0  0  0  0  0  0  0  0  0  0  0  0
   36.4400   23.7480   31.8110 C   0  0  0  0  0  0  0  0  0  0  0  0
   35.4410   24.3070   31.0130 C   0  0  0  0  0  0  0  0  0  0  0  0
   35.2570   25.6880   31.0460 C   0  0  0  0  0  0  0  0  0  0  0  0
   36.0740   26.4200   31.8650 N   0  0  0  0  0  0  0  0  0  0  0  0
   37.0290   25.8510   32.6240 C   0  0  0  0  0  0  0  0  0  0  0  0
   37.2180   24.4970   32.5980 N   0  0  0  0  0  0  0  0  0  0  0  0
   34.7770   23.7640   30.3550 H   0  0  0  0  0  0  0  0  0  0  0  0
   34.5130   26.1760   30.4620 H   0  0  0  0  0  0  0  0  0  0  0  0
   37.6550   26.4620   33.2570 H   0  0  0  0  0  0  0  0  0  0  0  0
   35.4920   20.6460   33.1550 C   0  0  0  0  0  2  0  0  0  0  0  0
   35.3730   19.1570   33.0040 C   0  0  0  0  0  2  0  0  0  0  0  0
   35.8420   18.8310   32.0450 H   0  0  0  0  0  0  0  0  0  0  0  0
  1  2  1  0  0  0  0
  1 13  1  0  0  0  0
  2  6  1  6  0  0  0
  2 22  1  0  0  0  0
  3  7  1  0  0  0  0
  3  2  1  0  0  0  0
  4  9  1  0  0  0  0
  4  3  1  0  0  0  0
  4  5  1  0  0  0  0
  5  1  1  0  0  0  0
  5 11  1  0  0  0  0
  8  3  1  0  0  0  0
 10  4  1  0  0  0  0
 12  5  1  0  0  0  0
 13 18  1  0  0  0  0
 14 15  1  0  0  0  0
 14 13  2  0  0  0  0
 15 16  2  0  0  0  0
 16 17  1  0  0  0  0
 17 21  1  0  0  0  0
 18 17  2  0  0  0  0
 19 14  1  0  0  0  0
 20 15  1  0  0  0  0
 23 22  1  0  0  0  0
 24 23  1  0  0  0  0
M  END
>  <minimizedAffinity>
-3.74250269

$$$$

 OpenBabel03272503233D

 24 25  0  0  1  0  0  0  0  0999 V2000
   37.7330   26.1980   33.6180 N   0  0  0  0  0  0  0  0  0  0  0  0
   36.9210   27.0940   34.3920 C   0  0  1  0  0  0  0  0  0  0  0  0
   37.9040   27.5870   35.4660 C   0  0  0  0  0  0  0  0  0  0  0  0
   39.2680   27.0380   35.0770 C   0  0  0  0  0  0  0  0  0  0  0  0
   39.0750   26.7700   33.6030 C   0  0  0  0  0  0  0  0  0  0  0  0
   36.0250   26.6560   34.8280 H   0  0  0  0  0  0  0  0  0  0  0  0
   37.9020   28.6680   35.5830 H   0  0  0  0  0  0  0  0  0  0  0  0
   37.6210   27.0560   36.4030 H   0  0  0  0  0  0  0  0  0  0  0  0
   40.0260   27.8710   35.1590 H   0  0  0  0  0  0  0  0  0  0  0  0
   39.5340   26.1400   35.6340 H   0  0  0  0  0  0  0  0  0  0  0  0
   39.1140   27.6980   33.0190 H   0  0  0  0  0  0  0  0  0  0  0  0
   39.8200   26.0330   33.2600 H   0  0  0  0  0  0  0  0  0  0  0  0
   37.3410   24.9910   32.9830 C   0  0  0  0  0  0  0  0  0  0  0  0
   36.4130   25.0850   31.9460 C   0  0  0  0  0  0  0  0  0  0  0  0
   36.0100   23.9150   31.3040 C   0  0  0  0  0  0  0  0  0  0  0  0
   36.5540   22.7340   31.7320 N   0  0  0  0  0  0  0  0  0  0  0  0
   37.4490   22.6760   32.7360 C   0  0  0  0  0  0  0  0  0  0  0  0
   37.8500   23.8180   33.3730 N   0  0  0  0  0  0  0  0  0  0  0  0
   35.9610   25.9970   31.5790 H   0  0  0  0  0  0  0  0  0  0  0  0
   35.3060   23.9180   30.5060 H   0  0  0  0  0  0  0  0  0  0  0  0
   37.8560   21.7250   33.0470 H   0  0  0  0  0  0  0  0  0  0  0  0
   36.5480   28.3550   33.6010 C   0  0  0  0  0  2  0  0  0  0  0  0
   35.7510   29.3030   34.4500 C   0  0  0  0  0  2  0  0  0  0  0  0
   36.0000   29.1510   35.5280 H   0  0  0  0  0  0  0  0  0  0  0  0
  1  2  1  0  0  0  0
  2  6  1  1  0  0  0
  2  3  1  0  0  0  0
  3  7  1  0  0  0  0
  3  8  1  0  0  0  0
  4  9  1  0  0  0  0
  4  3  1  0  0  0  0
  4 10  1  0  0  0  0
  5  1  1  0  0  0  0
  5  4  1  0  0  0  0
 11  5  1  0  0  0  0
 12  5  1  0  0  0  0
 13 18  1  0  0  0  0
 13  1  1  0  0  0  0
 14 13  2  0  0  0  0
 15 16  2  0  0  0  0
 15 14  1  0  0  0  0
 16 17  1  0  0  0  0
 17 21  1  0  0  0  0
 17 18  2  0  0  0  0
 19 14  1  0  0  0  0
 20 15  1  0  0  0  0
 22  2  1  0  0  0  0
 22 23  1  0  0  0  0
 23 24  1  0  0  0  0
M  END
>  <minimizedAffinity>
-3.70497203

$$$$

 OpenBabel03272503233D

 24 25  0  0  1  0  0  0  0  0999 V2000
   38.0430   25.8790   33.9650 N   0  0  0  0  0  0  0  0  0  0  0  0
   39.4770   25.8360   33.9030 C   0  0  1  0  0  0  0  0  0  0  0  0
   39.8850   26.8080   35.0220 C   0  0  0  0  0  0  0  0  0  0  0  0
   38.6020   27.1850   35.7460 C   0  0  0  0  0  0  0  0  0  0  0  0
   37.6990   26.0340   35.3740 C   0  0  0  0  0  0  0  0  0  0  0  0
   39.9130   26.1100   32.9450 H   0  0  0  0  0  0  0  0  0  0  0  0
   40.6420   26.4000   35.6880 H   0  0  0  0  0  0  0  0  0  0  0  0
   40.2250   27.7370   34.5080 H   0  0  0  0  0  0  0  0  0  0  0  0
   38.7830   27.1090   36.8590 H   0  0  0  0  0  0  0  0  0  0  0  0
   38.2060   28.1480   35.4260 H   0  0  0  0  0  0  0  0  0  0  0  0
   37.9380   25.1330   35.9520 H   0  0  0  0  0  0  0  0  0  0  0  0
   36.6450   26.3360   35.4960 H   0  0  0  0  0  0  0  0  0  0  0  0
   37.1190   25.7920   32.8910 C   0  0  0  0  0  0  0  0  0  0  0  0
   36.8660   24.5250   32.3660 C   0  0  0  0  0  0  0  0  0  0  0  0
   35.9620   24.4090   31.3120 C   0  0  0  0  0  0  0  0  0  0  0  0
   35.3720   25.5560   30.8500 N   0  0  0  0  0  0  0  0  0  0  0  0
   35.6380   26.7650   31.3790 C   0  0  0  0  0  0  0  0  0  0  0  0
   36.5230   26.8890   32.4130 N   0  0  0  0  0  0  0  0  0  0  0  0
   37.3100   23.5980   32.7030 H   0  0  0  0  0  0  0  0  0  0  0  0
   35.7240   23.4730   30.8660 H   0  0  0  0  0  0  0  0  0  0  0  0
   35.1530   27.6470   30.9870 H   0  0  0  0  0  0  0  0  0  0  0  0
   40.0280   24.4770   34.3530 C   0  0  0  0  0  2  0  0  0  0  0  0
   41.3540   24.6360   35.0400 C   0  0  0  0  0  2  0  0  0  0  0  0
   41.4260   25.6530   35.4970 H   0  0  0  0  0  0  0  0  0  0  0  0
  1  5  1  0  0  0  0
  2  6  1  6  0  0  0
  2  1  1  0  0  0  0
  2 22  1  0  0  0  0
  2  3  1  0  0  0  0
  3  7  1  0  0  0  0
  3  4  1  0  0  0  0
  4  9  1  0  0  0  0
  5 12  1  0  0  0  0
  5  4  1  0  0  0  0
  5 11  1  0  0  0  0
  8  3  1  0  0  0  0
 10  4  1  0  0  0  0
 13  1  1  0  0  0  0
 14 19  1  0  0  0  0
 14 13  2  0  0  0  0
 15 14  1  0  0  0  0
 16 15  2  0  0  0  0
 16 17  1  0  0  0  0
 17 18  2  0  0  0  0
 18 13  1  0  0  0  0
 20 15  1  0  0  0  0
 21 17  1  0  0  0  0
 22 23  1  0  0  0  0
 23 24  1  0  0  0  0
M  END
>  <minimizedAffinity>
-3.66663957

$$$$

 OpenBabel03272503233D

 24 25  0  0  1  0  0  0  0  0999 V2000
   38.5510   26.1850   35.1640 N   0  0  0  0  0  0  0  0  0  0  0  0
   39.1720   26.2840   33.8740 C   0  0  1  0  0  0  0  0  0  0  0  0
   38.1340   27.0810   33.0670 C   0  0  0  0  0  0  0  0  0  0  0  0
   37.0700   27.5210   34.0620 C   0  0  0  0  0  0  0  0  0  0  0  0
   37.8260   27.4350   35.3660 C   0  0  0  0  0  0  0  0  0  0  0  0
   39.4190   25.3370   33.3980 H   0  0  0  0  0  0  0  0  0  0  0  0
   38.5670   27.9140   32.5170 H   0  0  0  0  0  0  0  0  0  0  0  0
   37.6360   26.3420   32.3990 H   0  0  0  0  0  0  0  0  0  0  0  0
   36.8460   28.6140   33.8870 H   0  0  0  0  0  0  0  0  0  0  0  0
   36.1890   26.8790   34.0450 H   0  0  0  0  0  0  0  0  0  0  0  0
   38.5080   28.2850   35.4910 H   0  0  0  0  0  0  0  0  0  0  0  0
   37.1120   27.3510   36.2020 H   0  0  0  0  0  0  0  0  0  0  0  0
   38.6100   25.1040   36.0820 C   0  0  0  0  0  0  0  0  0  0  0  0
   39.3460   23.9820   35.7020 C   0  0  0  0  0  0  0  0  0  0  0  0
   39.4220   22.9060   36.5840 C   0  0  0  0  0  0  0  0  0  0  0  0
   38.7630   23.0150   37.7800 N   0  0  0  0  0  0  0  0  0  0  0  0
   38.0610   24.1120   38.1170 C   0  0  0  0  0  0  0  0  0  0  0  0
   37.9810   25.1730   37.2590 N   0  0  0  0  0  0  0  0  0  0  0  0
   39.8790   23.8580   34.7690 H   0  0  0  0  0  0  0  0  0  0  0  0
   39.9660   22.0200   36.3560 H   0  0  0  0  0  0  0  0  0  0  0  0
   37.5550   24.1610   39.0700 H   0  0  0  0  0  0  0  0  0  0  0  0
   40.4130   27.1860   33.9040 C   0  0  0  0  0  2  0  0  0  0  0  0
   41.6340   26.4060   34.2980 C   0  0  0  0  0  2  0  0  0  0  0  0
   41.5050   25.3320   34.0210 H   0  0  0  0  0  0  0  0  0  0  0  0
  1  5  1  0  0  0  0
  1 13  1  0  0  0  0
  2  6  1  6  0  0  0
  2 22  1  0  0  0  0
  2  1  1  0  0  0  0
  3  2  1  0  0  0  0
  3  4  1  0  0  0  0
  4  5  1  0  0  0  0
  5 11  1  0  0  0  0
  5 12  1  0  0  0  0
  7  3  1  0  0  0  0
  8  3  1  0  0  0  0
  9  4  1  0  0  0  0
 10  4  1  0  0  0  0
 13 18  1  0  0  0  0
 14 13  2  0  0  0  0
 14 15  1  0  0  0  0
 15 16  2  0  0  0  0
 16 17  1  0  0  0  0
 17 21  1  0  0  0  0
 18 17  2  0  0  0  0
 19 14  1  0  0  0  0
 20 15  1  0  0  0  0
 22 23  1  0  0  0  0
 24 23  1  0  0  0  0
M  END
>  <minimizedAffinity>
-3.63916731

$$$$

 OpenBabel03272503233D

 24 25  0  0  1  0  0  0  0  0999 V2000
   38.1390   26.0080   34.2740 N   0  0  0  0  0  0  0  0  0  0  0  0
   38.5200   24.8270   34.9960 C   0  0  1  0  0  0  0  0  0  0  0  0
   39.9950   25.1020   35.3270 C   0  0  0  0  0  0  0  0  0  0  0  0
   40.2660   26.5360   34.8980 C   0  0  0  0  0  0  0  0  0  0  0  0
   38.8710   27.1130   34.8840 C   0  0  0  0  0  0  0  0  0  0  0  0
   38.3900   23.8880   34.4610 H   0  0  0  0  0  0  0  0  0  0  0  0
   40.2400   24.9210   36.3710 H   0  0  0  0  0  0  0  0  0  0  0  0
   40.5870   24.4630   34.6330 H   0  0  0  0  0  0  0  0  0  0  0  0
   40.8260   27.0590   35.7280 H   0  0  0  0  0  0  0  0  0  0  0  0
   40.7550   26.5980   33.9260 H   0  0  0  0  0  0  0  0  0  0  0  0
   38.5150   27.3250   35.8990 H   0  0  0  0  0  0  0  0  0  0  0  0
   38.8480   28.0090   34.2410 H   0  0  0  0  0  0  0  0  0  0  0  0
   37.2380   26.1130   33.1830 C   0  0  0  0  0  0  0  0  0  0  0  0
   36.7840   27.3890   32.8490 C   0  0  0  0  0  0  0  0  0  0  0  0
   35.8990   27.5230   31.7810 C   0  0  0  0  0  0  0  0  0  0  0  0
   35.5240   26.3840   31.1190 N   0  0  0  0  0  0  0  0  0  0  0  0
   35.9800   25.1660   31.4660 C   0  0  0  0  0  0  0  0  0  0  0  0
   36.8490   25.0250   32.5120 N   0  0  0  0  0  0  0  0  0  0  0  0
   37.0570   28.3100   33.3460 H   0  0  0  0  0  0  0  0  0  0  0  0
   35.5150   28.4670   31.4750 H   0  0  0  0  0  0  0  0  0  0  0  0
   35.6610   24.2910   30.9190 H   0  0  0  0  0  0  0  0  0  0  0  0
   37.8270   24.7430   36.3620 C   0  0  0  0  0  2  0  0  0  0  0  0
   38.5230   23.7600   37.2580 C   0  0  0  0  0  2  0  0  0  0  0  0
   39.5980   23.6730   36.9660 H   0  0  0  0  0  0  0  0  0  0  0  0
  1  5  1  0  0  0  0
  1  2  1  0  0  0  0
  2  6  1  6  0  0  0
  2  3  1  0  0  0  0
  2 22  1  0  0  0  0
  3  7  1  0  0  0  0
  4  3  1  0  0  0  0
  4  9  1  0  0  0  0
  5  4  1  0  0  0  0
  5 11  1  0  0  0  0
  8  3  1  0  0  0  0
 10  4  1  0  0  0  0
 12  5  1  0  0  0  0
 13  1  1  0  0  0  0
 14 13  1  0  0  0  0
 14 19  1  0  0  0  0
 15 14  2  0  0  0  0
 16 17  2  0  0  0  0
 16 15  1  0  0  0  0
 17 18  1  0  0  0  0
 18 13  2  0  0  0  0
 20 15  1  0  0  0  0
 21 17  1  0  0  0  0
 22 23  1  0  0  0  0
 24 23  1  0  0  0  0
M  END
>  <minimizedAffinity>
-3.63688445

$$$$
