
 OpenBabel03272510223D

 25 27  0  0  0  0  0  0  0  0999 V2000
   34.6500   29.4450   45.5790 C   0  0  0  0  0  0  0  0  0  0  0  0
   34.3170   29.4460   46.9260 C   0  0  0  0  0  0  0  0  0  0  0  0
   35.1240   30.0770   47.8670 C   0  0  0  0  0  0  0  0  0  0  0  0
   36.2760   30.7030   47.3660 C   0  0  0  0  0  0  0  0  0  0  0  0
   37.2020   31.3770   48.0930 N   0  0  0  0  0  0  0  0  0  0  0  0
   38.1140   31.7990   47.2080 C   0  0  0  0  0  0  0  0  0  0  0  0
   37.8030   31.4210   45.9620 N   0  0  0  0  0  0  0  0  0  0  0  0
   36.6400   30.7230   46.0300 C   0  0  0  0  0  0  0  0  0  0  0  0
   35.8070   30.0800   45.1270 C   0  0  0  0  0  0  0  0  0  0  0  0
   34.0530   28.9670   44.8100 H   0  0  0  0  0  0  0  0  0  0  0  0
   34.8730   30.0840   48.9140 H   0  0  0  0  0  0  0  0  0  0  0  0
   37.2570   31.5670   49.1290 H   0  0  0  0  0  0  0  0  0  0  0  0
   36.0680   30.0830   44.0950 H   0  0  0  0  0  0  0  0  0  0  0  0
   31.7390   27.3290   48.6740 C   0  0  0  0  0  0  0  0  0  0  0  0
   32.9740   27.9130   48.4070 C   0  0  0  0  0  0  0  0  0  0  0  0
   33.0860   28.7630   47.3200 C   0  0  0  0  0  0  0  0  0  0  0  0
   31.9810   28.9960   46.5510 N   0  0  0  0  0  0  0  0  0  0  0  0
   30.7900   28.4170   46.8300 C   0  0  0  0  0  0  0  0  0  0  0  0
   30.6810   27.5870   47.8900 N   0  0  0  0  0  0  0  0  0  0  0  0
   31.7490   26.6760   49.5490 H   0  0  0  0  0  0  0  0  0  0  0  0
   33.8510   27.7530   48.9840 H   0  0  0  0  0  0  0  0  0  0  0  0
   29.9100   28.5900   46.2340 H   0  0  0  0  0  0  0  0  0  0  0  0
   39.3540   32.5980   47.4880 C   0  0  0  0  0  2  0  0  0  0  0  0
   39.9930   33.0760   46.1940 C   0  0  0  0  0  2  0  0  0  0  0  0
   41.0610   32.7680   46.1480 H   0  0  0  0  0  0  0  0  0  0  0  0
  1  2  1  0  0  0  0
  2 16  1  0  0  0  0
  2  3  2  0  0  0  0
  3 11  1  0  0  0  0
  4  3  1  0  0  0  0
  4  5  1  0  0  0  0
  5 12  1  0  0  0  0
  6 23  1  0  0  0  0
  6  5  1  0  0  0  0
  7  8  1  0  0  0  0
  7  6  2  0  0  0  0
  8  4  2  0  0  0  0
  9  1  2  0  0  0  0
  9  8  1  0  0  0  0
 10  1  1  0  0  0  0
 13  9  1  0  0  0  0
 14 20  1  0  0  0  0
 15 14  1  0  0  0  0
 15 21  1  0  0  0  0
 16 15  2  0  0  0  0
 17 18  2  0  0  0  0
 17 16  1  0  0  0  0
 18 19  1  0  0  0  0
 19 14  2  0  0  0  0
 22 18  1  0  0  0  0
 24 23  1  0  0  0  0
 25 24  1  0  0  0  0
M  END
>  <minimizedAffinity>
-4.33894253

>  <minimizedRMSD>
4.4748826

$$$$
