
 OpenBabel03272510003D

 15 15  0  0  0  0  0  0  0  0999 V2000
   38.2830   31.2980   50.1200 C   0  0  0  0  0  0  0  0  0  0  0  0
   38.3940   31.4660   48.7390 C   0  0  0  0  0  0  0  0  0  0  0  0
   37.3920   30.9180   47.9170 C   0  0  0  0  0  0  0  0  0  0  0  0
   36.3760   30.2550   48.5290 N   0  0  0  0  0  0  0  0  0  0  0  0
   36.3000   30.1130   49.8530 C   0  0  0  0  0  0  0  0  0  0  0  0
   37.2540   30.6350   50.6450 N   0  0  0  0  0  0  0  0  0  0  0  0
   39.0560   31.7230   50.7210 H   0  0  0  0  0  0  0  0  0  0  0  0
   39.1900   31.9860   48.2260 H   0  0  0  0  0  0  0  0  0  0  0  0
   35.1510   29.3710   50.4270 C   0  0  0  0  0  0  0  0  0  0  0  0
   35.2800   29.1190   51.7770 F   0  0  0  0  0  0  0  0  0  0  0  0
   33.9690   30.0720   50.2690 F   0  0  0  0  0  0  0  0  0  0  0  0
   34.9380   28.1540   49.8090 F   0  0  0  0  0  0  0  0  0  0  0  0
   37.3400   30.9930   46.4520 C   0  0  0  0  0  2  0  0  0  0  0  0
   36.1310   30.3340   45.8540 C   0  0  0  0  0  2  0  0  0  0  0  0
   35.2110   30.9390   45.9990 H   0  0  0  0  0  0  0  0  0  0  0  0
  1  6  1  0  0  0  0
  1  7  1  0  0  0  0
  2  1  2  0  0  0  0
  3  4  2  0  0  0  0
  3  2  1  0  0  0  0
  4  5  1  0  0  0  0
  5  9  1  0  0  0  0
  5  6  2  0  0  0  0
  8  2  1  0  0  0  0
  9 10  1  0  0  0  0
 11  9  1  0  0  0  0
 12  9  1  0  0  0  0
 13  3  1  0  0  0  0
 14 15  1  0  0  0  0
 14 13  1  0  0  0  0
M  END
>  <minimizedAffinity>
-4.4425106

>  <minimizedRMSD>
0.320817828

$$$$
