
 OpenBabel03272505463D

 19 20  0  0  0  0  0  0  0  0999 V2000
   38.4300   23.1730   36.7660 C   0  0  0  0  0  0  0  0  0  0  0  0
   38.1460   23.5740   38.1220 C   0  0  0  0  0  0  0  0  0  0  0  0
   38.0340   24.5990   37.0490 C   0  0  0  0  0  0  0  0  0  0  0  0
   38.9140   23.6380   38.9160 H   0  0  0  0  0  0  0  0  0  0  0  0
   37.1420   23.2500   38.5280 H   0  0  0  0  0  0  0  0  0  0  0  0
   38.8270   25.3780   37.0140 H   0  0  0  0  0  0  0  0  0  0  0  0
   37.0600   24.9680   36.7030 H   0  0  0  0  0  0  0  0  0  0  0  0
   35.6630   20.9200   35.8150 C   0  0  0  0  0  0  0  0  0  0  0  0
   35.8350   20.7490   34.4410 C   0  0  0  0  0  0  0  0  0  0  0  0
   36.9080   21.4250   33.8460 C   0  0  0  0  0  0  0  0  0  0  0  0
   37.7100   22.2000   34.6350 N   0  0  0  0  0  0  0  0  0  0  0  0
   37.5030   22.3360   35.9620 C   0  0  0  0  0  0  0  0  0  0  0  0
   36.4880   21.7010   36.5430 N   0  0  0  0  0  0  0  0  0  0  0  0
   34.8330   20.3960   36.2710 H   0  0  0  0  0  0  0  0  0  0  0  0
   35.2210   20.1480   33.8070 H   0  0  0  0  0  0  0  0  0  0  0  0
   37.1640   21.3870   32.7940 H   0  0  0  0  0  0  0  0  0  0  0  0
   39.9040   22.9550   36.3950 C   0  0  0  0  0  2  0  0  0  0  0  0
   40.5990   22.0420   37.3650 C   0  0  0  0  0  2  0  0  0  0  0  0
   39.9860   21.2330   37.7650 H   0  0  0  0  0  0  0  0  0  0  0  0
  1  3  1  0  0  0  0
  1  2  1  0  0  0  0
  2  5  1  0  0  0  0
  2  4  1  0  0  0  0
  3  2  1  0  0  0  0
  6  3  1  0  0  0  0
  7  3  1  0  0  0  0
  8 14  1  0  0  0  0
  8 13  1  0  0  0  0
  9  8  2  0  0  0  0
 10  9  1  0  0  0  0
 10 11  2  0  0  0  0
 11 12  1  0  0  0  0
 12 13  2  0  0  0  0
 12  1  1  0  0  0  0
 15  9  1  0  0  0  0
 16 10  1  0  0  0  0
 17  1  1  0  0  0  0
 17 18  1  0  0  0  0
 18 19  1  0  0  0  0
M  END
>  <minimizedAffinity>
-3.63391399

$$$$

 OpenBabel03272505463D

 19 20  0  0  0  0  0  0  0  0999 V2000
   38.7880   23.1830   36.4700 C   0  0  0  0  0  0  0  0  0  0  0  0
   38.5650   22.0660   35.5850 C   0  0  0  0  0  0  0  0  0  0  0  0
   37.4140   22.5730   36.3830 C   0  0  0  0  0  0  0  0  0  0  0  0
   38.9930   21.0590   35.7500 H   0  0  0  0  0  0  0  0  0  0  0  0
   38.4860   22.3200   34.4880 H   0  0  0  0  0  0  0  0  0  0  0  0
   37.0700   21.9370   37.2280 H   0  0  0  0  0  0  0  0  0  0  0  0
   36.5980   23.1420   35.9190 H   0  0  0  0  0  0  0  0  0  0  0  0
   40.0530   26.1190   34.6220 C   0  0  0  0  0  0  0  0  0  0  0  0
   39.3090   27.1800   35.1390 C   0  0  0  0  0  0  0  0  0  0  0  0
   38.3610   26.8710   36.1230 C   0  0  0  0  0  0  0  0  0  0  0  0
   38.2250   25.5680   36.5130 N   0  0  0  0  0  0  0  0  0  0  0  0
   38.9680   24.5750   35.9820 C   0  0  0  0  0  0  0  0  0  0  0  0
   39.8730   24.8510   35.0450 N   0  0  0  0  0  0  0  0  0  0  0  0
   40.7840   26.3630   33.8620 H   0  0  0  0  0  0  0  0  0  0  0  0
   39.4000   28.2040   34.8500 H   0  0  0  0  0  0  0  0  0  0  0  0
   37.7140   27.5870   36.6140 H   0  0  0  0  0  0  0  0  0  0  0  0
   39.5570   22.9040   37.7700 C   0  0  0  0  0  2  0  0  0  0  0  0
   40.8360   22.1560   37.5170 C   0  0  0  0  0  2  0  0  0  0  0  0
   41.3540   22.4170   36.5940 H   0  0  0  0  0  0  0  0  0  0  0  0
  1 17  1  0  0  0  0
  2  4  1  0  0  0  0
  2  3  1  0  0  0  0
  2  1  1  0  0  0  0
  3  1  1  0  0  0  0
  3  6  1  0  0  0  0
  5  2  1  0  0  0  0
  7  3  1  0  0  0  0
  8 13  2  0  0  0  0
  8  9  1  0  0  0  0
  9 10  2  0  0  0  0
 10 11  1  0  0  0  0
 10 16  1  0  0  0  0
 12  1  1  0  0  0  0
 12 11  2  0  0  0  0
 13 12  1  0  0  0  0
 14  8  1  0  0  0  0
 15  9  1  0  0  0  0
 18 17  1  0  0  0  0
 19 18  1  0  0  0  0
M  END
>  <minimizedAffinity>
-3.58925629

$$$$

 OpenBabel03272505463D

 19 20  0  0  0  0  0  0  0  0999 V2000
   38.8750   26.4580   34.9350 C   0  0  0  0  0  0  0  0  0  0  0  0
   39.5010   26.7370   33.6670 C   0  0  0  0  0  0  0  0  0  0  0  0
   40.3490   26.7660   34.8910 C   0  0  0  0  0  0  0  0  0  0  0  0
   39.3010   27.6490   33.0720 H   0  0  0  0  0  0  0  0  0  0  0  0
   39.7040   25.8390   33.0130 H   0  0  0  0  0  0  0  0  0  0  0  0
   40.6840   27.7650   35.2460 H   0  0  0  0  0  0  0  0  0  0  0  0
   41.0740   25.9720   35.1090 H   0  0  0  0  0  0  0  0  0  0  0  0
   37.7470   23.5970   36.9800 C   0  0  0  0  0  0  0  0  0  0  0  0
   37.7390   22.5310   36.0790 C   0  0  0  0  0  0  0  0  0  0  0  0
   38.1170   22.8120   34.7600 C   0  0  0  0  0  0  0  0  0  0  0  0
   38.4660   24.0920   34.4380 N   0  0  0  0  0  0  0  0  0  0  0  0
   38.4580   25.0920   35.3450 C   0  0  0  0  0  0  0  0  0  0  0  0
   38.1010   24.8430   36.6030 N   0  0  0  0  0  0  0  0  0  0  0  0
   37.4550   23.3760   37.9980 H   0  0  0  0  0  0  0  0  0  0  0  0
   37.4710   21.5230   36.3090 H   0  0  0  0  0  0  0  0  0  0  0  0
   38.1580   22.0880   33.9550 H   0  0  0  0  0  0  0  0  0  0  0  0
   37.9850   27.5570   35.5330 C   0  0  0  0  0  2  0  0  0  0  0  0
   36.8050   27.8650   34.6550 C   0  0  0  0  0  2  0  0  0  0  0  0
   36.3790   27.0100   34.1300 H   0  0  0  0  0  0  0  0  0  0  0  0
  1 12  1  0  0  0  0
  1 17  1  0  0  0  0
  2  3  1  0  0  0  0
  2  1  1  0  0  0  0
  3  1  1  0  0  0  0
  3  7  1  0  0  0  0
  3  6  1  0  0  0  0
  4  2  1  0  0  0  0
  5  2  1  0  0  0  0
  8 14  1  0  0  0  0
  9 15  1  0  0  0  0
  9  8  2  0  0  0  0
 10  9  1  0  0  0  0
 11 10  2  0  0  0  0
 11 12  1  0  0  0  0
 12 13  2  0  0  0  0
 13  8  1  0  0  0  0
 16 10  1  0  0  0  0
 18 17  1  0  0  0  0
 19 18  1  0  0  0  0
M  END
>  <minimizedAffinity>
-3.57033086

$$$$

 OpenBabel03272505463D

 19 20  0  0  0  0  0  0  0  0999 V2000
   38.9190   26.4540   34.9260 C   0  0  0  0  0  0  0  0  0  0  0  0
   39.5200   26.7440   33.6470 C   0  0  0  0  0  0  0  0  0  0  0  0
   40.3890   26.7770   34.8560 C   0  0  0  0  0  0  0  0  0  0  0  0
   39.3000   27.6550   33.0600 H   0  0  0  0  0  0  0  0  0  0  0  0
   39.7190   25.8490   32.9870 H   0  0  0  0  0  0  0  0  0  0  0  0
   40.7210   27.7770   35.2090 H   0  0  0  0  0  0  0  0  0  0  0  0
   41.1250   25.9880   35.0590 H   0  0  0  0  0  0  0  0  0  0  0  0
   38.1440   22.8450   34.8300 C   0  0  0  0  0  0  0  0  0  0  0  0
   37.7270   22.5630   36.1320 C   0  0  0  0  0  0  0  0  0  0  0  0
   37.7260   23.6270   37.0430 C   0  0  0  0  0  0  0  0  0  0  0  0
   38.1250   24.8590   36.6090 N   0  0  0  0  0  0  0  0  0  0  0  0
   38.5220   25.0840   35.3390 C   0  0  0  0  0  0  0  0  0  0  0  0
   38.5300   24.0840   34.4600 N   0  0  0  0  0  0  0  0  0  0  0  0
   38.1430   22.0210   34.1290 H   0  0  0  0  0  0  0  0  0  0  0  0
   37.4100   21.6090   36.4910 H   0  0  0  0  0  0  0  0  0  0  0  0
   37.4290   23.5580   38.0820 H   0  0  0  0  0  0  0  0  0  0  0  0
   38.0300   27.5430   35.5440 C   0  0  0  0  0  2  0  0  0  0  0  0
   36.8340   27.8470   34.6860 C   0  0  0  0  0  2  0  0  0  0  0  0
   36.4060   26.9910   34.1630 H   0  0  0  0  0  0  0  0  0  0  0  0
  1 12  1  0  0  0  0
  1 17  1  0  0  0  0
  2  3  1  0  0  0  0
  2  1  1  0  0  0  0
  3  1  1  0  0  0  0
  3  7  1  0  0  0  0
  3  6  1  0  0  0  0
  4  2  1  0  0  0  0
  5  2  1  0  0  0  0
  8  9  1  0  0  0  0
  9 15  1  0  0  0  0
  9 10  2  0  0  0  0
 10 16  1  0  0  0  0
 11 10  1  0  0  0  0
 12 11  2  0  0  0  0
 13  8  2  0  0  0  0
 13 12  1  0  0  0  0
 14  8  1  0  0  0  0
 18 17  1  0  0  0  0
 19 18  1  0  0  0  0
M  END
>  <minimizedAffinity>
-3.56800318

$$$$

 OpenBabel03272505463D

 19 20  0  0  0  0  0  0  0  0999 V2000
   38.5110   26.1780   35.2830 C   0  0  0  0  0  0  0  0  0  0  0  0
   38.0590   27.5130   35.5870 C   0  0  0  0  0  0  0  0  0  0  0  0
   37.1440   26.6170   34.8270 C   0  0  0  0  0  0  0  0  0  0  0  0
   38.4940   28.4240   35.1350 H   0  0  0  0  0  0  0  0  0  0  0  0
   37.7220   27.6850   36.6510 H   0  0  0  0  0  0  0  0  0  0  0  0
   37.0020   26.8430   33.7480 H   0  0  0  0  0  0  0  0  0  0  0  0
   36.2520   26.1760   35.2900 H   0  0  0  0  0  0  0  0  0  0  0  0
   39.2690   22.9720   36.9530 C   0  0  0  0  0  0  0  0  0  0  0  0
   38.6860   23.1110   38.2120 C   0  0  0  0  0  0  0  0  0  0  0  0
   38.0380   24.3230   38.4830 C   0  0  0  0  0  0  0  0  0  0  0  0
   38.0150   25.2820   37.5110 N   0  0  0  0  0  0  0  0  0  0  0  0
   38.5950   25.1030   36.3050 C   0  0  0  0  0  0  0  0  0  0  0  0
   39.2160   23.9570   36.0320 N   0  0  0  0  0  0  0  0  0  0  0  0
   39.7690   22.0340   36.7470 H   0  0  0  0  0  0  0  0  0  0  0  0
   38.6910   22.3740   38.9850 H   0  0  0  0  0  0  0  0  0  0  0  0
   37.5420   24.5720   39.4130 H   0  0  0  0  0  0  0  0  0  0  0  0
   39.5640   26.0300   34.1760 C   0  0  0  0  0  2  0  0  0  0  0  0
   40.8100   26.8150   34.4760 C   0  0  0  0  0  2  0  0  0  0  0  0
   41.0920   26.8580   35.5280 H   0  0  0  0  0  0  0  0  0  0  0  0
  1  2  1  0  0  0  0
  1 12  1  0  0  0  0
  2  5  1  0  0  0  0
  3  1  1  0  0  0  0
  3  7  1  0  0  0  0
  3  2  1  0  0  0  0
  4  2  1  0  0  0  0
  6  3  1  0  0  0  0
  8  9  1  0  0  0  0
  9 10  2  0  0  0  0
  9 15  1  0  0  0  0
 10 16  1  0  0  0  0
 11 10  1  0  0  0  0
 12 11  2  0  0  0  0
 13 12  1  0  0  0  0
 13  8  2  0  0  0  0
 14  8  1  0  0  0  0
 17 18  1  0  0  0  0
 17  1  1  0  0  0  0
 18 19  1  0  0  0  0
M  END
>  <minimizedAffinity>
-3.56427932

$$$$

 OpenBabel03272505463D

 19 20  0  0  0  0  0  0  0  0999 V2000
   38.6340   23.4240   36.7650 C   0  0  0  0  0  0  0  0  0  0  0  0
   37.6400   23.3260   37.8050 C   0  0  0  0  0  0  0  0  0  0  0  0
   39.0740   23.2190   38.1920 C   0  0  0  0  0  0  0  0  0  0  0  0
   36.9420   22.4740   37.9060 H   0  0  0  0  0  0  0  0  0  0  0  0
   37.1700   24.3020   38.1260 H   0  0  0  0  0  0  0  0  0  0  0  0
   39.4410   22.2110   38.4840 H   0  0  0  0  0  0  0  0  0  0  0  0
   39.5910   24.0300   38.7200 H   0  0  0  0  0  0  0  0  0  0  0  0
   38.5590   26.9580   35.6940 C   0  0  0  0  0  0  0  0  0  0  0  0
   39.6360   27.0580   34.8140 C   0  0  0  0  0  0  0  0  0  0  0  0
   40.3930   25.8990   34.6010 C   0  0  0  0  0  0  0  0  0  0  0  0
   40.0360   24.7560   35.2580 N   0  0  0  0  0  0  0  0  0  0  0  0
   38.9840   24.7070   36.1030 C   0  0  0  0  0  0  0  0  0  0  0  0
   38.2550   25.8000   36.3170 N   0  0  0  0  0  0  0  0  0  0  0  0
   37.9760   27.8550   35.8560 H   0  0  0  0  0  0  0  0  0  0  0  0
   39.9310   27.9400   34.2890 H   0  0  0  0  0  0  0  0  0  0  0  0
   41.2540   25.8260   33.9480 H   0  0  0  0  0  0  0  0  0  0  0  0
   38.8000   22.2110   35.8390 C   0  0  0  0  0  2  0  0  0  0  0  0
   37.5650   21.9550   35.0210 C   0  0  0  0  0  2  0  0  0  0  0  0
   37.0250   22.8470   34.7010 H   0  0  0  0  0  0  0  0  0  0  0  0
  1  2  1  0  0  0  0
  1  3  1  0  0  0  0
  2  4  1  0  0  0  0
  2  5  1  0  0  0  0
  2  3  1  0  0  0  0
  3  6  1  0  0  0  0
  3  7  1  0  0  0  0
  8 14  1  0  0  0  0
  8 13  1  0  0  0  0
  9  8  2  0  0  0  0
 10  9  1  0  0  0  0
 10 11  2  0  0  0  0
 11 12  1  0  0  0  0
 12 13  2  0  0  0  0
 12  1  1  0  0  0  0
 15  9  1  0  0  0  0
 16 10  1  0  0  0  0
 17  1  1  0  0  0  0
 18 17  1  0  0  0  0
 19 18  1  0  0  0  0
M  END
>  <minimizedAffinity>
-3.52316594

$$$$

 OpenBabel03272505463D

 19 20  0  0  0  0  0  0  0  0999 V2000
   38.4470   26.4980   34.9230 C   0  0  0  0  0  0  0  0  0  0  0  0
   38.2310   27.5480   35.8870 C   0  0  0  0  0  0  0  0  0  0  0  0
   37.2360   27.3840   34.7910 C   0  0  0  0  0  0  0  0  0  0  0  0
   38.8700   28.4480   35.9660 H   0  0  0  0  0  0  0  0  0  0  0  0
   37.8370   27.2160   36.8920 H   0  0  0  0  0  0  0  0  0  0  0  0
   37.2380   28.1550   33.9910 H   0  0  0  0  0  0  0  0  0  0  0  0
   36.2380   26.9660   34.9770 H   0  0  0  0  0  0  0  0  0  0  0  0
   37.8920   23.3520   36.7760 C   0  0  0  0  0  0  0  0  0  0  0  0
   37.8890   22.3770   35.7770 C   0  0  0  0  0  0  0  0  0  0  0  0
   38.0710   22.8170   34.4590 C   0  0  0  0  0  0  0  0  0  0  0  0
   38.2380   24.1540   34.2350 N   0  0  0  0  0  0  0  0  0  0  0  0
   38.2330   25.0610   35.2340 C   0  0  0  0  0  0  0  0  0  0  0  0
   38.0610   24.6600   36.4920 N   0  0  0  0  0  0  0  0  0  0  0  0
   37.7520   23.0080   37.7920 H   0  0  0  0  0  0  0  0  0  0  0  0
   37.7610   21.3280   35.9310 H   0  0  0  0  0  0  0  0  0  0  0  0
   38.0920   22.1790   33.5850 H   0  0  0  0  0  0  0  0  0  0  0  0
   39.5500   26.7220   33.8790 C   0  0  0  0  0  2  0  0  0  0  0  0
   40.9210   26.7020   34.4950 C   0  0  0  0  0  2  0  0  0  0  0  0
   41.0510   26.0000   35.3190 H   0  0  0  0  0  0  0  0  0  0  0  0
  1 12  1  0  0  0  0
  1  2  1  0  0  0  0
  2  4  1  0  0  0  0
  2  5  1  0  0  0  0
  3  1  1  0  0  0  0
  3  7  1  0  0  0  0
  3  2  1  0  0  0  0
  6  3  1  0  0  0  0
  8 14  1  0  0  0  0
  9 15  1  0  0  0  0
  9  8  2  0  0  0  0
 10  9  1  0  0  0  0
 11 10  2  0  0  0  0
 11 12  1  0  0  0  0
 12 13  2  0  0  0  0
 13  8  1  0  0  0  0
 16 10  1  0  0  0  0
 17 18  1  0  0  0  0
 17  1  1  0  0  0  0
 18 19  1  0  0  0  0
M  END
>  <minimizedAffinity>
-3.47697282

$$$$

 OpenBabel03272505463D

 19 20  0  0  0  0  0  0  0  0999 V2000
   38.4130   23.8910   36.9610 C   0  0  0  0  0  0  0  0  0  0  0  0
   38.0230   24.2680   38.2970 C   0  0  0  0  0  0  0  0  0  0  0  0
   37.2250   23.2210   37.6010 C   0  0  0  0  0  0  0  0  0  0  0  0
   37.5950   25.2550   38.5550 H   0  0  0  0  0  0  0  0  0  0  0  0
   38.6640   23.8520   39.1290 H   0  0  0  0  0  0  0  0  0  0  0  0
   36.2110   23.5130   37.2520 H   0  0  0  0  0  0  0  0  0  0  0  0
   37.2900   22.1630   37.8850 H   0  0  0  0  0  0  0  0  0  0  0  0
   41.3720   21.7270   37.4030 C   0  0  0  0  0  0  0  0  0  0  0  0
   41.8670   21.5770   36.1070 C   0  0  0  0  0  0  0  0  0  0  0  0
   41.1650   22.2210   35.0800 C   0  0  0  0  0  0  0  0  0  0  0  0
   40.0550   22.9470   35.4040 N   0  0  0  0  0  0  0  0  0  0  0  0
   39.6130   23.0630   36.6740 C   0  0  0  0  0  0  0  0  0  0  0  0
   40.2680   22.4580   37.6620 N   0  0  0  0  0  0  0  0  0  0  0  0
   41.9180   21.2290   38.1940 H   0  0  0  0  0  0  0  0  0  0  0  0
   42.7330   21.0150   35.8320 H   0  0  0  0  0  0  0  0  0  0  0  0
   41.4300   22.1940   34.0300 H   0  0  0  0  0  0  0  0  0  0  0  0
   38.0880   24.8800   35.8320 C   0  0  0  0  0  2  0  0  0  0  0  0
   38.4120   26.2970   36.2150 C   0  0  0  0  0  2  0  0  0  0  0  0
   39.2950   26.4200   36.8430 H   0  0  0  0  0  0  0  0  0  0  0  0
  1  3  1  0  0  0  0
  1  2  1  0  0  0  0
  2  4  1  0  0  0  0
  2  5  1  0  0  0  0
  3  7  1  0  0  0  0
  3  2  1  0  0  0  0
  6  3  1  0  0  0  0
  8 13  1  0  0  0  0
  8 14  1  0  0  0  0
  9  8  2  0  0  0  0
 10 11  2  0  0  0  0
 10  9  1  0  0  0  0
 11 12  1  0  0  0  0
 12  1  1  0  0  0  0
 12 13  2  0  0  0  0
 15  9  1  0  0  0  0
 16 10  1  0  0  0  0
 17 18  1  0  0  0  0
 17  1  1  0  0  0  0
 18 19  1  0  0  0  0
M  END
>  <minimizedAffinity>
-3.43889809

$$$$

 OpenBabel03272505463D

 19 20  0  0  0  0  0  0  0  0999 V2000
   38.6450   25.8730   35.1300 C   0  0  0  0  0  0  0  0  0  0  0  0
   38.5970   27.1430   35.8120 C   0  0  0  0  0  0  0  0  0  0  0  0
   39.8140   26.8160   35.0190 C   0  0  0  0  0  0  0  0  0  0  0  0
   38.6260   27.2480   36.9130 H   0  0  0  0  0  0  0  0  0  0  0  0
   37.9550   27.9350   35.3260 H   0  0  0  0  0  0  0  0  0  0  0  0
   40.7360   26.5740   35.5920 H   0  0  0  0  0  0  0  0  0  0  0  0
   40.0250   27.3050   34.0590 H   0  0  0  0  0  0  0  0  0  0  0  0
   36.4000   26.2740   32.2250 C   0  0  0  0  0  0  0  0  0  0  0  0
   36.3690   25.0020   31.6540 C   0  0  0  0  0  0  0  0  0  0  0  0
   37.1380   24.0080   32.2750 C   0  0  0  0  0  0  0  0  0  0  0  0
   37.8590   24.3400   33.3870 N   0  0  0  0  0  0  0  0  0  0  0  0
   37.8580   25.5870   33.9030 C   0  0  0  0  0  0  0  0  0  0  0  0
   37.1340   26.5430   33.3250 N   0  0  0  0  0  0  0  0  0  0  0  0
   35.8050   27.0390   31.7430 H   0  0  0  0  0  0  0  0  0  0  0  0
   35.8120   24.7210   30.7880 H   0  0  0  0  0  0  0  0  0  0  0  0
   37.2110   22.9790   31.9460 H   0  0  0  0  0  0  0  0  0  0  0  0
   38.8790   24.6240   35.9920 C   0  0  0  0  0  2  0  0  0  0  0  0
   37.8220   24.4630   37.0490 C   0  0  0  0  0  2  0  0  0  0  0  0
   36.8190   24.7730   36.7540 H   0  0  0  0  0  0  0  0  0  0  0  0
  1  2  1  0  0  0  0
  1 17  1  0  0  0  0
  2  4  1  0  0  0  0
  3  1  1  0  0  0  0
  3  6  1  0  0  0  0
  3  2  1  0  0  0  0
  5  2  1  0  0  0  0
  7  3  1  0  0  0  0
  8 13  1  0  0  0  0
  9  8  2  0  0  0  0
  9 10  1  0  0  0  0
 10 11  2  0  0  0  0
 11 12  1  0  0  0  0
 12  1  1  0  0  0  0
 13 12  2  0  0  0  0
 14  8  1  0  0  0  0
 15  9  1  0  0  0  0
 16 10  1  0  0  0  0
 17 18  1  0  0  0  0
 19 18  1  0  0  0  0
M  END
>  <minimizedAffinity>
-3.36759424

$$$$
