
 OpenBabel03272506303D

 28 29  0  0  1  0  0  0  0  0999 V2000
   35.3090   30.6160   48.9570 C   0  0  1  0  0  0  0  0  0  0  0  0
   34.7930   30.1400   50.2380 C   0  0  0  0  0  0  0  0  0  0  0  0
   35.6390   29.1580   50.9980 C   0  0  0  0  0  0  0  0  0  0  0  0
   37.1080   29.3460   50.8920 C   0  0  0  0  0  0  0  0  0  0  0  0
   37.6460   29.8370   49.6020 C   0  0  0  0  0  0  0  0  0  0  0  0
   36.7820   30.8900   48.9730 C   0  0  2  0  0  0  0  0  0  0  0  0
   34.8560   31.6410   48.7520 H   0  0  0  0  0  0  0  0  0  0  0  0
   33.7670   29.8000   50.2790 H   0  0  0  0  0  0  0  0  0  0  0  0
   34.7830   31.0520   50.9230 H   0  0  0  0  0  0  0  0  0  0  0  0
   35.3490   29.1820   52.0690 H   0  0  0  0  0  0  0  0  0  0  0  0
   35.3580   28.1330   50.6440 H   0  0  0  0  0  0  0  0  0  0  0  0
   37.5770   28.3360   51.0820 H   0  0  0  0  0  0  0  0  0  0  0  0
   37.4590   29.9770   51.7400 H   0  0  0  0  0  0  0  0  0  0  0  0
   37.8200   29.0200   48.8520 H   0  0  0  0  0  0  0  0  0  0  0  0
   38.6400   30.2950   49.7780 H   0  0  0  0  0  0  0  0  0  0  0  0
   37.2190   31.1930   48.0340 H   0  0  0  0  0  0  0  0  0  0  0  0
   33.9820   28.7480   47.8340 C   0  0  0  0  0  0  0  0  0  0  0  0
   34.8880   29.8390   47.7650 C   0  0  0  0  0  0  0  0  0  0  0  0
   35.3640   30.1580   46.5070 C   0  0  0  0  0  0  0  0  0  0  0  0
   34.9580   29.4370   45.4200 N   0  0  0  0  0  0  0  0  0  0  0  0
   34.0940   28.4090   45.5410 C   0  0  0  0  0  0  0  0  0  0  0  0
   33.6090   28.0690   46.7560 N   0  0  0  0  0  0  0  0  0  0  0  0
   33.5620   28.4310   48.7760 H   0  0  0  0  0  0  0  0  0  0  0  0
   36.0390   30.9370   46.2590 H   0  0  0  0  0  0  0  0  0  0  0  0
   33.7640   27.8310   44.6920 H   0  0  0  0  0  0  0  0  0  0  0  0
   36.9350   32.1270   49.8830 C   0  0  0  0  0  0  0  0  0  0  0  0
   38.0460   33.0300   49.3310 C   0  0  0  0  0  0  0  0  0  0  0  0
   38.0970   32.8670   48.2410 H   0  0  0  0  0  0  0  0  0  0  0  0
  1  7  1  6  0  0  0
  1  6  1  0  0  0  0
  1  2  1  0  0  0  0
  2  8  1  0  0  0  0
  2  9  1  0  0  0  0
  2  3  1  0  0  0  0
  3 10  1  0  0  0  0
  4  3  1  0  0  0  0
  4 12  1  0  0  0  0
  4 13  1  0  0  0  0
  5 15  1  0  0  0  0
  5  4  1  0  0  0  0
  6 16  1  6  0  0  0
  6  5  1  0  0  0  0
  6 26  1  0  0  0  0
 11  3  1  0  0  0  0
 14  5  1  0  0  0  0
 17 23  1  0  0  0  0
 18 17  1  0  0  0  0
 18  1  1  0  0  0  0
 19 18  2  0  0  0  0
 20 21  2  0  0  0  0
 20 19  1  0  0  0  0
 21 22  1  0  0  0  0
 22 17  2  0  0  0  0
 24 19  1  0  0  0  0
 25 21  1  0  0  0  0
 27 26  1  0  0  0  0
 28 27  1  0  0  0  0
M  END
>  <minimizedAffinity>
-5.01552343

>  <minimizedRMSD>
4.89977217

$$$$
