
 OpenBabel03272510233D

 25 27  0  0  0  0  0  0  0  0999 V2000
   36.3900   30.3240   46.0890 C   0  0  0  0  0  0  0  0  0  0  0  0
   37.3030   31.0070   46.8820 C   0  0  0  0  0  0  0  0  0  0  0  0
   38.1600   31.9570   46.3360 C   0  0  0  0  0  0  0  0  0  0  0  0
   38.0390   32.1720   44.9540 C   0  0  0  0  0  0  0  0  0  0  0  0
   38.7650   33.0460   44.2130 N   0  0  0  0  0  0  0  0  0  0  0  0
   38.3130   32.9130   42.9600 C   0  0  0  0  0  0  0  0  0  0  0  0
   37.3380   31.9990   42.8810 N   0  0  0  0  0  0  0  0  0  0  0  0
   37.1410   31.5100   44.1330 C   0  0  0  0  0  0  0  0  0  0  0  0
   36.3060   30.5710   44.7190 C   0  0  0  0  0  0  0  0  0  0  0  0
   35.7020   29.5760   46.4690 H   0  0  0  0  0  0  0  0  0  0  0  0
   38.8710   32.4920   46.9430 H   0  0  0  0  0  0  0  0  0  0  0  0
   39.5320   33.7120   44.4930 H   0  0  0  0  0  0  0  0  0  0  0  0
   35.6080   30.0510   44.1060 H   0  0  0  0  0  0  0  0  0  0  0  0
   38.0670   30.9280   50.5680 C   0  0  0  0  0  0  0  0  0  0  0  0
   38.1470   31.3190   49.2340 C   0  0  0  0  0  0  0  0  0  0  0  0
   37.3270   30.6960   48.3090 C   0  0  0  0  0  0  0  0  0  0  0  0
   36.4720   29.7210   48.7400 N   0  0  0  0  0  0  0  0  0  0  0  0
   36.4120   29.3570   50.0420 C   0  0  0  0  0  0  0  0  0  0  0  0
   37.2110   29.9650   50.9450 N   0  0  0  0  0  0  0  0  0  0  0  0
   38.7500   31.4750   51.2210 H   0  0  0  0  0  0  0  0  0  0  0  0
   38.7990   32.0720   48.8680 H   0  0  0  0  0  0  0  0  0  0  0  0
   35.7430   28.5910   50.3980 H   0  0  0  0  0  0  0  0  0  0  0  0
   38.7790   33.6540   41.7400 C   0  0  0  0  0  2  0  0  0  0  0  0
   37.6040   34.0080   40.8400 C   0  0  0  0  0  2  0  0  0  0  0  0
   37.7780   33.6340   39.8070 H   0  0  0  0  0  0  0  0  0  0  0  0
  1 10  1  0  0  0  0
  1  2  1  0  0  0  0
  2 16  1  0  0  0  0
  3  2  2  0  0  0  0
  3 11  1  0  0  0  0
  4  3  1  0  0  0  0
  5 12  1  0  0  0  0
  5  4  1  0  0  0  0
  6  5  1  0  0  0  0
  7  6  2  0  0  0  0
  7  8  1  0  0  0  0
  8  9  1  0  0  0  0
  8  4  2  0  0  0  0
  9  1  2  0  0  0  0
 13  9  1  0  0  0  0
 14 19  1  0  0  0  0
 14 20  1  0  0  0  0
 15 14  2  0  0  0  0
 16 17  2  0  0  0  0
 16 15  1  0  0  0  0
 17 18  1  0  0  0  0
 18 22  1  0  0  0  0
 18 19  2  0  0  0  0
 21 15  1  0  0  0  0
 23  6  1  0  0  0  0
 24 23  1  0  0  0  0
 25 24  1  0  0  0  0
M  END
>  <minimizedAffinity>
-4.84921885

>  <minimizedRMSD>
2.12761426

$$$$
