
 OpenBabel03272506003D

 38 40  0  0  1  0  0  0  0  0999 V2000
   37.7770   26.5560   33.1480 C   0  0  2  0  0  0  0  0  0  0  0  0
   38.9260   25.7510   33.6230 C   0  0  0  0  0  0  0  0  0  0  0  0
   38.8610   25.4500   35.1300 C   0  0  2  0  0  0  0  0  0  0  0  0
   38.7510   26.6460   35.9640 C   0  0  0  0  0  0  0  0  0  0  0  0
   37.8390   27.7190   35.3850 C   0  0  0  0  0  0  0  0  0  0  0  0
   36.9800   27.1860   34.2660 C   0  0  0  0  0  0  0  0  0  0  0  0
   38.1330   27.4150   32.5150 H   0  0  0  0  0  0  0  0  0  0  0  0
   39.8720   26.3730   33.5300 H   0  0  0  0  0  0  0  0  0  0  0  0
   39.1640   24.8010   33.2090 H   0  0  0  0  0  0  0  0  0  0  0  0
   38.0420   24.7420   35.2430 H   0  0  0  0  0  0  0  0  0  0  0  0
   39.7290   27.1480   36.0930 H   0  0  0  0  0  0  0  0  0  0  0  0
   38.4290   26.3440   36.9820 H   0  0  0  0  0  0  0  0  0  0  0  0
   38.3720   28.6320   35.1070 H   0  0  0  0  0  0  0  0  0  0  0  0
   37.1310   27.9980   36.1950 H   0  0  0  0  0  0  0  0  0  0  0  0
   36.2740   26.4500   34.6550 H   0  0  0  0  0  0  0  0  0  0  0  0
   36.4160   28.0310   33.8450 H   0  0  0  0  0  0  0  0  0  0  0  0
   38.6090   23.0220   36.7790 Cl  0  0  0  0  0  0  0  0  0  0  0  0
   40.1560   23.6060   36.1930 C   0  0  0  0  0  0  0  0  0  0  0  0
   40.1430   24.7410   35.4080 C   0  0  0  0  0  0  0  0  0  0  0  0
   41.4080   25.1110   34.9840 C   0  0  0  0  0  0  0  0  0  0  0  0
   42.5490   24.4210   35.3140 C   0  0  0  0  0  0  0  0  0  0  0  0
   42.4690   23.2860   36.1130 C   0  0  0  0  0  0  0  0  0  0  0  0
   41.2220   22.8710   36.5640 C   0  0  0  0  0  0  0  0  0  0  0  0
   41.4870   25.9910   34.3590 H   0  0  0  0  0  0  0  0  0  0  0  0
   43.5120   24.7700   34.9470 H   0  0  0  0  0  0  0  0  0  0  0  0
   43.3870   22.7790   36.3470 H   0  0  0  0  0  0  0  0  0  0  0  0
   41.2470   21.6620   37.4160 C   0  0  0  0  0  2  0  0  0  0  0  0
   42.4350   20.7710   37.1390 C   0  0  0  0  0  2  0  0  0  0  0  0
   42.6090   20.6350   36.0510 H   0  0  0  0  0  0  0  0  0  0  0  0
   36.8380   25.7900   32.3200 C   0  0  0  0  0  0  0  0  0  0  0  0
   37.0500   24.4120   32.2940 C   0  0  0  0  0  0  0  0  0  0  0  0
   36.1730   23.6310   31.5300 C   0  0  0  0  0  0  0  0  0  0  0  0
   35.1450   24.2580   30.8400 N   0  0  0  0  0  0  0  0  0  0  0  0
   34.9760   25.5970   30.8910 C   0  0  0  0  0  0  0  0  0  0  0  0
   35.8250   26.3160   31.6280 N   0  0  0  0  0  0  0  0  0  0  0  0
   37.7250   23.6790   32.6940 H   0  0  0  0  0  0  0  0  0  0  0  0
   36.1080   22.5870   31.3380 H   0  0  0  0  0  0  0  0  0  0  0  0
   34.2230   26.1550   30.3980 H   0  0  0  0  0  0  0  0  0  0  0  0
  1  7  1  6  0  0  0
  1  2  1  0  0  0  0
  1  6  1  0  0  0  0
  2  3  1  0  0  0  0
  3 10  1  1  0  0  0
  3 19  1  0  0  0  0
  3  4  1  0  0  0  0
  4 11  1  0  0  0  0
  4 12  1  0  0  0  0
  5  4  1  0  0  0  0
  5 14  1  0  0  0  0
  6 15  1  0  0  0  0
  6  5  1  0  0  0  0
  8  2  1  0  0  0  0
  9  2  1  0  0  0  0
 13  5  1  0  0  0  0
 16  6  1  0  0  0  0
 18 23  1  0  0  0  0
 18 17  1  0  0  0  0
 19 18  2  0  0  0  0
 20 21  2  0  0  0  0
 20 19  1  0  0  0  0
 21 22  1  0  0  0  0
 22 26  1  0  0  0  0
 22 23  2  0  0  0  0
 23 27  1  0  0  0  0
 24 20  1  0  0  0  0
 25 21  1  0  0  0  0
 28 27  1  0  0  0  0
 29 28  1  0  0  0  0
 30  1  1  0  0  0  0
 31 30  1  0  0  0  0
 31 36  1  0  0  0  0
 32 31  2  0  0  0  0
 33 34  2  0  0  0  0
 33 32  1  0  0  0  0
 34 35  1  0  0  0  0
 35 30  2  0  0  0  0
 37 32  1  0  0  0  0
 38 34  1  0  0  0  0
M  END
>  <minimizedAffinity>
-5.73624992

$$$$

 OpenBabel03272506003D

 38 40  0  0  1  0  0  0  0  0999 V2000
   36.9770   27.9560   31.9970 C   0  0  2  0  0  0  0  0  0  0  0  0
   36.4120   28.6340   33.1860 C   0  0  0  0  0  0  0  0  0  0  0  0
   35.3170   29.6530   32.8260 C   0  0  2  0  0  0  0  0  0  0  0  0
   35.7510   30.6700   31.8710 C   0  0  0  0  0  0  0  0  0  0  0  0
   36.6520   30.1330   30.7660 C   0  0  0  0  0  0  0  0  0  0  0  0
   36.6170   28.6280   30.6920 C   0  0  0  0  0  0  0  0  0  0  0  0
   38.1020   27.9660   32.0360 H   0  0  0  0  0  0  0  0  0  0  0  0
   37.2180   29.2830   33.6540 H   0  0  0  0  0  0  0  0  0  0  0  0
   35.9700   28.0960   33.9900 H   0  0  0  0  0  0  0  0  0  0  0  0
   34.4690   29.0550   32.4970 H   0  0  0  0  0  0  0  0  0  0  0  0
   36.3490   31.4650   32.3590 H   0  0  0  0  0  0  0  0  0  0  0  0
   34.8560   31.1770   31.4560 H   0  0  0  0  0  0  0  0  0  0  0  0
   37.6700   30.5280   30.8110 H   0  0  0  0  0  0  0  0  0  0  0  0
   36.2150   30.4870   29.8070 H   0  0  0  0  0  0  0  0  0  0  0  0
   35.6270   28.2910   30.3830 H   0  0  0  0  0  0  0  0  0  0  0  0
   37.3510   28.3130   29.9360 H   0  0  0  0  0  0  0  0  0  0  0  0
   32.5420   29.2320   33.7210 Cl  0  0  0  0  0  0  0  0  0  0  0  0
   33.6950   30.1790   34.6440 C   0  0  0  0  0  0  0  0  0  0  0  0
   34.9740   30.2840   34.1340 C   0  0  0  0  0  0  0  0  0  0  0  0
   35.8110   31.0360   34.9400 C   0  0  0  0  0  0  0  0  0  0  0  0
   35.4060   31.6160   36.1180 C   0  0  0  0  0  0  0  0  0  0  0  0
   34.0960   31.4590   36.5560 C   0  0  0  0  0  0  0  0  0  0  0  0
   33.2160   30.7110   35.7840 C   0  0  0  0  0  0  0  0  0  0  0  0
   36.8340   31.1650   34.6140 H   0  0  0  0  0  0  0  0  0  0  0  0
   36.1170   32.1960   36.7020 H   0  0  0  0  0  0  0  0  0  0  0  0
   33.8240   31.9310   37.4830 H   0  0  0  0  0  0  0  0  0  0  0  0
   31.8440   30.6170   36.3310 C   0  0  0  0  0  2  0  0  0  0  0  0
   31.6430   29.4040   37.2090 C   0  0  0  0  0  2  0  0  0  0  0  0
   32.0800   28.4880   36.7600 H   0  0  0  0  0  0  0  0  0  0  0  0
   36.5760   26.5490   31.8880 C   0  0  0  0  0  0  0  0  0  0  0  0
   35.4330   26.3100   31.1260 C   0  0  0  0  0  0  0  0  0  0  0  0
   35.0140   24.9810   30.9780 C   0  0  0  0  0  0  0  0  0  0  0  0
   35.7460   23.9740   31.5910 N   0  0  0  0  0  0  0  0  0  0  0  0
   36.8460   24.2500   32.3230 C   0  0  0  0  0  0  0  0  0  0  0  0
   37.2250   25.5240   32.4470 N   0  0  0  0  0  0  0  0  0  0  0  0
   34.6930   26.8510   30.5660 H   0  0  0  0  0  0  0  0  0  0  0  0
   34.1980   24.5290   30.4660 H   0  0  0  0  0  0  0  0  0  0  0  0
   37.4610   23.5470   32.8240 H   0  0  0  0  0  0  0  0  0  0  0  0
  1  7  1  1  0  0  0
  1  2  1  0  0  0  0
  2  8  1  0  0  0  0
  2  9  1  0  0  0  0
  3 10  1  6  0  0  0
  3  2  1  0  0  0  0
  3 19  1  0  0  0  0
  4 11  1  0  0  0  0
  4  3  1  0  0  0  0
  5 13  1  0  0  0  0
  5  4  1  0  0  0  0
  6  5  1  0  0  0  0
  6  1  1  0  0  0  0
 12  4  1  0  0  0  0
 14  5  1  0  0  0  0
 15  6  1  0  0  0  0
 16  6  1  0  0  0  0
 17 18  1  0  0  0  0
 18 23  1  0  0  0  0
 19 18  2  0  0  0  0
 19 20  1  0  0  0  0
 20 21  2  0  0  0  0
 21 22  1  0  0  0  0
 21 25  1  0  0  0  0
 22 26  1  0  0  0  0
 23 27  1  0  0  0  0
 23 22  2  0  0  0  0
 24 20  1  0  0  0  0
 27 28  1  0  0  0  0
 29 28  1  0  0  0  0
 30  1  1  0  0  0  0
 30 35  1  0  0  0  0
 31 30  2  0  0  0  0
 32 31  1  0  0  0  0
 32 33  2  0  0  0  0
 33 34  1  0  0  0  0
 34 35  2  0  0  0  0
 34 38  1  0  0  0  0
 36 31  1  0  0  0  0
 37 32  1  0  0  0  0
M  END
>  <minimizedAffinity>
-5.56980562

$$$$

 OpenBabel03272506003D

 38 40  0  0  1  0  0  0  0  0999 V2000
   36.4930   28.4570   32.4910 C   0  0  2  0  0  0  0  0  0  0  0  0
   35.6920   28.9190   33.6470 C   0  0  0  0  0  0  0  0  0  0  0  0
   34.3640   29.5720   33.2290 C   0  0  2  0  0  0  0  0  0  0  0  0
   34.5240   30.6860   32.2960 C   0  0  0  0  0  0  0  0  0  0  0  0
   35.5990   30.4570   31.2420 C   0  0  0  0  0  0  0  0  0  0  0  0
   36.0170   29.0100   31.1680 C   0  0  0  0  0  0  0  0  0  0  0  0
   37.5610   28.7990   32.5900 H   0  0  0  0  0  0  0  0  0  0  0  0
   36.2440   29.7710   34.1570 H   0  0  0  0  0  0  0  0  0  0  0  0
   35.3900   28.2630   34.4270 H   0  0  0  0  0  0  0  0  0  0  0  0
   33.7500   28.7540   32.8560 H   0  0  0  0  0  0  0  0  0  0  0  0
   34.8330   31.6150   32.8150 H   0  0  0  0  0  0  0  0  0  0  0  0
   33.5410   30.9100   31.8330 H   0  0  0  0  0  0  0  0  0  0  0  0
   36.4500   31.1360   31.3400 H   0  0  0  0  0  0  0  0  0  0  0  0
   35.1260   30.6790   30.2600 H   0  0  0  0  0  0  0  0  0  0  0  0
   35.1880   28.3990   30.8070 H   0  0  0  0  0  0  0  0  0  0  0  0
   36.8480   28.9380   30.4520 H   0  0  0  0  0  0  0  0  0  0  0  0
   35.8270   31.7880   34.5040 Cl  0  0  0  0  0  0  0  0  0  0  0  0
   34.3960   31.0700   35.2210 C   0  0  0  0  0  0  0  0  0  0  0  0
   33.7830   30.0540   34.5150 C   0  0  0  0  0  0  0  0  0  0  0  0
   32.6560   29.5640   35.1540 C   0  0  0  0  0  0  0  0  0  0  0  0
   32.2040   30.0400   36.3610 C   0  0  0  0  0  0  0  0  0  0  0  0
   32.8860   31.0670   37.0030 C   0  0  0  0  0  0  0  0  0  0  0  0
   34.0220   31.5950   36.4020 C   0  0  0  0  0  0  0  0  0  0  0  0
   32.1130   28.7660   34.6660 H   0  0  0  0  0  0  0  0  0  0  0  0
   31.3120   29.6070   36.8080 H   0  0  0  0  0  0  0  0  0  0  0  0
   32.4970   31.4080   37.9450 H   0  0  0  0  0  0  0  0  0  0  0  0
   34.6810   32.6740   37.1720 C   0  0  0  0  0  2  0  0  0  0  0  0
   33.7070   33.7080   37.6870 C   0  0  0  0  0  2  0  0  0  0  0  0
   32.9690   34.0070   36.9130 H   0  0  0  0  0  0  0  0  0  0  0  0
   36.5350   26.9960   32.3630 C   0  0  0  0  0  0  0  0  0  0  0  0
   35.6650   26.4530   31.4170 C   0  0  0  0  0  0  0  0  0  0  0  0
   35.6740   25.0620   31.2450 C   0  0  0  0  0  0  0  0  0  0  0  0
   36.5380   24.2960   32.0150 N   0  0  0  0  0  0  0  0  0  0  0  0
   37.3630   24.8630   32.9210 C   0  0  0  0  0  0  0  0  0  0  0  0
   37.3350   26.1890   33.0650 N   0  0  0  0  0  0  0  0  0  0  0  0
   34.9160   26.7690   30.7160 H   0  0  0  0  0  0  0  0  0  0  0  0
   35.1270   24.4050   30.6120 H   0  0  0  0  0  0  0  0  0  0  0  0
   38.0500   24.3560   33.5490 H   0  0  0  0  0  0  0  0  0  0  0  0
  1  7  1  1  0  0  0
  1  2  1  0  0  0  0
  2  8  1  0  0  0  0
  2  9  1  0  0  0  0
  3 10  1  6  0  0  0
  3  2  1  0  0  0  0
  3 19  1  0  0  0  0
  4 11  1  0  0  0  0
  4  3  1  0  0  0  0
  5 13  1  0  0  0  0
  5  4  1  0  0  0  0
  6  5  1  0  0  0  0
  6  1  1  0  0  0  0
 12  4  1  0  0  0  0
 14  5  1  0  0  0  0
 15  6  1  0  0  0  0
 16  6  1  0  0  0  0
 17 18  1  0  0  0  0
 18 23  1  0  0  0  0
 19 20  1  0  0  0  0
 19 18  2  0  0  0  0
 20 21  2  0  0  0  0
 21 25  1  0  0  0  0
 21 22  1  0  0  0  0
 22 26  1  0  0  0  0
 23 22  2  0  0  0  0
 23 27  1  0  0  0  0
 24 20  1  0  0  0  0
 27 28  1  0  0  0  0
 29 28  1  0  0  0  0
 30  1  1  0  0  0  0
 30 35  1  0  0  0  0
 31 30  2  0  0  0  0
 32 31  1  0  0  0  0
 32 33  2  0  0  0  0
 33 34  1  0  0  0  0
 34 35  2  0  0  0  0
 34 38  1  0  0  0  0
 36 31  1  0  0  0  0
 37 32  1  0  0  0  0
M  END
>  <minimizedAffinity>
-5.52480888

$$$$

 OpenBabel03272506003D

 38 40  0  0  1  0  0  0  0  0999 V2000
   38.8530   25.4030   32.3740 C   0  0  2  0  0  0  0  0  0  0  0  0
   39.1310   24.5500   33.5520 C   0  0  0  0  0  0  0  0  0  0  0  0
   39.2460   25.3560   34.8570 C   0  0  2  0  0  0  0  0  0  0  0  0
   40.2460   26.4210   34.8050 C   0  0  0  0  0  0  0  0  0  0  0  0
   40.2880   27.1610   33.4750 C   0  0  0  0  0  0  0  0  0  0  0  0
   39.0710   26.8760   32.6320 C   0  0  0  0  0  0  0  0  0  0  0  0
   39.5460   25.1430   31.5270 H   0  0  0  0  0  0  0  0  0  0  0  0
   40.1680   24.1000   33.4400 H   0  0  0  0  0  0  0  0  0  0  0  0
   38.4960   23.7460   33.8340 H   0  0  0  0  0  0  0  0  0  0  0  0
   38.2340   25.6940   35.0720 H   0  0  0  0  0  0  0  0  0  0  0  0
   41.2720   26.0290   34.9410 H   0  0  0  0  0  0  0  0  0  0  0  0
   40.0730   27.1160   35.6520 H   0  0  0  0  0  0  0  0  0  0  0  0
   41.2230   27.0090   32.9270 H   0  0  0  0  0  0  0  0  0  0  0  0
   40.2330   28.2440   33.7170 H   0  0  0  0  0  0  0  0  0  0  0  0
   38.1800   27.2870   33.1100 H   0  0  0  0  0  0  0  0  0  0  0  0
   39.2120   27.3720   31.6600 H   0  0  0  0  0  0  0  0  0  0  0  0
   41.8840   24.1140   34.4380 Cl  0  0  0  0  0  0  0  0  0  0  0  0
   40.8330   23.6630   35.7680 C   0  0  0  0  0  0  0  0  0  0  0  0
   39.6310   24.3340   35.8740 C   0  0  0  0  0  0  0  0  0  0  0  0
   38.8810   23.9190   36.9610 C   0  0  0  0  0  0  0  0  0  0  0  0
   39.2930   22.9420   37.8350 C   0  0  0  0  0  0  0  0  0  0  0  0
   40.5210   22.3170   37.6510 C   0  0  0  0  0  0  0  0  0  0  0  0
   41.3130   22.6990   36.5750 C   0  0  0  0  0  0  0  0  0  0  0  0
   37.9250   24.3980   37.1190 H   0  0  0  0  0  0  0  0  0  0  0  0
   38.6520   22.6640   38.6690 H   0  0  0  0  0  0  0  0  0  0  0  0
   40.8020   21.5580   38.3590 H   0  0  0  0  0  0  0  0  0  0  0  0
   42.5930   21.9640   36.4610 C   0  0  0  0  0  2  0  0  0  0  0  0
   42.5840   20.6480   37.2030 C   0  0  0  0  0  2  0  0  0  0  0  0
   42.1350   20.7430   38.2130 H   0  0  0  0  0  0  0  0  0  0  0  0
   37.4880   25.2480   31.8580 C   0  0  0  0  0  0  0  0  0  0  0  0
   36.8210   26.4370   31.5630 C   0  0  0  0  0  0  0  0  0  0  0  0
   35.5190   26.3460   31.0540 C   0  0  0  0  0  0  0  0  0  0  0  0
   34.9570   25.0900   30.8680 N   0  0  0  0  0  0  0  0  0  0  0  0
   35.6380   23.9640   31.1680 C   0  0  0  0  0  0  0  0  0  0  0  0
   36.8770   24.0790   31.6510 N   0  0  0  0  0  0  0  0  0  0  0  0
   36.9800   27.4980   31.6050 H   0  0  0  0  0  0  0  0  0  0  0  0
   34.8020   27.0730   30.7550 H   0  0  0  0  0  0  0  0  0  0  0  0
   35.2880   22.9700   31.0590 H   0  0  0  0  0  0  0  0  0  0  0  0
  1  7  1  6  0  0  0
  1  6  1  0  0  0  0
  1  2  1  0  0  0  0
  2  9  1  0  0  0  0
  2  3  1  0  0  0  0
  3 10  1  1  0  0  0
  3 19  1  0  0  0  0
  4  3  1  0  0  0  0
  4 11  1  0  0  0  0
  4 12  1  0  0  0  0
  5 14  1  0  0  0  0
  5  4  1  0  0  0  0
  6 15  1  0  0  0  0
  6  5  1  0  0  0  0
  8  2  1  0  0  0  0
 13  5  1  0  0  0  0
 16  6  1  0  0  0  0
 17 18  1  0  0  0  0
 18 19  2  0  0  0  0
 18 23  1  0  0  0  0
 19 20  1  0  0  0  0
 20 24  1  0  0  0  0
 20 21  2  0  0  0  0
 21 25  1  0  0  0  0
 22 21  1  0  0  0  0
 22 26  1  0  0  0  0
 23 22  2  0  0  0  0
 27 23  1  0  0  0  0
 27 28  1  0  0  0  0
 28 29  1  0  0  0  0
 30  1  1  0  0  0  0
 31 36  1  0  0  0  0
 31 30  2  0  0  0  0
 32 31  1  0  0  0  0
 33 32  2  0  0  0  0
 33 34  1  0  0  0  0
 34 35  2  0  0  0  0
 35 30  1  0  0  0  0
 37 32  1  0  0  0  0
 38 34  1  0  0  0  0
M  END
>  <minimizedAffinity>
-5.51012897

$$$$

 OpenBabel03272506003D

 38 40  0  0  1  0  0  0  0  0999 V2000
   36.1720   28.4120   31.5710 C   0  0  2  0  0  0  0  0  0  0  0  0
   35.1690   29.0500   32.4550 C   0  0  0  0  0  0  0  0  0  0  0  0
   35.7390   29.4110   33.8370 C   0  0  2  0  0  0  0  0  0  0  0  0
   36.3330   28.2780   34.5440 C   0  0  0  0  0  0  0  0  0  0  0  0
   37.1200   27.3350   33.6450 C   0  0  0  0  0  0  0  0  0  0  0  0
   37.4120   27.9510   32.3000 C   0  0  0  0  0  0  0  0  0  0  0  0
   35.7440   27.4860   31.0960 H   0  0  0  0  0  0  0  0  0  0  0  0
   34.3650   28.2870   32.7050 H   0  0  0  0  0  0  0  0  0  0  0  0
   34.6520   29.9370   32.1800 H   0  0  0  0  0  0  0  0  0  0  0  0
   36.4220   30.2400   33.6550 H   0  0  0  0  0  0  0  0  0  0  0  0
   35.5610   27.6380   35.0150 H   0  0  0  0  0  0  0  0  0  0  0  0
   36.9560   28.6620   35.3770 H   0  0  0  0  0  0  0  0  0  0  0  0
   36.6710   26.3420   33.5630 H   0  0  0  0  0  0  0  0  0  0  0  0
   38.1120   27.1970   34.1290 H   0  0  0  0  0  0  0  0  0  0  0  0
   38.0890   28.7990   32.4160 H   0  0  0  0  0  0  0  0  0  0  0  0
   37.9040   27.1870   31.6810 H   0  0  0  0  0  0  0  0  0  0  0  0
   36.3180   31.5970   35.7260 Cl  0  0  0  0  0  0  0  0  0  0  0  0
   34.7080   30.9320   35.5200 C   0  0  0  0  0  0  0  0  0  0  0  0
   34.5570   29.9270   34.5860 C   0  0  0  0  0  0  0  0  0  0  0  0
   33.2500   29.4810   34.4870 C   0  0  0  0  0  0  0  0  0  0  0  0
   32.2190   29.9870   35.2420 C   0  0  0  0  0  0  0  0  0  0  0  0
   32.4630   31.0000   36.1620 C   0  0  0  0  0  0  0  0  0  0  0  0
   33.7580   31.4840   36.2980 C   0  0  0  0  0  0  0  0  0  0  0  0
   33.0440   28.6950   33.7740 H   0  0  0  0  0  0  0  0  0  0  0  0
   31.2150   29.5880   35.1140 H   0  0  0  0  0  0  0  0  0  0  0  0
   31.6260   31.3650   36.7310 H   0  0  0  0  0  0  0  0  0  0  0  0
   33.9120   32.5520   37.3120 C   0  0  0  0  0  2  0  0  0  0  0  0
   32.9550   33.7020   37.1060 C   0  0  0  0  0  2  0  0  0  0  0  0
   32.8980   34.0100   36.0410 H   0  0  0  0  0  0  0  0  0  0  0  0
   36.6090   29.2800   30.4710 C   0  0  0  0  0  0  0  0  0  0  0  0
   36.2770   30.6280   30.6070 C   0  0  0  0  0  0  0  0  0  0  0  0
   36.6830   31.5050   29.5910 C   0  0  0  0  0  0  0  0  0  0  0  0
   37.3870   30.9970   28.5080 N   0  0  0  0  0  0  0  0  0  0  0  0
   37.6850   29.6830   28.4160 C   0  0  0  0  0  0  0  0  0  0  0  0
   37.2880   28.8710   29.3980 N   0  0  0  0  0  0  0  0  0  0  0  0
   35.7630   31.2820   31.2860 H   0  0  0  0  0  0  0  0  0  0  0  0
   36.5650   32.5520   29.4440 H   0  0  0  0  0  0  0  0  0  0  0  0
   38.2160   29.2130   27.6290 H   0  0  0  0  0  0  0  0  0  0  0  0
  1  7  1  6  0  0  0
  1  6  1  0  0  0  0
  1  2  1  0  0  0  0
  2  8  1  0  0  0  0
  2  3  1  0  0  0  0
  3 10  1  6  0  0  0
  3  4  1  0  0  0  0
  3 19  1  0  0  0  0
  4 11  1  0  0  0  0
  4 12  1  0  0  0  0
  5 14  1  0  0  0  0
  5  4  1  0  0  0  0
  6 15  1  0  0  0  0
  6  5  1  0  0  0  0
  9  2  1  0  0  0  0
 13  5  1  0  0  0  0
 16  6  1  0  0  0  0
 18 17  1  0  0  0  0
 18 23  1  0  0  0  0
 19 18  2  0  0  0  0
 20 19  1  0  0  0  0
 20 21  2  0  0  0  0
 21 22  1  0  0  0  0
 22 23  2  0  0  0  0
 22 26  1  0  0  0  0
 23 27  1  0  0  0  0
 24 20  1  0  0  0  0
 25 21  1  0  0  0  0
 28 27  1  0  0  0  0
 29 28  1  0  0  0  0
 30 31  1  0  0  0  0
 30  1  1  0  0  0  0
 31 36  1  0  0  0  0
 32 31  2  0  0  0  0
 33 32  1  0  0  0  0
 34 33  2  0  0  0  0
 34 35  1  0  0  0  0
 35 30  2  0  0  0  0
 37 32  1  0  0  0  0
 38 34  1  0  0  0  0
M  END
>  <minimizedAffinity>
-5.43673992

$$$$

 OpenBabel03272506003D

 38 40  0  0  1  0  0  0  0  0999 V2000
   35.1320   31.9270   36.3260 C   0  0  2  0  0  0  0  0  0  0  0  0
   35.8290   30.9100   35.5060 C   0  0  0  0  0  0  0  0  0  0  0  0
   34.9520   30.3590   34.3690 C   0  0  2  0  0  0  0  0  0  0  0  0
   33.6790   29.8010   34.8240 C   0  0  0  0  0  0  0  0  0  0  0  0
   33.0230   30.5990   35.9420 C   0  0  0  0  0  0  0  0  0  0  0  0
   33.6390   31.9660   36.0970 C   0  0  0  0  0  0  0  0  0  0  0  0
   35.2590   31.7050   37.4220 H   0  0  0  0  0  0  0  0  0  0  0  0
   36.0180   29.9910   36.1470 H   0  0  0  0  0  0  0  0  0  0  0  0
   36.7470   31.1110   35.0110 H   0  0  0  0  0  0  0  0  0  0  0  0
   34.8590   31.1790   33.6590 H   0  0  0  0  0  0  0  0  0  0  0  0
   33.8030   28.7830   35.2400 H   0  0  0  0  0  0  0  0  0  0  0  0
   33.0030   29.6920   33.9510 H   0  0  0  0  0  0  0  0  0  0  0  0
   32.9700   30.0520   36.8880 H   0  0  0  0  0  0  0  0  0  0  0  0
   31.9740   30.7810   35.6230 H   0  0  0  0  0  0  0  0  0  0  0  0
   33.4330   32.5720   35.2140 H   0  0  0  0  0  0  0  0  0  0  0  0
   33.1750   32.4460   36.9720 H   0  0  0  0  0  0  0  0  0  0  0  0
   35.2420   30.5340   31.4430 Cl  0  0  0  0  0  0  0  0  0  0  0  0
   35.9800   29.2530   32.3870 C   0  0  0  0  0  0  0  0  0  0  0  0
   35.7940   29.2920   33.7540 C   0  0  0  0  0  0  0  0  0  0  0  0
   36.4270   28.2500   34.4100 C   0  0  0  0  0  0  0  0  0  0  0  0
   37.1590   27.2830   33.7640 C   0  0  0  0  0  0  0  0  0  0  0  0
   37.2930   27.3210   32.3810 C   0  0  0  0  0  0  0  0  0  0  0  0
   36.6780   28.3480   31.6760 C   0  0  0  0  0  0  0  0  0  0  0  0
   36.3330   28.2090   35.4870 H   0  0  0  0  0  0  0  0  0  0  0  0
   37.6290   26.4910   34.3420 H   0  0  0  0  0  0  0  0  0  0  0  0
   37.8740   26.5440   31.9180 H   0  0  0  0  0  0  0  0  0  0  0  0
   36.8720   28.2890   30.2090 C   0  0  0  0  0  2  0  0  0  0  0  0
   38.1420   28.9700   29.7560 C   0  0  0  0  0  2  0  0  0  0  0  0
   38.2900   29.9510   30.2540 H   0  0  0  0  0  0  0  0  0  0  0  0
   35.6410   33.2870   36.1150 C   0  0  0  0  0  0  0  0  0  0  0  0
   36.8340   33.3740   35.3980 C   0  0  0  0  0  0  0  0  0  0  0  0
   37.3580   34.6510   35.1560 C   0  0  0  0  0  0  0  0  0  0  0  0
   36.6740   35.7590   35.6370 N   0  0  0  0  0  0  0  0  0  0  0  0
   35.5220   35.6290   36.3290 C   0  0  0  0  0  0  0  0  0  0  0  0
   35.0450   34.4020   36.5440 N   0  0  0  0  0  0  0  0  0  0  0  0
   37.5590   32.7340   34.9310 H   0  0  0  0  0  0  0  0  0  0  0  0
   38.2290   34.9960   34.6520 H   0  0  0  0  0  0  0  0  0  0  0  0
   34.9380   36.4170   36.7310 H   0  0  0  0  0  0  0  0  0  0  0  0
  1  7  1  1  0  0  0
  2  8  1  0  0  0  0
  2  1  1  0  0  0  0
  3 10  1  6  0  0  0
  3  4  1  0  0  0  0
  3  2  1  0  0  0  0
  4 11  1  0  0  0  0
  4  5  1  0  0  0  0
  5  6  1  0  0  0  0
  5 13  1  0  0  0  0
  6  1  1  0  0  0  0
  6 16  1  0  0  0  0
  9  2  1  0  0  0  0
 12  4  1  0  0  0  0
 14  5  1  0  0  0  0
 15  6  1  0  0  0  0
 17 18  1  0  0  0  0
 18 19  1  0  0  0  0
 19  3  1  0  0  0  0
 19 20  2  0  0  0  0
 20 24  1  0  0  0  0
 21 25  1  0  0  0  0
 21 20  1  0  0  0  0
 22 21  2  0  0  0  0
 23 22  1  0  0  0  0
 23 18  2  0  0  0  0
 26 22  1  0  0  0  0
 27 23  1  0  0  0  0
 28 27  1  0  0  0  0
 28 29  1  0  0  0  0
 30  1  1  0  0  0  0
 30 35  1  0  0  0  0
 31 30  2  0  0  0  0
 32 31  1  0  0  0  0
 32 33  2  0  0  0  0
 33 34  1  0  0  0  0
 34 35  2  0  0  0  0
 34 38  1  0  0  0  0
 36 31  1  0  0  0  0
 37 32  1  0  0  0  0
M  END
>  <minimizedAffinity>
-5.40545368

$$$$

 OpenBabel03272506003D

 38 40  0  0  1  0  0  0  0  0999 V2000
   36.8890   27.6480   31.8720 C   0  0  2  0  0  0  0  0  0  0  0  0
   36.9420   26.5590   32.8730 C   0  0  0  0  0  0  0  0  0  0  0  0
   38.3790   26.2000   33.2880 C   0  0  2  0  0  0  0  0  0  0  0  0
   39.2450   25.8460   32.1640 C   0  0  0  0  0  0  0  0  0  0  0  0
   39.0260   26.7010   30.9240 C   0  0  0  0  0  0  0  0  0  0  0  0
   38.2250   27.9420   31.2290 C   0  0  0  0  0  0  0  0  0  0  0  0
   36.2050   27.3700   31.0230 H   0  0  0  0  0  0  0  0  0  0  0  0
   36.5720   25.6000   32.3900 H   0  0  0  0  0  0  0  0  0  0  0  0
   36.4420   26.6230   33.8090 H   0  0  0  0  0  0  0  0  0  0  0  0
   38.7260   27.0490   33.8760 H   0  0  0  0  0  0  0  0  0  0  0  0
   39.0700   24.8070   31.8230 H   0  0  0  0  0  0  0  0  0  0  0  0
   40.3010   25.8800   32.5010 H   0  0  0  0  0  0  0  0  0  0  0  0
   38.6220   26.1380   30.0780 H   0  0  0  0  0  0  0  0  0  0  0  0
   40.0290   27.0660   30.6140 H   0  0  0  0  0  0  0  0  0  0  0  0
   38.7940   28.6040   31.8830 H   0  0  0  0  0  0  0  0  0  0  0  0
   38.0360   28.4610   30.2780 H   0  0  0  0  0  0  0  0  0  0  0  0
   38.2650   26.8620   36.1560 Cl  0  0  0  0  0  0  0  0  0  0  0  0
   38.1670   25.2130   35.5660 C   0  0  0  0  0  0  0  0  0  0  0  0
   38.2070   25.0310   34.1980 C   0  0  0  0  0  0  0  0  0  0  0  0
   38.1080   23.7000   33.8320 C   0  0  0  0  0  0  0  0  0  0  0  0
   37.9860   22.6740   34.7380 C   0  0  0  0  0  0  0  0  0  0  0  0
   37.9560   22.9490   36.1000 C   0  0  0  0  0  0  0  0  0  0  0  0
   38.0500   24.2700   36.5190 C   0  0  0  0  0  0  0  0  0  0  0  0
   38.1280   23.4700   32.7750 H   0  0  0  0  0  0  0  0  0  0  0  0
   37.9150   21.6490   34.3800 H   0  0  0  0  0  0  0  0  0  0  0  0
   37.8600   22.1150   36.7720 H   0  0  0  0  0  0  0  0  0  0  0  0
   38.0210   24.4530   37.9880 C   0  0  0  0  0  2  0  0  0  0  0  0
   38.7620   23.3670   38.7310 C   0  0  0  0  0  2  0  0  0  0  0  0
   38.5270   22.3570   38.3360 H   0  0  0  0  0  0  0  0  0  0  0  0
   36.3810   28.9120   32.4190 C   0  0  0  0  0  0  0  0  0  0  0  0
   35.9100   28.8490   33.7300 C   0  0  0  0  0  0  0  0  0  0  0  0
   35.4260   30.0320   34.3060 C   0  0  0  0  0  0  0  0  0  0  0  0
   35.4370   31.1980   33.5540 N   0  0  0  0  0  0  0  0  0  0  0  0
   35.9010   31.2140   32.2860 C   0  0  0  0  0  0  0  0  0  0  0  0
   36.3570   30.0750   31.7620 N   0  0  0  0  0  0  0  0  0  0  0  0
   35.7730   28.1340   34.5190 H   0  0  0  0  0  0  0  0  0  0  0  0
   35.0170   30.2610   35.2610 H   0  0  0  0  0  0  0  0  0  0  0  0
   35.9450   32.0550   31.6430 H   0  0  0  0  0  0  0  0  0  0  0  0
  1  7  1  6  0  0  0
  1 30  1  0  0  0  0
  1  2  1  0  0  0  0
  2  3  1  0  0  0  0
  2  9  1  0  0  0  0
  3 10  1  1  0  0  0
  3 19  1  0  0  0  0
  4 12  1  0  0  0  0
  4  3  1  0  0  0  0
  5  6  1  0  0  0  0
  5  4  1  0  0  0  0
  6  1  1  0  0  0  0
  6 15  1  0  0  0  0
  8  2  1  0  0  0  0
 11  4  1  0  0  0  0
 13  5  1  0  0  0  0
 14  5  1  0  0  0  0
 16  6  1  0  0  0  0
 18 17  1  0  0  0  0
 18 23  1  0  0  0  0
 19 18  2  0  0  0  0
 20 19  1  0  0  0  0
 20 21  2  0  0  0  0
 21 22  1  0  0  0  0
 22 23  2  0  0  0  0
 22 26  1  0  0  0  0
 23 27  1  0  0  0  0
 24 20  1  0  0  0  0
 25 21  1  0  0  0  0
 27 28  1  0  0  0  0
 29 28  1  0  0  0  0
 30 31  1  0  0  0  0
 31 32  2  0  0  0  0
 31 36  1  0  0  0  0
 32 37  1  0  0  0  0
 33 32  1  0  0  0  0
 34 33  2  0  0  0  0
 35 34  1  0  0  0  0
 35 30  2  0  0  0  0
 38 34  1  0  0  0  0
M  END
>  <minimizedAffinity>
-5.3546195

$$$$

 OpenBabel03272506003D

 38 40  0  0  1  0  0  0  0  0999 V2000
   39.0580   25.8960   35.3250 C   0  0  2  0  0  0  0  0  0  0  0  0
   38.2560   26.6530   34.3370 C   0  0  0  0  0  0  0  0  0  0  0  0
   38.9450   26.7590   32.9660 C   0  0  2  0  0  0  0  0  0  0  0  0
   40.2860   27.3400   33.0250 C   0  0  0  0  0  0  0  0  0  0  0  0
   41.1010   26.8860   34.2280 C   0  0  0  0  0  0  0  0  0  0  0  0
   40.4920   25.6820   34.9010 C   0  0  0  0  0  0  0  0  0  0  0  0
   39.1160   26.4570   36.2990 H   0  0  0  0  0  0  0  0  0  0  0  0
   38.1920   27.7370   34.6720 H   0  0  0  0  0  0  0  0  0  0  0  0
   37.2650   26.3730   34.0750 H   0  0  0  0  0  0  0  0  0  0  0  0
   38.9050   25.7540   32.5490 H   0  0  0  0  0  0  0  0  0  0  0  0
   40.2520   28.4430   33.1080 H   0  0  0  0  0  0  0  0  0  0  0  0
   40.8120   27.1240   32.0720 H   0  0  0  0  0  0  0  0  0  0  0  0
   41.3180   27.6950   34.9310 H   0  0  0  0  0  0  0  0  0  0  0  0
   42.0800   26.5400   33.8300 H   0  0  0  0  0  0  0  0  0  0  0  0
   40.5390   24.8180   34.2360 H   0  0  0  0  0  0  0  0  0  0  0  0
   41.0830   25.4670   35.8030 H   0  0  0  0  0  0  0  0  0  0  0  0
   39.5930   26.9660   30.1000 Cl  0  0  0  0  0  0  0  0  0  0  0  0
   38.2540   27.8350   30.8280 C   0  0  0  0  0  0  0  0  0  0  0  0
   38.0350   27.6380   32.1760 C   0  0  0  0  0  0  0  0  0  0  0  0
   36.9490   28.3530   32.6520 C   0  0  0  0  0  0  0  0  0  0  0  0
   36.1780   29.1720   31.8620 C   0  0  0  0  0  0  0  0  0  0  0  0
   36.4730   29.3130   30.5110 C   0  0  0  0  0  0  0  0  0  0  0  0
   37.5520   28.6140   29.9840 C   0  0  0  0  0  0  0  0  0  0  0  0
   36.7060   28.2510   33.7010 H   0  0  0  0  0  0  0  0  0  0  0  0
   35.3400   29.7070   32.3030 H   0  0  0  0  0  0  0  0  0  0  0  0
   35.8430   29.9650   29.9320 H   0  0  0  0  0  0  0  0  0  0  0  0
   37.7870   28.8440   28.5410 C   0  0  0  0  0  2  0  0  0  0  0  0
   37.8410   30.3090   28.1780 C   0  0  0  0  0  2  0  0  0  0  0  0
   37.0280   30.8880   28.6640 H   0  0  0  0  0  0  0  0  0  0  0  0
   38.4940   24.5770   35.6380 C   0  0  0  0  0  0  0  0  0  0  0  0
   37.9800   24.4370   36.9260 C   0  0  0  0  0  0  0  0  0  0  0  0
   37.4170   23.2010   37.2730 C   0  0  0  0  0  0  0  0  0  0  0  0
   37.3980   22.1840   36.3290 N   0  0  0  0  0  0  0  0  0  0  0  0
   37.9080   22.3620   35.0920 C   0  0  0  0  0  0  0  0  0  0  0  0
   38.4380   23.5490   34.7870 N   0  0  0  0  0  0  0  0  0  0  0  0
   37.8650   25.0060   37.8300 H   0  0  0  0  0  0  0  0  0  0  0  0
   36.9680   22.8310   38.1640 H   0  0  0  0  0  0  0  0  0  0  0  0
   37.9360   21.6440   34.3130 H   0  0  0  0  0  0  0  0  0  0  0  0
  1 30  1  0  0  0  0
  1  7  1  1  0  0  0
  2  8  1  0  0  0  0
  2  1  1  0  0  0  0
  3 10  1  6  0  0  0
  3  4  1  0  0  0  0
  3  2  1  0  0  0  0
  4 11  1  0  0  0  0
  4  5  1  0  0  0  0
  5  6  1  0  0  0  0
  5 13  1  0  0  0  0
  6  1  1  0  0  0  0
  6 16  1  0  0  0  0
  9  2  1  0  0  0  0
 12  4  1  0  0  0  0
 14  5  1  0  0  0  0
 15  6  1  0  0  0  0
 17 18  1  0  0  0  0
 18 19  1  0  0  0  0
 19 20  2  0  0  0  0
 19  3  1  0  0  0  0
 20 24  1  0  0  0  0
 21 25  1  0  0  0  0
 21 20  1  0  0  0  0
 22 21  2  0  0  0  0
 23 22  1  0  0  0  0
 23 18  2  0  0  0  0
 26 22  1  0  0  0  0
 27 23  1  0  0  0  0
 28 27  1  0  0  0  0
 28 29  1  0  0  0  0
 30 31  1  0  0  0  0
 31 32  2  0  0  0  0
 31 36  1  0  0  0  0
 32 37  1  0  0  0  0
 33 32  1  0  0  0  0
 34 33  2  0  0  0  0
 35 34  1  0  0  0  0
 35 30  2  0  0  0  0
 38 34  1  0  0  0  0
M  END
>  <minimizedAffinity>
-5.32374096

$$$$

 OpenBabel03272506003D

 38 40  0  0  1  0  0  0  0  0999 V2000
   32.7370   30.4200   35.2690 C   0  0  2  0  0  0  0  0  0  0  0  0
   33.5700   29.9210   34.1510 C   0  0  0  0  0  0  0  0  0  0  0  0
   35.0720   29.9160   34.4820 C   0  0  2  0  0  0  0  0  0  0  0  0
   35.5860   31.2180   34.9030 C   0  0  0  0  0  0  0  0  0  0  0  0
   34.6340   31.9940   35.8030 C   0  0  0  0  0  0  0  0  0  0  0  0
   33.5320   31.1200   36.3460 C   0  0  0  0  0  0  0  0  0  0  0  0
   31.9990   31.1850   34.8990 H   0  0  0  0  0  0  0  0  0  0  0  0
   33.5040   30.6580   33.2890 H   0  0  0  0  0  0  0  0  0  0  0  0
   33.4260   28.9590   33.7210 H   0  0  0  0  0  0  0  0  0  0  0  0
   35.1980   29.1200   35.2150 H   0  0  0  0  0  0  0  0  0  0  0  0
   35.7660   31.8870   34.0400 H   0  0  0  0  0  0  0  0  0  0  0  0
   36.5750   31.0740   35.3850 H   0  0  0  0  0  0  0  0  0  0  0  0
   34.2550   32.9090   35.3400 H   0  0  0  0  0  0  0  0  0  0  0  0
   35.2270   32.3090   36.6890 H   0  0  0  0  0  0  0  0  0  0  0  0
   33.9480   30.3710   37.0220 H   0  0  0  0  0  0  0  0  0  0  0  0
   32.8420   31.7640   36.9120 H   0  0  0  0  0  0  0  0  0  0  0  0
   36.9270   27.6400   34.7220 Cl  0  0  0  0  0  0  0  0  0  0  0  0
   36.6280   28.4540   33.1970 C   0  0  0  0  0  0  0  0  0  0  0  0
   35.7180   29.4920   33.2060 C   0  0  0  0  0  0  0  0  0  0  0  0
   35.5400   30.0580   31.9560 C   0  0  0  0  0  0  0  0  0  0  0  0
   36.2020   29.6300   30.8300 C   0  0  0  0  0  0  0  0  0  0  0  0
   37.1050   28.5760   30.9130 C   0  0  0  0  0  0  0  0  0  0  0  0
   37.3180   27.9720   32.1460 C   0  0  0  0  0  0  0  0  0  0  0  0
   34.8380   30.8780   31.8750 H   0  0  0  0  0  0  0  0  0  0  0  0
   36.0150   30.1220   29.8790 H   0  0  0  0  0  0  0  0  0  0  0  0
   37.6000   28.2760   30.0080 H   0  0  0  0  0  0  0  0  0  0  0  0
   38.3060   26.8700   32.1290 C   0  0  0  0  0  2  0  0  0  0  0  0
   39.1300   26.8390   30.8640 C   0  0  0  0  0  2  0  0  0  0  0  0
   38.5070   26.9830   29.9570 H   0  0  0  0  0  0  0  0  0  0  0  0
   31.9530   29.3650   35.9210 C   0  0  0  0  0  0  0  0  0  0  0  0
   31.3290   28.4640   35.0580 C   0  0  0  0  0  0  0  0  0  0  0  0
   30.5780   27.4280   35.6290 C   0  0  0  0  0  0  0  0  0  0  0  0
   30.4890   27.3470   37.0120 N   0  0  0  0  0  0  0  0  0  0  0  0
   31.1080   28.2430   37.8100 C   0  0  0  0  0  0  0  0  0  0  0  0
   31.8180   29.2190   37.2410 N   0  0  0  0  0  0  0  0  0  0  0  0
   31.2130   28.2830   34.0060 H   0  0  0  0  0  0  0  0  0  0  0  0
   30.0130   26.6270   35.2160 H   0  0  0  0  0  0  0  0  0  0  0  0
   31.0920   28.2560   38.8700 H   0  0  0  0  0  0  0  0  0  0  0  0
  1  7  1  6  0  0  0
  1 30  1  0  0  0  0
  1  6  1  0  0  0  0
  2  3  1  0  0  0  0
  2  1  1  0  0  0  0
  3  4  1  0  0  0  0
  3 10  1  1  0  0  0
  4 12  1  0  0  0  0
  4  5  1  0  0  0  0
  5  6  1  0  0  0  0
  5 14  1  0  0  0  0
  6 16  1  0  0  0  0
  6 15  1  0  0  0  0
  8  2  1  0  0  0  0
  9  2  1  0  0  0  0
 11  4  1  0  0  0  0
 13  5  1  0  0  0  0
 18 19  1  0  0  0  0
 18 17  1  0  0  0  0
 19  3  1  0  0  0  0
 20 19  2  0  0  0  0
 21 22  2  0  0  0  0
 21 20  1  0  0  0  0
 22 23  1  0  0  0  0
 23 18  2  0  0  0  0
 24 20  1  0  0  0  0
 25 21  1  0  0  0  0
 26 22  1  0  0  0  0
 27 23  1  0  0  0  0
 28 27  1  0  0  0  0
 29 28  1  0  0  0  0
 30 35  1  0  0  0  0
 31 32  1  0  0  0  0
 31 30  2  0  0  0  0
 32 33  2  0  0  0  0
 33 34  1  0  0  0  0
 34 38  1  0  0  0  0
 35 34  2  0  0  0  0
 36 31  1  0  0  0  0
 37 32  1  0  0  0  0
M  END
>  <minimizedAffinity>
-5.26287079

$$$$
