
 OpenBabel03272504483D

 21 22  0  0  0  0  0  0  0  0999 V2000
   35.5910   20.5870   34.2340 C   0  0  0  0  0  0  0  0  0  0  0  0
   35.9710   20.8620   32.9230 C   0  0  0  0  0  0  0  0  0  0  0  0
   37.0860   21.6680   32.7260 C   0  0  0  0  0  0  0  0  0  0  0  0
   37.7410   22.1390   33.8270 N   0  0  0  0  0  0  0  0  0  0  0  0
   37.3490   21.8550   35.0810 C   0  0  0  0  0  0  0  0  0  0  0  0
   36.2690   21.0750   35.2870 N   0  0  0  0  0  0  0  0  0  0  0  0
   34.7140   19.9540   34.3740 H   0  0  0  0  0  0  0  0  0  0  0  0
   37.4190   21.9080   31.7260 H   0  0  0  0  0  0  0  0  0  0  0  0
   38.0830   22.3840   36.2250 C   0  0  0  0  0  0  0  0  0  0  0  0
   37.4360   23.1210   37.1830 C   0  0  0  0  0  0  0  0  0  0  0  0
   38.1040   23.6350   38.2750 C   0  0  0  0  0  0  0  0  0  0  0  0
   39.4540   23.3590   38.3410 C   0  0  0  0  0  0  0  0  0  0  0  0
   40.1450   22.6160   37.3900 C   0  0  0  0  0  0  0  0  0  0  0  0
   39.4100   22.1460   36.3420 N   0  0  0  0  0  0  0  0  0  0  0  0
   36.3770   23.3050   37.0800 H   0  0  0  0  0  0  0  0  0  0  0  0
   37.6370   24.2210   39.0570 H   0  0  0  0  0  0  0  0  0  0  0  0
   40.0960   23.7110   39.1600 H   0  0  0  0  0  0  0  0  0  0  0  0
   41.2010   22.4120   37.4570 H   0  0  0  0  0  0  0  0  0  0  0  0
   35.2660   20.3540   31.7360 C   0  0  0  0  0  2  0  0  0  0  0  0
   36.2180   19.8010   30.6940 C   0  0  0  0  0  2  0  0  0  0  0  0
   36.7830   20.6050   30.1810 H   0  0  0  0  0  0  0  0  0  0  0  0
  1  7  1  0  0  0  0
  1  6  1  0  0  0  0
  2  1  2  0  0  0  0
  3  2  1  0  0  0  0
  3  4  2  0  0  0  0
  4  5  1  0  0  0  0
  5  6  2  0  0  0  0
  5  9  1  0  0  0  0
  8  3  1  0  0  0  0
  9 14  2  0  0  0  0
  9 10  1  0  0  0  0
 10 11  2  0  0  0  0
 11 12  1  0  0  0  0
 11 16  1  0  0  0  0
 12 17  1  0  0  0  0
 13 18  1  0  0  0  0
 13 12  2  0  0  0  0
 14 13  1  0  0  0  0
 15 10  1  0  0  0  0
 19  2  1  0  0  0  0
 20 19  1  0  0  0  0
 21 20  1  0  0  0  0
M  END
>  <minimizedAffinity>
-4.34808779

$$$$

 OpenBabel03272504483D

 21 22  0  0  0  0  0  0  0  0999 V2000
   37.2900   25.9880   33.1210 C   0  0  0  0  0  0  0  0  0  0  0  0
   36.9590   27.2860   33.5030 C   0  0  0  0  0  0  0  0  0  0  0  0
   37.2160   27.6600   34.8170 C   0  0  0  0  0  0  0  0  0  0  0  0
   37.7760   26.7350   35.6510 N   0  0  0  0  0  0  0  0  0  0  0  0
   38.0830   25.4900   35.2500 C   0  0  0  0  0  0  0  0  0  0  0  0
   37.8400   25.1130   33.9790 N   0  0  0  0  0  0  0  0  0  0  0  0
   37.0830   25.7080   32.0870 H   0  0  0  0  0  0  0  0  0  0  0  0
   36.9770   28.6560   35.1600 H   0  0  0  0  0  0  0  0  0  0  0  0
   38.6810   24.5380   36.1810 C   0  0  0  0  0  0  0  0  0  0  0  0
   38.1320   24.3470   37.4230 C   0  0  0  0  0  0  0  0  0  0  0  0
   38.6760   23.4550   38.3240 C   0  0  0  0  0  0  0  0  0  0  0  0
   39.7960   22.7720   37.8970 C   0  0  0  0  0  0  0  0  0  0  0  0
   40.3800   22.9390   36.6460 C   0  0  0  0  0  0  0  0  0  0  0  0
   39.7810   23.8400   35.8170 N   0  0  0  0  0  0  0  0  0  0  0  0
   37.2540   24.9090   37.7030 H   0  0  0  0  0  0  0  0  0  0  0  0
   38.2780   23.2690   39.3140 H   0  0  0  0  0  0  0  0  0  0  0  0
   40.3190   22.0360   38.5210 H   0  0  0  0  0  0  0  0  0  0  0  0
   41.2570   22.3970   36.3300 H   0  0  0  0  0  0  0  0  0  0  0  0
   36.3560   28.2820   32.6050 C   0  0  0  0  0  2  0  0  0  0  0  0
   35.5700   29.3350   33.3600 C   0  0  0  0  0  2  0  0  0  0  0  0
   34.6210   28.9300   33.7670 H   0  0  0  0  0  0  0  0  0  0  0  0
  1  2  2  0  0  0  0
  1  6  1  0  0  0  0
  2  3  1  0  0  0  0
  3  8  1  0  0  0  0
  3  4  2  0  0  0  0
  5  4  1  0  0  0  0
  5  9  1  0  0  0  0
  6  5  2  0  0  0  0
  7  1  1  0  0  0  0
  9 10  1  0  0  0  0
 10 15  1  0  0  0  0
 10 11  2  0  0  0  0
 11 16  1  0  0  0  0
 12 11  1  0  0  0  0
 12 17  1  0  0  0  0
 13 12  2  0  0  0  0
 14  9  2  0  0  0  0
 14 13  1  0  0  0  0
 18 13  1  0  0  0  0
 19 20  1  0  0  0  0
 19  2  1  0  0  0  0
 20 21  1  0  0  0  0
M  END
>  <minimizedAffinity>
-4.31769133

$$$$

 OpenBabel03272504483D

 21 22  0  0  0  0  0  0  0  0999 V2000
   37.0100   27.6320   34.6480 C   0  0  0  0  0  0  0  0  0  0  0  0
   36.8230   27.2790   33.3140 C   0  0  0  0  0  0  0  0  0  0  0  0
   37.2140   26.0040   32.9200 C   0  0  0  0  0  0  0  0  0  0  0  0
   37.7550   25.1770   33.8620 N   0  0  0  0  0  0  0  0  0  0  0  0
   37.9210   25.5490   35.1430 C   0  0  0  0  0  0  0  0  0  0  0  0
   37.5480   26.7810   35.5400 N   0  0  0  0  0  0  0  0  0  0  0  0
   36.6990   28.6340   34.9440 H   0  0  0  0  0  0  0  0  0  0  0  0
   37.0890   25.6850   31.8950 H   0  0  0  0  0  0  0  0  0  0  0  0
   38.5050   24.6270   36.1120 C   0  0  0  0  0  0  0  0  0  0  0  0
   37.9770   24.5230   37.3730 C   0  0  0  0  0  0  0  0  0  0  0  0
   38.5080   23.6610   38.3100 C   0  0  0  0  0  0  0  0  0  0  0  0
   39.5940   22.9170   37.8990 C   0  0  0  0  0  0  0  0  0  0  0  0
   40.1570   22.9950   36.6300 C   0  0  0  0  0  0  0  0  0  0  0  0
   39.5730   23.8720   35.7650 N   0  0  0  0  0  0  0  0  0  0  0  0
   37.1250   25.1290   37.6400 H   0  0  0  0  0  0  0  0  0  0  0  0
   38.1250   23.5420   39.3160 H   0  0  0  0  0  0  0  0  0  0  0  0
   40.1050   22.1960   38.5510 H   0  0  0  0  0  0  0  0  0  0  0  0
   41.0080   22.4070   36.3260 H   0  0  0  0  0  0  0  0  0  0  0  0
   36.2400   28.1690   32.2990 C   0  0  0  0  0  2  0  0  0  0  0  0
   36.9910   28.1110   30.9840 C   0  0  0  0  0  2  0  0  0  0  0  0
   37.9790   28.6110   31.0500 H   0  0  0  0  0  0  0  0  0  0  0  0
  1  7  1  0  0  0  0
  1  6  1  0  0  0  0
  2  1  2  0  0  0  0
  3  2  1  0  0  0  0
  3  4  2  0  0  0  0
  4  5  1  0  0  0  0
  5  6  2  0  0  0  0
  5  9  1  0  0  0  0
  8  3  1  0  0  0  0
  9 10  1  0  0  0  0
 10 15  1  0  0  0  0
 10 11  2  0  0  0  0
 11 16  1  0  0  0  0
 12 11  1  0  0  0  0
 12 17  1  0  0  0  0
 13 12  2  0  0  0  0
 14  9  2  0  0  0  0
 14 13  1  0  0  0  0
 18 13  1  0  0  0  0
 19  2  1  0  0  0  0
 20 21  1  0  0  0  0
 20 19  1  0  0  0  0
M  END
>  <minimizedAffinity>
-4.22412014

$$$$

 OpenBabel03272504483D

 21 22  0  0  0  0  0  0  0  0999 V2000
   40.3450   23.8310   35.6400 C   0  0  0  0  0  0  0  0  0  0  0  0
   39.7940   23.2280   36.7690 C   0  0  0  0  0  0  0  0  0  0  0  0
   38.5010   23.5860   37.1300 C   0  0  0  0  0  0  0  0  0  0  0  0
   37.8490   24.5050   36.3580 N   0  0  0  0  0  0  0  0  0  0  0  0
   38.4090   25.0690   35.2740 C   0  0  0  0  0  0  0  0  0  0  0  0
   39.6620   24.7320   34.9120 N   0  0  0  0  0  0  0  0  0  0  0  0
   41.3600   23.5410   35.3680 H   0  0  0  0  0  0  0  0  0  0  0  0
   38.0320   23.1450   37.9980 H   0  0  0  0  0  0  0  0  0  0  0  0
   37.6700   26.0470   34.4830 C   0  0  0  0  0  0  0  0  0  0  0  0
   37.2570   27.2260   35.0480 C   0  0  0  0  0  0  0  0  0  0  0  0
   36.5560   28.1680   34.3240 C   0  0  0  0  0  0  0  0  0  0  0  0
   36.3010   27.8500   33.0060 C   0  0  0  0  0  0  0  0  0  0  0  0
   36.7030   26.6660   32.3980 C   0  0  0  0  0  0  0  0  0  0  0  0
   37.3900   25.7890   33.1840 N   0  0  0  0  0  0  0  0  0  0  0  0
   37.4850   27.4210   36.0850 H   0  0  0  0  0  0  0  0  0  0  0  0
   36.2100   29.1130   34.7260 H   0  0  0  0  0  0  0  0  0  0  0  0
   35.7530   28.5170   32.3270 H   0  0  0  0  0  0  0  0  0  0  0  0
   36.4930   26.4340   31.3670 H   0  0  0  0  0  0  0  0  0  0  0  0
   40.4960   22.2380   37.6000 C   0  0  0  0  0  2  0  0  0  0  0  0
   41.6020   21.5320   36.8430 C   0  0  0  0  0  2  0  0  0  0  0  0
   41.2020   20.8190   36.0940 H   0  0  0  0  0  0  0  0  0  0  0  0
  1  2  1  0  0  0  0
  2  3  2  0  0  0  0
  2 19  1  0  0  0  0
  3  8  1  0  0  0  0
  4  3  1  0  0  0  0
  5  4  2  0  0  0  0
  6  5  1  0  0  0  0
  6  1  2  0  0  0  0
  7  1  1  0  0  0  0
  9 10  1  0  0  0  0
  9  5  1  0  0  0  0
 10 15  1  0  0  0  0
 11 16  1  0  0  0  0
 11 10  2  0  0  0  0
 12 11  1  0  0  0  0
 13 12  2  0  0  0  0
 13 14  1  0  0  0  0
 14  9  2  0  0  0  0
 17 12  1  0  0  0  0
 18 13  1  0  0  0  0
 20 19  1  0  0  0  0
 21 20  1  0  0  0  0
M  END
>  <minimizedAffinity>
-4.1250248

$$$$

 OpenBabel03272504483D

 21 22  0  0  0  0  0  0  0  0999 V2000
   38.6150   23.6360   34.8090 C   0  0  0  0  0  0  0  0  0  0  0  0
   38.6420   23.9670   36.1620 C   0  0  0  0  0  0  0  0  0  0  0  0
   38.1230   25.2010   36.5380 C   0  0  0  0  0  0  0  0  0  0  0  0
   37.6190   26.0110   35.5610 N   0  0  0  0  0  0  0  0  0  0  0  0
   37.6080   25.6610   34.2640 C   0  0  0  0  0  0  0  0  0  0  0  0
   38.1070   24.4690   33.8840 N   0  0  0  0  0  0  0  0  0  0  0  0
   39.0250   22.6650   34.5280 H   0  0  0  0  0  0  0  0  0  0  0  0
   38.1220   25.5010   37.5760 H   0  0  0  0  0  0  0  0  0  0  0  0
   37.0570   26.5640   33.2580 C   0  0  0  0  0  0  0  0  0  0  0  0
   36.7800   27.8680   33.5770 C   0  0  0  0  0  0  0  0  0  0  0  0
   36.2580   28.7440   32.6470 C   0  0  0  0  0  0  0  0  0  0  0  0
   36.0380   28.2270   31.3870 C   0  0  0  0  0  0  0  0  0  0  0  0
   36.3070   26.9110   31.0270 C   0  0  0  0  0  0  0  0  0  0  0  0
   36.8200   26.1120   32.0050 N   0  0  0  0  0  0  0  0  0  0  0  0
   36.9730   28.2190   34.5790 H   0  0  0  0  0  0  0  0  0  0  0  0
   36.0240   29.7820   32.8500 H   0  0  0  0  0  0  0  0  0  0  0  0
   35.6270   28.8230   30.5610 H   0  0  0  0  0  0  0  0  0  0  0  0
   36.1270   26.5240   30.0380 H   0  0  0  0  0  0  0  0  0  0  0  0
   39.1840   23.0950   37.2140 C   0  0  0  0  0  2  0  0  0  0  0  0
   38.6500   23.4480   38.5870 C   0  0  0  0  0  2  0  0  0  0  0  0
   39.0780   24.3990   38.9660 H   0  0  0  0  0  0  0  0  0  0  0  0
  1  2  1  0  0  0  0
  2  3  2  0  0  0  0
  2 19  1  0  0  0  0
  3  8  1  0  0  0  0
  4  3  1  0  0  0  0
  5  4  2  0  0  0  0
  6  5  1  0  0  0  0
  6  1  2  0  0  0  0
  7  1  1  0  0  0  0
  9 10  1  0  0  0  0
  9  5  1  0  0  0  0
 10 15  1  0  0  0  0
 11 16  1  0  0  0  0
 11 10  2  0  0  0  0
 12 11  1  0  0  0  0
 13 12  2  0  0  0  0
 13 14  1  0  0  0  0
 14  9  2  0  0  0  0
 17 12  1  0  0  0  0
 18 13  1  0  0  0  0
 19 20  1  0  0  0  0
 20 21  1  0  0  0  0
M  END
>  <minimizedAffinity>
-4.05826855

$$$$

 OpenBabel03272504483D

 21 22  0  0  0  0  0  0  0  0999 V2000
   36.9170   22.6070   32.6840 C   0  0  0  0  0  0  0  0  0  0  0  0
   36.7880   23.8830   32.1410 C   0  0  0  0  0  0  0  0  0  0  0  0
   37.3410   24.9460   32.8450 C   0  0  0  0  0  0  0  0  0  0  0  0
   37.9770   24.6760   34.0230 N   0  0  0  0  0  0  0  0  0  0  0  0
   38.0850   23.4320   34.5190 C   0  0  0  0  0  0  0  0  0  0  0  0
   37.5530   22.3920   33.8480 N   0  0  0  0  0  0  0  0  0  0  0  0
   36.4780   21.7820   32.1210 H   0  0  0  0  0  0  0  0  0  0  0  0
   37.2670   25.9550   32.4630 H   0  0  0  0  0  0  0  0  0  0  0  0
   38.7750   23.1960   35.7830 C   0  0  0  0  0  0  0  0  0  0  0  0
   38.1850   23.5470   36.9700 C   0  0  0  0  0  0  0  0  0  0  0  0
   38.8130   23.3370   38.1800 C   0  0  0  0  0  0  0  0  0  0  0  0
   40.0620   22.7540   38.1190 C   0  0  0  0  0  0  0  0  0  0  0  0
   40.6920   22.3840   36.9350 C   0  0  0  0  0  0  0  0  0  0  0  0
   40.0020   22.6270   35.7840 N   0  0  0  0  0  0  0  0  0  0  0  0
   37.2050   24.0000   36.9580 H   0  0  0  0  0  0  0  0  0  0  0  0
   38.3880   23.5960   39.1420 H   0  0  0  0  0  0  0  0  0  0  0  0
   40.6620   22.5350   39.0120 H   0  0  0  0  0  0  0  0  0  0  0  0
   41.6690   21.9310   36.9060 H   0  0  0  0  0  0  0  0  0  0  0  0
   36.1030   24.1750   30.8730 C   0  0  0  0  0  2  0  0  0  0  0  0
   35.0810   25.2840   31.0120 C   0  0  0  0  0  2  0  0  0  0  0  0
   34.1850   24.9530   31.5760 H   0  0  0  0  0  0  0  0  0  0  0  0
  1  6  1  0  0  0  0
  2  1  2  0  0  0  0
  2  3  1  0  0  0  0
  3  4  2  0  0  0  0
  4  5  1  0  0  0  0
  5  9  1  0  0  0  0
  6  5  2  0  0  0  0
  7  1  1  0  0  0  0
  8  3  1  0  0  0  0
  9 14  2  0  0  0  0
  9 10  1  0  0  0  0
 10 11  2  0  0  0  0
 11 16  1  0  0  0  0
 12 11  1  0  0  0  0
 12 17  1  0  0  0  0
 13 12  2  0  0  0  0
 14 13  1  0  0  0  0
 15 10  1  0  0  0  0
 18 13  1  0  0  0  0
 19 20  1  0  0  0  0
 19  2  1  0  0  0  0
 20 21  1  0  0  0  0
M  END
>  <minimizedAffinity>
-4.05006123

$$$$

 OpenBabel03272504483D

 21 22  0  0  0  0  0  0  0  0999 V2000
   41.3080   22.7720   35.5840 C   0  0  0  0  0  0  0  0  0  0  0  0
   41.0510   22.1990   36.8270 C   0  0  0  0  0  0  0  0  0  0  0  0
   39.9690   22.6820   37.5530 C   0  0  0  0  0  0  0  0  0  0  0  0
   39.2240   23.6860   37.0050 N   0  0  0  0  0  0  0  0  0  0  0  0
   39.4990   24.2180   35.8020 C   0  0  0  0  0  0  0  0  0  0  0  0
   40.5450   23.7600   35.0870 N   0  0  0  0  0  0  0  0  0  0  0  0
   42.1600   22.3830   35.0250 H   0  0  0  0  0  0  0  0  0  0  0  0
   39.7310   22.2680   38.5230 H   0  0  0  0  0  0  0  0  0  0  0  0
   38.6710   25.2910   35.2600 C   0  0  0  0  0  0  0  0  0  0  0  0
   38.5740   26.4900   35.9180 C   0  0  0  0  0  0  0  0  0  0  0  0
   37.7990   27.5220   35.4300 C   0  0  0  0  0  0  0  0  0  0  0  0
   37.1360   27.2710   34.2470 C   0  0  0  0  0  0  0  0  0  0  0  0
   37.2090   26.0690   33.5520 C   0  0  0  0  0  0  0  0  0  0  0  0
   37.9960   25.1020   34.1030 N   0  0  0  0  0  0  0  0  0  0  0  0
   39.1170   26.6300   36.8400 H   0  0  0  0  0  0  0  0  0  0  0  0
   37.6930   28.4860   35.9130 H   0  0  0  0  0  0  0  0  0  0  0  0
   36.4890   28.0120   33.7580 H   0  0  0  0  0  0  0  0  0  0  0  0
   36.6820   25.8910   32.6290 H   0  0  0  0  0  0  0  0  0  0  0  0
   41.8530   21.1170   37.4180 C   0  0  0  0  0  2  0  0  0  0  0  0
   43.1120   20.8330   36.6230 C   0  0  0  0  0  2  0  0  0  0  0  0
   42.8900   20.3270   35.6620 H   0  0  0  0  0  0  0  0  0  0  0  0
  1  2  1  0  0  0  0
  2 19  1  0  0  0  0
  2  3  2  0  0  0  0
  3  8  1  0  0  0  0
  4  3  1  0  0  0  0
  5  4  2  0  0  0  0
  6  1  2  0  0  0  0
  6  5  1  0  0  0  0
  7  1  1  0  0  0  0
  9  5  1  0  0  0  0
  9 10  1  0  0  0  0
 10 15  1  0  0  0  0
 11 16  1  0  0  0  0
 11 10  2  0  0  0  0
 12 11  1  0  0  0  0
 13 14  1  0  0  0  0
 13 12  2  0  0  0  0
 14  9  2  0  0  0  0
 17 12  1  0  0  0  0
 18 13  1  0  0  0  0
 20 19  1  0  0  0  0
 21 20  1  0  0  0  0
M  END
>  <minimizedAffinity>
-4.03909779

$$$$

 OpenBabel03272504483D

 21 22  0  0  0  0  0  0  0  0999 V2000
   35.7930   25.8650   31.3300 C   0  0  0  0  0  0  0  0  0  0  0  0
   36.7680   26.3570   32.1940 C   0  0  0  0  0  0  0  0  0  0  0  0
   37.5460   25.4360   32.8860 C   0  0  0  0  0  0  0  0  0  0  0  0
   37.3070   24.1070   32.6760 N   0  0  0  0  0  0  0  0  0  0  0  0
   36.3580   23.6660   31.8340 C   0  0  0  0  0  0  0  0  0  0  0  0
   35.5960   24.5470   31.1570 N   0  0  0  0  0  0  0  0  0  0  0  0
   35.1900   26.5990   30.7940 H   0  0  0  0  0  0  0  0  0  0  0  0
   38.3150   25.7690   33.5680 H   0  0  0  0  0  0  0  0  0  0  0  0
   36.1430   22.2350   31.6450 C   0  0  0  0  0  0  0  0  0  0  0  0
   35.0690   21.6130   32.2280 C   0  0  0  0  0  0  0  0  0  0  0  0
   34.8400   20.2620   32.0680 C   0  0  0  0  0  0  0  0  0  0  0  0
   35.7550   19.5840   31.2880 C   0  0  0  0  0  0  0  0  0  0  0  0
   36.8550   20.1790   30.6810 C   0  0  0  0  0  0  0  0  0  0  0  0
   37.0070   21.5170   30.8910 N   0  0  0  0  0  0  0  0  0  0  0  0
   34.3850   22.1950   32.8280 H   0  0  0  0  0  0  0  0  0  0  0  0
   34.0070   19.7280   32.5070 H   0  0  0  0  0  0  0  0  0  0  0  0
   35.6820   18.5070   31.0860 H   0  0  0  0  0  0  0  0  0  0  0  0
   37.5600   19.6320   30.0770 H   0  0  0  0  0  0  0  0  0  0  0  0
   37.0250   27.7870   32.4200 C   0  0  0  0  0  2  0  0  0  0  0  0
   36.1930   28.3490   33.5550 C   0  0  0  0  0  2  0  0  0  0  0  0
   35.1240   28.4470   33.2760 H   0  0  0  0  0  0  0  0  0  0  0  0
  1  2  1  0  0  0  0
  2 19  1  0  0  0  0
  2  3  2  0  0  0  0
  3  8  1  0  0  0  0
  4  3  1  0  0  0  0
  5  4  2  0  0  0  0
  6  1  2  0  0  0  0
  6  5  1  0  0  0  0
  7  1  1  0  0  0  0
  9  5  1  0  0  0  0
  9 10  1  0  0  0  0
 10 15  1  0  0  0  0
 11 10  2  0  0  0  0
 11 16  1  0  0  0  0
 12 11  1  0  0  0  0
 13 14  1  0  0  0  0
 13 12  2  0  0  0  0
 14  9  2  0  0  0  0
 17 12  1  0  0  0  0
 18 13  1  0  0  0  0
 19 20  1  0  0  0  0
 21 20  1  0  0  0  0
M  END
>  <minimizedAffinity>
-4.02038765

$$$$

 OpenBabel03272504483D

 21 22  0  0  0  0  0  0  0  0999 V2000
   36.9120   22.5450   32.5710 C   0  0  0  0  0  0  0  0  0  0  0  0
   36.7720   23.8320   32.0590 C   0  0  0  0  0  0  0  0  0  0  0  0
   37.3560   24.8770   32.7650 C   0  0  0  0  0  0  0  0  0  0  0  0
   38.0300   24.5790   33.9150 N   0  0  0  0  0  0  0  0  0  0  0  0
   38.1460   23.3250   34.3820 C   0  0  0  0  0  0  0  0  0  0  0  0
   37.5850   22.3010   33.7090 N   0  0  0  0  0  0  0  0  0  0  0  0
   36.4480   21.7340   32.0080 H   0  0  0  0  0  0  0  0  0  0  0  0
   37.2750   25.8940   32.4070 H   0  0  0  0  0  0  0  0  0  0  0  0
   38.8770   23.0590   35.6170 C   0  0  0  0  0  0  0  0  0  0  0  0
   40.0630   22.3710   35.5850 C   0  0  0  0  0  0  0  0  0  0  0  0
   40.7750   22.1040   36.7360 C   0  0  0  0  0  0  0  0  0  0  0  0
   40.2230   22.5720   37.9100 C   0  0  0  0  0  0  0  0  0  0  0  0
   39.0240   23.2720   37.9820 C   0  0  0  0  0  0  0  0  0  0  0  0
   38.3830   23.4930   36.7990 N   0  0  0  0  0  0  0  0  0  0  0  0
   40.4490   22.0290   34.6360 H   0  0  0  0  0  0  0  0  0  0  0  0
   41.7150   21.5670   36.7610 H   0  0  0  0  0  0  0  0  0  0  0  0
   40.6930   22.4240   38.8910 H   0  0  0  0  0  0  0  0  0  0  0  0
   38.6060   23.6290   38.9090 H   0  0  0  0  0  0  0  0  0  0  0  0
   36.0470   24.1540   30.8210 C   0  0  0  0  0  2  0  0  0  0  0  0
   35.0420   25.2710   31.0170 C   0  0  0  0  0  2  0  0  0  0  0  0
   34.1630   24.9390   31.6050 H   0  0  0  0  0  0  0  0  0  0  0  0
  1  6  1  0  0  0  0
  2  1  2  0  0  0  0
  2  3  1  0  0  0  0
  3  4  2  0  0  0  0
  4  5  1  0  0  0  0
  5  9  1  0  0  0  0
  6  5  2  0  0  0  0
  7  1  1  0  0  0  0
  8  3  1  0  0  0  0
  9 14  1  0  0  0  0
 10  9  2  0  0  0  0
 10 11  1  0  0  0  0
 11 16  1  0  0  0  0
 11 12  2  0  0  0  0
 12 13  1  0  0  0  0
 12 17  1  0  0  0  0
 13 18  1  0  0  0  0
 14 13  2  0  0  0  0
 15 10  1  0  0  0  0
 19 20  1  0  0  0  0
 19  2  1  0  0  0  0
 20 21  1  0  0  0  0
M  END
>  <minimizedAffinity>
-3.95687103

$$$$
