
 OpenBabel03272508183D

 19 20  0  0  0  0  0  0  0  0999 V2000
   38.2210   24.7650   35.4720 C   0  0  0  0  0  0  0  0  0  0  0  0
   37.9230   23.7610   36.4220 C   0  0  0  0  0  0  0  0  0  0  0  0
   37.7780   22.5000   35.8680 C   0  0  0  0  0  0  0  0  0  0  0  0
   37.9180   22.2860   34.5340 N   0  0  0  0  0  0  0  0  0  0  0  0
   38.2030   23.2780   33.6660 C   0  0  0  0  0  0  0  0  0  0  0  0
   38.3540   24.5180   34.1380 N   0  0  0  0  0  0  0  0  0  0  0  0
   37.5480   21.6820   36.5410 H   0  0  0  0  0  0  0  0  0  0  0  0
   38.3030   23.0490   32.6280 H   0  0  0  0  0  0  0  0  0  0  0  0
   38.4700   26.1490   36.0360 C   0  0  0  0  0  0  0  0  0  0  0  0
   39.1000   27.1660   35.2430 C   0  0  0  0  0  0  0  0  0  0  0  0
   37.5980   27.1920   35.2980 C   0  0  0  0  0  0  0  0  0  0  0  0
   38.2930   26.2520   37.1320 H   0  0  0  0  0  0  0  0  0  0  0  0
   39.5820   26.8030   34.2850 H   0  0  0  0  0  0  0  0  0  0  0  0
   39.6310   28.0340   35.6550 H   0  0  0  0  0  0  0  0  0  0  0  0
   37.1250   27.9910   35.8630 H   0  0  0  0  0  0  0  0  0  0  0  0
   37.0950   26.8560   34.4040 H   0  0  0  0  0  0  0  0  0  0  0  0
   37.7830   24.0240   37.8530 C   0  0  0  0  0  2  0  0  0  0  0  0
   38.8290   23.4530   38.7440 C   0  0  0  0  0  2  0  0  0  0  0  0
   39.1660   24.2650   39.4520 H   0  0  0  0  0  0  0  0  0  0  0  0
  1  9  1  0  0  0  0
  1  2  1  0  0  0  0
  2 17  1  0  0  0  0
  3  2  2  0  0  0  0
  3  7  1  0  0  0  0
  4  3  1  0  0  0  0
  5  6  1  0  0  0  0
  5  4  2  0  0  0  0
  6  1  2  0  0  0  0
  8  5  1  0  0  0  0
  9 12  1  0  0  0  0
 10 11  1  0  0  0  0
 10 14  1  0  0  0  0
 10  9  1  0  0  0  0
 11 15  1  0  0  0  0
 11  9  1  0  0  0  0
 13 10  1  0  0  0  0
 16 11  1  0  0  0  0
 17 18  1  0  0  0  0
 18 19  1  0  0  0  0
M  END
>  <minimizedAffinity>
-3.7527988

$$$$

 OpenBabel03272508183D

 19 20  0  0  0  0  0  0  0  0999 V2000
   38.9770   24.8930   35.9310 C   0  0  0  0  0  0  0  0  0  0  0  0
   39.0730   26.2430   35.5240 C   0  0  0  0  0  0  0  0  0  0  0  0
   40.2180   26.5240   34.7970 C   0  0  0  0  0  0  0  0  0  0  0  0
   41.1400   25.5650   34.5210 N   0  0  0  0  0  0  0  0  0  0  0  0
   41.0050   24.2880   34.9320 C   0  0  0  0  0  0  0  0  0  0  0  0
   39.9220   23.9540   35.6380 N   0  0  0  0  0  0  0  0  0  0  0  0
   40.3550   27.5420   34.4540 H   0  0  0  0  0  0  0  0  0  0  0  0
   41.7620   23.5780   34.6830 H   0  0  0  0  0  0  0  0  0  0  0  0
   37.7040   24.5140   36.6580 C   0  0  0  0  0  0  0  0  0  0  0  0
   37.5440   23.2110   37.2380 C   0  0  0  0  0  0  0  0  0  0  0  0
   37.9890   24.3080   38.1650 C   0  0  0  0  0  0  0  0  0  0  0  0
   36.8650   25.2420   36.5540 H   0  0  0  0  0  0  0  0  0  0  0  0
   38.3180   22.4450   36.9260 H   0  0  0  0  0  0  0  0  0  0  0  0
   36.5760   22.7400   37.4490 H   0  0  0  0  0  0  0  0  0  0  0  0
   37.2750   24.6710   38.9000 H   0  0  0  0  0  0  0  0  0  0  0  0
   39.0270   24.2740   38.4600 H   0  0  0  0  0  0  0  0  0  0  0  0
   38.0590   27.2500   35.8350 C   0  0  0  0  0  2  0  0  0  0  0  0
   37.1270   27.6230   34.7360 C   0  0  0  0  0  2  0  0  0  0  0  0
   36.0760   27.6100   35.1500 H   0  0  0  0  0  0  0  0  0  0  0  0
  1  9  1  0  0  0  0
  2 17  1  0  0  0  0
  2  1  2  0  0  0  0
  3  2  1  0  0  0  0
  4  3  2  0  0  0  0
  4  5  1  0  0  0  0
  5  6  2  0  0  0  0
  6  1  1  0  0  0  0
  7  3  1  0  0  0  0
  8  5  1  0  0  0  0
  9 10  1  0  0  0  0
  9 11  1  0  0  0  0
 10 14  1  0  0  0  0
 10 11  1  0  0  0  0
 11 16  1  0  0  0  0
 11 15  1  0  0  0  0
 12  9  1  0  0  0  0
 13 10  1  0  0  0  0
 18 19  1  0  0  0  0
 18 17  1  0  0  0  0
M  END
>  <minimizedAffinity>
-3.62203407

$$$$

 OpenBabel03272508183D

 19 20  0  0  0  0  0  0  0  0999 V2000
   40.0770   22.3280   36.2600 C   0  0  0  0  0  0  0  0  0  0  0  0
   38.9500   22.9270   36.8700 C   0  0  0  0  0  0  0  0  0  0  0  0
   37.8850   23.1120   36.0050 C   0  0  0  0  0  0  0  0  0  0  0  0
   37.9510   22.7390   34.7000 N   0  0  0  0  0  0  0  0  0  0  0  0
   39.0500   22.1700   34.1630 C   0  0  0  0  0  0  0  0  0  0  0  0
   40.1120   21.9660   34.9460 N   0  0  0  0  0  0  0  0  0  0  0  0
   36.9880   23.5680   36.4080 H   0  0  0  0  0  0  0  0  0  0  0  0
   39.0430   21.8970   33.1320 H   0  0  0  0  0  0  0  0  0  0  0  0
   41.2400   22.0270   37.1810 C   0  0  0  0  0  0  0  0  0  0  0  0
   42.3970   21.3250   36.7040 C   0  0  0  0  0  0  0  0  0  0  0  0
   42.4910   22.8250   36.7400 C   0  0  0  0  0  0  0  0  0  0  0  0
   41.0540   22.2320   38.2610 H   0  0  0  0  0  0  0  0  0  0  0  0
   42.2800   20.8320   35.6910 H   0  0  0  0  0  0  0  0  0  0  0  0
   43.0910   20.7640   37.3440 H   0  0  0  0  0  0  0  0  0  0  0  0
   43.1330   23.2750   37.4940 H   0  0  0  0  0  0  0  0  0  0  0  0
   42.4370   23.3170   35.7810 H   0  0  0  0  0  0  0  0  0  0  0  0
   38.9100   23.3130   38.2800 C   0  0  0  0  0  2  0  0  0  0  0  0
   37.9810   24.4170   38.6450 C   0  0  0  0  0  2  0  0  0  0  0  0
   37.3950   24.0940   39.5540 H   0  0  0  0  0  0  0  0  0  0  0  0
  1  2  1  0  0  0  0
  1  9  1  0  0  0  0
  2 17  1  0  0  0  0
  3  7  1  0  0  0  0
  3  2  2  0  0  0  0
  4  3  1  0  0  0  0
  5  4  2  0  0  0  0
  5  6  1  0  0  0  0
  6  1  2  0  0  0  0
  8  5  1  0  0  0  0
  9 12  1  0  0  0  0
 10 11  1  0  0  0  0
 10  9  1  0  0  0  0
 10 14  1  0  0  0  0
 11  9  1  0  0  0  0
 11 15  1  0  0  0  0
 13 10  1  0  0  0  0
 16 11  1  0  0  0  0
 17 18  1  0  0  0  0
 18 19  1  0  0  0  0
M  END
>  <minimizedAffinity>
-3.52403426

$$$$

 OpenBabel03272508183D

 19 20  0  0  0  0  0  0  0  0999 V2000
   38.7460   24.9370   36.2120 C   0  0  0  0  0  0  0  0  0  0  0  0
   39.7850   24.6360   35.3010 C   0  0  0  0  0  0  0  0  0  0  0  0
   40.2660   25.7430   34.6230 C   0  0  0  0  0  0  0  0  0  0  0  0
   39.7630   26.9860   34.8390 N   0  0  0  0  0  0  0  0  0  0  0  0
   38.7700   27.2240   35.7200 C   0  0  0  0  0  0  0  0  0  0  0  0
   38.2630   26.1970   36.4050 N   0  0  0  0  0  0  0  0  0  0  0  0
   41.0630   25.5820   33.9080 H   0  0  0  0  0  0  0  0  0  0  0  0
   38.4170   28.2230   35.8480 H   0  0  0  0  0  0  0  0  0  0  0  0
   38.2410   23.7740   37.0410 C   0  0  0  0  0  0  0  0  0  0  0  0
   38.9920   23.2860   38.1620 C   0  0  0  0  0  0  0  0  0  0  0  0
   37.8810   24.2520   38.4680 C   0  0  0  0  0  0  0  0  0  0  0  0
   37.3610   23.2380   36.6160 H   0  0  0  0  0  0  0  0  0  0  0  0
   40.0540   23.6700   38.2360 H   0  0  0  0  0  0  0  0  0  0  0  0
   38.9020   22.2730   38.5750 H   0  0  0  0  0  0  0  0  0  0  0  0
   36.9900   23.8630   38.9550 H   0  0  0  0  0  0  0  0  0  0  0  0
   38.1940   25.2500   38.7370 H   0  0  0  0  0  0  0  0  0  0  0  0
   40.3060   23.2850   35.0960 C   0  0  0  0  0  2  0  0  0  0  0  0
   41.6980   23.0280   35.5570 C   0  0  0  0  0  2  0  0  0  0  0  0
   41.6980   22.0640   36.1450 H   0  0  0  0  0  0  0  0  0  0  0  0
  1  6  1  0  0  0  0
  1  9  1  0  0  0  0
  2  1  2  0  0  0  0
  3  4  2  0  0  0  0
  3  2  1  0  0  0  0
  4  5  1  0  0  0  0
  5  8  1  0  0  0  0
  5  6  2  0  0  0  0
  7  3  1  0  0  0  0
  9 10  1  0  0  0  0
  9 11  1  0  0  0  0
 10 13  1  0  0  0  0
 10 11  1  0  0  0  0
 10 14  1  0  0  0  0
 11 16  1  0  0  0  0
 11 15  1  0  0  0  0
 12  9  1  0  0  0  0
 17  2  1  0  0  0  0
 17 18  1  0  0  0  0
 18 19  1  0  0  0  0
M  END
>  <minimizedAffinity>
-3.50662804

$$$$

 OpenBabel03272508183D

 19 20  0  0  0  0  0  0  0  0999 V2000
   38.6690   24.7980   36.2130 C   0  0  0  0  0  0  0  0  0  0  0  0
   39.7080   23.8710   35.9690 C   0  0  0  0  0  0  0  0  0  0  0  0
   39.8830   22.9520   36.9900 C   0  0  0  0  0  0  0  0  0  0  0  0
   39.1090   22.9700   38.1060 N   0  0  0  0  0  0  0  0  0  0  0  0
   38.1280   23.8760   38.2940 C   0  0  0  0  0  0  0  0  0  0  0  0
   37.9100   24.7900   37.3450 N   0  0  0  0  0  0  0  0  0  0  0  0
   40.6640   22.2120   36.8670 H   0  0  0  0  0  0  0  0  0  0  0  0
   37.5510   23.8400   39.1910 H   0  0  0  0  0  0  0  0  0  0  0  0
   38.3820   25.7740   35.0910 C   0  0  0  0  0  0  0  0  0  0  0  0
   37.4850   26.8770   35.2840 C   0  0  0  0  0  0  0  0  0  0  0  0
   38.9510   27.1700   35.4370 C   0  0  0  0  0  0  0  0  0  0  0  0
   38.7710   25.4720   34.0900 H   0  0  0  0  0  0  0  0  0  0  0  0
   36.8590   26.8320   36.2270 H   0  0  0  0  0  0  0  0  0  0  0  0
   36.9530   27.3940   34.4750 H   0  0  0  0  0  0  0  0  0  0  0  0
   39.4350   27.7590   34.6620 H   0  0  0  0  0  0  0  0  0  0  0  0
   39.2920   27.3150   36.4510 H   0  0  0  0  0  0  0  0  0  0  0  0
   40.5210   23.8770   34.7530 C   0  0  0  0  0  2  0  0  0  0  0  0
   41.8760   24.4830   34.8570 C   0  0  0  0  0  2  0  0  0  0  0  0
   42.6130   23.7760   34.3740 H   0  0  0  0  0  0  0  0  0  0  0  0
  1  6  1  0  0  0  0
  2  1  2  0  0  0  0
  2  3  1  0  0  0  0
  3  4  2  0  0  0  0
  4  5  1  0  0  0  0
  5  8  1  0  0  0  0
  6  5  2  0  0  0  0
  7  3  1  0  0  0  0
  9 10  1  0  0  0  0
  9 11  1  0  0  0  0
  9  1  1  0  0  0  0
 10 11  1  0  0  0  0
 10 13  1  0  0  0  0
 11 16  1  0  0  0  0
 12  9  1  0  0  0  0
 14 10  1  0  0  0  0
 15 11  1  0  0  0  0
 17 18  1  0  0  0  0
 17  2  1  0  0  0  0
 19 18  1  0  0  0  0
M  END
>  <minimizedAffinity>
-3.40793991

$$$$

 OpenBabel03272508183D

 19 20  0  0  0  0  0  0  0  0999 V2000
   39.9390   25.9540   34.9710 C   0  0  0  0  0  0  0  0  0  0  0  0
   38.7000   26.2040   35.6060 C   0  0  0  0  0  0  0  0  0  0  0  0
   38.1670   25.0920   36.2360 C   0  0  0  0  0  0  0  0  0  0  0  0
   38.8030   23.8920   36.2250 N   0  0  0  0  0  0  0  0  0  0  0  0
   39.9850   23.7020   35.6050 C   0  0  0  0  0  0  0  0  0  0  0  0
   40.5520   24.7360   34.9780 N   0  0  0  0  0  0  0  0  0  0  0  0
   37.2170   25.2140   36.7420 H   0  0  0  0  0  0  0  0  0  0  0  0
   40.4380   22.7360   35.6330 H   0  0  0  0  0  0  0  0  0  0  0  0
   40.6070   27.1570   34.3370 C   0  0  0  0  0  0  0  0  0  0  0  0
   41.7930   27.0090   33.5430 C   0  0  0  0  0  0  0  0  0  0  0  0
   40.4900   27.0820   32.7960 C   0  0  0  0  0  0  0  0  0  0  0  0
   40.2170   28.1460   34.6730 H   0  0  0  0  0  0  0  0  0  0  0  0
   42.2990   25.9990   33.6140 H   0  0  0  0  0  0  0  0  0  0  0  0
   42.5210   27.8100   33.3590 H   0  0  0  0  0  0  0  0  0  0  0  0
   40.2800   27.9860   32.2300 H   0  0  0  0  0  0  0  0  0  0  0  0
   40.1390   26.1480   32.3820 H   0  0  0  0  0  0  0  0  0  0  0  0
   38.0450   27.5100   35.6010 C   0  0  0  0  0  2  0  0  0  0  0  0
   36.9140   27.6880   34.6500 C   0  0  0  0  0  2  0  0  0  0  0  0
   36.0570   28.1640   35.2110 H   0  0  0  0  0  0  0  0  0  0  0  0
  1  6  2  0  0  0  0
  1  2  1  0  0  0  0
  2  3  2  0  0  0  0
  3  7  1  0  0  0  0
  4  3  1  0  0  0  0
  5  8  1  0  0  0  0
  5  4  2  0  0  0  0
  6  5  1  0  0  0  0
  9 12  1  0  0  0  0
  9  1  1  0  0  0  0
 10 13  1  0  0  0  0
 10  9  1  0  0  0  0
 11 10  1  0  0  0  0
 11  9  1  0  0  0  0
 14 10  1  0  0  0  0
 15 11  1  0  0  0  0
 16 11  1  0  0  0  0
 17  2  1  0  0  0  0
 18 19  1  0  0  0  0
 18 17  1  0  0  0  0
M  END
>  <minimizedAffinity>
-3.38411045

$$$$

 OpenBabel03272508183D

 19 20  0  0  0  0  0  0  0  0999 V2000
   37.1450   27.6740   33.5150 C   0  0  0  0  0  0  0  0  0  0  0  0
   36.2270   28.7180   33.2570 C   0  0  0  0  0  0  0  0  0  0  0  0
   36.3050   29.2200   31.9690 C   0  0  0  0  0  0  0  0  0  0  0  0
   37.1930   28.7300   31.0650 N   0  0  0  0  0  0  0  0  0  0  0  0
   38.0510   27.7320   31.3580 C   0  0  0  0  0  0  0  0  0  0  0  0
   38.0250   27.2050   32.5850 N   0  0  0  0  0  0  0  0  0  0  0  0
   35.6290   30.0240   31.7050 H   0  0  0  0  0  0  0  0  0  0  0  0
   38.7240   27.3870   30.6050 H   0  0  0  0  0  0  0  0  0  0  0  0
   37.0450   27.0330   34.8840 C   0  0  0  0  0  0  0  0  0  0  0  0
   37.9830   26.0300   35.2990 C   0  0  0  0  0  0  0  0  0  0  0  0
   38.2590   27.4370   35.7530 C   0  0  0  0  0  0  0  0  0  0  0  0
   36.1120   27.2680   35.4480 H   0  0  0  0  0  0  0  0  0  0  0  0
   38.6370   25.6090   34.4760 H   0  0  0  0  0  0  0  0  0  0  0  0
   37.7880   25.2830   36.0790 H   0  0  0  0  0  0  0  0  0  0  0  0
   38.1120   27.6690   36.8050 H   0  0  0  0  0  0  0  0  0  0  0  0
   39.0710   27.9370   35.2470 H   0  0  0  0  0  0  0  0  0  0  0  0
   35.2810   29.2200   34.2530 C   0  0  0  0  0  2  0  0  0  0  0  0
   35.6140   30.5190   34.8980 C   0  0  0  0  0  2  0  0  0  0  0  0
   34.6890   31.1650   34.8790 H   0  0  0  0  0  0  0  0  0  0  0  0
  1  9  1  0  0  0  0
  2  1  1  0  0  0  0
  2 17  1  0  0  0  0
  3  2  2  0  0  0  0
  4  5  2  0  0  0  0
  4  3  1  0  0  0  0
  5  6  1  0  0  0  0
  6  1  2  0  0  0  0
  7  3  1  0  0  0  0
  8  5  1  0  0  0  0
  9 10  1  0  0  0  0
  9 12  1  0  0  0  0
  9 11  1  0  0  0  0
 10 11  1  0  0  0  0
 10 14  1  0  0  0  0
 11 15  1  0  0  0  0
 13 10  1  0  0  0  0
 16 11  1  0  0  0  0
 17 18  1  0  0  0  0
 19 18  1  0  0  0  0
M  END
>  <minimizedAffinity>
-3.36368752

$$$$

 OpenBabel03272508183D

 19 20  0  0  0  0  0  0  0  0999 V2000
   36.4490   21.9380   31.2600 C   0  0  0  0  0  0  0  0  0  0  0  0
   36.4140   23.3450   31.1270 C   0  0  0  0  0  0  0  0  0  0  0  0
   37.5540   23.8760   30.5480 C   0  0  0  0  0  0  0  0  0  0  0  0
   38.5890   23.0880   30.1570 N   0  0  0  0  0  0  0  0  0  0  0  0
   38.5770   21.7480   30.3050 C   0  0  0  0  0  0  0  0  0  0  0  0
   37.5050   21.1750   30.8570 N   0  0  0  0  0  0  0  0  0  0  0  0
   37.5920   24.9510   30.4160 H   0  0  0  0  0  0  0  0  0  0  0  0
   39.4190   21.1810   29.9760 H   0  0  0  0  0  0  0  0  0  0  0  0
   35.1930   21.2970   31.8120 C   0  0  0  0  0  0  0  0  0  0  0  0
   35.1240   19.8820   32.0390 C   0  0  0  0  0  0  0  0  0  0  0  0
   35.4560   20.7380   33.2300 C   0  0  0  0  0  0  0  0  0  0  0  0
   34.3010   21.9660   31.8560 H   0  0  0  0  0  0  0  0  0  0  0  0
   35.9640   19.2780   31.5790 H   0  0  0  0  0  0  0  0  0  0  0  0
   34.1920   19.3050   32.0820 H   0  0  0  0  0  0  0  0  0  0  0  0
   34.6970   20.8510   34.0000 H   0  0  0  0  0  0  0  0  0  0  0  0
   36.4860   20.7040   33.5530 H   0  0  0  0  0  0  0  0  0  0  0  0
   35.2800   24.1640   31.5550 C   0  0  0  0  0  2  0  0  0  0  0  0
   34.9730   25.3640   30.7300 C   0  0  0  0  0  2  0  0  0  0  0  0
   33.8610   25.3730   30.5300 H   0  0  0  0  0  0  0  0  0  0  0  0
  1  9  1  0  0  0  0
  2  1  1  0  0  0  0
  2 17  1  0  0  0  0
  3  2  2  0  0  0  0
  4  5  2  0  0  0  0
  4  3  1  0  0  0  0
  5  6  1  0  0  0  0
  6  1  2  0  0  0  0
  7  3  1  0  0  0  0
  8  5  1  0  0  0  0
  9 12  1  0  0  0  0
  9 10  1  0  0  0  0
  9 11  1  0  0  0  0
 10 14  1  0  0  0  0
 10 11  1  0  0  0  0
 11 16  1  0  0  0  0
 11 15  1  0  0  0  0
 13 10  1  0  0  0  0
 18 17  1  0  0  0  0
 19 18  1  0  0  0  0
M  END
>  <minimizedAffinity>
-3.35682821

$$$$

 OpenBabel03272508183D

 19 20  0  0  0  0  0  0  0  0999 V2000
   39.7260   24.5460   35.5900 C   0  0  0  0  0  0  0  0  0  0  0  0
   38.5620   25.0410   36.2230 C   0  0  0  0  0  0  0  0  0  0  0  0
   38.3620   26.3980   36.0310 C   0  0  0  0  0  0  0  0  0  0  0  0
   39.2230   27.1490   35.2960 N   0  0  0  0  0  0  0  0  0  0  0  0
   40.3210   26.6310   34.7110 C   0  0  0  0  0  0  0  0  0  0  0  0
   40.5700   25.3270   34.8590 N   0  0  0  0  0  0  0  0  0  0  0  0
   37.4880   26.8430   36.4900 H   0  0  0  0  0  0  0  0  0  0  0  0
   40.9600   27.2700   34.1430 H   0  0  0  0  0  0  0  0  0  0  0  0
   39.9480   23.0510   35.7000 C   0  0  0  0  0  0  0  0  0  0  0  0
   41.1940   22.4600   35.3050 C   0  0  0  0  0  0  0  0  0  0  0  0
   41.0220   22.7480   36.7710 C   0  0  0  0  0  0  0  0  0  0  0  0
   39.0360   22.4540   35.9350 H   0  0  0  0  0  0  0  0  0  0  0  0
   41.8860   23.1360   34.7170 H   0  0  0  0  0  0  0  0  0  0  0  0
   41.3180   21.4090   35.0130 H   0  0  0  0  0  0  0  0  0  0  0  0
   40.8870   21.9030   37.4410 H   0  0  0  0  0  0  0  0  0  0  0  0
   41.5820   23.5910   37.1470 H   0  0  0  0  0  0  0  0  0  0  0  0
   37.6540   24.2030   37.0050 C   0  0  0  0  0  2  0  0  0  0  0  0
   37.8820   24.1590   38.4750 C   0  0  0  0  0  2  0  0  0  0  0  0
   36.8860   24.3060   38.9870 H   0  0  0  0  0  0  0  0  0  0  0  0
  1  9  1  0  0  0  0
  1  2  1  0  0  0  0
  2 17  1  0  0  0  0
  3  2  2  0  0  0  0
  3  7  1  0  0  0  0
  4  3  1  0  0  0  0
  5  6  1  0  0  0  0
  5  4  2  0  0  0  0
  6  1  2  0  0  0  0
  8  5  1  0  0  0  0
  9 12  1  0  0  0  0
  9 11  1  0  0  0  0
 10  9  1  0  0  0  0
 10 11  1  0  0  0  0
 11 16  1  0  0  0  0
 11 15  1  0  0  0  0
 13 10  1  0  0  0  0
 14 10  1  0  0  0  0
 17 18  1  0  0  0  0
 18 19  1  0  0  0  0
M  END
>  <minimizedAffinity>
-3.35536361

$$$$
