
 OpenBabel03272508253D

 19 20  0  0  1  0  0  0  0  0999 V2000
   38.4740   25.7890   35.0930 C   0  0  1  0  0  0  0  0  0  0  0  0
   37.8700   27.0410   35.5340 C   0  0  1  0  0  0  0  0  0  0  0  0
   39.3470   27.0250   35.2460 C   0  0  0  0  0  0  0  0  0  0  0  0
   38.4550   25.3680   34.0670 H   0  0  0  0  0  0  0  0  0  0  0  0
   37.6450   27.0880   36.6410 H   0  0  0  0  0  0  0  0  0  0  0  0
   40.0680   27.0470   36.0760 H   0  0  0  0  0  0  0  0  0  0  0  0
   39.7190   27.4620   34.3000 H   0  0  0  0  0  0  0  0  0  0  0  0
   38.8250   24.7100   36.0910 C   0  0  0  0  0  0  0  0  0  0  0  0
   38.0310   24.6290   37.2500 C   0  0  0  0  0  0  0  0  0  0  0  0
   38.3850   23.6410   38.1520 C   0  0  0  0  0  0  0  0  0  0  0  0
   39.4330   22.8280   37.9020 N   0  0  0  0  0  0  0  0  0  0  0  0
   40.1820   22.9280   36.7750 C   0  0  0  0  0  0  0  0  0  0  0  0
   39.8660   23.8860   35.8610 N   0  0  0  0  0  0  0  0  0  0  0  0
   37.2020   25.2990   37.4120 H   0  0  0  0  0  0  0  0  0  0  0  0
   37.8160   23.5140   39.0780 H   0  0  0  0  0  0  0  0  0  0  0  0
   41.0170   22.2770   36.5790 H   0  0  0  0  0  0  0  0  0  0  0  0
   36.9230   27.8450   34.7050 C   0  0  0  0  0  2  0  0  0  0  0  0
   37.1100   27.4270   33.2410 C   0  0  0  0  0  2  0  0  0  0  0  0
   37.9830   26.7380   33.1320 H   0  0  0  0  0  0  0  0  0  0  0  0
  1  4  1  6  0  0  0
  1  3  1  0  0  0  0
  1  2  1  0  0  0  0
  1  8  1  0  0  0  0
  2  5  1  1  0  0  0
  3  2  1  0  0  0  0
  3  6  1  0  0  0  0
  7  3  1  0  0  0  0
  8  9  1  0  0  0  0
  9 14  1  0  0  0  0
  9 10  2  0  0  0  0
 10 15  1  0  0  0  0
 11 10  1  0  0  0  0
 12 11  2  0  0  0  0
 13  8  2  0  0  0  0
 13 12  1  0  0  0  0
 16 12  1  0  0  0  0
 17  2  1  0  0  0  0
 18 17  1  0  0  0  0
 19 18  1  0  0  0  0
M  END
>  <minimizedAffinity>
-3.82953548

$$$$

 OpenBabel03272508253D

 19 20  0  0  1  0  0  0  0  0999 V2000
   38.4030   25.8370   35.1280 C   0  0  1  0  0  0  0  0  0  0  0  0
   37.7550   27.0900   35.4960 C   0  0  1  0  0  0  0  0  0  0  0  0
   39.2480   27.0890   35.3050 C   0  0  0  0  0  0  0  0  0  0  0  0
   38.4560   25.3890   34.1140 H   0  0  0  0  0  0  0  0  0  0  0  0
   37.4580   27.1630   36.5840 H   0  0  0  0  0  0  0  0  0  0  0  0
   39.9130   27.1420   36.1780 H   0  0  0  0  0  0  0  0  0  0  0  0
   39.6760   27.5060   34.3740 H   0  0  0  0  0  0  0  0  0  0  0  0
   38.7020   24.7880   36.1750 C   0  0  0  0  0  0  0  0  0  0  0  0
   39.7050   23.8490   35.8720 C   0  0  0  0  0  0  0  0  0  0  0  0
   39.9460   22.8940   36.8430 C   0  0  0  0  0  0  0  0  0  0  0  0
   39.2400   22.8940   37.9950 N   0  0  0  0  0  0  0  0  0  0  0  0
   38.2770   23.8120   38.2610 C   0  0  0  0  0  0  0  0  0  0  0  0
   38.0110   24.7700   37.3320 N   0  0  0  0  0  0  0  0  0  0  0  0
   40.2450   23.8840   34.9400 H   0  0  0  0  0  0  0  0  0  0  0  0
   40.7100   22.1290   36.6830 H   0  0  0  0  0  0  0  0  0  0  0  0
   37.7170   23.8090   39.1810 H   0  0  0  0  0  0  0  0  0  0  0  0
   36.8550   27.8590   34.5860 C   0  0  0  0  0  2  0  0  0  0  0  0
   37.1470   27.4130   33.1480 C   0  0  0  0  0  2  0  0  0  0  0  0
   38.0370   26.7380   33.1150 H   0  0  0  0  0  0  0  0  0  0  0  0
  1  4  1  6  0  0  0
  1  3  1  0  0  0  0
  1  2  1  0  0  0  0
  1  8  1  0  0  0  0
  2  5  1  1  0  0  0
  3  2  1  0  0  0  0
  3  6  1  0  0  0  0
  7  3  1  0  0  0  0
  8 13  1  0  0  0  0
  9  8  2  0  0  0  0
  9 10  1  0  0  0  0
 10 11  2  0  0  0  0
 11 12  1  0  0  0  0
 12 16  1  0  0  0  0
 13 12  2  0  0  0  0
 14  9  1  0  0  0  0
 15 10  1  0  0  0  0
 17  2  1  0  0  0  0
 18 17  1  0  0  0  0
 19 18  1  0  0  0  0
M  END
>  <minimizedAffinity>
-3.78821874

$$$$

 OpenBabel03272508253D

 19 20  0  0  1  0  0  0  0  0999 V2000
   38.7220   24.0990   36.1040 C   0  0  1  0  0  0  0  0  0  0  0  0
   38.4060   23.8880   37.5120 C   0  0  1  0  0  0  0  0  0  0  0  0
   37.5930   23.1520   36.4810 C   0  0  0  0  0  0  0  0  0  0  0  0
   39.5430   23.6250   35.5290 H   0  0  0  0  0  0  0  0  0  0  0  0
   37.8300   24.7320   37.9960 H   0  0  0  0  0  0  0  0  0  0  0  0
   36.5620   23.4690   36.2680 H   0  0  0  0  0  0  0  0  0  0  0  0
   37.7930   22.0800   36.2970 H   0  0  0  0  0  0  0  0  0  0  0  0
   38.2230   25.3300   35.3810 C   0  0  0  0  0  0  0  0  0  0  0  0
   38.2740   26.5490   36.0810 C   0  0  0  0  0  0  0  0  0  0  0  0
   37.7990   27.6540   35.3990 C   0  0  0  0  0  0  0  0  0  0  0  0
   37.3200   27.5300   34.1430 N   0  0  0  0  0  0  0  0  0  0  0  0
   37.2830   26.3410   33.4900 C   0  0  0  0  0  0  0  0  0  0  0  0
   37.7430   25.2290   34.1260 N   0  0  0  0  0  0  0  0  0  0  0  0
   38.6640   26.6040   37.0860 H   0  0  0  0  0  0  0  0  0  0  0  0
   37.8050   28.6380   35.8760 H   0  0  0  0  0  0  0  0  0  0  0  0
   36.9010   26.2470   32.4870 H   0  0  0  0  0  0  0  0  0  0  0  0
   39.2980   23.1600   38.4640 C   0  0  0  0  0  2  0  0  0  0  0  0
   40.4410   22.5370   37.6530 C   0  0  0  0  0  2  0  0  0  0  0  0
   40.2620   22.6580   36.5570 H   0  0  0  0  0  0  0  0  0  0  0  0
  1  4  1  6  0  0  0
  1  3  1  0  0  0  0
  1  2  1  0  0  0  0
  2  5  1  1  0  0  0
  2 17  1  0  0  0  0
  3  2  1  0  0  0  0
  6  3  1  0  0  0  0
  7  3  1  0  0  0  0
  8  9  1  0  0  0  0
  8  1  1  0  0  0  0
  9 14  1  0  0  0  0
 10 15  1  0  0  0  0
 10  9  2  0  0  0  0
 11 10  1  0  0  0  0
 12 13  1  0  0  0  0
 12 11  2  0  0  0  0
 13  8  2  0  0  0  0
 16 12  1  0  0  0  0
 18 17  1  0  0  0  0
 19 18  1  0  0  0  0
M  END
>  <minimizedAffinity>
-3.58712459

$$$$

 OpenBabel03272508253D

 19 20  0  0  1  0  0  0  0  0999 V2000
   38.1330   26.5650   34.5080 C   0  0  1  0  0  0  0  0  0  0  0  0
   39.4550   27.1530   34.6880 C   0  0  1  0  0  0  0  0  0  0  0  0
   38.4790   27.2320   35.8310 C   0  0  0  0  0  0  0  0  0  0  0  0
   37.8660   25.4920   34.5940 H   0  0  0  0  0  0  0  0  0  0  0  0
   39.6000   28.1490   34.1730 H   0  0  0  0  0  0  0  0  0  0  0  0
   37.9900   28.1870   36.0690 H   0  0  0  0  0  0  0  0  0  0  0  0
   38.5940   26.5450   36.6910 H   0  0  0  0  0  0  0  0  0  0  0  0
   37.0560   27.3100   33.7530 C   0  0  0  0  0  0  0  0  0  0  0  0
   36.4080   28.3590   34.4310 C   0  0  0  0  0  0  0  0  0  0  0  0
   35.4180   29.0120   33.7200 C   0  0  0  0  0  0  0  0  0  0  0  0
   35.1180   28.6360   32.4580 N   0  0  0  0  0  0  0  0  0  0  0  0
   35.7600   27.6190   31.8280 C   0  0  0  0  0  0  0  0  0  0  0  0
   36.7420   26.9520   32.4930 N   0  0  0  0  0  0  0  0  0  0  0  0
   36.6770   28.6270   35.4400 H   0  0  0  0  0  0  0  0  0  0  0  0
   34.8680   29.8390   34.1770 H   0  0  0  0  0  0  0  0  0  0  0  0
   35.5180   27.3230   30.8200 H   0  0  0  0  0  0  0  0  0  0  0  0
   40.7130   26.3550   34.7930 C   0  0  0  0  0  2  0  0  0  0  0  0
   41.7670   27.0180   33.8980 C   0  0  0  0  0  2  0  0  0  0  0  0
   41.3130   27.8390   33.2910 H   0  0  0  0  0  0  0  0  0  0  0  0
  1  4  1  6  0  0  0
  1  2  1  0  0  0  0
  1  3  1  0  0  0  0
  2  5  1  6  0  0  0
  2 17  1  0  0  0  0
  2  3  1  0  0  0  0
  3  6  1  0  0  0  0
  3  7  1  0  0  0  0
  8  9  1  0  0  0  0
  8  1  1  0  0  0  0
  9 14  1  0  0  0  0
 10 15  1  0  0  0  0
 10  9  2  0  0  0  0
 11 10  1  0  0  0  0
 12 11  2  0  0  0  0
 12 13  1  0  0  0  0
 13  8  2  0  0  0  0
 16 12  1  0  0  0  0
 18 17  1  0  0  0  0
 19 18  1  0  0  0  0
M  END
>  <minimizedAffinity>
-3.56832933

$$$$

 OpenBabel03272508253D

 19 20  0  0  1  0  0  0  0  0999 V2000
   37.7490   26.8430   33.1610 C   0  0  1  0  0  0  0  0  0  0  0  0
   39.0710   26.4410   33.6280 C   0  0  1  0  0  0  0  0  0  0  0  0
   38.9790   27.2670   32.3730 C   0  0  0  0  0  0  0  0  0  0  0  0
   37.1380   27.6870   33.5430 H   0  0  0  0  0  0  0  0  0  0  0  0
   39.3350   25.3630   33.4170 H   0  0  0  0  0  0  0  0  0  0  0  0
   39.1500   26.7980   31.3940 H   0  0  0  0  0  0  0  0  0  0  0  0
   39.2190   28.3460   32.4150 H   0  0  0  0  0  0  0  0  0  0  0  0
   36.8780   25.8760   32.3920 C   0  0  0  0  0  0  0  0  0  0  0  0
   37.1790   24.5070   32.5150 C   0  0  0  0  0  0  0  0  0  0  0  0
   36.3750   23.6480   31.7890 C   0  0  0  0  0  0  0  0  0  0  0  0
   35.3750   24.1310   31.0190 N   0  0  0  0  0  0  0  0  0  0  0  0
   35.1070   25.4570   30.9190 C   0  0  0  0  0  0  0  0  0  0  0  0
   35.8740   26.3360   31.6190 N   0  0  0  0  0  0  0  0  0  0  0  0
   37.9870   24.1630   33.1400 H   0  0  0  0  0  0  0  0  0  0  0  0
   36.5450   22.5690   31.8310 H   0  0  0  0  0  0  0  0  0  0  0  0
   34.3080   25.8380   30.3050 H   0  0  0  0  0  0  0  0  0  0  0  0
   39.7130   26.9750   34.8650 C   0  0  0  0  0  2  0  0  0  0  0  0
   38.6070   27.2360   35.8940 C   0  0  0  0  0  2  0  0  0  0  0  0
   37.5970   27.0970   35.4360 H   0  0  0  0  0  0  0  0  0  0  0  0
  1  4  1  1  0  0  0
  1  2  1  0  0  0  0
  2  5  1  6  0  0  0
  2 17  1  0  0  0  0
  3  7  1  0  0  0  0
  3  1  1  0  0  0  0
  3  2  1  0  0  0  0
  6  3  1  0  0  0  0
  8  9  1  0  0  0  0
  8  1  1  0  0  0  0
  9 14  1  0  0  0  0
 10 15  1  0  0  0  0
 10  9  2  0  0  0  0
 11 10  1  0  0  0  0
 12 11  2  0  0  0  0
 12 13  1  0  0  0  0
 13  8  2  0  0  0  0
 16 12  1  0  0  0  0
 17 18  1  0  0  0  0
 19 18  1  0  0  0  0
M  END
>  <minimizedAffinity>
-3.49657989

$$$$

 OpenBabel03272508253D

 19 20  0  0  1  0  0  0  0  0999 V2000
   36.5260   22.4920   32.2160 C   0  0  1  0  0  0  0  0  0  0  0  0
   35.4830   21.5590   31.8030 C   0  0  1  0  0  0  0  0  0  0  0  0
   36.7840   21.5570   31.0450 C   0  0  0  0  0  0  0  0  0  0  0  0
   37.2300   22.3670   33.0640 H   0  0  0  0  0  0  0  0  0  0  0  0
   34.6410   22.0290   31.2140 H   0  0  0  0  0  0  0  0  0  0  0  0
   36.8320   21.9940   30.0380 H   0  0  0  0  0  0  0  0  0  0  0  0
   37.5200   20.7530   31.2350 H   0  0  0  0  0  0  0  0  0  0  0  0
   36.4720   23.9420   31.7940 C   0  0  0  0  0  0  0  0  0  0  0  0
   35.2340   24.4290   31.3350 C   0  0  0  0  0  0  0  0  0  0  0  0
   35.2190   25.7550   30.9420 C   0  0  0  0  0  0  0  0  0  0  0  0
   36.3430   26.5020   31.0060 N   0  0  0  0  0  0  0  0  0  0  0  0
   37.5240   26.0060   31.4530 C   0  0  0  0  0  0  0  0  0  0  0  0
   37.5800   24.7060   31.8510 N   0  0  0  0  0  0  0  0  0  0  0  0
   34.3600   23.7990   31.2990 H   0  0  0  0  0  0  0  0  0  0  0  0
   34.2950   26.2080   30.5730 H   0  0  0  0  0  0  0  0  0  0  0  0
   38.4180   26.6050   31.5030 H   0  0  0  0  0  0  0  0  0  0  0  0
   35.0530   20.3810   32.6130 C   0  0  0  0  0  2  0  0  0  0  0  0
   35.6010   20.5620   34.0340 C   0  0  0  0  0  2  0  0  0  0  0  0
   36.2900   21.4410   34.0850 H   0  0  0  0  0  0  0  0  0  0  0  0
  1  4  1  1  0  0  0
  2  5  1  6  0  0  0
  2  1  1  0  0  0  0
  2 17  1  0  0  0  0
  3  7  1  0  0  0  0
  3  2  1  0  0  0  0
  3  1  1  0  0  0  0
  6  3  1  0  0  0  0
  8 13  1  0  0  0  0
  8  1  1  0  0  0  0
  9  8  2  0  0  0  0
 10 11  2  0  0  0  0
 10  9  1  0  0  0  0
 11 12  1  0  0  0  0
 12 16  1  0  0  0  0
 12 13  2  0  0  0  0
 14  9  1  0  0  0  0
 15 10  1  0  0  0  0
 17 18  1  0  0  0  0
 18 19  1  0  0  0  0
M  END
>  <minimizedAffinity>
-3.46987414

$$$$

 OpenBabel03272508253D

 19 20  0  0  1  0  0  0  0  0999 V2000
   36.2780   22.2790   32.1640 C   0  0  1  0  0  0  0  0  0  0  0  0
   35.3890   21.3460   31.4810 C   0  0  1  0  0  0  0  0  0  0  0  0
   36.7970   21.4910   30.9720 C   0  0  0  0  0  0  0  0  0  0  0  0
   36.8320   22.0980   33.1080 H   0  0  0  0  0  0  0  0  0  0  0  0
   34.6300   21.8350   30.8000 H   0  0  0  0  0  0  0  0  0  0  0  0
   36.9890   22.0380   30.0380 H   0  0  0  0  0  0  0  0  0  0  0  0
   37.5430   20.7090   31.2100 H   0  0  0  0  0  0  0  0  0  0  0  0
   36.1990   23.7630   31.8830 C   0  0  0  0  0  0  0  0  0  0  0  0
   37.1850   24.5780   32.4710 C   0  0  0  0  0  0  0  0  0  0  0  0
   37.0790   25.9320   32.2080 C   0  0  0  0  0  0  0  0  0  0  0  0
   36.0770   26.4030   31.4340 N   0  0  0  0  0  0  0  0  0  0  0  0
   35.1400   25.5940   30.8800 C   0  0  0  0  0  0  0  0  0  0  0  0
   35.2100   24.2550   31.1130 N   0  0  0  0  0  0  0  0  0  0  0  0
   37.9680   24.1610   33.0830 H   0  0  0  0  0  0  0  0  0  0  0  0
   37.8070   26.6310   32.6280 H   0  0  0  0  0  0  0  0  0  0  0  0
   34.3430   25.9740   30.2630 H   0  0  0  0  0  0  0  0  0  0  0  0
   34.9060   20.0680   32.0820 C   0  0  0  0  0  2  0  0  0  0  0  0
   35.4820   19.9670   33.4990 C   0  0  0  0  0  2  0  0  0  0  0  0
   36.2180   20.7870   33.6880 H   0  0  0  0  0  0  0  0  0  0  0  0
  1  4  1  1  0  0  0
  2  5  1  6  0  0  0
  2 17  1  0  0  0  0
  2  1  1  0  0  0  0
  3  7  1  0  0  0  0
  3  2  1  0  0  0  0
  3  1  1  0  0  0  0
  6  3  1  0  0  0  0
  8  1  1  0  0  0  0
  8  9  1  0  0  0  0
  9 14  1  0  0  0  0
 10  9  2  0  0  0  0
 10 15  1  0  0  0  0
 11 10  1  0  0  0  0
 12 13  1  0  0  0  0
 12 11  2  0  0  0  0
 13  8  2  0  0  0  0
 16 12  1  0  0  0  0
 17 18  1  0  0  0  0
 18 19  1  0  0  0  0
M  END
>  <minimizedAffinity>
-3.45620537

$$$$

 OpenBabel03272508253D

 19 20  0  0  1  0  0  0  0  0999 V2000
   37.4090   26.6950   35.1630 C   0  0  1  0  0  0  0  0  0  0  0  0
   38.7000   26.0180   35.1470 C   0  0  1  0  0  0  0  0  0  0  0  0
   38.5590   27.2630   35.9790 C   0  0  0  0  0  0  0  0  0  0  0  0
   36.5190   26.4130   35.7620 H   0  0  0  0  0  0  0  0  0  0  0  0
   39.3080   26.1900   34.2100 H   0  0  0  0  0  0  0  0  0  0  0  0
   39.0150   28.2040   35.6400 H   0  0  0  0  0  0  0  0  0  0  0  0
   38.4510   27.1730   37.0770 H   0  0  0  0  0  0  0  0  0  0  0  0
   37.0030   27.6060   34.0270 C   0  0  0  0  0  0  0  0  0  0  0  0
   37.6460   27.4120   32.7910 C   0  0  0  0  0  0  0  0  0  0  0  0
   37.2660   28.2690   31.7740 C   0  0  0  0  0  0  0  0  0  0  0  0
   36.3340   29.2220   31.9950 N   0  0  0  0  0  0  0  0  0  0  0  0
   35.7300   29.3870   33.1980 C   0  0  0  0  0  0  0  0  0  0  0  0
   36.0750   28.5620   34.2240 N   0  0  0  0  0  0  0  0  0  0  0  0
   38.3860   26.6380   32.6570 H   0  0  0  0  0  0  0  0  0  0  0  0
   37.7200   28.1820   30.7840 H   0  0  0  0  0  0  0  0  0  0  0  0
   34.9860   30.1490   33.3690 H   0  0  0  0  0  0  0  0  0  0  0  0
   38.9480   24.6860   35.7750 C   0  0  0  0  0  2  0  0  0  0  0  0
   37.9940   24.5430   36.9660 C   0  0  0  0  0  2  0  0  0  0  0  0
   37.4520   25.5010   37.1580 H   0  0  0  0  0  0  0  0  0  0  0  0
  1  4  1  1  0  0  0
  1  3  1  0  0  0  0
  2  5  1  6  0  0  0
  2  1  1  0  0  0  0
  2 17  1  0  0  0  0
  2  3  1  0  0  0  0
  3  7  1  0  0  0  0
  6  3  1  0  0  0  0
  8 13  1  0  0  0  0
  8  1  1  0  0  0  0
  9  8  2  0  0  0  0
 10 11  2  0  0  0  0
 10  9  1  0  0  0  0
 11 12  1  0  0  0  0
 12 16  1  0  0  0  0
 12 13  2  0  0  0  0
 14  9  1  0  0  0  0
 15 10  1  0  0  0  0
 17 18  1  0  0  0  0
 18 19  1  0  0  0  0
M  END
>  <minimizedAffinity>
-3.44104004

$$$$

 OpenBabel03272508253D

 19 20  0  0  1  0  0  0  0  0999 V2000
   35.8560   29.2170   34.1770 C   0  0  1  0  0  0  0  0  0  0  0  0
   35.5250   30.5950   34.5230 C   0  0  1  0  0  0  0  0  0  0  0  0
   34.4050   29.5940   34.4290 C   0  0  0  0  0  0  0  0  0  0  0  0
   36.2500   28.4370   34.8610 H   0  0  0  0  0  0  0  0  0  0  0  0
   35.5380   31.3130   33.6510 H   0  0  0  0  0  0  0  0  0  0  0  0
   33.7220   29.6160   33.5680 H   0  0  0  0  0  0  0  0  0  0  0  0
   33.9640   29.1860   35.3570 H   0  0  0  0  0  0  0  0  0  0  0  0
   36.1080   28.8230   32.7390 C   0  0  0  0  0  0  0  0  0  0  0  0
   36.3070   29.8660   31.8160 C   0  0  0  0  0  0  0  0  0  0  0  0
   36.5200   29.4770   30.5070 C   0  0  0  0  0  0  0  0  0  0  0  0
   36.5270   28.1680   30.1730 N   0  0  0  0  0  0  0  0  0  0  0  0
   36.3310   27.1820   31.0850 C   0  0  0  0  0  0  0  0  0  0  0  0
   36.1200   27.5240   32.3850 N   0  0  0  0  0  0  0  0  0  0  0  0
   36.2940   30.9000   32.1240 H   0  0  0  0  0  0  0  0  0  0  0  0
   36.6830   30.2290   29.7300 H   0  0  0  0  0  0  0  0  0  0  0  0
   36.3380   26.1390   30.8150 H   0  0  0  0  0  0  0  0  0  0  0  0
   35.8890   31.2360   35.8210 C   0  0  0  0  0  2  0  0  0  0  0  0
   36.2970   32.6850   35.5320 C   0  0  0  0  0  2  0  0  0  0  0  0
   36.3550   32.8690   34.4310 H   0  0  0  0  0  0  0  0  0  0  0  0
  1  3  1  0  0  0  0
  1  2  1  0  0  0  0
  1  4  1  1  0  0  0
  2  5  1  6  0  0  0
  2 17  1  0  0  0  0
  3  2  1  0  0  0  0
  3  7  1  0  0  0  0
  6  3  1  0  0  0  0
  8  1  1  0  0  0  0
  9 14  1  0  0  0  0
  9  8  2  0  0  0  0
 10  9  1  0  0  0  0
 11 10  2  0  0  0  0
 11 12  1  0  0  0  0
 12 13  2  0  0  0  0
 13  8  1  0  0  0  0
 15 10  1  0  0  0  0
 16 12  1  0  0  0  0
 18 17  1  0  0  0  0
 19 18  1  0  0  0  0
M  END
>  <minimizedAffinity>
-3.38692188

$$$$
