
 OpenBabel03272510333D

 22 23  0  0  0  0  0  0  0  0999 V2000
   36.4390   30.3900   48.8020 C   0  0  0  0  0  0  0  0  0  0  0  0
   35.5090   29.9920   47.8690 C   0  0  0  0  0  0  0  0  0  0  0  0
   34.4840   29.1270   48.2080 C   0  0  0  0  0  0  0  0  0  0  0  0
   34.4220   28.6730   49.5130 C   0  0  0  0  0  0  0  0  0  0  0  0
   35.3460   29.0600   50.4560 C   0  0  0  0  0  0  0  0  0  0  0  0
   36.3780   29.9310   50.1160 C   0  0  0  0  0  0  0  0  0  0  0  0
   35.5070   30.3140   46.8320 H   0  0  0  0  0  0  0  0  0  0  0  0
   33.7350   28.7920   47.5090 H   0  0  0  0  0  0  0  0  0  0  0  0
   33.6610   27.9900   49.8930 H   0  0  0  0  0  0  0  0  0  0  0  0
   35.3410   28.7340   51.4900 H   0  0  0  0  0  0  0  0  0  0  0  0
   38.5830   33.3290   48.6860 C   0  0  0  0  0  0  0  0  0  0  0  0
   39.4360   33.1030   47.5920 C   0  0  0  0  0  0  0  0  0  0  0  0
   39.2530   31.8930   46.8840 C   0  0  0  0  0  0  0  0  0  0  0  0
   38.2850   31.0450   47.2960 N   0  0  0  0  0  0  0  0  0  0  0  0
   37.4830   31.3020   48.3560 C   0  0  0  0  0  0  0  0  0  0  0  0
   37.6440   32.4470   49.0410 N   0  0  0  0  0  0  0  0  0  0  0  0
   38.6570   34.2390   49.2880 H   0  0  0  0  0  0  0  0  0  0  0  0
   40.1790   33.8160   47.3230 H   0  0  0  0  0  0  0  0  0  0  0  0
   39.8870   31.6770   46.0360 H   0  0  0  0  0  0  0  0  0  0  0  0
   37.3810   30.3590   51.1220 C   0  0  0  0  0  2  0  0  0  0  0  0
   37.4180   29.5030   52.3440 C   0  0  0  0  0  2  0  0  0  0  0  0
   36.5590   28.7780   52.3430 H   0  0  0  0  0  0  0  0  0  0  0  0
  1  6  1  0  0  0  0
  2  3  1  0  0  0  0
  2  1  2  0  0  0  0
  3  4  2  0  0  0  0
  4  9  1  0  0  0  0
  4  5  1  0  0  0  0
  5 10  1  0  0  0  0
  6  5  2  0  0  0  0
  6 20  1  0  0  0  0
  7  2  1  0  0  0  0
  8  3  1  0  0  0  0
 11 16  1  0  0  0  0
 11 17  1  0  0  0  0
 12 11  2  0  0  0  0
 13 14  2  0  0  0  0
 13 12  1  0  0  0  0
 14 15  1  0  0  0  0
 15  1  1  0  0  0  0
 15 16  2  0  0  0  0
 18 12  1  0  0  0  0
 19 13  1  0  0  0  0
 20 21  1  0  0  0  0
 22 21  1  0  0  0  0
M  END
>  <minimizedAffinity>
-5.36056948

>  <minimizedRMSD>
0.861810505

$$$$
