
 OpenBabel03272509333D

 35 38  0  0  1  0  0  0  0  0999 V2000
   36.9590   31.3620   47.4000 C   0  0  1  0  0  0  0  0  0  0  0  0
   38.0990   32.0480   48.0290 C   0  0  0  0  0  0  0  0  0  0  0  0
   38.4190   30.8960   47.1440 C   0  0  2  0  0  0  0  0  0  0  0  0
   36.5000   31.7760   46.5120 H   0  0  0  0  0  0  0  0  0  0  0  0
   38.1200   33.1030   47.8250 H   0  0  0  0  0  0  0  0  0  0  0  0
   38.2030   31.8050   49.1420 H   0  0  0  0  0  0  0  0  0  0  0  0
   38.4800   29.8300   47.2770 H   0  0  0  0  0  0  0  0  0  0  0  0
   39.1140   31.3600   45.9150 C   0  0  0  0  0  0  0  0  0  0  0  0
   39.6180   32.6520   46.0970 C   0  0  0  0  0  0  0  0  0  0  0  0
   40.3810   33.2630   45.1220 C   0  0  0  0  0  0  0  0  0  0  0  0
   40.6680   32.6050   43.9300 C   0  0  0  0  0  0  0  0  0  0  0  0
   40.1620   31.3350   43.7740 C   0  0  0  0  0  0  0  0  0  0  0  0
   40.3590   30.5750   42.6410 C   0  0  0  0  0  0  0  0  0  0  0  0
   39.8490   29.3030   42.4650 C   0  0  0  0  0  0  0  0  0  0  0  0
   39.0890   28.7460   43.4850 C   0  0  0  0  0  0  0  0  0  0  0  0
   38.8840   29.4930   44.6210 C   0  0  0  0  0  0  0  0  0  0  0  0
   39.4120   30.7550   44.7520 C   0  0  0  0  0  0  0  0  0  0  0  0
   39.6070   33.4020   46.8620 H   0  0  0  0  0  0  0  0  0  0  0  0
   40.8380   34.2400   45.1030 H   0  0  0  0  0  0  0  0  0  0  0  0
   41.2440   32.9350   43.0690 H   0  0  0  0  0  0  0  0  0  0  0  0
   40.9470   30.9770   41.8250 H   0  0  0  0  0  0  0  0  0  0  0  0
   40.0320   28.7440   41.5530 H   0  0  0  0  0  0  0  0  0  0  0  0
   38.6570   27.7580   43.4210 H   0  0  0  0  0  0  0  0  0  0  0  0
   38.2760   29.0280   45.4180 H   0  0  0  0  0  0  0  0  0  0  0  0
   34.4280   28.7520   48.3850 C   0  0  0  0  0  0  0  0  0  0  0  0
   35.1790   29.6650   47.5910 C   0  0  0  0  0  0  0  0  0  0  0  0
   36.1730   30.3990   48.1970 C   0  0  0  0  0  0  0  0  0  0  0  0
   36.3720   30.1920   49.5450 N   0  0  0  0  0  0  0  0  0  0  0  0
   35.6560   29.3290   50.2720 C   0  0  0  0  0  0  0  0  0  0  0  0
   34.6740   28.5950   49.7090 N   0  0  0  0  0  0  0  0  0  0  0  0
   33.6500   28.1690   47.9410 H   0  0  0  0  0  0  0  0  0  0  0  0
   34.9320   29.7450   46.5300 H   0  0  0  0  0  0  0  0  0  0  0  0
   35.9910   29.2120   51.7370 C   0  0  0  0  0  0  0  0  0  0  0  0
   37.3360   29.9210   51.9420 C   0  0  0  0  0  0  0  0  0  0  0  0
   37.5640   29.8610   53.0120 H   0  0  0  0  0  0  0  0  0  0  0  0
  1  4  1  6  0  0  0
  1  2  1  0  0  0  0
  1 27  1  0  0  0  0
  2  6  1  0  0  0  0
  3  7  1  1  0  0  0
  3  1  1  0  0  0  0
  3  2  1  0  0  0  0
  5  2  1  0  0  0  0
  8  9  1  0  0  0  0
  8  3  1  0  0  0  0
  9 18  1  0  0  0  0
 10  9  2  0  0  0  0
 11 10  1  0  0  0  0
 12 11  2  0  0  0  0
 12 17  1  0  0  0  0
 13 12  1  0  0  0  0
 14 13  2  0  0  0  0
 14 15  1  0  0  0  0
 15 16  2  0  0  0  0
 16 17  1  0  0  0  0
 16 24  1  0  0  0  0
 17  8  2  0  0  0  0
 19 10  1  0  0  0  0
 20 11  1  0  0  0  0
 21 13  1  0  0  0  0
 22 14  1  0  0  0  0
 23 15  1  0  0  0  0
 25 30  1  0  0  0  0
 26 27  1  0  0  0  0
 26 25  2  0  0  0  0
 27 28  2  0  0  0  0
 28 29  1  0  0  0  0
 29 33  1  0  0  0  0
 30 29  2  0  0  0  0
 31 25  1  0  0  0  0
 32 26  1  0  0  0  0
 33 34  1  0  0  0  0
 34 35  1  0  0  0  0
M  END
>  <minimizedAffinity>
-5.9569521

>  <minimizedRMSD>
1.51448548

$$$$
