
 OpenBabel03272510193D

 30 32  0  0  0  0  0  0  0  0999 V2000
   37.2470   29.3980   51.0660 Br  0  0  0  0  0  0  0  0  0  0  0  0
   35.9420   29.3270   49.6720 C   0  0  0  0  0  0  0  0  0  0  0  0
   35.9980   30.2160   48.5920 C   0  0  0  0  0  0  0  0  0  0  0  0
   35.0280   30.1040   47.6320 C   0  0  0  0  0  0  0  0  0  0  0  0
   34.0170   29.1750   47.6750 C   0  0  0  0  0  0  0  0  0  0  0  0
   33.9790   28.3130   48.7390 C   0  0  0  0  0  0  0  0  0  0  0  0
   34.9420   28.4000   49.7230 C   0  0  0  0  0  0  0  0  0  0  0  0
   35.0060   30.7610   46.7630 H   0  0  0  0  0  0  0  0  0  0  0  0
   33.1900   27.5680   48.7970 H   0  0  0  0  0  0  0  0  0  0  0  0
   34.8620   27.6890   50.5460 H   0  0  0  0  0  0  0  0  0  0  0  0
   37.9770   33.1620   49.4210 C   0  0  0  0  0  0  0  0  0  0  0  0
   39.0100   33.1560   48.4490 C   0  0  0  0  0  0  0  0  0  0  0  0
   39.0050   32.1230   47.5110 C   0  0  0  0  0  0  0  0  0  0  0  0
   38.0140   31.1690   47.5720 N   0  0  0  0  0  0  0  0  0  0  0  0
   37.0530   31.2130   48.5110 C   0  0  0  0  0  0  0  0  0  0  0  0
   37.0370   32.2190   49.4410 N   0  0  0  0  0  0  0  0  0  0  0  0
   37.9300   33.9420   50.1750 H   0  0  0  0  0  0  0  0  0  0  0  0
   39.7590   33.9210   48.4430 H   0  0  0  0  0  0  0  0  0  0  0  0
   39.7590   32.0580   46.7460 H   0  0  0  0  0  0  0  0  0  0  0  0
   32.9840   29.0580   46.6490 C   0  0  0  0  0  0  0  0  0  0  0  0
   32.5480   27.8780   46.0980 C   0  0  0  0  0  0  0  0  0  0  0  0
   31.5650   27.8160   45.1280 C   0  0  0  0  0  0  0  0  0  0  0  0
   31.0070   28.9420   44.6980 N   0  0  0  0  0  0  0  0  0  0  0  0
   31.4170   30.1190   45.2230 C   0  0  0  0  0  0  0  0  0  0  0  0
   32.3720   30.1540   46.1640 N   0  0  0  0  0  0  0  0  0  0  0  0
   33.0090   26.9510   46.4540 H   0  0  0  0  0  0  0  0  0  0  0  0
   31.2470   26.8610   44.7160 H   0  0  0  0  0  0  0  0  0  0  0  0
   30.8210   31.4070   44.7740 C   0  0  0  0  0  2  0  0  0  0  0  0
   31.7700   32.5770   45.0060 C   0  0  0  0  0  2  0  0  0  0  0  0
   31.1690   33.5040   44.9260 H   0  0  0  0  0  0  0  0  0  0  0  0
  2  7  1  0  0  0  0
  2  1  1  0  0  0  0
  3  2  2  0  0  0  0
  4  5  2  0  0  0  0
  4  3  1  0  0  0  0
  5  6  1  0  0  0  0
  6  9  1  0  0  0  0
  6  7  2  0  0  0  0
  7 10  1  0  0  0  0
  8  4  1  0  0  0  0
 11 16  1  0  0  0  0
 11 17  1  0  0  0  0
 12 11  2  0  0  0  0
 13 14  2  0  0  0  0
 13 12  1  0  0  0  0
 14 15  1  0  0  0  0
 15  3  1  0  0  0  0
 15 16  2  0  0  0  0
 18 12  1  0  0  0  0
 19 13  1  0  0  0  0
 20  5  1  0  0  0  0
 21 26  1  0  0  0  0
 21 20  2  0  0  0  0
 22 21  1  0  0  0  0
 23 22  2  0  0  0  0
 23 24  1  0  0  0  0
 24 25  2  0  0  0  0
 25 20  1  0  0  0  0
 27 22  1  0  0  0  0
 28 29  1  0  0  0  0
 28 24  1  0  0  0  0
 30 29  1  0  0  0  0
M  END
>  <minimizedAffinity>
-5.86130428

>  <minimizedRMSD>
0.214126661

$$$$
