
 OpenBabel03272510193D

 30 32  0  0  0  0  0  0  0  0999 V2000
   37.2780   29.3450   51.0160 Br  0  0  0  0  0  0  0  0  0  0  0  0
   35.9300   29.3250   49.6620 C   0  0  0  0  0  0  0  0  0  0  0  0
   35.9640   30.2410   48.6020 C   0  0  0  0  0  0  0  0  0  0  0  0
   34.9640   30.1640   47.6710 C   0  0  0  0  0  0  0  0  0  0  0  0
   33.9430   29.2470   47.7220 C   0  0  0  0  0  0  0  0  0  0  0  0
   33.9270   28.3590   48.7650 C   0  0  0  0  0  0  0  0  0  0  0  0
   34.9200   28.4100   49.7210 C   0  0  0  0  0  0  0  0  0  0  0  0
   34.9240   30.8430   46.8200 H   0  0  0  0  0  0  0  0  0  0  0  0
   33.1300   27.6230   48.8290 H   0  0  0  0  0  0  0  0  0  0  0  0
   34.8560   27.6790   50.5280 H   0  0  0  0  0  0  0  0  0  0  0  0
   37.9820   33.1640   49.4180 C   0  0  0  0  0  0  0  0  0  0  0  0
   39.0060   33.1480   48.4370 C   0  0  0  0  0  0  0  0  0  0  0  0
   38.9820   32.1160   47.4990 C   0  0  0  0  0  0  0  0  0  0  0  0
   37.9820   31.1730   47.5660 N   0  0  0  0  0  0  0  0  0  0  0  0
   37.0290   31.2260   48.5140 C   0  0  0  0  0  0  0  0  0  0  0  0
   37.0320   32.2310   49.4460 N   0  0  0  0  0  0  0  0  0  0  0  0
   37.9490   33.9440   50.1730 H   0  0  0  0  0  0  0  0  0  0  0  0
   39.7630   33.9050   48.4260 H   0  0  0  0  0  0  0  0  0  0  0  0
   39.7290   32.0450   46.7270 H   0  0  0  0  0  0  0  0  0  0  0  0
   32.8780   29.1680   46.7260 C   0  0  0  0  0  0  0  0  0  0  0  0
   32.2580   28.0110   46.3220 C   0  0  0  0  0  0  0  0  0  0  0  0
   31.2510   27.9850   45.3740 C   0  0  0  0  0  0  0  0  0  0  0  0
   30.8550   29.1250   44.8190 N   0  0  0  0  0  0  0  0  0  0  0  0
   31.4490   30.2800   45.1970 C   0  0  0  0  0  0  0  0  0  0  0  0
   32.4230   30.2790   46.1190 N   0  0  0  0  0  0  0  0  0  0  0  0
   32.5860   27.0730   46.7810 H   0  0  0  0  0  0  0  0  0  0  0  0
   30.7850   27.0480   45.0820 H   0  0  0  0  0  0  0  0  0  0  0  0
   31.0390   31.5810   44.6030 C   0  0  0  0  0  2  0  0  0  0  0  0
   31.8340   32.7440   45.1890 C   0  0  0  0  0  2  0  0  0  0  0  0
   31.2910   33.6730   44.9290 H   0  0  0  0  0  0  0  0  0  0  0  0
  2  7  1  0  0  0  0
  2  1  1  0  0  0  0
  3  2  2  0  0  0  0
  4  5  2  0  0  0  0
  4  3  1  0  0  0  0
  5  6  1  0  0  0  0
  6  9  1  0  0  0  0
  6  7  2  0  0  0  0
  7 10  1  0  0  0  0
  8  4  1  0  0  0  0
 11 16  1  0  0  0  0
 11 17  1  0  0  0  0
 12 11  2  0  0  0  0
 13 14  2  0  0  0  0
 13 12  1  0  0  0  0
 14 15  1  0  0  0  0
 15  3  1  0  0  0  0
 15 16  2  0  0  0  0
 18 12  1  0  0  0  0
 19 13  1  0  0  0  0
 20  5  1  0  0  0  0
 21 20  1  0  0  0  0
 21 26  1  0  0  0  0
 22 21  2  0  0  0  0
 23 24  2  0  0  0  0
 23 22  1  0  0  0  0
 24 25  1  0  0  0  0
 25 20  2  0  0  0  0
 27 22  1  0  0  0  0
 28 29  1  0  0  0  0
 28 24  1  0  0  0  0
 30 29  1  0  0  0  0
M  END
>  <minimizedAffinity>
-5.81132507

>  <minimizedRMSD>
0.0528464243

$$$$
