
 OpenBabel03262521593D

 30 31  0  0  1  0  0  0  0  0999 V2000
   35.8390   29.9370   48.6590 N   0  0  0  0  0  0  0  0  0  0  0  0
   36.5970   28.9790   49.4120 C   0  0  0  0  0  0  0  0  0  0  0  0
   37.0480   29.3560   50.7590 C   0  0  0  0  0  0  0  0  0  0  0  0
   37.1690   30.8010   51.0880 C   0  0  0  0  0  0  0  0  0  0  0  0
   36.4520   31.7290   50.1510 C   0  0  0  0  0  0  0  0  0  0  0  0
   36.4960   31.1820   48.7220 C   0  0  1  0  0  0  0  0  0  0  0  0
   35.8980   28.0880   49.5050 H   0  0  0  0  0  0  0  0  0  0  0  0
   37.4240   28.4990   48.8050 H   0  0  0  0  0  0  0  0  0  0  0  0
   38.0900   28.9360   50.9110 H   0  0  0  0  0  0  0  0  0  0  0  0
   36.4830   28.7870   51.5590 H   0  0  0  0  0  0  0  0  0  0  0  0
   38.2000   31.1370   51.3740 H   0  0  0  0  0  0  0  0  0  0  0  0
   36.6250   30.9750   52.0580 H   0  0  0  0  0  0  0  0  0  0  0  0
   35.4260   31.9930   50.4450 H   0  0  0  0  0  0  0  0  0  0  0  0
   37.0160   32.6880   50.1310 H   0  0  0  0  0  0  0  0  0  0  0  0
   35.8230   31.9020   48.1760 H   0  0  0  0  0  0  0  0  0  0  0  0
   34.6130   29.6400   47.9680 C   0  0  0  0  0  0  0  0  0  0  0  0
   34.1390   30.3590   46.8720 C   0  0  0  0  0  0  0  0  0  0  0  0
   32.9460   29.9700   46.2960 C   0  0  0  0  0  0  0  0  0  0  0  0
   32.2980   28.8930   46.8410 N   0  0  0  0  0  0  0  0  0  0  0  0
   32.7750   28.2310   47.8860 C   0  0  0  0  0  0  0  0  0  0  0  0
   33.9310   28.5980   48.4530 N   0  0  0  0  0  0  0  0  0  0  0  0
   34.7330   31.1790   46.5360 H   0  0  0  0  0  0  0  0  0  0  0  0
   32.5830   30.5310   45.4460 H   0  0  0  0  0  0  0  0  0  0  0  0
   31.9730   27.0790   48.3830 C   0  0  0  0  0  0  0  0  0  0  0  0
   30.6730   27.5650   49.0230 C   0  0  0  0  0  0  0  0  0  0  0  0
   30.5080   27.0260   49.9690 H   0  0  0  0  0  0  0  0  0  0  0  0
   37.9110   31.2250   48.2470 C   0  0  0  0  0  0  0  0  0  0  0  0
   37.9880   32.2890   47.3350 F   0  0  0  0  0  0  0  0  0  0  0  0
   38.1860   30.1220   47.4780 F   0  0  0  0  0  0  0  0  0  0  0  0
   38.8520   31.4810   49.1840 F   0  0  0  0  0  0  0  0  0  0  0  0
  1  6  1  0  0  0  0
  1  2  1  0  0  0  0
  2  7  1  0  0  0  0
  2  3  1  0  0  0  0
  3  9  1  0  0  0  0
  3  4  1  0  0  0  0
  3 10  1  0  0  0  0
  4 11  1  0  0  0  0
  4 12  1  0  0  0  0
  5 13  1  0  0  0  0
  5  4  1  0  0  0  0
  6 15  1  6  0  0  0
  6  5  1  0  0  0  0
  8  2  1  0  0  0  0
 14  5  1  0  0  0  0
 16 21  1  0  0  0  0
 16  1  1  0  0  0  0
 17 16  2  0  0  0  0
 18 19  2  0  0  0  0
 18 17  1  0  0  0  0
 19 20  1  0  0  0  0
 20 24  1  0  0  0  0
 20 21  2  0  0  0  0
 22 17  1  0  0  0  0
 23 18  1  0  0  0  0
 24 25  1  0  0  0  0
 25 26  1  0  0  0  0
 27  6  1  0  0  0  0
 27 30  1  0  0  0  0
 28 27  1  0  0  0  0
 29 27  1  0  0  0  0
M  END
>  <minimizedAffinity>
-5.2984643

>  <minimizedRMSD>
0.413822532

$$$$
