
 OpenBabel03272505583D

 38 40  0  0  1  0  0  0  0  0999 V2000
   35.3050   30.3460   50.0370 C   0  0  2  0  0  0  0  0  0  0  0  0
   36.2220   31.3270   49.4130 C   0  0  0  0  0  0  0  0  0  0  0  0
   37.6920   30.8780   49.4520 C   0  0  2  0  0  0  0  0  0  0  0  0
   38.1790   30.5730   50.7970 C   0  0  0  0  0  0  0  0  0  0  0  0
   37.1620   29.8510   51.6700 C   0  0  0  0  0  0  0  0  0  0  0  0
   36.0160   29.2980   50.8620 C   0  0  0  0  0  0  0  0  0  0  0  0
   34.6040   30.8610   50.7500 H   0  0  0  0  0  0  0  0  0  0  0  0
   36.2290   32.2730   50.0430 H   0  0  0  0  0  0  0  0  0  0  0  0
   36.1070   31.6510   48.4070 H   0  0  0  0  0  0  0  0  0  0  0  0
   37.7550   30.0490   48.7490 H   0  0  0  0  0  0  0  0  0  0  0  0
   38.4310   31.4930   51.3600 H   0  0  0  0  0  0  0  0  0  0  0  0
   39.1250   30.0000   50.7140 H   0  0  0  0  0  0  0  0  0  0  0  0
   36.8260   30.4470   52.5230 H   0  0  0  0  0  0  0  0  0  0  0  0
   37.6850   28.9630   52.0890 H   0  0  0  0  0  0  0  0  0  0  0  0
   36.3720   28.5080   50.1990 H   0  0  0  0  0  0  0  0  0  0  0  0
   35.2860   28.8690   51.5650 H   0  0  0  0  0  0  0  0  0  0  0  0
   38.3770   30.6410   46.5970 Cl  0  0  0  0  0  0  0  0  0  0  0  0
   38.8360   32.0320   47.5620 C   0  0  0  0  0  0  0  0  0  0  0  0
   38.4350   32.0400   48.8830 C   0  0  0  0  0  0  0  0  0  0  0  0
   38.8320   33.1830   49.5550 C   0  0  0  0  0  0  0  0  0  0  0  0
   39.5480   34.1970   48.9660 C   0  0  0  0  0  0  0  0  0  0  0  0
   39.9110   34.1050   47.6270 C   0  0  0  0  0  0  0  0  0  0  0  0
   39.5350   32.9770   46.9070 C   0  0  0  0  0  0  0  0  0  0  0  0
   38.5550   33.2710   50.5970 H   0  0  0  0  0  0  0  0  0  0  0  0
   39.8280   35.0680   49.5540 H   0  0  0  0  0  0  0  0  0  0  0  0
   40.4710   34.9210   47.2080 H   0  0  0  0  0  0  0  0  0  0  0  0
   39.9810   32.9710   45.4960 C   0  0  0  0  0  0  0  0  0  0  0  0
   41.1820   32.0860   45.2610 C   0  0  0  0  0  0  0  0  0  0  0  0
   41.9580   32.2210   46.0440 H   0  0  0  0  0  0  0  0  0  0  0  0
   34.4650   29.6390   49.0640 C   0  0  0  0  0  0  0  0  0  0  0  0
   34.4340   30.1950   47.7850 C   0  0  0  0  0  0  0  0  0  0  0  0
   33.6580   29.5520   46.8120 C   0  0  0  0  0  0  0  0  0  0  0  0
   32.9610   28.4030   47.1620 N   0  0  0  0  0  0  0  0  0  0  0  0
   33.0180   27.8990   48.4130 C   0  0  0  0  0  0  0  0  0  0  0  0
   33.7660   28.5310   49.3200 N   0  0  0  0  0  0  0  0  0  0  0  0
   34.8360   31.0320   47.2450 H   0  0  0  0  0  0  0  0  0  0  0  0
   33.4600   29.7570   45.7870 H   0  0  0  0  0  0  0  0  0  0  0  0
   32.5200   27.0320   48.7650 H   0  0  0  0  0  0  0  0  0  0  0  0
  1  7  1  1  0  0  0
  1  6  1  0  0  0  0
  2  3  1  0  0  0  0
  2  1  1  0  0  0  0
  2  8  1  0  0  0  0
  3 10  1  6  0  0  0
  3  4  1  0  0  0  0
  4 11  1  0  0  0  0
  4  5  1  0  0  0  0
  5 14  1  0  0  0  0
  5 13  1  0  0  0  0
  6 16  1  0  0  0  0
  6  5  1  0  0  0  0
  9  2  1  0  0  0  0
 12  4  1  0  0  0  0
 15  6  1  0  0  0  0
 17 18  1  0  0  0  0
 18 19  1  0  0  0  0
 19  3  1  0  0  0  0
 19 20  2  0  0  0  0
 20 24  1  0  0  0  0
 21 25  1  0  0  0  0
 21 20  1  0  0  0  0
 22 21  2  0  0  0  0
 23 18  2  0  0  0  0
 23 22  1  0  0  0  0
 26 22  1  0  0  0  0
 27 23  1  0  0  0  0
 28 27  1  0  0  0  0
 28 29  1  0  0  0  0
 30 35  1  0  0  0  0
 30  1  1  0  0  0  0
 31 30  2  0  0  0  0
 32 33  2  0  0  0  0
 32 31  1  0  0  0  0
 33 34  1  0  0  0  0
 34 38  1  0  0  0  0
 34 35  2  0  0  0  0
 36 31  1  0  0  0  0
 37 32  1  0  0  0  0
M  END
>  <minimizedAffinity>
-7.68446589

>  <minimizedRMSD>
0.120063268

$$$$
