
 OpenBabel03272505153D

 22 23  0  0  0  0  0  0  0  0999 V2000
   40.5730   24.4980   34.4390 Cl  0  0  0  0  0  0  0  0  0  0  0  0
   39.6630   24.0900   35.8720 C   0  0  0  0  0  0  0  0  0  0  0  0
   38.4170   24.6170   36.0780 C   0  0  0  0  0  0  0  0  0  0  0  0
   37.7770   24.2460   37.2300 C   0  0  0  0  0  0  0  0  0  0  0  0
   38.2920   23.4020   38.1690 C   0  0  0  0  0  0  0  0  0  0  0  0
   39.5520   22.8870   37.9350 C   0  0  0  0  0  0  0  0  0  0  0  0
   40.2560   23.2260   36.7780 C   0  0  0  0  0  0  0  0  0  0  0  0
   36.7840   24.6550   37.4100 H   0  0  0  0  0  0  0  0  0  0  0  0
   37.7540   23.1320   39.0720 H   0  0  0  0  0  0  0  0  0  0  0  0
   40.0040   22.2050   38.6650 H   0  0  0  0  0  0  0  0  0  0  0  0
   37.1370   27.7090   34.3070 C   0  0  0  0  0  0  0  0  0  0  0  0
   37.6670   26.8740   35.3050 C   0  0  0  0  0  0  0  0  0  0  0  0
   37.8760   25.5130   35.0740 C   0  0  0  0  0  0  0  0  0  0  0  0
   37.5330   25.0790   33.8330 N   0  0  0  0  0  0  0  0  0  0  0  0
   37.0310   25.8800   32.8920 C   0  0  0  0  0  0  0  0  0  0  0  0
   36.8280   27.1850   33.1120 N   0  0  0  0  0  0  0  0  0  0  0  0
   36.9980   28.7570   34.5480 H   0  0  0  0  0  0  0  0  0  0  0  0
   37.9380   27.2210   36.2950 H   0  0  0  0  0  0  0  0  0  0  0  0
   36.7600   25.5310   31.9010 H   0  0  0  0  0  0  0  0  0  0  0  0
   41.6180   22.6820   36.5140 C   0  0  0  0  0  2  0  0  0  0  0  0
   41.8280   21.3620   37.2110 C   0  0  0  0  0  2  0  0  0  0  0  0
   40.9240   20.7520   37.0780 H   0  0  0  0  0  0  0  0  0  0  0  0
  1  2  1  0  0  0  0
  2  3  2  0  0  0  0
  2  7  1  0  0  0  0
  3  4  1  0  0  0  0
  4  8  1  0  0  0  0
  4  5  2  0  0  0  0
  5  9  1  0  0  0  0
  6  5  1  0  0  0  0
  6 10  1  0  0  0  0
  7  6  2  0  0  0  0
 11 17  1  0  0  0  0
 11 12  1  0  0  0  0
 12 18  1  0  0  0  0
 13 12  2  0  0  0  0
 13  3  1  0  0  0  0
 14 13  1  0  0  0  0
 15 16  1  0  0  0  0
 15 14  2  0  0  0  0
 16 11  2  0  0  0  0
 19 15  1  0  0  0  0
 20  7  1  0  0  0  0
 20 21  1  0  0  0  0
 22 21  1  0  0  0  0
M  END
>  <minimizedAffinity>
-4.58149338

$$$$

 OpenBabel03272505153D

 22 23  0  0  0  0  0  0  0  0999 V2000
   37.8800   23.5910   33.1520 Cl  0  0  0  0  0  0  0  0  0  0  0  0
   37.5390   25.2360   33.6250 C   0  0  0  0  0  0  0  0  0  0  0  0
   37.8080   25.6650   34.8960 C   0  0  0  0  0  0  0  0  0  0  0  0
   37.5050   26.9690   35.1800 C   0  0  0  0  0  0  0  0  0  0  0  0
   36.9630   27.8530   34.2950 C   0  0  0  0  0  0  0  0  0  0  0  0
   36.7010   27.3920   33.0190 C   0  0  0  0  0  0  0  0  0  0  0  0
   36.9880   26.0710   32.6670 C   0  0  0  0  0  0  0  0  0  0  0  0
   37.7120   27.3280   36.1880 H   0  0  0  0  0  0  0  0  0  0  0  0
   36.7350   28.8810   34.5580 H   0  0  0  0  0  0  0  0  0  0  0  0
   36.2640   28.0690   32.2760 H   0  0  0  0  0  0  0  0  0  0  0  0
   38.3100   23.3590   37.8560 C   0  0  0  0  0  0  0  0  0  0  0  0
   37.7140   24.2740   36.9720 C   0  0  0  0  0  0  0  0  0  0  0  0
   38.3850   24.7190   35.8320 C   0  0  0  0  0  0  0  0  0  0  0  0
   39.6310   24.2040   35.6560 N   0  0  0  0  0  0  0  0  0  0  0  0
   40.1870   23.3350   36.5020 C   0  0  0  0  0  0  0  0  0  0  0  0
   39.5460   22.9080   37.5960 N   0  0  0  0  0  0  0  0  0  0  0  0
   37.7380   23.0520   38.7250 H   0  0  0  0  0  0  0  0  0  0  0  0
   36.7220   24.6850   37.1150 H   0  0  0  0  0  0  0  0  0  0  0  0
   41.1800   22.9240   36.3580 H   0  0  0  0  0  0  0  0  0  0  0  0
   36.7080   25.5590   31.2960 C   0  0  0  0  0  2  0  0  0  0  0  0
   35.2480   25.2250   31.1210 C   0  0  0  0  0  2  0  0  0  0  0  0
   34.6520   26.0310   31.5720 H   0  0  0  0  0  0  0  0  0  0  0  0
  1  2  1  0  0  0  0
  2  3  1  0  0  0  0
  3  4  2  0  0  0  0
  3 13  1  0  0  0  0
  4  8  1  0  0  0  0
  5  9  1  0  0  0  0
  5  4  1  0  0  0  0
  6  5  2  0  0  0  0
  7  6  1  0  0  0  0
  7  2  2  0  0  0  0
 10  6  1  0  0  0  0
 11 17  1  0  0  0  0
 12 18  1  0  0  0  0
 12 11  2  0  0  0  0
 13 12  1  0  0  0  0
 14 13  2  0  0  0  0
 14 15  1  0  0  0  0
 15 16  2  0  0  0  0
 16 11  1  0  0  0  0
 19 15  1  0  0  0  0
 20  7  1  0  0  0  0
 21 20  1  0  0  0  0
 21 22  1  0  0  0  0
M  END
>  <minimizedAffinity>
-4.43008518

$$$$

 OpenBabel03272505153D

 22 23  0  0  0  0  0  0  0  0999 V2000
   32.6440   29.3480   34.5070 Cl  0  0  0  0  0  0  0  0  0  0  0  0
   33.5600   30.5070   35.4370 C   0  0  0  0  0  0  0  0  0  0  0  0
   34.8870   30.7170   35.1740 C   0  0  0  0  0  0  0  0  0  0  0  0
   35.5280   31.6400   35.9540 C   0  0  0  0  0  0  0  0  0  0  0  0
   34.9410   32.3520   36.9590 C   0  0  0  0  0  0  0  0  0  0  0  0
   33.6020   32.1180   37.2020 C   0  0  0  0  0  0  0  0  0  0  0  0
   32.8910   31.1880   36.4400 C   0  0  0  0  0  0  0  0  0  0  0  0
   36.5840   31.8210   35.7590 H   0  0  0  0  0  0  0  0  0  0  0  0
   35.4830   33.0760   37.5570 H   0  0  0  0  0  0  0  0  0  0  0  0
   33.0920   32.6680   38.0010 H   0  0  0  0  0  0  0  0  0  0  0  0
   36.6730   27.9980   33.2370 C   0  0  0  0  0  0  0  0  0  0  0  0
   36.0820   28.7020   34.3000 C   0  0  0  0  0  0  0  0  0  0  0  0
   35.5030   29.9560   34.1040 C   0  0  0  0  0  0  0  0  0  0  0  0
   35.5580   30.4250   32.8290 N   0  0  0  0  0  0  0  0  0  0  0  0
   36.1210   29.7490   31.8260 C   0  0  0  0  0  0  0  0  0  0  0  0
   36.6780   28.5470   32.0130 N   0  0  0  0  0  0  0  0  0  0  0  0
   37.1070   27.0280   33.4530 H   0  0  0  0  0  0  0  0  0  0  0  0
   36.0410   28.3280   35.3160 H   0  0  0  0  0  0  0  0  0  0  0  0
   36.1610   30.1240   30.8090 H   0  0  0  0  0  0  0  0  0  0  0  0
   31.4470   30.9230   36.6940 C   0  0  0  0  0  2  0  0  0  0  0  0
   30.6040   32.1370   36.4000 C   0  0  0  0  0  2  0  0  0  0  0  0
   30.9540   32.5830   35.4580 H   0  0  0  0  0  0  0  0  0  0  0  0
  1  2  1  0  0  0  0
  2  7  1  0  0  0  0
  3  2  2  0  0  0  0
  3  4  1  0  0  0  0
  4  5  2  0  0  0  0
  5  6  1  0  0  0  0
  5  9  1  0  0  0  0
  6 10  1  0  0  0  0
  7 20  1  0  0  0  0
  7  6  2  0  0  0  0
  8  4  1  0  0  0  0
 11 17  1  0  0  0  0
 11 12  1  0  0  0  0
 12 18  1  0  0  0  0
 13 12  2  0  0  0  0
 13  3  1  0  0  0  0
 14 13  1  0  0  0  0
 15 16  1  0  0  0  0
 15 14  2  0  0  0  0
 16 11  2  0  0  0  0
 19 15  1  0  0  0  0
 21 20  1  0  0  0  0
 22 21  1  0  0  0  0
M  END
>  <minimizedAffinity>
-4.36472416

$$$$

 OpenBabel03272505153D

 22 23  0  0  0  0  0  0  0  0999 V2000
   40.3130   24.6510   34.3660 Cl  0  0  0  0  0  0  0  0  0  0  0  0
   39.6830   24.1380   35.9110 C   0  0  0  0  0  0  0  0  0  0  0  0
   40.3280   23.1780   36.6420 C   0  0  0  0  0  0  0  0  0  0  0  0
   39.7620   22.8340   37.8390 C   0  0  0  0  0  0  0  0  0  0  0  0
   38.6160   23.3770   38.3420 C   0  0  0  0  0  0  0  0  0  0  0  0
   37.9860   24.3430   37.5820 C   0  0  0  0  0  0  0  0  0  0  0  0
   38.5140   24.7380   36.3520 C   0  0  0  0  0  0  0  0  0  0  0  0
   40.2620   22.0720   38.4350 H   0  0  0  0  0  0  0  0  0  0  0  0
   38.1960   23.0770   39.2970 H   0  0  0  0  0  0  0  0  0  0  0  0
   37.0610   24.8040   37.9490 H   0  0  0  0  0  0  0  0  0  0  0  0
   43.9750   22.4870   35.8940 C   0  0  0  0  0  0  0  0  0  0  0  0
   42.8190   23.0650   36.4440 C   0  0  0  0  0  0  0  0  0  0  0  0
   41.5460   22.6070   36.1000 C   0  0  0  0  0  0  0  0  0  0  0  0
   41.5230   21.5790   35.2100 N   0  0  0  0  0  0  0  0  0  0  0  0
   42.6280   21.0360   34.6940 C   0  0  0  0  0  0  0  0  0  0  0  0
   43.8480   21.4760   35.0220 N   0  0  0  0  0  0  0  0  0  0  0  0
   44.9350   22.8880   36.2000 H   0  0  0  0  0  0  0  0  0  0  0  0
   42.8380   23.8860   37.1520 H   0  0  0  0  0  0  0  0  0  0  0  0
   42.6070   20.2150   33.9860 H   0  0  0  0  0  0  0  0  0  0  0  0
   37.8430   25.7750   35.5190 C   0  0  0  0  0  2  0  0  0  0  0  0
   38.2770   27.1640   35.9140 C   0  0  0  0  0  2  0  0  0  0  0  0
   39.3660   27.1570   36.0650 H   0  0  0  0  0  0  0  0  0  0  0  0
  1  2  1  0  0  0  0
  2  7  2  0  0  0  0
  2  3  1  0  0  0  0
  3  4  2  0  0  0  0
  4  5  1  0  0  0  0
  4  8  1  0  0  0  0
  5  9  1  0  0  0  0
  6 10  1  0  0  0  0
  6  5  2  0  0  0  0
  7  6  1  0  0  0  0
 11 17  1  0  0  0  0
 11 12  1  0  0  0  0
 12 18  1  0  0  0  0
 13 12  2  0  0  0  0
 13  3  1  0  0  0  0
 14 13  1  0  0  0  0
 15 16  1  0  0  0  0
 15 14  2  0  0  0  0
 16 11  2  0  0  0  0
 19 15  1  0  0  0  0
 20 21  1  0  0  0  0
 20  7  1  0  0  0  0
 21 22  1  0  0  0  0
M  END
>  <minimizedAffinity>
-4.33215857

$$$$

 OpenBabel03272505153D

 22 23  0  0  0  0  0  0  0  0999 V2000
   35.1450   31.5310   32.2710 Cl  0  0  0  0  0  0  0  0  0  0  0  0
   35.8370   30.0010   32.7480 C   0  0  0  0  0  0  0  0  0  0  0  0
   35.7640   29.5790   34.0480 C   0  0  0  0  0  0  0  0  0  0  0  0
   36.3370   28.3700   34.3330 C   0  0  0  0  0  0  0  0  0  0  0  0
   36.9650   27.5720   33.4230 C   0  0  0  0  0  0  0  0  0  0  0  0
   37.0240   28.0240   32.1190 C   0  0  0  0  0  0  0  0  0  0  0  0
   36.4580   29.2500   31.7640 C   0  0  0  0  0  0  0  0  0  0  0  0
   36.2880   28.0180   35.3630 H   0  0  0  0  0  0  0  0  0  0  0  0
   37.4090   26.6180   33.6880 H   0  0  0  0  0  0  0  0  0  0  0  0
   37.5210   27.4140   31.3560 H   0  0  0  0  0  0  0  0  0  0  0  0
   35.0890   32.1570   36.7370 C   0  0  0  0  0  0  0  0  0  0  0  0
   35.7740   31.3490   35.8140 C   0  0  0  0  0  0  0  0  0  0  0  0
   35.0940   30.4340   35.0100 C   0  0  0  0  0  0  0  0  0  0  0  0
   33.7480   30.3920   35.1920 N   0  0  0  0  0  0  0  0  0  0  0  0
   33.1060   31.1640   36.0710 C   0  0  0  0  0  0  0  0  0  0  0  0
   33.7570   32.0420   36.8440 N   0  0  0  0  0  0  0  0  0  0  0  0
   35.6730   32.8490   37.3340 H   0  0  0  0  0  0  0  0  0  0  0  0
   36.8480   31.3820   35.6720 H   0  0  0  0  0  0  0  0  0  0  0  0
   32.0320   31.1310   36.2130 H   0  0  0  0  0  0  0  0  0  0  0  0
   36.5180   29.7520   30.3620 C   0  0  0  0  0  2  0  0  0  0  0  0
   37.2330   28.7800   29.4590 C   0  0  0  0  0  2  0  0  0  0  0  0
   36.8830   27.7650   29.6960 H   0  0  0  0  0  0  0  0  0  0  0  0
  1  2  1  0  0  0  0
  2  3  1  0  0  0  0
  3  4  2  0  0  0  0
  3 13  1  0  0  0  0
  4  8  1  0  0  0  0
  5  9  1  0  0  0  0
  5  4  1  0  0  0  0
  6  5  2  0  0  0  0
  7  6  1  0  0  0  0
  7  2  2  0  0  0  0
 10  6  1  0  0  0  0
 11 16  1  0  0  0  0
 11 17  1  0  0  0  0
 12 11  2  0  0  0  0
 13 14  2  0  0  0  0
 13 12  1  0  0  0  0
 14 15  1  0  0  0  0
 15 19  1  0  0  0  0
 15 16  2  0  0  0  0
 18 12  1  0  0  0  0
 20  7  1  0  0  0  0
 21 22  1  0  0  0  0
 21 20  1  0  0  0  0
M  END
>  <minimizedAffinity>
-4.28231525

$$$$

 OpenBabel03272505153D

 22 23  0  0  0  0  0  0  0  0999 V2000
   34.8550   29.8140   34.7100 Cl  0  0  0  0  0  0  0  0  0  0  0  0
   34.1960   31.0130   35.7950 C   0  0  0  0  0  0  0  0  0  0  0  0
   32.9110   30.9050   36.2530 C   0  0  0  0  0  0  0  0  0  0  0  0
   32.4760   31.8910   37.0960 C   0  0  0  0  0  0  0  0  0  0  0  0
   33.2260   32.9550   37.5020 C   0  0  0  0  0  0  0  0  0  0  0  0
   34.5190   33.0380   37.0230 C   0  0  0  0  0  0  0  0  0  0  0  0
   35.0230   32.0630   36.1600 C   0  0  0  0  0  0  0  0  0  0  0  0
   31.4560   31.8220   37.4710 H   0  0  0  0  0  0  0  0  0  0  0  0
   32.8450   33.7190   38.1720 H   0  0  0  0  0  0  0  0  0  0  0  0
   35.1560   33.8790   37.3240 H   0  0  0  0  0  0  0  0  0  0  0  0
   31.0730   27.5960   36.1780 C   0  0  0  0  0  0  0  0  0  0  0  0
   31.8410   28.6790   36.6400 C   0  0  0  0  0  0  0  0  0  0  0  0
   32.1200   29.7710   35.8170 C   0  0  0  0  0  0  0  0  0  0  0  0
   31.5990   29.6980   34.5640 N   0  0  0  0  0  0  0  0  0  0  0  0
   30.8700   28.6660   34.1350 C   0  0  0  0  0  0  0  0  0  0  0  0
   30.6030   27.6170   34.9220 N   0  0  0  0  0  0  0  0  0  0  0  0
   30.8910   26.7770   36.8650 H   0  0  0  0  0  0  0  0  0  0  0  0
   32.2570   28.7340   37.6380 H   0  0  0  0  0  0  0  0  0  0  0  0
   30.4530   28.6110   33.1350 H   0  0  0  0  0  0  0  0  0  0  0  0
   36.4130   32.1420   35.6310 C   0  0  0  0  0  2  0  0  0  0  0  0
   36.6000   33.3510   34.7510 C   0  0  0  0  0  2  0  0  0  0  0  0
   36.1140   34.2100   35.2340 H   0  0  0  0  0  0  0  0  0  0  0  0
  1  2  1  0  0  0  0
  2  7  2  0  0  0  0
  2  3  1  0  0  0  0
  3  4  2  0  0  0  0
  4  8  1  0  0  0  0
  4  5  1  0  0  0  0
  5  9  1  0  0  0  0
  6 10  1  0  0  0  0
  6  5  2  0  0  0  0
  7  6  1  0  0  0  0
 11 12  1  0  0  0  0
 11 17  1  0  0  0  0
 12 18  1  0  0  0  0
 13  3  1  0  0  0  0
 13 12  2  0  0  0  0
 14 13  1  0  0  0  0
 15 14  2  0  0  0  0
 15 16  1  0  0  0  0
 16 11  2  0  0  0  0
 19 15  1  0  0  0  0
 20  7  1  0  0  0  0
 21 22  1  0  0  0  0
 21 20  1  0  0  0  0
M  END
>  <minimizedAffinity>
-4.235991

$$$$

 OpenBabel03272505153D

 22 23  0  0  0  0  0  0  0  0999 V2000
   38.7620   26.7870   35.4460 Cl  0  0  0  0  0  0  0  0  0  0  0  0
   38.3270   25.5690   34.2740 C   0  0  0  0  0  0  0  0  0  0  0  0
   38.2370   24.2530   34.6390 C   0  0  0  0  0  0  0  0  0  0  0  0
   37.8940   23.3650   33.6550 C   0  0  0  0  0  0  0  0  0  0  0  0
   37.6420   23.7010   32.3580 C   0  0  0  0  0  0  0  0  0  0  0  0
   37.7420   25.0360   32.0180 C   0  0  0  0  0  0  0  0  0  0  0  0
   38.0870   25.9910   32.9770 C   0  0  0  0  0  0  0  0  0  0  0  0
   37.8170   22.3140   33.9280 H   0  0  0  0  0  0  0  0  0  0  0  0
   37.3730   22.9680   31.6050 H   0  0  0  0  0  0  0  0  0  0  0  0
   37.5480   25.3490   30.9860 H   0  0  0  0  0  0  0  0  0  0  0  0
   39.8880   22.9140   37.7720 C   0  0  0  0  0  0  0  0  0  0  0  0
   39.6650   23.2370   36.4230 C   0  0  0  0  0  0  0  0  0  0  0  0
   38.5070   23.9040   36.0210 C   0  0  0  0  0  0  0  0  0  0  0  0
   37.6370   24.2060   37.0210 N   0  0  0  0  0  0  0  0  0  0  0  0
   37.8580   23.8950   38.2990 C   0  0  0  0  0  0  0  0  0  0  0  0
   38.9670   23.2540   38.6870 N   0  0  0  0  0  0  0  0  0  0  0  0
   40.8060   22.3950   38.0220 H   0  0  0  0  0  0  0  0  0  0  0  0
   40.3580   22.9940   35.6270 H   0  0  0  0  0  0  0  0  0  0  0  0
   37.1640   24.1400   39.0960 H   0  0  0  0  0  0  0  0  0  0  0  0
   38.2020   27.4340   32.6240 C   0  0  0  0  0  2  0  0  0  0  0  0
   36.8520   28.1040   32.5960 C   0  0  0  0  0  2  0  0  0  0  0  0
   36.2790   27.7650   33.4710 H   0  0  0  0  0  0  0  0  0  0  0  0
  2  3  1  0  0  0  0
  2  1  1  0  0  0  0
  3 13  1  0  0  0  0
  4  8  1  0  0  0  0
  4  3  2  0  0  0  0
  5  4  1  0  0  0  0
  6  5  2  0  0  0  0
  6  7  1  0  0  0  0
  7  2  2  0  0  0  0
  9  5  1  0  0  0  0
 10  6  1  0  0  0  0
 11 17  1  0  0  0  0
 11 16  1  0  0  0  0
 12 11  2  0  0  0  0
 13 12  1  0  0  0  0
 13 14  2  0  0  0  0
 14 15  1  0  0  0  0
 15 16  2  0  0  0  0
 15 19  1  0  0  0  0
 18 12  1  0  0  0  0
 20  7  1  0  0  0  0
 21 20  1  0  0  0  0
 21 22  1  0  0  0  0
M  END
>  <minimizedAffinity>
-4.20591688

$$$$

 OpenBabel03272505153D

 22 23  0  0  0  0  0  0  0  0999 V2000
   38.4020   24.5460   33.2570 Cl  0  0  0  0  0  0  0  0  0  0  0  0
   37.3830   23.1320   33.1510 C   0  0  0  0  0  0  0  0  0  0  0  0
   37.3840   22.1980   34.1500 C   0  0  0  0  0  0  0  0  0  0  0  0
   36.5570   21.1200   33.9830 C   0  0  0  0  0  0  0  0  0  0  0  0
   35.7480   20.9210   32.9040 C   0  0  0  0  0  0  0  0  0  0  0  0
   35.7690   21.8800   31.9100 C   0  0  0  0  0  0  0  0  0  0  0  0
   36.5900   23.0040   32.0230 C   0  0  0  0  0  0  0  0  0  0  0  0
   36.5440   20.3650   34.7680 H   0  0  0  0  0  0  0  0  0  0  0  0
   35.1050   20.0520   32.8050 H   0  0  0  0  0  0  0  0  0  0  0  0
   35.1330   21.7590   31.0250 H   0  0  0  0  0  0  0  0  0  0  0  0
   38.6910   23.2650   37.5390 C   0  0  0  0  0  0  0  0  0  0  0  0
   37.8220   23.0690   36.4530 C   0  0  0  0  0  0  0  0  0  0  0  0
   38.2470   22.4170   35.2950 C   0  0  0  0  0  0  0  0  0  0  0  0
   39.5410   21.9990   35.3090 N   0  0  0  0  0  0  0  0  0  0  0  0
   40.3580   22.1900   36.3460 C   0  0  0  0  0  0  0  0  0  0  0  0
   39.9520   22.8160   37.4570 N   0  0  0  0  0  0  0  0  0  0  0  0
   38.3020   23.7800   38.4110 H   0  0  0  0  0  0  0  0  0  0  0  0
   36.7920   23.4050   36.4420 H   0  0  0  0  0  0  0  0  0  0  0  0
   41.3890   21.8530   36.3560 H   0  0  0  0  0  0  0  0  0  0  0  0
   36.6260   24.0450   30.9580 C   0  0  0  0  0  2  0  0  0  0  0  0
   35.3920   24.9100   30.9900 C   0  0  0  0  0  2  0  0  0  0  0  0
   35.1720   25.1600   32.0380 H   0  0  0  0  0  0  0  0  0  0  0  0
  2  1  1  0  0  0  0
  2  3  1  0  0  0  0
  3 13  1  0  0  0  0
  4  3  2  0  0  0  0
  4  8  1  0  0  0  0
  5  4  1  0  0  0  0
  6  7  1  0  0  0  0
  6  5  2  0  0  0  0
  7  2  2  0  0  0  0
  9  5  1  0  0  0  0
 10  6  1  0  0  0  0
 11 17  1  0  0  0  0
 12 11  2  0  0  0  0
 13 14  2  0  0  0  0
 13 12  1  0  0  0  0
 14 15  1  0  0  0  0
 15 19  1  0  0  0  0
 15 16  2  0  0  0  0
 16 11  1  0  0  0  0
 18 12  1  0  0  0  0
 20 21  1  0  0  0  0
 20  7  1  0  0  0  0
 21 22  1  0  0  0  0
M  END
>  <minimizedAffinity>
-4.188447

$$$$

 OpenBabel03272505153D

 22 23  0  0  0  0  0  0  0  0999 V2000
   38.0310   23.2560   33.5310 Cl  0  0  0  0  0  0  0  0  0  0  0  0
   36.9940   24.2630   32.5520 C   0  0  0  0  0  0  0  0  0  0  0  0
   36.0920   23.7020   31.6910 C   0  0  0  0  0  0  0  0  0  0  0  0
   35.3230   24.5660   30.9600 C   0  0  0  0  0  0  0  0  0  0  0  0
   35.3960   25.9260   31.0330 C   0  0  0  0  0  0  0  0  0  0  0  0
   36.3170   26.4640   31.9100 C   0  0  0  0  0  0  0  0  0  0  0  0
   37.1310   25.6350   32.6850 C   0  0  0  0  0  0  0  0  0  0  0  0
   34.5980   24.1370   30.2680 H   0  0  0  0  0  0  0  0  0  0  0  0
   34.7690   26.5800   30.4360 H   0  0  0  0  0  0  0  0  0  0  0  0
   36.4090   27.5530   31.9990 H   0  0  0  0  0  0  0  0  0  0  0  0
   35.0570   20.1030   32.2490 C   0  0  0  0  0  0  0  0  0  0  0  0
   35.0920   21.5050   32.3430 C   0  0  0  0  0  0  0  0  0  0  0  0
   36.0190   22.2550   31.6190 C   0  0  0  0  0  0  0  0  0  0  0  0
   36.8630   21.5320   30.8360 N   0  0  0  0  0  0  0  0  0  0  0  0
   36.8210   20.2010   30.7530 C   0  0  0  0  0  0  0  0  0  0  0  0
   35.9330   19.4800   31.4480 N   0  0  0  0  0  0  0  0  0  0  0  0
   34.3130   19.5760   32.8370 H   0  0  0  0  0  0  0  0  0  0  0  0
   34.4200   22.0800   32.9690 H   0  0  0  0  0  0  0  0  0  0  0  0
   37.4940   19.6260   30.1260 H   0  0  0  0  0  0  0  0  0  0  0  0
   38.1320   26.2010   33.6330 C   0  0  0  0  0  2  0  0  0  0  0  0
   37.4710   26.7340   34.8790 C   0  0  0  0  0  2  0  0  0  0  0  0
   36.7090   26.0100   35.2030 H   0  0  0  0  0  0  0  0  0  0  0  0
  2  7  1  0  0  0  0
  2  1  1  0  0  0  0
  3  2  2  0  0  0  0
  4  5  2  0  0  0  0
  4  3  1  0  0  0  0
  5  6  1  0  0  0  0
  6 10  1  0  0  0  0
  6  7  2  0  0  0  0
  7 20  1  0  0  0  0
  8  4  1  0  0  0  0
  9  5  1  0  0  0  0
 11 12  1  0  0  0  0
 11 17  1  0  0  0  0
 12 18  1  0  0  0  0
 13  3  1  0  0  0  0
 13 12  2  0  0  0  0
 14 13  1  0  0  0  0
 15 14  2  0  0  0  0
 15 16  1  0  0  0  0
 16 11  2  0  0  0  0
 19 15  1  0  0  0  0
 20 21  1  0  0  0  0
 21 22  1  0  0  0  0
M  END
>  <minimizedAffinity>
-4.15111542

$$$$
