
 OpenBabel03272510333D

 22 23  0  0  0  0  0  0  0  0999 V2000
   35.9950   30.1750   48.6670 C   0  0  0  0  0  0  0  0  0  0  0  0
   35.2560   29.9370   47.5300 C   0  0  0  0  0  0  0  0  0  0  0  0
   34.2450   28.9930   47.5210 C   0  0  0  0  0  0  0  0  0  0  0  0
   33.9980   28.2940   48.6890 C   0  0  0  0  0  0  0  0  0  0  0  0
   34.7290   28.5190   49.8330 C   0  0  0  0  0  0  0  0  0  0  0  0
   35.7470   29.4700   49.8420 C   0  0  0  0  0  0  0  0  0  0  0  0
   35.4040   30.4530   46.5860 H   0  0  0  0  0  0  0  0  0  0  0  0
   33.6420   28.7780   46.6530 H   0  0  0  0  0  0  0  0  0  0  0  0
   33.2290   27.5280   48.7980 H   0  0  0  0  0  0  0  0  0  0  0  0
   34.5750   27.9990   50.7710 H   0  0  0  0  0  0  0  0  0  0  0  0
   37.9220   33.1620   49.4470 C   0  0  0  0  0  0  0  0  0  0  0  0
   38.9740   33.1590   48.5150 C   0  0  0  0  0  0  0  0  0  0  0  0
   39.0030   32.0860   47.5950 C   0  0  0  0  0  0  0  0  0  0  0  0
   38.0360   31.1450   47.6700 N   0  0  0  0  0  0  0  0  0  0  0  0
   37.0390   31.1860   48.5850 C   0  0  0  0  0  0  0  0  0  0  0  0
   36.9950   32.2000   49.4670 N   0  0  0  0  0  0  0  0  0  0  0  0
   37.8250   33.9550   50.1930 H   0  0  0  0  0  0  0  0  0  0  0  0
   39.7030   33.9330   48.5130 H   0  0  0  0  0  0  0  0  0  0  0  0
   39.7950   32.0430   46.8600 H   0  0  0  0  0  0  0  0  0  0  0  0
   36.5430   29.7250   51.0680 C   0  0  0  0  0  2  0  0  0  0  0  0
   37.7740   28.8860   51.1770 C   0  0  0  0  0  2  0  0  0  0  0  0
   37.7850   28.0950   50.3780 H   0  0  0  0  0  0  0  0  0  0  0  0
  1  6  1  0  0  0  0
  2  1  2  0  0  0  0
  3  2  1  0  0  0  0
  3  4  2  0  0  0  0
  4  9  1  0  0  0  0
  4  5  1  0  0  0  0
  5  6  2  0  0  0  0
  5 10  1  0  0  0  0
  6 20  1  0  0  0  0
  7  2  1  0  0  0  0
  8  3  1  0  0  0  0
 11 16  1  0  0  0  0
 11 17  1  0  0  0  0
 12 11  2  0  0  0  0
 13 14  2  0  0  0  0
 13 12  1  0  0  0  0
 14 15  1  0  0  0  0
 15  1  1  0  0  0  0
 15 16  2  0  0  0  0
 18 12  1  0  0  0  0
 19 13  1  0  0  0  0
 20 21  1  0  0  0  0
 22 21  1  0  0  0  0
M  END
>  <minimizedAffinity>
-5.42701864

>  <minimizedRMSD>
0.508633196

$$$$
