
 OpenBabel03272510213D

 30 32  0  0  0  0  0  0  0  0999 V2000
   35.4200   30.4620   31.5930 Br  0  0  0  0  0  0  0  0  0  0  0  0
   36.2340   29.0210   32.5490 C   0  0  0  0  0  0  0  0  0  0  0  0
   36.0450   28.8800   33.9300 C   0  0  0  0  0  0  0  0  0  0  0  0
   36.6600   27.8230   34.5450 C   0  0  0  0  0  0  0  0  0  0  0  0
   37.4410   26.9060   33.8850 C   0  0  0  0  0  0  0  0  0  0  0  0
   37.6140   27.0600   32.5350 C   0  0  0  0  0  0  0  0  0  0  0  0
   37.0080   28.1150   31.8850 C   0  0  0  0  0  0  0  0  0  0  0  0
   36.5590   27.6500   35.6160 H   0  0  0  0  0  0  0  0  0  0  0  0
   38.2270   26.3480   31.9890 H   0  0  0  0  0  0  0  0  0  0  0  0
   37.1810   28.1880   30.8100 H   0  0  0  0  0  0  0  0  0  0  0  0
   35.1780   31.7410   36.0150 C   0  0  0  0  0  0  0  0  0  0  0  0
   33.7620   31.6880   36.0830 C   0  0  0  0  0  0  0  0  0  0  0  0
   33.1230   30.6530   35.4000 C   0  0  0  0  0  0  0  0  0  0  0  0
   33.8830   29.7430   34.7010 N   0  0  0  0  0  0  0  0  0  0  0  0
   35.2250   29.8310   34.6620 C   0  0  0  0  0  0  0  0  0  0  0  0
   35.8740   30.8380   35.3260 N   0  0  0  0  0  0  0  0  0  0  0  0
   35.7290   32.5230   36.5280 H   0  0  0  0  0  0  0  0  0  0  0  0
   33.2150   32.4190   36.6410 H   0  0  0  0  0  0  0  0  0  0  0  0
   32.0510   30.5540   35.4110 H   0  0  0  0  0  0  0  0  0  0  0  0
   38.0960   25.7790   34.5450 C   0  0  0  0  0  0  0  0  0  0  0  0
   39.0770   24.9970   33.9860 C   0  0  0  0  0  0  0  0  0  0  0  0
   39.6680   23.9390   34.6510 C   0  0  0  0  0  0  0  0  0  0  0  0
   39.2790   23.6520   35.8890 N   0  0  0  0  0  0  0  0  0  0  0  0
   38.3140   24.4050   36.4630 C   0  0  0  0  0  0  0  0  0  0  0  0
   37.7560   25.4280   35.7980 N   0  0  0  0  0  0  0  0  0  0  0  0
   39.3950   25.2360   32.9670 H   0  0  0  0  0  0  0  0  0  0  0  0
   40.4420   23.3440   34.1730 H   0  0  0  0  0  0  0  0  0  0  0  0
   37.8460   24.1230   37.8470 C   0  0  0  0  0  2  0  0  0  0  0  0
   38.8930   23.3620   38.6530 C   0  0  0  0  0  2  0  0  0  0  0  0
   38.3800   22.9430   39.5410 H   0  0  0  0  0  0  0  0  0  0  0  0
  1  2  1  0  0  0  0
  2  3  1  0  0  0  0
  3  4  2  0  0  0  0
  3 15  1  0  0  0  0
  4  8  1  0  0  0  0
  5  4  1  0  0  0  0
  5 20  1  0  0  0  0
  6  5  2  0  0  0  0
  7  6  1  0  0  0  0
  7  2  2  0  0  0  0
  9  6  1  0  0  0  0
 10  7  1  0  0  0  0
 11 12  1  0  0  0  0
 11 17  1  0  0  0  0
 12 18  1  0  0  0  0
 13 19  1  0  0  0  0
 13 12  2  0  0  0  0
 14 13  1  0  0  0  0
 15 14  2  0  0  0  0
 15 16  1  0  0  0  0
 16 11  2  0  0  0  0
 20 25  1  0  0  0  0
 21 20  2  0  0  0  0
 21 22  1  0  0  0  0
 22 23  2  0  0  0  0
 23 24  1  0  0  0  0
 24 28  1  0  0  0  0
 25 24  2  0  0  0  0
 26 21  1  0  0  0  0
 27 22  1  0  0  0  0
 28 29  1  0  0  0  0
 29 30  1  0  0  0  0
M  END
>  <minimizedAffinity>
-5.60687447

$$$$

 OpenBabel03272510213D

 30 32  0  0  0  0  0  0  0  0999 V2000
   37.2670   28.7060   29.6190 Br  0  0  0  0  0  0  0  0  0  0  0  0
   36.5280   29.3250   31.2690 C   0  0  0  0  0  0  0  0  0  0  0  0
   36.0910   28.4190   32.2440 C   0  0  0  0  0  0  0  0  0  0  0  0
   35.5740   28.9370   33.4000 C   0  0  0  0  0  0  0  0  0  0  0  0
   35.4630   30.2840   33.6490 C   0  0  0  0  0  0  0  0  0  0  0  0
   35.8960   31.1550   32.6840 C   0  0  0  0  0  0  0  0  0  0  0  0
   36.4230   30.6640   31.5080 C   0  0  0  0  0  0  0  0  0  0  0  0
   35.2130   28.2940   34.2020 H   0  0  0  0  0  0  0  0  0  0  0  0
   35.8210   32.2250   32.8570 H   0  0  0  0  0  0  0  0  0  0  0  0
   36.7510   31.4030   30.7770 H   0  0  0  0  0  0  0  0  0  0  0  0
   37.3870   25.0180   32.4370 C   0  0  0  0  0  0  0  0  0  0  0  0
   36.4760   24.2670   31.6490 C   0  0  0  0  0  0  0  0  0  0  0  0
   35.4180   24.9570   31.0580 C   0  0  0  0  0  0  0  0  0  0  0  0
   35.3050   26.3130   31.2620 N   0  0  0  0  0  0  0  0  0  0  0  0
   36.1920   26.9860   32.0160 C   0  0  0  0  0  0  0  0  0  0  0  0
   37.2400   26.3300   32.6060 N   0  0  0  0  0  0  0  0  0  0  0  0
   38.2300   24.5340   32.9210 H   0  0  0  0  0  0  0  0  0  0  0  0
   36.6070   23.2130   31.5200 H   0  0  0  0  0  0  0  0  0  0  0  0
   34.6910   24.4480   30.4480 H   0  0  0  0  0  0  0  0  0  0  0  0
   34.9110   30.8340   34.8840 C   0  0  0  0  0  0  0  0  0  0  0  0
   35.5510   31.7280   35.7070 C   0  0  0  0  0  0  0  0  0  0  0  0
   34.9870   32.2230   36.8680 C   0  0  0  0  0  0  0  0  0  0  0  0
   33.7690   31.8230   37.2180 N   0  0  0  0  0  0  0  0  0  0  0  0
   33.1160   30.9420   36.4270 C   0  0  0  0  0  0  0  0  0  0  0  0
   33.6840   30.4770   35.3050 N   0  0  0  0  0  0  0  0  0  0  0  0
   36.5540   32.0560   35.4160 H   0  0  0  0  0  0  0  0  0  0  0  0
   35.5270   32.9300   37.4920 H   0  0  0  0  0  0  0  0  0  0  0  0
   31.7500   30.4660   36.7780 C   0  0  0  0  0  2  0  0  0  0  0  0
   31.5910   28.9710   36.5250 C   0  0  0  0  0  2  0  0  0  0  0  0
   30.5050   28.7530   36.5270 H   0  0  0  0  0  0  0  0  0  0  0  0
  1  2  1  0  0  0  0
  2  7  2  0  0  0  0
  2  3  1  0  0  0  0
  3  4  2  0  0  0  0
  4  5  1  0  0  0  0
  4  8  1  0  0  0  0
  5 20  1  0  0  0  0
  6  9  1  0  0  0  0
  6  5  2  0  0  0  0
  7  6  1  0  0  0  0
 10  7  1  0  0  0  0
 11 16  1  0  0  0  0
 11 17  1  0  0  0  0
 12 11  2  0  0  0  0
 13 14  2  0  0  0  0
 13 12  1  0  0  0  0
 14 15  1  0  0  0  0
 15  3  1  0  0  0  0
 15 16  2  0  0  0  0
 18 12  1  0  0  0  0
 19 13  1  0  0  0  0
 20 25  2  0  0  0  0
 20 21  1  0  0  0  0
 21 22  2  0  0  0  0
 22 23  1  0  0  0  0
 22 27  1  0  0  0  0
 24 28  1  0  0  0  0
 24 23  2  0  0  0  0
 25 24  1  0  0  0  0
 26 21  1  0  0  0  0
 29 30  1  0  0  0  0
 29 28  1  0  0  0  0
M  END
>  <minimizedAffinity>
-5.50109863

$$$$

 OpenBabel03272510213D

 30 32  0  0  0  0  0  0  0  0999 V2000
   36.2690   27.9830   31.8080 Br  0  0  0  0  0  0  0  0  0  0  0  0
   36.1750   26.0750   31.7630 C   0  0  0  0  0  0  0  0  0  0  0  0
   37.0060   25.2960   32.5780 C   0  0  0  0  0  0  0  0  0  0  0  0
   36.8800   23.9360   32.4900 C   0  0  0  0  0  0  0  0  0  0  0  0
   35.9920   23.3050   31.6540 C   0  0  0  0  0  0  0  0  0  0  0  0
   35.1860   24.0830   30.8640 C   0  0  0  0  0  0  0  0  0  0  0  0
   35.2890   25.4570   30.9300 C   0  0  0  0  0  0  0  0  0  0  0  0
   37.4940   23.2660   33.0930 H   0  0  0  0  0  0  0  0  0  0  0  0
   34.4750   23.6090   30.1940 H   0  0  0  0  0  0  0  0  0  0  0  0
   34.6230   26.0250   30.2790 H   0  0  0  0  0  0  0  0  0  0  0  0
   40.1370   26.7360   33.7640 C   0  0  0  0  0  0  0  0  0  0  0  0
   39.8440   27.1220   35.0970 C   0  0  0  0  0  0  0  0  0  0  0  0
   38.5550   26.8740   35.5700 C   0  0  0  0  0  0  0  0  0  0  0  0
   37.6390   26.2780   34.7340 N   0  0  0  0  0  0  0  0  0  0  0  0
   37.9590   25.9280   33.4760 C   0  0  0  0  0  0  0  0  0  0  0  0
   39.2190   26.1600   32.9900 N   0  0  0  0  0  0  0  0  0  0  0  0
   41.1240   26.9040   33.3430 H   0  0  0  0  0  0  0  0  0  0  0  0
   40.5920   27.5840   35.7090 H   0  0  0  0  0  0  0  0  0  0  0  0
   38.2660   27.1420   36.5720 H   0  0  0  0  0  0  0  0  0  0  0  0
   35.8600   21.8530   31.5620 C   0  0  0  0  0  0  0  0  0  0  0  0
   35.0180   21.0860   32.3300 C   0  0  0  0  0  0  0  0  0  0  0  0
   34.9270   19.7120   32.2070 C   0  0  0  0  0  0  0  0  0  0  0  0
   35.6840   19.0900   31.3090 N   0  0  0  0  0  0  0  0  0  0  0  0
   36.5230   19.8200   30.5410 C   0  0  0  0  0  0  0  0  0  0  0  0
   36.5930   21.1530   30.6780 N   0  0  0  0  0  0  0  0  0  0  0  0
   34.3960   21.6010   33.0680 H   0  0  0  0  0  0  0  0  0  0  0  0
   34.2470   19.1400   32.8340 H   0  0  0  0  0  0  0  0  0  0  0  0
   37.3890   19.1680   29.5220 C   0  0  0  0  0  2  0  0  0  0  0  0
   36.5860   18.6960   28.3150 C   0  0  0  0  0  2  0  0  0  0  0  0
   37.2240   17.9850   27.7560 H   0  0  0  0  0  0  0  0  0  0  0  0
  2  1  1  0  0  0  0
  2  3  1  0  0  0  0
  3 15  1  0  0  0  0
  4  3  2  0  0  0  0
  4  8  1  0  0  0  0
  5  4  1  0  0  0  0
  6  7  1  0  0  0  0
  6  5  2  0  0  0  0
  7  2  2  0  0  0  0
  9  6  1  0  0  0  0
 10  7  1  0  0  0  0
 11 12  1  0  0  0  0
 12 13  2  0  0  0  0
 12 18  1  0  0  0  0
 13 19  1  0  0  0  0
 14 13  1  0  0  0  0
 15 14  2  0  0  0  0
 16 15  1  0  0  0  0
 16 11  2  0  0  0  0
 17 11  1  0  0  0  0
 20  5  1  0  0  0  0
 20 21  1  0  0  0  0
 21 26  1  0  0  0  0
 22 21  2  0  0  0  0
 22 27  1  0  0  0  0
 23 22  1  0  0  0  0
 24 25  1  0  0  0  0
 24 23  2  0  0  0  0
 25 20  2  0  0  0  0
 28 24  1  0  0  0  0
 29 28  1  0  0  0  0
 30 29  1  0  0  0  0
M  END
>  <minimizedAffinity>
-5.32411909

$$$$

 OpenBabel03272510213D

 30 32  0  0  0  0  0  0  0  0999 V2000
   34.8820   32.2780   32.4970 Br  0  0  0  0  0  0  0  0  0  0  0  0
   35.5620   30.5320   32.8710 C   0  0  0  0  0  0  0  0  0  0  0  0
   35.4510   29.9780   34.1530 C   0  0  0  0  0  0  0  0  0  0  0  0
   35.9610   28.7230   34.3440 C   0  0  0  0  0  0  0  0  0  0  0  0
   36.5690   27.9890   33.3550 C   0  0  0  0  0  0  0  0  0  0  0  0
   36.6680   28.5460   32.1070 C   0  0  0  0  0  0  0  0  0  0  0  0
   36.1640   29.8090   31.8820 C   0  0  0  0  0  0  0  0  0  0  0  0
   35.9120   28.2280   35.3140 H   0  0  0  0  0  0  0  0  0  0  0  0
   37.1440   27.9860   31.3070 H   0  0  0  0  0  0  0  0  0  0  0  0
   36.2710   30.2030   30.8700 H   0  0  0  0  0  0  0  0  0  0  0  0
   32.8270   31.1940   36.3710 C   0  0  0  0  0  0  0  0  0  0  0  0
   33.5070   32.0940   37.2320 C   0  0  0  0  0  0  0  0  0  0  0  0
   34.8760   32.2680   37.0290 C   0  0  0  0  0  0  0  0  0  0  0  0
   35.4970   31.5690   36.0190 N   0  0  0  0  0  0  0  0  0  0  0  0
   34.8140   30.7250   35.2250 C   0  0  0  0  0  0  0  0  0  0  0  0
   33.4680   30.5390   35.4050 N   0  0  0  0  0  0  0  0  0  0  0  0
   31.7610   31.0200   36.4820 H   0  0  0  0  0  0  0  0  0  0  0  0
   32.9790   32.6150   38.0040 H   0  0  0  0  0  0  0  0  0  0  0  0
   35.4520   32.9350   37.6460 H   0  0  0  0  0  0  0  0  0  0  0  0
   37.1130   26.6490   33.5620 C   0  0  0  0  0  0  0  0  0  0  0  0
   37.8080   26.2410   34.6740 C   0  0  0  0  0  0  0  0  0  0  0  0
   38.3040   24.9590   34.8260 C   0  0  0  0  0  0  0  0  0  0  0  0
   38.1070   24.0690   33.8590 N   0  0  0  0  0  0  0  0  0  0  0  0
   37.4260   24.4440   32.7520 C   0  0  0  0  0  0  0  0  0  0  0  0
   36.9540   25.6930   32.6280 N   0  0  0  0  0  0  0  0  0  0  0  0
   37.9680   26.9760   35.4680 H   0  0  0  0  0  0  0  0  0  0  0  0
   38.8490   24.6760   35.7220 H   0  0  0  0  0  0  0  0  0  0  0  0
   37.1810   23.4820   31.6430 C   0  0  0  0  0  2  0  0  0  0  0  0
   35.7120   23.4520   31.2360 C   0  0  0  0  0  2  0  0  0  0  0  0
   35.5590   22.5360   30.6330 H   0  0  0  0  0  0  0  0  0  0  0  0
  1  2  1  0  0  0  0
  2  3  1  0  0  0  0
  3  4  2  0  0  0  0
  3 15  1  0  0  0  0
  4  8  1  0  0  0  0
  5 20  1  0  0  0  0
  5  4  1  0  0  0  0
  6  5  2  0  0  0  0
  7  6  1  0  0  0  0
  7  2  2  0  0  0  0
  9  6  1  0  0  0  0
 10  7  1  0  0  0  0
 11 17  1  0  0  0  0
 11 12  1  0  0  0  0
 12 18  1  0  0  0  0
 13 12  2  0  0  0  0
 13 19  1  0  0  0  0
 14 13  1  0  0  0  0
 15 16  1  0  0  0  0
 15 14  2  0  0  0  0
 16 11  2  0  0  0  0
 20 21  1  0  0  0  0
 21 22  2  0  0  0  0
 21 26  1  0  0  0  0
 22 27  1  0  0  0  0
 23 22  1  0  0  0  0
 24 23  2  0  0  0  0
 25 24  1  0  0  0  0
 25 20  2  0  0  0  0
 28 24  1  0  0  0  0
 29 28  1  0  0  0  0
 30 29  1  0  0  0  0
M  END
>  <minimizedAffinity>
-5.30935049

$$$$

 OpenBabel03272510213D

 30 32  0  0  0  0  0  0  0  0999 V2000
   37.9930   28.0560   31.0700 Br  0  0  0  0  0  0  0  0  0  0  0  0
   38.1360   27.0390   32.6810 C   0  0  0  0  0  0  0  0  0  0  0  0
   37.2700   27.2720   33.7560 C   0  0  0  0  0  0  0  0  0  0  0  0
   37.4340   26.5030   34.8770 C   0  0  0  0  0  0  0  0  0  0  0  0
   38.3930   25.5280   34.9970 C   0  0  0  0  0  0  0  0  0  0  0  0
   39.2320   25.3130   33.9350 C   0  0  0  0  0  0  0  0  0  0  0  0
   39.0920   26.0710   32.7920 C   0  0  0  0  0  0  0  0  0  0  0  0
   36.7980   26.6290   35.7530 H   0  0  0  0  0  0  0  0  0  0  0  0
   39.9980   24.5470   34.0050 H   0  0  0  0  0  0  0  0  0  0  0  0
   39.7870   25.8570   31.9790 H   0  0  0  0  0  0  0  0  0  0  0  0
   35.3220   30.2340   34.6040 C   0  0  0  0  0  0  0  0  0  0  0  0
   34.3350   30.2870   33.5860 C   0  0  0  0  0  0  0  0  0  0  0  0
   34.3580   29.2880   32.6140 C   0  0  0  0  0  0  0  0  0  0  0  0
   35.3240   28.3100   32.6830 N   0  0  0  0  0  0  0  0  0  0  0  0
   36.2420   28.2970   33.6650 C   0  0  0  0  0  0  0  0  0  0  0  0
   36.2380   29.2680   34.6320 N   0  0  0  0  0  0  0  0  0  0  0  0
   35.3520   30.9850   35.3870 H   0  0  0  0  0  0  0  0  0  0  0  0
   33.6030   31.0690   33.5760 H   0  0  0  0  0  0  0  0  0  0  0  0
   33.6380   29.2680   31.8140 H   0  0  0  0  0  0  0  0  0  0  0  0
   38.5650   24.7090   36.1950 C   0  0  0  0  0  0  0  0  0  0  0  0
   37.8090   24.8080   37.3360 C   0  0  0  0  0  0  0  0  0  0  0  0
   38.0090   24.0090   38.4470 C   0  0  0  0  0  0  0  0  0  0  0  0
   38.9750   23.0980   38.4240 N   0  0  0  0  0  0  0  0  0  0  0  0
   39.7370   22.9790   37.3130 C   0  0  0  0  0  0  0  0  0  0  0  0
   39.5230   23.7650   36.2470 N   0  0  0  0  0  0  0  0  0  0  0  0
   37.0130   25.5590   37.3530 H   0  0  0  0  0  0  0  0  0  0  0  0
   37.3870   24.1190   39.3320 H   0  0  0  0  0  0  0  0  0  0  0  0
   40.8310   21.9720   37.2400 C   0  0  0  0  0  2  0  0  0  0  0  0
   41.5990   22.0660   35.9260 C   0  0  0  0  0  2  0  0  0  0  0  0
   42.1820   21.1300   35.8210 H   0  0  0  0  0  0  0  0  0  0  0  0
  1  2  1  0  0  0  0
  2  7  2  0  0  0  0
  2  3  1  0  0  0  0
  3  4  2  0  0  0  0
  4  5  1  0  0  0  0
  4  8  1  0  0  0  0
  5 20  1  0  0  0  0
  6  9  1  0  0  0  0
  6  5  2  0  0  0  0
  7  6  1  0  0  0  0
 10  7  1  0  0  0  0
 11 16  1  0  0  0  0
 11 17  1  0  0  0  0
 12 11  2  0  0  0  0
 13 14  2  0  0  0  0
 13 12  1  0  0  0  0
 14 15  1  0  0  0  0
 15  3  1  0  0  0  0
 15 16  2  0  0  0  0
 18 12  1  0  0  0  0
 19 13  1  0  0  0  0
 20 25  2  0  0  0  0
 20 21  1  0  0  0  0
 21 26  1  0  0  0  0
 21 22  2  0  0  0  0
 22 27  1  0  0  0  0
 23 22  1  0  0  0  0
 24 23  2  0  0  0  0
 25 24  1  0  0  0  0
 28 24  1  0  0  0  0
 29 28  1  0  0  0  0
 30 29  1  0  0  0  0
M  END
>  <minimizedAffinity>
-5.30267811

$$$$

 OpenBabel03272510213D

 30 32  0  0  0  0  0  0  0  0999 V2000
   40.4760   24.2070   34.3190 Br  0  0  0  0  0  0  0  0  0  0  0  0
   39.1450   25.5530   34.0590 C   0  0  0  0  0  0  0  0  0  0  0  0
   38.0770   25.6880   34.9560 C   0  0  0  0  0  0  0  0  0  0  0  0
   37.1630   26.6750   34.7040 C   0  0  0  0  0  0  0  0  0  0  0  0
   37.2390   27.5280   33.6300 C   0  0  0  0  0  0  0  0  0  0  0  0
   38.2900   27.3810   32.7630 C   0  0  0  0  0  0  0  0  0  0  0  0
   39.2280   26.3960   32.9900 C   0  0  0  0  0  0  0  0  0  0  0  0
   36.3070   26.8400   35.3570 H   0  0  0  0  0  0  0  0  0  0  0  0
   38.3730   28.0430   31.9060 H   0  0  0  0  0  0  0  0  0  0  0  0
   40.0420   26.3250   32.2670 H   0  0  0  0  0  0  0  0  0  0  0  0
   38.1030   24.5920   38.4320 C   0  0  0  0  0  0  0  0  0  0  0  0
   37.7740   23.2140   38.3510 C   0  0  0  0  0  0  0  0  0  0  0  0
   37.5460   22.6810   37.0820 C   0  0  0  0  0  0  0  0  0  0  0  0
   37.6490   23.5020   35.9830 N   0  0  0  0  0  0  0  0  0  0  0  0
   37.9640   24.8040   36.1050 C   0  0  0  0  0  0  0  0  0  0  0  0
   38.1930   25.3500   37.3410 N   0  0  0  0  0  0  0  0  0  0  0  0
   38.2920   25.0610   39.3930 H   0  0  0  0  0  0  0  0  0  0  0  0
   37.7060   22.6160   39.2360 H   0  0  0  0  0  0  0  0  0  0  0  0
   37.2920   21.6430   36.9490 H   0  0  0  0  0  0  0  0  0  0  0  0
   36.2620   28.5800   33.3640 C   0  0  0  0  0  0  0  0  0  0  0  0
   35.7510   28.8900   32.1280 C   0  0  0  0  0  0  0  0  0  0  0  0
   34.8250   29.8970   31.9240 C   0  0  0  0  0  0  0  0  0  0  0  0
   34.4010   30.6070   32.9640 N   0  0  0  0  0  0  0  0  0  0  0  0
   34.8890   30.3250   34.1940 C   0  0  0  0  0  0  0  0  0  0  0  0
   35.7850   29.3420   34.3660 N   0  0  0  0  0  0  0  0  0  0  0  0
   36.1010   28.3040   31.2730 H   0  0  0  0  0  0  0  0  0  0  0  0
   34.4440   30.1110   30.9290 H   0  0  0  0  0  0  0  0  0  0  0  0
   34.4430   31.0920   35.3880 C   0  0  0  0  0  2  0  0  0  0  0  0
   35.6230   31.6720   36.1590 C   0  0  0  0  0  2  0  0  0  0  0  0
   35.2470   31.9670   37.1590 H   0  0  0  0  0  0  0  0  0  0  0  0
  2  1  1  0  0  0  0
  2  3  1  0  0  0  0
  3 15  1  0  0  0  0
  4  3  2  0  0  0  0
  4  8  1  0  0  0  0
  5  4  1  0  0  0  0
  6  7  1  0  0  0  0
  6  5  2  0  0  0  0
  7  2  2  0  0  0  0
  9  6  1  0  0  0  0
 10  7  1  0  0  0  0
 11 17  1  0  0  0  0
 12 11  1  0  0  0  0
 12 18  1  0  0  0  0
 13 12  2  0  0  0  0
 14 15  2  0  0  0  0
 14 13  1  0  0  0  0
 15 16  1  0  0  0  0
 16 11  2  0  0  0  0
 19 13  1  0  0  0  0
 20  5  1  0  0  0  0
 20 25  1  0  0  0  0
 21 20  2  0  0  0  0
 22 21  1  0  0  0  0
 22 23  2  0  0  0  0
 23 24  1  0  0  0  0
 24 25  2  0  0  0  0
 24 28  1  0  0  0  0
 26 21  1  0  0  0  0
 27 22  1  0  0  0  0
 28 29  1  0  0  0  0
 29 30  1  0  0  0  0
M  END
>  <minimizedAffinity>
-5.08009815

$$$$

 OpenBabel03272510213D

 30 32  0  0  0  0  0  0  0  0999 V2000
   38.6320   26.9290   30.8680 Br  0  0  0  0  0  0  0  0  0  0  0  0
   37.4320   27.8060   32.0670 C   0  0  0  0  0  0  0  0  0  0  0  0
   37.4650   27.5360   33.4410 C   0  0  0  0  0  0  0  0  0  0  0  0
   36.5750   28.2050   34.2370 C   0  0  0  0  0  0  0  0  0  0  0  0
   35.6620   29.1140   33.7620 C   0  0  0  0  0  0  0  0  0  0  0  0
   35.6430   29.3660   32.4150 C   0  0  0  0  0  0  0  0  0  0  0  0
   36.5280   28.7090   31.5860 C   0  0  0  0  0  0  0  0  0  0  0  0
   36.5420   28.0460   35.3150 H   0  0  0  0  0  0  0  0  0  0  0  0
   34.9310   30.0810   32.0150 H   0  0  0  0  0  0  0  0  0  0  0  0
   36.4680   28.9490   30.5240 H   0  0  0  0  0  0  0  0  0  0  0  0
   40.5600   26.2360   34.8620 C   0  0  0  0  0  0  0  0  0  0  0  0
   40.2990   24.8500   35.0180 C   0  0  0  0  0  0  0  0  0  0  0  0
   39.0460   24.3820   34.6250 C   0  0  0  0  0  0  0  0  0  0  0  0
   38.1300   25.2730   34.1120 N   0  0  0  0  0  0  0  0  0  0  0  0
   38.4180   26.5800   33.9810 C   0  0  0  0  0  0  0  0  0  0  0  0
   39.6440   27.0620   34.3590 N   0  0  0  0  0  0  0  0  0  0  0  0
   41.5180   26.6560   35.1500 H   0  0  0  0  0  0  0  0  0  0  0  0
   41.0450   24.1970   35.4220 H   0  0  0  0  0  0  0  0  0  0  0  0
   38.7830   23.3420   34.7160 H   0  0  0  0  0  0  0  0  0  0  0  0
   34.7120   29.8260   34.6140 C   0  0  0  0  0  0  0  0  0  0  0  0
   33.3830   29.5110   34.7520 C   0  0  0  0  0  0  0  0  0  0  0  0
   32.5210   30.2140   35.5720 C   0  0  0  0  0  0  0  0  0  0  0  0
   32.9860   31.2470   36.2670 N   0  0  0  0  0  0  0  0  0  0  0  0
   34.2910   31.5810   36.1500 C   0  0  0  0  0  0  0  0  0  0  0  0
   35.1080   30.8820   35.3480 N   0  0  0  0  0  0  0  0  0  0  0  0
   33.0020   28.6590   34.1790 H   0  0  0  0  0  0  0  0  0  0  0  0
   31.4740   29.9320   35.6540 H   0  0  0  0  0  0  0  0  0  0  0  0
   34.8580   32.7290   36.9090 C   0  0  0  0  0  2  0  0  0  0  0  0
   33.7690   33.5430   37.5980 C   0  0  0  0  0  2  0  0  0  0  0  0
   34.2200   34.5130   37.8860 H   0  0  0  0  0  0  0  0  0  0  0  0
  1  2  1  0  0  0  0
  2  3  1  0  0  0  0
  3 15  1  0  0  0  0
  3  4  2  0  0  0  0
  4  8  1  0  0  0  0
  5  4  1  0  0  0  0
  5 20  1  0  0  0  0
  6  5  2  0  0  0  0
  7  2  2  0  0  0  0
  7  6  1  0  0  0  0
  9  6  1  0  0  0  0
 10  7  1  0  0  0  0
 11 12  1  0  0  0  0
 11 17  1  0  0  0  0
 12 18  1  0  0  0  0
 13 19  1  0  0  0  0
 13 12  2  0  0  0  0
 14 13  1  0  0  0  0
 15 14  2  0  0  0  0
 15 16  1  0  0  0  0
 16 11  2  0  0  0  0
 20 21  2  0  0  0  0
 20 25  1  0  0  0  0
 21 22  1  0  0  0  0
 22 27  1  0  0  0  0
 22 23  2  0  0  0  0
 24 23  1  0  0  0  0
 24 28  1  0  0  0  0
 25 24  2  0  0  0  0
 26 21  1  0  0  0  0
 28 29  1  0  0  0  0
 29 30  1  0  0  0  0
M  END
>  <minimizedAffinity>
-5.07713175

$$$$

 OpenBabel03272510213D

 30 32  0  0  0  0  0  0  0  0999 V2000
   37.9480   26.3430   31.1320 Br  0  0  0  0  0  0  0  0  0  0  0  0
   37.1200   27.5290   32.3820 C   0  0  0  0  0  0  0  0  0  0  0  0
   37.4040   27.4400   33.7510 C   0  0  0  0  0  0  0  0  0  0  0  0
   36.7730   28.3240   34.5840 C   0  0  0  0  0  0  0  0  0  0  0  0
   35.8880   29.2800   34.1510 C   0  0  0  0  0  0  0  0  0  0  0  0
   35.6230   29.3530   32.8080 C   0  0  0  0  0  0  0  0  0  0  0  0
   36.2430   28.4770   31.9420 C   0  0  0  0  0  0  0  0  0  0  0  0
   36.9430   28.3140   35.6600 H   0  0  0  0  0  0  0  0  0  0  0  0
   34.9260   30.1010   32.4400 H   0  0  0  0  0  0  0  0  0  0  0  0
   35.9940   28.5800   30.8860 H   0  0  0  0  0  0  0  0  0  0  0  0
   40.5590   25.9280   34.7730 C   0  0  0  0  0  0  0  0  0  0  0  0
   40.1880   24.6190   35.1740 C   0  0  0  0  0  0  0  0  0  0  0  0
   38.8390   24.2760   35.0840 C   0  0  0  0  0  0  0  0  0  0  0  0
   37.9410   25.2090   34.6170 N   0  0  0  0  0  0  0  0  0  0  0  0
   38.3360   26.4400   34.2470 C   0  0  0  0  0  0  0  0  0  0  0  0
   39.6560   26.7990   34.3260 N   0  0  0  0  0  0  0  0  0  0  0  0
   41.5950   26.2500   34.8210 H   0  0  0  0  0  0  0  0  0  0  0  0
   40.9240   23.9280   35.5310 H   0  0  0  0  0  0  0  0  0  0  0  0
   38.4890   23.2990   35.3720 H   0  0  0  0  0  0  0  0  0  0  0  0
   35.2160   30.2220   35.0430 C   0  0  0  0  0  0  0  0  0  0  0  0
   35.8310   31.2480   35.7170 C   0  0  0  0  0  0  0  0  0  0  0  0
   35.1530   32.1170   36.5520 C   0  0  0  0  0  0  0  0  0  0  0  0
   33.8440   31.9640   36.7200 N   0  0  0  0  0  0  0  0  0  0  0  0
   33.2120   30.9600   36.0700 C   0  0  0  0  0  0  0  0  0  0  0  0
   33.8920   30.1310   35.2640 N   0  0  0  0  0  0  0  0  0  0  0  0
   36.9090   31.3720   35.5760 H   0  0  0  0  0  0  0  0  0  0  0  0
   35.6770   32.9170   37.0680 H   0  0  0  0  0  0  0  0  0  0  0  0
   31.7470   30.7500   36.2270 C   0  0  0  0  0  2  0  0  0  0  0  0
   31.3550   29.2980   35.9810 C   0  0  0  0  0  2  0  0  0  0  0  0
   30.2580   29.2770   35.8290 H   0  0  0  0  0  0  0  0  0  0  0  0
  1  2  1  0  0  0  0
  2  3  1  0  0  0  0
  3 15  1  0  0  0  0
  3  4  2  0  0  0  0
  4  8  1  0  0  0  0
  5  4  1  0  0  0  0
  5 20  1  0  0  0  0
  6  5  2  0  0  0  0
  7  2  2  0  0  0  0
  7  6  1  0  0  0  0
  9  6  1  0  0  0  0
 10  7  1  0  0  0  0
 11 17  1  0  0  0  0
 11 12  1  0  0  0  0
 12 18  1  0  0  0  0
 13 12  2  0  0  0  0
 13 19  1  0  0  0  0
 14 13  1  0  0  0  0
 15 16  1  0  0  0  0
 15 14  2  0  0  0  0
 16 11  2  0  0  0  0
 20 25  2  0  0  0  0
 20 21  1  0  0  0  0
 21 22  2  0  0  0  0
 22 23  1  0  0  0  0
 22 27  1  0  0  0  0
 24 28  1  0  0  0  0
 24 23  2  0  0  0  0
 25 24  1  0  0  0  0
 26 21  1  0  0  0  0
 29 28  1  0  0  0  0
 30 29  1  0  0  0  0
M  END
>  <minimizedAffinity>
-4.99927902

$$$$

 OpenBabel03272510213D

 30 32  0  0  0  0  0  0  0  0999 V2000
   37.3210   28.1790   31.3800 Br  0  0  0  0  0  0  0  0  0  0  0  0
   37.7290   27.0570   32.8720 C   0  0  0  0  0  0  0  0  0  0  0  0
   38.6360   25.9970   32.7450 C   0  0  0  0  0  0  0  0  0  0  0  0
   38.8780   25.2380   33.8580 C   0  0  0  0  0  0  0  0  0  0  0  0
   38.2840   25.4610   35.0760 C   0  0  0  0  0  0  0  0  0  0  0  0
   37.4010   26.5020   35.1810 C   0  0  0  0  0  0  0  0  0  0  0  0
   37.1350   27.2860   34.0780 C   0  0  0  0  0  0  0  0  0  0  0  0
   39.5710   24.3970   33.8340 H   0  0  0  0  0  0  0  0  0  0  0  0
   36.9180   26.7000   36.1340 H   0  0  0  0  0  0  0  0  0  0  0  0
   36.4240   28.1010   34.2210 H   0  0  0  0  0  0  0  0  0  0  0  0
   41.0980   26.1920   30.0640 C   0  0  0  0  0  0  0  0  0  0  0  0
   40.5970   25.2980   29.0840 C   0  0  0  0  0  0  0  0  0  0  0  0
   39.4030   24.6360   29.3680 C   0  0  0  0  0  0  0  0  0  0  0  0
   38.7740   24.8740   30.5690 N   0  0  0  0  0  0  0  0  0  0  0  0
   39.2850   25.7310   31.4710 C   0  0  0  0  0  0  0  0  0  0  0  0
   40.4560   26.3940   31.2130 N   0  0  0  0  0  0  0  0  0  0  0  0
   42.0230   26.7360   29.8980 H   0  0  0  0  0  0  0  0  0  0  0  0
   41.1230   25.1460   28.1640 H   0  0  0  0  0  0  0  0  0  0  0  0
   38.9670   23.9440   28.6670 H   0  0  0  0  0  0  0  0  0  0  0  0
   38.5450   24.6490   36.2620 C   0  0  0  0  0  0  0  0  0  0  0  0
   37.8560   24.7350   37.4470 C   0  0  0  0  0  0  0  0  0  0  0  0
   38.1390   23.9440   38.5440 C   0  0  0  0  0  0  0  0  0  0  0  0
   39.1210   23.0520   38.4640 N   0  0  0  0  0  0  0  0  0  0  0  0
   39.8180   22.9460   37.3100 C   0  0  0  0  0  0  0  0  0  0  0  0
   39.5240   23.7250   36.2580 N   0  0  0  0  0  0  0  0  0  0  0  0
   37.0470   25.4700   37.5090 H   0  0  0  0  0  0  0  0  0  0  0  0
   37.5690   24.0430   39.4640 H   0  0  0  0  0  0  0  0  0  0  0  0
   40.9260   21.9630   37.1730 C   0  0  0  0  0  2  0  0  0  0  0  0
   42.1770   22.6000   36.5800 C   0  0  0  0  0  2  0  0  0  0  0  0
   42.8360   21.7750   36.2450 H   0  0  0  0  0  0  0  0  0  0  0  0
  1  2  1  0  0  0  0
  2  7  1  0  0  0  0
  3  2  2  0  0  0  0
  3  4  1  0  0  0  0
  4  5  2  0  0  0  0
  5  6  1  0  0  0  0
  5 20  1  0  0  0  0
  6  9  1  0  0  0  0
  7 10  1  0  0  0  0
  7  6  2  0  0  0  0
  8  4  1  0  0  0  0
 11 16  1  0  0  0  0
 12 13  1  0  0  0  0
 12 11  2  0  0  0  0
 13 14  2  0  0  0  0
 14 15  1  0  0  0  0
 15  3  1  0  0  0  0
 16 15  2  0  0  0  0
 17 11  1  0  0  0  0
 18 12  1  0  0  0  0
 19 13  1  0  0  0  0
 20 21  1  0  0  0  0
 21 26  1  0  0  0  0
 21 22  2  0  0  0  0
 22 27  1  0  0  0  0
 23 22  1  0  0  0  0
 24 23  2  0  0  0  0
 25 20  2  0  0  0  0
 25 24  1  0  0  0  0
 28 24  1  0  0  0  0
 29 28  1  0  0  0  0
 30 29  1  0  0  0  0
M  END
>  <minimizedAffinity>
-4.99716759

$$$$
