
 OpenBabel03272502363D

 30 31  0  0  1  0  0  0  0  0999 V2000
   39.4230   23.2390   35.7650 C   0  0  2  0  0  0  0  0  0  0  0  0
   40.0760   22.6240   36.4140 H   0  0  0  0  0  0  0  0  0  0  0  0
   40.1180   24.4100   35.1990 C   0  0  0  0  0  0  0  0  0  0  0  0
   39.3620   25.6070   35.3110 C   0  0  0  0  0  0  0  0  0  0  0  0
   39.8060   26.8300   34.8520 C   0  0  0  0  0  0  0  0  0  0  0  0
   41.0630   26.9420   34.2340 C   0  0  0  0  0  0  0  0  0  0  0  0
   41.7300   25.7240   34.1680 C   0  0  0  0  0  0  0  0  0  0  0  0
   41.3190   24.5330   34.6050 N   0  0  0  0  0  0  0  0  0  0  0  0
   38.3680   25.7760   35.7480 H   0  0  0  0  0  0  0  0  0  0  0  0
   39.2850   27.7740   34.9050 H   0  0  0  0  0  0  0  0  0  0  0  0
   41.5240   27.8310   33.8350 H   0  0  0  0  0  0  0  0  0  0  0  0
   42.7210   25.6620   33.7120 H   0  0  0  0  0  0  0  0  0  0  0  0
   37.6340   22.1030   34.6470 C   0  0  0  0  0  3  0  0  0  0  0  0
   38.8970   22.3830   34.6480 C   0  0  0  0  0  3  0  0  0  0  0  0
   35.1830   19.9440   32.8550 C   0  0  0  0  0  0  0  0  0  0  0  0
   35.8040   20.7290   33.8060 C   0  0  0  0  0  0  0  0  0  0  0  0
   37.0340   21.3020   33.6170 C   0  0  0  0  0  0  0  0  0  0  0  0
   37.6260   21.0530   32.4210 N   0  0  0  0  0  0  0  0  0  0  0  0
   37.0470   20.3010   31.4920 C   0  0  0  0  0  0  0  0  0  0  0  0
   35.8300   19.7420   31.6950 N   0  0  0  0  0  0  0  0  0  0  0  0
   34.2150   19.4810   32.9790 H   0  0  0  0  0  0  0  0  0  0  0  0
   35.1980   20.8260   34.6950 H   0  0  0  0  0  0  0  0  0  0  0  0
   37.6820   20.0200   30.1780 C   0  0  0  0  0  2  0  0  0  0  0  0
   36.7720   19.1750   29.3180 C   0  0  0  0  0  2  0  0  0  0  0  0
   37.3720   18.3420   28.8540 H   0  0  0  0  0  0  0  0  0  0  0  0
   37.9730   23.8930   36.6620 S   0  0  0  0  0  0  0  0  0  0  0  0
   38.1580   23.6760   38.4220 C   0  0  0  0  0  0  0  0  0  0  0  0
   37.2670   22.7610   38.9600 F   0  0  0  0  0  0  0  0  0  0  0  0
   39.4680   23.3680   38.7570 F   0  0  0  0  0  0  0  0  0  0  0  0
   37.8850   24.9270   39.0100 F   0  0  0  0  0  0  0  0  0  0  0  0
  1  2  1  1  0  0  0
  1 26  1  0  0  0  0
  3  4  1  0  0  0  0
  3  1  1  0  0  0  0
  4  9  1  0  0  0  0
  5 10  1  0  0  0  0
  5  4  2  0  0  0  0
  6  5  1  0  0  0  0
  7  6  2  0  0  0  0
  7  8  1  0  0  0  0
  8  3  2  0  0  0  0
 11  6  1  0  0  0  0
 12  7  1  0  0  0  0
 13 14  2  0  0  0  0
 14  1  1  0  0  0  0
 15 21  1  0  0  0  0
 15 16  1  0  0  0  0
 16 22  1  0  0  0  0
 17 16  2  0  0  0  0
 17 13  1  0  0  0  0
 18 17  1  0  0  0  0
 19 20  1  0  0  0  0
 19 18  2  0  0  0  0
 20 15  2  0  0  0  0
 23 19  1  0  0  0  0
 24 23  1  0  0  0  0
 25 24  1  0  0  0  0
 26 27  1  0  0  0  0
 27 29  1  0  0  0  0
 27 28  1  0  0  0  0
 27 30  1  0  0  0  0
M  END
>  <minimizedAffinity>
-5.41904306

$$$$

 OpenBabel03272502363D

 30 31  0  0  1  0  0  0  0  0999 V2000
   39.7930   22.8400   36.1380 C   0  0  2  0  0  0  0  0  0  0  0  0
   39.9210   22.0230   36.8740 H   0  0  0  0  0  0  0  0  0  0  0  0
   41.0400   23.5880   35.8890 C   0  0  0  0  0  0  0  0  0  0  0  0
   42.1630   23.0210   36.5460 C   0  0  0  0  0  0  0  0  0  0  0  0
   43.4360   23.5470   36.4620 C   0  0  0  0  0  0  0  0  0  0  0  0
   43.6770   24.7010   35.6990 C   0  0  0  0  0  0  0  0  0  0  0  0
   42.5240   25.1850   35.0930 C   0  0  0  0  0  0  0  0  0  0  0  0
   41.2850   24.6930   35.1610 N   0  0  0  0  0  0  0  0  0  0  0  0
   42.2310   22.1320   37.1900 H   0  0  0  0  0  0  0  0  0  0  0  0
   44.3300   23.1680   36.9340 H   0  0  0  0  0  0  0  0  0  0  0  0
   44.6170   25.2100   35.5520 H   0  0  0  0  0  0  0  0  0  0  0  0
   42.5630   26.0800   34.4680 H   0  0  0  0  0  0  0  0  0  0  0  0
   38.0230   22.3280   34.6070 C   0  0  0  0  0  3  0  0  0  0  0  0
   39.2920   22.2600   34.8450 C   0  0  0  0  0  3  0  0  0  0  0  0
   37.4170   21.7380   30.9780 C   0  0  0  0  0  0  0  0  0  0  0  0
   37.9350   22.1950   32.1740 C   0  0  0  0  0  0  0  0  0  0  0  0
   37.4480   21.8130   33.3960 C   0  0  0  0  0  0  0  0  0  0  0  0
   36.4080   20.9400   33.3730 N   0  0  0  0  0  0  0  0  0  0  0  0
   35.8940   20.4870   32.2350 C   0  0  0  0  0  0  0  0  0  0  0  0
   36.3870   20.8760   31.0350 N   0  0  0  0  0  0  0  0  0  0  0  0
   37.7810   22.0240   30.0020 H   0  0  0  0  0  0  0  0  0  0  0  0
   38.7550   22.8780   32.0120 H   0  0  0  0  0  0  0  0  0  0  0  0
   34.7560   19.5320   32.1930 C   0  0  0  0  0  2  0  0  0  0  0  0
   35.2240   18.1340   32.5220 C   0  0  0  0  0  2  0  0  0  0  0  0
   34.7800   17.4130   31.7800 H   0  0  0  0  0  0  0  0  0  0  0  0
   38.5610   24.0730   36.6810 S   0  0  0  0  0  0  0  0  0  0  0  0
   38.1410   23.8460   38.3990 C   0  0  0  0  0  0  0  0  0  0  0  0
   37.7530   25.0180   39.0290 F   0  0  0  0  0  0  0  0  0  0  0  0
   37.1940   22.8450   38.5570 F   0  0  0  0  0  0  0  0  0  0  0  0
   39.3090   23.3870   39.0390 F   0  0  0  0  0  0  0  0  0  0  0  0
  1 26  1  0  0  0  0
  1  2  1  1  0  0  0
  3  1  1  0  0  0  0
  3  4  1  0  0  0  0
  4  9  1  0  0  0  0
  5  4  2  0  0  0  0
  5 10  1  0  0  0  0
  6  5  1  0  0  0  0
  7  8  1  0  0  0  0
  7  6  2  0  0  0  0
  8  3  2  0  0  0  0
 11  6  1  0  0  0  0
 12  7  1  0  0  0  0
 13 14  2  0  0  0  0
 14  1  1  0  0  0  0
 15 20  2  0  0  0  0
 15 16  1  0  0  0  0
 16 17  2  0  0  0  0
 17 13  1  0  0  0  0
 18 17  1  0  0  0  0
 19 18  2  0  0  0  0
 20 19  1  0  0  0  0
 21 15  1  0  0  0  0
 22 16  1  0  0  0  0
 23 19  1  0  0  0  0
 23 24  1  0  0  0  0
 25 24  1  0  0  0  0
 26 27  1  0  0  0  0
 27 29  1  0  0  0  0
 27 28  1  0  0  0  0
 27 30  1  0  0  0  0
M  END
>  <minimizedAffinity>
-5.39106321

$$$$

 OpenBabel03272502363D

 30 31  0  0  1  0  0  0  0  0999 V2000
   37.6450   26.1450   32.8350 C   0  0  2  0  0  0  0  0  0  0  0  0
   37.2300   25.2690   32.2990 H   0  0  0  0  0  0  0  0  0  0  0  0
   36.7130   27.2860   32.8780 C   0  0  0  0  0  0  0  0  0  0  0  0
   36.6870   27.9310   34.1420 C   0  0  0  0  0  0  0  0  0  0  0  0
   35.8910   29.0220   34.4210 C   0  0  0  0  0  0  0  0  0  0  0  0
   35.0470   29.5550   33.4330 C   0  0  0  0  0  0  0  0  0  0  0  0
   35.1370   28.8630   32.2310 C   0  0  0  0  0  0  0  0  0  0  0  0
   35.9000   27.8080   31.9400 N   0  0  0  0  0  0  0  0  0  0  0  0
   37.2480   27.7060   35.0610 H   0  0  0  0  0  0  0  0  0  0  0  0
   35.8230   29.5570   35.3570 H   0  0  0  0  0  0  0  0  0  0  0  0
   34.3800   30.3980   33.5200 H   0  0  0  0  0  0  0  0  0  0  0  0
   34.5360   29.1690   31.3720 H   0  0  0  0  0  0  0  0  0  0  0  0
   38.1450   24.4750   34.4790 C   0  0  0  0  0  3  0  0  0  0  0  0
   38.0000   25.7370   34.2370 C   0  0  0  0  0  3  0  0  0  0  0  0
   38.0290   23.8810   38.1560 C   0  0  0  0  0  0  0  0  0  0  0  0
   37.7380   24.3160   36.8780 C   0  0  0  0  0  0  0  0  0  0  0  0
   38.4930   23.9860   35.7840 C   0  0  0  0  0  0  0  0  0  0  0  0
   39.5680   23.1910   36.0230 N   0  0  0  0  0  0  0  0  0  0  0  0
   39.8670   22.7610   37.2440 C   0  0  0  0  0  0  0  0  0  0  0  0
   39.1090   23.0980   38.3150 N   0  0  0  0  0  0  0  0  0  0  0  0
   37.4510   24.1270   39.0340 H   0  0  0  0  0  0  0  0  0  0  0  0
   36.8530   24.9360   36.8650 H   0  0  0  0  0  0  0  0  0  0  0  0
   41.0390   21.8900   37.5220 C   0  0  0  0  0  2  0  0  0  0  0  0
   42.2350   22.3370   36.7160 C   0  0  0  0  0  2  0  0  0  0  0  0
   42.7210   21.4360   36.2470 H   0  0  0  0  0  0  0  0  0  0  0  0
   39.1770   26.7670   32.0590 S   0  0  0  0  0  0  0  0  0  0  0  0
   40.4770   26.9510   33.2640 C   0  0  0  0  0  0  0  0  0  0  0  0
   40.0440   27.5010   34.4600 F   0  0  0  0  0  0  0  0  0  0  0  0
   41.1480   25.7540   33.4670 F   0  0  0  0  0  0  0  0  0  0  0  0
   41.4180   27.8390   32.7060 F   0  0  0  0  0  0  0  0  0  0  0  0
  1  2  1  6  0  0  0
  1  3  1  0  0  0  0
  1 14  1  0  0  0  0
  3  4  1  0  0  0  0
  4  5  2  0  0  0  0
  4  9  1  0  0  0  0
  5 10  1  0  0  0  0
  6 11  1  0  0  0  0
  6  5  1  0  0  0  0
  7  6  2  0  0  0  0
  8  7  1  0  0  0  0
  8  3  2  0  0  0  0
 12  7  1  0  0  0  0
 13 17  1  0  0  0  0
 14 13  2  0  0  0  0
 15 20  1  0  0  0  0
 15 21  1  0  0  0  0
 16 15  2  0  0  0  0
 17 18  2  0  0  0  0
 17 16  1  0  0  0  0
 18 19  1  0  0  0  0
 19 23  1  0  0  0  0
 19 20  2  0  0  0  0
 22 16  1  0  0  0  0
 24 23  1  0  0  0  0
 25 24  1  0  0  0  0
 26  1  1  0  0  0  0
 26 27  1  0  0  0  0
 27 29  1  0  0  0  0
 27 28  1  0  0  0  0
 30 27  1  0  0  0  0
M  END
>  <minimizedAffinity>
-5.10764647

$$$$

 OpenBabel03272502363D

 30 31  0  0  1  0  0  0  0  0999 V2000
   36.7520   25.5460   32.4790 C   0  0  2  0  0  0  0  0  0  0  0  0
   35.6990   25.8400   32.6540 H   0  0  0  0  0  0  0  0  0  0  0  0
   37.6560   25.9840   33.5590 C   0  0  0  0  0  0  0  0  0  0  0  0
   37.1050   27.0250   34.3510 C   0  0  0  0  0  0  0  0  0  0  0  0
   37.7660   27.5970   35.4180 C   0  0  0  0  0  0  0  0  0  0  0  0
   39.0520   27.1580   35.7740 C   0  0  0  0  0  0  0  0  0  0  0  0
   39.5100   26.1390   34.9470 C   0  0  0  0  0  0  0  0  0  0  0  0
   38.8880   25.5730   33.9110 N   0  0  0  0  0  0  0  0  0  0  0  0
   36.1320   27.5310   34.2750 H   0  0  0  0  0  0  0  0  0  0  0  0
   37.4070   28.3890   36.0590 H   0  0  0  0  0  0  0  0  0  0  0  0
   39.6730   27.5170   36.5800 H   0  0  0  0  0  0  0  0  0  0  0  0
   40.4980   25.7000   35.1080 H   0  0  0  0  0  0  0  0  0  0  0  0
   35.8490   23.4530   31.7440 C   0  0  0  0  0  3  0  0  0  0  0  0
   36.8270   24.0520   32.3410 C   0  0  0  0  0  3  0  0  0  0  0  0
   34.9150   19.8660   32.1280 C   0  0  0  0  0  0  0  0  0  0  0  0
   34.9690   21.2390   32.2650 C   0  0  0  0  0  0  0  0  0  0  0  0
   35.8320   22.0290   31.5530 C   0  0  0  0  0  0  0  0  0  0  0  0
   36.6500   21.3810   30.6840 N   0  0  0  0  0  0  0  0  0  0  0  0
   36.6140   20.0610   30.5360 C   0  0  0  0  0  0  0  0  0  0  0  0
   35.7550   19.2950   31.2490 N   0  0  0  0  0  0  0  0  0  0  0  0
   34.2450   19.2210   32.6770 H   0  0  0  0  0  0  0  0  0  0  0  0
   34.2540   21.5910   32.9940 H   0  0  0  0  0  0  0  0  0  0  0  0
   37.5020   19.3370   29.5890 C   0  0  0  0  0  2  0  0  0  0  0  0
   36.7010   18.7530   28.4500 C   0  0  0  0  0  2  0  0  0  0  0  0
   37.0280   17.6890   28.2770 H   0  0  0  0  0  0  0  0  0  0  0  0
   37.4220   26.2580   30.9370 S   0  0  0  0  0  0  0  0  0  0  0  0
   36.8960   27.9490   30.7300 C   0  0  0  0  0  0  0  0  0  0  0  0
   37.6890   28.8580   31.4120 F   0  0  0  0  0  0  0  0  0  0  0  0
   36.7800   28.2800   29.3880 F   0  0  0  0  0  0  0  0  0  0  0  0
   35.5970   28.0330   31.2700 F   0  0  0  0  0  0  0  0  0  0  0  0
  1  2  1  1  0  0  0
  1  3  1  0  0  0  0
  3  8  2  0  0  0  0
  3  4  1  0  0  0  0
  4  5  2  0  0  0  0
  5  6  1  0  0  0  0
  5 10  1  0  0  0  0
  6 11  1  0  0  0  0
  7 12  1  0  0  0  0
  7  6  2  0  0  0  0
  8  7  1  0  0  0  0
  9  4  1  0  0  0  0
 13 14  2  0  0  0  0
 14  1  1  0  0  0  0
 15 16  1  0  0  0  0
 15 21  1  0  0  0  0
 16 22  1  0  0  0  0
 17 13  1  0  0  0  0
 17 16  2  0  0  0  0
 18 17  1  0  0  0  0
 19 18  2  0  0  0  0
 19 20  1  0  0  0  0
 20 15  2  0  0  0  0
 23 19  1  0  0  0  0
 24 23  1  0  0  0  0
 25 24  1  0  0  0  0
 26  1  1  0  0  0  0
 27 26  1  0  0  0  0
 27 30  1  0  0  0  0
 27 28  1  0  0  0  0
 29 27  1  0  0  0  0
M  END
>  <minimizedAffinity>
-5.03097725

$$$$

 OpenBabel03272502363D

 30 31  0  0  1  0  0  0  0  0999 V2000
   38.4920   23.6420   36.0530 C   0  0  2  0  0  0  0  0  0  0  0  0
   38.0440   23.8200   37.0500 H   0  0  0  0  0  0  0  0  0  0  0  0
   39.9470   23.4120   36.1110 C   0  0  0  0  0  0  0  0  0  0  0  0
   40.3010   22.3250   36.9530 C   0  0  0  0  0  0  0  0  0  0  0  0
   41.6030   21.9220   37.1650 C   0  0  0  0  0  0  0  0  0  0  0  0
   42.6650   22.5950   36.5360 C   0  0  0  0  0  0  0  0  0  0  0  0
   42.2260   23.6420   35.7340 C   0  0  0  0  0  0  0  0  0  0  0  0
   40.9740   24.0470   35.5160 N   0  0  0  0  0  0  0  0  0  0  0  0
   39.6620   21.6530   37.5440 H   0  0  0  0  0  0  0  0  0  0  0  0
   41.9400   21.1080   37.7890 H   0  0  0  0  0  0  0  0  0  0  0  0
   43.7190   22.3820   36.6160 H   0  0  0  0  0  0  0  0  0  0  0  0
   42.9450   24.2530   35.1840 H   0  0  0  0  0  0  0  0  0  0  0  0
   37.7720   22.4090   34.1290 C   0  0  0  0  0  3  0  0  0  0  0  0
   37.8240   22.4540   35.4210 C   0  0  0  0  0  3  0  0  0  0  0  0
   35.3430   19.7320   33.2230 C   0  0  0  0  0  0  0  0  0  0  0  0
   35.9690   20.7910   33.8510 C   0  0  0  0  0  0  0  0  0  0  0  0
   37.1650   21.3110   33.4310 C   0  0  0  0  0  0  0  0  0  0  0  0
   37.7170   20.7200   32.3390 N   0  0  0  0  0  0  0  0  0  0  0  0
   37.1320   19.7010   31.7200 C   0  0  0  0  0  0  0  0  0  0  0  0
   35.9500   19.1990   32.1490 N   0  0  0  0  0  0  0  0  0  0  0  0
   34.4020   19.3040   33.5340 H   0  0  0  0  0  0  0  0  0  0  0  0
   35.3970   21.1420   34.6970 H   0  0  0  0  0  0  0  0  0  0  0  0
   37.7240   19.0440   30.5250 C   0  0  0  0  0  2  0  0  0  0  0  0
   36.7920   19.1560   29.3420 C   0  0  0  0  0  2  0  0  0  0  0  0
   36.7210   18.1540   28.8320 H   0  0  0  0  0  0  0  0  0  0  0  0
   38.2450   25.0550   34.9230 S   0  0  0  0  0  0  0  0  0  0  0  0
   38.4050   26.6050   35.7890 C   0  0  0  0  0  0  0  0  0  0  0  0
   39.6450   27.2030   35.6210 F   0  0  0  0  0  0  0  0  0  0  0  0
   37.3730   27.4720   35.4650 F   0  0  0  0  0  0  0  0  0  0  0  0
   38.2590   26.3130   37.1600 F   0  0  0  0  0  0  0  0  0  0  0  0
  1  3  1  0  0  0  0
  1  2  1  1  0  0  0
  3  4  1  0  0  0  0
  4  5  2  0  0  0  0
  4  9  1  0  0  0  0
  5 10  1  0  0  0  0
  6 11  1  0  0  0  0
  6  5  1  0  0  0  0
  7  6  2  0  0  0  0
  8  7  1  0  0  0  0
  8  3  2  0  0  0  0
 12  7  1  0  0  0  0
 13 14  2  0  0  0  0
 14  1  1  0  0  0  0
 15 21  1  0  0  0  0
 15 16  1  0  0  0  0
 16 22  1  0  0  0  0
 17 16  2  0  0  0  0
 17 13  1  0  0  0  0
 18 17  1  0  0  0  0
 19 20  1  0  0  0  0
 19 18  2  0  0  0  0
 20 15  2  0  0  0  0
 23 19  1  0  0  0  0
 24 23  1  0  0  0  0
 25 24  1  0  0  0  0
 26 27  1  0  0  0  0
 26  1  1  0  0  0  0
 27 30  1  0  0  0  0
 28 27  1  0  0  0  0
 29 27  1  0  0  0  0
M  END
>  <minimizedAffinity>
-5.02134275

$$$$

 OpenBabel03272502363D

 30 31  0  0  1  0  0  0  0  0999 V2000
   37.5770   26.9470   32.3580 C   0  0  2  0  0  0  0  0  0  0  0  0
   37.3840   27.2580   31.3130 H   0  0  0  0  0  0  0  0  0  0  0  0
   39.0030   27.0230   32.7250 C   0  0  0  0  0  0  0  0  0  0  0  0
   39.2270   26.8210   34.1120 C   0  0  0  0  0  0  0  0  0  0  0  0
   40.4800   26.8480   34.6900 C   0  0  0  0  0  0  0  0  0  0  0  0
   41.6190   27.0850   33.9030 C   0  0  0  0  0  0  0  0  0  0  0  0
   41.3060   27.2710   32.5620 C   0  0  0  0  0  0  0  0  0  0  0  0
   40.1030   27.2480   31.9830 N   0  0  0  0  0  0  0  0  0  0  0  0
   38.5110   26.6210   34.9220 H   0  0  0  0  0  0  0  0  0  0  0  0
   40.7200   26.7040   35.7330 H   0  0  0  0  0  0  0  0  0  0  0  0
   42.6470   27.1310   34.2280 H   0  0  0  0  0  0  0  0  0  0  0  0
   42.0960   27.4640   31.8320 H   0  0  0  0  0  0  0  0  0  0  0  0
   35.9370   28.6470   32.7550 C   0  0  0  0  0  3  0  0  0  0  0  0
   36.7760   27.8180   33.2840 C   0  0  0  0  0  3  0  0  0  0  0  0
   32.9410   30.4490   34.0450 C   0  0  0  0  0  0  0  0  0  0  0  0
   33.7740   29.6260   33.3130 C   0  0  0  0  0  0  0  0  0  0  0  0
   35.1180   29.5140   33.5550 C   0  0  0  0  0  0  0  0  0  0  0  0
   35.6020   30.2700   34.5760 N   0  0  0  0  0  0  0  0  0  0  0  0
   34.8180   31.0680   35.2930 C   0  0  0  0  0  0  0  0  0  0  0  0
   33.4910   31.1670   35.0390 N   0  0  0  0  0  0  0  0  0  0  0  0
   31.8800   30.5560   33.8740 H   0  0  0  0  0  0  0  0  0  0  0  0
   33.2310   29.0980   32.5440 H   0  0  0  0  0  0  0  0  0  0  0  0
   35.3320   31.9000   36.4110 C   0  0  0  0  0  2  0  0  0  0  0  0
   34.1900   32.4480   37.2330 C   0  0  0  0  0  2  0  0  0  0  0  0
   34.3690   33.5420   37.4310 H   0  0  0  0  0  0  0  0  0  0  0  0
   37.0630   25.2230   32.6710 S   0  0  0  0  0  0  0  0  0  0  0  0
   35.9690   24.6380   31.3910 C   0  0  0  0  0  0  0  0  0  0  0  0
   35.1800   23.5700   31.7890 F   0  0  0  0  0  0  0  0  0  0  0  0
   35.2040   25.6710   30.8720 F   0  0  0  0  0  0  0  0  0  0  0  0
   36.7900   24.1880   30.3380 F   0  0  0  0  0  0  0  0  0  0  0  0
  1  2  1  6  0  0  0
  1 26  1  0  0  0  0
  1  3  1  0  0  0  0
  1 14  1  0  0  0  0
  3  4  1  0  0  0  0
  4  5  2  0  0  0  0
  4  9  1  0  0  0  0
  5 10  1  0  0  0  0
  6 11  1  0  0  0  0
  6  5  1  0  0  0  0
  7  6  2  0  0  0  0
  8  7  1  0  0  0  0
  8  3  2  0  0  0  0
 12  7  1  0  0  0  0
 13 14  2  0  0  0  0
 13 17  1  0  0  0  0
 15 20  1  0  0  0  0
 16 17  1  0  0  0  0
 16 15  2  0  0  0  0
 17 18  2  0  0  0  0
 18 19  1  0  0  0  0
 19 23  1  0  0  0  0
 20 19  2  0  0  0  0
 21 15  1  0  0  0  0
 22 16  1  0  0  0  0
 23 24  1  0  0  0  0
 24 25  1  0  0  0  0
 27 28  1  0  0  0  0
 27 26  1  0  0  0  0
 29 27  1  0  0  0  0
 30 27  1  0  0  0  0
M  END
>  <minimizedAffinity>
-4.9920845

$$$$

 OpenBabel03272502363D

 30 31  0  0  1  0  0  0  0  0999 V2000
   37.0210   28.0300   32.4330 C   0  0  2  0  0  0  0  0  0  0  0  0
   38.1060   28.1450   32.6200 H   0  0  0  0  0  0  0  0  0  0  0  0
   36.6310   26.6340   32.1610 C   0  0  0  0  0  0  0  0  0  0  0  0
   35.5350   26.5320   31.2650 C   0  0  0  0  0  0  0  0  0  0  0  0
   34.9930   25.3280   30.8630 C   0  0  0  0  0  0  0  0  0  0  0  0
   35.5220   24.1170   31.3420 C   0  0  0  0  0  0  0  0  0  0  0  0
   36.5880   24.3140   32.2120 C   0  0  0  0  0  0  0  0  0  0  0  0
   37.1270   25.4670   32.6120 N   0  0  0  0  0  0  0  0  0  0  0  0
   34.9590   27.3210   30.7600 H   0  0  0  0  0  0  0  0  0  0  0  0
   34.1640   25.1790   30.1880 H   0  0  0  0  0  0  0  0  0  0  0  0
   35.1940   23.1170   31.1090 H   0  0  0  0  0  0  0  0  0  0  0  0
   37.0980   23.4580   32.6620 H   0  0  0  0  0  0  0  0  0  0  0  0
   35.8560   29.7650   33.6030 C   0  0  0  0  0  3  0  0  0  0  0  0
   36.2610   28.5370   33.6260 C   0  0  0  0  0  3  0  0  0  0  0  0
   35.0270   31.8510   36.5780 C   0  0  0  0  0  0  0  0  0  0  0  0
   35.6900   31.2700   35.5150 C   0  0  0  0  0  0  0  0  0  0  0  0
   35.1140   30.3400   34.6900 C   0  0  0  0  0  0  0  0  0  0  0  0
   33.8280   30.0100   34.9760 N   0  0  0  0  0  0  0  0  0  0  0  0
   33.1710   30.5560   35.9940 C   0  0  0  0  0  0  0  0  0  0  0  0
   33.7560   31.4730   36.8000 N   0  0  0  0  0  0  0  0  0  0  0  0
   35.4580   32.5850   37.2430 H   0  0  0  0  0  0  0  0  0  0  0  0
   36.6990   31.6450   35.4280 H   0  0  0  0  0  0  0  0  0  0  0  0
   31.7640   30.2050   36.3200 C   0  0  0  0  0  2  0  0  0  0  0  0
   31.6070   28.7080   36.4490 C   0  0  0  0  0  2  0  0  0  0  0  0
   30.6870   28.3840   35.8860 H   0  0  0  0  0  0  0  0  0  0  0  0
   36.4610   29.0030   30.9920 S   0  0  0  0  0  0  0  0  0  0  0  0
   37.7720   29.1940   29.7990 C   0  0  0  0  0  0  0  0  0  0  0  0
   38.1830   30.5080   29.6400 F   0  0  0  0  0  0  0  0  0  0  0  0
   38.8400   28.3570   30.0870 F   0  0  0  0  0  0  0  0  0  0  0  0
   37.2540   28.7600   28.5620 F   0  0  0  0  0  0  0  0  0  0  0  0
  1  2  1  1  0  0  0
  1 14  1  0  0  0  0
  3  1  1  0  0  0  0
  3  8  1  0  0  0  0
  4  3  2  0  0  0  0
  5  4  1  0  0  0  0
  5  6  2  0  0  0  0
  6  7  1  0  0  0  0
  7  8  2  0  0  0  0
  7 12  1  0  0  0  0
  9  4  1  0  0  0  0
 10  5  1  0  0  0  0
 11  6  1  0  0  0  0
 13 14  2  0  0  0  0
 13 17  1  0  0  0  0
 15 20  1  0  0  0  0
 15 21  1  0  0  0  0
 16 15  2  0  0  0  0
 17 18  2  0  0  0  0
 17 16  1  0  0  0  0
 18 19  1  0  0  0  0
 19 23  1  0  0  0  0
 19 20  2  0  0  0  0
 22 16  1  0  0  0  0
 23 24  1  0  0  0  0
 25 24  1  0  0  0  0
 26  1  1  0  0  0  0
 27 29  1  0  0  0  0
 27 26  1  0  0  0  0
 28 27  1  0  0  0  0
 30 27  1  0  0  0  0
M  END
>  <minimizedAffinity>
-4.9718833

$$$$

 OpenBabel03272502363D

 30 31  0  0  1  0  0  0  0  0999 V2000
   35.3670   29.0530   33.7460 C   0  0  2  0  0  0  0  0  0  0  0  0
   34.6400   28.2610   33.4820 H   0  0  0  0  0  0  0  0  0  0  0  0
   34.8430   30.0010   34.7480 C   0  0  0  0  0  0  0  0  0  0  0  0
   35.8500   30.8380   35.2940 C   0  0  0  0  0  0  0  0  0  0  0  0
   35.5990   31.8020   36.2490 C   0  0  0  0  0  0  0  0  0  0  0  0
   34.2950   31.9980   36.7340 C   0  0  0  0  0  0  0  0  0  0  0  0
   33.3770   31.1360   36.1450 C   0  0  0  0  0  0  0  0  0  0  0  0
   33.5990   30.1990   35.2210 N   0  0  0  0  0  0  0  0  0  0  0  0
   36.9280   30.8800   35.0800 H   0  0  0  0  0  0  0  0  0  0  0  0
   36.3150   32.4700   36.7050 H   0  0  0  0  0  0  0  0  0  0  0  0
   33.9670   32.7110   37.4730 H   0  0  0  0  0  0  0  0  0  0  0  0
   32.3230   31.1760   36.4270 H   0  0  0  0  0  0  0  0  0  0  0  0
   36.7370   27.1300   34.1520 C   0  0  0  0  0  3  0  0  0  0  0  0
   36.6190   28.4120   34.2730 C   0  0  0  0  0  3  0  0  0  0  0  0
   40.3090   26.2260   34.7040 C   0  0  0  0  0  0  0  0  0  0  0  0
   39.1560   26.8660   34.2940 C   0  0  0  0  0  0  0  0  0  0  0  0
   37.9000   26.4260   34.6150 C   0  0  0  0  0  0  0  0  0  0  0  0
   37.8410   25.3020   35.3750 N   0  0  0  0  0  0  0  0  0  0  0  0
   38.9370   24.6690   35.7810 C   0  0  0  0  0  0  0  0  0  0  0  0
   40.1720   25.1190   35.4540 N   0  0  0  0  0  0  0  0  0  0  0  0
   41.3100   26.5510   34.4650 H   0  0  0  0  0  0  0  0  0  0  0  0
   39.3810   27.7410   33.7010 H   0  0  0  0  0  0  0  0  0  0  0  0
   38.8900   23.4390   36.6120 C   0  0  0  0  0  2  0  0  0  0  0  0
   38.3520   23.7490   37.9890 C   0  0  0  0  0  2  0  0  0  0  0  0
   39.0040   23.2510   38.7600 H   0  0  0  0  0  0  0  0  0  0  0  0
   35.8510   30.0580   32.3000 S   0  0  0  0  0  0  0  0  0  0  0  0
   36.4720   29.0290   30.9840 C   0  0  0  0  0  0  0  0  0  0  0  0
   35.8650   27.7840   30.9260 F   0  0  0  0  0  0  0  0  0  0  0  0
   36.4120   29.6830   29.7620 F   0  0  0  0  0  0  0  0  0  0  0  0
   37.8400   28.8190   31.2510 F   0  0  0  0  0  0  0  0  0  0  0  0
  1  2  1  6  0  0  0
  1 14  1  0  0  0  0
  1  3  1  0  0  0  0
  3  8  2  0  0  0  0
  3  4  1  0  0  0  0
  4  5  2  0  0  0  0
  5 10  1  0  0  0  0
  5  6  1  0  0  0  0
  6 11  1  0  0  0  0
  7 12  1  0  0  0  0
  7  6  2  0  0  0  0
  8  7  1  0  0  0  0
  9  4  1  0  0  0  0
 13 14  2  0  0  0  0
 13 17  1  0  0  0  0
 15 20  1  0  0  0  0
 16 17  1  0  0  0  0
 16 15  2  0  0  0  0
 17 18  2  0  0  0  0
 18 19  1  0  0  0  0
 19 23  1  0  0  0  0
 20 19  2  0  0  0  0
 21 15  1  0  0  0  0
 22 16  1  0  0  0  0
 23 24  1  0  0  0  0
 24 25  1  0  0  0  0
 26  1  1  0  0  0  0
 27 30  1  0  0  0  0
 27 26  1  0  0  0  0
 28 27  1  0  0  0  0
 29 27  1  0  0  0  0
M  END
>  <minimizedAffinity>
-4.95888519

$$$$

 OpenBabel03272502363D

 30 31  0  0  1  0  0  0  0  0999 V2000
   38.3990   24.6180   34.1800 C   0  0  2  0  0  0  0  0  0  0  0  0
   39.3770   24.9450   33.7750 H   0  0  0  0  0  0  0  0  0  0  0  0
   38.4610   24.2570   35.6080 C   0  0  0  0  0  0  0  0  0  0  0  0
   39.5140   23.3530   35.9030 C   0  0  0  0  0  0  0  0  0  0  0  0
   39.7690   22.8720   37.1710 C   0  0  0  0  0  0  0  0  0  0  0  0
   38.9680   23.2710   38.2550 C   0  0  0  0  0  0  0  0  0  0  0  0
   37.9650   24.1540   37.8730 C   0  0  0  0  0  0  0  0  0  0  0  0
   37.7020   24.6310   36.6550 N   0  0  0  0  0  0  0  0  0  0  0  0
   40.2660   22.9030   35.2380 H   0  0  0  0  0  0  0  0  0  0  0  0
   40.5490   22.1860   37.4630 H   0  0  0  0  0  0  0  0  0  0  0  0
   39.0590   22.9720   39.2870 H   0  0  0  0  0  0  0  0  0  0  0  0
   37.2660   24.5480   38.6150 H   0  0  0  0  0  0  0  0  0  0  0  0
   37.7990   26.8070   33.4140 C   0  0  0  0  0  3  0  0  0  0  0  0
   37.3960   25.7200   33.9870 C   0  0  0  0  0  3  0  0  0  0  0  0
   35.7600   29.3500   31.6080 C   0  0  0  0  0  0  0  0  0  0  0  0
   36.5980   28.2910   31.8970 C   0  0  0  0  0  0  0  0  0  0  0  0
   36.9150   27.9140   33.1750 C   0  0  0  0  0  0  0  0  0  0  0  0
   36.3510   28.6500   34.1680 N   0  0  0  0  0  0  0  0  0  0  0  0
   35.5420   29.6720   33.9130 C   0  0  0  0  0  0  0  0  0  0  0  0
   35.2400   30.0320   32.6420 N   0  0  0  0  0  0  0  0  0  0  0  0
   35.4950   29.6690   30.6110 H   0  0  0  0  0  0  0  0  0  0  0  0
   36.9570   27.8160   30.9960 H   0  0  0  0  0  0  0  0  0  0  0  0
   34.9180   30.4860   34.9870 C   0  0  0  0  0  2  0  0  0  0  0  0
   35.9690   31.2610   35.7460 C   0  0  0  0  0  2  0  0  0  0  0  0
   35.7770   31.1590   36.8510 H   0  0  0  0  0  0  0  0  0  0  0  0
   37.7480   23.1490   33.3120 S   0  0  0  0  0  0  0  0  0  0  0  0
   37.0270   23.5980   31.7440 C   0  0  0  0  0  0  0  0  0  0  0  0
   35.7440   24.1090   31.8560 F   0  0  0  0  0  0  0  0  0  0  0  0
   37.8570   24.4540   31.0350 F   0  0  0  0  0  0  0  0  0  0  0  0
   36.9460   22.4120   30.9870 F   0  0  0  0  0  0  0  0  0  0  0  0
  1  2  1  6  0  0  0
  1  3  1  0  0  0  0
  3  4  2  0  0  0  0
  3  8  1  0  0  0  0
  4  5  1  0  0  0  0
  5 10  1  0  0  0  0
  5  6  2  0  0  0  0
  6 11  1  0  0  0  0
  7  6  1  0  0  0  0
  7 12  1  0  0  0  0
  8  7  2  0  0  0  0
  9  4  1  0  0  0  0
 13 14  2  0  0  0  0
 14  1  1  0  0  0  0
 15 16  2  0  0  0  0
 15 20  1  0  0  0  0
 16 17  1  0  0  0  0
 17 13  1  0  0  0  0
 17 18  2  0  0  0  0
 19 18  1  0  0  0  0
 19 23  1  0  0  0  0
 20 19  2  0  0  0  0
 21 15  1  0  0  0  0
 22 16  1  0  0  0  0
 23 24  1  0  0  0  0
 24 25  1  0  0  0  0
 26  1  1  0  0  0  0
 27 28  1  0  0  0  0
 27 26  1  0  0  0  0
 29 27  1  0  0  0  0
 30 27  1  0  0  0  0
M  END
>  <minimizedAffinity>
-4.94809008

$$$$
