
 OpenBabel03272508153D

 22 23  0  0  0  0  0  0  0  0999 V2000
   37.8650   23.6440   32.8420 Cl  0  0  0  0  0  0  0  0  0  0  0  0
   37.5070   25.2590   33.4030 C   0  0  0  0  0  0  0  0  0  0  0  0
   37.8620   25.5030   34.7020 C   0  0  0  0  0  0  0  0  0  0  0  0
   37.6130   26.7740   35.2360 C   0  0  0  0  0  0  0  0  0  0  0  0
   37.0330   27.7520   34.4920 C   0  0  0  0  0  0  0  0  0  0  0  0
   36.6830   27.4890   33.1910 C   0  0  0  0  0  0  0  0  0  0  0  0
   35.9380   28.7350   32.2100 Cl  0  0  0  0  0  0  0  0  0  0  0  0
   36.9210   26.2470   32.6520 C   0  0  0  0  0  0  0  0  0  0  0  0
   37.8570   27.0610   36.2480 H   0  0  0  0  0  0  0  0  0  0  0  0
   36.8220   28.7520   34.8650 H   0  0  0  0  0  0  0  0  0  0  0  0
   37.7370   24.1970   36.7860 C   0  0  0  0  0  0  0  0  0  0  0  0
   38.4900   24.6080   35.6670 C   0  0  0  0  0  0  0  0  0  0  0  0
   39.7980   24.1200   35.5630 C   0  0  0  0  0  0  0  0  0  0  0  0
   40.2730   23.2910   36.5270 N   0  0  0  0  0  0  0  0  0  0  0  0
   39.5180   22.9220   37.5850 C   0  0  0  0  0  0  0  0  0  0  0  0
   38.2540   23.3760   37.7110 N   0  0  0  0  0  0  0  0  0  0  0  0
   36.7180   24.5020   36.9790 H   0  0  0  0  0  0  0  0  0  0  0  0
   40.3350   24.4500   34.7100 H   0  0  0  0  0  0  0  0  0  0  0  0
   40.1150   22.2650   38.2070 H   0  0  0  0  0  0  0  0  0  0  0  0
   36.5500   25.9410   31.2490 C   0  0  0  0  0  2  0  0  0  0  0  0
   35.1780   25.3570   31.0910 C   0  0  0  0  0  2  0  0  0  0  0  0
   34.9560   24.5160   31.7620 H   0  0  0  0  0  0  0  0  0  0  0  0
  1  2  1  0  0  0  0
  2  3  1  0  0  0  0
  3  4  2  0  0  0  0
  3 12  1  0  0  0  0
  4  9  1  0  0  0  0
  5 10  1  0  0  0  0
  5  4  1  0  0  0  0
  6  5  2  0  0  0  0
  7  6  1  0  0  0  0
  8  6  1  0  0  0  0
  8  2  2  0  0  0  0
 11 17  1  0  0  0  0
 11 16  1  0  0  0  0
 12 11  2  0  0  0  0
 13 12  1  0  0  0  0
 13 14  2  0  0  0  0
 14 15  1  0  0  0  0
 15 16  2  0  0  0  0
 15 19  1  0  0  0  0
 18 13  1  0  0  0  0
 20  8  1  0  0  0  0
 21 20  1  0  0  0  0
 21 22  1  0  0  0  0
M  END
>  <minimizedAffinity>
-4.58970833

$$$$

 OpenBabel03272508153D

 22 23  0  0  0  0  0  0  0  0999 V2000
   37.7980   23.5970   32.9090 Cl  0  0  0  0  0  0  0  0  0  0  0  0
   37.4940   25.2300   33.4490 C   0  0  0  0  0  0  0  0  0  0  0  0
   37.8460   25.4750   34.7490 C   0  0  0  0  0  0  0  0  0  0  0  0
   37.6390   26.7610   35.2670 C   0  0  0  0  0  0  0  0  0  0  0  0
   37.1020   27.7510   34.5070 C   0  0  0  0  0  0  0  0  0  0  0  0
   36.7540   27.4860   33.2060 C   0  0  0  0  0  0  0  0  0  0  0  0
   36.0640   28.7470   32.2040 Cl  0  0  0  0  0  0  0  0  0  0  0  0
   36.9520   26.2300   32.6830 C   0  0  0  0  0  0  0  0  0  0  0  0
   37.8840   27.0490   36.2780 H   0  0  0  0  0  0  0  0  0  0  0  0
   36.9250   28.7610   34.8670 H   0  0  0  0  0  0  0  0  0  0  0  0
   39.7750   24.1740   35.5540 C   0  0  0  0  0  0  0  0  0  0  0  0
   38.4330   24.5690   35.7290 C   0  0  0  0  0  0  0  0  0  0  0  0
   37.7570   24.0580   36.8440 C   0  0  0  0  0  0  0  0  0  0  0  0
   38.4120   23.2210   37.6880 N   0  0  0  0  0  0  0  0  0  0  0  0
   39.7000   22.8670   37.4830 C   0  0  0  0  0  0  0  0  0  0  0  0
   40.3760   23.3430   36.4180 N   0  0  0  0  0  0  0  0  0  0  0  0
   40.4040   24.5000   34.7370 H   0  0  0  0  0  0  0  0  0  0  0  0
   36.7500   24.3750   36.9430 H   0  0  0  0  0  0  0  0  0  0  0  0
   39.9920   22.1970   38.2840 H   0  0  0  0  0  0  0  0  0  0  0  0
   36.5810   25.9220   31.2790 C   0  0  0  0  0  2  0  0  0  0  0  0
   35.1970   25.3710   31.1170 C   0  0  0  0  0  2  0  0  0  0  0  0
   34.9500   24.5410   31.7930 H   0  0  0  0  0  0  0  0  0  0  0  0
  1  2  1  0  0  0  0
  2  3  1  0  0  0  0
  3  4  2  0  0  0  0
  3 12  1  0  0  0  0
  4  9  1  0  0  0  0
  5 10  1  0  0  0  0
  5  4  1  0  0  0  0
  6  5  2  0  0  0  0
  7  6  1  0  0  0  0
  8  6  1  0  0  0  0
  8  2  2  0  0  0  0
 11 12  2  0  0  0  0
 11 16  1  0  0  0  0
 12 13  1  0  0  0  0
 13 18  1  0  0  0  0
 13 14  2  0  0  0  0
 15 14  1  0  0  0  0
 15 19  1  0  0  0  0
 16 15  2  0  0  0  0
 17 11  1  0  0  0  0
 20  8  1  0  0  0  0
 21 20  1  0  0  0  0
 21 22  1  0  0  0  0
M  END
>  <minimizedAffinity>
-4.57867527

$$$$

 OpenBabel03272508153D

 22 23  0  0  0  0  0  0  0  0999 V2000
   38.5860   27.1220   35.9780 Cl  0  0  0  0  0  0  0  0  0  0  0  0
   38.0130   26.1800   34.6220 C   0  0  0  0  0  0  0  0  0  0  0  0
   38.2800   24.8400   34.7060 C   0  0  0  0  0  0  0  0  0  0  0  0
   37.8550   24.0080   33.6620 C   0  0  0  0  0  0  0  0  0  0  0  0
   37.1930   24.5060   32.5850 C   0  0  0  0  0  0  0  0  0  0  0  0
   36.9350   25.8520   32.5180 C   0  0  0  0  0  0  0  0  0  0  0  0
   36.0800   26.5180   31.1420 Cl  0  0  0  0  0  0  0  0  0  0  0  0
   37.3450   26.6820   33.5350 C   0  0  0  0  0  0  0  0  0  0  0  0
   38.0190   22.9400   33.6390 H   0  0  0  0  0  0  0  0  0  0  0  0
   36.8450   23.8970   31.7550 H   0  0  0  0  0  0  0  0  0  0  0  0
   40.3060   23.7210   35.5450 C   0  0  0  0  0  0  0  0  0  0  0  0
   38.9660   24.1040   35.7610 C   0  0  0  0  0  0  0  0  0  0  0  0
   38.3900   23.7450   36.9850 C   0  0  0  0  0  0  0  0  0  0  0  0
   39.1320   23.0590   37.8900 N   0  0  0  0  0  0  0  0  0  0  0  0
   40.4140   22.7110   37.6430 C   0  0  0  0  0  0  0  0  0  0  0  0
   40.9970   23.0420   36.4720 N   0  0  0  0  0  0  0  0  0  0  0  0
   40.8640   23.9390   34.6440 H   0  0  0  0  0  0  0  0  0  0  0  0
   37.3820   24.0490   37.1130 H   0  0  0  0  0  0  0  0  0  0  0  0
   40.7860   22.1740   38.5080 H   0  0  0  0  0  0  0  0  0  0  0  0
   37.0790   28.1410   33.4810 C   0  0  0  0  0  2  0  0  0  0  0  0
   35.8560   28.5690   34.2360 C   0  0  0  0  0  2  0  0  0  0  0  0
   34.9530   27.9840   34.0190 H   0  0  0  0  0  0  0  0  0  0  0  0
  2  3  1  0  0  0  0
  2  1  1  0  0  0  0
  3 12  1  0  0  0  0
  4  3  2  0  0  0  0
  5  4  1  0  0  0  0
  6  5  2  0  0  0  0
  6  8  1  0  0  0  0
  7  6  1  0  0  0  0
  8  2  2  0  0  0  0
  9  4  1  0  0  0  0
 10  5  1  0  0  0  0
 11 12  2  0  0  0  0
 11 16  1  0  0  0  0
 12 13  1  0  0  0  0
 13 18  1  0  0  0  0
 13 14  2  0  0  0  0
 15 14  1  0  0  0  0
 15 19  1  0  0  0  0
 16 15  2  0  0  0  0
 17 11  1  0  0  0  0
 20  8  1  0  0  0  0
 20 21  1  0  0  0  0
 22 21  1  0  0  0  0
M  END
>  <minimizedAffinity>
-4.41669846

$$$$

 OpenBabel03272508153D

 22 23  0  0  0  0  0  0  0  0999 V2000
   32.7680   29.3190   35.1170 Cl  0  0  0  0  0  0  0  0  0  0  0  0
   33.8470   30.6150   35.5720 C   0  0  0  0  0  0  0  0  0  0  0  0
   35.0690   30.5810   34.9570 C   0  0  0  0  0  0  0  0  0  0  0  0
   35.9990   31.5840   35.2620 C   0  0  0  0  0  0  0  0  0  0  0  0
   35.7070   32.5740   36.1460 C   0  0  0  0  0  0  0  0  0  0  0  0
   34.4770   32.5910   36.7530 C   0  0  0  0  0  0  0  0  0  0  0  0
   34.0750   33.8590   37.8930 Cl  0  0  0  0  0  0  0  0  0  0  0  0
   33.5530   31.6150   36.4640 C   0  0  0  0  0  0  0  0  0  0  0  0
   36.9870   31.6410   34.8280 H   0  0  0  0  0  0  0  0  0  0  0  0
   36.3970   33.3710   36.4100 H   0  0  0  0  0  0  0  0  0  0  0  0
   35.3840   29.8870   32.6160 C   0  0  0  0  0  0  0  0  0  0  0  0
   35.5840   29.6220   33.9860 C   0  0  0  0  0  0  0  0  0  0  0  0
   36.2700   28.4470   34.3160 C   0  0  0  0  0  0  0  0  0  0  0  0
   36.7020   27.6320   33.3220 N   0  0  0  0  0  0  0  0  0  0  0  0
   36.4890   27.9230   32.0190 C   0  0  0  0  0  0  0  0  0  0  0  0
   35.8310   29.0480   31.6710 N   0  0  0  0  0  0  0  0  0  0  0  0
   34.8720   30.7590   32.2330 H   0  0  0  0  0  0  0  0  0  0  0  0
   36.4010   28.2800   35.3550 H   0  0  0  0  0  0  0  0  0  0  0  0
   36.9230   27.1260   31.4250 H   0  0  0  0  0  0  0  0  0  0  0  0
   32.2180   31.6140   37.1110 C   0  0  0  0  0  2  0  0  0  0  0  0
   31.1670   32.3640   36.3500 C   0  0  0  0  0  2  0  0  0  0  0  0
   31.4620   33.3730   36.0300 H   0  0  0  0  0  0  0  0  0  0  0  0
  1  2  1  0  0  0  0
  2  8  1  0  0  0  0
  3  4  1  0  0  0  0
  3  2  2  0  0  0  0
  4  5  2  0  0  0  0
  5 10  1  0  0  0  0
  5  6  1  0  0  0  0
  6  7  1  0  0  0  0
  8  6  2  0  0  0  0
  8 20  1  0  0  0  0
  9  4  1  0  0  0  0
 11 12  1  0  0  0  0
 12 13  2  0  0  0  0
 12  3  1  0  0  0  0
 13 18  1  0  0  0  0
 14 13  1  0  0  0  0
 15 14  2  0  0  0  0
 16 15  1  0  0  0  0
 16 11  2  0  0  0  0
 17 11  1  0  0  0  0
 19 15  1  0  0  0  0
 21 20  1  0  0  0  0
 22 21  1  0  0  0  0
M  END
>  <minimizedAffinity>
-4.40654421

$$$$

 OpenBabel03272508153D

 22 23  0  0  0  0  0  0  0  0999 V2000
   41.5420   25.5540   34.2350 Cl  0  0  0  0  0  0  0  0  0  0  0  0
   40.8740   24.3990   35.3630 C   0  0  0  0  0  0  0  0  0  0  0  0
   39.5560   24.6010   35.6710 C   0  0  0  0  0  0  0  0  0  0  0  0
   38.9370   23.7200   36.5680 C   0  0  0  0  0  0  0  0  0  0  0  0
   39.6180   22.6850   37.1270 C   0  0  0  0  0  0  0  0  0  0  0  0
   40.9390   22.5000   36.8060 C   0  0  0  0  0  0  0  0  0  0  0  0
   41.8380   21.1710   37.5100 Cl  0  0  0  0  0  0  0  0  0  0  0  0
   41.5610   23.3550   35.9270 C   0  0  0  0  0  0  0  0  0  0  0  0
   37.9030   23.7980   36.8720 H   0  0  0  0  0  0  0  0  0  0  0  0
   39.1780   21.9790   37.8260 H   0  0  0  0  0  0  0  0  0  0  0  0
   38.5790   26.8480   35.9040 C   0  0  0  0  0  0  0  0  0  0  0  0
   38.6470   25.6340   35.1900 C   0  0  0  0  0  0  0  0  0  0  0  0
   37.8300   25.5120   34.0600 C   0  0  0  0  0  0  0  0  0  0  0  0
   37.0240   26.5460   33.7110 N   0  0  0  0  0  0  0  0  0  0  0  0
   36.9880   27.6940   34.4240 C   0  0  0  0  0  0  0  0  0  0  0  0
   37.7640   27.8410   35.5170 N   0  0  0  0  0  0  0  0  0  0  0  0
   39.1590   27.0670   36.7900 H   0  0  0  0  0  0  0  0  0  0  0  0
   37.9060   24.5860   33.5490 H   0  0  0  0  0  0  0  0  0  0  0  0
   36.2740   28.3570   33.9500 H   0  0  0  0  0  0  0  0  0  0  0  0
   42.9890   23.1730   35.5690 C   0  0  0  0  0  2  0  0  0  0  0  0
   43.9440   23.9000   36.4660 C   0  0  0  0  0  2  0  0  0  0  0  0
   43.7010   24.9570   36.6370 H   0  0  0  0  0  0  0  0  0  0  0  0
  1  2  1  0  0  0  0
  2  3  2  0  0  0  0
  2  8  1  0  0  0  0
  3  4  1  0  0  0  0
  4  9  1  0  0  0  0
  4  5  2  0  0  0  0
  5 10  1  0  0  0  0
  6  5  1  0  0  0  0
  6  7  1  0  0  0  0
  8  6  2  0  0  0  0
 11 17  1  0  0  0  0
 12  3  1  0  0  0  0
 12 11  2  0  0  0  0
 13 12  1  0  0  0  0
 14 13  2  0  0  0  0
 14 15  1  0  0  0  0
 15 16  2  0  0  0  0
 16 11  1  0  0  0  0
 18 13  1  0  0  0  0
 19 15  1  0  0  0  0
 20  8  1  0  0  0  0
 20 21  1  0  0  0  0
 21 22  1  0  0  0  0
M  END
>  <minimizedAffinity>
-4.38364983

$$$$

 OpenBabel03272508153D

 22 23  0  0  0  0  0  0  0  0999 V2000
   41.5540   25.5100   34.2470 Cl  0  0  0  0  0  0  0  0  0  0  0  0
   40.8900   24.3720   35.3940 C   0  0  0  0  0  0  0  0  0  0  0  0
   39.5810   24.5970   35.7260 C   0  0  0  0  0  0  0  0  0  0  0  0
   38.9650   23.7310   36.6400 C   0  0  0  0  0  0  0  0  0  0  0  0
   39.6400   22.6880   37.1910 C   0  0  0  0  0  0  0  0  0  0  0  0
   40.9510   22.4790   36.8470 C   0  0  0  0  0  0  0  0  0  0  0  0
   41.8420   21.1400   37.5400 Cl  0  0  0  0  0  0  0  0  0  0  0  0
   41.5700   23.3200   35.9510 C   0  0  0  0  0  0  0  0  0  0  0  0
   37.9390   23.8270   36.9630 H   0  0  0  0  0  0  0  0  0  0  0  0
   39.2010   21.9920   37.9020 H   0  0  0  0  0  0  0  0  0  0  0  0
   37.9050   25.3900   34.1060 C   0  0  0  0  0  0  0  0  0  0  0  0
   38.6790   25.6430   35.2570 C   0  0  0  0  0  0  0  0  0  0  0  0
   38.5220   26.8910   35.8710 C   0  0  0  0  0  0  0  0  0  0  0  0
   37.6490   27.7840   35.3410 N   0  0  0  0  0  0  0  0  0  0  0  0
   36.9260   27.5020   34.2340 C   0  0  0  0  0  0  0  0  0  0  0  0
   37.0560   26.3080   33.6210 N   0  0  0  0  0  0  0  0  0  0  0  0
   37.9340   24.4670   33.5430 H   0  0  0  0  0  0  0  0  0  0  0  0
   39.1200   27.0460   36.7340 H   0  0  0  0  0  0  0  0  0  0  0  0
   36.3110   28.3660   34.0110 H   0  0  0  0  0  0  0  0  0  0  0  0
   42.9880   23.1130   35.5670 C   0  0  0  0  0  2  0  0  0  0  0  0
   43.9710   23.8430   36.4310 C   0  0  0  0  0  2  0  0  0  0  0  0
   43.7450   24.9060   36.5890 H   0  0  0  0  0  0  0  0  0  0  0  0
  1  2  1  0  0  0  0
  2  3  2  0  0  0  0
  2  8  1  0  0  0  0
  3  4  1  0  0  0  0
  4  9  1  0  0  0  0
  4  5  2  0  0  0  0
  5 10  1  0  0  0  0
  6  5  1  0  0  0  0
  6  7  1  0  0  0  0
  8  6  2  0  0  0  0
 11 12  1  0  0  0  0
 12  3  1  0  0  0  0
 12 13  2  0  0  0  0
 13 18  1  0  0  0  0
 14 13  1  0  0  0  0
 15 14  2  0  0  0  0
 16 11  2  0  0  0  0
 16 15  1  0  0  0  0
 17 11  1  0  0  0  0
 19 15  1  0  0  0  0
 20  8  1  0  0  0  0
 20 21  1  0  0  0  0
 21 22  1  0  0  0  0
M  END
>  <minimizedAffinity>
-4.375669

$$$$

 OpenBabel03272508153D

 22 23  0  0  0  0  0  0  0  0999 V2000
   38.1670   23.4900   33.5070 Cl  0  0  0  0  0  0  0  0  0  0  0  0
   37.0490   24.4110   32.5310 C   0  0  0  0  0  0  0  0  0  0  0  0
   36.2060   23.6540   31.7620 C   0  0  0  0  0  0  0  0  0  0  0  0
   35.2740   24.3100   30.9480 C   0  0  0  0  0  0  0  0  0  0  0  0
   35.1970   25.6670   30.9120 C   0  0  0  0  0  0  0  0  0  0  0  0
   36.0500   26.4090   31.6890 C   0  0  0  0  0  0  0  0  0  0  0  0
   35.9680   28.1580   31.6640 Cl  0  0  0  0  0  0  0  0  0  0  0  0
   36.9710   25.7800   32.4940 C   0  0  0  0  0  0  0  0  0  0  0  0
   34.5690   23.8000   30.3080 H   0  0  0  0  0  0  0  0  0  0  0  0
   34.4890   26.2160   30.2960 H   0  0  0  0  0  0  0  0  0  0  0  0
   35.1080   21.5380   32.3760 C   0  0  0  0  0  0  0  0  0  0  0  0
   36.1180   22.2030   31.6510 C   0  0  0  0  0  0  0  0  0  0  0  0
   36.9670   21.4120   30.8690 C   0  0  0  0  0  0  0  0  0  0  0  0
   36.7850   20.0680   30.8450 N   0  0  0  0  0  0  0  0  0  0  0  0
   35.8030   19.4700   31.5570 C   0  0  0  0  0  0  0  0  0  0  0  0
   34.9690   20.2060   32.3190 N   0  0  0  0  0  0  0  0  0  0  0  0
   34.3890   22.0350   33.0140 H   0  0  0  0  0  0  0  0  0  0  0  0
   37.7150   21.9450   30.3380 H   0  0  0  0  0  0  0  0  0  0  0  0
   35.8640   18.4030   31.3750 H   0  0  0  0  0  0  0  0  0  0  0  0
   37.9040   26.5630   33.3410 C   0  0  0  0  0  2  0  0  0  0  0  0
   37.3920   26.8430   34.7210 C   0  0  0  0  0  2  0  0  0  0  0  0
   36.3720   27.2480   34.7610 H   0  0  0  0  0  0  0  0  0  0  0  0
  2  1  1  0  0  0  0
  3  2  2  0  0  0  0
  4  3  1  0  0  0  0
  5  4  2  0  0  0  0
  5  6  1  0  0  0  0
  6  8  2  0  0  0  0
  7  6  1  0  0  0  0
  8  2  1  0  0  0  0
  8 20  1  0  0  0  0
  9  4  1  0  0  0  0
 10  5  1  0  0  0  0
 11 17  1  0  0  0  0
 12  3  1  0  0  0  0
 12 11  2  0  0  0  0
 13 12  1  0  0  0  0
 14 13  2  0  0  0  0
 14 15  1  0  0  0  0
 15 16  2  0  0  0  0
 16 11  1  0  0  0  0
 18 13  1  0  0  0  0
 19 15  1  0  0  0  0
 20 21  1  0  0  0  0
 21 22  1  0  0  0  0
M  END
>  <minimizedAffinity>
-4.33833551

$$$$

 OpenBabel03272508153D

 22 23  0  0  0  0  0  0  0  0999 V2000
   35.0170   31.1920   31.9540 Cl  0  0  0  0  0  0  0  0  0  0  0  0
   35.8350   29.7510   32.5070 C   0  0  0  0  0  0  0  0  0  0  0  0
   35.7520   29.5310   33.8560 C   0  0  0  0  0  0  0  0  0  0  0  0
   36.3780   28.3960   34.3880 C   0  0  0  0  0  0  0  0  0  0  0  0
   37.0560   27.5250   33.5950 C   0  0  0  0  0  0  0  0  0  0  0  0
   37.1300   27.7630   32.2460 C   0  0  0  0  0  0  0  0  0  0  0  0
   37.9940   26.6530   31.2010 Cl  0  0  0  0  0  0  0  0  0  0  0  0
   36.5200   28.8720   31.7080 C   0  0  0  0  0  0  0  0  0  0  0  0
   36.3670   28.1380   35.4370 H   0  0  0  0  0  0  0  0  0  0  0  0
   37.5550   26.6330   33.9650 H   0  0  0  0  0  0  0  0  0  0  0  0
   35.8610   31.1990   35.6630 C   0  0  0  0  0  0  0  0  0  0  0  0
   35.0810   30.3260   34.8770 C   0  0  0  0  0  0  0  0  0  0  0  0
   33.7060   30.2890   35.1380 C   0  0  0  0  0  0  0  0  0  0  0  0
   33.1960   31.0780   36.1170 N   0  0  0  0  0  0  0  0  0  0  0  0
   33.9800   31.9010   36.8490 C   0  0  0  0  0  0  0  0  0  0  0  0
   35.3080   31.9590   36.6200 N   0  0  0  0  0  0  0  0  0  0  0  0
   36.9300   31.3200   35.5590 H   0  0  0  0  0  0  0  0  0  0  0  0
   33.1510   29.6210   34.5290 H   0  0  0  0  0  0  0  0  0  0  0  0
   33.3450   32.4190   37.5590 H   0  0  0  0  0  0  0  0  0  0  0  0
   36.5890   29.1480   30.2520 C   0  0  0  0  0  2  0  0  0  0  0  0
   37.7210   30.0450   29.8500 C   0  0  0  0  0  2  0  0  0  0  0  0
   37.8110   30.9650   30.4420 H   0  0  0  0  0  0  0  0  0  0  0  0
  1  2  1  0  0  0  0
  2  3  1  0  0  0  0
  3  4  2  0  0  0  0
  3 12  1  0  0  0  0
  4  9  1  0  0  0  0
  5 10  1  0  0  0  0
  5  4  1  0  0  0  0
  6  5  2  0  0  0  0
  7  6  1  0  0  0  0
  8  6  1  0  0  0  0
  8  2  2  0  0  0  0
 11 16  1  0  0  0  0
 12 13  1  0  0  0  0
 12 11  2  0  0  0  0
 13 14  2  0  0  0  0
 14 15  1  0  0  0  0
 15 19  1  0  0  0  0
 16 15  2  0  0  0  0
 17 11  1  0  0  0  0
 18 13  1  0  0  0  0
 20  8  1  0  0  0  0
 21 20  1  0  0  0  0
 21 22  1  0  0  0  0
M  END
>  <minimizedAffinity>
-4.3118062

$$$$

 OpenBabel03272508153D

 22 23  0  0  0  0  0  0  0  0999 V2000
   38.6730   24.8870   33.8590 Cl  0  0  0  0  0  0  0  0  0  0  0  0
   37.7690   23.4080   33.6460 C   0  0  0  0  0  0  0  0  0  0  0  0
   37.7030   22.6150   34.7600 C   0  0  0  0  0  0  0  0  0  0  0  0
   36.9950   21.4080   34.6810 C   0  0  0  0  0  0  0  0  0  0  0  0
   36.3840   21.0210   33.5300 C   0  0  0  0  0  0  0  0  0  0  0  0
   36.4620   21.8290   32.4230 C   0  0  0  0  0  0  0  0  0  0  0  0
   35.6790   21.3540   30.9300 Cl  0  0  0  0  0  0  0  0  0  0  0  0
   37.1520   23.0170   32.4850 C   0  0  0  0  0  0  0  0  0  0  0  0
   36.8880   20.7180   35.5040 H   0  0  0  0  0  0  0  0  0  0  0  0
   35.8250   20.0950   33.4250 H   0  0  0  0  0  0  0  0  0  0  0  0
   37.5040   23.5270   37.0380 C   0  0  0  0  0  0  0  0  0  0  0  0
   38.2770   22.8370   36.0820 C   0  0  0  0  0  0  0  0  0  0  0  0
   39.5500   22.4100   36.4770 C   0  0  0  0  0  0  0  0  0  0  0  0
   39.9750   22.6760   37.7380 N   0  0  0  0  0  0  0  0  0  0  0  0
   39.2020   23.3420   38.6250 C   0  0  0  0  0  0  0  0  0  0  0  0
   37.9710   23.7650   38.2720 N   0  0  0  0  0  0  0  0  0  0  0  0
   36.5080   23.9060   36.8570 H   0  0  0  0  0  0  0  0  0  0  0  0
   40.1030   21.8950   35.7330 H   0  0  0  0  0  0  0  0  0  0  0  0
   39.7590   23.4290   39.5510 H   0  0  0  0  0  0  0  0  0  0  0  0
   37.2500   23.9030   31.3000 C   0  0  0  0  0  2  0  0  0  0  0  0
   36.1410   24.9060   31.1910 C   0  0  0  0  0  2  0  0  0  0  0  0
   35.1310   24.4900   31.3030 H   0  0  0  0  0  0  0  0  0  0  0  0
  2  1  1  0  0  0  0
  2  3  1  0  0  0  0
  3 12  1  0  0  0  0
  4  3  2  0  0  0  0
  4  9  1  0  0  0  0
  5  4  1  0  0  0  0
  6  8  1  0  0  0  0
  6  5  2  0  0  0  0
  7  6  1  0  0  0  0
  8  2  2  0  0  0  0
 10  5  1  0  0  0  0
 11 16  1  0  0  0  0
 12 13  1  0  0  0  0
 12 11  2  0  0  0  0
 13 14  2  0  0  0  0
 14 15  1  0  0  0  0
 15 19  1  0  0  0  0
 16 15  2  0  0  0  0
 17 11  1  0  0  0  0
 18 13  1  0  0  0  0
 20  8  1  0  0  0  0
 21 20  1  0  0  0  0
 21 22  1  0  0  0  0
M  END
>  <minimizedAffinity>
-4.29912233

$$$$
