
 OpenBabel03272508393D

 26 27  0  0  1  0  0  0  0  0999 V2000
   36.2870   30.3230   48.4250 N   0  0  0  0  0  0  0  0  0  0  0  0
   35.3820   30.0870   47.3250 C   0  0  0  0  0  0  0  0  0  0  0  0
   33.9740   29.8510   47.7280 C   0  0  2  0  0  0  0  0  0  0  0  0
   33.7650   29.1780   48.9600 N   0  0  0  0  0  0  0  0  0  0  0  0
   34.6670   29.6480   50.0030 C   0  0  0  0  0  0  0  0  0  0  0  0
   36.0550   29.3810   49.4750 C   0  0  0  0  0  0  0  0  0  0  0  0
   35.7700   29.2040   46.7460 H   0  0  0  0  0  0  0  0  0  0  0  0
   35.4460   30.9350   46.6160 H   0  0  0  0  0  0  0  0  0  0  0  0
   33.4710   30.8510   47.7930 H   0  0  0  0  0  0  0  0  0  0  0  0
   32.7670   29.3030   49.2330 H   0  0  0  0  0  0  0  0  0  0  0  0
   34.4850   29.0820   50.9310 H   0  0  0  0  0  0  0  0  0  0  0  0
   34.4680   30.7400   50.1150 H   0  0  0  0  0  0  0  0  0  0  0  0
   36.8360   29.5000   50.2490 H   0  0  0  0  0  0  0  0  0  0  0  0
   36.0650   28.3320   49.1030 H   0  0  0  0  0  0  0  0  0  0  0  0
   37.2660   31.3560   48.4410 C   0  0  0  0  0  0  0  0  0  0  0  0
   37.4320   32.2390   49.5090 C   0  0  0  0  0  0  0  0  0  0  0  0
   38.4110   33.2210   49.4510 C   0  0  0  0  0  0  0  0  0  0  0  0
   39.1800   33.2800   48.3290 N   0  0  0  0  0  0  0  0  0  0  0  0
   38.9920   32.3980   47.2980 C   0  0  0  0  0  0  0  0  0  0  0  0
   38.0480   31.4370   47.3330 N   0  0  0  0  0  0  0  0  0  0  0  0
   36.7840   32.1320   50.3680 H   0  0  0  0  0  0  0  0  0  0  0  0
   38.5240   33.8860   50.2730 H   0  0  0  0  0  0  0  0  0  0  0  0
   39.6530   32.5170   46.4370 H   0  0  0  0  0  0  0  0  0  0  0  0
   33.2510   29.0740   46.6500 C   0  0  0  0  0  0  0  0  0  0  0  0
   32.2140   28.1370   47.1890 C   0  0  0  0  0  0  0  0  0  0  0  0
   32.1660   27.2520   46.5210 H   0  0  0  0  0  0  0  0  0  0  0  0
  1 15  1  0  0  0  0
  1  6  1  0  0  0  0
  2  3  1  0  0  0  0
  2  1  1  0  0  0  0
  3  9  1  1  0  0  0
  3  4  1  0  0  0  0
  4 10  1  0  0  0  0
  4  5  1  0  0  0  0
  5 12  1  0  0  0  0
  5 11  1  0  0  0  0
  6  5  1  0  0  0  0
  6 13  1  0  0  0  0
  7  2  1  0  0  0  0
  8  2  1  0  0  0  0
 14  6  1  0  0  0  0
 15 16  1  0  0  0  0
 16 21  1  0  0  0  0
 17 16  2  0  0  0  0
 17 22  1  0  0  0  0
 18 17  1  0  0  0  0
 19 20  1  0  0  0  0
 19 18  2  0  0  0  0
 20 15  2  0  0  0  0
 23 19  1  0  0  0  0
 24 25  1  0  0  0  0
 24  3  1  0  0  0  0
 26 25  1  0  0  0  0
M  END
>  <minimizedAffinity>
-4.40279484

>  <minimizedRMSD>
5.63740063

$$$$
