
 OpenBabel03272510333D

 22 23  0  0  0  0  0  0  0  0999 V2000
   36.1250   30.2040   48.6370 C   0  0  0  0  0  0  0  0  0  0  0  0
   35.0390   30.2680   47.7950 C   0  0  0  0  0  0  0  0  0  0  0  0
   33.9910   29.3730   47.9140 C   0  0  0  0  0  0  0  0  0  0  0  0
   34.0660   28.4110   48.9040 C   0  0  0  0  0  0  0  0  0  0  0  0
   35.1460   28.3330   49.7530 C   0  0  0  0  0  0  0  0  0  0  0  0
   36.2020   29.2340   49.6340 C   0  0  0  0  0  0  0  0  0  0  0  0
   34.9240   30.9990   47.0000 H   0  0  0  0  0  0  0  0  0  0  0  0
   33.1210   29.3890   47.2750 H   0  0  0  0  0  0  0  0  0  0  0  0
   33.3020   27.6550   49.0900 H   0  0  0  0  0  0  0  0  0  0  0  0
   35.2530   27.6000   50.5440 H   0  0  0  0  0  0  0  0  0  0  0  0
   38.1700   33.1700   49.1590 C   0  0  0  0  0  0  0  0  0  0  0  0
   39.1480   33.1070   48.1520 C   0  0  0  0  0  0  0  0  0  0  0  0
   39.0860   32.0010   47.2740 C   0  0  0  0  0  0  0  0  0  0  0  0
   38.1060   31.0880   47.4550 N   0  0  0  0  0  0  0  0  0  0  0  0
   37.1820   31.1860   48.4400 C   0  0  0  0  0  0  0  0  0  0  0  0
   37.2260   32.2310   49.2830 N   0  0  0  0  0  0  0  0  0  0  0  0
   38.1460   33.9910   49.8800 H   0  0  0  0  0  0  0  0  0  0  0  0
   39.8920   33.8630   48.0670 H   0  0  0  0  0  0  0  0  0  0  0  0
   39.8190   31.9120   46.4840 H   0  0  0  0  0  0  0  0  0  0  0  0
   37.3730   29.1640   50.5430 C   0  0  0  0  0  2  0  0  0  0  0  0
   37.1610   29.8380   51.8580 C   0  0  0  0  0  2  0  0  0  0  0  0
   36.1970   30.4170   51.8550 H   0  0  0  0  0  0  0  0  0  0  0  0
  1  6  1  0  0  0  0
  2  3  1  0  0  0  0
  2  1  2  0  0  0  0
  3  4  2  0  0  0  0
  4  9  1  0  0  0  0
  4  5  1  0  0  0  0
  5 10  1  0  0  0  0
  6  5  2  0  0  0  0
  6 20  1  0  0  0  0
  7  2  1  0  0  0  0
  8  3  1  0  0  0  0
 11 16  1  0  0  0  0
 11 17  1  0  0  0  0
 12 11  2  0  0  0  0
 13 14  2  0  0  0  0
 13 12  1  0  0  0  0
 14 15  1  0  0  0  0
 15  1  1  0  0  0  0
 15 16  2  0  0  0  0
 18 12  1  0  0  0  0
 19 13  1  0  0  0  0
 20 21  1  0  0  0  0
 22 21  1  0  0  0  0
M  END
>  <minimizedAffinity>
-5.70044708

>  <minimizedRMSD>
0.479771912

$$$$
