
 OpenBabel03272510333D

 22 23  0  0  0  0  0  0  0  0999 V2000
   35.9980   30.1810   48.6800 C   0  0  0  0  0  0  0  0  0  0  0  0
   35.2900   29.9570   47.5210 C   0  0  0  0  0  0  0  0  0  0  0  0
   34.3030   28.9900   47.4650 C   0  0  0  0  0  0  0  0  0  0  0  0
   34.0470   28.2540   48.6070 C   0  0  0  0  0  0  0  0  0  0  0  0
   34.7460   28.4660   49.7730 C   0  0  0  0  0  0  0  0  0  0  0  0
   35.7410   29.4390   49.8310 C   0  0  0  0  0  0  0  0  0  0  0  0
   35.4470   30.5010   46.5950 H   0  0  0  0  0  0  0  0  0  0  0  0
   33.7240   28.7840   46.5780 H   0  0  0  0  0  0  0  0  0  0  0  0
   33.2940   27.4690   48.6800 H   0  0  0  0  0  0  0  0  0  0  0  0
   34.5840   27.9180   50.6940 H   0  0  0  0  0  0  0  0  0  0  0  0
   37.8280   33.1980   49.5730 C   0  0  0  0  0  0  0  0  0  0  0  0
   38.9070   33.2370   48.6730 C   0  0  0  0  0  0  0  0  0  0  0  0
   38.9900   32.1830   47.7350 C   0  0  0  0  0  0  0  0  0  0  0  0
   38.0440   31.2180   47.7630 N   0  0  0  0  0  0  0  0  0  0  0  0
   37.0190   31.2180   48.6490 C   0  0  0  0  0  0  0  0  0  0  0  0
   36.9240   32.2130   49.5470 N   0  0  0  0  0  0  0  0  0  0  0  0
   37.6890   33.9730   50.3300 H   0  0  0  0  0  0  0  0  0  0  0  0
   39.6170   34.0290   48.7080 H   0  0  0  0  0  0  0  0  0  0  0  0
   39.8040   32.1720   47.0240 H   0  0  0  0  0  0  0  0  0  0  0  0
   36.5030   29.6800   51.0800 C   0  0  0  0  0  2  0  0  0  0  0  0
   37.7690   28.8930   51.1800 C   0  0  0  0  0  2  0  0  0  0  0  0
   37.8300   28.1380   50.3500 H   0  0  0  0  0  0  0  0  0  0  0  0
  1  6  1  0  0  0  0
  2  1  2  0  0  0  0
  3  2  1  0  0  0  0
  3  4  2  0  0  0  0
  4  9  1  0  0  0  0
  4  5  1  0  0  0  0
  5  6  2  0  0  0  0
  5 10  1  0  0  0  0
  6 20  1  0  0  0  0
  7  2  1  0  0  0  0
  8  3  1  0  0  0  0
 11 17  1  0  0  0  0
 12 18  1  0  0  0  0
 12 11  2  0  0  0  0
 13 14  2  0  0  0  0
 13 12  1  0  0  0  0
 14 15  1  0  0  0  0
 15  1  1  0  0  0  0
 15 16  2  0  0  0  0
 16 11  1  0  0  0  0
 19 13  1  0  0  0  0
 20 21  1  0  0  0  0
 22 21  1  0  0  0  0
M  END
>  <minimizedAffinity>
-5.43431044

>  <minimizedRMSD>
0.359460622

$$$$
