
 OpenBabel03272509513D

 27 28  0  0  0  0  0  0  0  0999 V2000
   38.1060   22.6580   33.4780 C   0  0  0  0  0  0  0  0  0  0  0  0
   39.0100   22.0610   33.1800 H   0  0  0  0  0  0  0  0  0  0  0  0
   38.3550   23.7180   33.7040 H   0  0  0  0  0  0  0  0  0  0  0  0
   37.1000   22.6430   32.3550 C   0  0  0  0  0  0  0  0  0  0  0  0
   37.5690   22.1710   31.4480 H   0  0  0  0  0  0  0  0  0  0  0  0
   36.2360   21.9960   32.6390 H   0  0  0  0  0  0  0  0  0  0  0  0
   36.5980   23.9970   32.0310 C   0  0  0  0  0  0  0  0  0  0  0  0
   35.4930   24.0800   31.2040 C   0  0  0  0  0  0  0  0  0  0  0  0
   34.9530   25.2920   30.8450 C   0  0  0  0  0  0  0  0  0  0  0  0
   35.4920   26.4340   31.2920 N   0  0  0  0  0  0  0  0  0  0  0  0
   36.5790   26.3410   32.1070 C   0  0  0  0  0  0  0  0  0  0  0  0
   37.1210   25.1710   32.4690 N   0  0  0  0  0  0  0  0  0  0  0  0
   34.9690   23.2320   30.7770 H   0  0  0  0  0  0  0  0  0  0  0  0
   34.0920   25.4110   30.2010 H   0  0  0  0  0  0  0  0  0  0  0  0
   37.1390   27.1590   32.5600 H   0  0  0  0  0  0  0  0  0  0  0  0
   37.5160   22.1220   34.6560 O   0  0  0  0  0  0  0  0  0  0  0  0
   38.0390   23.4830   37.9750 C   0  0  0  0  0  0  0  0  0  0  0  0
   39.3830   23.0960   38.1850 C   0  0  0  0  0  0  0  0  0  0  0  0
   40.0150   22.3920   37.1670 C   0  0  0  0  0  0  0  0  0  0  0  0
   39.3100   22.1170   36.0320 N   0  0  0  0  0  0  0  0  0  0  0  0
   38.0300   22.5030   35.8690 C   0  0  0  0  0  0  0  0  0  0  0  0
   37.4140   23.1830   36.8490 N   0  0  0  0  0  0  0  0  0  0  0  0
   37.5750   24.0290   38.7860 H   0  0  0  0  0  0  0  0  0  0  0  0
   39.9700   23.3010   39.0780 H   0  0  0  0  0  0  0  0  0  0  0  0
   41.4440   21.9390   37.3010 C   0  0  0  0  0  2  0  0  0  0  0  0
   42.3910   22.8130   36.5210 C   0  0  0  0  0  2  0  0  0  0  0  0
   42.5960   22.4260   35.5050 H   0  0  0  0  0  0  0  0  0  0  0  0
  1  3  1  0  0  0  0
  1 16  1  0  0  0  0
  2  1  1  0  0  0  0
  4  6  1  0  0  0  0
  4  1  1  0  0  0  0
  5  4  1  0  0  0  0
  7  4  1  0  0  0  0
  7 12  1  0  0  0  0
  8  7  2  0  0  0  0
  9  8  1  0  0  0  0
  9 10  2  0  0  0  0
 10 11  1  0  0  0  0
 11 12  2  0  0  0  0
 11 15  1  0  0  0  0
 13  8  1  0  0  0  0
 14  9  1  0  0  0  0
 16 21  1  0  0  0  0
 17 18  1  0  0  0  0
 17 23  1  0  0  0  0
 18 24  1  0  0  0  0
 19 25  1  0  0  0  0
 19 18  2  0  0  0  0
 20 19  1  0  0  0  0
 21 20  2  0  0  0  0
 21 22  1  0  0  0  0
 22 17  2  0  0  0  0
 26 25  1  0  0  0  0
 27 26  1  0  0  0  0
M  END
>  <minimizedAffinity>
-4.53398514

$$$$

 OpenBabel03272509513D

 27 28  0  0  0  0  0  0  0  0999 V2000
   38.4920   23.2560   33.4710 C   0  0  0  0  0  0  0  0  0  0  0  0
   38.9810   24.1200   33.9970 H   0  0  0  0  0  0  0  0  0  0  0  0
   39.1500   22.8060   32.6950 H   0  0  0  0  0  0  0  0  0  0  0  0
   38.1490   22.1840   34.4740 C   0  0  0  0  0  0  0  0  0  0  0  0
   37.0410   21.9960   34.4450 H   0  0  0  0  0  0  0  0  0  0  0  0
   38.6410   21.2280   34.1770 H   0  0  0  0  0  0  0  0  0  0  0  0
   38.5770   22.5380   35.8450 C   0  0  0  0  0  0  0  0  0  0  0  0
   37.6730   23.2300   36.6300 C   0  0  0  0  0  0  0  0  0  0  0  0
   37.9780   23.6040   37.9170 C   0  0  0  0  0  0  0  0  0  0  0  0
   39.1710   23.3040   38.4470 N   0  0  0  0  0  0  0  0  0  0  0  0
   40.0540   22.6220   37.6660 C   0  0  0  0  0  0  0  0  0  0  0  0
   39.7780   22.2480   36.4090 N   0  0  0  0  0  0  0  0  0  0  0  0
   36.6790   23.5320   36.3180 H   0  0  0  0  0  0  0  0  0  0  0  0
   37.3080   24.1460   38.5710 H   0  0  0  0  0  0  0  0  0  0  0  0
   41.0600   22.2970   37.9300 H   0  0  0  0  0  0  0  0  0  0  0  0
   37.3110   23.6800   32.8010 O   0  0  0  0  0  0  0  0  0  0  0  0
   36.4090   27.0110   31.6880 C   0  0  0  0  0  0  0  0  0  0  0  0
   36.7190   27.7470   32.8560 C   0  0  0  0  0  0  0  0  0  0  0  0
   37.2180   27.0430   33.9450 C   0  0  0  0  0  0  0  0  0  0  0  0
   37.3790   25.6940   33.8290 N   0  0  0  0  0  0  0  0  0  0  0  0
   37.0720   25.0270   32.6990 C   0  0  0  0  0  0  0  0  0  0  0  0
   36.5900   25.7020   31.6430 N   0  0  0  0  0  0  0  0  0  0  0  0
   36.0230   27.5880   30.8580 H   0  0  0  0  0  0  0  0  0  0  0  0
   36.6020   28.8220   32.9780 H   0  0  0  0  0  0  0  0  0  0  0  0
   37.5750   27.7420   35.2290 C   0  0  0  0  0  2  0  0  0  0  0  0
   38.6880   27.0410   35.9650 C   0  0  0  0  0  2  0  0  0  0  0  0
   38.3190   26.3200   36.7180 H   0  0  0  0  0  0  0  0  0  0  0  0
  1  2  1  0  0  0  0
  1  4  1  0  0  0  0
  3  1  1  0  0  0  0
  4  7  1  0  0  0  0
  5  4  1  0  0  0  0
  6  4  1  0  0  0  0
  7 12  2  0  0  0  0
  7  8  1  0  0  0  0
  8  9  2  0  0  0  0
  9 10  1  0  0  0  0
  9 14  1  0  0  0  0
 11 15  1  0  0  0  0
 11 10  2  0  0  0  0
 12 11  1  0  0  0  0
 13  8  1  0  0  0  0
 16  1  1  0  0  0  0
 17 18  1  0  0  0  0
 18 24  1  0  0  0  0
 18 19  2  0  0  0  0
 19 25  1  0  0  0  0
 20 19  1  0  0  0  0
 21 16  1  0  0  0  0
 21 20  2  0  0  0  0
 22 17  2  0  0  0  0
 22 21  1  0  0  0  0
 23 17  1  0  0  0  0
 25 26  1  0  0  0  0
 26 27  1  0  0  0  0
M  END
>  <minimizedAffinity>
-4.37889957

$$$$

 OpenBabel03272509513D

 27 28  0  0  0  0  0  0  0  0999 V2000
   36.3560   27.0800   31.2260 C   0  0  0  0  0  0  0  0  0  0  0  0
   36.0240   27.8010   30.4320 H   0  0  0  0  0  0  0  0  0  0  0  0
   37.4110   26.7550   31.0870 H   0  0  0  0  0  0  0  0  0  0  0  0
   36.2420   27.7320   32.5800 C   0  0  0  0  0  0  0  0  0  0  0  0
   36.0940   28.8390   32.4430 H   0  0  0  0  0  0  0  0  0  0  0  0
   35.3300   27.3520   33.0990 H   0  0  0  0  0  0  0  0  0  0  0  0
   37.4220   27.4710   33.4320 C   0  0  0  0  0  0  0  0  0  0  0  0
   37.2440   27.5540   34.8010 C   0  0  0  0  0  0  0  0  0  0  0  0
   38.2800   27.3290   35.6770 C   0  0  0  0  0  0  0  0  0  0  0  0
   39.5000   27.0200   35.2180 N   0  0  0  0  0  0  0  0  0  0  0  0
   39.6650   26.9390   33.8690 C   0  0  0  0  0  0  0  0  0  0  0  0
   38.6690   27.1550   32.9980 N   0  0  0  0  0  0  0  0  0  0  0  0
   36.3090   27.7970   35.2940 H   0  0  0  0  0  0  0  0  0  0  0  0
   38.1930   27.3830   36.7530 H   0  0  0  0  0  0  0  0  0  0  0  0
   40.5790   26.7010   33.3260 H   0  0  0  0  0  0  0  0  0  0  0  0
   35.5630   25.8990   31.1950 O   0  0  0  0  0  0  0  0  0  0  0  0
   37.9260   23.2030   30.6530 C   0  0  0  0  0  0  0  0  0  0  0  0
   37.1740   22.1180   31.1600 C   0  0  0  0  0  0  0  0  0  0  0  0
   35.9040   22.3920   31.6540 C   0  0  0  0  0  0  0  0  0  0  0  0
   35.4580   23.6810   31.6220 N   0  0  0  0  0  0  0  0  0  0  0  0
   36.2050   24.6890   31.1290 C   0  0  0  0  0  0  0  0  0  0  0  0
   37.4320   24.4300   30.6520 N   0  0  0  0  0  0  0  0  0  0  0  0
   38.9100   22.9570   30.2760 H   0  0  0  0  0  0  0  0  0  0  0  0
   37.5020   21.0820   31.1990 H   0  0  0  0  0  0  0  0  0  0  0  0
   35.0320   21.3020   32.2140 C   0  0  0  0  0  2  0  0  0  0  0  0
   35.5900   20.7280   33.4910 C   0  0  0  0  0  2  0  0  0  0  0  0
   36.2190   19.8350   33.3220 H   0  0  0  0  0  0  0  0  0  0  0  0
  1  4  1  0  0  0  0
  2  1  1  0  0  0  0
  3  1  1  0  0  0  0
  4  6  1  0  0  0  0
  4  7  1  0  0  0  0
  5  4  1  0  0  0  0
  7  8  1  0  0  0  0
  8 13  1  0  0  0  0
  8  9  2  0  0  0  0
  9 14  1  0  0  0  0
 10  9  1  0  0  0  0
 11 10  2  0  0  0  0
 12  7  2  0  0  0  0
 12 11  1  0  0  0  0
 15 11  1  0  0  0  0
 16  1  1  0  0  0  0
 17 18  1  0  0  0  0
 18 24  1  0  0  0  0
 18 19  2  0  0  0  0
 19 25  1  0  0  0  0
 20 19  1  0  0  0  0
 21 16  1  0  0  0  0
 21 20  2  0  0  0  0
 22 17  2  0  0  0  0
 22 21  1  0  0  0  0
 23 17  1  0  0  0  0
 25 26  1  0  0  0  0
 27 26  1  0  0  0  0
M  END
>  <minimizedAffinity>
-4.34303141

$$$$

 OpenBabel03272509513D

 27 28  0  0  0  0  0  0  0  0999 V2000
   37.1690   27.2270   34.7050 C   0  0  0  0  0  0  0  0  0  0  0  0
   36.3400   26.5190   34.9750 H   0  0  0  0  0  0  0  0  0  0  0  0
   36.8460   28.2910   34.7500 H   0  0  0  0  0  0  0  0  0  0  0  0
   38.3190   27.0460   35.6630 C   0  0  0  0  0  0  0  0  0  0  0  0
   39.1990   27.6430   35.2970 H   0  0  0  0  0  0  0  0  0  0  0  0
   38.0420   27.4690   36.6590 H   0  0  0  0  0  0  0  0  0  0  0  0
   38.6920   25.6250   35.8330 C   0  0  0  0  0  0  0  0  0  0  0  0
   37.9160   24.8660   36.6890 C   0  0  0  0  0  0  0  0  0  0  0  0
   38.1830   23.5360   36.9130 C   0  0  0  0  0  0  0  0  0  0  0  0
   39.2130   22.9380   36.3000 N   0  0  0  0  0  0  0  0  0  0  0  0
   39.9710   23.6950   35.4590 C   0  0  0  0  0  0  0  0  0  0  0  0
   39.7280   24.9920   35.2260 N   0  0  0  0  0  0  0  0  0  0  0  0
   37.0580   25.2320   37.2430 H   0  0  0  0  0  0  0  0  0  0  0  0
   37.6080   22.9000   37.5720 H   0  0  0  0  0  0  0  0  0  0  0  0
   40.8390   23.3760   34.8810 H   0  0  0  0  0  0  0  0  0  0  0  0
   37.6140   26.9960   33.3750 O   0  0  0  0  0  0  0  0  0  0  0  0
   35.2030   25.8060   30.9410 C   0  0  0  0  0  0  0  0  0  0  0  0
   35.4200   24.4130   31.0490 C   0  0  0  0  0  0  0  0  0  0  0  0
   36.3830   23.9800   31.9530 C   0  0  0  0  0  0  0  0  0  0  0  0
   37.0590   24.9160   32.6800 N   0  0  0  0  0  0  0  0  0  0  0  0
   36.8230   26.2370   32.5490 C   0  0  0  0  0  0  0  0  0  0  0  0
   35.8950   26.6600   31.6780 N   0  0  0  0  0  0  0  0  0  0  0  0
   34.4480   26.1100   30.2290 H   0  0  0  0  0  0  0  0  0  0  0  0
   34.8980   23.6440   30.4830 H   0  0  0  0  0  0  0  0  0  0  0  0
   36.6820   22.5170   32.1350 C   0  0  0  0  0  2  0  0  0  0  0  0
   35.4610   21.6590   31.9320 C   0  0  0  0  0  2  0  0  0  0  0  0
   34.9260   21.4410   32.8750 H   0  0  0  0  0  0  0  0  0  0  0  0
  1  3  1  0  0  0  0
  1  2  1  0  0  0  0
  1  4  1  0  0  0  0
  4  7  1  0  0  0  0
  4  6  1  0  0  0  0
  5  4  1  0  0  0  0
  7  8  1  0  0  0  0
  8  9  2  0  0  0  0
  8 13  1  0  0  0  0
  9 14  1  0  0  0  0
 10  9  1  0  0  0  0
 11 10  2  0  0  0  0
 12 11  1  0  0  0  0
 12  7  2  0  0  0  0
 15 11  1  0  0  0  0
 16  1  1  0  0  0  0
 17 18  2  0  0  0  0
 17 22  1  0  0  0  0
 18 19  1  0  0  0  0
 19 25  1  0  0  0  0
 19 20  2  0  0  0  0
 21 20  1  0  0  0  0
 21 16  1  0  0  0  0
 22 21  2  0  0  0  0
 23 17  1  0  0  0  0
 24 18  1  0  0  0  0
 26 25  1  0  0  0  0
 26 27  1  0  0  0  0
M  END
>  <minimizedAffinity>
-4.33551216

$$$$

 OpenBabel03272509513D

 27 28  0  0  0  0  0  0  0  0999 V2000
   37.8710   26.0540   34.5630 C   0  0  0  0  0  0  0  0  0  0  0  0
   38.8070   26.6720   34.6310 H   0  0  0  0  0  0  0  0  0  0  0  0
   37.1190   26.3420   35.3300 H   0  0  0  0  0  0  0  0  0  0  0  0
   37.2450   26.2350   33.2030 C   0  0  0  0  0  0  0  0  0  0  0  0
   38.0430   26.1370   32.4160 H   0  0  0  0  0  0  0  0  0  0  0  0
   36.5150   25.4110   33.0190 H   0  0  0  0  0  0  0  0  0  0  0  0
   36.5470   27.5330   33.0720 C   0  0  0  0  0  0  0  0  0  0  0  0
   36.3450   28.2600   34.2310 C   0  0  0  0  0  0  0  0  0  0  0  0
   35.7060   29.4780   34.2130 C   0  0  0  0  0  0  0  0  0  0  0  0
   35.2590   29.9920   33.0600 N   0  0  0  0  0  0  0  0  0  0  0  0
   35.4640   29.2680   31.9250 C   0  0  0  0  0  0  0  0  0  0  0  0
   36.0850   28.0800   31.9200 N   0  0  0  0  0  0  0  0  0  0  0  0
   36.6570   27.9530   35.2230 H   0  0  0  0  0  0  0  0  0  0  0  0
   35.5230   30.0840   35.0900 H   0  0  0  0  0  0  0  0  0  0  0  0
   35.1720   29.5310   30.9090 H   0  0  0  0  0  0  0  0  0  0  0  0
   38.1600   24.6780   34.7780 O   0  0  0  0  0  0  0  0  0  0  0  0
   37.9490   24.0790   38.3480 C   0  0  0  0  0  0  0  0  0  0  0  0
   39.0370   23.1900   38.5070 C   0  0  0  0  0  0  0  0  0  0  0  0
   39.7690   22.8590   37.3720 C   0  0  0  0  0  0  0  0  0  0  0  0
   39.3990   23.4060   36.1790 N   0  0  0  0  0  0  0  0  0  0  0  0
   38.3540   24.2500   36.0670 C   0  0  0  0  0  0  0  0  0  0  0  0
   37.6450   24.5730   37.1590 N   0  0  0  0  0  0  0  0  0  0  0  0
   37.4000   24.3170   39.2490 H   0  0  0  0  0  0  0  0  0  0  0  0
   39.3560   22.7390   39.4450 H   0  0  0  0  0  0  0  0  0  0  0  0
   40.9430   21.9220   37.4460 C   0  0  0  0  0  2  0  0  0  0  0  0
   42.1320   22.4420   36.6820 C   0  0  0  0  0  2  0  0  0  0  0  0
   42.1770   22.0630   35.6440 H   0  0  0  0  0  0  0  0  0  0  0  0
  1  2  1  0  0  0  0
  1 16  1  0  0  0  0
  1  3  1  0  0  0  0
  4  1  1  0  0  0  0
  5  4  1  0  0  0  0
  6  4  1  0  0  0  0
  7  4  1  0  0  0  0
  7  8  1  0  0  0  0
  8 13  1  0  0  0  0
  9  8  2  0  0  0  0
  9 14  1  0  0  0  0
 10  9  1  0  0  0  0
 11 10  2  0  0  0  0
 12 11  1  0  0  0  0
 12  7  2  0  0  0  0
 15 11  1  0  0  0  0
 16 21  1  0  0  0  0
 17 18  1  0  0  0  0
 17 23  1  0  0  0  0
 18 24  1  0  0  0  0
 19 25  1  0  0  0  0
 19 18  2  0  0  0  0
 20 19  1  0  0  0  0
 21 20  2  0  0  0  0
 21 22  1  0  0  0  0
 22 17  2  0  0  0  0
 26 25  1  0  0  0  0
 27 26  1  0  0  0  0
M  END
>  <minimizedAffinity>
-4.32720518

$$$$

 OpenBabel03272509513D

 27 28  0  0  0  0  0  0  0  0999 V2000
   37.8660   22.2990   35.8880 C   0  0  0  0  0  0  0  0  0  0  0  0
   37.5800   21.3920   36.4850 H   0  0  0  0  0  0  0  0  0  0  0  0
   37.0140   23.0000   35.7500 H   0  0  0  0  0  0  0  0  0  0  0  0
   38.9720   23.0410   36.5960 C   0  0  0  0  0  0  0  0  0  0  0  0
   38.7570   23.0530   37.7000 H   0  0  0  0  0  0  0  0  0  0  0  0
   39.9320   22.4870   36.4660 H   0  0  0  0  0  0  0  0  0  0  0  0
   39.1400   24.4200   36.0870 C   0  0  0  0  0  0  0  0  0  0  0  0
   38.2200   25.3630   36.5050 C   0  0  0  0  0  0  0  0  0  0  0  0
   38.2920   26.6720   36.0870 C   0  0  0  0  0  0  0  0  0  0  0  0
   39.2660   27.0660   35.2560 N   0  0  0  0  0  0  0  0  0  0  0  0
   40.1670   26.1290   34.8520 C   0  0  0  0  0  0  0  0  0  0  0  0
   40.1160   24.8490   35.2470 N   0  0  0  0  0  0  0  0  0  0  0  0
   37.3880   25.1700   37.1730 H   0  0  0  0  0  0  0  0  0  0  0  0
   37.5980   27.4460   36.3830 H   0  0  0  0  0  0  0  0  0  0  0  0
   41.0170   26.2710   34.1850 H   0  0  0  0  0  0  0  0  0  0  0  0
   38.2980   21.9270   34.5850 O   0  0  0  0  0  0  0  0  0  0  0  0
   36.4920   23.3160   31.7640 C   0  0  0  0  0  0  0  0  0  0  0  0
   35.6060   22.2480   31.4960 C   0  0  0  0  0  0  0  0  0  0  0  0
   35.6930   21.1220   32.3070 C   0  0  0  0  0  0  0  0  0  0  0  0
   36.6200   21.1110   33.3070 N   0  0  0  0  0  0  0  0  0  0  0  0
   37.4480   22.1510   33.5320 C   0  0  0  0  0  0  0  0  0  0  0  0
   37.3690   23.2400   32.7520 N   0  0  0  0  0  0  0  0  0  0  0  0
   36.4010   24.1770   31.1160 H   0  0  0  0  0  0  0  0  0  0  0  0
   34.8570   22.2270   30.7070 H   0  0  0  0  0  0  0  0  0  0  0  0
   34.7900   19.9360   32.0960 C   0  0  0  0  0  2  0  0  0  0  0  0
   35.3540   18.6790   32.7060 C   0  0  0  0  0  2  0  0  0  0  0  0
   35.9430   18.0790   31.9880 H   0  0  0  0  0  0  0  0  0  0  0  0
  1  2  1  0  0  0  0
  1  4  1  0  0  0  0
  3  1  1  0  0  0  0
  4  5  1  0  0  0  0
  6  4  1  0  0  0  0
  7  8  1  0  0  0  0
  7  4  1  0  0  0  0
  8 13  1  0  0  0  0
  9 14  1  0  0  0  0
  9  8  2  0  0  0  0
 10  9  1  0  0  0  0
 11 12  1  0  0  0  0
 11 10  2  0  0  0  0
 12  7  2  0  0  0  0
 15 11  1  0  0  0  0
 16  1  1  0  0  0  0
 17 22  1  0  0  0  0
 18 17  2  0  0  0  0
 18 19  1  0  0  0  0
 19 20  2  0  0  0  0
 20 21  1  0  0  0  0
 21 16  1  0  0  0  0
 22 21  2  0  0  0  0
 23 17  1  0  0  0  0
 24 18  1  0  0  0  0
 25 19  1  0  0  0  0
 25 26  1  0  0  0  0
 27 26  1  0  0  0  0
M  END
>  <minimizedAffinity>
-4.31810427

$$$$

 OpenBabel03272509513D

 27 28  0  0  0  0  0  0  0  0999 V2000
   36.8180   24.0150   31.5850 C   0  0  0  0  0  0  0  0  0  0  0  0
   37.1690   24.1030   32.6490 H   0  0  0  0  0  0  0  0  0  0  0  0
   37.5500   23.4780   30.9420 H   0  0  0  0  0  0  0  0  0  0  0  0
   35.5160   23.2560   31.5460 C   0  0  0  0  0  0  0  0  0  0  0  0
   34.9180   23.5050   32.4650 H   0  0  0  0  0  0  0  0  0  0  0  0
   34.9130   23.5990   30.6720 H   0  0  0  0  0  0  0  0  0  0  0  0
   35.7200   21.7940   31.4430 C   0  0  0  0  0  0  0  0  0  0  0  0
   34.7880   20.9820   32.0630 C   0  0  0  0  0  0  0  0  0  0  0  0
   34.8900   19.6110   32.0250 C   0  0  0  0  0  0  0  0  0  0  0  0
   35.9070   19.0250   31.3790 N   0  0  0  0  0  0  0  0  0  0  0  0
   36.8180   19.8330   30.7710 C   0  0  0  0  0  0  0  0  0  0  0  0
   36.7380   21.1710   30.7960 N   0  0  0  0  0  0  0  0  0  0  0  0
   33.9240   21.3330   32.6170 H   0  0  0  0  0  0  0  0  0  0  0  0
   34.1900   18.9330   32.4940 H   0  0  0  0  0  0  0  0  0  0  0  0
   37.6990   19.5320   30.2060 H   0  0  0  0  0  0  0  0  0  0  0  0
   36.6400   25.3020   31.0070 O   0  0  0  0  0  0  0  0  0  0  0  0
   35.7570   28.4780   32.5180 C   0  0  0  0  0  0  0  0  0  0  0  0
   36.3610   28.3170   33.7860 C   0  0  0  0  0  0  0  0  0  0  0  0
   37.0310   27.1250   34.0320 C   0  0  0  0  0  0  0  0  0  0  0  0
   37.0680   26.1840   33.0450 N   0  0  0  0  0  0  0  0  0  0  0  0
   36.4790   26.3740   31.8470 C   0  0  0  0  0  0  0  0  0  0  0  0
   35.8310   27.5240   31.6050 N   0  0  0  0  0  0  0  0  0  0  0  0
   35.2420   29.4160   32.3570 H   0  0  0  0  0  0  0  0  0  0  0  0
   36.3490   29.0480   34.5920 H   0  0  0  0  0  0  0  0  0  0  0  0
   37.7050   26.8650   35.3520 C   0  0  0  0  0  2  0  0  0  0  0  0
   39.1860   27.1350   35.2950 C   0  0  0  0  0  2  0  0  0  0  0  0
   39.7790   26.2300   35.0660 H   0  0  0  0  0  0  0  0  0  0  0  0
  1  2  1  0  0  0  0
  3  1  1  0  0  0  0
  4  1  1  0  0  0  0
  4  5  1  0  0  0  0
  6  4  1  0  0  0  0
  7  4  1  0  0  0  0
  7  8  1  0  0  0  0
  8 13  1  0  0  0  0
  9  8  2  0  0  0  0
  9 14  1  0  0  0  0
 10  9  1  0  0  0  0
 11 12  1  0  0  0  0
 11 10  2  0  0  0  0
 12  7  2  0  0  0  0
 15 11  1  0  0  0  0
 16  1  1  0  0  0  0
 16 21  1  0  0  0  0
 17 18  1  0  0  0  0
 18 19  2  0  0  0  0
 18 24  1  0  0  0  0
 19 25  1  0  0  0  0
 20 19  1  0  0  0  0
 21 20  2  0  0  0  0
 22 21  1  0  0  0  0
 22 17  2  0  0  0  0
 23 17  1  0  0  0  0
 26 25  1  0  0  0  0
 27 26  1  0  0  0  0
M  END
>  <minimizedAffinity>
-4.31239033

$$$$

 OpenBabel03272509513D

 27 28  0  0  0  0  0  0  0  0999 V2000
   38.1630   23.2090   33.5120 C   0  0  0  0  0  0  0  0  0  0  0  0
   38.0720   22.1930   33.9820 H   0  0  0  0  0  0  0  0  0  0  0  0
   39.1840   23.3990   33.1140 H   0  0  0  0  0  0  0  0  0  0  0  0
   37.1860   23.3250   32.3690 C   0  0  0  0  0  0  0  0  0  0  0  0
   36.3400   24.0000   32.6770 H   0  0  0  0  0  0  0  0  0  0  0  0
   37.6870   23.8180   31.5020 H   0  0  0  0  0  0  0  0  0  0  0  0
   36.6650   22.0090   31.9370 C   0  0  0  0  0  0  0  0  0  0  0  0
   35.5070   21.5590   32.5430 C   0  0  0  0  0  0  0  0  0  0  0  0
   34.9450   20.3490   32.2110 C   0  0  0  0  0  0  0  0  0  0  0  0
   35.5140   19.5700   31.2820 N   0  0  0  0  0  0  0  0  0  0  0  0
   36.6540   20.0230   30.6910 C   0  0  0  0  0  0  0  0  0  0  0  0
   37.2180   21.1980   31.0000 N   0  0  0  0  0  0  0  0  0  0  0  0
   34.9540   22.0940   33.3080 H   0  0  0  0  0  0  0  0  0  0  0  0
   34.0430   19.9520   32.6550 H   0  0  0  0  0  0  0  0  0  0  0  0
   37.2450   19.5260   29.9220 H   0  0  0  0  0  0  0  0  0  0  0  0
   37.9050   24.2300   34.4680 O   0  0  0  0  0  0  0  0  0  0  0  0
   37.9840   24.1110   38.0910 C   0  0  0  0  0  0  0  0  0  0  0  0
   39.0940   23.2550   38.2790 C   0  0  0  0  0  0  0  0  0  0  0  0
   39.7380   22.7780   37.1440 C   0  0  0  0  0  0  0  0  0  0  0  0
   39.2680   23.1600   35.9220 N   0  0  0  0  0  0  0  0  0  0  0  0
   38.2060   23.9780   35.7820 C   0  0  0  0  0  0  0  0  0  0  0  0
   37.5800   24.4410   36.8750 N   0  0  0  0  0  0  0  0  0  0  0  0
   37.5050   24.4640   38.9940 H   0  0  0  0  0  0  0  0  0  0  0  0
   39.4920   22.9340   39.2400 H   0  0  0  0  0  0  0  0  0  0  0  0
   40.9280   21.8630   37.2470 C   0  0  0  0  0  2  0  0  0  0  0  0
   42.1840   22.5040   36.7150 C   0  0  0  0  0  2  0  0  0  0  0  0
   42.3710   22.2660   35.6510 H   0  0  0  0  0  0  0  0  0  0  0  0
  1  2  1  0  0  0  0
  1 16  1  0  0  0  0
  3  1  1  0  0  0  0
  4  5  1  0  0  0  0
  4  1  1  0  0  0  0
  6  4  1  0  0  0  0
  7  4  1  0  0  0  0
  7  8  1  0  0  0  0
  8 13  1  0  0  0  0
  9  8  2  0  0  0  0
  9 14  1  0  0  0  0
 10  9  1  0  0  0  0
 11 12  1  0  0  0  0
 11 10  2  0  0  0  0
 12  7  2  0  0  0  0
 15 11  1  0  0  0  0
 16 21  1  0  0  0  0
 17 18  1  0  0  0  0
 17 23  1  0  0  0  0
 18 24  1  0  0  0  0
 19 25  1  0  0  0  0
 19 18  2  0  0  0  0
 20 19  1  0  0  0  0
 21 20  2  0  0  0  0
 21 22  1  0  0  0  0
 22 17  2  0  0  0  0
 26 25  1  0  0  0  0
 27 26  1  0  0  0  0
M  END
>  <minimizedAffinity>
-4.30774927

$$$$

 OpenBabel03272509513D

 27 28  0  0  0  0  0  0  0  0999 V2000
   37.7790   22.3350   35.8480 C   0  0  0  0  0  0  0  0  0  0  0  0
   37.4250   21.4980   36.5080 H   0  0  0  0  0  0  0  0  0  0  0  0
   36.9900   23.1010   35.6790 H   0  0  0  0  0  0  0  0  0  0  0  0
   38.9620   23.0150   36.4890 C   0  0  0  0  0  0  0  0  0  0  0  0
   38.8340   22.9990   37.6060 H   0  0  0  0  0  0  0  0  0  0  0  0
   39.8880   22.4340   36.2670 H   0  0  0  0  0  0  0  0  0  0  0  0
   39.1400   24.4040   36.0090 C   0  0  0  0  0  0  0  0  0  0  0  0
   38.2000   25.3350   36.4100 C   0  0  0  0  0  0  0  0  0  0  0  0
   38.2780   26.6510   36.0170 C   0  0  0  0  0  0  0  0  0  0  0  0
   39.2790   27.0640   35.2280 N   0  0  0  0  0  0  0  0  0  0  0  0
   40.2000   26.1390   34.8400 C   0  0  0  0  0  0  0  0  0  0  0  0
   40.1420   24.8530   35.2110 N   0  0  0  0  0  0  0  0  0  0  0  0
   37.3460   25.1260   37.0450 H   0  0  0  0  0  0  0  0  0  0  0  0
   37.5700   27.4160   36.3010 H   0  0  0  0  0  0  0  0  0  0  0  0
   41.0720   26.2970   34.2060 H   0  0  0  0  0  0  0  0  0  0  0  0
   38.1450   21.8440   34.5650 O   0  0  0  0  0  0  0  0  0  0  0  0
   35.4260   20.9560   32.3370 C   0  0  0  0  0  0  0  0  0  0  0  0
   35.4010   22.1070   31.5170 C   0  0  0  0  0  0  0  0  0  0  0  0
   36.3240   23.1100   31.7890 C   0  0  0  0  0  0  0  0  0  0  0  0
   37.1950   22.9290   32.8230 N   0  0  0  0  0  0  0  0  0  0  0  0
   37.1880   21.8160   33.5830 C   0  0  0  0  0  0  0  0  0  0  0  0
   36.2980   20.8450   33.3250 N   0  0  0  0  0  0  0  0  0  0  0  0
   34.6950   20.1940   32.1000 H   0  0  0  0  0  0  0  0  0  0  0  0
   34.7200   22.2800   30.6860 H   0  0  0  0  0  0  0  0  0  0  0  0
   36.3730   24.3710   30.9690 C   0  0  0  0  0  2  0  0  0  0  0  0
   35.0460   25.0840   30.9480 C   0  0  0  0  0  2  0  0  0  0  0  0
   34.4210   24.8060   30.0790 H   0  0  0  0  0  0  0  0  0  0  0  0
  1  4  1  0  0  0  0
  1  2  1  0  0  0  0
  3  1  1  0  0  0  0
  4  5  1  0  0  0  0
  6  4  1  0  0  0  0
  7  8  1  0  0  0  0
  7  4  1  0  0  0  0
  8 13  1  0  0  0  0
  9 14  1  0  0  0  0
  9  8  2  0  0  0  0
 10  9  1  0  0  0  0
 11 12  1  0  0  0  0
 11 10  2  0  0  0  0
 12  7  2  0  0  0  0
 15 11  1  0  0  0  0
 16  1  1  0  0  0  0
 17 22  1  0  0  0  0
 18 19  1  0  0  0  0
 18 17  2  0  0  0  0
 19 20  2  0  0  0  0
 20 21  1  0  0  0  0
 21 16  1  0  0  0  0
 22 21  2  0  0  0  0
 23 17  1  0  0  0  0
 24 18  1  0  0  0  0
 25 19  1  0  0  0  0
 26 25  1  0  0  0  0
 27 26  1  0  0  0  0
M  END
>  <minimizedAffinity>
-4.29898596

$$$$
