
 OpenBabel03272502203D

 22 23  0  0  0  0  0  0  0  0999 V2000
   39.8170   22.8670   37.2820 C   0  0  0  0  0  0  0  0  0  0  0  0
   38.9800   23.1420   38.3830 C   0  0  0  0  0  0  0  0  0  0  0  0
   37.8470   23.9250   38.1620 C   0  0  0  0  0  0  0  0  0  0  0  0
   37.6020   24.3880   36.9000 N   0  0  0  0  0  0  0  0  0  0  0  0
   38.4350   24.0980   35.8720 C   0  0  0  0  0  0  0  0  0  0  0  0
   39.5480   23.3370   36.0520 N   0  0  0  0  0  0  0  0  0  0  0  0
   39.2210   22.7570   39.3370 H   0  0  0  0  0  0  0  0  0  0  0  0
   37.1800   24.1600   38.9790 H   0  0  0  0  0  0  0  0  0  0  0  0
   38.7400   27.2140   35.5900 Br  0  0  0  0  0  0  0  0  0  0  0  0
   38.2750   25.9380   34.2310 C   0  0  0  0  0  0  0  0  0  0  0  0
   38.1800   24.5900   34.5140 C   0  0  0  0  0  0  0  0  0  0  0  0
   37.8410   23.7540   33.4790 C   0  0  0  0  0  0  0  0  0  0  0  0
   37.5940   24.1770   32.1940 C   0  0  0  0  0  0  0  0  0  0  0  0
   37.7010   25.5410   31.9510 C   0  0  0  0  0  0  0  0  0  0  0  0
   38.0390   26.4070   32.9680 C   0  0  0  0  0  0  0  0  0  0  0  0
   37.7780   22.6960   33.7510 H   0  0  0  0  0  0  0  0  0  0  0  0
   37.3290   23.4830   31.4060 H   0  0  0  0  0  0  0  0  0  0  0  0
   37.5120   25.9000   30.9490 H   0  0  0  0  0  0  0  0  0  0  0  0
   38.1070   27.4540   32.7260 H   0  0  0  0  0  0  0  0  0  0  0  0
   41.0420   22.0480   37.4090 C   0  0  0  0  0  2  0  0  0  0  0  0
   42.2090   22.5560   36.6460 C   0  0  0  0  0  2  0  0  0  0  0  0
   43.1140   22.1010   37.1490 H   0  0  0  0  0  0  0  0  0  0  0  0
  1 20  1  0  0  0  0
  1  2  1  0  0  0  0
  2  7  1  0  0  0  0
  3  2  2  0  0  0  0
  3  8  1  0  0  0  0
  4  3  1  0  0  0  0
  5  6  1  0  0  0  0
  5  4  2  0  0  0  0
  6  1  2  0  0  0  0
 10 11  1  0  0  0  0
 10  9  1  0  0  0  0
 11  5  1  0  0  0  0
 12 16  1  0  0  0  0
 12 11  2  0  0  0  0
 13 12  1  0  0  0  0
 14 13  2  0  0  0  0
 14 15  1  0  0  0  0
 15 10  2  0  0  0  0
 17 13  1  0  0  0  0
 18 14  1  0  0  0  0
 19 15  1  0  0  0  0
 21 22  1  0  0  0  0
 21 20  1  0  0  0  0
M  END
>  <minimizedAffinity>
-4.61265612

$$$$

 OpenBabel03272502203D

 22 23  0  0  0  0  0  0  0  0999 V2000
   36.6730   28.0450   33.8840 C   0  0  0  0  0  0  0  0  0  0  0  0
   36.6460   28.3090   32.4990 C   0  0  0  0  0  0  0  0  0  0  0  0
   35.9780   29.4540   32.0650 C   0  0  0  0  0  0  0  0  0  0  0  0
   35.3830   30.2610   32.9940 N   0  0  0  0  0  0  0  0  0  0  0  0
   35.4350   29.9670   34.3150 C   0  0  0  0  0  0  0  0  0  0  0  0
   36.0780   28.8600   34.7720 N   0  0  0  0  0  0  0  0  0  0  0  0
   37.1240   27.6480   31.8280 H   0  0  0  0  0  0  0  0  0  0  0  0
   35.9340   29.6920   31.0110 H   0  0  0  0  0  0  0  0  0  0  0  0
   32.3650   29.4030   34.6880 Br  0  0  0  0  0  0  0  0  0  0  0  0
   33.4540   30.7010   35.5960 C   0  0  0  0  0  0  0  0  0  0  0  0
   34.8000   30.8280   35.3180 C   0  0  0  0  0  0  0  0  0  0  0  0
   35.4960   31.7830   36.0170 C   0  0  0  0  0  0  0  0  0  0  0  0
   34.9370   32.6090   36.9640 C   0  0  0  0  0  0  0  0  0  0  0  0
   33.5790   32.4470   37.2130 C   0  0  0  0  0  0  0  0  0  0  0  0
   32.8510   31.4980   36.5300 C   0  0  0  0  0  0  0  0  0  0  0  0
   36.5580   31.8480   35.7630 H   0  0  0  0  0  0  0  0  0  0  0  0
   35.5230   33.3500   37.4920 H   0  0  0  0  0  0  0  0  0  0  0  0
   33.1140   33.0830   37.9540 H   0  0  0  0  0  0  0  0  0  0  0  0
   31.8030   31.4140   36.7610 H   0  0  0  0  0  0  0  0  0  0  0  0
   37.3540   26.8590   34.4470 C   0  0  0  0  0  2  0  0  0  0  0  0
   38.2170   27.1400   35.6210 C   0  0  0  0  0  2  0  0  0  0  0  0
   38.3170   26.1500   36.1600 H   0  0  0  0  0  0  0  0  0  0  0  0
  1 20  1  0  0  0  0
  1  6  1  0  0  0  0
  2  1  2  0  0  0  0
  3  2  1  0  0  0  0
  3  4  2  0  0  0  0
  4  5  1  0  0  0  0
  5  6  2  0  0  0  0
  5 11  1  0  0  0  0
  7  2  1  0  0  0  0
  8  3  1  0  0  0  0
  9 10  1  0  0  0  0
 10 15  1  0  0  0  0
 11 10  2  0  0  0  0
 11 12  1  0  0  0  0
 12 13  2  0  0  0  0
 13 14  1  0  0  0  0
 13 17  1  0  0  0  0
 14 18  1  0  0  0  0
 15 19  1  0  0  0  0
 15 14  2  0  0  0  0
 16 12  1  0  0  0  0
 20 21  1  0  0  0  0
 21 22  1  0  0  0  0
M  END
>  <minimizedAffinity>
-4.54720545

$$$$

 OpenBabel03272502203D

 22 23  0  0  0  0  0  0  0  0999 V2000
   35.9990   23.6930   31.5040 C   0  0  0  0  0  0  0  0  0  0  0  0
   35.1470   24.5000   30.7220 C   0  0  0  0  0  0  0  0  0  0  0  0
   35.1860   25.8790   30.9250 C   0  0  0  0  0  0  0  0  0  0  0  0
   36.0410   26.3830   31.8650 N   0  0  0  0  0  0  0  0  0  0  0  0
   36.8410   25.5680   32.5940 C   0  0  0  0  0  0  0  0  0  0  0  0
   36.8290   24.2200   32.4210 N   0  0  0  0  0  0  0  0  0  0  0  0
   34.5070   24.0530   30.0100 H   0  0  0  0  0  0  0  0  0  0  0  0
   34.5490   26.5330   30.3460 H   0  0  0  0  0  0  0  0  0  0  0  0
   39.6810   26.2810   31.4500 Br  0  0  0  0  0  0  0  0  0  0  0  0
   39.0480   26.4610   33.2560 C   0  0  0  0  0  0  0  0  0  0  0  0
   37.7620   26.1000   33.6040 C   0  0  0  0  0  0  0  0  0  0  0  0
   37.4000   26.2630   34.9180 C   0  0  0  0  0  0  0  0  0  0  0  0
   38.2330   26.7580   35.8940 C   0  0  0  0  0  0  0  0  0  0  0  0
   39.5190   27.1090   35.5000 C   0  0  0  0  0  0  0  0  0  0  0  0
   39.9150   26.9580   34.1890 C   0  0  0  0  0  0  0  0  0  0  0  0
   36.3720   25.9640   35.1470 H   0  0  0  0  0  0  0  0  0  0  0  0
   37.9070   26.8710   36.9200 H   0  0  0  0  0  0  0  0  0  0  0  0
   40.1950   27.5020   36.2480 H   0  0  0  0  0  0  0  0  0  0  0  0
   40.9210   27.2450   33.9380 H   0  0  0  0  0  0  0  0  0  0  0  0
   36.0350   22.2210   31.3670 C   0  0  0  0  0  2  0  0  0  0  0  0
   35.1550   21.4890   32.3130 C   0  0  0  0  0  2  0  0  0  0  0  0
   34.9780   20.4800   31.8340 H   0  0  0  0  0  0  0  0  0  0  0  0
  1  6  1  0  0  0  0
  2  3  1  0  0  0  0
  2  1  2  0  0  0  0
  3  4  2  0  0  0  0
  4  5  1  0  0  0  0
  5 11  1  0  0  0  0
  6  5  2  0  0  0  0
  7  2  1  0  0  0  0
  8  3  1  0  0  0  0
  9 10  1  0  0  0  0
 10 11  2  0  0  0  0
 10 15  1  0  0  0  0
 11 12  1  0  0  0  0
 12 16  1  0  0  0  0
 12 13  2  0  0  0  0
 13 17  1  0  0  0  0
 14 13  1  0  0  0  0
 14 18  1  0  0  0  0
 15 14  2  0  0  0  0
 19 15  1  0  0  0  0
 20  1  1  0  0  0  0
 20 21  1  0  0  0  0
 22 21  1  0  0  0  0
M  END
>  <minimizedAffinity>
-4.43330193

$$$$

 OpenBabel03272502203D

 22 23  0  0  0  0  0  0  0  0999 V2000
   36.4800   28.2530   33.5420 C   0  0  0  0  0  0  0  0  0  0  0  0
   36.3880   28.6390   32.1890 C   0  0  0  0  0  0  0  0  0  0  0  0
   35.4440   29.6080   31.8480 C   0  0  0  0  0  0  0  0  0  0  0  0
   34.6560   30.1350   32.8330 N   0  0  0  0  0  0  0  0  0  0  0  0
   34.7800   29.7330   34.1210 C   0  0  0  0  0  0  0  0  0  0  0  0
   35.6900   28.7920   34.4870 N   0  0  0  0  0  0  0  0  0  0  0  0
   37.0240   28.1960   31.4710 H   0  0  0  0  0  0  0  0  0  0  0  0
   35.3410   29.9310   30.8220 H   0  0  0  0  0  0  0  0  0  0  0  0
   36.1100   32.1520   35.6240 Br  0  0  0  0  0  0  0  0  0  0  0  0
   34.3860   31.3630   35.9350 C   0  0  0  0  0  0  0  0  0  0  0  0
   33.9400   30.2940   35.1840 C   0  0  0  0  0  0  0  0  0  0  0  0
   32.6950   29.7960   35.4800 C   0  0  0  0  0  0  0  0  0  0  0  0
   31.8780   30.2950   36.4670 C   0  0  0  0  0  0  0  0  0  0  0  0
   32.3660   31.3710   37.2000 C   0  0  0  0  0  0  0  0  0  0  0  0
   33.6110   31.8940   36.9290 C   0  0  0  0  0  0  0  0  0  0  0  0
   32.3850   28.9510   34.8590 H   0  0  0  0  0  0  0  0  0  0  0  0
   30.9020   29.8720   36.6680 H   0  0  0  0  0  0  0  0  0  0  0  0
   31.7430   31.7820   37.9830 H   0  0  0  0  0  0  0  0  0  0  0  0
   33.9390   32.7270   37.5260 H   0  0  0  0  0  0  0  0  0  0  0  0
   37.4460   27.2350   34.0070 C   0  0  0  0  0  2  0  0  0  0  0  0
   37.9880   27.4720   35.3690 C   0  0  0  0  0  2  0  0  0  0  0  0
   38.3500   26.4610   35.7240 H   0  0  0  0  0  0  0  0  0  0  0  0
  1 20  1  0  0  0  0
  1  6  1  0  0  0  0
  2  1  2  0  0  0  0
  3  2  1  0  0  0  0
  3  4  2  0  0  0  0
  4  5  1  0  0  0  0
  5  6  2  0  0  0  0
  5 11  1  0  0  0  0
  7  2  1  0  0  0  0
  8  3  1  0  0  0  0
  9 10  1  0  0  0  0
 10 15  1  0  0  0  0
 11 12  1  0  0  0  0
 11 10  2  0  0  0  0
 12 13  2  0  0  0  0
 13 17  1  0  0  0  0
 13 14  1  0  0  0  0
 14 18  1  0  0  0  0
 15 14  2  0  0  0  0
 15 19  1  0  0  0  0
 16 12  1  0  0  0  0
 20 21  1  0  0  0  0
 21 22  1  0  0  0  0
M  END
>  <minimizedAffinity>
-4.43031359

$$$$

 OpenBabel03272502203D

 22 23  0  0  0  0  0  0  0  0999 V2000
   39.9690   22.3460   37.1890 C   0  0  0  0  0  0  0  0  0  0  0  0
   39.4170   23.1990   38.1670 C   0  0  0  0  0  0  0  0  0  0  0  0
   38.1040   23.6340   37.9890 C   0  0  0  0  0  0  0  0  0  0  0  0
   37.4160   23.2180   36.8830 N   0  0  0  0  0  0  0  0  0  0  0  0
   37.9880   22.3970   35.9690 C   0  0  0  0  0  0  0  0  0  0  0  0
   39.2660   21.9550   36.1120 N   0  0  0  0  0  0  0  0  0  0  0  0
   39.9970   23.4880   39.0010 H   0  0  0  0  0  0  0  0  0  0  0  0
   37.6430   24.2890   38.7150 H   0  0  0  0  0  0  0  0  0  0  0  0
   38.8250   23.9010   33.3390 Br  0  0  0  0  0  0  0  0  0  0  0  0
   37.5150   22.5110   33.5470 C   0  0  0  0  0  0  0  0  0  0  0  0
   37.2580   21.9450   34.7800 C   0  0  0  0  0  0  0  0  0  0  0  0
   36.3050   20.9600   34.8310 C   0  0  0  0  0  0  0  0  0  0  0  0
   35.6000   20.5090   33.7390 C   0  0  0  0  0  0  0  0  0  0  0  0
   35.8890   21.1050   32.5170 C   0  0  0  0  0  0  0  0  0  0  0  0
   36.8400   22.0970   32.4310 C   0  0  0  0  0  0  0  0  0  0  0  0
   36.1360   20.5420   35.8280 H   0  0  0  0  0  0  0  0  0  0  0  0
   34.8550   19.7280   33.8240 H   0  0  0  0  0  0  0  0  0  0  0  0
   35.3490   20.7680   31.6430 H   0  0  0  0  0  0  0  0  0  0  0  0
   37.0250   22.5240   31.4610 H   0  0  0  0  0  0  0  0  0  0  0  0
   41.3520   21.8300   37.2830 C   0  0  0  0  0  2  0  0  0  0  0  0
   42.1580   21.9880   36.0470 C   0  0  0  0  0  2  0  0  0  0  0  0
   43.2350   21.9450   36.3870 H   0  0  0  0  0  0  0  0  0  0  0  0
  1 20  1  0  0  0  0
  1  2  1  0  0  0  0
  2  7  1  0  0  0  0
  3  2  2  0  0  0  0
  3  8  1  0  0  0  0
  4  3  1  0  0  0  0
  5  6  1  0  0  0  0
  5  4  2  0  0  0  0
  6  1  2  0  0  0  0
  9 10  1  0  0  0  0
 10 11  1  0  0  0  0
 11 12  2  0  0  0  0
 11  5  1  0  0  0  0
 12 16  1  0  0  0  0
 13 17  1  0  0  0  0
 13 12  1  0  0  0  0
 14 13  2  0  0  0  0
 15 14  1  0  0  0  0
 15 10  2  0  0  0  0
 18 14  1  0  0  0  0
 19 15  1  0  0  0  0
 21 22  1  0  0  0  0
 21 20  1  0  0  0  0
M  END
>  <minimizedAffinity>
-4.42854786

$$$$

 OpenBabel03272502203D

 22 23  0  0  0  0  0  0  0  0999 V2000
   37.6670   24.7380   32.5790 C   0  0  0  0  0  0  0  0  0  0  0  0
   38.3200   25.9180   32.1650 C   0  0  0  0  0  0  0  0  0  0  0  0
   39.1210   26.5810   33.0950 C   0  0  0  0  0  0  0  0  0  0  0  0
   39.2360   26.0620   34.3540 N   0  0  0  0  0  0  0  0  0  0  0  0
   38.5890   24.9250   34.7070 C   0  0  0  0  0  0  0  0  0  0  0  0
   37.8010   24.2530   33.8260 N   0  0  0  0  0  0  0  0  0  0  0  0
   38.1920   26.2710   31.1780 H   0  0  0  0  0  0  0  0  0  0  0  0
   39.6380   27.4880   32.8180 H   0  0  0  0  0  0  0  0  0  0  0  0
   40.8580   22.7650   34.9660 Br  0  0  0  0  0  0  0  0  0  0  0  0
   39.6600   23.3990   36.3280 C   0  0  0  0  0  0  0  0  0  0  0  0
   38.7080   24.3610   36.0550 C   0  0  0  0  0  0  0  0  0  0  0  0
   37.8970   24.7510   37.0910 C   0  0  0  0  0  0  0  0  0  0  0  0
   37.9780   24.2470   38.3680 C   0  0  0  0  0  0  0  0  0  0  0  0
   38.9500   23.2810   38.6000 C   0  0  0  0  0  0  0  0  0  0  0  0
   39.7800   22.8670   37.5820 C   0  0  0  0  0  0  0  0  0  0  0  0
   37.1590   25.5140   36.8280 H   0  0  0  0  0  0  0  0  0  0  0  0
   37.3170   24.5830   39.1570 H   0  0  0  0  0  0  0  0  0  0  0  0
   39.0350   22.8680   39.5960 H   0  0  0  0  0  0  0  0  0  0  0  0
   40.5160   22.1170   37.8160 H   0  0  0  0  0  0  0  0  0  0  0  0
   36.7950   23.9600   31.6720 C   0  0  0  0  0  2  0  0  0  0  0  0
   35.5910   24.6870   31.1960 C   0  0  0  0  0  2  0  0  0  0  0  0
   35.2800   24.1560   30.2470 H   0  0  0  0  0  0  0  0  0  0  0  0
  1  6  1  0  0  0  0
  2  1  2  0  0  0  0
  2  3  1  0  0  0  0
  3  4  2  0  0  0  0
  4  5  1  0  0  0  0
  5 11  1  0  0  0  0
  6  5  2  0  0  0  0
  7  2  1  0  0  0  0
  8  3  1  0  0  0  0
  9 10  1  0  0  0  0
 10 15  1  0  0  0  0
 11 10  2  0  0  0  0
 11 12  1  0  0  0  0
 12 13  2  0  0  0  0
 13 14  1  0  0  0  0
 13 17  1  0  0  0  0
 14 18  1  0  0  0  0
 15 19  1  0  0  0  0
 15 14  2  0  0  0  0
 16 12  1  0  0  0  0
 20  1  1  0  0  0  0
 21 20  1  0  0  0  0
 22 21  1  0  0  0  0
M  END
>  <minimizedAffinity>
-4.38382959

$$$$

 OpenBabel03272502203D

 22 23  0  0  0  0  0  0  0  0999 V2000
   36.9410   21.7460   32.9370 C   0  0  0  0  0  0  0  0  0  0  0  0
   37.1240   22.7830   31.9990 C   0  0  0  0  0  0  0  0  0  0  0  0
   37.7410   23.9560   32.4340 C   0  0  0  0  0  0  0  0  0  0  0  0
   38.1370   24.0470   33.7390 N   0  0  0  0  0  0  0  0  0  0  0  0
   37.9400   23.0250   34.6050 C   0  0  0  0  0  0  0  0  0  0  0  0
   37.3420   21.8670   34.2150 N   0  0  0  0  0  0  0  0  0  0  0  0
   36.7960   22.6550   31.0030 H   0  0  0  0  0  0  0  0  0  0  0  0
   37.8990   24.7750   31.7470 H   0  0  0  0  0  0  0  0  0  0  0  0
   40.8920   22.0600   35.0870 Br  0  0  0  0  0  0  0  0  0  0  0  0
   39.6350   22.7270   36.3780 C   0  0  0  0  0  0  0  0  0  0  0  0
   38.3620   23.1140   36.0070 C   0  0  0  0  0  0  0  0  0  0  0  0
   37.5340   23.5760   36.9990 C   0  0  0  0  0  0  0  0  0  0  0  0
   37.8930   23.6750   38.3230 C   0  0  0  0  0  0  0  0  0  0  0  0
   39.1830   23.2750   38.6530 C   0  0  0  0  0  0  0  0  0  0  0  0
   40.0400   22.8060   37.6820 C   0  0  0  0  0  0  0  0  0  0  0  0
   36.5370   23.8710   36.6570 H   0  0  0  0  0  0  0  0  0  0  0  0
   37.2080   24.0460   39.0740 H   0  0  0  0  0  0  0  0  0  0  0  0
   39.4910   23.3430   39.6870 H   0  0  0  0  0  0  0  0  0  0  0  0
   41.0270   22.5100   37.9920 H   0  0  0  0  0  0  0  0  0  0  0  0
   36.2980   20.4630   32.5790 C   0  0  0  0  0  2  0  0  0  0  0  0
   34.8700   20.5740   32.1910 C   0  0  0  0  0  2  0  0  0  0  0  0
   34.6560   19.6470   31.5780 H   0  0  0  0  0  0  0  0  0  0  0  0
  1  6  1  0  0  0  0
  2  3  1  0  0  0  0
  2  1  2  0  0  0  0
  3  4  2  0  0  0  0
  4  5  1  0  0  0  0
  5 11  1  0  0  0  0
  6  5  2  0  0  0  0
  7  2  1  0  0  0  0
  8  3  1  0  0  0  0
  9 10  1  0  0  0  0
 10 15  1  0  0  0  0
 11 10  2  0  0  0  0
 11 12  1  0  0  0  0
 12 13  2  0  0  0  0
 13 14  1  0  0  0  0
 13 17  1  0  0  0  0
 14 18  1  0  0  0  0
 15 19  1  0  0  0  0
 15 14  2  0  0  0  0
 16 12  1  0  0  0  0
 20  1  1  0  0  0  0
 21 20  1  0  0  0  0
 22 21  1  0  0  0  0
M  END
>  <minimizedAffinity>
-4.36017179

$$$$

 OpenBabel03272502203D

 22 23  0  0  0  0  0  0  0  0999 V2000
   36.2740   29.6700   31.8830 C   0  0  0  0  0  0  0  0  0  0  0  0
   36.7900   28.3790   32.1180 C   0  0  0  0  0  0  0  0  0  0  0  0
   36.6650   27.8500   33.4030 C   0  0  0  0  0  0  0  0  0  0  0  0
   36.0540   28.6000   34.3680 N   0  0  0  0  0  0  0  0  0  0  0  0
   35.5730   29.8370   34.0950 C   0  0  0  0  0  0  0  0  0  0  0  0
   35.6780   30.3830   32.8550 N   0  0  0  0  0  0  0  0  0  0  0  0
   37.2530   27.8460   31.3320 H   0  0  0  0  0  0  0  0  0  0  0  0
   37.0470   26.8630   33.6250 H   0  0  0  0  0  0  0  0  0  0  0  0
   32.4600   29.4230   34.2160 Br  0  0  0  0  0  0  0  0  0  0  0  0
   33.5480   30.5770   35.3010 C   0  0  0  0  0  0  0  0  0  0  0  0
   34.9150   30.6490   35.1250 C   0  0  0  0  0  0  0  0  0  0  0  0
   35.6090   31.5020   35.9460 C   0  0  0  0  0  0  0  0  0  0  0  0
   35.0280   32.2780   36.9220 C   0  0  0  0  0  0  0  0  0  0  0  0
   33.6500   32.1750   37.0660 C   0  0  0  0  0  0  0  0  0  0  0  0
   32.9230   31.3290   36.2580 C   0  0  0  0  0  0  0  0  0  0  0  0
   36.6880   31.5250   35.7700 H   0  0  0  0  0  0  0  0  0  0  0  0
   35.6130   32.9380   37.5490 H   0  0  0  0  0  0  0  0  0  0  0  0
   33.1680   32.7750   37.8270 H   0  0  0  0  0  0  0  0  0  0  0  0
   31.8590   31.2880   36.4120 H   0  0  0  0  0  0  0  0  0  0  0  0
   36.3560   30.3220   30.5580 C   0  0  0  0  0  2  0  0  0  0  0  0
   36.9300   31.6910   30.5760 C   0  0  0  0  0  2  0  0  0  0  0  0
   37.2980   31.8720   29.5210 H   0  0  0  0  0  0  0  0  0  0  0  0
  1  2  2  0  0  0  0
  1  6  1  0  0  0  0
  2  3  1  0  0  0  0
  3  8  1  0  0  0  0
  3  4  2  0  0  0  0
  5  4  1  0  0  0  0
  5 11  1  0  0  0  0
  6  5  2  0  0  0  0
  7  2  1  0  0  0  0
  9 10  1  0  0  0  0
 10 15  1  0  0  0  0
 11 10  2  0  0  0  0
 11 12  1  0  0  0  0
 12 13  2  0  0  0  0
 13 14  1  0  0  0  0
 13 17  1  0  0  0  0
 14 18  1  0  0  0  0
 15 19  1  0  0  0  0
 15 14  2  0  0  0  0
 16 12  1  0  0  0  0
 20 21  1  0  0  0  0
 20  1  1  0  0  0  0
 22 21  1  0  0  0  0
M  END
>  <minimizedAffinity>
-4.32624722

$$$$

 OpenBabel03272502203D

 22 23  0  0  0  0  0  0  0  0999 V2000
   39.8300   22.9730   37.1830 C   0  0  0  0  0  0  0  0  0  0  0  0
   38.6730   23.2050   37.9550 C   0  0  0  0  0  0  0  0  0  0  0  0
   37.8200   24.2350   37.5600 C   0  0  0  0  0  0  0  0  0  0  0  0
   38.1400   24.9680   36.4520 N   0  0  0  0  0  0  0  0  0  0  0  0
   39.2630   24.7090   35.7400 C   0  0  0  0  0  0  0  0  0  0  0  0
   40.1170   23.7130   36.0970 N   0  0  0  0  0  0  0  0  0  0  0  0
   38.4780   22.6060   38.8030 H   0  0  0  0  0  0  0  0  0  0  0  0
   36.9230   24.4460   38.1260 H   0  0  0  0  0  0  0  0  0  0  0  0
   37.8830   23.6750   33.1130 Br  0  0  0  0  0  0  0  0  0  0  0  0
   39.0860   25.1590   33.3180 C   0  0  0  0  0  0  0  0  0  0  0  0
   39.6150   25.4900   34.5500 C   0  0  0  0  0  0  0  0  0  0  0  0
   40.4660   26.5650   34.5970 C   0  0  0  0  0  0  0  0  0  0  0  0
   40.8190   27.3220   33.5040 C   0  0  0  0  0  0  0  0  0  0  0  0
   40.2650   26.9540   32.2830 C   0  0  0  0  0  0  0  0  0  0  0  0
   39.4060   25.8800   32.2000 C   0  0  0  0  0  0  0  0  0  0  0  0
   40.8590   26.7900   35.5940 H   0  0  0  0  0  0  0  0  0  0  0  0
   41.4950   28.1620   33.5870 H   0  0  0  0  0  0  0  0  0  0  0  0
   40.5250   27.5330   31.4080 H   0  0  0  0  0  0  0  0  0  0  0  0
   39.0060   25.6390   31.2310 H   0  0  0  0  0  0  0  0  0  0  0  0
   40.7990   21.9070   37.5150 C   0  0  0  0  0  2  0  0  0  0  0  0
   42.0760   21.9730   36.7610 C   0  0  0  0  0  2  0  0  0  0  0  0
   42.8210   21.3970   37.3870 H   0  0  0  0  0  0  0  0  0  0  0  0
  1 20  1  0  0  0  0
  1  2  1  0  0  0  0
  2  7  1  0  0  0  0
  3  2  2  0  0  0  0
  3  8  1  0  0  0  0
  4  3  1  0  0  0  0
  5  6  1  0  0  0  0
  5  4  2  0  0  0  0
  6  1  2  0  0  0  0
  9 10  1  0  0  0  0
 10 11  1  0  0  0  0
 11 12  2  0  0  0  0
 11  5  1  0  0  0  0
 12 16  1  0  0  0  0
 13 17  1  0  0  0  0
 13 12  1  0  0  0  0
 14 13  2  0  0  0  0
 15 14  1  0  0  0  0
 15 10  2  0  0  0  0
 18 14  1  0  0  0  0
 19 15  1  0  0  0  0
 21 22  1  0  0  0  0
 21 20  1  0  0  0  0
M  END
>  <minimizedAffinity>
-4.3212328

$$$$
