
 OpenBabel03272509493D

 27 28  0  0  0  0  0  0  0  0999 V2000
   33.6740   28.5900   48.6710 C   0  0  0  0  0  0  0  0  0  0  0  0
   34.2460   28.8210   47.7330 H   0  0  0  0  0  0  0  0  0  0  0  0
   33.0680   29.4550   49.0210 H   0  0  0  0  0  0  0  0  0  0  0  0
   32.7400   27.4340   48.4200 C   0  0  0  0  0  0  0  0  0  0  0  0
   33.0200   26.9390   47.4490 H   0  0  0  0  0  0  0  0  0  0  0  0
   32.8760   26.6660   49.2180 H   0  0  0  0  0  0  0  0  0  0  0  0
   31.3200   27.8530   48.3950 C   0  0  0  0  0  0  0  0  0  0  0  0
   30.6130   27.7550   49.5790 C   0  0  0  0  0  0  0  0  0  0  0  0
   29.2890   28.1190   49.6580 C   0  0  0  0  0  0  0  0  0  0  0  0
   28.6480   28.5820   48.5760 N   0  0  0  0  0  0  0  0  0  0  0  0
   29.3540   28.6750   47.4160 C   0  0  0  0  0  0  0  0  0  0  0  0
   30.6440   28.3260   47.3170 N   0  0  0  0  0  0  0  0  0  0  0  0
   31.0170   27.3960   50.5200 H   0  0  0  0  0  0  0  0  0  0  0  0
   28.6920   28.0610   50.5570 H   0  0  0  0  0  0  0  0  0  0  0  0
   28.9970   29.0270   46.4480 H   0  0  0  0  0  0  0  0  0  0  0  0
   34.5630   28.2650   49.7330 O   0  0  0  0  0  0  0  0  0  0  0  0
   37.2340   30.1870   51.2550 C   0  0  0  0  0  0  0  0  0  0  0  0
   37.6780   30.9160   50.1270 C   0  0  0  0  0  0  0  0  0  0  0  0
   37.0260   30.6940   48.9210 C   0  0  0  0  0  0  0  0  0  0  0  0
   36.0020   29.7930   48.8920 N   0  0  0  0  0  0  0  0  0  0  0  0
   35.6070   29.1170   49.9880 C   0  0  0  0  0  0  0  0  0  0  0  0
   36.2340   29.3270   51.1560 N   0  0  0  0  0  0  0  0  0  0  0  0
   37.7630   30.3820   52.1790 H   0  0  0  0  0  0  0  0  0  0  0  0
   38.4900   31.6400   50.1200 H   0  0  0  0  0  0  0  0  0  0  0  0
   37.4290   31.4240   47.6680 C   0  0  0  0  0  2  0  0  0  0  0  0
   38.8640   31.1590   47.2950 C   0  0  0  0  0  2  0  0  0  0  0  0
   39.5600   31.9170   47.6970 H   0  0  0  0  0  0  0  0  0  0  0  0
  1  3  1  0  0  0  0
  1 16  1  0  0  0  0
  2  1  1  0  0  0  0
  4  1  1  0  0  0  0
  4  6  1  0  0  0  0
  5  4  1  0  0  0  0
  7  4  1  0  0  0  0
  7  8  1  0  0  0  0
  8  9  2  0  0  0  0
  8 13  1  0  0  0  0
  9 14  1  0  0  0  0
 10  9  1  0  0  0  0
 11 10  2  0  0  0  0
 12 11  1  0  0  0  0
 12  7  2  0  0  0  0
 15 11  1  0  0  0  0
 16 21  1  0  0  0  0
 17 23  1  0  0  0  0
 18 17  2  0  0  0  0
 19 18  1  0  0  0  0
 20 19  2  0  0  0  0
 20 21  1  0  0  0  0
 21 22  2  0  0  0  0
 22 17  1  0  0  0  0
 24 18  1  0  0  0  0
 25 19  1  0  0  0  0
 26 25  1  0  0  0  0
 26 27  1  0  0  0  0
M  END
>  <minimizedAffinity>
-4.62283659

>  <minimizedRMSD>
0.420567125

$$$$
