
 OpenBabel03272506043D

 32 34  0  0  0  0  0  0  0  0999 V2000
   38.1600   27.3460   33.6220 Cl  0  0  0  0  0  0  0  0  0  0  0  0
   37.2850   26.1340   32.7440 C   0  0  0  0  0  0  0  0  0  0  0  0
   37.5790   24.8260   32.9380 C   0  0  0  0  0  0  0  0  0  0  0  0
   36.8310   23.9110   32.1950 C   0  0  0  0  0  0  0  0  0  0  0  0
   35.8470   24.3310   31.3150 C   0  0  0  0  0  0  0  0  0  0  0  0
   35.5830   25.6870   31.1520 C   0  0  0  0  0  0  0  0  0  0  0  0
   36.3260   26.6080   31.8910 C   0  0  0  0  0  0  0  0  0  0  0  0
   37.0440   22.8600   32.3290 H   0  0  0  0  0  0  0  0  0  0  0  0
   35.3220   23.5570   30.7860 H   0  0  0  0  0  0  0  0  0  0  0  0
   34.8080   25.9860   30.4560 H   0  0  0  0  0  0  0  0  0  0  0  0
   37.9420   27.8920   29.7910 Cl  0  0  0  0  0  0  0  0  0  0  0  0
   36.6770   28.6910   30.6880 C   0  0  0  0  0  0  0  0  0  0  0  0
   35.9830   27.9830   31.6560 C   0  0  0  0  0  0  0  0  0  0  0  0
   34.9820   28.6190   32.3640 C   0  0  0  0  0  0  0  0  0  0  0  0
   34.6920   29.9590   32.0900 C   0  0  0  0  0  0  0  0  0  0  0  0
   35.4120   30.6380   31.1100 C   0  0  0  0  0  0  0  0  0  0  0  0
   35.0240   32.3270   30.7880 Cl  0  0  0  0  0  0  0  0  0  0  0  0
   36.4010   30.0230   30.4040 C   0  0  0  0  0  0  0  0  0  0  0  0
   34.4220   28.0940   33.1250 H   0  0  0  0  0  0  0  0  0  0  0  0
   33.8920   30.4180   32.6770 H   0  0  0  0  0  0  0  0  0  0  0  0
   36.9640   30.5640   29.6330 H   0  0  0  0  0  0  0  0  0  0  0  0
   38.3340   24.1180   35.2120 C   0  0  0  0  0  0  0  0  0  0  0  0
   38.6100   24.3380   33.8570 C   0  0  0  0  0  0  0  0  0  0  0  0
   39.9070   24.0780   33.4060 C   0  0  0  0  0  0  0  0  0  0  0  0
   40.8240   23.6250   34.3120 N   0  0  0  0  0  0  0  0  0  0  0  0
   40.5230   23.4240   35.6090 C   0  0  0  0  0  0  0  0  0  0  0  0
   39.2770   23.6740   36.0470 N   0  0  0  0  0  0  0  0  0  0  0  0
   37.3260   24.3320   35.5140 H   0  0  0  0  0  0  0  0  0  0  0  0
   40.1730   24.2320   32.3690 H   0  0  0  0  0  0  0  0  0  0  0  0
   41.5630   22.9290   36.5560 C   0  0  0  0  0  2  0  0  0  0  0  0
   40.8520   21.9150   37.4600 C   0  0  0  0  0  2  0  0  0  0  0  0
   41.5630   21.1460   37.8270 H   0  0  0  0  0  0  0  0  0  0  0  0
  2  3  1  0  0  0  0
  2  1  1  0  0  0  0
  3 23  1  0  0  0  0
  4  8  1  0  0  0  0
  4  3  2  0  0  0  0
  5  4  1  0  0  0  0
  6  5  2  0  0  0  0
  6  7  1  0  0  0  0
  7  2  2  0  0  0  0
  9  5  1  0  0  0  0
 10  6  1  0  0  0  0
 11 12  1  0  0  0  0
 12 13  1  0  0  0  0
 13  7  1  0  0  0  0
 13 14  2  0  0  0  0
 14 19  1  0  0  0  0
 15 14  1  0  0  0  0
 15 20  1  0  0  0  0
 16 15  2  0  0  0  0
 17 16  1  0  0  0  0
 18 12  2  0  0  0  0
 18 16  1  0  0  0  0
 21 18  1  0  0  0  0
 22 28  1  0  0  0  0
 22 27  1  0  0  0  0
 23 22  2  0  0  0  0
 24 23  1  0  0  0  0
 24 25  2  0  0  0  0
 25 26  1  0  0  0  0
 26 27  2  0  0  0  0
 26 30  1  0  0  0  0
 29 24  1  0  0  0  0
 30 31  1  0  0  0  0
 31 32  1  0  0  0  0
M  END
>  <minimizedAffinity>
-5.3243165

$$$$

 OpenBabel03272506043D

 32 34  0  0  0  0  0  0  0  0999 V2000
   35.6460   28.5830   34.3680 Cl  0  0  0  0  0  0  0  0  0  0  0  0
   35.8780   29.4860   32.9070 C   0  0  0  0  0  0  0  0  0  0  0  0
   36.2700   28.8450   31.7800 C   0  0  0  0  0  0  0  0  0  0  0  0
   36.4350   29.6410   30.6450 C   0  0  0  0  0  0  0  0  0  0  0  0
   36.2080   31.0070   30.6830 C   0  0  0  0  0  0  0  0  0  0  0  0
   35.8060   31.6190   31.8670 C   0  0  0  0  0  0  0  0  0  0  0  0
   35.6380   30.8300   33.0060 C   0  0  0  0  0  0  0  0  0  0  0  0
   36.7470   29.1550   29.7310 H   0  0  0  0  0  0  0  0  0  0  0  0
   36.3600   31.5380   29.7630 H   0  0  0  0  0  0  0  0  0  0  0  0
   35.6360   32.6890   31.8670 H   0  0  0  0  0  0  0  0  0  0  0  0
   32.7160   30.9950   33.3230 Cl  0  0  0  0  0  0  0  0  0  0  0  0
   33.8680   31.6910   34.4320 C   0  0  0  0  0  0  0  0  0  0  0  0
   35.2230   31.5490   34.1770 C   0  0  0  0  0  0  0  0  0  0  0  0
   36.1330   32.1010   35.0580 C   0  0  0  0  0  0  0  0  0  0  0  0
   35.6680   32.7890   36.1830 C   0  0  0  0  0  0  0  0  0  0  0  0
   34.2990   32.9120   36.4050 C   0  0  0  0  0  0  0  0  0  0  0  0
   33.7440   33.7860   37.8320 Cl  0  0  0  0  0  0  0  0  0  0  0  0
   33.3910   32.3720   35.5450 C   0  0  0  0  0  0  0  0  0  0  0  0
   37.1950   32.0080   34.8880 H   0  0  0  0  0  0  0  0  0  0  0  0
   36.4260   33.2090   36.8500 H   0  0  0  0  0  0  0  0  0  0  0  0
   32.3130   32.4720   35.7260 H   0  0  0  0  0  0  0  0  0  0  0  0
   35.5240   26.5130   31.2790 C   0  0  0  0  0  0  0  0  0  0  0  0
   36.5220   27.4040   31.6940 C   0  0  0  0  0  0  0  0  0  0  0  0
   37.7710   26.8740   32.0280 C   0  0  0  0  0  0  0  0  0  0  0  0
   37.9440   25.5220   31.9280 N   0  0  0  0  0  0  0  0  0  0  0  0
   36.9610   24.6950   31.5240 C   0  0  0  0  0  0  0  0  0  0  0  0
   35.7580   25.2010   31.2030 N   0  0  0  0  0  0  0  0  0  0  0  0
   34.5810   26.9640   31.0340 H   0  0  0  0  0  0  0  0  0  0  0  0
   38.5760   27.5190   32.3550 H   0  0  0  0  0  0  0  0  0  0  0  0
   37.2030   23.2260   31.4340 C   0  0  0  0  0  2  0  0  0  0  0  0
   35.8220   22.5700   31.5430 C   0  0  0  0  0  2  0  0  0  0  0  0
   35.8000   21.6010   31.0030 H   0  0  0  0  0  0  0  0  0  0  0  0
  2  7  1  0  0  0  0
  2  1  1  0  0  0  0
  3  2  2  0  0  0  0
  4  5  2  0  0  0  0
  4  3  1  0  0  0  0
  5  6  1  0  0  0  0
  6  7  2  0  0  0  0
  7 13  1  0  0  0  0
  8  4  1  0  0  0  0
  9  5  1  0  0  0  0
 10  6  1  0  0  0  0
 11 12  1  0  0  0  0
 12 18  1  0  0  0  0
 13 12  2  0  0  0  0
 13 14  1  0  0  0  0
 14 15  2  0  0  0  0
 15 16  1  0  0  0  0
 15 20  1  0  0  0  0
 16 17  1  0  0  0  0
 18 21  1  0  0  0  0
 18 16  2  0  0  0  0
 19 14  1  0  0  0  0
 22 23  1  0  0  0  0
 23  3  1  0  0  0  0
 23 24  2  0  0  0  0
 24 29  1  0  0  0  0
 25 24  1  0  0  0  0
 26 25  2  0  0  0  0
 27 22  2  0  0  0  0
 27 26  1  0  0  0  0
 28 22  1  0  0  0  0
 30 26  1  0  0  0  0
 30 31  1  0  0  0  0
 32 31  1  0  0  0  0
M  END
>  <minimizedAffinity>
-5.27910757

$$$$

 OpenBabel03272506043D

 32 34  0  0  0  0  0  0  0  0999 V2000
   38.5360   26.4330   33.8370 Cl  0  0  0  0  0  0  0  0  0  0  0  0
   37.6650   25.2610   32.9040 C   0  0  0  0  0  0  0  0  0  0  0  0
   37.7710   23.9470   33.2150 C   0  0  0  0  0  0  0  0  0  0  0  0
   37.0390   23.0660   32.4170 C   0  0  0  0  0  0  0  0  0  0  0  0
   36.2540   23.5220   31.3710 C   0  0  0  0  0  0  0  0  0  0  0  0
   36.1790   24.8830   31.0920 C   0  0  0  0  0  0  0  0  0  0  0  0
   36.9070   25.7710   31.8850 C   0  0  0  0  0  0  0  0  0  0  0  0
   37.1050   22.0110   32.6420 H   0  0  0  0  0  0  0  0  0  0  0  0
   35.7270   22.7730   30.8120 H   0  0  0  0  0  0  0  0  0  0  0  0
   35.5570   25.2110   30.2670 H   0  0  0  0  0  0  0  0  0  0  0  0
   38.9670   26.7180   30.0070 Cl  0  0  0  0  0  0  0  0  0  0  0  0
   37.6810   27.7110   30.6410 C   0  0  0  0  0  0  0  0  0  0  0  0
   36.7670   27.1530   31.5220 C   0  0  0  0  0  0  0  0  0  0  0  0
   35.7490   27.9430   32.0210 C   0  0  0  0  0  0  0  0  0  0  0  0
   35.6640   29.2820   31.6300 C   0  0  0  0  0  0  0  0  0  0  0  0
   36.6010   29.8070   30.7440 C   0  0  0  0  0  0  0  0  0  0  0  0
   36.4680   31.5000   30.2700 Cl  0  0  0  0  0  0  0  0  0  0  0  0
   37.6100   29.0400   30.2430 C   0  0  0  0  0  0  0  0  0  0  0  0
   35.0210   27.5380   32.7100 H   0  0  0  0  0  0  0  0  0  0  0  0
   34.8420   29.8660   32.0530 H   0  0  0  0  0  0  0  0  0  0  0  0
   38.3440   29.4610   29.5450 H   0  0  0  0  0  0  0  0  0  0  0  0
   38.0860   23.3270   35.6140 C   0  0  0  0  0  0  0  0  0  0  0  0
   38.5880   23.4200   34.3100 C   0  0  0  0  0  0  0  0  0  0  0  0
   39.9000   22.9950   34.0850 C   0  0  0  0  0  0  0  0  0  0  0  0
   40.6120   22.5140   35.1480 N   0  0  0  0  0  0  0  0  0  0  0  0
   40.0960   22.4380   36.3890 C   0  0  0  0  0  0  0  0  0  0  0  0
   38.8350   22.8470   36.6110 N   0  0  0  0  0  0  0  0  0  0  0  0
   37.0750   23.6650   35.7410 H   0  0  0  0  0  0  0  0  0  0  0  0
   40.3360   23.0460   33.0960 H   0  0  0  0  0  0  0  0  0  0  0  0
   40.9170   21.9050   37.5140 C   0  0  0  0  0  2  0  0  0  0  0  0
   42.1490   21.2660   36.8630 C   0  0  0  0  0  2  0  0  0  0  0  0
   43.0220   21.3030   37.5480 H   0  0  0  0  0  0  0  0  0  0  0  0
  2  3  1  0  0  0  0
  2  1  1  0  0  0  0
  3 23  1  0  0  0  0
  4  8  1  0  0  0  0
  4  3  2  0  0  0  0
  5  4  1  0  0  0  0
  6  5  2  0  0  0  0
  6  7  1  0  0  0  0
  7  2  2  0  0  0  0
  9  5  1  0  0  0  0
 10  6  1  0  0  0  0
 11 12  1  0  0  0  0
 12 13  1  0  0  0  0
 13  7  1  0  0  0  0
 13 14  2  0  0  0  0
 14 19  1  0  0  0  0
 15 14  1  0  0  0  0
 15 20  1  0  0  0  0
 16 15  2  0  0  0  0
 17 16  1  0  0  0  0
 18 12  2  0  0  0  0
 18 16  1  0  0  0  0
 21 18  1  0  0  0  0
 22 28  1  0  0  0  0
 22 27  1  0  0  0  0
 23 22  2  0  0  0  0
 24 23  1  0  0  0  0
 24 25  2  0  0  0  0
 25 26  1  0  0  0  0
 26 27  2  0  0  0  0
 26 30  1  0  0  0  0
 29 24  1  0  0  0  0
 31 30  1  0  0  0  0
 31 32  1  0  0  0  0
M  END
>  <minimizedAffinity>
-5.27899885

$$$$

 OpenBabel03272506043D

 32 34  0  0  0  0  0  0  0  0999 V2000
   36.8340   27.5140   34.8290 Cl  0  0  0  0  0  0  0  0  0  0  0  0
   36.6740   28.2100   33.2510 C   0  0  0  0  0  0  0  0  0  0  0  0
   35.8730   29.2890   33.0740 C   0  0  0  0  0  0  0  0  0  0  0  0
   35.7960   29.7920   31.7750 C   0  0  0  0  0  0  0  0  0  0  0  0
   36.5040   29.2120   30.7340 C   0  0  0  0  0  0  0  0  0  0  0  0
   37.3140   28.1050   30.9680 C   0  0  0  0  0  0  0  0  0  0  0  0
   37.3960   27.5960   32.2640 C   0  0  0  0  0  0  0  0  0  0  0  0
   35.1640   30.6520   31.6040 H   0  0  0  0  0  0  0  0  0  0  0  0
   36.3850   29.6670   29.7690 H   0  0  0  0  0  0  0  0  0  0  0  0
   37.8560   27.6730   30.1340 H   0  0  0  0  0  0  0  0  0  0  0  0
   36.0320   25.0240   31.8300 Cl  0  0  0  0  0  0  0  0  0  0  0  0
   37.7230   25.1880   32.2240 C   0  0  0  0  0  0  0  0  0  0  0  0
   38.2550   26.4540   32.4070 C   0  0  0  0  0  0  0  0  0  0  0  0
   39.5950   26.5800   32.7190 C   0  0  0  0  0  0  0  0  0  0  0  0
   40.3820   25.4310   32.8440 C   0  0  0  0  0  0  0  0  0  0  0  0
   39.8110   24.1750   32.6540 C   0  0  0  0  0  0  0  0  0  0  0  0
   40.8280   22.7450   32.8200 Cl  0  0  0  0  0  0  0  0  0  0  0  0
   38.4910   24.0360   32.3460 C   0  0  0  0  0  0  0  0  0  0  0  0
   40.0400   27.5530   32.8680 H   0  0  0  0  0  0  0  0  0  0  0  0
   41.4360   25.5820   33.0930 H   0  0  0  0  0  0  0  0  0  0  0  0
   38.0480   23.0440   32.1970 H   0  0  0  0  0  0  0  0  0  0  0  0
   35.6730   30.9310   34.9460 C   0  0  0  0  0  0  0  0  0  0  0  0
   35.1070   29.9330   34.1440 C   0  0  0  0  0  0  0  0  0  0  0  0
   33.7820   29.5660   34.3970 C   0  0  0  0  0  0  0  0  0  0  0  0
   33.1210   30.2040   35.4090 N   0  0  0  0  0  0  0  0  0  0  0  0
   33.6970   31.1610   36.1610 C   0  0  0  0  0  0  0  0  0  0  0  0
   34.9710   31.5160   35.9210 N   0  0  0  0  0  0  0  0  0  0  0  0
   36.6910   31.1800   34.7170 H   0  0  0  0  0  0  0  0  0  0  0  0
   33.2980   28.8000   33.8070 H   0  0  0  0  0  0  0  0  0  0  0  0
   32.9300   31.8240   37.2540 C   0  0  0  0  0  2  0  0  0  0  0  0
   33.6020   33.1850   37.4670 C   0  0  0  0  0  2  0  0  0  0  0  0
   32.8730   33.9310   37.8440 H   0  0  0  0  0  0  0  0  0  0  0  0
  2  1  1  0  0  0  0
  3  2  1  0  0  0  0
  3 23  1  0  0  0  0
  4  3  2  0  0  0  0
  5  6  2  0  0  0  0
  5  4  1  0  0  0  0
  6  7  1  0  0  0  0
  7 13  1  0  0  0  0
  7  2  2  0  0  0  0
  8  4  1  0  0  0  0
  9  5  1  0  0  0  0
 10  6  1  0  0  0  0
 11 12  1  0  0  0  0
 12 18  2  0  0  0  0
 12 13  1  0  0  0  0
 13 14  2  0  0  0  0
 14 15  1  0  0  0  0
 14 19  1  0  0  0  0
 15 20  1  0  0  0  0
 16 17  1  0  0  0  0
 16 15  2  0  0  0  0
 18 16  1  0  0  0  0
 21 18  1  0  0  0  0
 22 27  1  0  0  0  0
 23 24  1  0  0  0  0
 23 22  2  0  0  0  0
 24 25  2  0  0  0  0
 25 26  1  0  0  0  0
 26 30  1  0  0  0  0
 27 26  2  0  0  0  0
 28 22  1  0  0  0  0
 29 24  1  0  0  0  0
 30 31  1  0  0  0  0
 31 32  1  0  0  0  0
M  END
>  <minimizedAffinity>
-5.23281002

$$$$

 OpenBabel03272506043D

 32 34  0  0  0  0  0  0  0  0999 V2000
   38.7820   27.2440   32.8690 Cl  0  0  0  0  0  0  0  0  0  0  0  0
   37.5480   26.1990   32.2470 C   0  0  0  0  0  0  0  0  0  0  0  0
   37.4820   24.9150   32.6740 C   0  0  0  0  0  0  0  0  0  0  0  0
   36.4610   24.1370   32.1260 C   0  0  0  0  0  0  0  0  0  0  0  0
   35.5720   24.6610   31.2010 C   0  0  0  0  0  0  0  0  0  0  0  0
   35.6820   25.9870   30.7950 C   0  0  0  0  0  0  0  0  0  0  0  0
   36.7000   26.7720   31.3380 C   0  0  0  0  0  0  0  0  0  0  0  0
   36.3840   23.1080   32.4480 H   0  0  0  0  0  0  0  0  0  0  0  0
   34.8190   23.9890   30.8340 H   0  0  0  0  0  0  0  0  0  0  0  0
   34.9730   26.3690   30.0700 H   0  0  0  0  0  0  0  0  0  0  0  0
   35.2420   28.6730   33.0490 Cl  0  0  0  0  0  0  0  0  0  0  0  0
   36.0820   29.1100   31.5840 C   0  0  0  0  0  0  0  0  0  0  0  0
   36.7350   28.1250   30.8590 C   0  0  0  0  0  0  0  0  0  0  0  0
   37.4000   28.4750   29.7000 C   0  0  0  0  0  0  0  0  0  0  0  0
   37.3990   29.8100   29.2840 C   0  0  0  0  0  0  0  0  0  0  0  0
   36.7310   30.7710   30.0390 C   0  0  0  0  0  0  0  0  0  0  0  0
   36.7480   32.4460   29.4880 Cl  0  0  0  0  0  0  0  0  0  0  0  0
   36.0720   30.4410   31.1840 C   0  0  0  0  0  0  0  0  0  0  0  0
   37.9170   27.7310   29.1120 H   0  0  0  0  0  0  0  0  0  0  0  0
   37.9380   30.0370   28.3600 H   0  0  0  0  0  0  0  0  0  0  0  0
   35.5490   31.2030   31.7740 H   0  0  0  0  0  0  0  0  0  0  0  0
   38.1490   24.3930   35.0240 C   0  0  0  0  0  0  0  0  0  0  0  0
   38.3990   24.3200   33.6480 C   0  0  0  0  0  0  0  0  0  0  0  0
   39.5590   23.6610   33.2310 C   0  0  0  0  0  0  0  0  0  0  0  0
   40.3740   23.1270   34.1890 N   0  0  0  0  0  0  0  0  0  0  0  0
   40.1010   23.2160   35.5050 C   0  0  0  0  0  0  0  0  0  0  0  0
   38.9880   23.8500   35.9100 N   0  0  0  0  0  0  0  0  0  0  0  0
   37.2480   24.9090   35.2980 H   0  0  0  0  0  0  0  0  0  0  0  0
   39.7990   23.5760   32.1800 H   0  0  0  0  0  0  0  0  0  0  0  0
   41.0270   22.6160   36.5080 C   0  0  0  0  0  2  0  0  0  0  0  0
   40.2660   22.6340   37.8390 C   0  0  0  0  0  2  0  0  0  0  0  0
   40.6000   21.8060   38.4970 H   0  0  0  0  0  0  0  0  0  0  0  0
  2  3  1  0  0  0  0
  2  1  1  0  0  0  0
  3 23  1  0  0  0  0
  4  8  1  0  0  0  0
  4  3  2  0  0  0  0
  5  4  1  0  0  0  0
  6  5  2  0  0  0  0
  6  7  1  0  0  0  0
  7  2  2  0  0  0  0
  9  5  1  0  0  0  0
 10  6  1  0  0  0  0
 12 11  1  0  0  0  0
 13  7  1  0  0  0  0
 13 12  2  0  0  0  0
 14 13  1  0  0  0  0
 15 14  2  0  0  0  0
 15 16  1  0  0  0  0
 16 18  2  0  0  0  0
 17 16  1  0  0  0  0
 18 12  1  0  0  0  0
 18 21  1  0  0  0  0
 19 14  1  0  0  0  0
 20 15  1  0  0  0  0
 22 28  1  0  0  0  0
 22 27  1  0  0  0  0
 23 22  2  0  0  0  0
 24 23  1  0  0  0  0
 24 25  2  0  0  0  0
 25 26  1  0  0  0  0
 26 27  2  0  0  0  0
 26 30  1  0  0  0  0
 29 24  1  0  0  0  0
 30 31  1  0  0  0  0
 31 32  1  0  0  0  0
M  END
>  <minimizedAffinity>
-5.15818167

$$$$

 OpenBabel03272506043D

 32 34  0  0  0  0  0  0  0  0999 V2000
   36.4000   27.6710   34.8030 Cl  0  0  0  0  0  0  0  0  0  0  0  0
   36.3930   28.3860   33.2240 C   0  0  0  0  0  0  0  0  0  0  0  0
   36.9160   27.7020   32.1780 C   0  0  0  0  0  0  0  0  0  0  0  0
   36.8720   28.3440   30.9400 C   0  0  0  0  0  0  0  0  0  0  0  0
   36.3230   29.6090   30.8020 C   0  0  0  0  0  0  0  0  0  0  0  0
   35.7980   30.2700   31.9090 C   0  0  0  0  0  0  0  0  0  0  0  0
   35.8370   29.6340   33.1500 C   0  0  0  0  0  0  0  0  0  0  0  0
   37.2830   27.8220   30.0870 H   0  0  0  0  0  0  0  0  0  0  0  0
   36.3320   30.0250   29.8120 H   0  0  0  0  0  0  0  0  0  0  0  0
   35.3750   31.2580   31.7710 H   0  0  0  0  0  0  0  0  0  0  0  0
   32.9360   29.2560   33.4770 Cl  0  0  0  0  0  0  0  0  0  0  0  0
   33.9130   30.2950   34.4810 C   0  0  0  0  0  0  0  0  0  0  0  0
   35.2730   30.3930   34.2310 C   0  0  0  0  0  0  0  0  0  0  0  0
   36.0440   31.2160   35.0280 C   0  0  0  0  0  0  0  0  0  0  0  0
   35.4380   31.9300   36.0670 C   0  0  0  0  0  0  0  0  0  0  0  0
   34.0690   31.8060   36.2870 C   0  0  0  0  0  0  0  0  0  0  0  0
   33.3340   32.7200   37.6040 Cl  0  0  0  0  0  0  0  0  0  0  0  0
   33.2960   30.9980   35.5090 C   0  0  0  0  0  0  0  0  0  0  0  0
   37.1060   31.3150   34.8580 H   0  0  0  0  0  0  0  0  0  0  0  0
   36.0900   32.5690   36.6690 H   0  0  0  0  0  0  0  0  0  0  0  0
   32.2180   30.9040   35.6890 H   0  0  0  0  0  0  0  0  0  0  0  0
   38.8720   26.1890   32.5360 C   0  0  0  0  0  0  0  0  0  0  0  0
   37.5070   26.3650   32.2780 C   0  0  0  0  0  0  0  0  0  0  0  0
   36.7210   25.2210   32.1150 C   0  0  0  0  0  0  0  0  0  0  0  0
   37.3300   24.0020   32.2190 N   0  0  0  0  0  0  0  0  0  0  0  0
   38.6470   23.8700   32.4690 C   0  0  0  0  0  0  0  0  0  0  0  0
   39.4060   24.9680   32.6250 N   0  0  0  0  0  0  0  0  0  0  0  0
   39.4360   27.0950   32.6530 H   0  0  0  0  0  0  0  0  0  0  0  0
   35.6610   25.3020   31.9140 H   0  0  0  0  0  0  0  0  0  0  0  0
   39.2620   22.5160   32.5720 C   0  0  0  0  0  2  0  0  0  0  0  0
   38.7670   21.9340   33.9010 C   0  0  0  0  0  2  0  0  0  0  0  0
   38.7200   20.8260   33.8550 H   0  0  0  0  0  0  0  0  0  0  0  0
  2  1  1  0  0  0  0
  3 23  1  0  0  0  0
  3  2  2  0  0  0  0
  4  3  1  0  0  0  0
  5  4  2  0  0  0  0
  5  6  1  0  0  0  0
  6  7  2  0  0  0  0
  7  2  1  0  0  0  0
  7 13  1  0  0  0  0
  8  4  1  0  0  0  0
  9  5  1  0  0  0  0
 10  6  1  0  0  0  0
 11 12  1  0  0  0  0
 12 18  1  0  0  0  0
 13 12  2  0  0  0  0
 13 14  1  0  0  0  0
 14 15  2  0  0  0  0
 15 16  1  0  0  0  0
 15 20  1  0  0  0  0
 16 17  1  0  0  0  0
 18 21  1  0  0  0  0
 18 16  2  0  0  0  0
 19 14  1  0  0  0  0
 22 27  1  0  0  0  0
 22 28  1  0  0  0  0
 23 22  2  0  0  0  0
 24 25  2  0  0  0  0
 24 23  1  0  0  0  0
 25 26  1  0  0  0  0
 26 30  1  0  0  0  0
 26 27  2  0  0  0  0
 29 24  1  0  0  0  0
 30 31  1  0  0  0  0
 32 31  1  0  0  0  0
M  END
>  <minimizedAffinity>
-5.09840679

$$$$

 OpenBabel03272506043D

 32 34  0  0  0  0  0  0  0  0999 V2000
   36.6360   27.1690   35.0390 Cl  0  0  0  0  0  0  0  0  0  0  0  0
   36.7230   27.8970   33.4700 C   0  0  0  0  0  0  0  0  0  0  0  0
   36.1400   29.1020   33.2590 C   0  0  0  0  0  0  0  0  0  0  0  0
   36.2540   29.6230   31.9690 C   0  0  0  0  0  0  0  0  0  0  0  0
   36.9280   28.9370   30.9710 C   0  0  0  0  0  0  0  0  0  0  0  0
   37.5100   27.7020   31.2390 C   0  0  0  0  0  0  0  0  0  0  0  0
   37.4010   27.1740   32.5260 C   0  0  0  0  0  0  0  0  0  0  0  0
   35.7980   30.5830   31.7710 H   0  0  0  0  0  0  0  0  0  0  0  0
   36.9650   29.4140   30.0100 H   0  0  0  0  0  0  0  0  0  0  0  0
   38.0300   27.1880   30.4390 H   0  0  0  0  0  0  0  0  0  0  0  0
   40.2040   27.3510   33.4090 Cl  0  0  0  0  0  0  0  0  0  0  0  0
   39.3540   25.8550   33.1220 C   0  0  0  0  0  0  0  0  0  0  0  0
   38.0320   25.8970   32.7060 C   0  0  0  0  0  0  0  0  0  0  0  0
   37.3620   24.7110   32.4800 C   0  0  0  0  0  0  0  0  0  0  0  0
   38.0290   23.4980   32.6740 C   0  0  0  0  0  0  0  0  0  0  0  0
   39.3580   23.4950   33.0920 C   0  0  0  0  0  0  0  0  0  0  0  0
   40.1720   21.9490   33.3260 Cl  0  0  0  0  0  0  0  0  0  0  0  0
   40.0310   24.6580   33.3190 C   0  0  0  0  0  0  0  0  0  0  0  0
   36.3320   24.7100   32.1550 H   0  0  0  0  0  0  0  0  0  0  0  0
   37.4570   22.5860   32.4810 H   0  0  0  0  0  0  0  0  0  0  0  0
   41.0780   24.6480   33.6480 H   0  0  0  0  0  0  0  0  0  0  0  0
   36.0850   30.7460   35.1390 C   0  0  0  0  0  0  0  0  0  0  0  0
   35.4190   29.8610   34.2820 C   0  0  0  0  0  0  0  0  0  0  0  0
   34.0370   29.7220   34.4360 C   0  0  0  0  0  0  0  0  0  0  0  0
   33.4210   30.4580   35.4090 N   0  0  0  0  0  0  0  0  0  0  0  0
   34.0940   31.3000   36.2160 C   0  0  0  0  0  0  0  0  0  0  0  0
   35.4240   31.4360   36.0720 N   0  0  0  0  0  0  0  0  0  0  0  0
   37.1450   30.8200   34.9850 H   0  0  0  0  0  0  0  0  0  0  0  0
   33.4740   29.0520   33.8000 H   0  0  0  0  0  0  0  0  0  0  0  0
   33.3730   32.0790   37.2630 C   0  0  0  0  0  2  0  0  0  0  0  0
   34.1490   33.3920   37.4140 C   0  0  0  0  0  2  0  0  0  0  0  0
   33.4780   34.2120   37.7430 H   0  0  0  0  0  0  0  0  0  0  0  0
  2  1  1  0  0  0  0
  3  2  1  0  0  0  0
  3 23  1  0  0  0  0
  4  3  2  0  0  0  0
  5  6  2  0  0  0  0
  5  4  1  0  0  0  0
  6  7  1  0  0  0  0
  7 13  1  0  0  0  0
  7  2  2  0  0  0  0
  8  4  1  0  0  0  0
  9  5  1  0  0  0  0
 10  6  1  0  0  0  0
 12 18  1  0  0  0  0
 12 11  1  0  0  0  0
 13 12  2  0  0  0  0
 14 15  2  0  0  0  0
 14 13  1  0  0  0  0
 15 16  1  0  0  0  0
 16 18  2  0  0  0  0
 16 17  1  0  0  0  0
 18 21  1  0  0  0  0
 19 14  1  0  0  0  0
 20 15  1  0  0  0  0
 22 27  1  0  0  0  0
 23 24  1  0  0  0  0
 23 22  2  0  0  0  0
 24 25  2  0  0  0  0
 25 26  1  0  0  0  0
 26 30  1  0  0  0  0
 27 26  2  0  0  0  0
 28 22  1  0  0  0  0
 29 24  1  0  0  0  0
 30 31  1  0  0  0  0
 31 32  1  0  0  0  0
M  END
>  <minimizedAffinity>
-5.06340361

$$$$

 OpenBabel03272506043D

 32 34  0  0  0  0  0  0  0  0999 V2000
   38.4980   26.3480   33.7180 Cl  0  0  0  0  0  0  0  0  0  0  0  0
   37.5520   25.2300   32.7920 C   0  0  0  0  0  0  0  0  0  0  0  0
   36.7680   25.6890   31.7870 C   0  0  0  0  0  0  0  0  0  0  0  0
   36.0370   24.7270   31.0890 C   0  0  0  0  0  0  0  0  0  0  0  0
   36.1180   23.3820   31.4140 C   0  0  0  0  0  0  0  0  0  0  0  0
   36.9390   22.9610   32.4560 C   0  0  0  0  0  0  0  0  0  0  0  0
   37.6730   23.9170   33.1590 C   0  0  0  0  0  0  0  0  0  0  0  0
   35.4030   25.0650   30.2810 H   0  0  0  0  0  0  0  0  0  0  0  0
   35.5210   22.7140   30.8230 H   0  0  0  0  0  0  0  0  0  0  0  0
   36.9820   21.9040   32.6890 H   0  0  0  0  0  0  0  0  0  0  0  0
   40.3810   23.1490   32.2950 Cl  0  0  0  0  0  0  0  0  0  0  0  0
   39.7870   22.9930   33.9270 C   0  0  0  0  0  0  0  0  0  0  0  0
   38.4900   23.3880   34.2160 C   0  0  0  0  0  0  0  0  0  0  0  0
   38.0230   23.2630   35.5100 C   0  0  0  0  0  0  0  0  0  0  0  0
   38.8650   22.7420   36.4960 C   0  0  0  0  0  0  0  0  0  0  0  0
   40.1620   22.3550   36.1680 C   0  0  0  0  0  0  0  0  0  0  0  0
   41.2000   21.7010   37.4340 Cl  0  0  0  0  0  0  0  0  0  0  0  0
   40.6360   22.4730   34.8960 C   0  0  0  0  0  0  0  0  0  0  0  0
   37.0170   23.5620   35.7670 H   0  0  0  0  0  0  0  0  0  0  0  0
   38.4500   22.6620   37.5050 H   0  0  0  0  0  0  0  0  0  0  0  0
   41.6590   22.1670   34.6450 H   0  0  0  0  0  0  0  0  0  0  0  0
   35.6970   27.9360   32.0000 C   0  0  0  0  0  0  0  0  0  0  0  0
   36.6510   27.0990   31.4090 C   0  0  0  0  0  0  0  0  0  0  0  0
   37.4930   27.6530   30.4400 C   0  0  0  0  0  0  0  0  0  0  0  0
   37.3350   28.9740   30.1310 N   0  0  0  0  0  0  0  0  0  0  0  0
   36.4060   29.7500   30.7210 C   0  0  0  0  0  0  0  0  0  0  0  0
   35.5940   29.2210   31.6520 N   0  0  0  0  0  0  0  0  0  0  0  0
   35.0730   27.4690   32.7380 H   0  0  0  0  0  0  0  0  0  0  0  0
   38.2470   27.0500   29.9530 H   0  0  0  0  0  0  0  0  0  0  0  0
   36.2760   31.1870   30.3440 C   0  0  0  0  0  2  0  0  0  0  0  0
   36.5220   31.9780   31.6340 C   0  0  0  0  0  2  0  0  0  0  0  0
   36.9460   32.9790   31.4090 H   0  0  0  0  0  0  0  0  0  0  0  0
  2  7  1  0  0  0  0
  2  1  1  0  0  0  0
  3  2  2  0  0  0  0
  4  5  2  0  0  0  0
  4  3  1  0  0  0  0
  5  6  1  0  0  0  0
  6 10  1  0  0  0  0
  6  7  2  0  0  0  0
  7 13  1  0  0  0  0
  8  4  1  0  0  0  0
  9  5  1  0  0  0  0
 11 12  1  0  0  0  0
 12 13  2  0  0  0  0
 12 18  1  0  0  0  0
 13 14  1  0  0  0  0
 14 19  1  0  0  0  0
 14 15  2  0  0  0  0
 15 20  1  0  0  0  0
 16 15  1  0  0  0  0
 16 17  1  0  0  0  0
 18 16  2  0  0  0  0
 21 18  1  0  0  0  0
 22 28  1  0  0  0  0
 23  3  1  0  0  0  0
 23 22  2  0  0  0  0
 24 23  1  0  0  0  0
 25 24  2  0  0  0  0
 25 26  1  0  0  0  0
 26 27  2  0  0  0  0
 27 22  1  0  0  0  0
 29 24  1  0  0  0  0
 30 26  1  0  0  0  0
 30 31  1  0  0  0  0
 32 31  1  0  0  0  0
M  END
>  <minimizedAffinity>
-5.05905437

$$$$

 OpenBabel03272506043D

 32 34  0  0  0  0  0  0  0  0999 V2000
   38.1830   27.2500   34.7050 Cl  0  0  0  0  0  0  0  0  0  0  0  0
   37.4540   26.2950   33.4560 C   0  0  0  0  0  0  0  0  0  0  0  0
   36.6720   26.8940   32.5270 C   0  0  0  0  0  0  0  0  0  0  0  0
   36.1220   26.0580   31.5540 C   0  0  0  0  0  0  0  0  0  0  0  0
   36.3700   24.6950   31.5500 C   0  0  0  0  0  0  0  0  0  0  0  0
   37.1820   24.1270   32.5280 C   0  0  0  0  0  0  0  0  0  0  0  0
   37.7360   24.9560   33.5040 C   0  0  0  0  0  0  0  0  0  0  0  0
   35.4930   26.5090   30.8000 H   0  0  0  0  0  0  0  0  0  0  0  0
   35.9050   24.1300   30.7640 H   0  0  0  0  0  0  0  0  0  0  0  0
   37.3580   23.0580   32.5000 H   0  0  0  0  0  0  0  0  0  0  0  0
   40.5790   24.8200   32.7520 Cl  0  0  0  0  0  0  0  0  0  0  0  0
   39.9160   24.1560   34.2220 C   0  0  0  0  0  0  0  0  0  0  0  0
   38.5580   24.2810   34.4680 C   0  0  0  0  0  0  0  0  0  0  0  0
   38.0360   23.7540   35.6340 C   0  0  0  0  0  0  0  0  0  0  0  0
   38.8870   23.1080   36.5360 C   0  0  0  0  0  0  0  0  0  0  0  0
   40.2460   23.0020   36.2540 C   0  0  0  0  0  0  0  0  0  0  0  0
   41.2930   22.1810   37.4110 Cl  0  0  0  0  0  0  0  0  0  0  0  0
   40.7740   23.5170   35.1090 C   0  0  0  0  0  0  0  0  0  0  0  0
   36.9820   23.8350   35.8550 H   0  0  0  0  0  0  0  0  0  0  0  0
   38.4270   22.7080   37.4440 H   0  0  0  0  0  0  0  0  0  0  0  0
   41.8470   23.4300   34.8930 H   0  0  0  0  0  0  0  0  0  0  0  0
   35.6120   28.9420   33.4890 C   0  0  0  0  0  0  0  0  0  0  0  0
   36.3820   28.3290   32.4930 C   0  0  0  0  0  0  0  0  0  0  0  0
   36.8660   29.1330   31.4570 C   0  0  0  0  0  0  0  0  0  0  0  0
   36.5620   30.4660   31.4810 N   0  0  0  0  0  0  0  0  0  0  0  0
   35.8190   31.0210   32.4570 C   0  0  0  0  0  0  0  0  0  0  0  0
   35.3500   30.2510   33.4540 N   0  0  0  0  0  0  0  0  0  0  0  0
   35.2610   28.2860   34.2630 H   0  0  0  0  0  0  0  0  0  0  0  0
   37.4660   28.7100   30.6620 H   0  0  0  0  0  0  0  0  0  0  0  0
   35.5150   32.4810   32.4340 C   0  0  0  0  0  2  0  0  0  0  0  0
   36.8650   33.1880   32.5990 C   0  0  0  0  0  2  0  0  0  0  0  0
   36.8520   34.1830   32.1070 H   0  0  0  0  0  0  0  0  0  0  0  0
  2  7  1  0  0  0  0
  2  1  1  0  0  0  0
  3  2  2  0  0  0  0
  4  3  1  0  0  0  0
  5  4  2  0  0  0  0
  5  6  1  0  0  0  0
  6  7  2  0  0  0  0
  7 13  1  0  0  0  0
  8  4  1  0  0  0  0
  9  5  1  0  0  0  0
 10  6  1  0  0  0  0
 11 12  1  0  0  0  0
 12 13  2  0  0  0  0
 12 18  1  0  0  0  0
 13 14  1  0  0  0  0
 14 19  1  0  0  0  0
 14 15  2  0  0  0  0
 15 20  1  0  0  0  0
 16 15  1  0  0  0  0
 16 17  1  0  0  0  0
 18 16  2  0  0  0  0
 21 18  1  0  0  0  0
 22 28  1  0  0  0  0
 23  3  1  0  0  0  0
 23 22  2  0  0  0  0
 24 25  2  0  0  0  0
 24 23  1  0  0  0  0
 25 26  1  0  0  0  0
 26 27  2  0  0  0  0
 27 22  1  0  0  0  0
 29 24  1  0  0  0  0
 30 26  1  0  0  0  0
 30 31  1  0  0  0  0
 32 31  1  0  0  0  0
M  END
>  <minimizedAffinity>
-5.04439211

$$$$
