
 OpenBabel03272509493D

 27 28  0  0  0  0  0  0  0  0999 V2000
   33.7230   28.6060   48.6990 C   0  0  0  0  0  0  0  0  0  0  0  0
   34.2860   28.9310   47.7840 H   0  0  0  0  0  0  0  0  0  0  0  0
   33.1040   29.4250   49.1270 H   0  0  0  0  0  0  0  0  0  0  0  0
   32.8070   27.4620   48.3480 C   0  0  0  0  0  0  0  0  0  0  0  0
   33.0980   27.0540   47.3400 H   0  0  0  0  0  0  0  0  0  0  0  0
   32.9520   26.6320   49.0800 H   0  0  0  0  0  0  0  0  0  0  0  0
   31.3820   27.8600   48.3510 C   0  0  0  0  0  0  0  0  0  0  0  0
   30.6930   27.7300   49.5430 C   0  0  0  0  0  0  0  0  0  0  0  0
   29.3660   28.0730   49.6480 C   0  0  0  0  0  0  0  0  0  0  0  0
   28.7020   28.5460   48.5850 N   0  0  0  0  0  0  0  0  0  0  0  0
   29.3900   28.6700   47.4160 C   0  0  0  0  0  0  0  0  0  0  0  0
   30.6830   28.3420   47.2920 N   0  0  0  0  0  0  0  0  0  0  0  0
   31.1160   27.3600   50.4710 H   0  0  0  0  0  0  0  0  0  0  0  0
   28.7830   27.9900   50.5550 H   0  0  0  0  0  0  0  0  0  0  0  0
   29.0130   29.0350   46.4600 H   0  0  0  0  0  0  0  0  0  0  0  0
   34.6220   28.2020   49.7250 O   0  0  0  0  0  0  0  0  0  0  0  0
   37.2210   30.1730   51.3100 C   0  0  0  0  0  0  0  0  0  0  0  0
   37.9010   30.6410   50.1620 C   0  0  0  0  0  0  0  0  0  0  0  0
   37.4160   30.2450   48.9210 C   0  0  0  0  0  0  0  0  0  0  0  0
   36.3210   29.4340   48.8800 N   0  0  0  0  0  0  0  0  0  0  0  0
   35.6990   29.0070   49.9970 C   0  0  0  0  0  0  0  0  0  0  0  0
   36.1630   29.3870   51.1980 N   0  0  0  0  0  0  0  0  0  0  0  0
   37.6220   30.4980   52.2600 H   0  0  0  0  0  0  0  0  0  0  0  0
   38.7760   31.2890   50.1630 H   0  0  0  0  0  0  0  0  0  0  0  0
   38.0760   30.6950   47.6450 C   0  0  0  0  0  2  0  0  0  0  0  0
   38.7680   32.0230   47.8040 C   0  0  0  0  0  2  0  0  0  0  0  0
   38.1300   32.8780   47.5160 H   0  0  0  0  0  0  0  0  0  0  0  0
  1  3  1  0  0  0  0
  1 16  1  0  0  0  0
  2  1  1  0  0  0  0
  4  7  1  0  0  0  0
  4  1  1  0  0  0  0
  4  6  1  0  0  0  0
  5  4  1  0  0  0  0
  7  8  1  0  0  0  0
  8  9  2  0  0  0  0
  8 13  1  0  0  0  0
  9 14  1  0  0  0  0
 10  9  1  0  0  0  0
 11 10  2  0  0  0  0
 12 11  1  0  0  0  0
 12  7  2  0  0  0  0
 15 11  1  0  0  0  0
 16 21  1  0  0  0  0
 17 23  1  0  0  0  0
 18 24  1  0  0  0  0
 18 17  2  0  0  0  0
 19 18  1  0  0  0  0
 20 19  2  0  0  0  0
 20 21  1  0  0  0  0
 21 22  2  0  0  0  0
 22 17  1  0  0  0  0
 25 26  1  0  0  0  0
 25 19  1  0  0  0  0
 27 26  1  0  0  0  0
M  END
>  <minimizedAffinity>
-4.97045422

>  <minimizedRMSD>
0.160599634

$$$$
