
 OpenBabel03272504303D

 26 27  0  0  0  0  0  0  0  0999 V2000
   36.4290   30.0870   48.6810 N   0  0  0  0  0  0  0  0  0  0  0  0
   35.3950   29.8310   47.6930 C   0  0  0  0  0  0  0  0  0  0  0  0
   34.1040   29.3860   48.2700 C   0  0  0  0  0  0  0  0  0  0  0  0
   34.1380   28.6670   49.4930 N   0  0  0  0  0  0  0  0  0  0  0  0
   35.1440   29.1580   50.4260 C   0  0  0  0  0  0  0  0  0  0  0  0
   36.4510   29.0630   49.6910 C   0  0  0  0  0  0  0  0  0  0  0  0
   35.2280   30.8000   47.1380 H   0  0  0  0  0  0  0  0  0  0  0  0
   35.7610   29.1440   46.9010 H   0  0  0  0  0  0  0  0  0  0  0  0
   33.5930   28.7410   47.5210 H   0  0  0  0  0  0  0  0  0  0  0  0
   33.4150   30.2780   48.3740 H   0  0  0  0  0  0  0  0  0  0  0  0
   33.2210   28.7820   49.9800 H   0  0  0  0  0  0  0  0  0  0  0  0
   35.1570   28.4420   51.2900 H   0  0  0  0  0  0  0  0  0  0  0  0
   34.9560   30.1840   50.7540 H   0  0  0  0  0  0  0  0  0  0  0  0
   37.3490   29.1370   50.3330 H   0  0  0  0  0  0  0  0  0  0  0  0
   36.5140   28.0660   49.1840 H   0  0  0  0  0  0  0  0  0  0  0  0
   37.2990   31.2150   48.6360 C   0  0  0  0  0  0  0  0  0  0  0  0
   37.3970   32.1470   49.6740 C   0  0  0  0  0  0  0  0  0  0  0  0
   38.2860   33.2200   49.5230 C   0  0  0  0  0  0  0  0  0  0  0  0
   39.0090   33.2990   48.3750 N   0  0  0  0  0  0  0  0  0  0  0  0
   38.8830   32.3670   47.3890 C   0  0  0  0  0  0  0  0  0  0  0  0
   38.0390   31.3260   47.5010 N   0  0  0  0  0  0  0  0  0  0  0  0
   36.7950   32.0140   50.5410 H   0  0  0  0  0  0  0  0  0  0  0  0
   38.3860   33.9550   50.3010 H   0  0  0  0  0  0  0  0  0  0  0  0
   39.7070   32.5270   46.1720 C   0  0  0  0  0  0  0  0  0  0  0  0
   40.2670   31.1510   45.8120 C   0  0  0  0  0  0  0  0  0  0  0  0
   41.1160   30.8850   46.4950 H   0  0  0  0  0  0  0  0  0  0  0  0
  1  6  1  0  0  0  0
  2  3  1  0  0  0  0
  2  1  1  0  0  0  0
  3 10  1  0  0  0  0
  3  4  1  0  0  0  0
  4 11  1  0  0  0  0
  4  5  1  0  0  0  0
  5 13  1  0  0  0  0
  5 12  1  0  0  0  0
  6 14  1  0  0  0  0
  6  5  1  0  0  0  0
  7  2  1  0  0  0  0
  8  2  1  0  0  0  0
  9  3  1  0  0  0  0
 15  6  1  0  0  0  0
 16  1  1  0  0  0  0
 16 17  1  0  0  0  0
 17 22  1  0  0  0  0
 18 17  2  0  0  0  0
 18 23  1  0  0  0  0
 19 18  1  0  0  0  0
 20 21  1  0  0  0  0
 20 19  2  0  0  0  0
 21 16  2  0  0  0  0
 24 20  1  0  0  0  0
 25 24  1  0  0  0  0
 25 26  1  0  0  0  0
M  END
>  <minimizedAffinity>
-4.90464258

>  <minimizedRMSD>
5.7332921

$$$$
