
 OpenBabel03272509493D

 27 28  0  0  0  0  0  0  0  0999 V2000
   33.9060   28.6800   48.6690 C   0  0  0  0  0  0  0  0  0  0  0  0
   34.5390   28.9760   47.7900 H   0  0  0  0  0  0  0  0  0  0  0  0
   33.2420   29.5060   49.0080 H   0  0  0  0  0  0  0  0  0  0  0  0
   33.0380   27.5060   48.2940 C   0  0  0  0  0  0  0  0  0  0  0  0
   33.4270   27.0510   47.3420 H   0  0  0  0  0  0  0  0  0  0  0  0
   33.1200   26.7180   49.0790 H   0  0  0  0  0  0  0  0  0  0  0  0
   31.6150   27.8840   48.1420 C   0  0  0  0  0  0  0  0  0  0  0  0
   30.7750   27.6200   49.2070 C   0  0  0  0  0  0  0  0  0  0  0  0
   29.4360   27.9340   49.1620 C   0  0  0  0  0  0  0  0  0  0  0  0
   28.9110   28.5070   48.0720 N   0  0  0  0  0  0  0  0  0  0  0  0
   29.7470   28.7640   47.0280 C   0  0  0  0  0  0  0  0  0  0  0  0
   31.0540   28.4670   47.0520 N   0  0  0  0  0  0  0  0  0  0  0  0
   31.0770   27.1600   50.1420 H   0  0  0  0  0  0  0  0  0  0  0  0
   28.7380   27.7480   49.9670 H   0  0  0  0  0  0  0  0  0  0  0  0
   29.4940   29.2220   46.0730 H   0  0  0  0  0  0  0  0  0  0  0  0
   34.7210   28.3360   49.7830 O   0  0  0  0  0  0  0  0  0  0  0  0
   37.3430   30.1810   51.4770 C   0  0  0  0  0  0  0  0  0  0  0  0
   37.8260   30.9570   50.3990 C   0  0  0  0  0  0  0  0  0  0  0  0
   37.2130   30.7910   49.1620 C   0  0  0  0  0  0  0  0  0  0  0  0
   36.1900   29.8960   49.0590 N   0  0  0  0  0  0  0  0  0  0  0  0
   35.7570   29.1730   50.1110 C   0  0  0  0  0  0  0  0  0  0  0  0
   36.3450   29.3290   51.3070 N   0  0  0  0  0  0  0  0  0  0  0  0
   37.8410   30.3320   52.4260 H   0  0  0  0  0  0  0  0  0  0  0  0
   38.6390   31.6790   50.4510 H   0  0  0  0  0  0  0  0  0  0  0  0
   37.6600   31.5760   47.9580 C   0  0  0  0  0  2  0  0  0  0  0  0
   38.3650   30.7100   46.9460 C   0  0  0  0  0  2  0  0  0  0  0  0
   39.4610   30.7040   47.0760 H   0  0  0  0  0  0  0  0  0  0  0  0
  1  3  1  0  0  0  0
  1 16  1  0  0  0  0
  2  1  1  0  0  0  0
  4  1  1  0  0  0  0
  4  6  1  0  0  0  0
  5  4  1  0  0  0  0
  7  4  1  0  0  0  0
  7  8  1  0  0  0  0
  8 13  1  0  0  0  0
  9  8  2  0  0  0  0
  9 14  1  0  0  0  0
 10  9  1  0  0  0  0
 11 12  1  0  0  0  0
 11 10  2  0  0  0  0
 12  7  2  0  0  0  0
 15 11  1  0  0  0  0
 16 21  1  0  0  0  0
 17 23  1  0  0  0  0
 18 24  1  0  0  0  0
 18 17  2  0  0  0  0
 19 18  1  0  0  0  0
 20 19  2  0  0  0  0
 20 21  1  0  0  0  0
 21 22  2  0  0  0  0
 22 17  1  0  0  0  0
 25 19  1  0  0  0  0
 26 27  1  0  0  0  0
 26 25  1  0  0  0  0
M  END
>  <minimizedAffinity>
-4.69941473

>  <minimizedRMSD>
0.548950493

$$$$
