
 OpenBabel03272507013D

 40 42  0  0  1  0  0  0  0  0999 V2000
   34.9960   30.0860   49.6150 C   0  0  2  0  0  0  0  0  0  0  0  0
   36.0230   30.7790   48.7830 C   0  0  0  0  0  0  0  0  0  0  0  0
   37.3950   30.1980   48.9750 C   0  0  2  0  0  0  0  0  0  0  0  0
   37.8340   30.2320   50.3970 C   0  0  0  0  0  0  0  0  0  0  0  0
   36.7740   29.7390   51.3420 C   0  0  0  0  0  0  0  0  0  0  0  0
   35.5850   29.1460   50.6340 C   0  0  0  0  0  0  0  0  0  0  0  0
   34.3380   30.7740   50.2190 H   0  0  0  0  0  0  0  0  0  0  0  0
   35.9320   31.8360   49.0550 H   0  0  0  0  0  0  0  0  0  0  0  0
   35.8790   30.7400   47.6940 H   0  0  0  0  0  0  0  0  0  0  0  0
   37.3540   29.1420   48.6380 H   0  0  0  0  0  0  0  0  0  0  0  0
   38.8030   29.7010   50.4920 H   0  0  0  0  0  0  0  0  0  0  0  0
   38.0510   31.2850   50.6710 H   0  0  0  0  0  0  0  0  0  0  0  0
   37.2480   28.8820   51.9040 H   0  0  0  0  0  0  0  0  0  0  0  0
   36.4770   30.4530   52.1120 H   0  0  0  0  0  0  0  0  0  0  0  0
   35.8380   28.1540   50.1750 H   0  0  0  0  0  0  0  0  0  0  0  0
   34.8160   28.9190   51.3930 H   0  0  0  0  0  0  0  0  0  0  0  0
   38.2600   30.9210   48.1220 N   0  0  1  0  0  0  0  0  0  0  0  0
   38.0680   30.7320   46.7180 C   0  0  0  0  0  0  0  0  0  0  0  0
   39.3500   31.3740   46.1730 C   0  0  0  0  0  0  0  0  0  0  0  0
   39.4080   32.5910   47.0710 C   0  0  0  0  0  0  0  0  0  0  0  0
   38.7610   32.1110   48.3960 C   0  0  1  0  0  0  0  0  0  0  0  0
   38.0610   29.6340   46.5290 H   0  0  0  0  0  0  0  0  0  0  0  0
   37.1710   31.2600   46.3570 H   0  0  0  0  0  0  0  0  0  0  0  0
   39.2630   31.6250   45.1080 H   0  0  0  0  0  0  0  0  0  0  0  0
   40.1720   30.6610   46.3820 H   0  0  0  0  0  0  0  0  0  0  0  0
   38.6820   33.3040   46.5740 H   0  0  0  0  0  0  0  0  0  0  0  0
   40.3880   33.0250   47.2090 H   0  0  0  0  0  0  0  0  0  0  0  0
   39.6940   31.9190   49.0330 H   0  0  0  0  0  0  0  0  0  0  0  0
   38.2220   33.3280   48.9890 C   0  0  0  0  0  0  0  0  0  0  0  0
   39.4770   34.1670   49.3450 C   0  0  0  0  0  0  0  0  0  0  0  0
   39.8740   34.6960   48.4630 H   0  0  0  0  0  0  0  0  0  0  0  0
   34.0490   29.3060   48.7850 C   0  0  0  0  0  0  0  0  0  0  0  0
   33.9790   29.7130   47.4510 C   0  0  0  0  0  0  0  0  0  0  0  0
   33.1040   28.9970   46.6180 C   0  0  0  0  0  0  0  0  0  0  0  0
   32.3710   27.9470   47.1520 N   0  0  0  0  0  0  0  0  0  0  0  0
   32.4800   27.5940   48.4630 C   0  0  0  0  0  0  0  0  0  0  0  0
   33.3050   28.2720   49.2390 N   0  0  0  0  0  0  0  0  0  0  0  0
   34.3860   30.4530   46.7950 H   0  0  0  0  0  0  0  0  0  0  0  0
   32.8610   29.0890   45.5850 H   0  0  0  0  0  0  0  0  0  0  0  0
   31.9190   26.7900   48.8750 H   0  0  0  0  0  0  0  0  0  0  0  0
  1  7  1  1  0  0  0
  1  6  1  0  0  0  0
  2  3  1  0  0  0  0
  2  8  1  0  0  0  0
  2  1  1  0  0  0  0
  3 10  1  6  0  0  0
  3  4  1  0  0  0  0
  4 11  1  0  0  0  0
  4 12  1  0  0  0  0
  4  5  1  0  0  0  0
  5 13  1  0  0  0  0
  5 14  1  0  0  0  0
  6  5  1  0  0  0  0
  6 16  1  0  0  0  0
  9  2  1  0  0  0  0
 15  6  1  0  0  0  0
 17 18  1  6  0  0  0
 17 21  1  0  0  0  0
 17  3  1  0  0  0  0
 19 25  1  0  0  0  0
 19 18  1  0  0  0  0
 19 20  1  0  0  0  0
 20 27  1  0  0  0  0
 20 21  1  0  0  0  0
 21 29  1  0  0  0  0
 21 28  1  1  0  0  0
 22 18  1  0  0  0  0
 23 18  1  0  0  0  0
 24 19  1  0  0  0  0
 26 20  1  0  0  0  0
 29 30  1  0  0  0  0
 31 30  1  0  0  0  0
 32 37  1  0  0  0  0
 32  1  1  0  0  0  0
 33 32  2  0  0  0  0
 34 35  2  0  0  0  0
 34 33  1  0  0  0  0
 35 36  1  0  0  0  0
 36 40  1  0  0  0  0
 36 37  2  0  0  0  0
 38 33  1  0  0  0  0
 39 34  1  0  0  0  0
M  END
>  <minimizedAffinity>
-6.62388563

>  <minimizedRMSD>
0.417584717

$$$$
