
 OpenBabel03272509123D

 22 23  0  0  0  0  0  0  0  0999 V2000
   38.6130   25.9320   32.7830 C   0  0  0  0  0  0  0  0  0  0  0  0
   38.8550   25.6860   34.1840 C   0  0  0  0  0  0  0  0  0  0  0  0
   38.4360   24.4230   34.6270 C   0  0  0  0  0  0  0  0  0  0  0  0
   37.8440   23.5250   33.7760 N   0  0  0  0  0  0  0  0  0  0  0  0
   37.6450   23.8310   32.4630 C   0  0  0  0  0  0  0  0  0  0  0  0
   38.0270   25.0210   31.9740 N   0  0  0  0  0  0  0  0  0  0  0  0
   38.8760   26.8360   32.2990 H   0  0  0  0  0  0  0  0  0  0  0  0
   37.1810   23.1110   31.8240 H   0  0  0  0  0  0  0  0  0  0  0  0
   38.6220   24.0050   35.9980 C   0  0  0  0  0  0  0  0  0  0  0  0
   39.7560   23.3180   36.3130 C   0  0  0  0  0  0  0  0  0  0  0  0
   40.0430   22.8750   37.6030 C   0  0  0  0  0  0  0  0  0  0  0  0
   39.0910   23.1700   38.5830 C   0  0  0  0  0  0  0  0  0  0  0  0
   37.8970   23.8700   38.3340 C   0  0  0  0  0  0  0  0  0  0  0  0
   37.7090   24.2690   37.0140 C   0  0  0  0  0  0  0  0  0  0  0  0
   40.5740   22.9530   35.7200 H   0  0  0  0  0  0  0  0  0  0  0  0
   40.8890   22.3360   37.9710 H   0  0  0  0  0  0  0  0  0  0  0  0
   39.1870   22.8790   39.6410 H   0  0  0  0  0  0  0  0  0  0  0  0
   37.1880   24.0730   39.1140 H   0  0  0  0  0  0  0  0  0  0  0  0
   36.8060   24.8110   36.7670 H   0  0  0  0  0  0  0  0  0  0  0  0
   39.4310   26.7950   34.9370 C   0  0  0  0  0  2  0  0  0  0  0  0
   38.3240   27.5810   35.6580 C   0  0  0  0  0  2  0  0  0  0  0  0
   37.9480   28.4230   35.0140 H   0  0  0  0  0  0  0  0  0  0  0  0
  1  2  1  0  0  0  0
  2  3  2  0  0  0  0
  2 20  1  0  0  0  0
  3  9  1  0  0  0  0
  4  3  1  0  0  0  0
  5  4  2  0  0  0  0
  6  5  1  0  0  0  0
  6  1  2  0  0  0  0
  7  1  1  0  0  0  0
  8  5  1  0  0  0  0
  9 10  2  0  0  0  0
  9 14  1  0  0  0  0
 10 11  1  0  0  0  0
 11 16  1  0  0  0  0
 11 12  2  0  0  0  0
 12 17  1  0  0  0  0
 13 12  1  0  0  0  0
 13 18  1  0  0  0  0
 14 13  2  0  0  0  0
 15 10  1  0  0  0  0
 19 14  1  0  0  0  0
 20 21  1  0  0  0  0
 22 21  1  0  0  0  0
M  END
>  <minimizedAffinity>
-4.46376228

$$$$

 OpenBabel03272509123D

 22 23  0  0  0  0  0  0  0  0999 V2000
   40.0340   22.5350   37.0690 C   0  0  0  0  0  0  0  0  0  0  0  0
   39.0800   23.5540   36.7050 C   0  0  0  0  0  0  0  0  0  0  0  0
   39.5360   24.4450   35.7230 C   0  0  0  0  0  0  0  0  0  0  0  0
   40.7900   24.3330   35.1800 N   0  0  0  0  0  0  0  0  0  0  0  0
   41.6390   23.3430   35.5770 C   0  0  0  0  0  0  0  0  0  0  0  0
   41.2630   22.4550   36.5100 N   0  0  0  0  0  0  0  0  0  0  0  0
   39.8380   21.7880   37.7920 H   0  0  0  0  0  0  0  0  0  0  0  0
   42.6110   23.2810   35.1360 H   0  0  0  0  0  0  0  0  0  0  0  0
   38.6990   25.5150   35.2280 C   0  0  0  0  0  0  0  0  0  0  0  0
   37.9870   25.2980   34.0860 C   0  0  0  0  0  0  0  0  0  0  0  0
   37.1420   26.2540   33.5250 C   0  0  0  0  0  0  0  0  0  0  0  0
   37.0580   27.4760   34.1980 C   0  0  0  0  0  0  0  0  0  0  0  0
   37.7640   27.7740   35.3770 C   0  0  0  0  0  0  0  0  0  0  0  0
   38.5770   26.7500   35.8550 C   0  0  0  0  0  0  0  0  0  0  0  0
   37.9430   24.4720   33.4010 H   0  0  0  0  0  0  0  0  0  0  0  0
   36.5360   26.2030   32.6470 H   0  0  0  0  0  0  0  0  0  0  0  0
   36.4320   28.3190   33.8660 H   0  0  0  0  0  0  0  0  0  0  0  0
   37.6760   28.7270   35.8630 H   0  0  0  0  0  0  0  0  0  0  0  0
   39.1440   26.9270   36.7600 H   0  0  0  0  0  0  0  0  0  0  0  0
   37.8250   23.5480   37.4490 C   0  0  0  0  0  2  0  0  0  0  0  0
   37.9620   24.3840   38.7320 C   0  0  0  0  0  2  0  0  0  0  0  0
   38.2910   23.7420   39.5950 H   0  0  0  0  0  0  0  0  0  0  0  0
  1  7  1  0  0  0  0
  2  1  1  0  0  0  0
  2 20  1  0  0  0  0
  3  2  2  0  0  0  0
  4  5  2  0  0  0  0
  4  3  1  0  0  0  0
  5  6  1  0  0  0  0
  6  1  2  0  0  0  0
  8  5  1  0  0  0  0
  9  3  1  0  0  0  0
  9 14  1  0  0  0  0
 10  9  2  0  0  0  0
 11 10  1  0  0  0  0
 11 12  2  0  0  0  0
 12 13  1  0  0  0  0
 13 14  2  0  0  0  0
 13 18  1  0  0  0  0
 14 19  1  0  0  0  0
 15 10  1  0  0  0  0
 16 11  1  0  0  0  0
 17 12  1  0  0  0  0
 20 21  1  0  0  0  0
 21 22  1  0  0  0  0
M  END
>  <minimizedAffinity>
-4.37681532

$$$$

 OpenBabel03272509123D

 22 23  0  0  0  0  0  0  0  0999 V2000
   36.2620   28.6690   32.1250 C   0  0  0  0  0  0  0  0  0  0  0  0
   35.9080   29.0850   33.4600 C   0  0  0  0  0  0  0  0  0  0  0  0
   35.1820   30.2840   33.5150 C   0  0  0  0  0  0  0  0  0  0  0  0
   34.8580   30.9790   32.3790 N   0  0  0  0  0  0  0  0  0  0  0  0
   35.2310   30.5240   31.1490 C   0  0  0  0  0  0  0  0  0  0  0  0
   35.9240   29.3810   31.0260 N   0  0  0  0  0  0  0  0  0  0  0  0
   36.8060   27.7850   31.9170 H   0  0  0  0  0  0  0  0  0  0  0  0
   34.9650   31.0880   30.2820 H   0  0  0  0  0  0  0  0  0  0  0  0
   34.7290   30.8330   34.7740 C   0  0  0  0  0  0  0  0  0  0  0  0
   33.4710   30.5220   35.1960 C   0  0  0  0  0  0  0  0  0  0  0  0
   32.9350   30.9870   36.3950 C   0  0  0  0  0  0  0  0  0  0  0  0
   33.7630   31.8110   37.1640 C   0  0  0  0  0  0  0  0  0  0  0  0
   35.0690   32.1790   36.7920 C   0  0  0  0  0  0  0  0  0  0  0  0
   35.5080   31.6580   35.5780 C   0  0  0  0  0  0  0  0  0  0  0  0
   32.6720   29.9600   34.7500 H   0  0  0  0  0  0  0  0  0  0  0  0
   31.9760   30.8130   36.8320 H   0  0  0  0  0  0  0  0  0  0  0  0
   33.4690   32.2500   38.1290 H   0  0  0  0  0  0  0  0  0  0  0  0
   35.6730   32.8180   37.4080 H   0  0  0  0  0  0  0  0  0  0  0  0
   36.5050   31.9100   35.2440 H   0  0  0  0  0  0  0  0  0  0  0  0
   36.4070   28.2450   34.5440 C   0  0  0  0  0  2  0  0  0  0  0  0
   37.2920   27.1200   33.9820 C   0  0  0  0  0  2  0  0  0  0  0  0
   36.6810   26.2020   33.7660 H   0  0  0  0  0  0  0  0  0  0  0  0
  1  2  1  0  0  0  0
  2  3  2  0  0  0  0
  2 20  1  0  0  0  0
  3  9  1  0  0  0  0
  4  3  1  0  0  0  0
  5  4  2  0  0  0  0
  6  5  1  0  0  0  0
  6  1  2  0  0  0  0
  7  1  1  0  0  0  0
  8  5  1  0  0  0  0
  9 10  2  0  0  0  0
  9 14  1  0  0  0  0
 10 11  1  0  0  0  0
 11 16  1  0  0  0  0
 11 12  2  0  0  0  0
 12 17  1  0  0  0  0
 13 12  1  0  0  0  0
 13 18  1  0  0  0  0
 14 13  2  0  0  0  0
 15 10  1  0  0  0  0
 19 14  1  0  0  0  0
 21 20  1  0  0  0  0
 22 21  1  0  0  0  0
M  END
>  <minimizedAffinity>
-4.14173985

$$$$

 OpenBabel03272509123D

 22 23  0  0  0  0  0  0  0  0999 V2000
   36.4740   29.7030   31.6610 C   0  0  0  0  0  0  0  0  0  0  0  0
   35.8160   30.5350   32.6380 C   0  0  0  0  0  0  0  0  0  0  0  0
   35.5960   29.9070   33.8730 C   0  0  0  0  0  0  0  0  0  0  0  0
   35.9810   28.6100   34.0970 N   0  0  0  0  0  0  0  0  0  0  0  0
   36.5970   27.8840   33.1210 C   0  0  0  0  0  0  0  0  0  0  0  0
   36.8410   28.4270   31.9180 N   0  0  0  0  0  0  0  0  0  0  0  0
   36.7130   30.0330   30.6840 H   0  0  0  0  0  0  0  0  0  0  0  0
   36.8850   26.8760   33.3250 H   0  0  0  0  0  0  0  0  0  0  0  0
   34.9650   30.6050   34.9710 C   0  0  0  0  0  0  0  0  0  0  0  0
   33.6320   30.4100   35.1760 C   0  0  0  0  0  0  0  0  0  0  0  0
   32.9250   31.0230   36.2090 C   0  0  0  0  0  0  0  0  0  0  0  0
   33.6590   31.8710   37.0430 C   0  0  0  0  0  0  0  0  0  0  0  0
   35.0340   32.1250   36.8910 C   0  0  0  0  0  0  0  0  0  0  0  0
   35.6450   31.4610   35.8310 C   0  0  0  0  0  0  0  0  0  0  0  0
   32.8870   29.8530   34.6400 H   0  0  0  0  0  0  0  0  0  0  0  0
   31.8920   30.9490   36.4720 H   0  0  0  0  0  0  0  0  0  0  0  0
   33.2290   32.4220   37.8940 H   0  0  0  0  0  0  0  0  0  0  0  0
   35.5630   32.7870   37.5500 H   0  0  0  0  0  0  0  0  0  0  0  0
   36.7030   31.6200   35.6680 H   0  0  0  0  0  0  0  0  0  0  0  0
   35.4220   31.8640   32.1840 C   0  0  0  0  0  2  0  0  0  0  0  0
   36.6030   32.8400   32.3050 C   0  0  0  0  0  2  0  0  0  0  0  0
   36.5960   33.3540   33.3050 H   0  0  0  0  0  0  0  0  0  0  0  0
  1  6  2  0  0  0  0
  1  2  1  0  0  0  0
  2  3  2  0  0  0  0
  3  4  1  0  0  0  0
  3  9  1  0  0  0  0
  5  8  1  0  0  0  0
  5  4  2  0  0  0  0
  6  5  1  0  0  0  0
  7  1  1  0  0  0  0
  9 10  2  0  0  0  0
  9 14  1  0  0  0  0
 10 11  1  0  0  0  0
 11 16  1  0  0  0  0
 11 12  2  0  0  0  0
 12 17  1  0  0  0  0
 13 12  1  0  0  0  0
 13 18  1  0  0  0  0
 14 13  2  0  0  0  0
 15 10  1  0  0  0  0
 19 14  1  0  0  0  0
 20 21  1  0  0  0  0
 20  2  1  0  0  0  0
 21 22  1  0  0  0  0
M  END
>  <minimizedAffinity>
-4.07109165

$$$$

 OpenBabel03272509123D

 22 23  0  0  0  0  0  0  0  0999 V2000
   34.1100   31.9510   36.8490 C   0  0  0  0  0  0  0  0  0  0  0  0
   35.0250   31.4540   35.8510 C   0  0  0  0  0  0  0  0  0  0  0  0
   34.5120   30.4090   35.0690 C   0  0  0  0  0  0  0  0  0  0  0  0
   33.2460   29.9210   35.2660 N   0  0  0  0  0  0  0  0  0  0  0  0
   32.4380   30.4410   36.2330 C   0  0  0  0  0  0  0  0  0  0  0  0
   32.8670   31.4460   37.0130 N   0  0  0  0  0  0  0  0  0  0  0  0
   34.3480   32.7400   37.5130 H   0  0  0  0  0  0  0  0  0  0  0  0
   31.4560   30.0400   36.3640 H   0  0  0  0  0  0  0  0  0  0  0  0
   35.2900   29.8090   34.0090 C   0  0  0  0  0  0  0  0  0  0  0  0
   35.9940   28.6760   34.2900 C   0  0  0  0  0  0  0  0  0  0  0  0
   36.7700   28.0090   33.3440 C   0  0  0  0  0  0  0  0  0  0  0  0
   36.7990   28.5680   32.0630 C   0  0  0  0  0  0  0  0  0  0  0  0
   36.1030   29.7350   31.6990 C   0  0  0  0  0  0  0  0  0  0  0  0
   35.3570   30.3220   32.7180 C   0  0  0  0  0  0  0  0  0  0  0  0
   36.1470   28.1200   35.1960 H   0  0  0  0  0  0  0  0  0  0  0  0
   37.3570   27.1220   33.4390 H   0  0  0  0  0  0  0  0  0  0  0  0
   37.3700   28.1480   31.2210 H   0  0  0  0  0  0  0  0  0  0  0  0
   36.1540   30.1360   30.7040 H   0  0  0  0  0  0  0  0  0  0  0  0
   34.8020   31.2230   32.4920 H   0  0  0  0  0  0  0  0  0  0  0  0
   36.3540   32.0570   35.8460 C   0  0  0  0  0  2  0  0  0  0  0  0
   36.3930   33.2520   34.8790 C   0  0  0  0  0  2  0  0  0  0  0  0
   36.7130   32.9250   33.8520 H   0  0  0  0  0  0  0  0  0  0  0  0
  1  6  1  0  0  0  0
  1  7  1  0  0  0  0
  2  1  2  0  0  0  0
  3  4  2  0  0  0  0
  3  2  1  0  0  0  0
  4  5  1  0  0  0  0
  5  8  1  0  0  0  0
  5  6  2  0  0  0  0
  9 10  1  0  0  0  0
  9  3  1  0  0  0  0
 10 15  1  0  0  0  0
 11 16  1  0  0  0  0
 11 10  2  0  0  0  0
 12 11  1  0  0  0  0
 13 12  2  0  0  0  0
 13 14  1  0  0  0  0
 14  9  2  0  0  0  0
 17 12  1  0  0  0  0
 18 13  1  0  0  0  0
 19 14  1  0  0  0  0
 20  2  1  0  0  0  0
 21 20  1  0  0  0  0
 22 21  1  0  0  0  0
M  END
>  <minimizedAffinity>
-4.05624342

$$$$

 OpenBabel03272509123D

 22 23  0  0  0  0  0  0  0  0999 V2000
   35.1760   25.5850   30.8750 C   0  0  0  0  0  0  0  0  0  0  0  0
   35.9820   26.3150   31.8240 C   0  0  0  0  0  0  0  0  0  0  0  0
   36.8330   25.5110   32.5950 C   0  0  0  0  0  0  0  0  0  0  0  0
   36.8680   24.1490   32.4410 N   0  0  0  0  0  0  0  0  0  0  0  0
   36.0730   23.5280   31.5230 C   0  0  0  0  0  0  0  0  0  0  0  0
   35.2390   24.2400   30.7500 N   0  0  0  0  0  0  0  0  0  0  0  0
   34.4880   26.0490   30.2190 H   0  0  0  0  0  0  0  0  0  0  0  0
   36.1220   22.4650   31.4260 H   0  0  0  0  0  0  0  0  0  0  0  0
   37.7230   26.0840   33.5800 C   0  0  0  0  0  0  0  0  0  0  0  0
   38.9900   26.4040   33.1920 C   0  0  0  0  0  0  0  0  0  0  0  0
   39.9280   26.9700   34.0540 C   0  0  0  0  0  0  0  0  0  0  0  0
   39.5050   27.1950   35.3670 C   0  0  0  0  0  0  0  0  0  0  0  0
   38.2170   26.8880   35.8400 C   0  0  0  0  0  0  0  0  0  0  0  0
   37.3570   26.3290   34.8990 C   0  0  0  0  0  0  0  0  0  0  0  0
   39.5240   26.2730   32.2690 H   0  0  0  0  0  0  0  0  0  0  0  0
   40.9390   27.2640   33.8710 H   0  0  0  0  0  0  0  0  0  0  0  0
   40.1410   27.6330   36.1520 H   0  0  0  0  0  0  0  0  0  0  0  0
   37.9300   27.0720   36.8590 H   0  0  0  0  0  0  0  0  0  0  0  0
   36.3530   26.0730   35.2110 H   0  0  0  0  0  0  0  0  0  0  0  0
   35.7470   27.7540   31.8860 C   0  0  0  0  0  2  0  0  0  0  0  0
   36.6320   28.4830   30.8610 C   0  0  0  0  0  2  0  0  0  0  0  0
   37.6130   28.7840   31.3220 H   0  0  0  0  0  0  0  0  0  0  0  0
  1  2  1  0  0  0  0
  2 20  1  0  0  0  0
  2  3  2  0  0  0  0
  3  9  1  0  0  0  0
  4  3  1  0  0  0  0
  5  4  2  0  0  0  0
  6  1  2  0  0  0  0
  6  5  1  0  0  0  0
  7  1  1  0  0  0  0
  8  5  1  0  0  0  0
  9 14  1  0  0  0  0
 10  9  2  0  0  0  0
 10 11  1  0  0  0  0
 11 12  2  0  0  0  0
 12 13  1  0  0  0  0
 12 17  1  0  0  0  0
 13 18  1  0  0  0  0
 14 19  1  0  0  0  0
 14 13  2  0  0  0  0
 15 10  1  0  0  0  0
 16 11  1  0  0  0  0
 21 22  1  0  0  0  0
 21 20  1  0  0  0  0
M  END
>  <minimizedAffinity>
-4.05093241

$$$$

 OpenBabel03272509123D

 22 23  0  0  0  0  0  0  0  0999 V2000
   37.3630   23.1500   32.4480 C   0  0  0  0  0  0  0  0  0  0  0  0
   37.5840   22.8200   33.8360 C   0  0  0  0  0  0  0  0  0  0  0  0
   38.2710   23.8070   34.5580 C   0  0  0  0  0  0  0  0  0  0  0  0
   38.6880   24.9710   33.9650 N   0  0  0  0  0  0  0  0  0  0  0  0
   38.4440   25.2110   32.6460 C   0  0  0  0  0  0  0  0  0  0  0  0
   37.7880   24.3090   31.8980 N   0  0  0  0  0  0  0  0  0  0  0  0
   36.8560   22.5100   31.7740 H   0  0  0  0  0  0  0  0  0  0  0  0
   38.7810   26.1260   32.2110 H   0  0  0  0  0  0  0  0  0  0  0  0
   38.5580   23.6470   35.9660 C   0  0  0  0  0  0  0  0  0  0  0  0
   37.7080   24.2190   36.8650 C   0  0  0  0  0  0  0  0  0  0  0  0
   37.8830   24.1210   38.2440 C   0  0  0  0  0  0  0  0  0  0  0  0
   38.9970   23.3960   38.6760 C   0  0  0  0  0  0  0  0  0  0  0  0
   39.9200   22.7830   37.8100 C   0  0  0  0  0  0  0  0  0  0  0  0
   39.6520   22.9390   36.4530 C   0  0  0  0  0  0  0  0  0  0  0  0
   36.8410   24.8430   36.7520 H   0  0  0  0  0  0  0  0  0  0  0  0
   37.2920   24.5170   39.0410 H   0  0  0  0  0  0  0  0  0  0  0  0
   39.2580   23.2410   39.7350 H   0  0  0  0  0  0  0  0  0  0  0  0
   40.7670   22.2370   38.1810 H   0  0  0  0  0  0  0  0  0  0  0  0
   40.3300   22.4860   35.7420 H   0  0  0  0  0  0  0  0  0  0  0  0
   37.1270   21.5010   34.2600 C   0  0  0  0  0  2  0  0  0  0  0  0
   35.9910   21.0120   33.3470 C   0  0  0  0  0  2  0  0  0  0  0  0
   34.9890   21.3150   33.7570 H   0  0  0  0  0  0  0  0  0  0  0  0
  1  2  1  0  0  0  0
  2 20  1  0  0  0  0
  2  3  2  0  0  0  0
  3  9  1  0  0  0  0
  4  3  1  0  0  0  0
  5  4  2  0  0  0  0
  6  1  2  0  0  0  0
  6  5  1  0  0  0  0
  7  1  1  0  0  0  0
  8  5  1  0  0  0  0
  9 14  2  0  0  0  0
  9 10  1  0  0  0  0
 10 11  2  0  0  0  0
 11 12  1  0  0  0  0
 11 16  1  0  0  0  0
 12 17  1  0  0  0  0
 13 18  1  0  0  0  0
 13 12  2  0  0  0  0
 14 13  1  0  0  0  0
 15 10  1  0  0  0  0
 19 14  1  0  0  0  0
 21 22  1  0  0  0  0
 21 20  1  0  0  0  0
M  END
>  <minimizedAffinity>
-4.04604483

$$$$

 OpenBabel03272509123D

 22 23  0  0  0  0  0  0  0  0999 V2000
   41.0780   22.9380   36.4630 C   0  0  0  0  0  0  0  0  0  0  0  0
   40.4830   23.9660   35.6440 C   0  0  0  0  0  0  0  0  0  0  0  0
   39.2210   24.3930   36.0830 C   0  0  0  0  0  0  0  0  0  0  0  0
   38.6290   23.8540   37.1960 N   0  0  0  0  0  0  0  0  0  0  0  0
   39.2530   22.8810   37.9190 C   0  0  0  0  0  0  0  0  0  0  0  0
   40.4640   22.4300   37.5550 N   0  0  0  0  0  0  0  0  0  0  0  0
   42.0280   22.5150   36.2640 H   0  0  0  0  0  0  0  0  0  0  0  0
   38.7660   22.4790   38.7810 H   0  0  0  0  0  0  0  0  0  0  0  0
   38.4940   25.4320   35.3900 C   0  0  0  0  0  0  0  0  0  0  0  0
   38.4430   26.6700   35.9570 C   0  0  0  0  0  0  0  0  0  0  0  0
   37.7790   27.7470   35.3720 C   0  0  0  0  0  0  0  0  0  0  0  0
   37.1470   27.4950   34.1510 C   0  0  0  0  0  0  0  0  0  0  0  0
   37.1520   26.2440   33.5080 C   0  0  0  0  0  0  0  0  0  0  0  0
   37.8450   25.2370   34.1750 C   0  0  0  0  0  0  0  0  0  0  0  0
   38.8090   27.0590   36.8890 H   0  0  0  0  0  0  0  0  0  0  0  0
   37.6720   28.7540   35.7120 H   0  0  0  0  0  0  0  0  0  0  0  0
   36.5850   28.2510   33.5810 H   0  0  0  0  0  0  0  0  0  0  0  0
   36.6500   26.0880   32.5710 H   0  0  0  0  0  0  0  0  0  0  0  0
   37.8800   24.2550   33.7240 H   0  0  0  0  0  0  0  0  0  0  0  0
   41.2400   24.3580   34.4600 C   0  0  0  0  0  2  0  0  0  0  0  0
   42.5500   25.0500   34.8710 C   0  0  0  0  0  2  0  0  0  0  0  0
   42.4060   26.1620   34.9510 H   0  0  0  0  0  0  0  0  0  0  0  0
  1  6  1  0  0  0  0
  2  3  1  0  0  0  0
  2  1  2  0  0  0  0
  3  4  2  0  0  0  0
  4  5  1  0  0  0  0
  5  8  1  0  0  0  0
  6  5  2  0  0  0  0
  7  1  1  0  0  0  0
  9 10  1  0  0  0  0
  9  3  1  0  0  0  0
 10 15  1  0  0  0  0
 11 16  1  0  0  0  0
 11 10  2  0  0  0  0
 12 11  1  0  0  0  0
 13 12  2  0  0  0  0
 13 14  1  0  0  0  0
 14  9  2  0  0  0  0
 17 12  1  0  0  0  0
 18 13  1  0  0  0  0
 19 14  1  0  0  0  0
 20 21  1  0  0  0  0
 20  2  1  0  0  0  0
 21 22  1  0  0  0  0
M  END
>  <minimizedAffinity>
-4.03124189

$$$$

 OpenBabel03272509123D

 22 23  0  0  0  0  0  0  0  0999 V2000
   38.4850   24.8680   33.7540 C   0  0  0  0  0  0  0  0  0  0  0  0
   38.1700   26.2760   33.7750 C   0  0  0  0  0  0  0  0  0  0  0  0
   37.1030   26.6390   32.9400 C   0  0  0  0  0  0  0  0  0  0  0  0
   36.4410   25.7100   32.1780 N   0  0  0  0  0  0  0  0  0  0  0  0
   36.7990   24.3950   32.2090 C   0  0  0  0  0  0  0  0  0  0  0  0
   37.8090   23.9810   32.9900 N   0  0  0  0  0  0  0  0  0  0  0  0
   39.2610   24.4390   34.3330 H   0  0  0  0  0  0  0  0  0  0  0  0
   36.2660   23.6950   31.6030 H   0  0  0  0  0  0  0  0  0  0  0  0
   36.6420   28.0060   32.8570 C   0  0  0  0  0  0  0  0  0  0  0  0
   36.9140   28.7080   31.7200 C   0  0  0  0  0  0  0  0  0  0  0  0
   36.5100   30.0280   31.5280 C   0  0  0  0  0  0  0  0  0  0  0  0
   35.8020   30.6180   32.5790 C   0  0  0  0  0  0  0  0  0  0  0  0
   35.4900   29.9590   33.7820 C   0  0  0  0  0  0  0  0  0  0  0  0
   35.9360   28.6440   33.8710 C   0  0  0  0  0  0  0  0  0  0  0  0
   37.4710   28.4700   30.8330 H   0  0  0  0  0  0  0  0  0  0  0  0
   36.6570   30.6760   30.6910 H   0  0  0  0  0  0  0  0  0  0  0  0
   35.4260   31.6530   32.5640 H   0  0  0  0  0  0  0  0  0  0  0  0
   34.9470   30.4490   34.5690 H   0  0  0  0  0  0  0  0  0  0  0  0
   35.7220   28.0910   34.7760 H   0  0  0  0  0  0  0  0  0  0  0  0
   39.0360   27.1130   34.5980 C   0  0  0  0  0  2  0  0  0  0  0  0
   38.5010   27.1800   36.0380 C   0  0  0  0  0  2  0  0  0  0  0  0
   37.8040   28.0540   36.1650 H   0  0  0  0  0  0  0  0  0  0  0  0
  1  2  1  0  0  0  0
  1  7  1  0  0  0  0
  2 20  1  0  0  0  0
  3  2  2  0  0  0  0
  4  5  2  0  0  0  0
  4  3  1  0  0  0  0
  5  6  1  0  0  0  0
  6  1  2  0  0  0  0
  8  5  1  0  0  0  0
  9  3  1  0  0  0  0
  9 14  1  0  0  0  0
 10  9  2  0  0  0  0
 11 10  1  0  0  0  0
 11 12  2  0  0  0  0
 12 13  1  0  0  0  0
 13 14  2  0  0  0  0
 13 18  1  0  0  0  0
 14 19  1  0  0  0  0
 15 10  1  0  0  0  0
 16 11  1  0  0  0  0
 17 12  1  0  0  0  0
 20 21  1  0  0  0  0
 21 22  1  0  0  0  0
M  END
>  <minimizedAffinity>
-4.01148605

$$$$
