
 OpenBabel03272509503D

 27 28  0  0  0  0  0  0  0  0999 V2000
   33.7940   28.5810   48.6430 C   0  0  0  0  0  0  0  0  0  0  0  0
   34.4040   28.8330   47.7340 H   0  0  0  0  0  0  0  0  0  0  0  0
   33.1770   29.4410   48.9880 H   0  0  0  0  0  0  0  0  0  0  0  0
   32.8660   27.4370   48.3260 C   0  0  0  0  0  0  0  0  0  0  0  0
   33.1790   26.9700   47.3520 H   0  0  0  0  0  0  0  0  0  0  0  0
   32.9730   26.6460   49.1060 H   0  0  0  0  0  0  0  0  0  0  0  0
   31.4490   27.8610   48.2640 C   0  0  0  0  0  0  0  0  0  0  0  0
   30.6940   27.7070   49.4120 C   0  0  0  0  0  0  0  0  0  0  0  0
   29.3690   28.0700   49.4540 C   0  0  0  0  0  0  0  0  0  0  0  0
   28.7720   28.5880   48.3720 N   0  0  0  0  0  0  0  0  0  0  0  0
   29.5260   28.7360   47.2470 C   0  0  0  0  0  0  0  0  0  0  0  0
   30.8180   28.3880   47.1840 N   0  0  0  0  0  0  0  0  0  0  0  0
   31.0590   27.3010   50.3490 H   0  0  0  0  0  0  0  0  0  0  0  0
   28.7350   27.9700   50.3250 H   0  0  0  0  0  0  0  0  0  0  0  0
   29.2080   29.1360   46.2850 H   0  0  0  0  0  0  0  0  0  0  0  0
   34.6370   28.2270   49.7320 O   0  0  0  0  0  0  0  0  0  0  0  0
   37.2560   30.1780   51.3070 C   0  0  0  0  0  0  0  0  0  0  0  0
   37.9310   30.6480   50.1570 C   0  0  0  0  0  0  0  0  0  0  0  0
   37.4360   30.2600   48.9180 C   0  0  0  0  0  0  0  0  0  0  0  0
   36.3360   29.4540   48.8810 N   0  0  0  0  0  0  0  0  0  0  0  0
   35.7200   29.0260   50.0000 C   0  0  0  0  0  0  0  0  0  0  0  0
   36.1940   29.3970   51.2000 N   0  0  0  0  0  0  0  0  0  0  0  0
   37.6660   30.4970   52.2560 H   0  0  0  0  0  0  0  0  0  0  0  0
   38.8090   31.2910   50.1550 H   0  0  0  0  0  0  0  0  0  0  0  0
   38.0880   30.7120   47.6390 C   0  0  0  0  0  2  0  0  0  0  0  0
   38.7750   32.0440   47.7940 C   0  0  0  0  0  2  0  0  0  0  0  0
   38.1310   32.8950   47.5080 H   0  0  0  0  0  0  0  0  0  0  0  0
  1  3  1  0  0  0  0
  1 16  1  0  0  0  0
  2  1  1  0  0  0  0
  4  1  1  0  0  0  0
  4  6  1  0  0  0  0
  5  4  1  0  0  0  0
  7  4  1  0  0  0  0
  7  8  1  0  0  0  0
  8  9  2  0  0  0  0
  8 13  1  0  0  0  0
  9 14  1  0  0  0  0
 10  9  1  0  0  0  0
 11 10  2  0  0  0  0
 12 11  1  0  0  0  0
 12  7  2  0  0  0  0
 15 11  1  0  0  0  0
 16 21  1  0  0  0  0
 17 23  1  0  0  0  0
 18 17  2  0  0  0  0
 19 18  1  0  0  0  0
 20 19  2  0  0  0  0
 20 21  1  0  0  0  0
 21 22  2  0  0  0  0
 22 17  1  0  0  0  0
 24 18  1  0  0  0  0
 25 26  1  0  0  0  0
 25 19  1  0  0  0  0
 27 26  1  0  0  0  0
M  END
>  <minimizedAffinity>
-4.97390032

>  <minimizedRMSD>
0.347438693

$$$$
