
 OpenBabel03272506043D

 32 34  0  0  0  0  0  0  0  0999 V2000
   37.2150   30.4960   44.3460 Cl  0  0  0  0  0  0  0  0  0  0  0  0
   38.2920   31.5830   45.1590 C   0  0  0  0  0  0  0  0  0  0  0  0
   38.2770   31.6510   46.5130 C   0  0  0  0  0  0  0  0  0  0  0  0
   39.1750   32.5490   47.0930 C   0  0  0  0  0  0  0  0  0  0  0  0
   40.0260   33.3200   46.3180 C   0  0  0  0  0  0  0  0  0  0  0  0
   40.0020   33.2130   44.9310 C   0  0  0  0  0  0  0  0  0  0  0  0
   39.1090   32.3170   44.3430 C   0  0  0  0  0  0  0  0  0  0  0  0
   39.1840   32.6250   48.1710 H   0  0  0  0  0  0  0  0  0  0  0  0
   40.6820   33.9830   46.8500 H   0  0  0  0  0  0  0  0  0  0  0  0
   40.6790   33.8290   44.3510 H   0  0  0  0  0  0  0  0  0  0  0  0
   40.8920   30.2330   43.2740 Cl  0  0  0  0  0  0  0  0  0  0  0  0
   39.9640   31.3340   42.2910 C   0  0  0  0  0  0  0  0  0  0  0  0
   39.1570   32.2760   42.9080 C   0  0  0  0  0  0  0  0  0  0  0  0
   38.4220   33.1470   42.1260 C   0  0  0  0  0  0  0  0  0  0  0  0
   38.5100   33.0580   40.7330 C   0  0  0  0  0  0  0  0  0  0  0  0
   39.3320   32.0980   40.1490 C   0  0  0  0  0  0  0  0  0  0  0  0
   39.4210   32.0120   38.3900 Cl  0  0  0  0  0  0  0  0  0  0  0  0
   40.0610   31.2330   40.9080 C   0  0  0  0  0  0  0  0  0  0  0  0
   37.7850   33.8930   42.5770 H   0  0  0  0  0  0  0  0  0  0  0  0
   37.9100   33.7690   40.1570 H   0  0  0  0  0  0  0  0  0  0  0  0
   40.7070   30.4790   40.4410 H   0  0  0  0  0  0  0  0  0  0  0  0
   37.8330   30.3580   48.6040 C   0  0  0  0  0  0  0  0  0  0  0  0
   37.3960   30.8560   47.3700 C   0  0  0  0  0  0  0  0  0  0  0  0
   36.0850   30.5680   46.9790 C   0  0  0  0  0  0  0  0  0  0  0  0
   35.3120   29.8210   47.8230 N   0  0  0  0  0  0  0  0  0  0  0  0
   35.7660   29.3590   49.0030 C   0  0  0  0  0  0  0  0  0  0  0  0
   37.0260   29.6330   49.3820 N   0  0  0  0  0  0  0  0  0  0  0  0
   38.8460   30.6030   48.8630 H   0  0  0  0  0  0  0  0  0  0  0  0
   35.6980   30.9280   46.0350 H   0  0  0  0  0  0  0  0  0  0  0  0
   34.8800   28.5470   49.8850 C   0  0  0  0  0  0  0  0  0  0  0  0
   33.6240   28.2540   49.0560 C   0  0  0  0  0  0  0  0  0  0  0  0
   33.1570   27.2970   49.3700 H   0  0  0  0  0  0  0  0  0  0  0  0
  1  2  1  0  0  0  0
  2  3  1  0  0  0  0
  3  4  2  0  0  0  0
  3 23  1  0  0  0  0
  4  8  1  0  0  0  0
  5  9  1  0  0  0  0
  5  4  1  0  0  0  0
  6  5  2  0  0  0  0
  7  6  1  0  0  0  0
  7  2  2  0  0  0  0
 10  6  1  0  0  0  0
 12 13  1  0  0  0  0
 12 11  1  0  0  0  0
 13  7  1  0  0  0  0
 14 19  1  0  0  0  0
 14 13  2  0  0  0  0
 15 14  1  0  0  0  0
 16 15  2  0  0  0  0
 16 18  1  0  0  0  0
 17 16  1  0  0  0  0
 18 12  2  0  0  0  0
 20 15  1  0  0  0  0
 21 18  1  0  0  0  0
 22 28  1  0  0  0  0
 22 27  1  0  0  0  0
 23 22  2  0  0  0  0
 24 23  1  0  0  0  0
 24 25  2  0  0  0  0
 25 26  1  0  0  0  0
 26 27  2  0  0  0  0
 26 30  1  0  0  0  0
 29 24  1  0  0  0  0
 31 32  1  0  0  0  0
 31 30  1  0  0  0  0
M  END
>  <minimizedAffinity>
-6.0647583

>  <minimizedRMSD>
2.34112191

$$$$
