
 OpenBabel03262521043D

 22 23  0  0  0  0  0  0  0  0999 V2000
   38.6350   32.4830   49.1010 Br  0  0  0  0  0  0  0  0  0  0  0  0
   38.0920   31.8540   47.3940 C   0  0  0  0  0  0  0  0  0  0  0  0
   37.0870   30.9250   47.3810 C   0  0  0  0  0  0  0  0  0  0  0  0
   36.6290   30.4200   46.1570 C   0  0  0  0  0  0  0  0  0  0  0  0
   37.2040   30.8700   44.9760 C   0  0  0  0  0  0  0  0  0  0  0  0
   38.1980   31.7930   45.0490 C   0  0  0  0  0  0  0  0  0  0  0  0
   38.6620   32.3020   46.2350 C   0  0  0  0  0  0  0  0  0  0  0  0
   35.8520   29.7000   46.0660 H   0  0  0  0  0  0  0  0  0  0  0  0
   36.8860   30.5130   44.0010 H   0  0  0  0  0  0  0  0  0  0  0  0
   38.6520   32.1500   44.1380 H   0  0  0  0  0  0  0  0  0  0  0  0
   37.0010   29.5460   49.5100 C   0  0  0  0  0  0  0  0  0  0  0  0
   36.3870   30.3530   48.5310 C   0  0  0  0  0  0  0  0  0  0  0  0
   35.0180   30.6160   48.6790 C   0  0  0  0  0  0  0  0  0  0  0  0
   34.3660   30.0710   49.7630 N   0  0  0  0  0  0  0  0  0  0  0  0
   34.9960   29.3110   50.6630 C   0  0  0  0  0  0  0  0  0  0  0  0
   36.3150   29.0440   50.5410 N   0  0  0  0  0  0  0  0  0  0  0  0
   38.0520   29.4170   49.2850 H   0  0  0  0  0  0  0  0  0  0  0  0
   34.4720   31.2380   47.9560 H   0  0  0  0  0  0  0  0  0  0  0  0
   34.5250   28.8750   51.5090 H   0  0  0  0  0  0  0  0  0  0  0  0
   39.7690   33.3110   46.2580 C   0  0  0  0  0  0  0  0  0  0  0  0
   40.1320   33.6470   44.8230 C   0  0  0  0  0  0  0  0  0  0  0  0
   39.4420   34.4340   44.4100 H   0  0  0  0  0  0  0  0  0  0  0  0
  2  1  1  0  0  0  0
  3  2  1  0  0  0  0
  3 12  1  0  0  0  0
  4  3  2  0  0  0  0
  5  6  2  0  0  0  0
  5  4  1  0  0  0  0
  6  7  1  0  0  0  0
  7 20  1  0  0  0  0
  7  2  2  0  0  0  0
  8  4  1  0  0  0  0
  9  5  1  0  0  0  0
 10  6  1  0  0  0  0
 11 16  1  0  0  0  0
 12 13  1  0  0  0  0
 12 11  2  0  0  0  0
 13 14  2  0  0  0  0
 14 15  1  0  0  0  0
 15 19  1  0  0  0  0
 16 15  2  0  0  0  0
 17 11  1  0  0  0  0
 18 13  1  0  0  0  0
 21 20  1  0  0  0  0
 22 21  1  0  0  0  0
M  END
>  <minimizedAffinity>
-4.96320343

>  <minimizedRMSD>
1.38086045

$$$$
