
 OpenBabel03272509493D

 27 28  0  0  0  0  0  0  0  0999 V2000
   33.8070   28.6700   48.7350 C   0  0  0  0  0  0  0  0  0  0  0  0
   34.3490   29.0430   47.8240 H   0  0  0  0  0  0  0  0  0  0  0  0
   33.1700   29.4550   49.1980 H   0  0  0  0  0  0  0  0  0  0  0  0
   32.9210   27.5120   48.3550 C   0  0  0  0  0  0  0  0  0  0  0  0
   33.2690   27.0900   47.3720 H   0  0  0  0  0  0  0  0  0  0  0  0
   33.0330   26.6960   49.1080 H   0  0  0  0  0  0  0  0  0  0  0  0
   31.4940   27.8970   48.2750 C   0  0  0  0  0  0  0  0  0  0  0  0
   30.7280   27.7200   49.4120 C   0  0  0  0  0  0  0  0  0  0  0  0
   29.3930   28.0480   49.4370 C   0  0  0  0  0  0  0  0  0  0  0  0
   28.7970   28.5510   48.3480 N   0  0  0  0  0  0  0  0  0  0  0  0
   29.5610   28.7220   47.2340 C   0  0  0  0  0  0  0  0  0  0  0  0
   30.8630   28.4100   47.1870 N   0  0  0  0  0  0  0  0  0  0  0  0
   31.0910   27.3220   50.3530 H   0  0  0  0  0  0  0  0  0  0  0  0
   28.7510   27.9290   50.2990 H   0  0  0  0  0  0  0  0  0  0  0  0
   29.2460   29.1160   46.2680 H   0  0  0  0  0  0  0  0  0  0  0  0
   34.7310   28.2580   49.7340 O   0  0  0  0  0  0  0  0  0  0  0  0
   37.2920   30.1600   51.4580 C   0  0  0  0  0  0  0  0  0  0  0  0
   37.7720   30.9450   50.3840 C   0  0  0  0  0  0  0  0  0  0  0  0
   37.1790   30.7640   49.1400 C   0  0  0  0  0  0  0  0  0  0  0  0
   36.1760   29.8470   49.0260 N   0  0  0  0  0  0  0  0  0  0  0  0
   35.7450   29.1170   50.0740 C   0  0  0  0  0  0  0  0  0  0  0  0
   36.3140   29.2870   51.2770 N   0  0  0  0  0  0  0  0  0  0  0  0
   37.7740   30.3240   52.4130 H   0  0  0  0  0  0  0  0  0  0  0  0
   38.5690   31.6830   50.4450 H   0  0  0  0  0  0  0  0  0  0  0  0
   37.6240   31.5550   47.9400 C   0  0  0  0  0  2  0  0  0  0  0  0
   38.3710   30.7050   46.9460 C   0  0  0  0  0  2  0  0  0  0  0  0
   39.4650   30.7310   47.0940 H   0  0  0  0  0  0  0  0  0  0  0  0
  1  3  1  0  0  0  0
  1 16  1  0  0  0  0
  2  1  1  0  0  0  0
  4  1  1  0  0  0  0
  4  6  1  0  0  0  0
  5  4  1  0  0  0  0
  7  4  1  0  0  0  0
  7  8  1  0  0  0  0
  8  9  2  0  0  0  0
  8 13  1  0  0  0  0
  9 14  1  0  0  0  0
 10  9  1  0  0  0  0
 11 10  2  0  0  0  0
 12 11  1  0  0  0  0
 12  7  2  0  0  0  0
 15 11  1  0  0  0  0
 16 21  1  0  0  0  0
 17 23  1  0  0  0  0
 18 24  1  0  0  0  0
 18 17  2  0  0  0  0
 19 18  1  0  0  0  0
 20 19  2  0  0  0  0
 20 21  1  0  0  0  0
 21 22  2  0  0  0  0
 22 17  1  0  0  0  0
 25 19  1  0  0  0  0
 26 27  1  0  0  0  0
 26 25  1  0  0  0  0
M  END
>  <minimizedAffinity>
-4.68841219

>  <minimizedRMSD>
0.4688465

$$$$
