
 OpenBabel03272509493D

 27 28  0  0  0  0  0  0  0  0999 V2000
   33.7270   28.6080   48.6940 C   0  0  0  0  0  0  0  0  0  0  0  0
   34.2960   28.9260   47.7800 H   0  0  0  0  0  0  0  0  0  0  0  0
   33.1070   29.4310   49.1130 H   0  0  0  0  0  0  0  0  0  0  0  0
   32.8110   27.4630   48.3440 C   0  0  0  0  0  0  0  0  0  0  0  0
   33.1010   27.0560   47.3360 H   0  0  0  0  0  0  0  0  0  0  0  0
   32.9570   26.6330   49.0760 H   0  0  0  0  0  0  0  0  0  0  0  0
   31.3850   27.8610   48.3490 C   0  0  0  0  0  0  0  0  0  0  0  0
   30.6990   27.7320   49.5420 C   0  0  0  0  0  0  0  0  0  0  0  0
   29.3710   28.0750   49.6480 C   0  0  0  0  0  0  0  0  0  0  0  0
   28.7060   28.5470   48.5850 N   0  0  0  0  0  0  0  0  0  0  0  0
   29.3920   28.6700   47.4150 C   0  0  0  0  0  0  0  0  0  0  0  0
   30.6850   28.3420   47.2900 N   0  0  0  0  0  0  0  0  0  0  0  0
   31.1230   27.3630   50.4690 H   0  0  0  0  0  0  0  0  0  0  0  0
   28.7900   27.9930   50.5560 H   0  0  0  0  0  0  0  0  0  0  0  0
   29.0130   29.0340   46.4600 H   0  0  0  0  0  0  0  0  0  0  0  0
   34.6190   28.2080   49.7270 O   0  0  0  0  0  0  0  0  0  0  0  0
   37.2190   30.1790   51.3100 C   0  0  0  0  0  0  0  0  0  0  0  0
   37.9060   30.6360   50.1620 C   0  0  0  0  0  0  0  0  0  0  0  0
   37.4250   30.2330   48.9220 C   0  0  0  0  0  0  0  0  0  0  0  0
   36.3270   29.4260   48.8820 N   0  0  0  0  0  0  0  0  0  0  0  0
   35.6980   29.0110   49.9990 C   0  0  0  0  0  0  0  0  0  0  0  0
   36.1580   29.3960   51.1990 N   0  0  0  0  0  0  0  0  0  0  0  0
   37.6180   30.5090   52.2590 H   0  0  0  0  0  0  0  0  0  0  0  0
   38.7830   31.2800   50.1620 H   0  0  0  0  0  0  0  0  0  0  0  0
   38.0920   30.6710   47.6460 C   0  0  0  0  0  2  0  0  0  0  0  0
   37.1100   30.8140   46.5120 C   0  0  0  0  0  2  0  0  0  0  0  0
   37.0280   29.8990   45.8960 H   0  0  0  0  0  0  0  0  0  0  0  0
  1  3  1  0  0  0  0
  1 16  1  0  0  0  0
  2  1  1  0  0  0  0
  4  7  1  0  0  0  0
  4  1  1  0  0  0  0
  4  6  1  0  0  0  0
  5  4  1  0  0  0  0
  7  8  1  0  0  0  0
  8  9  2  0  0  0  0
  8 13  1  0  0  0  0
  9 14  1  0  0  0  0
 10  9  1  0  0  0  0
 11 10  2  0  0  0  0
 12 11  1  0  0  0  0
 12  7  2  0  0  0  0
 15 11  1  0  0  0  0
 16 21  1  0  0  0  0
 17 23  1  0  0  0  0
 18 24  1  0  0  0  0
 18 17  2  0  0  0  0
 19 18  1  0  0  0  0
 20 19  2  0  0  0  0
 20 21  1  0  0  0  0
 21 22  2  0  0  0  0
 22 17  1  0  0  0  0
 25 19  1  0  0  0  0
 26 25  1  0  0  0  0
 27 26  1  0  0  0  0
M  END
>  <minimizedAffinity>
-4.86761951

>  <minimizedRMSD>
0.0916450322

$$$$
