
 OpenBabel03272509493D

 27 28  0  0  0  0  0  0  0  0999 V2000
   33.7910   28.6540   48.7470 C   0  0  0  0  0  0  0  0  0  0  0  0
   34.2740   29.0800   47.8270 H   0  0  0  0  0  0  0  0  0  0  0  0
   33.1700   29.4060   49.2840 H   0  0  0  0  0  0  0  0  0  0  0  0
   32.8990   27.5020   48.3600 C   0  0  0  0  0  0  0  0  0  0  0  0
   33.2460   27.0830   47.3760 H   0  0  0  0  0  0  0  0  0  0  0  0
   33.0070   26.6820   49.1100 H   0  0  0  0  0  0  0  0  0  0  0  0
   31.4740   27.8940   48.2800 C   0  0  0  0  0  0  0  0  0  0  0  0
   30.7080   27.7240   49.4190 C   0  0  0  0  0  0  0  0  0  0  0  0
   29.3750   28.0590   49.4440 C   0  0  0  0  0  0  0  0  0  0  0  0
   28.7810   28.5620   48.3540 N   0  0  0  0  0  0  0  0  0  0  0  0
   29.5450   28.7260   47.2390 C   0  0  0  0  0  0  0  0  0  0  0  0
   30.8450   28.4070   47.1920 N   0  0  0  0  0  0  0  0  0  0  0  0
   31.0700   27.3270   50.3610 H   0  0  0  0  0  0  0  0  0  0  0  0
   28.7330   27.9450   50.3070 H   0  0  0  0  0  0  0  0  0  0  0  0
   29.2310   29.1190   46.2720 H   0  0  0  0  0  0  0  0  0  0  0  0
   34.7750   28.2080   49.6710 O   0  0  0  0  0  0  0  0  0  0  0  0
   37.2680   30.1480   51.4520 C   0  0  0  0  0  0  0  0  0  0  0  0
   37.7560   30.9450   50.3910 C   0  0  0  0  0  0  0  0  0  0  0  0
   37.1910   30.7590   49.1350 C   0  0  0  0  0  0  0  0  0  0  0  0
   36.2070   29.8250   48.9970 N   0  0  0  0  0  0  0  0  0  0  0  0
   35.7680   29.0840   50.0340 C   0  0  0  0  0  0  0  0  0  0  0  0
   36.3090   29.2600   51.2490 N   0  0  0  0  0  0  0  0  0  0  0  0
   37.7280   30.3170   52.4170 H   0  0  0  0  0  0  0  0  0  0  0  0
   38.5380   31.6970   50.4700 H   0  0  0  0  0  0  0  0  0  0  0  0
   37.6470   31.5620   47.9470 C   0  0  0  0  0  2  0  0  0  0  0  0
   38.3670   30.7140   46.9310 C   0  0  0  0  0  2  0  0  0  0  0  0
   39.4630   30.7130   47.0720 H   0  0  0  0  0  0  0  0  0  0  0  0
  1  3  1  0  0  0  0
  1 16  1  0  0  0  0
  2  1  1  0  0  0  0
  4  1  1  0  0  0  0
  4  6  1  0  0  0  0
  5  4  1  0  0  0  0
  7  4  1  0  0  0  0
  7  8  1  0  0  0  0
  8  9  2  0  0  0  0
  8 13  1  0  0  0  0
  9 14  1  0  0  0  0
 10  9  1  0  0  0  0
 11 10  2  0  0  0  0
 12 11  1  0  0  0  0
 12  7  2  0  0  0  0
 15 11  1  0  0  0  0
 16 21  1  0  0  0  0
 17 23  1  0  0  0  0
 18 24  1  0  0  0  0
 18 17  2  0  0  0  0
 19 18  1  0  0  0  0
 20 19  2  0  0  0  0
 20 21  1  0  0  0  0
 21 22  2  0  0  0  0
 22 17  1  0  0  0  0
 25 19  1  0  0  0  0
 26 27  1  0  0  0  0
 26 25  1  0  0  0  0
M  END
>  <minimizedAffinity>
-4.68570805

>  <minimizedRMSD>
0.456216604

$$$$
