
 OpenBabel03272509493D

 27 28  0  0  0  0  0  0  0  0999 V2000
   33.7280   28.6070   48.6930 C   0  0  0  0  0  0  0  0  0  0  0  0
   34.2990   28.9240   47.7790 H   0  0  0  0  0  0  0  0  0  0  0  0
   33.1080   29.4310   49.1100 H   0  0  0  0  0  0  0  0  0  0  0  0
   32.8120   27.4620   48.3440 C   0  0  0  0  0  0  0  0  0  0  0  0
   33.1020   27.0540   47.3360 H   0  0  0  0  0  0  0  0  0  0  0  0
   32.9580   26.6330   49.0760 H   0  0  0  0  0  0  0  0  0  0  0  0
   31.3870   27.8610   48.3480 C   0  0  0  0  0  0  0  0  0  0  0  0
   30.6990   27.7310   49.5410 C   0  0  0  0  0  0  0  0  0  0  0  0
   29.3720   28.0750   49.6470 C   0  0  0  0  0  0  0  0  0  0  0  0
   28.7070   28.5470   48.5840 N   0  0  0  0  0  0  0  0  0  0  0  0
   29.3940   28.6710   47.4140 C   0  0  0  0  0  0  0  0  0  0  0  0
   30.6870   28.3430   47.2900 N   0  0  0  0  0  0  0  0  0  0  0  0
   31.1230   27.3620   50.4680 H   0  0  0  0  0  0  0  0  0  0  0  0
   28.7900   27.9920   50.5540 H   0  0  0  0  0  0  0  0  0  0  0  0
   29.0160   29.0360   46.4590 H   0  0  0  0  0  0  0  0  0  0  0  0
   34.6190   28.2090   49.7270 O   0  0  0  0  0  0  0  0  0  0  0  0
   37.2190   30.1790   51.3090 C   0  0  0  0  0  0  0  0  0  0  0  0
   37.9060   30.6370   50.1610 C   0  0  0  0  0  0  0  0  0  0  0  0
   37.4250   30.2340   48.9210 C   0  0  0  0  0  0  0  0  0  0  0  0
   36.3270   29.4270   48.8820 N   0  0  0  0  0  0  0  0  0  0  0  0
   35.6980   29.0110   49.9990 C   0  0  0  0  0  0  0  0  0  0  0  0
   36.1590   29.3970   51.1990 N   0  0  0  0  0  0  0  0  0  0  0  0
   37.6180   30.5100   52.2590 H   0  0  0  0  0  0  0  0  0  0  0  0
   38.7840   31.2800   50.1620 H   0  0  0  0  0  0  0  0  0  0  0  0
   38.0920   30.6710   47.6450 C   0  0  0  0  0  2  0  0  0  0  0  0
   37.1090   30.8140   46.5120 C   0  0  0  0  0  2  0  0  0  0  0  0
   37.0270   29.8990   45.8970 H   0  0  0  0  0  0  0  0  0  0  0  0
  1  3  1  0  0  0  0
  1 16  1  0  0  0  0
  2  1  1  0  0  0  0
  4  7  1  0  0  0  0
  4  1  1  0  0  0  0
  4  6  1  0  0  0  0
  5  4  1  0  0  0  0
  7  8  1  0  0  0  0
  8  9  2  0  0  0  0
  8 13  1  0  0  0  0
  9 14  1  0  0  0  0
 10  9  1  0  0  0  0
 11 10  2  0  0  0  0
 12 11  1  0  0  0  0
 12  7  2  0  0  0  0
 15 11  1  0  0  0  0
 16 21  1  0  0  0  0
 17 23  1  0  0  0  0
 18 24  1  0  0  0  0
 18 17  2  0  0  0  0
 19 18  1  0  0  0  0
 20 19  2  0  0  0  0
 20 21  1  0  0  0  0
 21 22  2  0  0  0  0
 22 17  1  0  0  0  0
 25 19  1  0  0  0  0
 26 25  1  0  0  0  0
 27 26  1  0  0  0  0
M  END
>  <minimizedAffinity>
-4.86785555

>  <minimizedRMSD>
0.171651199

$$$$
