
 OpenBabel03272509493D

 27 28  0  0  0  0  0  0  0  0999 V2000
   33.8280   28.6490   48.6930 C   0  0  0  0  0  0  0  0  0  0  0  0
   34.4350   28.9690   47.8050 H   0  0  0  0  0  0  0  0  0  0  0  0
   33.1720   29.4630   49.0730 H   0  0  0  0  0  0  0  0  0  0  0  0
   32.9520   27.4830   48.3120 C   0  0  0  0  0  0  0  0  0  0  0  0
   33.3230   27.0460   47.3440 H   0  0  0  0  0  0  0  0  0  0  0  0
   33.0490   26.6790   49.0800 H   0  0  0  0  0  0  0  0  0  0  0  0
   31.5270   27.8630   48.1940 C   0  0  0  0  0  0  0  0  0  0  0  0
   30.7200   27.6390   49.2940 C   0  0  0  0  0  0  0  0  0  0  0  0
   29.3830   27.9580   49.2820 C   0  0  0  0  0  0  0  0  0  0  0  0
   28.8250   28.5000   48.1920 N   0  0  0  0  0  0  0  0  0  0  0  0
   29.6280   28.7180   47.1140 C   0  0  0  0  0  0  0  0  0  0  0  0
   30.9330   28.4150   47.1040 N   0  0  0  0  0  0  0  0  0  0  0  0
   31.0510   27.2060   50.2320 H   0  0  0  0  0  0  0  0  0  0  0  0
   28.7100   27.8020   50.1140 H   0  0  0  0  0  0  0  0  0  0  0  0
   29.3460   29.1480   46.1530 H   0  0  0  0  0  0  0  0  0  0  0  0
   34.6760   28.2770   49.7730 O   0  0  0  0  0  0  0  0  0  0  0  0
   37.3210   30.1950   51.3450 C   0  0  0  0  0  0  0  0  0  0  0  0
   37.9950   30.6640   50.1940 C   0  0  0  0  0  0  0  0  0  0  0  0
   37.4900   30.2870   48.9560 C   0  0  0  0  0  0  0  0  0  0  0  0
   36.3820   29.4920   48.9200 N   0  0  0  0  0  0  0  0  0  0  0  0
   35.7670   29.0640   50.0400 C   0  0  0  0  0  0  0  0  0  0  0  0
   36.2510   29.4250   51.2390 N   0  0  0  0  0  0  0  0  0  0  0  0
   37.7390   30.5050   52.2940 H   0  0  0  0  0  0  0  0  0  0  0  0
   38.8790   31.2990   50.1910 H   0  0  0  0  0  0  0  0  0  0  0  0
   38.1410   30.7390   47.6760 C   0  0  0  0  0  2  0  0  0  0  0  0
   37.1550   30.8360   46.5410 C   0  0  0  0  0  2  0  0  0  0  0  0
   37.1080   29.9140   45.9330 H   0  0  0  0  0  0  0  0  0  0  0  0
  1  3  1  0  0  0  0
  1 16  1  0  0  0  0
  2  1  1  0  0  0  0
  4  1  1  0  0  0  0
  4  6  1  0  0  0  0
  5  4  1  0  0  0  0
  7  4  1  0  0  0  0
  7  8  1  0  0  0  0
  8 13  1  0  0  0  0
  9  8  2  0  0  0  0
  9 14  1  0  0  0  0
 10  9  1  0  0  0  0
 11 10  2  0  0  0  0
 12 11  1  0  0  0  0
 12  7  2  0  0  0  0
 15 11  1  0  0  0  0
 16 21  1  0  0  0  0
 17 23  1  0  0  0  0
 18 17  2  0  0  0  0
 19 18  1  0  0  0  0
 20 19  2  0  0  0  0
 20 21  1  0  0  0  0
 21 22  2  0  0  0  0
 22 17  1  0  0  0  0
 24 18  1  0  0  0  0
 25 19  1  0  0  0  0
 26 25  1  0  0  0  0
 27 26  1  0  0  0  0
M  END
>  <minimizedAffinity>
-4.86362171

>  <minimizedRMSD>
0.336364299

$$$$
