
 OpenBabel03272502193D

 22 23  0  0  0  0  0  0  0  0999 V2000
   38.4070   32.5640   48.4030 C   0  0  0  0  0  0  0  0  0  0  0  0
   39.2060   32.3630   47.2590 C   0  0  0  0  0  0  0  0  0  0  0  0
   38.8820   31.3020   46.4140 C   0  0  0  0  0  0  0  0  0  0  0  0
   37.8140   30.5100   46.7300 N   0  0  0  0  0  0  0  0  0  0  0  0
   37.0740   30.7410   47.8410 C   0  0  0  0  0  0  0  0  0  0  0  0
   37.3620   31.7670   48.6860 N   0  0  0  0  0  0  0  0  0  0  0  0
   40.0210   33.0080   47.0660 H   0  0  0  0  0  0  0  0  0  0  0  0
   39.4700   31.1140   45.5260 H   0  0  0  0  0  0  0  0  0  0  0  0
   37.3580   29.3260   50.6330 Br  0  0  0  0  0  0  0  0  0  0  0  0
   35.9020   29.2090   49.3850 C   0  0  0  0  0  0  0  0  0  0  0  0
   35.9260   29.8970   48.1880 C   0  0  0  0  0  0  0  0  0  0  0  0
   34.8410   29.7520   47.3600 C   0  0  0  0  0  0  0  0  0  0  0  0
   33.7460   28.9710   47.6500 C   0  0  0  0  0  0  0  0  0  0  0  0
   33.7630   28.2960   48.8650 C   0  0  0  0  0  0  0  0  0  0  0  0
   34.8360   28.4200   49.7190 C   0  0  0  0  0  0  0  0  0  0  0  0
   34.9050   30.3160   46.4250 H   0  0  0  0  0  0  0  0  0  0  0  0
   32.9110   28.8840   46.9680 H   0  0  0  0  0  0  0  0  0  0  0  0
   32.9140   27.6750   49.1170 H   0  0  0  0  0  0  0  0  0  0  0  0
   34.7970   27.8750   50.6460 H   0  0  0  0  0  0  0  0  0  0  0  0
   38.6660   33.6590   49.3630 C   0  0  0  0  0  0  0  0  0  0  0  0
   39.8050   34.5410   49.0050 C   0  0  0  0  0  0  0  0  0  0  0  0
   39.6180   35.5070   49.5620 H   0  0  0  0  0  0  0  0  0  0  0  0
  1  6  1  0  0  0  0
  1 20  1  0  0  0  0
  2  1  2  0  0  0  0
  3  4  2  0  0  0  0
  3  2  1  0  0  0  0
  4  5  1  0  0  0  0
  5 11  1  0  0  0  0
  5  6  2  0  0  0  0
  7  2  1  0  0  0  0
  8  3  1  0  0  0  0
 10 15  1  0  0  0  0
 10  9  1  0  0  0  0
 11 10  2  0  0  0  0
 12 13  2  0  0  0  0
 12 11  1  0  0  0  0
 13 14  1  0  0  0  0
 14 18  1  0  0  0  0
 14 15  2  0  0  0  0
 15 19  1  0  0  0  0
 16 12  1  0  0  0  0
 17 13  1  0  0  0  0
 21 20  1  0  0  0  0
 21 22  1  0  0  0  0
M  END
>  <minimizedAffinity>
-5.76604271

>  <minimizedRMSD>
1.05484033

$$$$
