
 OpenBabel03272509503D

 27 28  0  0  0  0  0  0  0  0999 V2000
   33.9170   28.5570   48.5740 C   0  0  0  0  0  0  0  0  0  0  0  0
   34.5920   28.7260   47.6930 H   0  0  0  0  0  0  0  0  0  0  0  0
   33.3000   29.4520   48.8110 H   0  0  0  0  0  0  0  0  0  0  0  0
   32.9840   27.4100   48.2820 C   0  0  0  0  0  0  0  0  0  0  0  0
   33.3240   26.8890   47.3450 H   0  0  0  0  0  0  0  0  0  0  0  0
   33.0520   26.6580   49.1050 H   0  0  0  0  0  0  0  0  0  0  0  0
   31.5770   27.8480   48.1480 C   0  0  0  0  0  0  0  0  0  0  0  0
   30.7420   27.6280   49.2280 C   0  0  0  0  0  0  0  0  0  0  0  0
   29.4180   27.9990   49.2000 C   0  0  0  0  0  0  0  0  0  0  0  0
   28.9020   28.5880   48.1140 N   0  0  0  0  0  0  0  0  0  0  0  0
   29.7330   28.8000   47.0560 C   0  0  0  0  0  0  0  0  0  0  0  0
   31.0250   28.4470   47.0620 N   0  0  0  0  0  0  0  0  0  0  0  0
   31.0380   27.1620   50.1610 H   0  0  0  0  0  0  0  0  0  0  0  0
   28.7250   27.8500   50.0160 H   0  0  0  0  0  0  0  0  0  0  0  0
   29.4850   29.2620   46.1010 H   0  0  0  0  0  0  0  0  0  0  0  0
   34.6770   28.2710   49.7410 O   0  0  0  0  0  0  0  0  0  0  0  0
   37.3100   30.1890   51.3340 C   0  0  0  0  0  0  0  0  0  0  0  0
   37.9820   30.6740   50.1890 C   0  0  0  0  0  0  0  0  0  0  0  0
   37.4800   30.3050   48.9460 C   0  0  0  0  0  0  0  0  0  0  0  0
   36.3770   29.5040   48.9020 N   0  0  0  0  0  0  0  0  0  0  0  0
   35.7640   29.0620   50.0170 C   0  0  0  0  0  0  0  0  0  0  0  0
   36.2440   29.4140   51.2200 N   0  0  0  0  0  0  0  0  0  0  0  0
   37.7250   30.4930   52.2860 H   0  0  0  0  0  0  0  0  0  0  0  0
   38.8620   31.3140   50.1920 H   0  0  0  0  0  0  0  0  0  0  0  0
   38.1290   30.7740   47.6710 C   0  0  0  0  0  2  0  0  0  0  0  0
   38.7340   32.1460   47.8140 C   0  0  0  0  0  2  0  0  0  0  0  0
   38.0470   32.9530   47.5020 H   0  0  0  0  0  0  0  0  0  0  0  0
  1  3  1  0  0  0  0
  1 16  1  0  0  0  0
  2  1  1  0  0  0  0
  4  1  1  0  0  0  0
  4  6  1  0  0  0  0
  5  4  1  0  0  0  0
  7  4  1  0  0  0  0
  7  8  1  0  0  0  0
  8 13  1  0  0  0  0
  9  8  2  0  0  0  0
  9 14  1  0  0  0  0
 10  9  1  0  0  0  0
 11 12  1  0  0  0  0
 11 10  2  0  0  0  0
 12  7  2  0  0  0  0
 15 11  1  0  0  0  0
 16 21  1  0  0  0  0
 17 23  1  0  0  0  0
 18 24  1  0  0  0  0
 18 17  2  0  0  0  0
 19 18  1  0  0  0  0
 20 19  2  0  0  0  0
 20 21  1  0  0  0  0
 21 22  2  0  0  0  0
 22 17  1  0  0  0  0
 25 26  1  0  0  0  0
 25 19  1  0  0  0  0
 27 26  1  0  0  0  0
M  END
>  <minimizedAffinity>
-4.97425938

>  <minimizedRMSD>
0.509137452

$$$$
