
 OpenBabel03272510163D

 22 23  0  0  0  0  0  0  0  0999 V2000
   37.2770   29.3470   51.0500 Br  0  0  0  0  0  0  0  0  0  0  0  0
   35.9510   29.3150   49.6710 C   0  0  0  0  0  0  0  0  0  0  0  0
   35.9840   30.2260   48.6240 C   0  0  0  0  0  0  0  0  0  0  0  0
   35.0000   30.1370   47.6760 C   0  0  0  0  0  0  0  0  0  0  0  0
   33.9870   29.1990   47.7070 C   0  0  0  0  0  0  0  0  0  0  0  0
   33.9790   28.3100   48.7560 C   0  0  0  0  0  0  0  0  0  0  0  0
   34.9620   28.3760   49.7290 C   0  0  0  0  0  0  0  0  0  0  0  0
   35.0250   30.8440   46.8620 H   0  0  0  0  0  0  0  0  0  0  0  0
   33.1930   27.5630   48.8040 H   0  0  0  0  0  0  0  0  0  0  0  0
   34.9610   27.6710   50.5670 H   0  0  0  0  0  0  0  0  0  0  0  0
   37.9780   33.1700   49.4440 C   0  0  0  0  0  0  0  0  0  0  0  0
   39.0140   33.1680   48.4820 C   0  0  0  0  0  0  0  0  0  0  0  0
   39.0040   32.1350   47.5560 C   0  0  0  0  0  0  0  0  0  0  0  0
   38.0180   31.1780   47.6030 N   0  0  0  0  0  0  0  0  0  0  0  0
   37.0360   31.2270   48.5570 C   0  0  0  0  0  0  0  0  0  0  0  0
   37.0230   32.2310   49.4770 N   0  0  0  0  0  0  0  0  0  0  0  0
   37.9760   33.9750   50.1750 H   0  0  0  0  0  0  0  0  0  0  0  0
   39.7850   33.9010   48.4310 H   0  0  0  0  0  0  0  0  0  0  0  0
   39.7420   32.0150   46.7630 H   0  0  0  0  0  0  0  0  0  0  0  0
   32.9800   29.2080   46.6200 C   0  0  0  0  0  2  0  0  0  0  0  0
   31.7560   28.3840   46.9460 C   0  0  0  0  0  2  0  0  0  0  0  0
   31.1120   28.9240   47.6420 H   0  0  0  0  0  0  0  0  0  0  0  0
  2  7  1  0  0  0  0
  2  1  1  0  0  0  0
  3  2  2  0  0  0  0
  4  5  2  0  0  0  0
  4  3  1  0  0  0  0
  5  6  1  0  0  0  0
  6  9  1  0  0  0  0
  6  7  2  0  0  0  0
  7 10  1  0  0  0  0
  8  4  1  0  0  0  0
 11 16  1  0  0  0  0
 11 17  1  0  0  0  0
 12 11  2  0  0  0  0
 13 14  2  0  0  0  0
 13 12  1  0  0  0  0
 14 15  1  0  0  0  0
 15  3  1  0  0  0  0
 15 16  2  0  0  0  0
 18 12  1  0  0  0  0
 19 13  1  0  0  0  0
 20 21  1  0  0  0  0
 20  5  1  0  0  0  0
 21 22  1  0  0  0  0
M  END
>  <minimizedAffinity>
-5.4606576

>  <minimizedRMSD>
0.192360878

$$$$
