
 OpenBabel03272510163D

 22 23  0  0  0  0  0  0  0  0999 V2000
   37.2830   29.3680   51.0700 Br  0  0  0  0  0  0  0  0  0  0  0  0
   35.9610   29.3200   49.6870 C   0  0  0  0  0  0  0  0  0  0  0  0
   35.9950   30.2210   48.6320 C   0  0  0  0  0  0  0  0  0  0  0  0
   35.0140   30.1210   47.6830 C   0  0  0  0  0  0  0  0  0  0  0  0
   34.0020   29.1820   47.7190 C   0  0  0  0  0  0  0  0  0  0  0  0
   33.9930   28.3020   48.7750 C   0  0  0  0  0  0  0  0  0  0  0  0
   34.9740   28.3790   49.7510 C   0  0  0  0  0  0  0  0  0  0  0  0
   35.0390   30.8220   46.8620 H   0  0  0  0  0  0  0  0  0  0  0  0
   33.2090   27.5530   48.8280 H   0  0  0  0  0  0  0  0  0  0  0  0
   34.9720   27.6810   50.5950 H   0  0  0  0  0  0  0  0  0  0  0  0
   37.9830   33.1730   49.4350 C   0  0  0  0  0  0  0  0  0  0  0  0
   39.0180   33.1690   48.4730 C   0  0  0  0  0  0  0  0  0  0  0  0
   39.0100   32.1320   47.5520 C   0  0  0  0  0  0  0  0  0  0  0  0
   38.0250   31.1720   47.6050 N   0  0  0  0  0  0  0  0  0  0  0  0
   37.0440   31.2250   48.5590 C   0  0  0  0  0  0  0  0  0  0  0  0
   37.0300   32.2330   49.4750 N   0  0  0  0  0  0  0  0  0  0  0  0
   37.9800   33.9820   50.1620 H   0  0  0  0  0  0  0  0  0  0  0  0
   39.7880   33.9030   48.4170 H   0  0  0  0  0  0  0  0  0  0  0  0
   39.7470   32.0090   46.7590 H   0  0  0  0  0  0  0  0  0  0  0  0
   32.9990   29.1790   46.6290 C   0  0  0  0  0  2  0  0  0  0  0  0
   33.6200   29.0430   45.2580 C   0  0  0  0  0  2  0  0  0  0  0  0
   33.9190   28.0080   45.0810 H   0  0  0  0  0  0  0  0  0  0  0  0
  2  7  1  0  0  0  0
  2  1  1  0  0  0  0
  3  2  2  0  0  0  0
  4  5  2  0  0  0  0
  4  3  1  0  0  0  0
  5  6  1  0  0  0  0
  6  9  1  0  0  0  0
  6  7  2  0  0  0  0
  7 10  1  0  0  0  0
  8  4  1  0  0  0  0
 11 16  1  0  0  0  0
 11 17  1  0  0  0  0
 12 11  2  0  0  0  0
 13 14  2  0  0  0  0
 13 12  1  0  0  0  0
 14 15  1  0  0  0  0
 15  3  1  0  0  0  0
 15 16  2  0  0  0  0
 18 12  1  0  0  0  0
 19 13  1  0  0  0  0
 20  5  1  0  0  0  0
 21 20  1  0  0  0  0
 22 21  1  0  0  0  0
M  END
>  <minimizedAffinity>
-5.42320347

>  <minimizedRMSD>
0.0293714814

$$$$
