
 OpenBabel03272510153D

 22 23  0  0  0  0  0  0  0  0999 V2000
   37.2890   29.3550   51.0540 Br  0  0  0  0  0  0  0  0  0  0  0  0
   35.9600   29.3230   49.6780 C   0  0  0  0  0  0  0  0  0  0  0  0
   35.9900   30.2340   48.6310 C   0  0  0  0  0  0  0  0  0  0  0  0
   35.0030   30.1450   47.6860 C   0  0  0  0  0  0  0  0  0  0  0  0
   33.9910   29.2060   47.7190 C   0  0  0  0  0  0  0  0  0  0  0  0
   33.9850   28.3160   48.7670 C   0  0  0  0  0  0  0  0  0  0  0  0
   34.9710   28.3830   49.7380 C   0  0  0  0  0  0  0  0  0  0  0  0
   35.0260   30.8520   46.8720 H   0  0  0  0  0  0  0  0  0  0  0  0
   33.2010   27.5690   48.8170 H   0  0  0  0  0  0  0  0  0  0  0  0
   34.9720   27.6770   50.5760 H   0  0  0  0  0  0  0  0  0  0  0  0
   37.9830   33.1790   49.4470 C   0  0  0  0  0  0  0  0  0  0  0  0
   39.0170   33.1790   48.4840 C   0  0  0  0  0  0  0  0  0  0  0  0
   39.0060   32.1460   47.5570 C   0  0  0  0  0  0  0  0  0  0  0  0
   38.0200   31.1880   47.6060 N   0  0  0  0  0  0  0  0  0  0  0  0
   37.0400   31.2360   48.5620 C   0  0  0  0  0  0  0  0  0  0  0  0
   37.0280   32.2400   49.4830 N   0  0  0  0  0  0  0  0  0  0  0  0
   37.9820   33.9840   50.1790 H   0  0  0  0  0  0  0  0  0  0  0  0
   39.7870   33.9120   48.4310 H   0  0  0  0  0  0  0  0  0  0  0  0
   39.7420   32.0260   46.7630 H   0  0  0  0  0  0  0  0  0  0  0  0
   32.9810   29.2150   46.6340 C   0  0  0  0  0  2  0  0  0  0  0  0
   32.6820   27.8330   46.0980 C   0  0  0  0  0  2  0  0  0  0  0  0
   32.0360   27.2930   46.7910 H   0  0  0  0  0  0  0  0  0  0  0  0
  2  7  1  0  0  0  0
  2  1  1  0  0  0  0
  3  2  2  0  0  0  0
  4  5  2  0  0  0  0
  4  3  1  0  0  0  0
  5  6  1  0  0  0  0
  6  9  1  0  0  0  0
  6  7  2  0  0  0  0
  7 10  1  0  0  0  0
  8  4  1  0  0  0  0
 11 16  1  0  0  0  0
 11 17  1  0  0  0  0
 12 11  2  0  0  0  0
 13 14  2  0  0  0  0
 13 12  1  0  0  0  0
 14 15  1  0  0  0  0
 15  3  1  0  0  0  0
 15 16  2  0  0  0  0
 18 12  1  0  0  0  0
 19 13  1  0  0  0  0
 20  5  1  0  0  0  0
 21 20  1  0  0  0  0
 21 22  1  0  0  0  0
M  END
>  <minimizedAffinity>
-5.41219282

>  <minimizedRMSD>
0.0288779847

$$$$
