
 OpenBabel03262522233D

 25 26  0  0  0  0  0  0  0  0999 V2000
   39.3570   32.2980   45.8490 C   0  0  0  0  0  0  0  0  0  0  0  0
   40.4420   31.5050   45.6030 C   0  0  0  0  0  0  0  0  0  0  0  0
   40.7490   31.1430   44.3300 C   0  0  0  0  0  0  0  0  0  0  0  0
   39.9380   31.5990   43.3070 C   0  0  0  0  0  0  0  0  0  0  0  0
   38.8370   32.4030   43.5630 C   0  0  0  0  0  0  0  0  0  0  0  0
   38.5850   32.7290   44.8540 N   0  0  0  0  0  0  0  0  0  0  0  0
   40.9850   31.2280   46.5160 H   0  0  0  0  0  0  0  0  0  0  0  0
   41.6230   30.5140   44.2210 H   0  0  0  0  0  0  0  0  0  0  0  0
   40.2170   31.2860   42.3020 H   0  0  0  0  0  0  0  0  0  0  0  0
   37.9950   32.8680   42.4260 C   0  0  0  0  0  0  0  0  0  0  0  0
   38.5010   33.6670   41.8430 H   0  0  0  0  0  0  0  0  0  0  0  0
   37.9200   31.9890   41.7260 H   0  0  0  0  0  0  0  0  0  0  0  0
   36.9800   33.1560   42.7800 H   0  0  0  0  0  0  0  0  0  0  0  0
   38.8910   32.7690   47.0880 O   0  0  0  0  0  0  0  0  0  0  0  0
   38.6830   32.1030   49.3030 C   0  0  0  0  0  0  0  0  0  0  0  0
   38.3760   31.8470   47.9460 C   0  0  0  0  0  0  0  0  0  0  0  0
   37.6180   30.7360   47.6700 C   0  0  0  0  0  0  0  0  0  0  0  0
   37.2120   29.9560   48.6940 N   0  0  0  0  0  0  0  0  0  0  0  0
   37.5150   30.2190   49.9500 C   0  0  0  0  0  0  0  0  0  0  0  0
   38.2590   31.2990   50.3050 N   0  0  0  0  0  0  0  0  0  0  0  0
   39.2780   32.9600   49.6330 H   0  0  0  0  0  0  0  0  0  0  0  0
   37.4070   30.5800   46.6080 H   0  0  0  0  0  0  0  0  0  0  0  0
   37.0310   29.3110   51.0400 C   0  0  0  0  0  0  0  0  0  0  0  0
   35.5150   29.2570   50.9840 C   0  0  0  0  0  0  0  0  0  0  0  0
   35.2670   28.7390   50.0290 H   0  0  0  0  0  0  0  0  0  0  0  0
  1 14  1  0  0  0  0
  2  1  1  0  0  0  0
  2  7  1  0  0  0  0
  3  2  2  0  0  0  0
  4  5  2  0  0  0  0
  4  3  1  0  0  0  0
  5  6  1  0  0  0  0
  6  1  2  0  0  0  0
  8  3  1  0  0  0  0
  9  4  1  0  0  0  0
 10 13  1  0  0  0  0
 10  5  1  0  0  0  0
 11 10  1  0  0  0  0
 12 10  1  0  0  0  0
 14 16  1  0  0  0  0
 15 21  1  0  0  0  0
 15 20  1  0  0  0  0
 16 15  2  0  0  0  0
 17 16  1  0  0  0  0
 17 18  2  0  0  0  0
 18 19  1  0  0  0  0
 19 20  2  0  0  0  0
 19 23  1  0  0  0  0
 22 17  1  0  0  0  0
 24 23  1  0  0  0  0
 25 24  1  0  0  0  0
M  END
>  <minimizedAffinity>
-5.21155787

>  <minimizedRMSD>
2.80698657

$$$$
