
 OpenBabel03272510163D

 22 23  0  0  0  0  0  0  0  0999 V2000
   37.2800   29.3470   51.0540 Br  0  0  0  0  0  0  0  0  0  0  0  0
   35.9520   29.3120   49.6770 C   0  0  0  0  0  0  0  0  0  0  0  0
   35.9830   30.2210   48.6280 C   0  0  0  0  0  0  0  0  0  0  0  0
   34.9970   30.1300   47.6830 C   0  0  0  0  0  0  0  0  0  0  0  0
   33.9840   29.1930   47.7170 C   0  0  0  0  0  0  0  0  0  0  0  0
   33.9770   28.3050   48.7670 C   0  0  0  0  0  0  0  0  0  0  0  0
   34.9620   28.3740   49.7390 C   0  0  0  0  0  0  0  0  0  0  0  0
   35.0210   30.8360   46.8670 H   0  0  0  0  0  0  0  0  0  0  0  0
   33.1920   27.5590   48.8190 H   0  0  0  0  0  0  0  0  0  0  0  0
   34.9620   27.6700   50.5780 H   0  0  0  0  0  0  0  0  0  0  0  0
   37.9780   33.1670   49.4370 C   0  0  0  0  0  0  0  0  0  0  0  0
   39.0130   33.1620   48.4750 C   0  0  0  0  0  0  0  0  0  0  0  0
   39.0030   32.1260   47.5530 C   0  0  0  0  0  0  0  0  0  0  0  0
   38.0160   31.1690   47.6030 N   0  0  0  0  0  0  0  0  0  0  0  0
   37.0350   31.2220   48.5570 C   0  0  0  0  0  0  0  0  0  0  0  0
   37.0220   32.2290   49.4740 N   0  0  0  0  0  0  0  0  0  0  0  0
   37.9760   33.9750   50.1660 H   0  0  0  0  0  0  0  0  0  0  0  0
   39.7850   33.8950   48.4210 H   0  0  0  0  0  0  0  0  0  0  0  0
   39.7400   32.0030   46.7600 H   0  0  0  0  0  0  0  0  0  0  0  0
   32.9750   29.2000   46.6320 C   0  0  0  0  0  2  0  0  0  0  0  0
   32.7090   30.5830   46.0840 C   0  0  0  0  0  2  0  0  0  0  0  0
   33.5230   30.8900   45.4250 H   0  0  0  0  0  0  0  0  0  0  0  0
  2  7  1  0  0  0  0
  2  1  1  0  0  0  0
  3  2  2  0  0  0  0
  4  5  2  0  0  0  0
  4  3  1  0  0  0  0
  5  6  1  0  0  0  0
  6  9  1  0  0  0  0
  6  7  2  0  0  0  0
  7 10  1  0  0  0  0
  8  4  1  0  0  0  0
 11 16  1  0  0  0  0
 11 17  1  0  0  0  0
 12 11  2  0  0  0  0
 13 14  2  0  0  0  0
 13 12  1  0  0  0  0
 14 15  1  0  0  0  0
 15  3  1  0  0  0  0
 15 16  2  0  0  0  0
 18 12  1  0  0  0  0
 19 13  1  0  0  0  0
 20  5  1  0  0  0  0
 21 20  1  0  0  0  0
 22 21  1  0  0  0  0
M  END
>  <minimizedAffinity>
-5.56099892

>  <minimizedRMSD>
0.210251883

$$$$
