
 OpenBabel03272510163D

 22 23  0  0  0  0  0  0  0  0999 V2000
   37.2940   29.3620   51.0550 Br  0  0  0  0  0  0  0  0  0  0  0  0
   35.9630   29.3310   49.6810 C   0  0  0  0  0  0  0  0  0  0  0  0
   35.9920   30.2440   48.6350 C   0  0  0  0  0  0  0  0  0  0  0  0
   35.0040   30.1550   47.6910 C   0  0  0  0  0  0  0  0  0  0  0  0
   33.9910   29.2170   47.7250 C   0  0  0  0  0  0  0  0  0  0  0  0
   33.9870   28.3260   48.7720 C   0  0  0  0  0  0  0  0  0  0  0  0
   34.9740   28.3920   49.7410 C   0  0  0  0  0  0  0  0  0  0  0  0
   35.0250   30.8640   46.8780 H   0  0  0  0  0  0  0  0  0  0  0  0
   33.2030   27.5790   48.8220 H   0  0  0  0  0  0  0  0  0  0  0  0
   34.9770   27.6850   50.5780 H   0  0  0  0  0  0  0  0  0  0  0  0
   37.9880   33.1870   49.4530 C   0  0  0  0  0  0  0  0  0  0  0  0
   39.0190   33.1880   48.4860 C   0  0  0  0  0  0  0  0  0  0  0  0
   39.0050   32.1580   47.5580 C   0  0  0  0  0  0  0  0  0  0  0  0
   38.0200   31.1990   47.6070 N   0  0  0  0  0  0  0  0  0  0  0  0
   37.0420   31.2460   48.5650 C   0  0  0  0  0  0  0  0  0  0  0  0
   37.0330   32.2480   49.4890 N   0  0  0  0  0  0  0  0  0  0  0  0
   37.9880   33.9900   50.1860 H   0  0  0  0  0  0  0  0  0  0  0  0
   39.7900   33.9210   48.4330 H   0  0  0  0  0  0  0  0  0  0  0  0
   39.7390   32.0400   46.7610 H   0  0  0  0  0  0  0  0  0  0  0  0
   32.9800   29.2270   46.6410 C   0  0  0  0  0  2  0  0  0  0  0  0
   32.8600   27.8950   45.9380 C   0  0  0  0  0  2  0  0  0  0  0  0
   32.2960   27.1930   46.5530 H   0  0  0  0  0  0  0  0  0  0  0  0
  2  7  1  0  0  0  0
  2  1  1  0  0  0  0
  3  2  2  0  0  0  0
  4  5  2  0  0  0  0
  4  3  1  0  0  0  0
  5  6  1  0  0  0  0
  6  9  1  0  0  0  0
  6  7  2  0  0  0  0
  7 10  1  0  0  0  0
  8  4  1  0  0  0  0
 11 16  1  0  0  0  0
 11 17  1  0  0  0  0
 12 11  2  0  0  0  0
 13 14  2  0  0  0  0
 13 12  1  0  0  0  0
 14 15  1  0  0  0  0
 15  3  1  0  0  0  0
 15 16  2  0  0  0  0
 18 12  1  0  0  0  0
 19 13  1  0  0  0  0
 20  5  1  0  0  0  0
 21 22  1  0  0  0  0
 21 20  1  0  0  0  0
M  END
>  <minimizedAffinity>
-5.41272879

>  <minimizedRMSD>
0.0520355701

$$$$
