
 OpenBabel03272507083D

 33 36  0  0  0  0  0  0  0  0999 V2000
   37.0260   28.3260   31.7680 C   0  0  0  0  0  0  0  0  0  0  0  0
   37.7090   27.2580   32.3620 C   0  0  0  0  0  0  0  0  0  0  0  0
   37.5020   27.0690   33.7290 C   0  0  0  0  0  0  0  0  0  0  0  0
   36.6810   27.8940   34.4120 N   0  0  0  0  0  0  0  0  0  0  0  0
   36.0420   28.9150   33.7940 C   0  0  0  0  0  0  0  0  0  0  0  0
   36.2170   29.1260   32.4780 N   0  0  0  0  0  0  0  0  0  0  0  0
   37.1890   28.4670   30.7050 H   0  0  0  0  0  0  0  0  0  0  0  0
   38.3740   26.5770   31.8510 H   0  0  0  0  0  0  0  0  0  0  0  0
   33.7960   29.6360   34.4600 C   0  0  0  0  0  0  0  0  0  0  0  0
   35.1620   29.7740   34.5980 C   0  0  0  0  0  0  0  0  0  0  0  0
   35.6810   30.6910   35.4630 C   0  0  0  0  0  0  0  0  0  0  0  0
   34.8550   31.4920   36.2130 C   0  0  0  0  0  0  0  0  0  0  0  0
   35.1110   32.4620   37.1270 N   0  0  0  0  0  0  0  0  0  0  0  0
   33.8630   32.8790   37.5120 C   0  0  0  0  0  0  0  0  0  0  0  0
   32.9080   32.2020   36.8690 N   0  0  0  0  0  0  0  0  0  0  0  0
   33.4980   31.3200   36.0430 C   0  0  0  0  0  0  0  0  0  0  0  0
   32.9300   30.4230   35.1950 C   0  0  0  0  0  0  0  0  0  0  0  0
   33.3780   28.9080   33.7730 H   0  0  0  0  0  0  0  0  0  0  0  0
   36.7530   30.8250   35.5960 H   0  0  0  0  0  0  0  0  0  0  0  0
   36.0400   32.8130   37.4630 H   0  0  0  0  0  0  0  0  0  0  0  0
   33.6850   33.6620   38.2480 H   0  0  0  0  0  0  0  0  0  0  0  0
   31.8520   30.3370   35.1090 H   0  0  0  0  0  0  0  0  0  0  0  0
   38.1370   26.0040   34.5090 C   0  0  0  0  0  0  0  0  0  0  0  0
   39.1680   25.2160   34.0300 C   0  0  0  0  0  0  0  0  0  0  0  0
   39.7780   24.2080   34.7500 C   0  0  0  0  0  0  0  0  0  0  0  0
   39.3350   23.9870   35.9900 N   0  0  0  0  0  0  0  0  0  0  0  0
   38.3360   24.7330   36.4850 C   0  0  0  0  0  0  0  0  0  0  0  0
   37.7650   25.6940   35.7800 N   0  0  0  0  0  0  0  0  0  0  0  0
   39.5260   25.3960   33.0250 H   0  0  0  0  0  0  0  0  0  0  0  0
   40.5820   23.6330   34.3060 H   0  0  0  0  0  0  0  0  0  0  0  0
   37.8600   24.4680   37.8660 C   0  0  0  0  0  2  0  0  0  0  0  0
   38.6890   23.3960   38.5470 C   0  0  0  0  0  2  0  0  0  0  0  0
   39.0900   22.6880   37.7850 H   0  0  0  0  0  0  0  0  0  0  0  0
  1  2  2  0  0  0  0
  1  6  1  0  0  0  0
  2  3  1  0  0  0  0
  3  4  2  0  0  0  0
  3 23  1  0  0  0  0
  5  4  1  0  0  0  0
  5 10  1  0  0  0  0
  6  5  2  0  0  0  0
  7  1  1  0  0  0  0
  8  2  1  0  0  0  0
  9 10  2  0  0  0  0
  9 17  1  0  0  0  0
 10 11  1  0  0  0  0
 11 19  1  0  0  0  0
 11 12  2  0  0  0  0
 12 13  1  0  0  0  0
 13 20  1  0  0  0  0
 13 14  1  0  0  0  0
 14 21  1  0  0  0  0
 15 14  2  0  0  0  0
 16 12  1  0  0  0  0
 16 15  1  0  0  0  0
 17 16  2  0  0  0  0
 18  9  1  0  0  0  0
 22 17  1  0  0  0  0
 23 28  1  0  0  0  0
 24 23  2  0  0  0  0
 24 25  1  0  0  0  0
 25 26  2  0  0  0  0
 26 27  1  0  0  0  0
 27 31  1  0  0  0  0
 28 27  2  0  0  0  0
 29 24  1  0  0  0  0
 30 25  1  0  0  0  0
 31 32  1  0  0  0  0
 33 32  1  0  0  0  0
M  END
>  <minimizedAffinity>
-6.09108496

$$$$

 OpenBabel03272507083D

 33 36  0  0  0  0  0  0  0  0999 V2000
   36.6860   28.3930   31.8040 C   0  0  0  0  0  0  0  0  0  0  0  0
   37.2720   27.2340   32.3290 C   0  0  0  0  0  0  0  0  0  0  0  0
   37.1530   27.0440   33.7060 C   0  0  0  0  0  0  0  0  0  0  0  0
   36.5010   27.9510   34.4630 N   0  0  0  0  0  0  0  0  0  0  0  0
   35.9500   29.0580   33.9110 C   0  0  0  0  0  0  0  0  0  0  0  0
   36.0440   29.2720   32.5870 N   0  0  0  0  0  0  0  0  0  0  0  0
   36.7810   28.5340   30.7330 H   0  0  0  0  0  0  0  0  0  0  0  0
   37.8020   26.4860   31.7580 H   0  0  0  0  0  0  0  0  0  0  0  0
   36.0040   30.8750   35.5550 C   0  0  0  0  0  0  0  0  0  0  0  0
   35.2530   30.0030   34.7930 C   0  0  0  0  0  0  0  0  0  0  0  0
   33.8910   30.0210   34.8620 C   0  0  0  0  0  0  0  0  0  0  0  0
   33.2440   30.9070   35.6880 C   0  0  0  0  0  0  0  0  0  0  0  0
   31.9270   31.1260   35.9360 N   0  0  0  0  0  0  0  0  0  0  0  0
   31.9380   32.1420   36.8560 C   0  0  0  0  0  0  0  0  0  0  0  0
   33.1860   32.5160   37.1490 N   0  0  0  0  0  0  0  0  0  0  0  0
   34.0330   31.7580   36.4300 C   0  0  0  0  0  0  0  0  0  0  0  0
   35.3920   31.7810   36.4000 C   0  0  0  0  0  0  0  0  0  0  0  0
   37.0880   30.8640   35.5040 H   0  0  0  0  0  0  0  0  0  0  0  0
   33.2690   29.3490   34.2750 H   0  0  0  0  0  0  0  0  0  0  0  0
   31.0970   30.6370   35.5250 H   0  0  0  0  0  0  0  0  0  0  0  0
   31.0380   32.5790   37.2870 H   0  0  0  0  0  0  0  0  0  0  0  0
   35.9560   32.4780   37.0100 H   0  0  0  0  0  0  0  0  0  0  0  0
   37.7070   25.8910   34.4200 C   0  0  0  0  0  0  0  0  0  0  0  0
   38.3890   24.8610   33.7970 C   0  0  0  0  0  0  0  0  0  0  0  0
   38.9170   23.7670   34.4520 C   0  0  0  0  0  0  0  0  0  0  0  0
   38.7520   23.7090   35.7750 N   0  0  0  0  0  0  0  0  0  0  0  0
   38.0950   24.6900   36.4120 C   0  0  0  0  0  0  0  0  0  0  0  0
   37.5970   25.7300   35.7660 N   0  0  0  0  0  0  0  0  0  0  0  0
   38.5220   24.9110   32.7230 H   0  0  0  0  0  0  0  0  0  0  0  0
   39.4400   23.0000   33.8950 H   0  0  0  0  0  0  0  0  0  0  0  0
   37.9250   24.6020   37.8830 C   0  0  0  0  0  2  0  0  0  0  0  0
   38.6570   23.4060   38.4600 C   0  0  0  0  0  2  0  0  0  0  0  0
   38.7080   22.5920   37.7010 H   0  0  0  0  0  0  0  0  0  0  0  0
  1  2  2  0  0  0  0
  1  6  1  0  0  0  0
  2  3  1  0  0  0  0
  3 23  1  0  0  0  0
  3  4  2  0  0  0  0
  5  4  1  0  0  0  0
  5 10  1  0  0  0  0
  6  5  2  0  0  0  0
  7  1  1  0  0  0  0
  8  2  1  0  0  0  0
  9 17  1  0  0  0  0
 10 11  1  0  0  0  0
 10  9  2  0  0  0  0
 11 12  2  0  0  0  0
 12 13  1  0  0  0  0
 12 16  1  0  0  0  0
 13 14  1  0  0  0  0
 14 15  2  0  0  0  0
 14 21  1  0  0  0  0
 16 15  1  0  0  0  0
 17 16  2  0  0  0  0
 17 22  1  0  0  0  0
 18  9  1  0  0  0  0
 19 11  1  0  0  0  0
 20 13  1  0  0  0  0
 23 28  1  0  0  0  0
 24 23  2  0  0  0  0
 24 25  1  0  0  0  0
 25 26  2  0  0  0  0
 26 27  1  0  0  0  0
 27 31  1  0  0  0  0
 28 27  2  0  0  0  0
 29 24  1  0  0  0  0
 30 25  1  0  0  0  0
 31 32  1  0  0  0  0
 33 32  1  0  0  0  0
M  END
>  <minimizedAffinity>
-6.0419836

$$$$

 OpenBabel03272507083D

 33 36  0  0  0  0  0  0  0  0999 V2000
   38.6110   24.7800   32.0190 C   0  0  0  0  0  0  0  0  0  0  0  0
   38.8890   24.1450   33.2360 C   0  0  0  0  0  0  0  0  0  0  0  0
   38.4130   24.7700   34.3890 C   0  0  0  0  0  0  0  0  0  0  0  0
   37.7240   25.9270   34.3000 N   0  0  0  0  0  0  0  0  0  0  0  0
   37.4790   26.5050   33.1000 C   0  0  0  0  0  0  0  0  0  0  0  0
   37.9230   25.9300   31.9690 N   0  0  0  0  0  0  0  0  0  0  0  0
   38.9830   24.2890   31.1270 H   0  0  0  0  0  0  0  0  0  0  0  0
   39.4360   23.2200   33.3500 H   0  0  0  0  0  0  0  0  0  0  0  0
   36.3370   28.3280   34.2730 C   0  0  0  0  0  0  0  0  0  0  0  0
   36.7230   27.7640   33.0750 C   0  0  0  0  0  0  0  0  0  0  0  0
   36.4060   28.3650   31.8920 C   0  0  0  0  0  0  0  0  0  0  0  0
   35.6990   29.5420   31.8740 C   0  0  0  0  0  0  0  0  0  0  0  0
   35.2640   30.3280   30.8550 N   0  0  0  0  0  0  0  0  0  0  0  0
   34.6210   31.3560   31.4940 C   0  0  0  0  0  0  0  0  0  0  0  0
   34.6620   31.2020   32.8200 N   0  0  0  0  0  0  0  0  0  0  0  0
   35.3340   30.0700   33.0930 C   0  0  0  0  0  0  0  0  0  0  0  0
   35.6230   29.5110   34.2980 C   0  0  0  0  0  0  0  0  0  0  0  0
   36.5870   27.8530   35.2170 H   0  0  0  0  0  0  0  0  0  0  0  0
   36.6950   27.9470   30.9310 H   0  0  0  0  0  0  0  0  0  0  0  0
   35.3890   30.1860   29.8250 H   0  0  0  0  0  0  0  0  0  0  0  0
   34.1410   32.1850   30.9760 H   0  0  0  0  0  0  0  0  0  0  0  0
   35.3070   29.9790   35.2250 H   0  0  0  0  0  0  0  0  0  0  0  0
   38.6140   24.2450   35.7420 C   0  0  0  0  0  0  0  0  0  0  0  0
   37.8260   24.5950   36.8230 C   0  0  0  0  0  0  0  0  0  0  0  0
   38.0000   24.1110   38.1040 C   0  0  0  0  0  0  0  0  0  0  0  0
   38.9980   23.2480   38.3020 N   0  0  0  0  0  0  0  0  0  0  0  0
   39.7830   22.8870   37.2750 C   0  0  0  0  0  0  0  0  0  0  0  0
   39.5990   23.3610   36.0550 N   0  0  0  0  0  0  0  0  0  0  0  0
   37.0160   25.2950   36.6620 H   0  0  0  0  0  0  0  0  0  0  0  0
   37.3400   24.4330   38.9010 H   0  0  0  0  0  0  0  0  0  0  0  0
   40.8860   21.9250   37.5190 C   0  0  0  0  0  2  0  0  0  0  0  0
   42.1400   22.3090   36.7560 C   0  0  0  0  0  2  0  0  0  0  0  0
   41.8630   22.8510   35.8240 H   0  0  0  0  0  0  0  0  0  0  0  0
  1  2  1  0  0  0  0
  2  8  1  0  0  0  0
  2  3  2  0  0  0  0
  3 23  1  0  0  0  0
  4  3  1  0  0  0  0
  5  4  2  0  0  0  0
  6  1  2  0  0  0  0
  6  5  1  0  0  0  0
  7  1  1  0  0  0  0
  9 17  1  0  0  0  0
  9 18  1  0  0  0  0
 10  5  1  0  0  0  0
 10  9  2  0  0  0  0
 11 10  1  0  0  0  0
 12 11  2  0  0  0  0
 12 16  1  0  0  0  0
 13 14  1  0  0  0  0
 13 12  1  0  0  0  0
 14 15  2  0  0  0  0
 15 16  1  0  0  0  0
 16 17  2  0  0  0  0
 17 22  1  0  0  0  0
 19 11  1  0  0  0  0
 20 13  1  0  0  0  0
 21 14  1  0  0  0  0
 23 28  2  0  0  0  0
 23 24  1  0  0  0  0
 24 25  2  0  0  0  0
 25 26  1  0  0  0  0
 25 30  1  0  0  0  0
 27 31  1  0  0  0  0
 27 26  2  0  0  0  0
 28 27  1  0  0  0  0
 29 24  1  0  0  0  0
 32 31  1  0  0  0  0
 33 32  1  0  0  0  0
M  END
>  <minimizedAffinity>
-5.98245049

$$$$

 OpenBabel03272507083D

 33 36  0  0  0  0  0  0  0  0999 V2000
   37.4850   27.6330   31.7320 C   0  0  0  0  0  0  0  0  0  0  0  0
   36.5870   28.6090   32.1820 C   0  0  0  0  0  0  0  0  0  0  0  0
   36.2150   28.5430   33.5250 C   0  0  0  0  0  0  0  0  0  0  0  0
   36.7130   27.5740   34.3210 N   0  0  0  0  0  0  0  0  0  0  0  0
   37.5800   26.6510   33.8410 C   0  0  0  0  0  0  0  0  0  0  0  0
   37.9600   26.6850   32.5520 N   0  0  0  0  0  0  0  0  0  0  0  0
   37.7710   27.6910   30.6870 H   0  0  0  0  0  0  0  0  0  0  0  0
   36.1650   29.4000   31.5780 H   0  0  0  0  0  0  0  0  0  0  0  0
   38.9340   24.6540   34.2720 C   0  0  0  0  0  0  0  0  0  0  0  0
   38.0840   25.6240   34.7630 C   0  0  0  0  0  0  0  0  0  0  0  0
   37.7210   25.6260   36.0780 C   0  0  0  0  0  0  0  0  0  0  0  0
   38.1950   24.6650   36.9350 C   0  0  0  0  0  0  0  0  0  0  0  0
   37.9930   24.4460   38.2600 N   0  0  0  0  0  0  0  0  0  0  0  0
   38.7440   23.3300   38.5210 C   0  0  0  0  0  0  0  0  0  0  0  0
   39.3640   22.8970   37.4200 N   0  0  0  0  0  0  0  0  0  0  0  0
   39.0410   23.7160   36.4030 C   0  0  0  0  0  0  0  0  0  0  0  0
   39.4320   23.6680   35.1030 C   0  0  0  0  0  0  0  0  0  0  0  0
   39.2250   24.6480   33.2270 H   0  0  0  0  0  0  0  0  0  0  0  0
   37.0540   26.3770   36.4960 H   0  0  0  0  0  0  0  0  0  0  0  0
   37.4030   24.9970   38.9290 H   0  0  0  0  0  0  0  0  0  0  0  0
   38.8180   22.8640   39.5030 H   0  0  0  0  0  0  0  0  0  0  0  0
   40.1020   22.8930   34.7460 H   0  0  0  0  0  0  0  0  0  0  0  0
   35.2860   29.4820   34.1600 C   0  0  0  0  0  0  0  0  0  0  0  0
   33.9130   29.4210   34.0060 C   0  0  0  0  0  0  0  0  0  0  0  0
   33.0230   30.2950   34.5960 C   0  0  0  0  0  0  0  0  0  0  0  0
   33.5320   31.2610   35.3640 N   0  0  0  0  0  0  0  0  0  0  0  0
   34.8600   31.3490   35.5350 C   0  0  0  0  0  0  0  0  0  0  0  0
   35.6960   30.5010   34.9620 N   0  0  0  0  0  0  0  0  0  0  0  0
   33.5010   28.6370   33.3820 H   0  0  0  0  0  0  0  0  0  0  0  0
   31.9580   30.1830   34.4280 H   0  0  0  0  0  0  0  0  0  0  0  0
   35.4020   32.4310   36.3940 C   0  0  0  0  0  2  0  0  0  0  0  0
   36.3560   33.3270   35.6290 C   0  0  0  0  0  2  0  0  0  0  0  0
   36.8540   32.7450   34.8190 H   0  0  0  0  0  0  0  0  0  0  0  0
  1  2  2  0  0  0  0
  1  6  1  0  0  0  0
  2  3  1  0  0  0  0
  3 23  1  0  0  0  0
  3  4  2  0  0  0  0
  5  4  1  0  0  0  0
  5 10  1  0  0  0  0
  6  5  2  0  0  0  0
  7  1  1  0  0  0  0
  8  2  1  0  0  0  0
  9 10  2  0  0  0  0
  9 17  1  0  0  0  0
 10 11  1  0  0  0  0
 11 19  1  0  0  0  0
 11 12  2  0  0  0  0
 12 13  1  0  0  0  0
 13 14  1  0  0  0  0
 13 20  1  0  0  0  0
 14 21  1  0  0  0  0
 15 14  2  0  0  0  0
 16 12  1  0  0  0  0
 16 15  1  0  0  0  0
 17 16  2  0  0  0  0
 18  9  1  0  0  0  0
 22 17  1  0  0  0  0
 23 28  1  0  0  0  0
 24 23  2  0  0  0  0
 24 25  1  0  0  0  0
 25 26  2  0  0  0  0
 26 27  1  0  0  0  0
 27 31  1  0  0  0  0
 28 27  2  0  0  0  0
 29 24  1  0  0  0  0
 30 25  1  0  0  0  0
 32 31  1  0  0  0  0
 33 32  1  0  0  0  0
M  END
>  <minimizedAffinity>
-5.85902691

$$$$

 OpenBabel03272507083D

 33 36  0  0  0  0  0  0  0  0999 V2000
   36.4970   28.8390   31.7570 C   0  0  0  0  0  0  0  0  0  0  0  0
   35.8980   29.8110   32.5680 C   0  0  0  0  0  0  0  0  0  0  0  0
   35.8130   29.5220   33.9300 C   0  0  0  0  0  0  0  0  0  0  0  0
   36.2920   28.3550   34.4080 N   0  0  0  0  0  0  0  0  0  0  0  0
   36.8640   27.4430   33.5850 C   0  0  0  0  0  0  0  0  0  0  0  0
   36.9630   27.6890   32.2670 N   0  0  0  0  0  0  0  0  0  0  0  0
   36.5610   29.0700   30.7000 H   0  0  0  0  0  0  0  0  0  0  0  0
   35.5020   30.7560   32.2240 H   0  0  0  0  0  0  0  0  0  0  0  0
   37.7090   25.1570   33.3280 C   0  0  0  0  0  0  0  0  0  0  0  0
   37.3660   26.1940   34.1720 C   0  0  0  0  0  0  0  0  0  0  0  0
   37.4890   26.0560   35.5230 C   0  0  0  0  0  0  0  0  0  0  0  0
   37.9590   24.8870   36.0670 C   0  0  0  0  0  0  0  0  0  0  0  0
   38.1720   24.5010   37.3520 N   0  0  0  0  0  0  0  0  0  0  0  0
   38.6470   23.2210   37.2280 C   0  0  0  0  0  0  0  0  0  0  0  0
   38.7160   22.8530   35.9460 N   0  0  0  0  0  0  0  0  0  0  0  0
   38.2900   23.8790   35.1890 C   0  0  0  0  0  0  0  0  0  0  0  0
   38.1850   23.9630   33.8360 C   0  0  0  0  0  0  0  0  0  0  0  0
   37.6130   25.2610   32.2530 H   0  0  0  0  0  0  0  0  0  0  0  0
   37.2270   26.8540   36.2160 H   0  0  0  0  0  0  0  0  0  0  0  0
   38.0140   25.0480   38.2310 H   0  0  0  0  0  0  0  0  0  0  0  0
   38.9280   22.5940   38.0740 H   0  0  0  0  0  0  0  0  0  0  0  0
   38.4640   23.1310   33.1980 H   0  0  0  0  0  0  0  0  0  0  0  0
   35.2170   30.4240   34.9180 C   0  0  0  0  0  0  0  0  0  0  0  0
   35.9170   31.4370   35.5500 C   0  0  0  0  0  0  0  0  0  0  0  0
   35.3730   32.2960   36.4830 C   0  0  0  0  0  0  0  0  0  0  0  0
   34.0840   32.1300   36.7890 N   0  0  0  0  0  0  0  0  0  0  0  0
   33.3760   31.1570   36.1960 C   0  0  0  0  0  0  0  0  0  0  0  0
   33.9150   30.3440   35.3040 N   0  0  0  0  0  0  0  0  0  0  0  0
   36.9620   31.5700   35.3000 H   0  0  0  0  0  0  0  0  0  0  0  0
   35.9850   33.0670   36.9340 H   0  0  0  0  0  0  0  0  0  0  0  0
   31.9450   30.9920   36.5530 C   0  0  0  0  0  2  0  0  0  0  0  0
   31.6430   29.5790   37.0140 C   0  0  0  0  0  2  0  0  0  0  0  0
   32.3390   28.8640   36.5180 H   0  0  0  0  0  0  0  0  0  0  0  0
  1  6  2  0  0  0  0
  1  2  1  0  0  0  0
  2  3  2  0  0  0  0
  3  4  1  0  0  0  0
  3 23  1  0  0  0  0
  5 10  1  0  0  0  0
  5  4  2  0  0  0  0
  6  5  1  0  0  0  0
  7  1  1  0  0  0  0
  8  2  1  0  0  0  0
  9 17  2  0  0  0  0
  9 10  1  0  0  0  0
 10 11  2  0  0  0  0
 11 12  1  0  0  0  0
 11 19  1  0  0  0  0
 12 13  1  0  0  0  0
 13 20  1  0  0  0  0
 14 13  1  0  0  0  0
 14 21  1  0  0  0  0
 15 14  2  0  0  0  0
 16 15  1  0  0  0  0
 16 12  2  0  0  0  0
 17 16  1  0  0  0  0
 18  9  1  0  0  0  0
 22 17  1  0  0  0  0
 23 28  2  0  0  0  0
 23 24  1  0  0  0  0
 24 25  2  0  0  0  0
 25 26  1  0  0  0  0
 25 30  1  0  0  0  0
 27 31  1  0  0  0  0
 27 26  2  0  0  0  0
 28 27  1  0  0  0  0
 29 24  1  0  0  0  0
 31 32  1  0  0  0  0
 33 32  1  0  0  0  0
M  END
>  <minimizedAffinity>
-5.83451414

$$$$

 OpenBabel03272507083D

 33 36  0  0  0  0  0  0  0  0999 V2000
   36.3030   29.2560   30.6840 C   0  0  0  0  0  0  0  0  0  0  0  0
   36.6590   27.9050   30.7910 C   0  0  0  0  0  0  0  0  0  0  0  0
   36.4910   27.3130   32.0420 C   0  0  0  0  0  0  0  0  0  0  0  0
   36.0080   28.0330   33.0760 N   0  0  0  0  0  0  0  0  0  0  0  0
   35.6770   29.3380   32.9260 C   0  0  0  0  0  0  0  0  0  0  0  0
   35.8260   29.9410   31.7340 N   0  0  0  0  0  0  0  0  0  0  0  0
   36.4360   29.7110   29.7090 H   0  0  0  0  0  0  0  0  0  0  0  0
   37.0500   27.2950   29.9890 H   0  0  0  0  0  0  0  0  0  0  0  0
   36.0280   30.8250   34.8420 C   0  0  0  0  0  0  0  0  0  0  0  0
   35.1560   30.0630   34.0920 C   0  0  0  0  0  0  0  0  0  0  0  0
   33.8370   29.9860   34.4310 C   0  0  0  0  0  0  0  0  0  0  0  0
   33.3540   30.6650   35.5220 C   0  0  0  0  0  0  0  0  0  0  0  0
   32.1120   30.7550   36.0630 N   0  0  0  0  0  0  0  0  0  0  0  0
   32.2890   31.5850   37.1390 C   0  0  0  0  0  0  0  0  0  0  0  0
   33.5620   31.9740   37.2450 N   0  0  0  0  0  0  0  0  0  0  0  0
   34.2600   31.4130   36.2420 C   0  0  0  0  0  0  0  0  0  0  0  0
   35.5830   31.5230   35.9480 C   0  0  0  0  0  0  0  0  0  0  0  0
   37.0780   30.8890   34.5770 H   0  0  0  0  0  0  0  0  0  0  0  0
   33.1230   29.3950   33.8610 H   0  0  0  0  0  0  0  0  0  0  0  0
   31.2250   30.3000   35.7380 H   0  0  0  0  0  0  0  0  0  0  0  0
   31.4870   31.8810   37.8150 H   0  0  0  0  0  0  0  0  0  0  0  0
   36.2440   32.1310   36.5560 H   0  0  0  0  0  0  0  0  0  0  0  0
   36.8130   25.9130   32.3310 C   0  0  0  0  0  0  0  0  0  0  0  0
   37.7700   25.5220   33.2490 C   0  0  0  0  0  0  0  0  0  0  0  0
   38.0880   24.2090   33.5340 C   0  0  0  0  0  0  0  0  0  0  0  0
   37.4200   23.2610   32.8730 N   0  0  0  0  0  0  0  0  0  0  0  0
   36.4850   23.6050   31.9740 C   0  0  0  0  0  0  0  0  0  0  0  0
   36.1960   24.8690   31.7160 N   0  0  0  0  0  0  0  0  0  0  0  0
   38.3110   26.2920   33.7850 H   0  0  0  0  0  0  0  0  0  0  0  0
   38.8500   23.9820   34.2690 H   0  0  0  0  0  0  0  0  0  0  0  0
   35.7570   22.5330   31.2510 C   0  0  0  0  0  2  0  0  0  0  0  0
   35.1730   21.5110   32.2080 C   0  0  0  0  0  2  0  0  0  0  0  0
   35.8030   21.4490   33.1250 H   0  0  0  0  0  0  0  0  0  0  0  0
  1  2  2  0  0  0  0
  1  6  1  0  0  0  0
  2  3  1  0  0  0  0
  3 23  1  0  0  0  0
  3  4  2  0  0  0  0
  5  4  1  0  0  0  0
  5 10  1  0  0  0  0
  6  5  2  0  0  0  0
  7  1  1  0  0  0  0
  8  2  1  0  0  0  0
  9 17  1  0  0  0  0
 10 11  1  0  0  0  0
 10  9  2  0  0  0  0
 11 12  2  0  0  0  0
 12 13  1  0  0  0  0
 12 16  1  0  0  0  0
 13 14  1  0  0  0  0
 14 15  2  0  0  0  0
 14 21  1  0  0  0  0
 16 15  1  0  0  0  0
 17 16  2  0  0  0  0
 17 22  1  0  0  0  0
 18  9  1  0  0  0  0
 19 11  1  0  0  0  0
 20 13  1  0  0  0  0
 23 24  1  0  0  0  0
 24 25  2  0  0  0  0
 24 29  1  0  0  0  0
 25 30  1  0  0  0  0
 26 25  1  0  0  0  0
 27 26  2  0  0  0  0
 28 27  1  0  0  0  0
 28 23  2  0  0  0  0
 31 27  1  0  0  0  0
 31 32  1  0  0  0  0
 32 33  1  0  0  0  0
M  END
>  <minimizedAffinity>
-5.6024375

$$$$

 OpenBabel03272507083D

 33 36  0  0  0  0  0  0  0  0999 V2000
   37.4830   23.2920   32.0330 C   0  0  0  0  0  0  0  0  0  0  0  0
   37.8980   22.9030   33.3120 C   0  0  0  0  0  0  0  0  0  0  0  0
   37.9890   23.9110   34.2720 C   0  0  0  0  0  0  0  0  0  0  0  0
   37.6860   25.1850   33.9490 N   0  0  0  0  0  0  0  0  0  0  0  0
   37.2890   25.5150   32.6970 C   0  0  0  0  0  0  0  0  0  0  0  0
   37.1900   24.5690   31.7480 N   0  0  0  0  0  0  0  0  0  0  0  0
   37.4140   22.5040   31.2910 H   0  0  0  0  0  0  0  0  0  0  0  0
   38.1490   21.8950   33.6100 H   0  0  0  0  0  0  0  0  0  0  0  0
   37.2420   27.4200   31.1560 C   0  0  0  0  0  0  0  0  0  0  0  0
   36.9750   26.9220   32.4150 C   0  0  0  0  0  0  0  0  0  0  0  0
   36.4310   27.7230   33.3750 C   0  0  0  0  0  0  0  0  0  0  0  0
   36.1380   29.0370   33.1060 C   0  0  0  0  0  0  0  0  0  0  0  0
   35.6040   30.0260   33.8690 N   0  0  0  0  0  0  0  0  0  0  0  0
   35.5700   31.1030   33.0210 C   0  0  0  0  0  0  0  0  0  0  0  0
   36.0540   30.7860   31.8180 N   0  0  0  0  0  0  0  0  0  0  0  0
   36.4210   29.4930   31.8370 C   0  0  0  0  0  0  0  0  0  0  0  0
   36.9630   28.7380   30.8450 C   0  0  0  0  0  0  0  0  0  0  0  0
   37.6750   26.7870   30.3880 H   0  0  0  0  0  0  0  0  0  0  0  0
   36.2080   27.3620   34.3770 H   0  0  0  0  0  0  0  0  0  0  0  0
   35.2910   29.9810   34.8680 H   0  0  0  0  0  0  0  0  0  0  0  0
   35.1940   32.0850   33.3040 H   0  0  0  0  0  0  0  0  0  0  0  0
   37.1620   29.1570   29.8640 H   0  0  0  0  0  0  0  0  0  0  0  0
   38.4060   23.6810   35.6580 C   0  0  0  0  0  0  0  0  0  0  0  0
   37.7520   24.2170   36.7530 C   0  0  0  0  0  0  0  0  0  0  0  0
   38.1310   24.0110   38.0640 C   0  0  0  0  0  0  0  0  0  0  0  0
   39.2010   23.2430   38.2790 N   0  0  0  0  0  0  0  0  0  0  0  0
   39.8590   22.7070   37.2390 C   0  0  0  0  0  0  0  0  0  0  0  0
   39.4800   22.9160   35.9900 N   0  0  0  0  0  0  0  0  0  0  0  0
   36.8840   24.8390   36.5770 H   0  0  0  0  0  0  0  0  0  0  0  0
   37.5660   24.4650   38.8700 H   0  0  0  0  0  0  0  0  0  0  0  0
   41.0460   21.8560   37.5040 C   0  0  0  0  0  2  0  0  0  0  0  0
   42.2510   22.3140   36.7040 C   0  0  0  0  0  2  0  0  0  0  0  0
   41.9150   22.7910   35.7550 H   0  0  0  0  0  0  0  0  0  0  0  0
  1  2  1  0  0  0  0
  2  8  1  0  0  0  0
  2  3  2  0  0  0  0
  3 23  1  0  0  0  0
  4  3  1  0  0  0  0
  5  4  2  0  0  0  0
  6  1  2  0  0  0  0
  6  5  1  0  0  0  0
  7  1  1  0  0  0  0
  9 10  1  0  0  0  0
 10  5  1  0  0  0  0
 10 11  2  0  0  0  0
 11 19  1  0  0  0  0
 12 11  1  0  0  0  0
 12 13  1  0  0  0  0
 13 20  1  0  0  0  0
 14 21  1  0  0  0  0
 14 13  1  0  0  0  0
 15 16  1  0  0  0  0
 15 14  2  0  0  0  0
 16 12  2  0  0  0  0
 17  9  2  0  0  0  0
 17 16  1  0  0  0  0
 18  9  1  0  0  0  0
 22 17  1  0  0  0  0
 23 28  2  0  0  0  0
 23 24  1  0  0  0  0
 24 25  2  0  0  0  0
 25 26  1  0  0  0  0
 25 30  1  0  0  0  0
 27 31  1  0  0  0  0
 27 26  2  0  0  0  0
 28 27  1  0  0  0  0
 29 24  1  0  0  0  0
 32 31  1  0  0  0  0
 33 32  1  0  0  0  0
M  END
>  <minimizedAffinity>
-5.58889961

$$$$

 OpenBabel03272507083D

 33 36  0  0  0  0  0  0  0  0999 V2000
   36.2990   23.1550   31.7020 C   0  0  0  0  0  0  0  0  0  0  0  0
   37.1500   22.6110   32.6720 C   0  0  0  0  0  0  0  0  0  0  0  0
   37.7960   23.5170   33.5140 C   0  0  0  0  0  0  0  0  0  0  0  0
   37.5900   24.8430   33.3710 N   0  0  0  0  0  0  0  0  0  0  0  0
   36.7580   25.3230   32.4170 C   0  0  0  0  0  0  0  0  0  0  0  0
   36.1180   24.4790   31.5890 N   0  0  0  0  0  0  0  0  0  0  0  0
   35.8000   22.4460   31.0510 H   0  0  0  0  0  0  0  0  0  0  0  0
   37.3420   21.5580   32.8180 H   0  0  0  0  0  0  0  0  0  0  0  0
   36.4820   27.5140   33.4800 C   0  0  0  0  0  0  0  0  0  0  0  0
   36.5790   26.7770   32.3170 C   0  0  0  0  0  0  0  0  0  0  0  0
   36.5080   27.3920   31.1010 C   0  0  0  0  0  0  0  0  0  0  0  0
   36.3410   28.7510   31.0130 C   0  0  0  0  0  0  0  0  0  0  0  0
   36.2410   29.5900   29.9500 N   0  0  0  0  0  0  0  0  0  0  0  0
   36.0860   30.8240   30.5270 C   0  0  0  0  0  0  0  0  0  0  0  0
   36.0900   30.7380   31.8590 N   0  0  0  0  0  0  0  0  0  0  0  0
   36.2490   29.4470   32.1990 C   0  0  0  0  0  0  0  0  0  0  0  0
   36.3120   28.8850   33.4350 C   0  0  0  0  0  0  0  0  0  0  0  0
   36.5370   27.0300   34.4500 H   0  0  0  0  0  0  0  0  0  0  0  0
   36.5810   26.8410   30.1660 H   0  0  0  0  0  0  0  0  0  0  0  0
   36.2750   29.3550   28.9290 H   0  0  0  0  0  0  0  0  0  0  0  0
   35.9740   31.7480   29.9600 H   0  0  0  0  0  0  0  0  0  0  0  0
   36.2330   29.4900   34.3320 H   0  0  0  0  0  0  0  0  0  0  0  0
   38.7180   23.1210   34.5810 C   0  0  0  0  0  0  0  0  0  0  0  0
   39.9350   22.5050   34.3510 C   0  0  0  0  0  0  0  0  0  0  0  0
   40.8170   22.1260   35.3430 C   0  0  0  0  0  0  0  0  0  0  0  0
   40.4620   22.3740   36.6050 N   0  0  0  0  0  0  0  0  0  0  0  0
   39.2880   22.9700   36.8640 C   0  0  0  0  0  0  0  0  0  0  0  0
   38.4570   23.3260   35.9000 N   0  0  0  0  0  0  0  0  0  0  0  0
   40.2220   22.3050   33.3260 H   0  0  0  0  0  0  0  0  0  0  0  0
   41.7540   21.6480   35.0830 H   0  0  0  0  0  0  0  0  0  0  0  0
   38.9150   23.2360   38.2760 C   0  0  0  0  0  2  0  0  0  0  0  0
   37.9370   24.3900   38.3880 C   0  0  0  0  0  2  0  0  0  0  0  0
   38.0980   25.1040   37.5480 H   0  0  0  0  0  0  0  0  0  0  0  0
  1  2  1  0  0  0  0
  2  8  1  0  0  0  0
  2  3  2  0  0  0  0
  3 23  1  0  0  0  0
  4  3  1  0  0  0  0
  5  4  2  0  0  0  0
  6  1  2  0  0  0  0
  6  5  1  0  0  0  0
  7  1  1  0  0  0  0
  9 18  1  0  0  0  0
 10  5  1  0  0  0  0
 10  9  2  0  0  0  0
 11 10  1  0  0  0  0
 12 11  2  0  0  0  0
 12 16  1  0  0  0  0
 13 14  1  0  0  0  0
 13 12  1  0  0  0  0
 14 15  2  0  0  0  0
 15 16  1  0  0  0  0
 16 17  2  0  0  0  0
 17  9  1  0  0  0  0
 17 22  1  0  0  0  0
 19 11  1  0  0  0  0
 20 13  1  0  0  0  0
 21 14  1  0  0  0  0
 23 28  1  0  0  0  0
 24 23  2  0  0  0  0
 24 25  1  0  0  0  0
 25 26  2  0  0  0  0
 26 27  1  0  0  0  0
 27 31  1  0  0  0  0
 28 27  2  0  0  0  0
 29 24  1  0  0  0  0
 30 25  1  0  0  0  0
 31 32  1  0  0  0  0
 33 32  1  0  0  0  0
M  END
>  <minimizedAffinity>
-5.56529617

$$$$

 OpenBabel03272507083D

 33 36  0  0  0  0  0  0  0  0999 V2000
   39.4620   26.6450   31.5110 C   0  0  0  0  0  0  0  0  0  0  0  0
   39.4280   25.5360   32.3660 C   0  0  0  0  0  0  0  0  0  0  0  0
   38.3740   25.4830   33.2780 C   0  0  0  0  0  0  0  0  0  0  0  0
   37.4520   26.4680   33.3080 N   0  0  0  0  0  0  0  0  0  0  0  0
   37.5260   27.5230   32.4620 C   0  0  0  0  0  0  0  0  0  0  0  0
   38.5280   27.6060   31.5700 N   0  0  0  0  0  0  0  0  0  0  0  0
   40.2840   26.6800   30.8040 H   0  0  0  0  0  0  0  0  0  0  0  0
   40.1460   24.7280   32.3730 H   0  0  0  0  0  0  0  0  0  0  0  0
   35.8930   28.7990   33.7700 C   0  0  0  0  0  0  0  0  0  0  0  0
   36.4890   28.5590   32.5490 C   0  0  0  0  0  0  0  0  0  0  0  0
   36.1180   29.2710   31.4460 C   0  0  0  0  0  0  0  0  0  0  0  0
   35.1490   30.2390   31.5320 C   0  0  0  0  0  0  0  0  0  0  0  0
   34.6080   31.0720   30.6060 N   0  0  0  0  0  0  0  0  0  0  0  0
   33.6900   31.7960   31.3210 C   0  0  0  0  0  0  0  0  0  0  0  0
   33.6740   31.4240   32.6030 N   0  0  0  0  0  0  0  0  0  0  0  0
   34.5810   30.4450   32.7710 C   0  0  0  0  0  0  0  0  0  0  0  0
   34.9120   29.7640   33.8990 C   0  0  0  0  0  0  0  0  0  0  0  0
   36.1840   28.2350   34.6500 H   0  0  0  0  0  0  0  0  0  0  0  0
   36.5680   29.1070   30.4690 H   0  0  0  0  0  0  0  0  0  0  0  0
   34.8360   31.1480   29.5860 H   0  0  0  0  0  0  0  0  0  0  0  0
   33.0590   32.5720   30.8880 H   0  0  0  0  0  0  0  0  0  0  0  0
   34.4270   29.9750   34.8460 H   0  0  0  0  0  0  0  0  0  0  0  0
   38.1870   24.3980   34.2430 C   0  0  0  0  0  0  0  0  0  0  0  0
   38.1130   23.0630   33.8890 C   0  0  0  0  0  0  0  0  0  0  0  0
   37.9370   22.0270   34.7840 C   0  0  0  0  0  0  0  0  0  0  0  0
   37.8310   22.3460   36.0760 N   0  0  0  0  0  0  0  0  0  0  0  0
   37.8980   23.6310   36.4550 C   0  0  0  0  0  0  0  0  0  0  0  0
   38.0670   24.6090   35.5820 N   0  0  0  0  0  0  0  0  0  0  0  0
   38.1990   22.8050   32.8410 H   0  0  0  0  0  0  0  0  0  0  0  0
   37.8900   21.0040   34.4300 H   0  0  0  0  0  0  0  0  0  0  0  0
   37.7770   23.9610   37.8970 C   0  0  0  0  0  2  0  0  0  0  0  0
   38.9130   23.3610   38.7040 C   0  0  0  0  0  2  0  0  0  0  0  0
   39.2700   22.4260   38.2160 H   0  0  0  0  0  0  0  0  0  0  0  0
  1  6  2  0  0  0  0
  1  2  1  0  0  0  0
  2  8  1  0  0  0  0
  2  3  2  0  0  0  0
  3  4  1  0  0  0  0
  3 23  1  0  0  0  0
  5 10  1  0  0  0  0
  5  4  2  0  0  0  0
  6  5  1  0  0  0  0
  7  1  1  0  0  0  0
  9 17  1  0  0  0  0
  9 18  1  0  0  0  0
 10  9  2  0  0  0  0
 11 12  2  0  0  0  0
 11 10  1  0  0  0  0
 12 16  1  0  0  0  0
 13 14  1  0  0  0  0
 13 12  1  0  0  0  0
 14 15  2  0  0  0  0
 15 16  1  0  0  0  0
 16 17  2  0  0  0  0
 17 22  1  0  0  0  0
 19 11  1  0  0  0  0
 20 13  1  0  0  0  0
 21 14  1  0  0  0  0
 23 28  1  0  0  0  0
 24 23  2  0  0  0  0
 24 25  1  0  0  0  0
 25 26  2  0  0  0  0
 26 27  1  0  0  0  0
 27 31  1  0  0  0  0
 28 27  2  0  0  0  0
 29 24  1  0  0  0  0
 30 25  1  0  0  0  0
 31 32  1  0  0  0  0
 33 32  1  0  0  0  0
M  END
>  <minimizedAffinity>
-5.54716158

$$$$
