
 OpenBabel03272506473D

 36 38  0  0  1  0  0  0  0  0999 V2000
   32.1560   28.5350   47.4340 C   0  0  2  0  0  0  0  0  0  0  0  0
   33.4090   28.3410   48.2410 C   0  0  1  0  0  0  0  0  0  0  0  0
   33.7870   27.0380   48.1240 O   0  0  0  0  0  0  0  0  0  0  0  0
   33.0700   26.4390   47.0910 C   0  0  0  0  0  0  0  0  0  0  0  0
   32.4660   27.5480   46.2660 C   0  0  1  0  0  0  0  0  0  0  0  0
   31.2360   28.2190   47.9100 H   0  0  0  0  0  0  0  0  0  0  0  0
   33.2560   28.6570   49.3030 H   0  0  0  0  0  0  0  0  0  0  0  0
   32.3810   25.7430   47.5380 H   0  0  0  0  0  0  0  0  0  0  0  0
   33.8510   25.9180   46.4660 H   0  0  0  0  0  0  0  0  0  0  0  0
   33.1500   28.0480   45.5900 H   0  0  0  0  0  0  0  0  0  0  0  0
   32.0950   29.8430   46.9110 O   0  0  0  0  0  0  0  0  0  0  0  0
   32.4070   29.8480   45.9750 H   0  0  0  0  0  0  0  0  0  0  0  0
   34.7220   29.3810   47.4740 S   0  0  0  0  0  0  0  0  0  0  0  0
   37.1190   29.2960   50.6260 C   0  0  0  0  0  0  0  0  0  0  0  0
   37.6300   30.5940   50.7420 C   0  0  0  0  0  0  0  0  0  0  0  0
   37.2030   31.5240   49.7970 C   0  0  0  0  0  0  0  0  0  0  0  0
   36.3340   31.1390   48.8290 N   0  0  0  0  0  0  0  0  0  0  0  0
   35.8700   29.8680   48.7640 C   0  0  0  0  0  0  0  0  0  0  0  0
   36.2580   28.9340   49.6620 N   0  0  0  0  0  0  0  0  0  0  0  0
   37.4710   28.5900   51.3810 H   0  0  0  0  0  0  0  0  0  0  0  0
   38.3220   30.9020   51.5140 H   0  0  0  0  0  0  0  0  0  0  0  0
   37.5250   32.5520   49.7810 H   0  0  0  0  0  0  0  0  0  0  0  0
   31.3080   27.0860   45.6860 O   0  0  0  0  0  0  0  0  0  0  0  0
   29.8210   29.2320   44.3230 Cl  0  0  0  0  0  0  0  0  0  0  0  0
   29.2910   28.1960   45.6250 C   0  0  0  0  0  0  0  0  0  0  0  0
   30.0800   27.2120   46.1780 C   0  0  0  0  0  0  0  0  0  0  0  0
   29.5340   26.4300   47.1990 C   0  0  0  0  0  0  0  0  0  0  0  0
   28.2450   26.6420   47.6350 C   0  0  0  0  0  0  0  0  0  0  0  0
   27.4430   27.6280   47.0880 C   0  0  0  0  0  0  0  0  0  0  0  0
   27.9800   28.4130   46.0670 C   0  0  0  0  0  0  0  0  0  0  0  0
   30.0750   25.6370   47.6860 H   0  0  0  0  0  0  0  0  0  0  0  0
   27.7850   26.0700   48.4130 H   0  0  0  0  0  0  0  0  0  0  0  0
   26.4380   27.8090   47.4120 H   0  0  0  0  0  0  0  0  0  0  0  0
   27.1350   29.4650   45.4750 C   0  0  0  0  0  2  0  0  0  0  0  0
   27.0140   30.6310   46.4620 C   0  0  0  0  0  2  0  0  0  0  0  0
   26.0100   30.6020   46.9440 H   0  0  0  0  0  0  0  0  0  0  0  0
  1  6  1  1  0  0  0
  1  2  1  0  0  0  0
  2  7  1  1  0  0  0
  3  2  1  0  0  0  0
  4  8  1  0  0  0  0
  4  3  1  0  0  0  0
  5 10  1  6  0  0  0
  5  4  1  0  0  0  0
  5  1  1  0  0  0  0
  9  4  1  0  0  0  0
 11  1  1  0  0  0  0
 12 11  1  0  0  0  0
 13  2  1  0  0  0  0
 13 18  1  0  0  0  0
 14 15  1  0  0  0  0
 14 20  1  0  0  0  0
 15 21  1  0  0  0  0
 16 15  2  0  0  0  0
 17 16  1  0  0  0  0
 18 17  2  0  0  0  0
 18 19  1  0  0  0  0
 19 14  2  0  0  0  0
 22 16  1  0  0  0  0
 23 26  1  0  0  0  0
 23  5  1  0  0  0  0
 24 25  1  0  0  0  0
 25 30  2  0  0  0  0
 25 26  1  0  0  0  0
 26 27  2  0  0  0  0
 27 28  1  0  0  0  0
 27 31  1  0  0  0  0
 28 32  1  0  0  0  0
 29 33  1  0  0  0  0
 29 28  2  0  0  0  0
 30 29  1  0  0  0  0
 34 30  1  0  0  0  0
 34 35  1  0  0  0  0
 35 36  1  0  0  0  0
M  END
>  <minimizedAffinity>
-4.66706085

>  <minimizedRMSD>
0.275140256

$$$$
