
 OpenBabel03272506463D

 36 38  0  0  1  0  0  0  0  0999 V2000
   32.1560   28.5350   47.4330 C   0  0  2  0  0  0  0  0  0  0  0  0
   33.4090   28.3400   48.2400 C   0  0  1  0  0  0  0  0  0  0  0  0
   33.7880   27.0380   48.1210 O   0  0  0  0  0  0  0  0  0  0  0  0
   33.0710   26.4390   47.0880 C   0  0  0  0  0  0  0  0  0  0  0  0
   32.4660   27.5480   46.2640 C   0  0  1  0  0  0  0  0  0  0  0  0
   31.2360   28.2180   47.9090 H   0  0  0  0  0  0  0  0  0  0  0  0
   33.2560   28.6560   49.3020 H   0  0  0  0  0  0  0  0  0  0  0  0
   32.3810   25.7430   47.5350 H   0  0  0  0  0  0  0  0  0  0  0  0
   33.8520   25.9190   46.4620 H   0  0  0  0  0  0  0  0  0  0  0  0
   33.1500   28.0500   45.5880 H   0  0  0  0  0  0  0  0  0  0  0  0
   32.0950   29.8440   46.9110 O   0  0  0  0  0  0  0  0  0  0  0  0
   32.4060   29.8490   45.9750 H   0  0  0  0  0  0  0  0  0  0  0  0
   34.7220   29.3820   47.4730 S   0  0  0  0  0  0  0  0  0  0  0  0
   37.1170   29.2960   50.6260 C   0  0  0  0  0  0  0  0  0  0  0  0
   37.6290   30.5940   50.7420 C   0  0  0  0  0  0  0  0  0  0  0  0
   37.2040   31.5230   49.7960 C   0  0  0  0  0  0  0  0  0  0  0  0
   36.3340   31.1380   48.8280 N   0  0  0  0  0  0  0  0  0  0  0  0
   35.8700   29.8680   48.7630 C   0  0  0  0  0  0  0  0  0  0  0  0
   36.2560   28.9340   49.6620 N   0  0  0  0  0  0  0  0  0  0  0  0
   37.4680   28.5900   51.3820 H   0  0  0  0  0  0  0  0  0  0  0  0
   38.3210   30.9010   51.5140 H   0  0  0  0  0  0  0  0  0  0  0  0
   37.5260   32.5510   49.7800 H   0  0  0  0  0  0  0  0  0  0  0  0
   31.3080   27.0870   45.6830 O   0  0  0  0  0  0  0  0  0  0  0  0
   29.8190   29.2320   44.3220 Cl  0  0  0  0  0  0  0  0  0  0  0  0
   29.2900   28.1960   45.6240 C   0  0  0  0  0  0  0  0  0  0  0  0
   30.0800   27.2120   46.1760 C   0  0  0  0  0  0  0  0  0  0  0  0
   29.5350   26.4290   47.1980 C   0  0  0  0  0  0  0  0  0  0  0  0
   28.2460   26.6400   47.6340 C   0  0  0  0  0  0  0  0  0  0  0  0
   27.4430   27.6260   47.0870 C   0  0  0  0  0  0  0  0  0  0  0  0
   27.9790   28.4110   46.0660 C   0  0  0  0  0  0  0  0  0  0  0  0
   30.0760   25.6370   47.6840 H   0  0  0  0  0  0  0  0  0  0  0  0
   27.7860   26.0690   48.4120 H   0  0  0  0  0  0  0  0  0  0  0  0
   26.4380   27.8070   47.4110 H   0  0  0  0  0  0  0  0  0  0  0  0
   27.1330   29.4630   45.4750 C   0  0  0  0  0  2  0  0  0  0  0  0
   27.0170   30.6320   46.4580 C   0  0  0  0  0  2  0  0  0  0  0  0
   26.0140   30.6070   46.9440 H   0  0  0  0  0  0  0  0  0  0  0  0
  1  6  1  1  0  0  0
  1  2  1  0  0  0  0
  2  7  1  1  0  0  0
  3  2  1  0  0  0  0
  4  8  1  0  0  0  0
  4  3  1  0  0  0  0
  5 10  1  6  0  0  0
  5  4  1  0  0  0  0
  5  1  1  0  0  0  0
  9  4  1  0  0  0  0
 11  1  1  0  0  0  0
 12 11  1  0  0  0  0
 13  2  1  0  0  0  0
 13 18  1  0  0  0  0
 14 15  1  0  0  0  0
 14 20  1  0  0  0  0
 15 21  1  0  0  0  0
 16 15  2  0  0  0  0
 17 16  1  0  0  0  0
 18 17  2  0  0  0  0
 18 19  1  0  0  0  0
 19 14  2  0  0  0  0
 22 16  1  0  0  0  0
 23 26  1  0  0  0  0
 23  5  1  0  0  0  0
 24 25  1  0  0  0  0
 25 30  2  0  0  0  0
 25 26  1  0  0  0  0
 26 27  2  0  0  0  0
 27 28  1  0  0  0  0
 27 31  1  0  0  0  0
 28 32  1  0  0  0  0
 29 33  1  0  0  0  0
 29 28  2  0  0  0  0
 30 29  1  0  0  0  0
 34 30  1  0  0  0  0
 34 35  1  0  0  0  0
 35 36  1  0  0  0  0
M  END
>  <minimizedAffinity>
-4.66759777

>  <minimizedRMSD>
0.0936686024

$$$$
