
 OpenBabel03272506463D

 36 38  0  0  1  0  0  0  0  0999 V2000
   31.9710   28.4290   47.4560 C   0  0  2  0  0  0  0  0  0  0  0  0
   33.2300   28.1910   48.2420 C   0  0  1  0  0  0  0  0  0  0  0  0
   33.5580   26.8740   48.1230 O   0  0  0  0  0  0  0  0  0  0  0  0
   32.8020   26.3000   47.1050 C   0  0  0  0  0  0  0  0  0  0  0  0
   32.2240   27.4270   46.2860 C   0  0  1  0  0  0  0  0  0  0  0  0
   31.0480   28.1480   47.9490 H   0  0  0  0  0  0  0  0  0  0  0  0
   33.1070   28.5160   49.3060 H   0  0  0  0  0  0  0  0  0  0  0  0
   32.0950   25.6300   47.5660 H   0  0  0  0  0  0  0  0  0  0  0  0
   33.5520   25.7490   46.4680 H   0  0  0  0  0  0  0  0  0  0  0  0
   32.9140   27.9010   45.5970 H   0  0  0  0  0  0  0  0  0  0  0  0
   31.9490   29.7370   46.9300 O   0  0  0  0  0  0  0  0  0  0  0  0
   32.2440   29.7270   45.9890 H   0  0  0  0  0  0  0  0  0  0  0  0
   34.5670   29.1800   47.4490 S   0  0  0  0  0  0  0  0  0  0  0  0
   36.9570   29.2570   50.6060 C   0  0  0  0  0  0  0  0  0  0  0  0
   37.3920   30.5830   50.7140 C   0  0  0  0  0  0  0  0  0  0  0  0
   36.9150   31.4790   49.7610 C   0  0  0  0  0  0  0  0  0  0  0  0
   36.0710   31.0370   48.7940 N   0  0  0  0  0  0  0  0  0  0  0  0
   35.6820   29.7420   48.7370 C   0  0  0  0  0  0  0  0  0  0  0  0
   36.1210   28.8380   49.6430 N   0  0  0  0  0  0  0  0  0  0  0  0
   37.3480   28.5770   51.3670 H   0  0  0  0  0  0  0  0  0  0  0  0
   38.0640   30.9350   51.4840 H   0  0  0  0  0  0  0  0  0  0  0  0
   37.1770   32.5240   49.7370 H   0  0  0  0  0  0  0  0  0  0  0  0
   31.0400   27.0070   45.7280 O   0  0  0  0  0  0  0  0  0  0  0  0
   29.6200   29.2020   44.3730 Cl  0  0  0  0  0  0  0  0  0  0  0  0
   29.0690   28.1970   45.6900 C   0  0  0  0  0  0  0  0  0  0  0  0
   29.8250   27.1850   46.2380 C   0  0  0  0  0  0  0  0  0  0  0  0
   29.2640   26.4330   47.2720 C   0  0  0  0  0  0  0  0  0  0  0  0
   27.9910   26.6990   47.7260 C   0  0  0  0  0  0  0  0  0  0  0  0
   27.2220   27.7130   47.1830 C   0  0  0  0  0  0  0  0  0  0  0  0
   27.7740   28.4690   46.1490 C   0  0  0  0  0  0  0  0  0  0  0  0
   29.7800   25.6210   47.7560 H   0  0  0  0  0  0  0  0  0  0  0  0
   27.5200   26.1520   48.5140 H   0  0  0  0  0  0  0  0  0  0  0  0
   26.2290   27.9370   47.5210 H   0  0  0  0  0  0  0  0  0  0  0  0
   26.9630   29.5510   45.5630 C   0  0  0  0  0  2  0  0  0  0  0  0
   26.9490   30.7490   46.5180 C   0  0  0  0  0  2  0  0  0  0  0  0
   25.9680   30.7910   47.0440 H   0  0  0  0  0  0  0  0  0  0  0  0
  1  6  1  1  0  0  0
  1  2  1  0  0  0  0
  2  7  1  1  0  0  0
  3  2  1  0  0  0  0
  4  8  1  0  0  0  0
  4  3  1  0  0  0  0
  5 10  1  6  0  0  0
  5  4  1  0  0  0  0
  5  1  1  0  0  0  0
  9  4  1  0  0  0  0
 11  1  1  0  0  0  0
 12 11  1  0  0  0  0
 13  2  1  0  0  0  0
 13 18  1  0  0  0  0
 14 15  1  0  0  0  0
 14 20  1  0  0  0  0
 15 21  1  0  0  0  0
 16 15  2  0  0  0  0
 17 16  1  0  0  0  0
 18 17  2  0  0  0  0
 18 19  1  0  0  0  0
 19 14  2  0  0  0  0
 22 16  1  0  0  0  0
 23 26  1  0  0  0  0
 23  5  1  0  0  0  0
 24 25  1  0  0  0  0
 25 30  2  0  0  0  0
 25 26  1  0  0  0  0
 26 27  2  0  0  0  0
 27 28  1  0  0  0  0
 27 31  1  0  0  0  0
 28 32  1  0  0  0  0
 29 33  1  0  0  0  0
 29 28  2  0  0  0  0
 30 29  1  0  0  0  0
 34 30  1  0  0  0  0
 34 35  1  0  0  0  0
 35 36  1  0  0  0  0
M  END
>  <minimizedAffinity>
-4.68071318

>  <minimizedRMSD>
0.434937686

$$$$
