
 OpenBabel03262520093D

 22 23  0  0  0  0  0  0  0  0999 V2000
   38.5520   24.1490   33.2950 Br  0  0  0  0  0  0  0  0  0  0  0  0
   37.3420   22.6820   33.4840 C   0  0  0  0  0  0  0  0  0  0  0  0
   37.2730   21.9630   34.6650 C   0  0  0  0  0  0  0  0  0  0  0  0
   36.3780   20.9290   34.7360 C   0  0  0  0  0  0  0  0  0  0  0  0
   35.5430   20.5610   33.6980 C   0  0  0  0  0  0  0  0  0  0  0  0
   35.6320   21.2960   32.5290 C   0  0  0  0  0  0  0  0  0  0  0  0
   36.5400   22.3570   32.4380 C   0  0  0  0  0  0  0  0  0  0  0  0
   36.3650   20.3950   35.6910 H   0  0  0  0  0  0  0  0  0  0  0  0
   34.8510   19.7310   33.8120 H   0  0  0  0  0  0  0  0  0  0  0  0
   34.9930   21.0300   31.7090 H   0  0  0  0  0  0  0  0  0  0  0  0
   38.3640   23.3560   37.8550 C   0  0  0  0  0  0  0  0  0  0  0  0
   39.7250   22.9990   37.9510 C   0  0  0  0  0  0  0  0  0  0  0  0
   40.2510   22.2680   36.8920 C   0  0  0  0  0  0  0  0  0  0  0  0
   39.4460   21.9350   35.8340 N   0  0  0  0  0  0  0  0  0  0  0  0
   38.1370   22.3090   35.7970 C   0  0  0  0  0  0  0  0  0  0  0  0
   37.5970   23.0220   36.8130 N   0  0  0  0  0  0  0  0  0  0  0  0
   38.0370   23.9170   38.7090 H   0  0  0  0  0  0  0  0  0  0  0  0
   40.4510   23.1930   38.7110 H   0  0  0  0  0  0  0  0  0  0  0  0
   41.2320   21.8720   36.7050 H   0  0  0  0  0  0  0  0  0  0  0  0
   36.5430   23.0750   31.1180 C   0  0  0  0  0  2  0  0  0  0  0  0
   35.5250   24.1920   31.0790 C   0  0  0  0  0  2  0  0  0  0  0  0
   35.0990   24.2160   30.0560 H   0  0  0  0  0  0  0  0  0  0  0  0
  1  2  1  0  0  0  0
  2  3  1  0  0  0  0
  3  4  2  0  0  0  0
  3 15  1  0  0  0  0
  4  8  1  0  0  0  0
  5  9  1  0  0  0  0
  5  4  1  0  0  0  0
  6  5  2  0  0  0  0
  7  6  1  0  0  0  0
  7  2  2  0  0  0  0
 10  6  1  0  0  0  0
 11 12  1  0  0  0  0
 11 17  1  0  0  0  0
 12 18  1  0  0  0  0
 13 12  2  0  0  0  0
 14 13  1  0  0  0  0
 15 14  2  0  0  0  0
 15 16  1  0  0  0  0
 16 11  2  0  0  0  0
 19 13  1  0  0  0  0
 20  7  1  0  0  0  0
 21 20  1  0  0  0  0
 22 21  1  0  0  0  0
M  END
>  <minimizedAffinity>
-4.46120977

$$$$

 OpenBabel03262520093D

 22 23  0  0  0  0  0  0  0  0999 V2000
   40.8940   24.4990   34.3200 Br  0  0  0  0  0  0  0  0  0  0  0  0
   39.8480   24.0550   35.8570 C   0  0  0  0  0  0  0  0  0  0  0  0
   38.5650   24.5530   36.0150 C   0  0  0  0  0  0  0  0  0  0  0  0
   37.8680   24.1890   37.1340 C   0  0  0  0  0  0  0  0  0  0  0  0
   38.3690   23.3550   38.1170 C   0  0  0  0  0  0  0  0  0  0  0  0
   39.6520   22.8710   37.9340 C   0  0  0  0  0  0  0  0  0  0  0  0
   40.3800   23.2320   36.7950 C   0  0  0  0  0  0  0  0  0  0  0  0
   36.8610   24.6120   37.2090 H   0  0  0  0  0  0  0  0  0  0  0  0
   37.7680   23.0990   38.9850 H   0  0  0  0  0  0  0  0  0  0  0  0
   40.0630   22.2200   38.6820 H   0  0  0  0  0  0  0  0  0  0  0  0
   37.3100   27.5870   34.4220 C   0  0  0  0  0  0  0  0  0  0  0  0
   36.8880   27.1670   33.1440 C   0  0  0  0  0  0  0  0  0  0  0  0
   37.0480   25.8180   32.8480 C   0  0  0  0  0  0  0  0  0  0  0  0
   37.5950   24.9810   33.7860 N   0  0  0  0  0  0  0  0  0  0  0  0
   37.9860   25.4440   35.0050 C   0  0  0  0  0  0  0  0  0  0  0  0
   37.8420   26.7530   35.3210 N   0  0  0  0  0  0  0  0  0  0  0  0
   37.1530   28.6370   34.5700 H   0  0  0  0  0  0  0  0  0  0  0  0
   36.4520   27.7110   32.3330 H   0  0  0  0  0  0  0  0  0  0  0  0
   36.8190   25.2380   31.9730 H   0  0  0  0  0  0  0  0  0  0  0  0
   41.7600   22.6430   36.7140 C   0  0  0  0  0  2  0  0  0  0  0  0
   41.8270   21.2690   37.3440 C   0  0  0  0  0  2  0  0  0  0  0  0
   42.8110   21.1840   37.8480 H   0  0  0  0  0  0  0  0  0  0  0  0
  1  2  1  0  0  0  0
  2  3  2  0  0  0  0
  2  7  1  0  0  0  0
  3  4  1  0  0  0  0
  4  8  1  0  0  0  0
  4  5  2  0  0  0  0
  5  9  1  0  0  0  0
  6  5  1  0  0  0  0
  6 10  1  0  0  0  0
  7  6  2  0  0  0  0
 11 17  1  0  0  0  0
 11 16  1  0  0  0  0
 12 11  2  0  0  0  0
 13 12  1  0  0  0  0
 13 14  2  0  0  0  0
 14 15  1  0  0  0  0
 15 16  2  0  0  0  0
 15  3  1  0  0  0  0
 18 12  1  0  0  0  0
 19 13  1  0  0  0  0
 20  7  1  0  0  0  0
 20 21  1  0  0  0  0
 21 22  1  0  0  0  0
M  END
>  <minimizedAffinity>
-4.45683146

$$$$

 OpenBabel03262520093D

 22 23  0  0  0  0  0  0  0  0999 V2000
   38.0200   23.5010   33.3530 Br  0  0  0  0  0  0  0  0  0  0  0  0
   37.9370   25.2170   34.1900 C   0  0  0  0  0  0  0  0  0  0  0  0
   38.5690   25.4520   35.3990 C   0  0  0  0  0  0  0  0  0  0  0  0
   38.4760   26.7060   35.9390 C   0  0  0  0  0  0  0  0  0  0  0  0
   37.7880   27.7500   35.3500 C   0  0  0  0  0  0  0  0  0  0  0  0
   37.1650   27.4880   34.1420 C   0  0  0  0  0  0  0  0  0  0  0  0
   37.2490   26.2120   33.5740 C   0  0  0  0  0  0  0  0  0  0  0  0
   38.9940   26.8370   36.8950 H   0  0  0  0  0  0  0  0  0  0  0  0
   37.7490   28.7260   35.8250 H   0  0  0  0  0  0  0  0  0  0  0  0
   36.6240   28.2820   33.6640 H   0  0  0  0  0  0  0  0  0  0  0  0
   39.4020   22.8210   37.7860 C   0  0  0  0  0  0  0  0  0  0  0  0
   40.6720   22.3630   37.3790 C   0  0  0  0  0  0  0  0  0  0  0  0
   41.2290   22.9820   36.2650 C   0  0  0  0  0  0  0  0  0  0  0  0
   40.5370   23.9800   35.6300 N   0  0  0  0  0  0  0  0  0  0  0  0
   39.3120   24.3810   36.0690 C   0  0  0  0  0  0  0  0  0  0  0  0
   38.7450   23.7970   37.1510 N   0  0  0  0  0  0  0  0  0  0  0  0
   39.0450   22.2950   38.6490 H   0  0  0  0  0  0  0  0  0  0  0  0
   41.3080   21.6030   37.7810 H   0  0  0  0  0  0  0  0  0  0  0  0
   42.1600   22.8370   35.7490 H   0  0  0  0  0  0  0  0  0  0  0  0
   36.5300   26.0540   32.2650 C   0  0  0  0  0  2  0  0  0  0  0  0
   35.9250   27.3570   31.7900 C   0  0  0  0  0  2  0  0  0  0  0  0
   34.9570   27.1160   31.3080 H   0  0  0  0  0  0  0  0  0  0  0  0
  1  2  1  0  0  0  0
  2  3  1  0  0  0  0
  3  4  2  0  0  0  0
  3 15  1  0  0  0  0
  4  8  1  0  0  0  0
  5  9  1  0  0  0  0
  5  4  1  0  0  0  0
  6  5  2  0  0  0  0
  7  6  1  0  0  0  0
  7  2  2  0  0  0  0
 10  6  1  0  0  0  0
 11 17  1  0  0  0  0
 12 18  1  0  0  0  0
 12 11  1  0  0  0  0
 13 12  2  0  0  0  0
 14 15  2  0  0  0  0
 14 13  1  0  0  0  0
 15 16  1  0  0  0  0
 16 11  2  0  0  0  0
 19 13  1  0  0  0  0
 20  7  1  0  0  0  0
 21 20  1  0  0  0  0
 22 21  1  0  0  0  0
M  END
>  <minimizedAffinity>
-4.36380529

$$$$

 OpenBabel03262520093D

 22 23  0  0  0  0  0  0  0  0999 V2000
   38.5830   27.0480   35.6400 Br  0  0  0  0  0  0  0  0  0  0  0  0
   38.1660   25.7030   34.3480 C   0  0  0  0  0  0  0  0  0  0  0  0
   38.1480   24.3620   34.6950 C   0  0  0  0  0  0  0  0  0  0  0  0
   37.8330   23.4520   33.7230 C   0  0  0  0  0  0  0  0  0  0  0  0
   37.5340   23.7910   32.4170 C   0  0  0  0  0  0  0  0  0  0  0  0
   37.5590   25.1370   32.0980 C   0  0  0  0  0  0  0  0  0  0  0  0
   37.8780   26.0830   33.0770 C   0  0  0  0  0  0  0  0  0  0  0  0
   37.8340   22.4070   34.0510 H   0  0  0  0  0  0  0  0  0  0  0  0
   37.2900   23.0240   31.6870 H   0  0  0  0  0  0  0  0  0  0  0  0
   37.3290   25.4260   31.0890 H   0  0  0  0  0  0  0  0  0  0  0  0
   37.7740   23.7700   38.2760 C   0  0  0  0  0  0  0  0  0  0  0  0
   38.9980   23.1910   38.6690 C   0  0  0  0  0  0  0  0  0  0  0  0
   39.9480   23.0090   37.6700 C   0  0  0  0  0  0  0  0  0  0  0  0
   39.6610   23.3910   36.3860 N   0  0  0  0  0  0  0  0  0  0  0  0
   38.4600   23.9460   36.0650 C   0  0  0  0  0  0  0  0  0  0  0  0
   37.5140   24.1350   37.0160 N   0  0  0  0  0  0  0  0  0  0  0  0
   37.0980   23.8750   39.1010 H   0  0  0  0  0  0  0  0  0  0  0  0
   39.3420   22.8530   39.6230 H   0  0  0  0  0  0  0  0  0  0  0  0
   40.9420   22.6020   37.6860 H   0  0  0  0  0  0  0  0  0  0  0  0
   37.8730   27.5090   32.6050 C   0  0  0  0  0  2  0  0  0  0  0  0
   36.4760   28.0880   32.5640 C   0  0  0  0  0  2  0  0  0  0  0  0
   36.4190   28.7520   31.6800 H   0  0  0  0  0  0  0  0  0  0  0  0
  2  3  1  0  0  0  0
  2  1  1  0  0  0  0
  3 15  1  0  0  0  0
  4  8  1  0  0  0  0
  4  3  2  0  0  0  0
  5  4  1  0  0  0  0
  6  5  2  0  0  0  0
  6  7  1  0  0  0  0
  7  2  2  0  0  0  0
  9  5  1  0  0  0  0
 10  6  1  0  0  0  0
 11 12  1  0  0  0  0
 11 17  1  0  0  0  0
 12 18  1  0  0  0  0
 13 19  1  0  0  0  0
 13 12  2  0  0  0  0
 14 13  1  0  0  0  0
 15 14  2  0  0  0  0
 15 16  1  0  0  0  0
 16 11  2  0  0  0  0
 20  7  1  0  0  0  0
 21 20  1  0  0  0  0
 22 21  1  0  0  0  0
M  END
>  <minimizedAffinity>
-4.34736919

$$$$

 OpenBabel03262520093D

 22 23  0  0  0  0  0  0  0  0999 V2000
   32.4290   29.4230   34.2240 Br  0  0  0  0  0  0  0  0  0  0  0  0
   33.4980   30.5530   35.3330 C   0  0  0  0  0  0  0  0  0  0  0  0
   34.8570   30.6970   35.1060 C   0  0  0  0  0  0  0  0  0  0  0  0
   35.5620   31.5290   35.9330 C   0  0  0  0  0  0  0  0  0  0  0  0
   34.9980   32.2320   36.9820 C   0  0  0  0  0  0  0  0  0  0  0  0
   33.6390   32.0700   37.1870 C   0  0  0  0  0  0  0  0  0  0  0  0
   32.9020   31.2240   36.3520 C   0  0  0  0  0  0  0  0  0  0  0  0
   36.6300   31.6050   35.7090 H   0  0  0  0  0  0  0  0  0  0  0  0
   35.6080   32.8790   37.6060 H   0  0  0  0  0  0  0  0  0  0  0  0
   33.1780   32.6060   37.9950 H   0  0  0  0  0  0  0  0  0  0  0  0
   36.5890   28.0530   33.2840 C   0  0  0  0  0  0  0  0  0  0  0  0
   36.7510   28.5680   31.9810 C   0  0  0  0  0  0  0  0  0  0  0  0
   36.2480   29.8430   31.7500 C   0  0  0  0  0  0  0  0  0  0  0  0
   35.6340   30.5230   32.7700 N   0  0  0  0  0  0  0  0  0  0  0  0
   35.5060   29.9740   34.0090 C   0  0  0  0  0  0  0  0  0  0  0  0
   35.9870   28.7330   34.2640 N   0  0  0  0  0  0  0  0  0  0  0  0
   37.0030   27.0690   33.3790 H   0  0  0  0  0  0  0  0  0  0  0  0
   37.2040   28.1460   31.1090 H   0  0  0  0  0  0  0  0  0  0  0  0
   36.2330   30.4660   30.8740 H   0  0  0  0  0  0  0  0  0  0  0  0
   31.4380   31.1320   36.6790 C   0  0  0  0  0  2  0  0  0  0  0  0
   30.7060   32.4170   36.3640 C   0  0  0  0  0  2  0  0  0  0  0  0
   29.9390   32.5620   37.1500 H   0  0  0  0  0  0  0  0  0  0  0  0
  1  2  1  0  0  0  0
  2  7  1  0  0  0  0
  3  2  2  0  0  0  0
  3  4  1  0  0  0  0
  4  5  2  0  0  0  0
  5  6  1  0  0  0  0
  5  9  1  0  0  0  0
  6 10  1  0  0  0  0
  7 20  1  0  0  0  0
  7  6  2  0  0  0  0
  8  4  1  0  0  0  0
 11 17  1  0  0  0  0
 11 16  1  0  0  0  0
 12 11  2  0  0  0  0
 13 12  1  0  0  0  0
 13 14  2  0  0  0  0
 14 15  1  0  0  0  0
 15 16  2  0  0  0  0
 15  3  1  0  0  0  0
 18 12  1  0  0  0  0
 19 13  1  0  0  0  0
 21 20  1  0  0  0  0
 21 22  1  0  0  0  0
M  END
>  <minimizedAffinity>
-4.29613781

$$$$

 OpenBabel03262520093D

 22 23  0  0  0  0  0  0  0  0999 V2000
   34.9520   29.7090   34.4670 Br  0  0  0  0  0  0  0  0  0  0  0  0
   34.2730   31.0030   35.6980 C   0  0  0  0  0  0  0  0  0  0  0  0
   33.0010   30.8790   36.2330 C   0  0  0  0  0  0  0  0  0  0  0  0
   32.5800   31.8370   37.1160 C   0  0  0  0  0  0  0  0  0  0  0  0
   33.3470   32.9200   37.5030 C   0  0  0  0  0  0  0  0  0  0  0  0
   34.6140   33.0180   36.9530 C   0  0  0  0  0  0  0  0  0  0  0  0
   35.0620   32.0490   36.0500 C   0  0  0  0  0  0  0  0  0  0  0  0
   31.5680   31.6910   37.5070 H   0  0  0  0  0  0  0  0  0  0  0  0
   32.9600   33.6490   38.2080 H   0  0  0  0  0  0  0  0  0  0  0  0
   35.2300   33.8500   37.2390 H   0  0  0  0  0  0  0  0  0  0  0  0
   30.6700   28.8250   34.3210 C   0  0  0  0  0  0  0  0  0  0  0  0
   30.5020   27.6610   35.1000 C   0  0  0  0  0  0  0  0  0  0  0  0
   31.2120   27.6050   36.2940 C   0  0  0  0  0  0  0  0  0  0  0  0
   32.0210   28.6530   36.6490 N   0  0  0  0  0  0  0  0  0  0  0  0
   32.1430   29.7520   35.8560 C   0  0  0  0  0  0  0  0  0  0  0  0
   31.4640   29.8350   34.6870 N   0  0  0  0  0  0  0  0  0  0  0  0
   30.0900   28.7900   33.4200 H   0  0  0  0  0  0  0  0  0  0  0  0
   29.9110   26.7850   34.9370 H   0  0  0  0  0  0  0  0  0  0  0  0
   31.2720   26.8580   37.0630 H   0  0  0  0  0  0  0  0  0  0  0  0
   36.4520   32.2700   35.5240 C   0  0  0  0  0  2  0  0  0  0  0  0
   36.7370   33.7350   35.2750 C   0  0  0  0  0  2  0  0  0  0  0  0
   37.3650   33.7990   34.3640 H   0  0  0  0  0  0  0  0  0  0  0  0
  1  2  1  0  0  0  0
  2  7  2  0  0  0  0
  2  3  1  0  0  0  0
  3  4  2  0  0  0  0
  4  5  1  0  0  0  0
  4  8  1  0  0  0  0
  5  9  1  0  0  0  0
  6 10  1  0  0  0  0
  6  5  2  0  0  0  0
  7  6  1  0  0  0  0
 11 16  2  0  0  0  0
 11 12  1  0  0  0  0
 12 13  2  0  0  0  0
 13 14  1  0  0  0  0
 13 19  1  0  0  0  0
 15  3  1  0  0  0  0
 15 14  2  0  0  0  0
 16 15  1  0  0  0  0
 17 11  1  0  0  0  0
 18 12  1  0  0  0  0
 20  7  1  0  0  0  0
 21 20  1  0  0  0  0
 22 21  1  0  0  0  0
M  END
>  <minimizedAffinity>
-4.27826595

$$$$

 OpenBabel03262520093D

 22 23  0  0  0  0  0  0  0  0999 V2000
   34.9830   31.9030   32.3000 Br  0  0  0  0  0  0  0  0  0  0  0  0
   35.7400   30.2140   32.7760 C   0  0  0  0  0  0  0  0  0  0  0  0
   35.6460   29.7310   34.0710 C   0  0  0  0  0  0  0  0  0  0  0  0
   36.2030   28.5110   34.3430 C   0  0  0  0  0  0  0  0  0  0  0  0
   36.8550   27.7340   33.4020 C   0  0  0  0  0  0  0  0  0  0  0  0
   36.9340   28.2410   32.1170 C   0  0  0  0  0  0  0  0  0  0  0  0
   36.3700   29.4860   31.8200 C   0  0  0  0  0  0  0  0  0  0  0  0
   36.1010   28.1770   35.3800 H   0  0  0  0  0  0  0  0  0  0  0  0
   37.2780   26.7710   33.6750 H   0  0  0  0  0  0  0  0  0  0  0  0
   37.4340   27.6560   31.3680 H   0  0  0  0  0  0  0  0  0  0  0  0
   32.9900   31.0470   36.1970 C   0  0  0  0  0  0  0  0  0  0  0  0
   33.6370   31.9720   37.0410 C   0  0  0  0  0  0  0  0  0  0  0  0
   35.0070   32.1270   36.8590 C   0  0  0  0  0  0  0  0  0  0  0  0
   35.6480   31.3930   35.8950 N   0  0  0  0  0  0  0  0  0  0  0  0
   34.9690   30.5130   35.1080 C   0  0  0  0  0  0  0  0  0  0  0  0
   33.6340   30.3420   35.2630 N   0  0  0  0  0  0  0  0  0  0  0  0
   31.9390   30.9880   36.4000 H   0  0  0  0  0  0  0  0  0  0  0  0
   33.2580   32.5980   37.8220 H   0  0  0  0  0  0  0  0  0  0  0  0
   35.7350   32.7460   37.3500 H   0  0  0  0  0  0  0  0  0  0  0  0
   36.5250   29.9250   30.3910 C   0  0  0  0  0  2  0  0  0  0  0  0
   37.1640   28.8540   29.5360 C   0  0  0  0  0  2  0  0  0  0  0  0
   37.8250   29.3640   28.8080 H   0  0  0  0  0  0  0  0  0  0  0  0
  1  2  1  0  0  0  0
  2  3  1  0  0  0  0
  3  4  2  0  0  0  0
  3 15  1  0  0  0  0
  4  8  1  0  0  0  0
  5  9  1  0  0  0  0
  5  4  1  0  0  0  0
  6  5  2  0  0  0  0
  7  6  1  0  0  0  0
  7  2  2  0  0  0  0
 10  6  1  0  0  0  0
 11 17  1  0  0  0  0
 11 12  1  0  0  0  0
 12 18  1  0  0  0  0
 13 12  2  0  0  0  0
 13 19  1  0  0  0  0
 14 13  1  0  0  0  0
 15 16  1  0  0  0  0
 15 14  2  0  0  0  0
 16 11  2  0  0  0  0
 20  7  1  0  0  0  0
 21 20  1  0  0  0  0
 22 21  1  0  0  0  0
M  END
>  <minimizedAffinity>
-4.25016642

$$$$

 OpenBabel03262520093D

 22 23  0  0  0  0  0  0  0  0999 V2000
   38.2250   26.9610   35.9330 Br  0  0  0  0  0  0  0  0  0  0  0  0
   38.0930   25.1320   35.3960 C   0  0  0  0  0  0  0  0  0  0  0  0
   38.0700   24.7820   34.0550 C   0  0  0  0  0  0  0  0  0  0  0  0
   37.9820   23.4540   33.7400 C   0  0  0  0  0  0  0  0  0  0  0  0
   37.9140   22.4410   34.6780 C   0  0  0  0  0  0  0  0  0  0  0  0
   37.9390   22.8180   36.0100 C   0  0  0  0  0  0  0  0  0  0  0  0
   38.0290   24.1710   36.3520 C   0  0  0  0  0  0  0  0  0  0  0  0
   37.9670   23.2340   32.6670 H   0  0  0  0  0  0  0  0  0  0  0  0
   37.8470   21.4020   34.3690 H   0  0  0  0  0  0  0  0  0  0  0  0
   37.8890   22.0500   36.7580 H   0  0  0  0  0  0  0  0  0  0  0  0
   37.0020   27.2620   31.6010 C   0  0  0  0  0  0  0  0  0  0  0  0
   38.2030   27.7580   31.0530 C   0  0  0  0  0  0  0  0  0  0  0  0
   39.3830   27.2170   31.5510 C   0  0  0  0  0  0  0  0  0  0  0  0
   39.3270   26.2550   32.5260 N   0  0  0  0  0  0  0  0  0  0  0  0
   38.1370   25.8150   33.0180 C   0  0  0  0  0  0  0  0  0  0  0  0
   36.9710   26.3230   32.5520 N   0  0  0  0  0  0  0  0  0  0  0  0
   36.1410   27.7290   31.1650 H   0  0  0  0  0  0  0  0  0  0  0  0
   38.3800   28.4960   30.3000 H   0  0  0  0  0  0  0  0  0  0  0  0
   40.4160   27.4040   31.3210 H   0  0  0  0  0  0  0  0  0  0  0  0
   38.0460   24.4500   37.8290 C   0  0  0  0  0  2  0  0  0  0  0  0
   38.7720   23.3700   38.6000 C   0  0  0  0  0  2  0  0  0  0  0  0
   38.2330   23.2300   39.5580 H   0  0  0  0  0  0  0  0  0  0  0  0
  2  1  1  0  0  0  0
  2  7  1  0  0  0  0
  3  2  2  0  0  0  0
  4  3  1  0  0  0  0
  4  5  2  0  0  0  0
  5  6  1  0  0  0  0
  6  7  2  0  0  0  0
  6 10  1  0  0  0  0
  7 20  1  0  0  0  0
  8  4  1  0  0  0  0
  9  5  1  0  0  0  0
 11 16  1  0  0  0  0
 12 13  1  0  0  0  0
 12 11  2  0  0  0  0
 13 14  2  0  0  0  0
 14 15  1  0  0  0  0
 15  3  1  0  0  0  0
 16 15  2  0  0  0  0
 17 11  1  0  0  0  0
 18 12  1  0  0  0  0
 19 13  1  0  0  0  0
 20 21  1  0  0  0  0
 21 22  1  0  0  0  0
M  END
>  <minimizedAffinity>
-4.21146631

$$$$

 OpenBabel03262520093D

 22 23  0  0  0  0  0  0  0  0999 V2000
   40.5340   24.7630   34.1700 Br  0  0  0  0  0  0  0  0  0  0  0  0
   39.7660   24.1820   35.8210 C   0  0  0  0  0  0  0  0  0  0  0  0
   40.3920   23.2220   36.5990 C   0  0  0  0  0  0  0  0  0  0  0  0
   39.7920   22.8570   37.7740 C   0  0  0  0  0  0  0  0  0  0  0  0
   38.5990   23.3880   38.2280 C   0  0  0  0  0  0  0  0  0  0  0  0
   37.9960   24.3460   37.4320 C   0  0  0  0  0  0  0  0  0  0  0  0
   38.5940   24.7320   36.2280 C   0  0  0  0  0  0  0  0  0  0  0  0
   40.3280   22.0950   38.3490 H   0  0  0  0  0  0  0  0  0  0  0  0
   38.1700   23.0610   39.1710 H   0  0  0  0  0  0  0  0  0  0  0  0
   37.0690   24.7750   37.7630 H   0  0  0  0  0  0  0  0  0  0  0  0
   42.7380   20.9470   34.9780 C   0  0  0  0  0  0  0  0  0  0  0  0
   44.0110   21.4450   35.3250 C   0  0  0  0  0  0  0  0  0  0  0  0
   44.0370   22.5800   36.1270 C   0  0  0  0  0  0  0  0  0  0  0  0
   42.8570   23.1480   36.5320 N   0  0  0  0  0  0  0  0  0  0  0  0
   41.6570   22.6230   36.1650 C   0  0  0  0  0  0  0  0  0  0  0  0
   41.6000   21.5180   35.3840 N   0  0  0  0  0  0  0  0  0  0  0  0
   42.8060   20.0730   34.3610 H   0  0  0  0  0  0  0  0  0  0  0  0
   44.9930   21.1000   35.0780 H   0  0  0  0  0  0  0  0  0  0  0  0
   44.8460   23.1580   36.5330 H   0  0  0  0  0  0  0  0  0  0  0  0
   37.8400   25.7770   35.4540 C   0  0  0  0  0  2  0  0  0  0  0  0
   38.1910   27.1770   35.9040 C   0  0  0  0  0  2  0  0  0  0  0  0
   37.2630   27.7810   35.8580 H   0  0  0  0  0  0  0  0  0  0  0  0
  1  2  1  0  0  0  0
  2  7  2  0  0  0  0
  2  3  1  0  0  0  0
  3  4  2  0  0  0  0
  4  5  1  0  0  0  0
  4  8  1  0  0  0  0
  5  9  1  0  0  0  0
  6 10  1  0  0  0  0
  6  5  2  0  0  0  0
  7  6  1  0  0  0  0
 11 12  2  0  0  0  0
 11 16  1  0  0  0  0
 12 13  1  0  0  0  0
 13 14  2  0  0  0  0
 13 19  1  0  0  0  0
 15 14  1  0  0  0  0
 15  3  1  0  0  0  0
 16 15  2  0  0  0  0
 17 11  1  0  0  0  0
 18 12  1  0  0  0  0
 20 21  1  0  0  0  0
 20  7  1  0  0  0  0
 22 21  1  0  0  0  0
M  END
>  <minimizedAffinity>
-4.20003462

$$$$
