
 OpenBabel03272506493D

 36 38  0  0  1  0  0  0  0  0999 V2000
   36.6390   28.9050   32.0530 C   0  0  2  0  0  0  0  0  0  0  0  0
   37.1080   27.4770   31.9870 C   0  0  1  0  0  0  0  0  0  0  0  0
   37.2300   27.0150   33.2610 O   0  0  0  0  0  0  0  0  0  0  0  0
   36.6110   27.9030   34.1370 C   0  0  0  0  0  0  0  0  0  0  0  0
   35.7220   28.7990   33.3110 C   0  0  1  0  0  0  0  0  0  0  0  0
   37.4070   29.6420   32.2540 H   0  0  0  0  0  0  0  0  0  0  0  0
   38.0560   27.3940   31.3990 H   0  0  0  0  0  0  0  0  0  0  0  0
   37.3870   28.3890   34.7060 H   0  0  0  0  0  0  0  0  0  0  0  0
   35.9550   27.2550   34.7860 H   0  0  0  0  0  0  0  0  0  0  0  0
   34.7850   28.3560   32.9930 H   0  0  0  0  0  0  0  0  0  0  0  0
   35.8370   29.2210   30.9370 O   0  0  0  0  0  0  0  0  0  0  0  0
   34.8830   29.1530   31.1780 H   0  0  0  0  0  0  0  0  0  0  0  0
   35.7820   26.5040   31.1560 S   0  0  0  0  0  0  0  0  0  0  0  0
   37.9170   23.2000   30.6960 C   0  0  0  0  0  0  0  0  0  0  0  0
   37.0780   22.1540   31.0980 C   0  0  0  0  0  0  0  0  0  0  0  0
   35.8010   22.5030   31.5270 C   0  0  0  0  0  0  0  0  0  0  0  0
   35.4350   23.8100   31.5360 N   0  0  0  0  0  0  0  0  0  0  0  0
   36.2870   24.7830   31.1350 C   0  0  0  0  0  0  0  0  0  0  0  0
   37.5370   24.4880   30.7110 N   0  0  0  0  0  0  0  0  0  0  0  0
   38.9120   22.8950   30.3650 H   0  0  0  0  0  0  0  0  0  0  0  0
   37.3690   21.1120   31.0910 H   0  0  0  0  0  0  0  0  0  0  0  0
   35.0650   21.7900   31.8610 H   0  0  0  0  0  0  0  0  0  0  0  0
   35.6060   30.0140   33.9440 O   0  0  0  0  0  0  0  0  0  0  0  0
   36.4450   32.3160   35.5760 Cl  0  0  0  0  0  0  0  0  0  0  0  0
   34.9500   31.4170   35.6480 C   0  0  0  0  0  0  0  0  0  0  0  0
   34.6650   30.3560   34.8180 C   0  0  0  0  0  0  0  0  0  0  0  0
   33.4230   29.7300   34.9550 C   0  0  0  0  0  0  0  0  0  0  0  0
   32.5150   30.1670   35.8940 C   0  0  0  0  0  0  0  0  0  0  0  0
   32.7900   31.2320   36.7340 C   0  0  0  0  0  0  0  0  0  0  0  0
   34.0280   31.8620   36.6030 C   0  0  0  0  0  0  0  0  0  0  0  0
   33.1130   28.8980   34.3480 H   0  0  0  0  0  0  0  0  0  0  0  0
   31.5540   29.7210   36.0360 H   0  0  0  0  0  0  0  0  0  0  0  0
   32.0980   31.5880   37.4710 H   0  0  0  0  0  0  0  0  0  0  0  0
   34.3310   32.9980   37.4920 C   0  0  0  0  0  2  0  0  0  0  0  0
   33.2600   34.0790   37.3170 C   0  0  0  0  0  2  0  0  0  0  0  0
   33.6740   34.9140   36.7100 H   0  0  0  0  0  0  0  0  0  0  0  0
  1  6  1  1  0  0  0
  1  5  1  0  0  0  0
  2  7  1  6  0  0  0
  2  1  1  0  0  0  0
  2  3  1  0  0  0  0
  3  4  1  0  0  0  0
  4  8  1  0  0  0  0
  4  9  1  0  0  0  0
  5 10  1  6  0  0  0
  5 23  1  0  0  0  0
  5  4  1  0  0  0  0
 11 12  1  0  0  0  0
 11  1  1  0  0  0  0
 13  2  1  0  0  0  0
 14 19  2  0  0  0  0
 14 15  1  0  0  0  0
 15 16  2  0  0  0  0
 16 17  1  0  0  0  0
 16 22  1  0  0  0  0
 18 13  1  0  0  0  0
 18 17  2  0  0  0  0
 19 18  1  0  0  0  0
 20 14  1  0  0  0  0
 21 15  1  0  0  0  0
 23 26  1  0  0  0  0
 24 25  1  0  0  0  0
 25 30  1  0  0  0  0
 26 27  1  0  0  0  0
 26 25  2  0  0  0  0
 27 28  2  0  0  0  0
 28 32  1  0  0  0  0
 28 29  1  0  0  0  0
 29 33  1  0  0  0  0
 30 29  2  0  0  0  0
 30 34  1  0  0  0  0
 31 27  1  0  0  0  0
 35 34  1  0  0  0  0
 36 35  1  0  0  0  0
M  END
>  <minimizedAffinity>
-5.23562574

$$$$

 OpenBabel03272506493D

 36 38  0  0  1  0  0  0  0  0999 V2000
   37.9440   27.2880   33.0730 C   0  0  2  0  0  0  0  0  0  0  0  0
   38.7770   26.4530   34.0060 C   0  0  1  0  0  0  0  0  0  0  0  0
   38.7910   27.0680   35.2210 O   0  0  0  0  0  0  0  0  0  0  0  0
   37.8170   28.0620   35.2480 C   0  0  0  0  0  0  0  0  0  0  0  0
   36.8820   27.8030   34.0930 C   0  0  1  0  0  0  0  0  0  0  0  0
   38.4420   28.1470   32.6400 H   0  0  0  0  0  0  0  0  0  0  0  0
   39.8010   26.2860   33.5890 H   0  0  0  0  0  0  0  0  0  0  0  0
   38.3240   29.0120   35.2500 H   0  0  0  0  0  0  0  0  0  0  0  0
   37.2520   27.8820   36.2080 H   0  0  0  0  0  0  0  0  0  0  0  0
   36.1650   27.0030   34.2480 H   0  0  0  0  0  0  0  0  0  0  0  0
   37.2950   26.4760   32.1200 O   0  0  0  0  0  0  0  0  0  0  0  0
   36.3650   26.3030   32.4020 H   0  0  0  0  0  0  0  0  0  0  0  0
   37.9220   24.8330   34.2030 S   0  0  0  0  0  0  0  0  0  0  0  0
   39.7910   22.9310   37.1310 C   0  0  0  0  0  0  0  0  0  0  0  0
   39.0170   23.1540   38.2760 C   0  0  0  0  0  0  0  0  0  0  0  0
   37.8700   23.9280   38.1170 C   0  0  0  0  0  0  0  0  0  0  0  0
   37.5620   24.4190   36.8900 N   0  0  0  0  0  0  0  0  0  0  0  0
   38.3470   24.1720   35.8150 C   0  0  0  0  0  0  0  0  0  0  0  0
   39.4700   23.4250   35.9250 N   0  0  0  0  0  0  0  0  0  0  0  0
   40.6840   22.3210   37.2870 H   0  0  0  0  0  0  0  0  0  0  0  0
   39.2620   22.7630   39.2540 H   0  0  0  0  0  0  0  0  0  0  0  0
   37.1950   24.1690   38.9210 H   0  0  0  0  0  0  0  0  0  0  0  0
   36.3400   28.9990   33.6850 O   0  0  0  0  0  0  0  0  0  0  0  0
   36.0700   31.0420   35.7870 Cl  0  0  0  0  0  0  0  0  0  0  0  0
   34.8220   30.3250   34.7990 C   0  0  0  0  0  0  0  0  0  0  0  0
   35.0740   29.3770   33.8320 C   0  0  0  0  0  0  0  0  0  0  0  0
   33.9950   28.8950   33.0880 C   0  0  0  0  0  0  0  0  0  0  0  0
   32.7180   29.3580   33.3190 C   0  0  0  0  0  0  0  0  0  0  0  0
   32.4520   30.3090   34.2880 C   0  0  0  0  0  0  0  0  0  0  0  0
   33.5250   30.7960   35.0360 C   0  0  0  0  0  0  0  0  0  0  0  0
   34.0980   28.1590   32.3100 H   0  0  0  0  0  0  0  0  0  0  0  0
   31.8610   29.0190   32.7770 H   0  0  0  0  0  0  0  0  0  0  0  0
   31.4670   30.6830   34.4840 H   0  0  0  0  0  0  0  0  0  0  0  0
   33.2530   31.8110   36.0700 C   0  0  0  0  0  2  0  0  0  0  0  0
   32.6890   31.1240   37.3170 C   0  0  0  0  0  2  0  0  0  0  0  0
   31.5920   31.3020   37.3720 H   0  0  0  0  0  0  0  0  0  0  0  0
  1  6  1  6  0  0  0
  1  2  1  0  0  0  0
  1  5  1  0  0  0  0
  2  7  1  6  0  0  0
  2 13  1  0  0  0  0
  2  3  1  0  0  0  0
  3  4  1  0  0  0  0
  4  8  1  0  0  0  0
  4  9  1  0  0  0  0
  5 10  1  1  0  0  0
  5  4  1  0  0  0  0
 11 12  1  0  0  0  0
 11  1  1  0  0  0  0
 13 18  1  0  0  0  0
 14 20  1  0  0  0  0
 14 15  1  0  0  0  0
 15 21  1  0  0  0  0
 16 15  2  0  0  0  0
 16 22  1  0  0  0  0
 17 16  1  0  0  0  0
 18 19  1  0  0  0  0
 18 17  2  0  0  0  0
 19 14  2  0  0  0  0
 23 26  1  0  0  0  0
 23  5  1  0  0  0  0
 25 30  1  0  0  0  0
 25 24  1  0  0  0  0
 26 25  2  0  0  0  0
 27 28  2  0  0  0  0
 27 26  1  0  0  0  0
 28 29  1  0  0  0  0
 29 33  1  0  0  0  0
 29 30  2  0  0  0  0
 30 34  1  0  0  0  0
 31 27  1  0  0  0  0
 32 28  1  0  0  0  0
 34 35  1  0  0  0  0
 35 36  1  0  0  0  0
M  END
>  <minimizedAffinity>
-5.08492422

$$$$

 OpenBabel03272506493D

 36 38  0  0  1  0  0  0  0  0999 V2000
   36.8920   28.4350   31.6190 C   0  0  2  0  0  0  0  0  0  0  0  0
   37.1920   26.9850   31.8780 C   0  0  1  0  0  0  0  0  0  0  0  0
   37.2170   26.7950   33.2260 O   0  0  0  0  0  0  0  0  0  0  0  0
   36.6780   27.9110   33.8610 C   0  0  0  0  0  0  0  0  0  0  0  0
   35.9280   28.7000   32.8160 C   0  0  1  0  0  0  0  0  0  0  0  0
   37.7330   29.1120   31.7050 H   0  0  0  0  0  0  0  0  0  0  0  0
   38.1420   26.6760   31.3750 H   0  0  0  0  0  0  0  0  0  0  0  0
   37.4860   28.4210   34.3580 H   0  0  0  0  0  0  0  0  0  0  0  0
   35.9290   27.4910   34.5920 H   0  0  0  0  0  0  0  0  0  0  0  0
   34.9560   28.3030   32.5450 H   0  0  0  0  0  0  0  0  0  0  0  0
   36.1690   28.5900   30.4180 O   0  0  0  0  0  0  0  0  0  0  0  0
   35.2060   28.6780   30.6130 H   0  0  0  0  0  0  0  0  0  0  0  0
   35.7890   26.0050   31.1950 S   0  0  0  0  0  0  0  0  0  0  0  0
   37.9020   22.6960   30.6770 C   0  0  0  0  0  0  0  0  0  0  0  0
   37.0630   21.6490   31.0770 C   0  0  0  0  0  0  0  0  0  0  0  0
   35.7910   22.0000   31.5210 C   0  0  0  0  0  0  0  0  0  0  0  0
   35.4310   23.3090   31.5480 N   0  0  0  0  0  0  0  0  0  0  0  0
   36.2850   24.2810   31.1500 C   0  0  0  0  0  0  0  0  0  0  0  0
   37.5290   23.9850   30.7100 N   0  0  0  0  0  0  0  0  0  0  0  0
   38.8930   22.3890   30.3340 H   0  0  0  0  0  0  0  0  0  0  0  0
   37.3480   20.6060   31.0550 H   0  0  0  0  0  0  0  0  0  0  0  0
   35.0540   21.2870   31.8550 H   0  0  0  0  0  0  0  0  0  0  0  0
   35.9340   30.0270   33.1750 O   0  0  0  0  0  0  0  0  0  0  0  0
   33.0090   29.8770   32.8780 Cl  0  0  0  0  0  0  0  0  0  0  0  0
   33.9370   30.5570   34.1910 C   0  0  0  0  0  0  0  0  0  0  0  0
   35.3140   30.5590   34.2230 C   0  0  0  0  0  0  0  0  0  0  0  0
   35.9440   31.1110   35.3420 C   0  0  0  0  0  0  0  0  0  0  0  0
   35.2040   31.6360   36.3780 C   0  0  0  0  0  0  0  0  0  0  0  0
   33.8210   31.6390   36.3570 C   0  0  0  0  0  0  0  0  0  0  0  0
   33.1830   31.0900   35.2440 C   0  0  0  0  0  0  0  0  0  0  0  0
   37.0130   31.1520   35.4540 H   0  0  0  0  0  0  0  0  0  0  0  0
   35.6400   32.0690   37.2530 H   0  0  0  0  0  0  0  0  0  0  0  0
   33.2260   32.0420   37.1530 H   0  0  0  0  0  0  0  0  0  0  0  0
   31.7100   31.0880   35.2120 C   0  0  0  0  0  2  0  0  0  0  0  0
   31.1720   31.0560   36.6460 C   0  0  0  0  0  2  0  0  0  0  0  0
   30.8050   30.0320   36.8800 H   0  0  0  0  0  0  0  0  0  0  0  0
  1  6  1  1  0  0  0
  1  2  1  0  0  0  0
  1  5  1  0  0  0  0
  2  7  1  6  0  0  0
  2  3  1  0  0  0  0
  3  4  1  0  0  0  0
  4  8  1  0  0  0  0
  4  9  1  0  0  0  0
  5 10  1  6  0  0  0
  5 23  1  0  0  0  0
  5  4  1  0  0  0  0
 11 12  1  0  0  0  0
 11  1  1  0  0  0  0
 13  2  1  0  0  0  0
 14 19  2  0  0  0  0
 14 15  1  0  0  0  0
 15 16  2  0  0  0  0
 16 17  1  0  0  0  0
 16 22  1  0  0  0  0
 18 13  1  0  0  0  0
 18 17  2  0  0  0  0
 19 18  1  0  0  0  0
 20 14  1  0  0  0  0
 21 15  1  0  0  0  0
 23 26  1  0  0  0  0
 24 25  1  0  0  0  0
 25 26  2  0  0  0  0
 25 30  1  0  0  0  0
 26 27  1  0  0  0  0
 27 31  1  0  0  0  0
 27 28  2  0  0  0  0
 28 32  1  0  0  0  0
 29 28  1  0  0  0  0
 29 33  1  0  0  0  0
 30 29  2  0  0  0  0
 34 30  1  0  0  0  0
 34 35  1  0  0  0  0
 35 36  1  0  0  0  0
M  END
>  <minimizedAffinity>
-5.05477428

$$$$

 OpenBabel03272506493D

 36 38  0  0  1  0  0  0  0  0999 V2000
   37.6060   24.8760   31.2590 C   0  0  2  0  0  0  0  0  0  0  0  0
   37.6060   23.4120   31.6010 C   0  0  1  0  0  0  0  0  0  0  0  0
   38.1020   23.2750   32.8620 O   0  0  0  0  0  0  0  0  0  0  0  0
   38.1510   24.5230   33.4780 C   0  0  0  0  0  0  0  0  0  0  0  0
   37.2800   25.4540   32.6710 C   0  0  1  0  0  0  0  0  0  0  0  0
   38.5560   25.2840   30.9360 H   0  0  0  0  0  0  0  0  0  0  0  0
   38.1770   22.8220   30.8410 H   0  0  0  0  0  0  0  0  0  0  0  0
   39.1890   24.7970   33.5710 H   0  0  0  0  0  0  0  0  0  0  0  0
   37.6640   24.3650   34.4830 H   0  0  0  0  0  0  0  0  0  0  0  0
   36.2130   25.3440   32.8290 H   0  0  0  0  0  0  0  0  0  0  0  0
   36.5390   25.1860   30.3900 O   0  0  0  0  0  0  0  0  0  0  0  0
   35.7830   25.5560   30.9040 H   0  0  0  0  0  0  0  0  0  0  0  0
   35.8510   22.8530   31.6200 S   0  0  0  0  0  0  0  0  0  0  0  0
   36.2360   18.9910   30.8310 C   0  0  0  0  0  0  0  0  0  0  0  0
   35.8280   18.3290   31.9950 C   0  0  0  0  0  0  0  0  0  0  0  0
   35.4180   19.1270   33.0600 C   0  0  0  0  0  0  0  0  0  0  0  0
   35.4330   20.4770   32.9260 N   0  0  0  0  0  0  0  0  0  0  0  0
   35.8380   21.0660   31.7750 C   0  0  0  0  0  0  0  0  0  0  0  0
   36.2430   20.3290   30.7160 N   0  0  0  0  0  0  0  0  0  0  0  0
   36.5510   18.3390   30.0130 H   0  0  0  0  0  0  0  0  0  0  0  0
   35.8150   17.2530   32.1030 H   0  0  0  0  0  0  0  0  0  0  0  0
   35.0830   18.7360   34.0070 H   0  0  0  0  0  0  0  0  0  0  0  0
   37.7600   26.7350   32.8050 O   0  0  0  0  0  0  0  0  0  0  0  0
   37.6180   28.4270   30.4000 Cl  0  0  0  0  0  0  0  0  0  0  0  0
   36.9040   28.7030   31.9690 C   0  0  0  0  0  0  0  0  0  0  0  0
   37.0320   27.8260   33.0230 C   0  0  0  0  0  0  0  0  0  0  0  0
   36.3920   28.1450   34.2230 C   0  0  0  0  0  0  0  0  0  0  0  0
   35.6570   29.3040   34.3430 C   0  0  0  0  0  0  0  0  0  0  0  0
   35.5220   30.1920   33.2910 C   0  0  0  0  0  0  0  0  0  0  0  0
   36.1570   29.8810   32.0880 C   0  0  0  0  0  0  0  0  0  0  0  0
   36.4340   27.5180   35.0970 H   0  0  0  0  0  0  0  0  0  0  0  0
   35.1520   29.5910   35.2400 H   0  0  0  0  0  0  0  0  0  0  0  0
   34.9550   31.0990   33.3620 H   0  0  0  0  0  0  0  0  0  0  0  0
   36.0180   30.8200   30.9600 C   0  0  0  0  0  2  0  0  0  0  0  0
   36.6140   32.1750   31.3540 C   0  0  0  0  0  2  0  0  0  0  0  0
   35.7900   32.8900   31.5760 H   0  0  0  0  0  0  0  0  0  0  0  0
  1  6  1  6  0  0  0
  1  2  1  0  0  0  0
  1  5  1  0  0  0  0
  2  7  1  6  0  0  0
  2 13  1  0  0  0  0
  2  3  1  0  0  0  0
  3  4  1  0  0  0  0
  4  8  1  0  0  0  0
  4  9  1  0  0  0  0
  5 23  1  0  0  0  0
  5 10  1  1  0  0  0
  5  4  1  0  0  0  0
 11 12  1  0  0  0  0
 11  1  1  0  0  0  0
 13 18  1  0  0  0  0
 14 15  1  0  0  0  0
 15 21  1  0  0  0  0
 15 16  2  0  0  0  0
 16 22  1  0  0  0  0
 17 16  1  0  0  0  0
 18 17  2  0  0  0  0
 19 14  2  0  0  0  0
 19 18  1  0  0  0  0
 20 14  1  0  0  0  0
 23 26  1  0  0  0  0
 24 25  1  0  0  0  0
 25 30  2  0  0  0  0
 25 26  1  0  0  0  0
 26 27  2  0  0  0  0
 27 28  1  0  0  0  0
 27 31  1  0  0  0  0
 28 32  1  0  0  0  0
 29 33  1  0  0  0  0
 29 28  2  0  0  0  0
 30 29  1  0  0  0  0
 34 35  1  0  0  0  0
 34 30  1  0  0  0  0
 35 36  1  0  0  0  0
M  END
>  <minimizedAffinity>
-5.01990223

$$$$

 OpenBabel03272506493D

 36 38  0  0  1  0  0  0  0  0999 V2000
   36.9260   28.0700   32.7700 C   0  0  2  0  0  0  0  0  0  0  0  0
   36.2100   29.3070   32.3010 C   0  0  1  0  0  0  0  0  0  0  0  0
   36.0500   29.2140   30.9520 O   0  0  0  0  0  0  0  0  0  0  0  0
   36.3310   27.9140   30.5410 C   0  0  0  0  0  0  0  0  0  0  0  0
   36.3100   27.0420   31.7710 C   0  0  1  0  0  0  0  0  0  0  0  0
   38.0010   28.0710   32.6360 H   0  0  0  0  0  0  0  0  0  0  0  0
   36.7570   30.2300   32.6150 H   0  0  0  0  0  0  0  0  0  0  0  0
   37.2560   27.9430   29.9890 H   0  0  0  0  0  0  0  0  0  0  0  0
   35.4570   27.6260   29.8880 H   0  0  0  0  0  0  0  0  0  0  0  0
   35.3230   26.7830   32.1390 H   0  0  0  0  0  0  0  0  0  0  0  0
   36.5240   27.7240   34.0760 O   0  0  0  0  0  0  0  0  0  0  0  0
   35.8380   27.0160   34.0410 H   0  0  0  0  0  0  0  0  0  0  0  0
   34.5360   29.2940   33.0710 S   0  0  0  0  0  0  0  0  0  0  0  0
   35.8350   31.5520   36.0550 C   0  0  0  0  0  0  0  0  0  0  0  0
   34.6900   31.9210   36.7710 C   0  0  0  0  0  0  0  0  0  0  0  0
   33.4720   31.4410   36.2960 C   0  0  0  0  0  0  0  0  0  0  0  0
   33.4490   30.6570   35.1890 N   0  0  0  0  0  0  0  0  0  0  0  0
   34.5890   30.3310   34.5340 C   0  0  0  0  0  0  0  0  0  0  0  0
   35.7940   30.7750   34.9610 N   0  0  0  0  0  0  0  0  0  0  0  0
   36.7750   31.9430   36.4500 H   0  0  0  0  0  0  0  0  0  0  0  0
   34.7060   32.5450   37.6530 H   0  0  0  0  0  0  0  0  0  0  0  0
   32.5220   31.6550   36.7590 H   0  0  0  0  0  0  0  0  0  0  0  0
   37.1550   25.9760   31.5720 O   0  0  0  0  0  0  0  0  0  0  0  0
   38.9780   24.9260   33.6320 Cl  0  0  0  0  0  0  0  0  0  0  0  0
   37.6900   24.0980   32.7930 C   0  0  0  0  0  0  0  0  0  0  0  0
   36.8900   24.7030   31.8490 C   0  0  0  0  0  0  0  0  0  0  0  0
   35.8740   23.9420   31.2650 C   0  0  0  0  0  0  0  0  0  0  0  0
   35.6830   22.6270   31.6270 C   0  0  0  0  0  0  0  0  0  0  0  0
   36.4800   22.0090   32.5740 C   0  0  0  0  0  0  0  0  0  0  0  0
   37.4960   22.7610   33.1630 C   0  0  0  0  0  0  0  0  0  0  0  0
   35.2000   24.3320   30.5220 H   0  0  0  0  0  0  0  0  0  0  0  0
   34.9210   22.0060   31.2080 H   0  0  0  0  0  0  0  0  0  0  0  0
   36.3480   20.9870   32.8700 H   0  0  0  0  0  0  0  0  0  0  0  0
   38.3510   22.1130   34.1740 C   0  0  0  0  0  2  0  0  0  0  0  0
   37.5730   21.9850   35.4870 C   0  0  0  0  0  2  0  0  0  0  0  0
   37.9330   22.7540   36.2060 H   0  0  0  0  0  0  0  0  0  0  0  0
  1  6  1  6  0  0  0
  1 11  1  0  0  0  0
  2  7  1  1  0  0  0
  2  1  1  0  0  0  0
  2 13  1  0  0  0  0
  3  2  1  0  0  0  0
  4  3  1  0  0  0  0
  4  5  1  0  0  0  0
  5 10  1  1  0  0  0
  5  1  1  0  0  0  0
  8  4  1  0  0  0  0
  9  4  1  0  0  0  0
 12 11  1  0  0  0  0
 13 18  1  0  0  0  0
 14 20  1  0  0  0  0
 14 15  1  0  0  0  0
 15 21  1  0  0  0  0
 16 22  1  0  0  0  0
 16 15  2  0  0  0  0
 17 16  1  0  0  0  0
 18 19  1  0  0  0  0
 18 17  2  0  0  0  0
 19 14  2  0  0  0  0
 23  5  1  0  0  0  0
 23 26  1  0  0  0  0
 25 30  1  0  0  0  0
 25 24  1  0  0  0  0
 26 25  2  0  0  0  0
 27 28  2  0  0  0  0
 27 26  1  0  0  0  0
 28 29  1  0  0  0  0
 29 33  1  0  0  0  0
 29 30  2  0  0  0  0
 30 34  1  0  0  0  0
 31 27  1  0  0  0  0
 32 28  1  0  0  0  0
 34 35  1  0  0  0  0
 35 36  1  0  0  0  0
M  END
>  <minimizedAffinity>
-4.99641371

$$$$

 OpenBabel03272506493D

 36 38  0  0  1  0  0  0  0  0999 V2000
   37.3350   24.9200   30.8620 C   0  0  2  0  0  0  0  0  0  0  0  0
   37.4960   23.4500   31.1360 C   0  0  1  0  0  0  0  0  0  0  0  0
   38.3800   23.3080   32.1630 O   0  0  0  0  0  0  0  0  0  0  0  0
   38.5850   24.5440   32.7710 C   0  0  0  0  0  0  0  0  0  0  0  0
   37.4680   25.4530   32.3230 C   0  0  1  0  0  0  0  0  0  0  0  0
   38.1150   25.3740   30.2630 H   0  0  0  0  0  0  0  0  0  0  0  0
   37.8080   22.9020   30.2130 H   0  0  0  0  0  0  0  0  0  0  0  0
   39.5870   24.8590   32.5320 H   0  0  0  0  0  0  0  0  0  0  0  0
   38.4570   24.3440   33.8740 H   0  0  0  0  0  0  0  0  0  0  0  0
   36.5150   25.2950   32.8150 H   0  0  0  0  0  0  0  0  0  0  0  0
   36.0340   25.2030   30.3980 O   0  0  0  0  0  0  0  0  0  0  0  0
   35.4740   25.5290   31.1410 H   0  0  0  0  0  0  0  0  0  0  0  0
   35.8620   22.8170   31.7050 S   0  0  0  0  0  0  0  0  0  0  0  0
   37.0920   19.0830   31.2280 C   0  0  0  0  0  0  0  0  0  0  0  0
   36.0730   18.2820   31.7570 C   0  0  0  0  0  0  0  0  0  0  0  0
   34.9640   18.9430   32.2790 C   0  0  0  0  0  0  0  0  0  0  0  0
   34.9220   20.2990   32.2530 N   0  0  0  0  0  0  0  0  0  0  0  0
   35.9380   21.0250   31.7280 C   0  0  0  0  0  0  0  0  0  0  0  0
   37.0340   20.4240   31.2100 N   0  0  0  0  0  0  0  0  0  0  0  0
   37.9480   18.5360   30.8260 H   0  0  0  0  0  0  0  0  0  0  0  0
   36.1050   17.2020   31.7780 H   0  0  0  0  0  0  0  0  0  0  0  0
   34.1160   18.4390   32.7140 H   0  0  0  0  0  0  0  0  0  0  0  0
   37.9220   26.7510   32.3370 O   0  0  0  0  0  0  0  0  0  0  0  0
   36.7070   27.4420   34.9290 Cl  0  0  0  0  0  0  0  0  0  0  0  0
   36.5410   28.2600   33.3950 C   0  0  0  0  0  0  0  0  0  0  0  0
   37.1730   27.8450   32.2440 C   0  0  0  0  0  0  0  0  0  0  0  0
   36.9820   28.5980   31.0830 C   0  0  0  0  0  0  0  0  0  0  0  0
   36.1850   29.7210   31.0950 C   0  0  0  0  0  0  0  0  0  0  0  0
   35.5440   30.1470   32.2450 C   0  0  0  0  0  0  0  0  0  0  0  0
   35.7300   29.4020   33.4100 C   0  0  0  0  0  0  0  0  0  0  0  0
   37.4390   28.3510   30.1400 H   0  0  0  0  0  0  0  0  0  0  0  0
   36.0080   30.3270   30.2320 H   0  0  0  0  0  0  0  0  0  0  0  0
   34.9200   31.0180   32.2770 H   0  0  0  0  0  0  0  0  0  0  0  0
   35.0540   29.8480   34.6410 C   0  0  0  0  0  2  0  0  0  0  0  0
   35.8590   30.9840   35.2780 C   0  0  0  0  0  2  0  0  0  0  0  0
   36.4150   30.5930   36.1600 H   0  0  0  0  0  0  0  0  0  0  0  0
  1  6  1  6  0  0  0
  1  2  1  0  0  0  0
  1  5  1  0  0  0  0
  2  7  1  6  0  0  0
  2 13  1  0  0  0  0
  2  3  1  0  0  0  0
  3  4  1  0  0  0  0
  4  9  1  0  0  0  0
  5 23  1  0  0  0  0
  5  4  1  0  0  0  0
  5 10  1  1  0  0  0
  8  4  1  0  0  0  0
 11  1  1  0  0  0  0
 11 12  1  0  0  0  0
 13 18  1  0  0  0  0
 14 15  1  0  0  0  0
 15 21  1  0  0  0  0
 15 16  2  0  0  0  0
 16 22  1  0  0  0  0
 17 16  1  0  0  0  0
 18 17  2  0  0  0  0
 19 14  2  0  0  0  0
 19 18  1  0  0  0  0
 20 14  1  0  0  0  0
 25 30  1  0  0  0  0
 25 24  1  0  0  0  0
 26 23  1  0  0  0  0
 26 25  2  0  0  0  0
 27 28  2  0  0  0  0
 27 26  1  0  0  0  0
 28 29  1  0  0  0  0
 29 33  1  0  0  0  0
 29 30  2  0  0  0  0
 30 34  1  0  0  0  0
 31 27  1  0  0  0  0
 32 28  1  0  0  0  0
 34 35  1  0  0  0  0
 35 36  1  0  0  0  0
M  END
>  <minimizedAffinity>
-4.98708153

$$$$

 OpenBabel03272506493D

 36 38  0  0  1  0  0  0  0  0999 V2000
   38.4830   26.7280   33.7710 C   0  0  2  0  0  0  0  0  0  0  0  0
   37.5170   27.5180   32.9330 C   0  0  1  0  0  0  0  0  0  0  0  0
   36.8260   26.6430   32.1510 O   0  0  0  0  0  0  0  0  0  0  0  0
   37.0430   25.3450   32.6050 C   0  0  0  0  0  0  0  0  0  0  0  0
   37.6190   25.4490   33.9960 C   0  0  1  0  0  0  0  0  0  0  0  0
   39.4020   26.4340   33.2780 H   0  0  0  0  0  0  0  0  0  0  0  0
   38.0480   28.3060   32.3430 H   0  0  0  0  0  0  0  0  0  0  0  0
   37.6500   24.8420   31.8710 H   0  0  0  0  0  0  0  0  0  0  0  0
   36.0120   24.8930   32.6820 H   0  0  0  0  0  0  0  0  0  0  0  0
   36.9020   25.6740   34.7780 H   0  0  0  0  0  0  0  0  0  0  0  0
   38.6920   27.3530   35.0170 O   0  0  0  0  0  0  0  0  0  0  0  0
   38.1280   26.9300   35.7060 H   0  0  0  0  0  0  0  0  0  0  0  0
   36.3190   28.3150   34.0830 S   0  0  0  0  0  0  0  0  0  0  0  0
   34.8810   30.7500   31.3100 C   0  0  0  0  0  0  0  0  0  0  0  0
   33.5210   30.8950   31.6080 C   0  0  0  0  0  0  0  0  0  0  0  0
   33.0450   30.2030   32.7180 C   0  0  0  0  0  0  0  0  0  0  0  0
   33.8990   29.4380   33.4440 N   0  0  0  0  0  0  0  0  0  0  0  0
   35.2070   29.3340   33.1110 C   0  0  0  0  0  0  0  0  0  0  0  0
   35.7120   29.9890   32.0400 N   0  0  0  0  0  0  0  0  0  0  0  0
   35.2250   31.3050   30.4340 H   0  0  0  0  0  0  0  0  0  0  0  0
   32.8400   31.5050   31.0310 H   0  0  0  0  0  0  0  0  0  0  0  0
   32.0190   30.2330   33.0490 H   0  0  0  0  0  0  0  0  0  0  0  0
   38.4100   24.3490   34.2300 O   0  0  0  0  0  0  0  0  0  0  0  0
   41.2360   23.5230   34.1820 Cl  0  0  0  0  0  0  0  0  0  0  0  0
   40.1100   23.4790   35.5170 C   0  0  0  0  0  0  0  0  0  0  0  0
   38.8050   23.9070   35.4200 C   0  0  0  0  0  0  0  0  0  0  0  0
   38.0080   23.8460   36.5660 C   0  0  0  0  0  0  0  0  0  0  0  0
   38.5180   23.3710   37.7540 C   0  0  0  0  0  0  0  0  0  0  0  0
   39.8280   22.9390   37.8630 C   0  0  0  0  0  0  0  0  0  0  0  0
   40.6310   22.9970   36.7240 C   0  0  0  0  0  0  0  0  0  0  0  0
   36.9790   24.1620   36.5840 H   0  0  0  0  0  0  0  0  0  0  0  0
   37.9470   23.3050   38.6550 H   0  0  0  0  0  0  0  0  0  0  0  0
   40.2450   22.5660   38.7770 H   0  0  0  0  0  0  0  0  0  0  0  0
   42.0280   22.5390   36.8290 C   0  0  0  0  0  2  0  0  0  0  0  0
   42.0490   21.0560   37.2100 C   0  0  0  0  0  2  0  0  0  0  0  0
   42.3170   20.9550   38.2850 H   0  0  0  0  0  0  0  0  0  0  0  0
  1  6  1  6  0  0  0
  1  5  1  0  0  0  0
  1 11  1  0  0  0  0
  2  7  1  6  0  0  0
  2  1  1  0  0  0  0
  2 13  1  0  0  0  0
  3  4  1  0  0  0  0
  3  2  1  0  0  0  0
  4  9  1  0  0  0  0
  4  5  1  0  0  0  0
  5 23  1  0  0  0  0
  5 10  1  1  0  0  0
  8  4  1  0  0  0  0
 11 12  1  0  0  0  0
 14 15  2  0  0  0  0
 14 19  1  0  0  0  0
 15 16  1  0  0  0  0
 16 22  1  0  0  0  0
 16 17  2  0  0  0  0
 18 17  1  0  0  0  0
 18 13  1  0  0  0  0
 19 18  2  0  0  0  0
 20 14  1  0  0  0  0
 21 15  1  0  0  0  0
 23 26  1  0  0  0  0
 24 25  1  0  0  0  0
 25 30  1  0  0  0  0
 26 25  2  0  0  0  0
 26 27  1  0  0  0  0
 27 31  1  0  0  0  0
 27 28  2  0  0  0  0
 28 29  1  0  0  0  0
 28 32  1  0  0  0  0
 29 33  1  0  0  0  0
 30 34  1  0  0  0  0
 30 29  2  0  0  0  0
 34 35  1  0  0  0  0
 35 36  1  0  0  0  0
M  END
>  <minimizedAffinity>
-4.91552162

$$$$

 OpenBabel03272506493D

 36 38  0  0  1  0  0  0  0  0999 V2000
   35.6560   27.7560   31.8860 C   0  0  2  0  0  0  0  0  0  0  0  0
   36.4030   28.1250   30.6350 C   0  0  1  0  0  0  0  0  0  0  0  0
   36.1740   29.4430   30.3820 O   0  0  0  0  0  0  0  0  0  0  0  0
   35.5910   30.0350   31.5000 C   0  0  0  0  0  0  0  0  0  0  0  0
   35.8080   29.1000   32.6640 C   0  0  1  0  0  0  0  0  0  0  0  0
   34.5990   27.5540   31.7610 H   0  0  0  0  0  0  0  0  0  0  0  0
   36.1140   27.4600   29.7840 H   0  0  0  0  0  0  0  0  0  0  0  0
   34.5670   30.2590   31.2500 H   0  0  0  0  0  0  0  0  0  0  0  0
   36.1980   30.9680   31.6790 H   0  0  0  0  0  0  0  0  0  0  0  0
   36.8040   29.1160   33.0920 H   0  0  0  0  0  0  0  0  0  0  0  0
   36.3380   26.7460   32.5970 O   0  0  0  0  0  0  0  0  0  0  0  0
   36.8690   27.1470   33.3250 H   0  0  0  0  0  0  0  0  0  0  0  0
   38.2000   27.9220   30.9900 S   0  0  0  0  0  0  0  0  0  0  0  0
   40.1170   25.3120   28.7100 C   0  0  0  0  0  0  0  0  0  0  0  0
   39.5990   24.0590   29.0590 C   0  0  0  0  0  0  0  0  0  0  0  0
   38.6140   24.0390   30.0420 C   0  0  0  0  0  0  0  0  0  0  0  0
   38.2110   25.2060   30.6060 N   0  0  0  0  0  0  0  0  0  0  0  0
   38.7470   26.3910   30.2300 C   0  0  0  0  0  0  0  0  0  0  0  0
   39.7060   26.4560   29.2780 N   0  0  0  0  0  0  0  0  0  0  0  0
   40.8880   25.2950   27.9360 H   0  0  0  0  0  0  0  0  0  0  0  0
   39.9190   23.1290   28.6100 H   0  0  0  0  0  0  0  0  0  0  0  0
   38.1390   23.1390   30.3960 H   0  0  0  0  0  0  0  0  0  0  0  0
   34.7840   29.2700   33.5650 O   0  0  0  0  0  0  0  0  0  0  0  0
   32.1160   29.4190   34.8030 Cl  0  0  0  0  0  0  0  0  0  0  0  0
   33.5680   30.2860   35.2370 C   0  0  0  0  0  0  0  0  0  0  0  0
   34.7700   30.1240   34.5840 C   0  0  0  0  0  0  0  0  0  0  0  0
   35.8690   30.8560   35.0410 C   0  0  0  0  0  0  0  0  0  0  0  0
   35.7480   31.7140   36.1110 C   0  0  0  0  0  0  0  0  0  0  0  0
   34.5450   31.8860   36.7740 C   0  0  0  0  0  0  0  0  0  0  0  0
   33.4430   31.1580   36.3250 C   0  0  0  0  0  0  0  0  0  0  0  0
   36.8470   30.7890   34.5960 H   0  0  0  0  0  0  0  0  0  0  0  0
   36.5580   32.2950   36.4950 H   0  0  0  0  0  0  0  0  0  0  0  0
   34.4290   32.5490   37.6090 H   0  0  0  0  0  0  0  0  0  0  0  0
   32.1570   31.3330   37.0250 C   0  0  0  0  0  2  0  0  0  0  0  0
   31.5930   32.7210   36.7070 C   0  0  0  0  0  2  0  0  0  0  0  0
   31.7440   33.3910   37.5830 H   0  0  0  0  0  0  0  0  0  0  0  0
  1  6  1  6  0  0  0
  1 11  1  0  0  0  0
  1  5  1  0  0  0  0
  2  7  1  6  0  0  0
  2 13  1  0  0  0  0
  2  1  1  0  0  0  0
  3  2  1  0  0  0  0
  3  4  1  0  0  0  0
  4  9  1  0  0  0  0
  4  5  1  0  0  0  0
  5 10  1  1  0  0  0
  5 23  1  0  0  0  0
  8  4  1  0  0  0  0
 11 12  1  0  0  0  0
 14 15  2  0  0  0  0
 14 19  1  0  0  0  0
 15 16  1  0  0  0  0
 16 22  1  0  0  0  0
 16 17  2  0  0  0  0
 18 17  1  0  0  0  0
 18 13  1  0  0  0  0
 19 18  2  0  0  0  0
 20 14  1  0  0  0  0
 21 15  1  0  0  0  0
 23 26  1  0  0  0  0
 24 25  1  0  0  0  0
 25 30  1  0  0  0  0
 26 27  1  0  0  0  0
 26 25  2  0  0  0  0
 27 28  2  0  0  0  0
 28 32  1  0  0  0  0
 28 29  1  0  0  0  0
 29 33  1  0  0  0  0
 30 29  2  0  0  0  0
 30 34  1  0  0  0  0
 31 27  1  0  0  0  0
 35 34  1  0  0  0  0
 35 36  1  0  0  0  0
M  END
>  <minimizedAffinity>
-4.85112953

$$$$

 OpenBabel03272506493D

 36 38  0  0  1  0  0  0  0  0999 V2000
   36.9550   25.3200   32.7730 C   0  0  2  0  0  0  0  0  0  0  0  0
   37.8410   24.1210   32.9690 C   0  0  1  0  0  0  0  0  0  0  0  0
   38.2650   23.7070   31.7430 O   0  0  0  0  0  0  0  0  0  0  0  0
   37.9790   24.6880   30.7980 C   0  0  0  0  0  0  0  0  0  0  0  0
   37.6840   25.9610   31.5520 C   0  0  1  0  0  0  0  0  0  0  0  0
   35.9330   25.1070   32.4850 H   0  0  0  0  0  0  0  0  0  0  0  0
   37.3110   23.3190   33.5420 H   0  0  0  0  0  0  0  0  0  0  0  0
   37.1900   24.3100   30.1690 H   0  0  0  0  0  0  0  0  0  0  0  0
   38.9430   24.8290   30.2310 H   0  0  0  0  0  0  0  0  0  0  0  0
   38.5530   26.4870   31.9320 H   0  0  0  0  0  0  0  0  0  0  0  0
   37.0560   26.2000   33.8700 O   0  0  0  0  0  0  0  0  0  0  0  0
   37.6810   26.9330   33.6580 H   0  0  0  0  0  0  0  0  0  0  0  0
   39.3180   24.6800   33.9190 S   0  0  0  0  0  0  0  0  0  0  0  0
   39.8410   22.8270   37.3800 C   0  0  0  0  0  0  0  0  0  0  0  0
   38.8350   23.3170   38.2220 C   0  0  0  0  0  0  0  0  0  0  0  0
   37.9660   24.2600   37.6790 C   0  0  0  0  0  0  0  0  0  0  0  0
   38.1290   24.6520   36.3900 N   0  0  0  0  0  0  0  0  0  0  0  0
   39.1200   24.1450   35.6200 C   0  0  0  0  0  0  0  0  0  0  0  0
   39.9860   23.2270   36.1070 N   0  0  0  0  0  0  0  0  0  0  0  0
   40.5070   22.0900   37.8340 H   0  0  0  0  0  0  0  0  0  0  0  0
   38.7040   23.0050   39.2490 H   0  0  0  0  0  0  0  0  0  0  0  0
   37.1540   24.7110   38.2260 H   0  0  0  0  0  0  0  0  0  0  0  0
   36.8210   26.7280   30.8060 O   0  0  0  0  0  0  0  0  0  0  0  0
   35.1260   28.5960   32.3250 Cl  0  0  0  0  0  0  0  0  0  0  0  0
   36.2710   28.9500   31.0560 C   0  0  0  0  0  0  0  0  0  0  0  0
   37.0200   27.9850   30.4210 C   0  0  0  0  0  0  0  0  0  0  0  0
   37.9230   28.3950   29.4370 C   0  0  0  0  0  0  0  0  0  0  0  0
   38.0550   29.7280   29.1150 C   0  0  0  0  0  0  0  0  0  0  0  0
   37.3070   30.7070   29.7460 C   0  0  0  0  0  0  0  0  0  0  0  0
   36.4040   30.3060   30.7300 C   0  0  0  0  0  0  0  0  0  0  0  0
   38.5510   27.7120   28.8920 H   0  0  0  0  0  0  0  0  0  0  0  0
   38.7300   30.0900   28.3700 H   0  0  0  0  0  0  0  0  0  0  0  0
   37.3940   31.7500   29.5110 H   0  0  0  0  0  0  0  0  0  0  0  0
   35.6040   31.3410   31.4090 C   0  0  0  0  0  2  0  0  0  0  0  0
   36.5330   32.4450   31.9220 C   0  0  0  0  0  2  0  0  0  0  0  0
   36.6610   32.3390   33.0220 H   0  0  0  0  0  0  0  0  0  0  0  0
  1  6  1  6  0  0  0
  1  2  1  0  0  0  0
  1 11  1  0  0  0  0
  2  7  1  1  0  0  0
  2 13  1  0  0  0  0
  3  2  1  0  0  0  0
  4  5  1  0  0  0  0
  4  3  1  0  0  0  0
  5 10  1  1  0  0  0
  5  1  1  0  0  0  0
  8  4  1  0  0  0  0
  9  4  1  0  0  0  0
 12 11  1  0  0  0  0
 13 18  1  0  0  0  0
 14 20  1  0  0  0  0
 14 15  1  0  0  0  0
 15 21  1  0  0  0  0
 16 15  2  0  0  0  0
 16 22  1  0  0  0  0
 17 16  1  0  0  0  0
 18 19  1  0  0  0  0
 18 17  2  0  0  0  0
 19 14  2  0  0  0  0
 23  5  1  0  0  0  0
 25 24  1  0  0  0  0
 26 23  1  0  0  0  0
 26 25  2  0  0  0  0
 27 26  1  0  0  0  0
 28 27  2  0  0  0  0
 28 29  1  0  0  0  0
 29 30  2  0  0  0  0
 30 25  1  0  0  0  0
 30 34  1  0  0  0  0
 31 27  1  0  0  0  0
 32 28  1  0  0  0  0
 33 29  1  0  0  0  0
 34 35  1  0  0  0  0
 35 36  1  0  0  0  0
M  END
>  <minimizedAffinity>
-4.83302641

$$$$
