
 OpenBabel03272501093D

 34 36  0  0  1  0  0  0  0  0999 V2000
   37.3040   25.3720   31.3550 C   0  0  2  0  0  0  0  0  0  0  0  0
   35.9670   26.1290   31.6460 C   0  0  2  0  0  0  0  0  0  0  0  0
   35.0350   25.3320   30.8630 C   0  0  0  0  0  0  0  0  0  0  0  0
   35.4320   24.0060   30.9300 O   0  0  0  0  0  0  0  0  0  0  0  0
   36.6880   23.9480   31.4470 C   0  0  0  0  0  0  0  0  0  0  0  0
   37.6160   25.5350   30.3240 H   0  0  0  0  0  0  0  0  0  0  0  0
   35.8430   25.9910   32.7400 H   0  0  0  0  0  0  0  0  0  0  0  0
   34.0060   25.3700   31.3150 H   0  0  0  0  0  0  0  0  0  0  0  0
   34.9180   25.6070   29.8200 H   0  0  0  0  0  0  0  0  0  0  0  0
   37.3050   23.3240   30.7450 H   0  0  0  0  0  0  0  0  0  0  0  0
   36.7240   23.5640   32.4760 H   0  0  0  0  0  0  0  0  0  0  0  0
   35.6340   29.8730   31.8840 C   0  0  0  0  0  0  0  0  0  0  0  0
   35.4930   28.5010   32.2310 C   0  0  0  0  0  0  0  0  0  0  0  0
   36.0760   27.5340   31.3660 C   0  0  0  0  0  0  0  0  0  0  0  0
   36.7500   27.9750   30.2350 N   0  0  0  0  0  0  0  0  0  0  0  0
   36.8450   29.2810   29.9670 C   0  0  0  0  0  0  0  0  0  0  0  0
   36.3050   30.2310   30.7630 N   0  0  0  0  0  0  0  0  0  0  0  0
   35.2290   30.6620   32.4740 H   0  0  0  0  0  0  0  0  0  0  0  0
   34.9640   28.2340   33.1170 H   0  0  0  0  0  0  0  0  0  0  0  0
   37.3920   29.4940   29.0560 H   0  0  0  0  0  0  0  0  0  0  0  0
   38.2050   25.5190   32.3540 O   0  0  0  0  0  0  0  0  0  0  0  0
   37.9880   23.0630   34.1990 Cl  0  0  0  0  0  0  0  0  0  0  0  0
   38.1210   24.7280   34.7270 C   0  0  0  0  0  0  0  0  0  0  0  0
   38.2090   25.6510   33.6940 C   0  0  0  0  0  0  0  0  0  0  0  0
   38.3260   26.9670   34.0990 C   0  0  0  0  0  0  0  0  0  0  0  0
   38.3510   27.3280   35.4350 C   0  0  0  0  0  0  0  0  0  0  0  0
   38.2580   26.3600   36.3970 C   0  0  0  0  0  0  0  0  0  0  0  0
   38.1410   25.0390   36.0560 C   0  0  0  0  0  0  0  0  0  0  0  0
   38.4070   27.8110   33.4350 H   0  0  0  0  0  0  0  0  0  0  0  0
   38.4430   28.3560   35.7810 H   0  0  0  0  0  0  0  0  0  0  0  0
   38.2760   26.6140   37.4440 H   0  0  0  0  0  0  0  0  0  0  0  0
   38.0380   24.0180   37.1270 C   0  0  0  0  0  2  0  0  0  0  0  0
   37.9700   24.6800   38.4940 C   0  0  0  0  0  2  0  0  0  0  0  0
   36.9760   24.6300   38.9630 H   0  0  0  0  0  0  0  0  0  0  0  0
  1  6  1  6  0  0  0
  1  5  1  0  0  0  0
  1  2  1  0  0  0  0
  1 21  1  0  0  0  0
  2  7  1  1  0  0  0
  3  4  1  0  0  0  0
  3  8  1  0  0  0  0
  3  2  1  0  0  0  0
  4  5  1  0  0  0  0
  5 11  1  0  0  0  0
  9  3  1  0  0  0  0
 10  5  1  0  0  0  0
 12 13  1  0  0  0  0
 12 18  1  0  0  0  0
 13 19  1  0  0  0  0
 14  2  1  0  0  0  0
 14 13  2  0  0  0  0
 15 14  1  0  0  0  0
 16 15  2  0  0  0  0
 16 17  1  0  0  0  0
 17 12  2  0  0  0  0
 20 16  1  0  0  0  0
 21 24  1  0  0  0  0
 22 23  1  0  0  0  0
 23 28  1  0  0  0  0
 24 25  1  0  0  0  0
 24 23  2  0  0  0  0
 25 26  2  0  0  0  0
 26 30  1  0  0  0  0
 26 27  1  0  0  0  0
 27 31  1  0  0  0  0
 28 27  2  0  0  0  0
 28 32  1  0  0  0  0
 29 25  1  0  0  0  0
 32 33  1  0  0  0  0
 33 34  1  0  0  0  0
M  END
>  <minimizedAffinity>
-5.38849878

$$$$

 OpenBabel03272501093D

 34 36  0  0  1  0  0  0  0  0999 V2000
   38.0360   26.1630   34.5600 C   0  0  2  0  0  0  0  0  0  0  0  0
   38.3850   25.8260   33.0730 C   0  0  2  0  0  0  0  0  0  0  0  0
   39.1840   26.9870   32.7170 C   0  0  0  0  0  0  0  0  0  0  0  0
   39.9270   27.3620   33.8260 O   0  0  0  0  0  0  0  0  0  0  0  0
   39.4440   26.7120   34.9190 C   0  0  0  0  0  0  0  0  0  0  0  0
   37.3320   26.9930   34.6050 H   0  0  0  0  0  0  0  0  0  0  0  0
   38.9870   24.8980   33.1710 H   0  0  0  0  0  0  0  0  0  0  0  0
   39.9310   26.7230   31.9200 H   0  0  0  0  0  0  0  0  0  0  0  0
   38.6440   27.8550   32.3530 H   0  0  0  0  0  0  0  0  0  0  0  0
   39.2550   27.4890   35.7090 H   0  0  0  0  0  0  0  0  0  0  0  0
   40.1040   25.9110   35.2820 H   0  0  0  0  0  0  0  0  0  0  0  0
   35.6480   23.9840   31.2570 C   0  0  0  0  0  0  0  0  0  0  0  0
   36.8180   24.1940   32.0360 C   0  0  0  0  0  0  0  0  0  0  0  0
   37.2090   25.5350   32.3010 C   0  0  0  0  0  0  0  0  0  0  0  0
   36.4330   26.5660   31.7870 N   0  0  0  0  0  0  0  0  0  0  0  0
   35.3440   26.2990   31.0610 C   0  0  0  0  0  0  0  0  0  0  0  0
   34.9390   25.0380   30.7870 N   0  0  0  0  0  0  0  0  0  0  0  0
   35.2840   23.0130   31.0110 H   0  0  0  0  0  0  0  0  0  0  0  0
   37.3650   23.3540   32.4000 H   0  0  0  0  0  0  0  0  0  0  0  0
   34.8280   27.1880   30.7170 H   0  0  0  0  0  0  0  0  0  0  0  0
   37.8030   25.0530   35.2980 O   0  0  0  0  0  0  0  0  0  0  0  0
   40.0380   23.1040   34.4680 Cl  0  0  0  0  0  0  0  0  0  0  0  0
   39.4600   23.3590   36.1020 C   0  0  0  0  0  0  0  0  0  0  0  0
   38.4440   24.2980   36.2100 C   0  0  0  0  0  0  0  0  0  0  0  0
   37.9890   24.5150   37.4960 C   0  0  0  0  0  0  0  0  0  0  0  0
   38.5120   23.8440   38.5880 C   0  0  0  0  0  0  0  0  0  0  0  0
   39.5130   22.9310   38.4010 C   0  0  0  0  0  0  0  0  0  0  0  0
   40.0050   22.6730   37.1490 C   0  0  0  0  0  0  0  0  0  0  0  0
   37.2090   25.2070   37.7640 H   0  0  0  0  0  0  0  0  0  0  0  0
   38.1720   23.9970   39.6100 H   0  0  0  0  0  0  0  0  0  0  0  0
   39.9370   22.3950   39.2330 H   0  0  0  0  0  0  0  0  0  0  0  0
   41.0880   21.6730   36.9860 C   0  0  0  0  0  2  0  0  0  0  0  0
   42.4360   22.3610   36.8410 C   0  0  0  0  0  2  0  0  0  0  0  0
   43.0830   22.2620   37.7250 H   0  0  0  0  0  0  0  0  0  0  0  0
  1  6  1  1  0  0  0
  1  5  1  0  0  0  0
  1 21  1  0  0  0  0
  2  7  1  6  0  0  0
  2  1  1  0  0  0  0
  3  2  1  0  0  0  0
  3  4  1  0  0  0  0
  4  5  1  0  0  0  0
  5 11  1  0  0  0  0
  5 10  1  0  0  0  0
  8  3  1  0  0  0  0
  9  3  1  0  0  0  0
 12 13  1  0  0  0  0
 13 14  2  0  0  0  0
 13 19  1  0  0  0  0
 14  2  1  0  0  0  0
 15 14  1  0  0  0  0
 16 15  2  0  0  0  0
 17 16  1  0  0  0  0
 17 12  2  0  0  0  0
 18 12  1  0  0  0  0
 20 16  1  0  0  0  0
 21 24  1  0  0  0  0
 22 23  1  0  0  0  0
 23 24  2  0  0  0  0
 23 28  1  0  0  0  0
 24 25  1  0  0  0  0
 25 29  1  0  0  0  0
 25 26  2  0  0  0  0
 26 30  1  0  0  0  0
 27 26  1  0  0  0  0
 27 31  1  0  0  0  0
 28 27  2  0  0  0  0
 32 28  1  0  0  0  0
 33 32  1  0  0  0  0
 33 34  1  0  0  0  0
M  END
>  <minimizedAffinity>
-5.35547256

$$$$

 OpenBabel03272501093D

 34 36  0  0  1  0  0  0  0  0999 V2000
   38.6830   22.9750   36.1490 C   0  0  2  0  0  0  0  0  0  0  0  0
   39.6390   22.4850   37.2850 C   0  0  2  0  0  0  0  0  0  0  0  0
   39.2780   23.4030   38.3530 C   0  0  0  0  0  0  0  0  0  0  0  0
   37.9160   23.6510   38.2730 O   0  0  0  0  0  0  0  0  0  0  0  0
   37.4560   23.1940   37.0780 C   0  0  0  0  0  0  0  0  0  0  0  0
   39.0010   23.9500   35.7800 H   0  0  0  0  0  0  0  0  0  0  0  0
   39.2880   21.4480   37.4660 H   0  0  0  0  0  0  0  0  0  0  0  0
   39.4460   22.9270   39.3570 H   0  0  0  0  0  0  0  0  0  0  0  0
   39.8020   24.3520   38.3750 H   0  0  0  0  0  0  0  0  0  0  0  0
   36.8840   24.0360   36.6010 H   0  0  0  0  0  0  0  0  0  0  0  0
   36.8500   22.2810   37.1580 H   0  0  0  0  0  0  0  0  0  0  0  0
   43.1670   21.3300   36.6450 C   0  0  0  0  0  0  0  0  0  0  0  0
   41.8200   21.2980   37.0980 C   0  0  0  0  0  0  0  0  0  0  0  0
   41.0080   22.4390   36.8490 C   0  0  0  0  0  0  0  0  0  0  0  0
   41.5680   23.5190   36.1800 N   0  0  0  0  0  0  0  0  0  0  0  0
   42.8430   23.4840   35.7810 C   0  0  0  0  0  0  0  0  0  0  0  0
   43.6470   22.4190   35.9980 N   0  0  0  0  0  0  0  0  0  0  0  0
   43.8440   20.5200   36.7890 H   0  0  0  0  0  0  0  0  0  0  0  0
   41.4550   20.4340   37.6040 H   0  0  0  0  0  0  0  0  0  0  0  0
   43.1600   24.3880   35.2730 H   0  0  0  0  0  0  0  0  0  0  0  0
   38.3880   21.9940   35.2660 O   0  0  0  0  0  0  0  0  0  0  0  0
   35.6180   20.6590   35.1020 Cl  0  0  0  0  0  0  0  0  0  0  0  0
   36.5220   21.3040   33.7470 C   0  0  0  0  0  0  0  0  0  0  0  0
   37.7470   21.8590   34.0890 C   0  0  0  0  0  0  0  0  0  0  0  0
   38.4640   22.3820   33.0290 C   0  0  0  0  0  0  0  0  0  0  0  0
   37.9890   22.3500   31.7290 C   0  0  0  0  0  0  0  0  0  0  0  0
   36.7710   21.7840   31.4710 C   0  0  0  0  0  0  0  0  0  0  0  0
   36.0150   21.2500   32.4810 C   0  0  0  0  0  0  0  0  0  0  0  0
   39.4300   22.8510   33.1110 H   0  0  0  0  0  0  0  0  0  0  0  0
   38.5320   22.7550   30.8780 H   0  0  0  0  0  0  0  0  0  0  0  0
   36.3780   21.7460   30.4690 H   0  0  0  0  0  0  0  0  0  0  0  0
   34.7010   20.6420   32.1610 C   0  0  0  0  0  2  0  0  0  0  0  0
   34.8320   19.1360   31.9980 C   0  0  0  0  0  2  0  0  0  0  0  0
   34.3980   18.5590   32.8270 H   0  0  0  0  0  0  0  0  0  0  0  0
  1  6  1  6  0  0  0
  1  5  1  0  0  0  0
  1  2  1  0  0  0  0
  2  7  1  1  0  0  0
  2  3  1  0  0  0  0
  3  9  1  0  0  0  0
  3  8  1  0  0  0  0
  4  3  1  0  0  0  0
  5 11  1  0  0  0  0
  5  4  1  0  0  0  0
 10  5  1  0  0  0  0
 12 18  1  0  0  0  0
 12 13  1  0  0  0  0
 13 19  1  0  0  0  0
 14 13  2  0  0  0  0
 14  2  1  0  0  0  0
 15 14  1  0  0  0  0
 16 17  1  0  0  0  0
 16 15  2  0  0  0  0
 17 12  2  0  0  0  0
 20 16  1  0  0  0  0
 21  1  1  0  0  0  0
 23 24  1  0  0  0  0
 23 22  1  0  0  0  0
 24 21  1  0  0  0  0
 25 29  1  0  0  0  0
 25 24  2  0  0  0  0
 26 25  1  0  0  0  0
 27 26  2  0  0  0  0
 27 28  1  0  0  0  0
 28 23  2  0  0  0  0
 30 26  1  0  0  0  0
 31 27  1  0  0  0  0
 32 28  1  0  0  0  0
 33 32  1  0  0  0  0
 33 34  1  0  0  0  0
M  END
>  <minimizedAffinity>
-5.22699118

$$$$

 OpenBabel03272501093D

 34 36  0  0  1  0  0  0  0  0999 V2000
   38.3650   25.7570   34.9210 C   0  0  2  0  0  0  0  0  0  0  0  0
   37.7770   26.5590   33.7140 C   0  0  2  0  0  0  0  0  0  0  0  0
   37.0380   27.5960   34.4160 C   0  0  0  0  0  0  0  0  0  0  0  0
   37.7490   27.9420   35.5550 O   0  0  0  0  0  0  0  0  0  0  0  0
   38.7160   27.0110   35.7700 C   0  0  0  0  0  0  0  0  0  0  0  0
   37.5730   25.2150   35.4380 H   0  0  0  0  0  0  0  0  0  0  0  0
   38.6900   26.9410   33.2100 H   0  0  0  0  0  0  0  0  0  0  0  0
   36.9790   28.5290   33.7940 H   0  0  0  0  0  0  0  0  0  0  0  0
   36.0200   27.3560   34.7030 H   0  0  0  0  0  0  0  0  0  0  0  0
   38.6170   26.6700   36.8360 H   0  0  0  0  0  0  0  0  0  0  0  0
   39.7310   27.3700   35.5480 H   0  0  0  0  0  0  0  0  0  0  0  0
   36.5900   23.5280   31.8190 C   0  0  0  0  0  0  0  0  0  0  0  0
   37.3230   24.3070   32.7550 C   0  0  0  0  0  0  0  0  0  0  0  0
   37.0680   25.7060   32.8000 C   0  0  0  0  0  0  0  0  0  0  0  0
   36.1210   26.2360   31.9340 N   0  0  0  0  0  0  0  0  0  0  0  0
   35.4670   25.4460   31.0770 C   0  0  0  0  0  0  0  0  0  0  0  0
   35.6810   24.1140   31.0030 N   0  0  0  0  0  0  0  0  0  0  0  0
   36.7180   22.4750   31.7170 H   0  0  0  0  0  0  0  0  0  0  0  0
   38.0340   23.8320   33.3910 H   0  0  0  0  0  0  0  0  0  0  0  0
   34.7580   25.9820   30.4560 H   0  0  0  0  0  0  0  0  0  0  0  0
   39.5120   25.1140   34.6020 O   0  0  0  0  0  0  0  0  0  0  0  0
   38.8680   22.5950   36.2530 Cl  0  0  0  0  0  0  0  0  0  0  0  0
   40.4620   23.2830   36.0180 C   0  0  0  0  0  0  0  0  0  0  0  0
   40.4840   24.4210   35.2260 C   0  0  0  0  0  0  0  0  0  0  0  0
   41.7380   24.9650   35.0250 C   0  0  0  0  0  0  0  0  0  0  0  0
   42.8800   24.4100   35.5750 C   0  0  0  0  0  0  0  0  0  0  0  0
   42.7780   23.2860   36.3480 C   0  0  0  0  0  0  0  0  0  0  0  0
   41.5610   22.7020   36.5820 C   0  0  0  0  0  0  0  0  0  0  0  0
   41.9400   25.8450   34.4370 H   0  0  0  0  0  0  0  0  0  0  0  0
   43.8790   24.8180   35.4320 H   0  0  0  0  0  0  0  0  0  0  0  0
   43.6510   22.8340   36.7880 H   0  0  0  0  0  0  0  0  0  0  0  0
   41.4910   21.4860   37.4280 C   0  0  0  0  0  2  0  0  0  0  0  0
   42.6370   20.5410   37.1060 C   0  0  0  0  0  2  0  0  0  0  0  0
   43.4110   20.5000   37.8870 H   0  0  0  0  0  0  0  0  0  0  0  0
  1  6  1  1  0  0  0
  1  5  1  0  0  0  0
  2  7  1  6  0  0  0
  2  3  1  0  0  0  0
  2  1  1  0  0  0  0
  3  9  1  0  0  0  0
  3  4  1  0  0  0  0
  4  5  1  0  0  0  0
  5 10  1  0  0  0  0
  8  3  1  0  0  0  0
 11  5  1  0  0  0  0
 12 13  1  0  0  0  0
 13 14  2  0  0  0  0
 13 19  1  0  0  0  0
 14  2  1  0  0  0  0
 15 14  1  0  0  0  0
 16 15  2  0  0  0  0
 17 16  1  0  0  0  0
 17 12  2  0  0  0  0
 18 12  1  0  0  0  0
 20 16  1  0  0  0  0
 21  1  1  0  0  0  0
 21 24  1  0  0  0  0
 23 22  1  0  0  0  0
 23 28  1  0  0  0  0
 24 23  2  0  0  0  0
 25 24  1  0  0  0  0
 25 26  2  0  0  0  0
 26 27  1  0  0  0  0
 27 28  2  0  0  0  0
 27 31  1  0  0  0  0
 28 32  1  0  0  0  0
 29 25  1  0  0  0  0
 30 26  1  0  0  0  0
 33 32  1  0  0  0  0
 33 34  1  0  0  0  0
M  END
>  <minimizedAffinity>
-5.22316551

$$$$

 OpenBabel03272501093D

 34 36  0  0  1  0  0  0  0  0999 V2000
   38.6650   23.0950   36.2210 C   0  0  2  0  0  0  0  0  0  0  0  0
   39.6060   22.4660   37.3000 C   0  0  2  0  0  0  0  0  0  0  0  0
   39.2910   23.3010   38.4490 C   0  0  0  0  0  0  0  0  0  0  0  0
   37.9400   23.6120   38.4030 O   0  0  0  0  0  0  0  0  0  0  0  0
   37.4540   23.2830   37.1770 C   0  0  0  0  0  0  0  0  0  0  0  0
   39.0220   24.0850   35.9360 H   0  0  0  0  0  0  0  0  0  0  0  0
   39.2110   21.4330   37.3930 H   0  0  0  0  0  0  0  0  0  0  0  0
   39.4440   22.7310   39.4050 H   0  0  0  0  0  0  0  0  0  0  0  0
   39.8550   24.2220   38.5490 H   0  0  0  0  0  0  0  0  0  0  0  0
   36.9150   24.1870   36.7820 H   0  0  0  0  0  0  0  0  0  0  0  0
   36.8100   22.3920   37.1830 H   0  0  0  0  0  0  0  0  0  0  0  0
   43.1210   21.2790   36.6540 C   0  0  0  0  0  0  0  0  0  0  0  0
   41.7800   21.2670   37.1240 C   0  0  0  0  0  0  0  0  0  0  0  0
   40.9690   22.4020   36.8490 C   0  0  0  0  0  0  0  0  0  0  0  0
   41.5240   23.4580   36.1380 N   0  0  0  0  0  0  0  0  0  0  0  0
   42.7940   23.4050   35.7250 C   0  0  0  0  0  0  0  0  0  0  0  0
   43.5970   22.3450   35.9670 N   0  0  0  0  0  0  0  0  0  0  0  0
   43.7980   20.4720   36.8160 H   0  0  0  0  0  0  0  0  0  0  0  0
   41.4190   20.4210   37.6620 H   0  0  0  0  0  0  0  0  0  0  0  0
   43.1070   24.2910   35.1840 H   0  0  0  0  0  0  0  0  0  0  0  0
   38.3230   22.2090   35.2580 O   0  0  0  0  0  0  0  0  0  0  0  0
   38.4440   24.2050   32.9150 Cl  0  0  0  0  0  0  0  0  0  0  0  0
   37.3020   22.8860   33.0750 C   0  0  0  0  0  0  0  0  0  0  0  0
   37.4610   22.1270   34.2260 C   0  0  0  0  0  0  0  0  0  0  0  0
   36.5720   21.0780   34.3580 C   0  0  0  0  0  0  0  0  0  0  0  0
   35.6000   20.8110   33.4090 C   0  0  0  0  0  0  0  0  0  0  0  0
   35.5050   21.6050   32.3000 C   0  0  0  0  0  0  0  0  0  0  0  0
   36.3580   22.6600   32.1150 C   0  0  0  0  0  0  0  0  0  0  0  0
   36.5530   20.3880   35.1840 H   0  0  0  0  0  0  0  0  0  0  0  0
   34.8890   19.9900   33.4880 H   0  0  0  0  0  0  0  0  0  0  0  0
   34.7570   21.4190   31.5470 H   0  0  0  0  0  0  0  0  0  0  0  0
   36.2210   23.5020   30.9020 C   0  0  0  0  0  2  0  0  0  0  0  0
   35.2680   24.6590   31.1560 C   0  0  0  0  0  2  0  0  0  0  0  0
   35.7670   25.6350   31.2360 H   0  0  0  0  0  0  0  0  0  0  0  0
  1  6  1  6  0  0  0
  1  5  1  0  0  0  0
  1  2  1  0  0  0  0
  2  7  1  1  0  0  0
  2  3  1  0  0  0  0
  3  9  1  0  0  0  0
  3  8  1  0  0  0  0
  4  3  1  0  0  0  0
  5 11  1  0  0  0  0
  5  4  1  0  0  0  0
 10  5  1  0  0  0  0
 12 18  1  0  0  0  0
 12 13  1  0  0  0  0
 13 19  1  0  0  0  0
 14 13  2  0  0  0  0
 14  2  1  0  0  0  0
 15 14  1  0  0  0  0
 16 17  1  0  0  0  0
 16 15  2  0  0  0  0
 17 12  2  0  0  0  0
 20 16  1  0  0  0  0
 21  1  1  0  0  0  0
 22 23  1  0  0  0  0
 23 24  1  0  0  0  0
 24 25  2  0  0  0  0
 24 21  1  0  0  0  0
 25 29  1  0  0  0  0
 26 30  1  0  0  0  0
 26 25  1  0  0  0  0
 27 26  2  0  0  0  0
 28 27  1  0  0  0  0
 28 23  2  0  0  0  0
 31 27  1  0  0  0  0
 32 33  1  0  0  0  0
 32 28  1  0  0  0  0
 33 34  1  0  0  0  0
M  END
>  <minimizedAffinity>
-5.13748789

$$$$

 OpenBabel03272501093D

 34 36  0  0  1  0  0  0  0  0999 V2000
   35.1850   29.2780   32.4250 C   0  0  2  0  0  0  0  0  0  0  0  0
   36.4700   28.6690   31.7740 C   0  0  2  0  0  0  0  0  0  0  0  0
   36.3930   29.2450   30.4410 C   0  0  0  0  0  0  0  0  0  0  0  0
   35.8750   30.5270   30.5500 O   0  0  0  0  0  0  0  0  0  0  0  0
   35.3590   30.6880   31.7970 C   0  0  0  0  0  0  0  0  0  0  0  0
   34.2910   28.8270   31.9920 H   0  0  0  0  0  0  0  0  0  0  0  0
   37.2830   29.1070   32.3900 H   0  0  0  0  0  0  0  0  0  0  0  0
   37.4210   29.3630   30.0020 H   0  0  0  0  0  0  0  0  0  0  0  0
   35.8100   28.6970   29.7090 H   0  0  0  0  0  0  0  0  0  0  0  0
   34.3110   31.0770   31.6720 H   0  0  0  0  0  0  0  0  0  0  0  0
   35.9630   31.3400   32.4430 H   0  0  0  0  0  0  0  0  0  0  0  0
   35.7980   24.9980   31.2680 C   0  0  0  0  0  0  0  0  0  0  0  0
   35.7140   26.4040   31.0740 C   0  0  0  0  0  0  0  0  0  0  0  0
   36.5100   27.2390   31.9060 C   0  0  0  0  0  0  0  0  0  0  0  0
   37.3240   26.6430   32.8600 N   0  0  0  0  0  0  0  0  0  0  0  0
   37.3550   25.3130   32.9900 C   0  0  0  0  0  0  0  0  0  0  0  0
   36.6150   24.4850   32.2200 N   0  0  0  0  0  0  0  0  0  0  0  0
   35.2380   24.3000   30.6900 H   0  0  0  0  0  0  0  0  0  0  0  0
   35.0690   26.7920   30.3190 H   0  0  0  0  0  0  0  0  0  0  0  0
   38.0270   24.9740   33.7710 H   0  0  0  0  0  0  0  0  0  0  0  0
   35.2900   29.3850   33.7690 O   0  0  0  0  0  0  0  0  0  0  0  0
   32.3220   29.2730   34.5840 Cl  0  0  0  0  0  0  0  0  0  0  0  0
   33.5400   30.3070   35.3030 C   0  0  0  0  0  0  0  0  0  0  0  0
   34.8080   30.1630   34.7570 C   0  0  0  0  0  0  0  0  0  0  0  0
   35.7790   30.9660   35.3240 C   0  0  0  0  0  0  0  0  0  0  0  0
   35.5000   31.8440   36.3580 C   0  0  0  0  0  0  0  0  0  0  0  0
   34.2240   31.9290   36.8430 C   0  0  0  0  0  0  0  0  0  0  0  0
   33.2200   31.1580   36.3210 C   0  0  0  0  0  0  0  0  0  0  0  0
   36.8130   30.9850   35.0260 H   0  0  0  0  0  0  0  0  0  0  0  0
   36.2460   32.4860   36.8220 H   0  0  0  0  0  0  0  0  0  0  0  0
   33.9800   32.6040   37.6460 H   0  0  0  0  0  0  0  0  0  0  0  0
   31.8480   31.2830   36.8700 C   0  0  0  0  0  2  0  0  0  0  0  0
   31.2630   32.6490   36.5510 C   0  0  0  0  0  2  0  0  0  0  0  0
   30.4760   32.6270   35.7830 H   0  0  0  0  0  0  0  0  0  0  0  0
  1  6  1  6  0  0  0
  1 21  1  0  0  0  0
  2 14  1  0  0  0  0
  2  7  1  1  0  0  0
  2  1  1  0  0  0  0
  3  4  1  0  0  0  0
  3  2  1  0  0  0  0
  4  5  1  0  0  0  0
  5  1  1  0  0  0  0
  5 11  1  0  0  0  0
  8  3  1  0  0  0  0
  9  3  1  0  0  0  0
 10  5  1  0  0  0  0
 12 17  1  0  0  0  0
 13 12  2  0  0  0  0
 13 14  1  0  0  0  0
 14 15  2  0  0  0  0
 15 16  1  0  0  0  0
 16 20  1  0  0  0  0
 17 16  2  0  0  0  0
 18 12  1  0  0  0  0
 19 13  1  0  0  0  0
 21 24  1  0  0  0  0
 22 23  1  0  0  0  0
 23 28  1  0  0  0  0
 24 23  2  0  0  0  0
 24 25  1  0  0  0  0
 25 26  2  0  0  0  0
 26 30  1  0  0  0  0
 26 27  1  0  0  0  0
 27 31  1  0  0  0  0
 28 27  2  0  0  0  0
 28 32  1  0  0  0  0
 29 25  1  0  0  0  0
 33 32  1  0  0  0  0
 34 33  1  0  0  0  0
M  END
>  <minimizedAffinity>
-5.09788942

$$$$

 OpenBabel03272501093D

 34 36  0  0  1  0  0  0  0  0999 V2000
   39.0620   24.3300   33.4710 C   0  0  2  0  0  0  0  0  0  0  0  0
   39.2300   25.2690   34.7100 C   0  0  2  0  0  0  0  0  0  0  0  0
   40.5040   25.8970   34.3980 C   0  0  0  0  0  0  0  0  0  0  0  0
   40.5750   26.0820   33.0260 O   0  0  0  0  0  0  0  0  0  0  0  0
   39.5830   25.3650   32.4340 C   0  0  0  0  0  0  0  0  0  0  0  0
   39.7800   23.5110   33.5150 H   0  0  0  0  0  0  0  0  0  0  0  0
   38.3680   25.9610   34.6080 H   0  0  0  0  0  0  0  0  0  0  0  0
   40.5600   26.9240   34.8520 H   0  0  0  0  0  0  0  0  0  0  0  0
   41.3970   25.3720   34.7230 H   0  0  0  0  0  0  0  0  0  0  0  0
   40.0610   24.7450   31.6270 H   0  0  0  0  0  0  0  0  0  0  0  0
   38.7640   25.9850   32.0440 H   0  0  0  0  0  0  0  0  0  0  0  0
   38.0140   24.1180   38.0840 C   0  0  0  0  0  0  0  0  0  0  0  0
   38.0730   24.8660   36.8770 C   0  0  0  0  0  0  0  0  0  0  0  0
   39.1020   24.5490   35.9470 C   0  0  0  0  0  0  0  0  0  0  0  0
   39.9900   23.5290   36.2620 N   0  0  0  0  0  0  0  0  0  0  0  0
   39.8780   22.8640   37.4160 C   0  0  0  0  0  0  0  0  0  0  0  0
   38.9150   23.1350   38.3260 N   0  0  0  0  0  0  0  0  0  0  0  0
   37.2780   24.2890   38.8350 H   0  0  0  0  0  0  0  0  0  0  0  0
   37.3560   25.6350   36.6990 H   0  0  0  0  0  0  0  0  0  0  0  0
   40.6320   22.0950   37.5430 H   0  0  0  0  0  0  0  0  0  0  0  0
   37.7640   24.0620   33.2010 O   0  0  0  0  0  0  0  0  0  0  0  0
   37.3020   21.5930   34.9820 Cl  0  0  0  0  0  0  0  0  0  0  0  0
   36.6670   21.8180   33.3640 C   0  0  0  0  0  0  0  0  0  0  0  0
   37.0190   23.0240   32.7750 C   0  0  0  0  0  0  0  0  0  0  0  0
   36.5140   23.2180   31.5030 C   0  0  0  0  0  0  0  0  0  0  0  0
   35.7200   22.2760   30.8730 C   0  0  0  0  0  0  0  0  0  0  0  0
   35.4180   21.1090   31.5190 C   0  0  0  0  0  0  0  0  0  0  0  0
   35.8890   20.8610   32.7810 C   0  0  0  0  0  0  0  0  0  0  0  0
   36.6850   24.0940   30.9000 H   0  0  0  0  0  0  0  0  0  0  0  0
   35.3100   22.4040   29.8730 H   0  0  0  0  0  0  0  0  0  0  0  0
   34.8020   20.3590   31.0500 H   0  0  0  0  0  0  0  0  0  0  0  0
   35.5420   19.5820   33.4470 C   0  0  0  0  0  2  0  0  0  0  0  0
   35.1840   18.5210   32.4190 C   0  0  0  0  0  2  0  0  0  0  0  0
   35.9490   17.7400   32.3020 H   0  0  0  0  0  0  0  0  0  0  0  0
  1  6  1  1  0  0  0
  1  2  1  0  0  0  0
  2  7  1  6  0  0  0
  2 14  1  0  0  0  0
  3  2  1  0  0  0  0
  3  9  1  0  0  0  0
  3  8  1  0  0  0  0
  4  3  1  0  0  0  0
  5  4  1  0  0  0  0
  5  1  1  0  0  0  0
 10  5  1  0  0  0  0
 11  5  1  0  0  0  0
 12 17  1  0  0  0  0
 12 18  1  0  0  0  0
 13 12  2  0  0  0  0
 14 15  2  0  0  0  0
 14 13  1  0  0  0  0
 15 16  1  0  0  0  0
 16 20  1  0  0  0  0
 16 17  2  0  0  0  0
 19 13  1  0  0  0  0
 21  1  1  0  0  0  0
 23 22  1  0  0  0  0
 24 21  1  0  0  0  0
 24 23  2  0  0  0  0
 25 24  1  0  0  0  0
 26 25  2  0  0  0  0
 26 27  1  0  0  0  0
 27 28  2  0  0  0  0
 28 23  1  0  0  0  0
 28 32  1  0  0  0  0
 29 25  1  0  0  0  0
 30 26  1  0  0  0  0
 31 27  1  0  0  0  0
 33 32  1  0  0  0  0
 34 33  1  0  0  0  0
M  END
>  <minimizedAffinity>
-5.06594515

$$$$

 OpenBabel03272501093D

 34 36  0  0  1  0  0  0  0  0999 V2000
   34.6720   29.4110   32.7070 C   0  0  2  0  0  0  0  0  0  0  0  0
   36.0590   29.0090   32.1060 C   0  0  2  0  0  0  0  0  0  0  0  0
   35.9650   29.6180   30.7880 C   0  0  0  0  0  0  0  0  0  0  0  0
   35.2700   30.8120   30.9080 O   0  0  0  0  0  0  0  0  0  0  0  0
   34.6780   30.8540   32.1310 C   0  0  0  0  0  0  0  0  0  0  0  0
   33.8710   28.8580   32.2160 H   0  0  0  0  0  0  0  0  0  0  0  0
   36.7740   29.5320   32.7750 H   0  0  0  0  0  0  0  0  0  0  0  0
   36.9860   29.8920   30.4060 H   0  0  0  0  0  0  0  0  0  0  0  0
   35.4990   29.0230   30.0110 H   0  0  0  0  0  0  0  0  0  0  0  0
   33.5930   31.1000   31.9650 H   0  0  0  0  0  0  0  0  0  0  0  0
   35.1550   31.5590   32.8270 H   0  0  0  0  0  0  0  0  0  0  0  0
   37.3420   25.6450   33.2110 C   0  0  0  0  0  0  0  0  0  0  0  0
   37.1530   27.0540   33.1890 C   0  0  0  0  0  0  0  0  0  0  0  0
   36.2910   27.5940   32.1960 C   0  0  0  0  0  0  0  0  0  0  0  0
   35.6800   26.7240   31.3030 N   0  0  0  0  0  0  0  0  0  0  0  0
   35.9000   25.4080   31.3790 C   0  0  0  0  0  0  0  0  0  0  0  0
   36.7130   24.8550   32.3080 N   0  0  0  0  0  0  0  0  0  0  0  0
   37.9700   25.1570   33.9200 H   0  0  0  0  0  0  0  0  0  0  0  0
   37.6540   27.6630   33.9080 H   0  0  0  0  0  0  0  0  0  0  0  0
   35.3670   24.8390   30.6260 H   0  0  0  0  0  0  0  0  0  0  0  0
   34.6990   29.4830   34.0570 O   0  0  0  0  0  0  0  0  0  0  0  0
   36.1340   31.8820   35.3500 Cl  0  0  0  0  0  0  0  0  0  0  0  0
   34.5390   31.2960   35.7750 C   0  0  0  0  0  0  0  0  0  0  0  0
   34.1170   30.1990   35.0390 C   0  0  0  0  0  0  0  0  0  0  0  0
   32.8550   29.7350   35.3580 C   0  0  0  0  0  0  0  0  0  0  0  0
   32.0780   30.3260   36.3400 C   0  0  0  0  0  0  0  0  0  0  0  0
   32.5650   31.4060   37.0240 C   0  0  0  0  0  0  0  0  0  0  0  0
   33.8080   31.9100   36.7510 C   0  0  0  0  0  0  0  0  0  0  0  0
   32.3700   28.8970   34.8880 H   0  0  0  0  0  0  0  0  0  0  0  0
   31.0810   29.9820   36.6100 H   0  0  0  0  0  0  0  0  0  0  0  0
   31.9800   31.8840   37.7930 H   0  0  0  0  0  0  0  0  0  0  0  0
   34.3030   33.0790   37.5180 C   0  0  0  0  0  2  0  0  0  0  0  0
   33.2590   34.1840   37.5440 C   0  0  0  0  0  2  0  0  0  0  0  0
   32.7700   34.3110   38.5200 H   0  0  0  0  0  0  0  0  0  0  0  0
  1  6  1  6  0  0  0
  1 21  1  0  0  0  0
  2 14  1  0  0  0  0
  2  1  1  0  0  0  0
  2  7  1  1  0  0  0
  3  4  1  0  0  0  0
  3  2  1  0  0  0  0
  4  5  1  0  0  0  0
  5  1  1  0  0  0  0
  5 11  1  0  0  0  0
  8  3  1  0  0  0  0
  9  3  1  0  0  0  0
 10  5  1  0  0  0  0
 12 18  1  0  0  0  0
 13 12  1  0  0  0  0
 13 19  1  0  0  0  0
 14 13  2  0  0  0  0
 15 16  2  0  0  0  0
 15 14  1  0  0  0  0
 16 17  1  0  0  0  0
 17 12  2  0  0  0  0
 20 16  1  0  0  0  0
 21 24  1  0  0  0  0
 22 23  1  0  0  0  0
 23 28  1  0  0  0  0
 24 25  1  0  0  0  0
 24 23  2  0  0  0  0
 25 26  2  0  0  0  0
 26 30  1  0  0  0  0
 26 27  1  0  0  0  0
 27 31  1  0  0  0  0
 28 27  2  0  0  0  0
 28 32  1  0  0  0  0
 29 25  1  0  0  0  0
 32 33  1  0  0  0  0
 33 34  1  0  0  0  0
M  END
>  <minimizedAffinity>
-4.9953599

$$$$

 OpenBabel03272501093D

 34 36  0  0  1  0  0  0  0  0999 V2000
   37.1130   26.6330   34.3400 C   0  0  2  0  0  0  0  0  0  0  0  0
   37.4950   26.9850   32.8650 C   0  0  2  0  0  0  0  0  0  0  0  0
   36.4700   27.9690   32.5520 C   0  0  0  0  0  0  0  0  0  0  0  0
   36.2200   28.7150   33.6930 O   0  0  0  0  0  0  0  0  0  0  0  0
   36.7900   28.0940   34.7590 C   0  0  0  0  0  0  0  0  0  0  0  0
   36.1830   26.0650   34.3660 H   0  0  0  0  0  0  0  0  0  0  0  0
   38.5050   27.4310   32.9770 H   0  0  0  0  0  0  0  0  0  0  0  0
   36.8440   28.6970   31.7830 H   0  0  0  0  0  0  0  0  0  0  0  0
   35.5280   27.5850   32.1760 H   0  0  0  0  0  0  0  0  0  0  0  0
   35.9960   27.9960   35.5490 H   0  0  0  0  0  0  0  0  0  0  0  0
   37.6850   28.6060   35.1410 H   0  0  0  0  0  0  0  0  0  0  0  0
   38.6890   24.4720   30.3270 C   0  0  0  0  0  0  0  0  0  0  0  0
   38.6590   25.6570   31.1120 C   0  0  0  0  0  0  0  0  0  0  0  0
   37.5960   25.8110   32.0440 C   0  0  0  0  0  0  0  0  0  0  0  0
   36.6470   24.8020   32.1400 N   0  0  0  0  0  0  0  0  0  0  0  0
   36.7330   23.7130   31.3710 C   0  0  0  0  0  0  0  0  0  0  0  0
   37.7270   23.5290   30.4730 N   0  0  0  0  0  0  0  0  0  0  0  0
   39.4470   24.2750   29.6060 H   0  0  0  0  0  0  0  0  0  0  0  0
   39.4240   26.3890   30.9870 H   0  0  0  0  0  0  0  0  0  0  0  0
   35.9310   23.0030   31.5400 H   0  0  0  0  0  0  0  0  0  0  0  0
   38.1750   26.2000   35.0570 O   0  0  0  0  0  0  0  0  0  0  0  0
   40.0860   23.9860   34.0920 Cl  0  0  0  0  0  0  0  0  0  0  0  0
   39.3110   24.0540   35.6630 C   0  0  0  0  0  0  0  0  0  0  0  0
   38.4970   25.1610   35.8520 C   0  0  0  0  0  0  0  0  0  0  0  0
   37.8900   25.2310   37.0910 C   0  0  0  0  0  0  0  0  0  0  0  0
   38.0840   24.2650   38.0630 C   0  0  0  0  0  0  0  0  0  0  0  0
   38.9020   23.2010   37.8010 C   0  0  0  0  0  0  0  0  0  0  0  0
   39.5310   23.0780   36.5910 C   0  0  0  0  0  0  0  0  0  0  0  0
   37.2290   26.0190   37.4090 H   0  0  0  0  0  0  0  0  0  0  0  0
   37.6190   24.2970   39.0470 H   0  0  0  0  0  0  0  0  0  0  0  0
   39.0700   22.4350   38.5410 H   0  0  0  0  0  0  0  0  0  0  0  0
   40.4070   21.9070   36.3430 C   0  0  0  0  0  2  0  0  0  0  0  0
   41.3630   21.6960   37.5060 C   0  0  0  0  0  2  0  0  0  0  0  0
   41.1190   20.8230   38.1290 H   0  0  0  0  0  0  0  0  0  0  0  0
  1  6  1  1  0  0  0
  1  5  1  0  0  0  0
  1 21  1  0  0  0  0
  2  7  1  1  0  0  0
  2  1  1  0  0  0  0
  3  2  1  0  0  0  0
  3  4  1  0  0  0  0
  4  5  1  0  0  0  0
  5 11  1  0  0  0  0
  5 10  1  0  0  0  0
  8  3  1  0  0  0  0
  9  3  1  0  0  0  0
 12 17  2  0  0  0  0
 12 13  1  0  0  0  0
 13 14  2  0  0  0  0
 14 15  1  0  0  0  0
 14  2  1  0  0  0  0
 16 20  1  0  0  0  0
 16 15  2  0  0  0  0
 17 16  1  0  0  0  0
 18 12  1  0  0  0  0
 19 13  1  0  0  0  0
 21 24  1  0  0  0  0
 22 23  1  0  0  0  0
 23 24  2  0  0  0  0
 23 28  1  0  0  0  0
 24 25  1  0  0  0  0
 25 29  1  0  0  0  0
 25 26  2  0  0  0  0
 26 30  1  0  0  0  0
 27 26  1  0  0  0  0
 27 31  1  0  0  0  0
 28 27  2  0  0  0  0
 32 28  1  0  0  0  0
 32 33  1  0  0  0  0
 33 34  1  0  0  0  0
M  END
>  <minimizedAffinity>
-4.97497511

$$$$
