
 OpenBabel03272510113D

 29 31  0  0  0  0  0  0  0  0999 V2000
   34.0000   28.8190   48.2930 C   0  0  0  0  0  0  0  0  0  0  0  0
   34.6300   28.3610   49.4040 C   0  0  0  0  0  0  0  0  0  0  0  0
   35.8620   28.7920   49.8460 C   0  0  0  0  0  0  0  0  0  0  0  0
   36.5380   29.7480   49.1490 C   0  0  0  0  0  0  0  0  0  0  0  0
   35.8980   30.2300   47.9990 C   0  0  0  0  0  0  0  0  0  0  0  0
   34.6920   29.7780   47.6060 N   0  0  0  0  0  0  0  0  0  0  0  0
   34.1640   27.6010   50.0160 H   0  0  0  0  0  0  0  0  0  0  0  0
   36.3560   28.4220   50.7320 H   0  0  0  0  0  0  0  0  0  0  0  0
   36.3290   30.9890   47.3620 H   0  0  0  0  0  0  0  0  0  0  0  0
   31.9040   27.4990   48.5550 C   0  0  0  0  0  0  0  0  0  0  0  0
   32.7240   28.3730   47.8250 C   0  0  0  0  0  0  0  0  0  0  0  0
   32.2530   28.7890   46.6100 C   0  0  0  0  0  0  0  0  0  0  0  0
   31.0350   28.3500   46.1640 N   0  0  0  0  0  0  0  0  0  0  0  0
   30.2810   27.5000   46.9180 C   0  0  0  0  0  0  0  0  0  0  0  0
   30.7060   27.0630   48.1260 N   0  0  0  0  0  0  0  0  0  0  0  0
   32.2300   27.1400   49.5230 H   0  0  0  0  0  0  0  0  0  0  0  0
   32.8350   29.4600   46.0040 H   0  0  0  0  0  0  0  0  0  0  0  0
   29.3380   27.2400   46.4290 H   0  0  0  0  0  0  0  0  0  0  0  0
   37.7800   30.3000   49.4420 O   0  0  0  0  0  0  0  0  0  0  0  0
   38.3670   31.2590   48.6380 C   0  0  0  0  0  0  0  0  0  0  0  0
   38.4450   32.5200   49.2270 C   0  0  0  0  0  0  0  0  0  0  0  0
   39.0530   33.3680   48.3040 C   0  0  0  0  0  0  0  0  0  0  0  0
   39.3160   32.6250   47.2200 N   0  0  0  0  0  0  0  0  0  0  0  0
   38.9150   31.3940   47.4160 N   0  0  0  0  0  0  0  0  0  0  0  0
   38.1550   32.9570   50.1860 H   0  0  0  0  0  0  0  0  0  0  0  0
   39.2940   34.4270   48.3820 H   0  0  0  0  0  0  0  0  0  0  0  0
   39.9500   33.1110   46.0100 C   0  0  0  0  0  0  0  0  0  0  0  0
   40.6800   31.9430   45.3870 C   0  0  0  0  0  0  0  0  0  0  0  0
   41.7540   32.0250   45.6010 H   0  0  0  0  0  0  0  0  0  0  0  0
  1  2  1  0  0  0  0
  2  3  2  0  0  0  0
  2  7  1  0  0  0  0
  3  8  1  0  0  0  0
  4 19  1  0  0  0  0
  4  3  1  0  0  0  0
  5  4  2  0  0  0  0
  6  5  1  0  0  0  0
  6  1  2  0  0  0  0
  9  5  1  0  0  0  0
 10 16  1  0  0  0  0
 11  1  1  0  0  0  0
 11 10  2  0  0  0  0
 12 11  1  0  0  0  0
 13 12  2  0  0  0  0
 13 14  1  0  0  0  0
 14 15  2  0  0  0  0
 15 10  1  0  0  0  0
 17 12  1  0  0  0  0
 18 14  1  0  0  0  0
 20 21  1  0  0  0  0
 20 19  1  0  0  0  0
 21 25  1  0  0  0  0
 22 26  1  0  0  0  0
 22 21  2  0  0  0  0
 23 24  1  0  0  0  0
 23 22  1  0  0  0  0
 24 20  2  0  0  0  0
 27 23  1  0  0  0  0
 28 29  1  0  0  0  0
 28 27  1  0  0  0  0
M  END
>  <minimizedAffinity>
-5.51128674

>  <minimizedRMSD>
0.671750546

$$$$
