
 OpenBabel03272510113D

 29 31  0  0  0  0  0  0  0  0999 V2000
   34.0250   28.8250   48.2970 C   0  0  0  0  0  0  0  0  0  0  0  0
   34.6440   28.3760   49.4190 C   0  0  0  0  0  0  0  0  0  0  0  0
   35.8780   28.7980   49.8610 C   0  0  0  0  0  0  0  0  0  0  0  0
   36.5680   29.7380   49.1550 C   0  0  0  0  0  0  0  0  0  0  0  0
   35.9410   30.2110   47.9950 C   0  0  0  0  0  0  0  0  0  0  0  0
   34.7320   29.7660   47.6010 N   0  0  0  0  0  0  0  0  0  0  0  0
   34.1670   27.6290   50.0380 H   0  0  0  0  0  0  0  0  0  0  0  0
   36.3640   28.4350   50.7550 H   0  0  0  0  0  0  0  0  0  0  0  0
   36.3840   30.9560   47.3490 H   0  0  0  0  0  0  0  0  0  0  0  0
   31.9220   27.5180   48.5580 C   0  0  0  0  0  0  0  0  0  0  0  0
   32.7470   28.3860   47.8290 C   0  0  0  0  0  0  0  0  0  0  0  0
   32.2800   28.8050   46.6130 C   0  0  0  0  0  0  0  0  0  0  0  0
   31.0600   28.3730   46.1660 N   0  0  0  0  0  0  0  0  0  0  0  0
   30.2990   27.5280   46.9200 C   0  0  0  0  0  0  0  0  0  0  0  0
   30.7210   27.0880   48.1280 N   0  0  0  0  0  0  0  0  0  0  0  0
   32.2440   27.1570   49.5260 H   0  0  0  0  0  0  0  0  0  0  0  0
   32.8660   29.4720   46.0070 H   0  0  0  0  0  0  0  0  0  0  0  0
   29.3550   27.2740   46.4300 H   0  0  0  0  0  0  0  0  0  0  0  0
   37.8150   30.2800   49.4470 O   0  0  0  0  0  0  0  0  0  0  0  0
   38.3840   31.2740   48.6740 C   0  0  0  0  0  0  0  0  0  0  0  0
   38.4370   32.5180   49.3030 C   0  0  0  0  0  0  0  0  0  0  0  0
   39.0290   33.4060   48.4070 C   0  0  0  0  0  0  0  0  0  0  0  0
   39.3080   32.7020   47.3010 N   0  0  0  0  0  0  0  0  0  0  0  0
   38.9310   31.4570   47.4580 N   0  0  0  0  0  0  0  0  0  0  0  0
   38.1380   32.9190   50.2740 H   0  0  0  0  0  0  0  0  0  0  0  0
   39.2500   34.4670   48.5180 H   0  0  0  0  0  0  0  0  0  0  0  0
   39.9340   33.2380   46.1080 C   0  0  0  0  0  2  0  0  0  0  0  0
   39.0980   32.7980   44.9270 C   0  0  0  0  0  2  0  0  0  0  0  0
   39.5920   31.9560   44.4210 H   0  0  0  0  0  0  0  0  0  0  0  0
  1  2  1  0  0  0  0
  2  3  2  0  0  0  0
  2  7  1  0  0  0  0
  3  8  1  0  0  0  0
  4 19  1  0  0  0  0
  4  3  1  0  0  0  0
  5  4  2  0  0  0  0
  6  5  1  0  0  0  0
  6  1  2  0  0  0  0
  9  5  1  0  0  0  0
 10 16  1  0  0  0  0
 11  1  1  0  0  0  0
 11 10  2  0  0  0  0
 12 11  1  0  0  0  0
 13 12  2  0  0  0  0
 13 14  1  0  0  0  0
 14 15  2  0  0  0  0
 15 10  1  0  0  0  0
 17 12  1  0  0  0  0
 18 14  1  0  0  0  0
 20 21  1  0  0  0  0
 20 19  1  0  0  0  0
 21 25  1  0  0  0  0
 22 26  1  0  0  0  0
 22 21  2  0  0  0  0
 23 24  1  0  0  0  0
 23 22  1  0  0  0  0
 24 20  2  0  0  0  0
 27 23  1  0  0  0  0
 28 27  1  0  0  0  0
 29 28  1  0  0  0  0
M  END
>  <minimizedAffinity>
-5.40210104

>  <minimizedRMSD>
0.672608793

$$$$
