
 OpenBabel03272507523D

 26 27  0  0  0  0  0  0  0  0999 V2000
   35.6760   29.9000   49.9700 C   0  0  0  0  0  0  0  0  0  0  0  0
   35.8370   30.5400   48.7180 C   0  0  0  0  0  0  0  0  0  0  0  0
   34.9430   30.2240   47.6760 C   0  0  0  0  0  0  0  0  0  0  0  0
   33.9670   29.3160   47.9260 N   0  0  0  0  0  0  0  0  0  0  0  0
   33.8270   28.7240   49.0990 C   0  0  0  0  0  0  0  0  0  0  0  0
   34.6630   29.0020   50.1160 N   0  0  0  0  0  0  0  0  0  0  0  0
   35.1690   30.7710   46.7870 H   0  0  0  0  0  0  0  0  0  0  0  0
   33.0340   28.0040   49.2560 H   0  0  0  0  0  0  0  0  0  0  0  0
   36.9060   31.4720   48.5800 N   0  0  0  0  0  0  0  0  0  0  0  0
   37.2470   32.3210   49.5420 C   0  0  0  0  0  0  0  0  0  0  0  0
   38.3100   33.2050   49.3430 C   0  0  0  0  0  0  0  0  0  0  0  0
   38.9210   33.1060   48.1310 C   0  0  0  0  0  0  0  0  0  0  0  0
   39.8810   33.9160   47.9770 O   0  0  0  0  0  0  0  0  0  0  0  0
   38.6160   32.2750   47.1420 N   0  0  0  0  0  0  0  0  0  0  0  0
   37.5770   31.4380   47.3840 C   0  0  0  0  0  0  0  0  0  0  0  0
   37.2620   30.6260   46.4450 O   0  0  0  0  0  0  0  0  0  0  0  0
   36.7000   32.3270   50.4760 H   0  0  0  0  0  0  0  0  0  0  0  0
   38.5960   33.9020   50.1210 H   0  0  0  0  0  0  0  0  0  0  0  0
   39.3250   32.2330   45.8670 C   0  0  0  0  0  0  0  0  0  0  0  0
   40.4320   31.2120   45.9090 C   0  0  0  0  0  0  0  0  0  0  0  0
   40.2400   30.4260   46.6930 H   0  0  0  0  0  0  0  0  0  0  0  0
   37.5710   29.4050   51.6820 C   0  0  0  0  0  0  0  0  0  0  0  0
   37.9720   28.3190   51.2150 O   0  0  0  0  0  0  0  0  0  0  0  0
   36.5080   30.1550   51.0770 N   0  0  0  0  0  0  0  0  0  0  0  0
   38.0800   29.7360   52.5710 H   0  0  0  0  0  0  0  0  0  0  0  0
   36.3600   31.0700   51.5980 H   0  0  0  0  0  0  0  0  0  0  0  0
  1  6  1  0  0  0  0
  1 24  1  0  0  0  0
  2  1  2  0  0  0  0
  3  4  2  0  0  0  0
  3  2  1  0  0  0  0
  4  5  1  0  0  0  0
  5  8  1  0  0  0  0
  5  6  2  0  0  0  0
  7  3  1  0  0  0  0
  9  2  1  0  0  0  0
  9 10  1  0  0  0  0
 10 17  1  0  0  0  0
 11 10  2  0  0  0  0
 11 18  1  0  0  0  0
 12 11  1  0  0  0  0
 13 12  2  0  0  0  0
 14 15  1  0  0  0  0
 14 12  1  0  0  0  0
 15  9  1  0  0  0  0
 16 15  2  0  0  0  0
 19 20  1  0  0  0  0
 19 14  1  0  0  0  0
 20 21  1  0  0  0  0
 22 25  1  0  0  0  0
 23 22  2  0  0  0  0
 24 26  1  0  0  0  0
 24 22  1  0  0  0  0
M  END
>  <minimizedAffinity>
-5.31485462

>  <minimizedRMSD>
1.06554854

$$$$
