
 OpenBabel03262521533D

 17 17  0  0  0  0  0  0  0  0999 V2000
   38.4700   23.4880   36.0160 C   0  0  0  0  0  0  0  0  0  0  0  0
   39.6510   22.8960   36.4450 C   0  0  0  0  0  0  0  0  0  0  0  0
   39.8990   22.8250   37.8090 C   0  0  0  0  0  0  0  0  0  0  0  0
   38.9650   23.3430   38.6890 N   0  0  0  0  0  0  0  0  0  0  0  0
   37.8320   23.9080   38.2010 C   0  0  0  0  0  0  0  0  0  0  0  0
   37.5900   23.9800   36.9100 N   0  0  0  0  0  0  0  0  0  0  0  0
   40.4220   22.4710   35.8000 H   0  0  0  0  0  0  0  0  0  0  0  0
   40.8180   22.3640   38.1770 H   0  0  0  0  0  0  0  0  0  0  0  0
   37.1990   24.2680   38.9900 H   0  0  0  0  0  0  0  0  0  0  0  0
   38.2210   23.5420   34.2550 S   0  0  0  0  0  0  0  0  0  0  0  0
   38.7160   25.1740   33.6670 C   0  0  0  0  0  0  0  0  0  0  0  0
   39.0850   25.0460   32.6210 H   0  0  0  0  0  0  0  0  0  0  0  0
   39.5360   25.5410   34.2890 H   0  0  0  0  0  0  0  0  0  0  0  0
   37.3030   26.3290   33.5710 S   0  0  0  0  0  0  0  0  0  0  0  0
   37.4120   27.3900   35.0550 C   0  0  0  0  0  2  0  0  0  0  0  0
   38.7580   27.2620   35.7350 C   0  0  0  0  0  2  0  0  0  0  0  0
   38.6190   27.7040   36.7570 H   0  0  0  0  0  0  0  0  0  0  0  0
  1  2  2  0  0  0  0
  1  6  1  0  0  0  0
  2  3  1  0  0  0  0
  3  8  1  0  0  0  0
  3  4  2  0  0  0  0
  5  4  1  0  0  0  0
  5  9  1  0  0  0  0
  6  5  2  0  0  0  0
  7  2  1  0  0  0  0
 10  1  1  0  0  0  0
 11 10  1  0  0  0  0
 11 13  1  0  0  0  0
 12 11  1  0  0  0  0
 14 11  1  0  0  0  0
 14 15  1  0  0  0  0
 15 16  1  0  0  0  0
 16 17  1  0  0  0  0
M  END
>  <minimizedAffinity>
-3.25418186

$$$$

 OpenBabel03262521533D

 17 17  0  0  0  0  0  0  0  0999 V2000
   38.5320   24.0320   36.0650 C   0  0  0  0  0  0  0  0  0  0  0  0
   39.6020   23.1970   36.3600 C   0  0  0  0  0  0  0  0  0  0  0  0
   39.8070   22.8230   37.6810 C   0  0  0  0  0  0  0  0  0  0  0  0
   38.9410   23.2940   38.6530 N   0  0  0  0  0  0  0  0  0  0  0  0
   37.9160   24.1080   38.2950 C   0  0  0  0  0  0  0  0  0  0  0  0
   37.7160   24.4660   37.0460 N   0  0  0  0  0  0  0  0  0  0  0  0
   40.3150   22.7950   35.6380 H   0  0  0  0  0  0  0  0  0  0  0  0
   40.6380   22.1680   37.9440 H   0  0  0  0  0  0  0  0  0  0  0  0
   37.3260   24.3970   39.1440 H   0  0  0  0  0  0  0  0  0  0  0  0
   38.3320   24.4660   34.3510 S   0  0  0  0  0  0  0  0  0  0  0  0
   37.5350   26.0820   34.2700 C   0  0  0  0  0  0  0  0  0  0  0  0
   38.3230   26.8460   34.4750 H   0  0  0  0  0  0  0  0  0  0  0  0
   36.7750   26.1410   35.0520 H   0  0  0  0  0  0  0  0  0  0  0  0
   36.8920   26.4490   32.6000 S   0  0  0  0  0  0  0  0  0  0  0  0
   36.7000   24.8360   31.7640 C   0  0  0  0  0  2  0  0  0  0  0  0
   35.2940   24.6440   31.2350 C   0  0  0  0  0  2  0  0  0  0  0  0
   35.2050   23.5470   31.0160 H   0  0  0  0  0  0  0  0  0  0  0  0
  1  2  2  0  0  0  0
  1  6  1  0  0  0  0
  2  3  1  0  0  0  0
  3  8  1  0  0  0  0
  3  4  2  0  0  0  0
  5  4  1  0  0  0  0
  5  9  1  0  0  0  0
  6  5  2  0  0  0  0
  7  2  1  0  0  0  0
 10  1  1  0  0  0  0
 11 10  1  0  0  0  0
 11 12  1  0  0  0  0
 11 13  1  0  0  0  0
 14 11  1  0  0  0  0
 15 14  1  0  0  0  0
 16 15  1  0  0  0  0
 17 16  1  0  0  0  0
M  END
>  <minimizedAffinity>
-3.18599749

$$$$

 OpenBabel03262521533D

 17 17  0  0  0  0  0  0  0  0999 V2000
   38.7490   23.8610   35.9010 C   0  0  0  0  0  0  0  0  0  0  0  0
   37.8070   24.3850   36.7760 C   0  0  0  0  0  0  0  0  0  0  0  0
   37.9200   24.0870   38.1280 C   0  0  0  0  0  0  0  0  0  0  0  0
   38.9640   23.2820   38.5520 N   0  0  0  0  0  0  0  0  0  0  0  0
   39.8490   22.8030   37.6420 C   0  0  0  0  0  0  0  0  0  0  0  0
   39.7480   23.0810   36.3600 N   0  0  0  0  0  0  0  0  0  0  0  0
   36.9660   25.0230   36.5010 H   0  0  0  0  0  0  0  0  0  0  0  0
   37.1960   24.4840   38.8400 H   0  0  0  0  0  0  0  0  0  0  0  0
   40.6030   22.1970   38.1060 H   0  0  0  0  0  0  0  0  0  0  0  0
   38.5410   24.2880   34.1860 S   0  0  0  0  0  0  0  0  0  0  0  0
   37.6450   22.9460   33.3780 C   0  0  0  0  0  0  0  0  0  0  0  0
   36.8350   22.6270   34.0770 H   0  0  0  0  0  0  0  0  0  0  0  0
   38.3280   22.1080   33.2230 H   0  0  0  0  0  0  0  0  0  0  0  0
   36.8110   23.4990   31.8500 S   0  0  0  0  0  0  0  0  0  0  0  0
   35.8400   22.0690   31.2560 C   0  0  0  0  0  2  0  0  0  0  0  0
   35.1360   21.3610   32.3940 C   0  0  0  0  0  2  0  0  0  0  0  0
   34.8270   20.3640   31.9790 H   0  0  0  0  0  0  0  0  0  0  0  0
  1  6  2  0  0  0  0
  1  2  1  0  0  0  0
  2  3  2  0  0  0  0
  3  4  1  0  0  0  0
  3  8  1  0  0  0  0
  5  9  1  0  0  0  0
  5  4  2  0  0  0  0
  6  5  1  0  0  0  0
  7  2  1  0  0  0  0
 10  1  1  0  0  0  0
 11 12  1  0  0  0  0
 11 10  1  0  0  0  0
 13 11  1  0  0  0  0
 14 11  1  0  0  0  0
 15 14  1  0  0  0  0
 15 16  1  0  0  0  0
 17 16  1  0  0  0  0
M  END
>  <minimizedAffinity>
-3.0944593

$$$$

 OpenBabel03262521533D

 17 17  0  0  0  0  0  0  0  0999 V2000
   38.6440   24.0520   36.0280 C   0  0  0  0  0  0  0  0  0  0  0  0
   37.7920   24.5050   37.0270 C   0  0  0  0  0  0  0  0  0  0  0  0
   38.0150   24.0810   38.3300 C   0  0  0  0  0  0  0  0  0  0  0  0
   39.0740   23.2270   38.5860 N   0  0  0  0  0  0  0  0  0  0  0  0
   39.8670   22.8230   37.5620 C   0  0  0  0  0  0  0  0  0  0  0  0
   39.6620   23.2200   36.3250 N   0  0  0  0  0  0  0  0  0  0  0  0
   36.9440   25.1760   36.8860 H   0  0  0  0  0  0  0  0  0  0  0  0
   37.3630   24.4190   39.1370 H   0  0  0  0  0  0  0  0  0  0  0  0
   40.6450   22.1660   37.9000 H   0  0  0  0  0  0  0  0  0  0  0  0
   38.2980   24.6390   34.3840 S   0  0  0  0  0  0  0  0  0  0  0  0
   37.9520   26.4070   34.4800 C   0  0  0  0  0  0  0  0  0  0  0  0
   38.7870   26.8720   35.0600 H   0  0  0  0  0  0  0  0  0  0  0  0
   37.0180   26.5570   35.0250 H   0  0  0  0  0  0  0  0  0  0  0  0
   37.9710   27.2020   32.8350 S   0  0  0  0  0  0  0  0  0  0  0  0
   36.3030   27.9060   32.5910 C   0  0  0  0  0  2  0  0  0  0  0  0
   35.9230   28.8440   33.7170 C   0  0  0  0  0  2  0  0  0  0  0  0
   34.8120   28.9810   33.6300 H   0  0  0  0  0  0  0  0  0  0  0  0
  1  6  2  0  0  0  0
  1  2  1  0  0  0  0
  2  3  2  0  0  0  0
  3  4  1  0  0  0  0
  3  8  1  0  0  0  0
  5  9  1  0  0  0  0
  5  4  2  0  0  0  0
  6  5  1  0  0  0  0
  7  2  1  0  0  0  0
 10 11  1  0  0  0  0
 10  1  1  0  0  0  0
 11 13  1  0  0  0  0
 11 12  1  0  0  0  0
 14 11  1  0  0  0  0
 15 14  1  0  0  0  0
 15 16  1  0  0  0  0
 17 16  1  0  0  0  0
M  END
>  <minimizedAffinity>
-3.01516914

$$$$

 OpenBabel03262521533D

 17 17  0  0  0  0  0  0  0  0999 V2000
   39.0430   24.2570   35.8800 C   0  0  0  0  0  0  0  0  0  0  0  0
   39.9520   23.3030   36.3170 C   0  0  0  0  0  0  0  0  0  0  0  0
   39.8260   22.8110   37.6100 C   0  0  0  0  0  0  0  0  0  0  0  0
   38.8030   23.2860   38.4110 N   0  0  0  0  0  0  0  0  0  0  0  0
   37.9490   24.2190   37.9190 C   0  0  0  0  0  0  0  0  0  0  0  0
   38.0620   24.6900   36.6970 N   0  0  0  0  0  0  0  0  0  0  0  0
   40.7770   22.8920   35.7320 H   0  0  0  0  0  0  0  0  0  0  0  0
   40.5250   22.0600   37.9820 H   0  0  0  0  0  0  0  0  0  0  0  0
   37.2070   24.4960   38.6440 H   0  0  0  0  0  0  0  0  0  0  0  0
   39.2670   24.8390   34.2130 S   0  0  0  0  0  0  0  0  0  0  0  0
   37.6920   24.6820   33.3470 C   0  0  0  0  0  0  0  0  0  0  0  0
   37.7200   25.3950   32.4870 H   0  0  0  0  0  0  0  0  0  0  0  0
   36.8860   24.9740   34.0220 H   0  0  0  0  0  0  0  0  0  0  0  0
   37.4690   23.0190   32.6220 S   0  0  0  0  0  0  0  0  0  0  0  0
   35.9140   23.0870   31.6660 C   0  0  0  0  0  2  0  0  0  0  0  0
   35.5910   24.4990   31.2240 C   0  0  0  0  0  2  0  0  0  0  0  0
   34.5110   24.4760   30.9180 H   0  0  0  0  0  0  0  0  0  0  0  0
  1  2  2  0  0  0  0
  1  6  1  0  0  0  0
  2  3  1  0  0  0  0
  3  8  1  0  0  0  0
  3  4  2  0  0  0  0
  5  4  1  0  0  0  0
  5  9  1  0  0  0  0
  6  5  2  0  0  0  0
  7  2  1  0  0  0  0
 10  1  1  0  0  0  0
 11 13  1  0  0  0  0
 11 10  1  0  0  0  0
 12 11  1  0  0  0  0
 14 11  1  0  0  0  0
 15 14  1  0  0  0  0
 16 15  1  0  0  0  0
 17 16  1  0  0  0  0
M  END
>  <minimizedAffinity>
-3.00626683

$$$$

 OpenBabel03262521533D

 17 17  0  0  0  0  0  0  0  0999 V2000
   38.4830   23.1460   35.7950 C   0  0  0  0  0  0  0  0  0  0  0  0
   39.6810   22.5790   36.2110 C   0  0  0  0  0  0  0  0  0  0  0  0
   39.9820   22.5870   37.5660 C   0  0  0  0  0  0  0  0  0  0  0  0
   39.0820   23.1550   38.4510 N   0  0  0  0  0  0  0  0  0  0  0  0
   37.9290   23.6910   37.9760 C   0  0  0  0  0  0  0  0  0  0  0  0
   37.6370   23.6880   36.6930 N   0  0  0  0  0  0  0  0  0  0  0  0
   40.4280   22.1180   35.5620 H   0  0  0  0  0  0  0  0  0  0  0  0
   40.9150   22.1490   37.9240 H   0  0  0  0  0  0  0  0  0  0  0  0
   37.3260   24.0950   38.7660 H   0  0  0  0  0  0  0  0  0  0  0  0
   38.1650   23.0980   34.0450 S   0  0  0  0  0  0  0  0  0  0  0  0
   38.8700   21.5730   33.3880 C   0  0  0  0  0  0  0  0  0  0  0  0
   39.1100   20.9200   34.2620 H   0  0  0  0  0  0  0  0  0  0  0  0
   39.7970   21.8100   32.8600 H   0  0  0  0  0  0  0  0  0  0  0  0
   37.6700   20.6420   32.3720 S   0  0  0  0  0  0  0  0  0  0  0  0
   36.0690   20.7590   33.2430 C   0  0  0  0  0  2  0  0  0  0  0  0
   34.9430   21.1200   32.2980 C   0  0  0  0  0  2  0  0  0  0  0  0
   34.0940   21.4480   32.9550 H   0  0  0  0  0  0  0  0  0  0  0  0
  1  2  2  0  0  0  0
  1  6  1  0  0  0  0
  2  3  1  0  0  0  0
  3  8  1  0  0  0  0
  3  4  2  0  0  0  0
  5  4  1  0  0  0  0
  5  9  1  0  0  0  0
  6  5  2  0  0  0  0
  7  2  1  0  0  0  0
 10  1  1  0  0  0  0
 11 10  1  0  0  0  0
 11 12  1  0  0  0  0
 13 11  1  0  0  0  0
 14 15  1  0  0  0  0
 14 11  1  0  0  0  0
 16 17  1  0  0  0  0
 16 15  1  0  0  0  0
M  END
>  <minimizedAffinity>
-2.92849469

$$$$

 OpenBabel03262521533D

 17 17  0  0  0  0  0  0  0  0999 V2000
   39.1560   25.7280   34.4930 C   0  0  0  0  0  0  0  0  0  0  0  0
   39.1370   26.6730   35.5100 C   0  0  0  0  0  0  0  0  0  0  0  0
   38.0540   27.5370   35.5920 C   0  0  0  0  0  0  0  0  0  0  0  0
   37.0340   27.4250   34.6620 N   0  0  0  0  0  0  0  0  0  0  0  0
   37.1170   26.4780   33.6940 C   0  0  0  0  0  0  0  0  0  0  0  0
   38.1410   25.6570   33.6090 N   0  0  0  0  0  0  0  0  0  0  0  0
   39.9100   26.8090   36.2690 H   0  0  0  0  0  0  0  0  0  0  0  0
   38.0100   28.2900   36.3810 H   0  0  0  0  0  0  0  0  0  0  0  0
   36.2630   26.5020   33.0440 H   0  0  0  0  0  0  0  0  0  0  0  0
   40.5760   24.6560   34.4510 S   0  0  0  0  0  0  0  0  0  0  0  0
   40.4840   23.5480   35.8720 C   0  0  0  0  0  0  0  0  0  0  0  0
   40.4750   24.1900   36.7870 H   0  0  0  0  0  0  0  0  0  0  0  0
   41.3790   22.9220   35.8910 H   0  0  0  0  0  0  0  0  0  0  0  0
   38.9260   22.5950   35.9030 S   0  0  0  0  0  0  0  0  0  0  0  0
   37.8450   23.4270   37.1190 C   0  0  0  0  0  2  0  0  0  0  0  0
   38.4890   23.4880   38.4880 C   0  0  0  0  0  2  0  0  0  0  0  0
   37.6560   23.7360   39.1980 H   0  0  0  0  0  0  0  0  0  0  0  0
  1  2  1  0  0  0  0
  2  3  2  0  0  0  0
  2  7  1  0  0  0  0
  3  8  1  0  0  0  0
  4  3  1  0  0  0  0
  5  4  2  0  0  0  0
  6  5  1  0  0  0  0
  6  1  2  0  0  0  0
  9  5  1  0  0  0  0
 10  1  1  0  0  0  0
 10 11  1  0  0  0  0
 11 13  1  0  0  0  0
 11 14  1  0  0  0  0
 11 12  1  0  0  0  0
 14 15  1  0  0  0  0
 15 16  1  0  0  0  0
 16 17  1  0  0  0  0
M  END
>  <minimizedAffinity>
-2.91824961

$$$$

 OpenBabel03262521533D

 17 17  0  0  0  0  0  0  0  0999 V2000
   36.9480   22.0210   32.8860 C   0  0  0  0  0  0  0  0  0  0  0  0
   36.3390   21.0640   33.6870 C   0  0  0  0  0  0  0  0  0  0  0  0
   35.3170   20.2960   33.1440 C   0  0  0  0  0  0  0  0  0  0  0  0
   34.9450   20.5110   31.8280 N   0  0  0  0  0  0  0  0  0  0  0  0
   35.5820   21.4640   31.1020 C   0  0  0  0  0  0  0  0  0  0  0  0
   36.5500   22.1950   31.6100 N   0  0  0  0  0  0  0  0  0  0  0  0
   36.5890   20.8500   34.7280 H   0  0  0  0  0  0  0  0  0  0  0  0
   34.8200   19.5360   33.7480 H   0  0  0  0  0  0  0  0  0  0  0  0
   35.1950   21.5240   30.1030 H   0  0  0  0  0  0  0  0  0  0  0  0
   38.2480   22.9640   33.6510 S   0  0  0  0  0  0  0  0  0  0  0  0
   38.6150   22.2180   35.2530 C   0  0  0  0  0  0  0  0  0  0  0  0
   39.3610   21.4070   35.0720 H   0  0  0  0  0  0  0  0  0  0  0  0
   37.7010   21.7750   35.6540 H   0  0  0  0  0  0  0  0  0  0  0  0
   39.4140   23.4000   36.3950 S   0  0  0  0  0  0  0  0  0  0  0  0
   38.0740   24.4510   37.0570 C   0  0  0  0  0  2  0  0  0  0  0  0
   37.9560   24.3230   38.5610 C   0  0  0  0  0  2  0  0  0  0  0  0
   36.9530   24.7570   38.8200 H   0  0  0  0  0  0  0  0  0  0  0  0
  1 10  1  0  0  0  0
  1  2  1  0  0  0  0
  2  7  1  0  0  0  0
  3  2  2  0  0  0  0
  3  8  1  0  0  0  0
  4  3  1  0  0  0  0
  5  6  1  0  0  0  0
  5  4  2  0  0  0  0
  6  1  2  0  0  0  0
  9  5  1  0  0  0  0
 10 11  1  0  0  0  0
 11 13  1  0  0  0  0
 11 14  1  0  0  0  0
 12 11  1  0  0  0  0
 14 15  1  0  0  0  0
 15 16  1  0  0  0  0
 16 17  1  0  0  0  0
M  END
>  <minimizedAffinity>
-2.9141717

$$$$

 OpenBabel03262521533D

 17 17  0  0  0  0  0  0  0  0999 V2000
   38.8640   24.4010   36.0840 C   0  0  0  0  0  0  0  0  0  0  0  0
   37.9540   24.7700   37.0660 C   0  0  0  0  0  0  0  0  0  0  0  0
   38.0160   24.1350   38.2990 C   0  0  0  0  0  0  0  0  0  0  0  0
   38.9780   23.1620   38.5060 N   0  0  0  0  0  0  0  0  0  0  0  0
   39.8360   22.8500   37.5020 C   0  0  0  0  0  0  0  0  0  0  0  0
   39.7840   23.4470   36.3310 N   0  0  0  0  0  0  0  0  0  0  0  0
   37.1760   25.5280   36.9620 H   0  0  0  0  0  0  0  0  0  0  0  0
   37.3140   24.4040   39.0910 H   0  0  0  0  0  0  0  0  0  0  0  0
   40.5260   22.0830   37.7970 H   0  0  0  0  0  0  0  0  0  0  0  0
   38.7250   25.2590   34.5320 S   0  0  0  0  0  0  0  0  0  0  0  0
   39.6370   26.8100   34.6630 C   0  0  0  0  0  0  0  0  0  0  0  0
   39.5730   27.1370   35.7290 H   0  0  0  0  0  0  0  0  0  0  0  0
   39.1530   27.5600   34.0330 H   0  0  0  0  0  0  0  0  0  0  0  0
   41.4160   26.5940   34.3020 S   0  0  0  0  0  0  0  0  0  0  0  0
   41.7410   27.5340   32.7700 C   0  0  0  0  0  2  0  0  0  0  0  0
   40.6680   27.2940   31.7290 C   0  0  0  0  0  2  0  0  0  0  0  0
   41.1030   27.6630   30.7620 H   0  0  0  0  0  0  0  0  0  0  0  0
  1  6  2  0  0  0  0
  1  2  1  0  0  0  0
  2  3  2  0  0  0  0
  3  4  1  0  0  0  0
  3  8  1  0  0  0  0
  5  9  1  0  0  0  0
  5  4  2  0  0  0  0
  6  5  1  0  0  0  0
  7  2  1  0  0  0  0
 10 11  1  0  0  0  0
 10  1  1  0  0  0  0
 11 12  1  0  0  0  0
 13 11  1  0  0  0  0
 14 11  1  0  0  0  0
 15 14  1  0  0  0  0
 16 15  1  0  0  0  0
 17 16  1  0  0  0  0
M  END
>  <minimizedAffinity>
-2.88406372

$$$$
