
 OpenBabel03262520363D

 36 37  0  0  0  0  0  0  0  0999 V2000
   37.9840   28.7730   31.2120 O   0  0  0  0  0  0  0  0  0  0  0  0
   36.5150   28.3430   31.0940 P   0  0  2  0  0  0  0  0  0  0  0  0
   36.2550   27.4660   29.6680 O   0  0  0  0  0  0  0  0  0  0  0  0
   37.1140   27.4580   29.1640 H   0  0  0  0  0  0  0  0  0  0  0  0
   35.6550   29.8120   30.9940 O   0  0  0  0  0  0  0  0  0  0  0  0
   36.1250   30.6670   32.0020 C   0  0  0  0  0  0  0  0  0  0  0  0
   36.3810   31.6250   31.5590 H   0  0  0  0  0  0  0  0  0  0  0  0
   37.0780   30.2240   32.4120 H   0  0  0  0  0  0  0  0  0  0  0  0
   35.5190   30.8660   34.3780 C   0  0  0  0  0  3  0  0  0  0  0  0
   35.1650   30.7880   33.1250 C   0  0  0  0  0  3  0  0  0  0  0  0
   33.5580   31.9000   37.2950 C   0  0  0  0  0  0  0  0  0  0  0  0
   32.4170   31.0800   37.1910 C   0  0  0  0  0  0  0  0  0  0  0  0
   32.3440   30.1800   36.1110 C   0  0  0  0  0  0  0  0  0  0  0  0
   33.4180   30.2010   35.2580 N   0  0  0  0  0  0  0  0  0  0  0  0
   34.4710   30.9820   35.3850 C   0  0  0  0  0  0  0  0  0  0  0  0
   34.5270   31.8280   36.4090 N   0  0  0  0  0  0  0  0  0  0  0  0
   33.6500   32.6020   38.1080 H   0  0  0  0  0  0  0  0  0  0  0  0
   31.6190   31.1320   37.9100 H   0  0  0  0  0  0  0  0  0  0  0  0
   31.4960   29.5250   35.9740 H   0  0  0  0  0  0  0  0  0  0  0  0
   36.0480   27.4410   32.4460 O   0  0  0  0  0  0  0  0  0  0  0  0
   37.2530   25.6670   33.2740 C   0  0  0  0  0  0  0  0  0  0  0  0
   36.8610   27.0030   33.4680 C   0  0  0  0  0  0  0  0  0  0  0  0
   37.2650   27.7350   34.5540 C   0  0  0  0  0  0  0  0  0  0  0  0
   38.0810   27.1430   35.4880 C   0  0  0  0  0  0  0  0  0  0  0  0
   38.4710   25.8510   35.3150 C   0  0  0  0  0  0  0  0  0  0  0  0
   38.0900   25.0850   34.2430 C   0  0  0  0  0  0  0  0  0  0  0  0
   36.9120   28.7400   34.6090 H   0  0  0  0  0  0  0  0  0  0  0  0
   38.3630   27.7700   36.3160 H   0  0  0  0  0  0  0  0  0  0  0  0
   39.1170   25.4610   36.0990 H   0  0  0  0  0  0  0  0  0  0  0  0
   38.4710   24.0800   34.2200 H   0  0  0  0  0  0  0  0  0  0  0  0
   36.7910   24.6840   31.9120 S   0  0  0  0  0  0  0  0  0  0  0  0
   35.3750   24.9430   31.5270 O   0  0  0  0  0  0  0  0  0  0  0  0
   37.7350   25.0250   30.7500 O   0  0  0  0  0  0  0  0  0  0  0  0
   36.9220   22.9640   32.2970 C   0  0  0  0  0  2  0  0  0  0  0  0
   35.6810   22.2780   31.7670 C   0  0  0  0  0  2  0  0  0  0  0  0
   35.8990   21.7290   30.8190 H   0  0  0  0  0  0  0  0  0  0  0  0
  2  1  2  1  0  0  0
  2 20  1  0  0  0  0
  3  2  1  0  0  0  0
  4  3  1  0  0  0  0
  5  2  1  0  0  0  0
  5  6  1  0  0  0  0
  6  8  1  0  0  0  0
  6 10  1  0  0  0  0
  7  6  1  0  0  0  0
  9 15  1  0  0  0  0
 10  9  2  0  0  0  0
 11 17  1  0  0  0  0
 12 11  1  0  0  0  0
 12 18  1  0  0  0  0
 13 12  2  0  0  0  0
 14 15  2  0  0  0  0
 14 13  1  0  0  0  0
 15 16  1  0  0  0  0
 16 11  2  0  0  0  0
 19 13  1  0  0  0  0
 20 22  1  0  0  0  0
 21 22  2  0  0  0  0
 21 26  1  0  0  0  0
 22 23  1  0  0  0  0
 23 27  1  0  0  0  0
 23 24  2  0  0  0  0
 24 28  1  0  0  0  0
 25 24  1  0  0  0  0
 25 29  1  0  0  0  0
 26 25  2  0  0  0  0
 30 26  1  0  0  0  0
 31 34  1  0  0  0  0
 31 21  1  0  0  0  0
 32 31  2  0  0  0  0
 33 31  2  0  0  0  0
 35 34  1  0  0  0  0
 36 35  1  0  0  0  0
M  END
>  <minimizedAffinity>
-5.17989397

$$$$

 OpenBabel03262520363D

 36 37  0  0  0  0  0  0  0  0999 V2000
   35.2740   27.3310   31.7540 O   0  0  0  0  0  0  0  0  0  0  0  0
   36.6070   27.0850   31.0330 P   0  0  2  0  0  0  0  0  0  0  0  0
   36.5630   27.7050   29.4570 O   0  0  0  0  0  0  0  0  0  0  0  0
   35.6450   28.0580   29.3020 H   0  0  0  0  0  0  0  0  0  0  0  0
   36.7290   25.3860   30.9460 O   0  0  0  0  0  0  0  0  0  0  0  0
   35.4430   24.8450   31.0860 C   0  0  0  0  0  0  0  0  0  0  0  0
   34.9270   24.9090   30.1320 H   0  0  0  0  0  0  0  0  0  0  0  0
   34.8750   25.4910   31.8150 H   0  0  0  0  0  0  0  0  0  0  0  0
   35.6730   22.4020   30.9080 C   0  0  0  0  0  3  0  0  0  0  0  0
   35.4730   23.4680   31.6340 C   0  0  0  0  0  3  0  0  0  0  0  0
   35.3950   19.7470   33.4180 C   0  0  0  0  0  0  0  0  0  0  0  0
   35.7350   18.6000   32.6740 C   0  0  0  0  0  0  0  0  0  0  0  0
   36.0560   18.7630   31.3140 C   0  0  0  0  0  0  0  0  0  0  0  0
   36.0010   20.0520   30.8500 N   0  0  0  0  0  0  0  0  0  0  0  0
   35.6790   21.1050   31.5740 C   0  0  0  0  0  0  0  0  0  0  0  0
   35.3770   20.9370   32.8580 N   0  0  0  0  0  0  0  0  0  0  0  0
   35.1430   19.6620   34.4630 H   0  0  0  0  0  0  0  0  0  0  0  0
   35.7520   17.6230   33.1250 H   0  0  0  0  0  0  0  0  0  0  0  0
   36.3250   17.9240   30.6890 H   0  0  0  0  0  0  0  0  0  0  0  0
   37.8890   27.7570   31.9060 O   0  0  0  0  0  0  0  0  0  0  0  0
   39.5280   26.9980   33.3290 C   0  0  0  0  0  0  0  0  0  0  0  0
   38.2190   27.5000   33.2180 C   0  0  0  0  0  0  0  0  0  0  0  0
   37.4130   27.6930   34.3110 C   0  0  0  0  0  0  0  0  0  0  0  0
   37.9000   27.3830   35.5580 C   0  0  0  0  0  0  0  0  0  0  0  0
   39.1640   26.8980   35.6830 C   0  0  0  0  0  0  0  0  0  0  0  0
   40.0020   26.6920   34.6170 C   0  0  0  0  0  0  0  0  0  0  0  0
   36.4360   28.0770   34.1190 H   0  0  0  0  0  0  0  0  0  0  0  0
   37.2190   27.5570   36.3730 H   0  0  0  0  0  0  0  0  0  0  0  0
   39.4700   26.6800   36.7050 H   0  0  0  0  0  0  0  0  0  0  0  0
   40.9800   26.3090   34.8500 H   0  0  0  0  0  0  0  0  0  0  0  0
   40.6110   26.7430   31.9890 S   0  0  0  0  0  0  0  0  0  0  0  0
   40.5610   27.8910   31.0400 O   0  0  0  0  0  0  0  0  0  0  0  0
   42.0270   26.5790   32.5590 O   0  0  0  0  0  0  0  0  0  0  0  0
   40.1660   25.2940   31.0800 C   0  0  0  0  0  2  0  0  0  0  0  0
   40.0210   25.6890   29.6260 C   0  0  0  0  0  2  0  0  0  0  0  0
   40.9120   25.3700   29.0320 H   0  0  0  0  0  0  0  0  0  0  0  0
  2  1  2  1  0  0  0
  2 20  1  0  0  0  0
  3  2  1  0  0  0  0
  4  3  1  0  0  0  0
  5  2  1  0  0  0  0
  5  6  1  0  0  0  0
  6 10  1  0  0  0  0
  6  8  1  0  0  0  0
  7  6  1  0  0  0  0
  9 15  1  0  0  0  0
  9 10  2  0  0  0  0
 11 17  1  0  0  0  0
 12 18  1  0  0  0  0
 12 11  2  0  0  0  0
 13 12  1  0  0  0  0
 14 13  2  0  0  0  0
 14 15  1  0  0  0  0
 15 16  2  0  0  0  0
 16 11  1  0  0  0  0
 19 13  1  0  0  0  0
 20 22  1  0  0  0  0
 21 26  1  0  0  0  0
 22 21  2  0  0  0  0
 22 23  1  0  0  0  0
 23 24  2  0  0  0  0
 24 25  1  0  0  0  0
 24 28  1  0  0  0  0
 25 29  1  0  0  0  0
 26 30  1  0  0  0  0
 26 25  2  0  0  0  0
 27 23  1  0  0  0  0
 31 33  2  0  0  0  0
 31 21  1  0  0  0  0
 32 31  2  0  0  0  0
 34 31  1  0  0  0  0
 35 34  1  0  0  0  0
 36 35  1  0  0  0  0
M  END
>  <minimizedAffinity>
-5.07678318

$$$$

 OpenBabel03262520363D

 36 37  0  0  0  0  0  0  0  0999 V2000
   38.7640   27.6630   35.5760 O   0  0  0  0  0  0  0  0  0  0  0  0
   39.5200   26.7020   34.6480 P   0  0  2  0  0  0  0  0  0  0  0  0
   41.1950   26.8910   34.8190 O   0  0  0  0  0  0  0  0  0  0  0  0
   41.3460   27.6400   35.4570 H   0  0  0  0  0  0  0  0  0  0  0  0
   39.0740   27.1970   33.0780 O   0  0  0  0  0  0  0  0  0  0  0  0
   37.8560   26.5810   32.7520 C   0  0  0  0  0  0  0  0  0  0  0  0
   37.5450   25.9550   33.5840 H   0  0  0  0  0  0  0  0  0  0  0  0
   38.0400   25.8990   31.8730 H   0  0  0  0  0  0  0  0  0  0  0  0
   36.1620   28.3090   33.1970 C   0  0  0  0  0  3  0  0  0  0  0  0
   36.8220   27.5640   32.3520 C   0  0  0  0  0  3  0  0  0  0  0  0
   33.0360   30.1050   32.5470 C   0  0  0  0  0  0  0  0  0  0  0  0
   33.4320   31.0500   31.5800 C   0  0  0  0  0  0  0  0  0  0  0  0
   34.7770   31.0500   31.1660 C   0  0  0  0  0  0  0  0  0  0  0  0
   35.5740   30.1080   31.7650 N   0  0  0  0  0  0  0  0  0  0  0  0
   35.1700   29.2380   32.6680 C   0  0  0  0  0  0  0  0  0  0  0  0
   33.8970   29.2480   33.0510 N   0  0  0  0  0  0  0  0  0  0  0  0
   32.0130   30.0740   32.8890 H   0  0  0  0  0  0  0  0  0  0  0  0
   32.7340   31.7540   31.1630 H   0  0  0  0  0  0  0  0  0  0  0  0
   35.1440   31.7480   30.4290 H   0  0  0  0  0  0  0  0  0  0  0  0
   39.0640   25.1020   34.9480 O   0  0  0  0  0  0  0  0  0  0  0  0
   39.8660   23.5000   36.3900 C   0  0  0  0  0  0  0  0  0  0  0  0
   38.9050   24.5050   36.1790 C   0  0  0  0  0  0  0  0  0  0  0  0
   37.9510   24.8140   37.1140 C   0  0  0  0  0  0  0  0  0  0  0  0
   37.9310   24.1170   38.2990 C   0  0  0  0  0  0  0  0  0  0  0  0
   38.8550   23.1430   38.5190 C   0  0  0  0  0  0  0  0  0  0  0  0
   39.8250   22.8040   37.6110 C   0  0  0  0  0  0  0  0  0  0  0  0
   37.2670   25.5920   36.8570 H   0  0  0  0  0  0  0  0  0  0  0  0
   37.1590   24.4070   38.9890 H   0  0  0  0  0  0  0  0  0  0  0  0
   38.7680   22.6430   39.4810 H   0  0  0  0  0  0  0  0  0  0  0  0
   40.4980   22.0210   37.9080 H   0  0  0  0  0  0  0  0  0  0  0  0
   41.1140   23.0660   35.2550 S   0  0  0  0  0  0  0  0  0  0  0  0
   40.5420   22.8430   33.8970 O   0  0  0  0  0  0  0  0  0  0  0  0
   42.1350   24.2120   35.2250 O   0  0  0  0  0  0  0  0  0  0  0  0
   41.9180   21.5680   35.7370 C   0  0  0  0  0  2  0  0  0  0  0  0
   43.2410   21.9410   36.3730 C   0  0  0  0  0  2  0  0  0  0  0  0
   43.1880   21.8660   37.4860 H   0  0  0  0  0  0  0  0  0  0  0  0
  2  3  1  0  0  0  0
  2 20  1  0  0  0  0
  2  1  2  1  0  0  0
  3  4  1  0  0  0  0
  5  2  1  0  0  0  0
  6  5  1  0  0  0  0
  6  7  1  0  0  0  0
  8  6  1  0  0  0  0
 10  6  1  0  0  0  0
 10  9  2  0  0  0  0
 11 17  1  0  0  0  0
 11 16  1  0  0  0  0
 12 11  2  0  0  0  0
 13 12  1  0  0  0  0
 13 14  2  0  0  0  0
 14 15  1  0  0  0  0
 15 16  2  0  0  0  0
 15  9  1  0  0  0  0
 18 12  1  0  0  0  0
 19 13  1  0  0  0  0
 20 22  1  0  0  0  0
 21 26  1  0  0  0  0
 22 21  2  0  0  0  0
 22 23  1  0  0  0  0
 23 24  2  0  0  0  0
 24 25  1  0  0  0  0
 24 28  1  0  0  0  0
 25 29  1  0  0  0  0
 26 30  1  0  0  0  0
 26 25  2  0  0  0  0
 27 23  1  0  0  0  0
 31 34  1  0  0  0  0
 31 21  1  0  0  0  0
 32 31  2  0  0  0  0
 33 31  2  0  0  0  0
 34 35  1  0  0  0  0
 35 36  1  0  0  0  0
M  END
>  <minimizedAffinity>
-5.01440525

$$$$

 OpenBabel03262520363D

 36 37  0  0  0  0  0  0  0  0999 V2000
   36.5510   27.1950   34.8510 O   0  0  0  0  0  0  0  0  0  0  0  0
   38.0400   26.8230   34.8270 P   0  0  2  0  0  0  0  0  0  0  0  0
   38.9060   27.7230   35.9720 O   0  0  0  0  0  0  0  0  0  0  0  0
   38.2670   28.3590   36.3950 H   0  0  0  0  0  0  0  0  0  0  0  0
   38.5610   27.2820   33.2690 O   0  0  0  0  0  0  0  0  0  0  0  0
   37.5450   26.9640   32.3540 C   0  0  0  0  0  0  0  0  0  0  0  0
   37.6620   27.5820   31.4690 H   0  0  0  0  0  0  0  0  0  0  0  0
   36.5590   27.2410   32.8250 H   0  0  0  0  0  0  0  0  0  0  0  0
   36.4380   24.8890   31.6330 C   0  0  0  0  0  3  0  0  0  0  0  0
   37.5060   25.5140   32.0450 C   0  0  0  0  0  3  0  0  0  0  0  0
   37.6060   21.6060   30.5000 C   0  0  0  0  0  0  0  0  0  0  0  0
   36.5720   20.7560   30.9400 C   0  0  0  0  0  0  0  0  0  0  0  0
   35.4850   21.3320   31.6230 C   0  0  0  0  0  0  0  0  0  0  0  0
   35.5530   22.6920   31.7890 N   0  0  0  0  0  0  0  0  0  0  0  0
   36.5370   23.4590   31.3640 C   0  0  0  0  0  0  0  0  0  0  0  0
   37.5580   22.9010   30.7210 N   0  0  0  0  0  0  0  0  0  0  0  0
   38.4560   21.2010   29.9740 H   0  0  0  0  0  0  0  0  0  0  0  0
   36.6040   19.6950   30.7640 H   0  0  0  0  0  0  0  0  0  0  0  0
   34.6610   20.7360   31.9860 H   0  0  0  0  0  0  0  0  0  0  0  0
   38.2450   25.1660   35.0870 O   0  0  0  0  0  0  0  0  0  0  0  0
   39.5490   23.6760   36.2560 C   0  0  0  0  0  0  0  0  0  0  0  0
   38.4380   24.5370   36.2970 C   0  0  0  0  0  0  0  0  0  0  0  0
   37.6750   24.6950   37.4260 C   0  0  0  0  0  0  0  0  0  0  0  0
   38.0070   23.9880   38.5560 C   0  0  0  0  0  0  0  0  0  0  0  0
   39.0800   23.1520   38.5340 C   0  0  0  0  0  0  0  0  0  0  0  0
   39.8680   22.9660   37.4270 C   0  0  0  0  0  0  0  0  0  0  0  0
   36.8530   25.3720   37.3530 H   0  0  0  0  0  0  0  0  0  0  0  0
   37.3700   24.1570   39.4070 H   0  0  0  0  0  0  0  0  0  0  0  0
   39.2720   22.6320   39.4700 H   0  0  0  0  0  0  0  0  0  0  0  0
   40.6900   22.2820   37.5410 H   0  0  0  0  0  0  0  0  0  0  0  0
   40.5690   23.4380   34.8640 S   0  0  0  0  0  0  0  0  0  0  0  0
   41.1800   24.7240   34.4270 O   0  0  0  0  0  0  0  0  0  0  0  0
   41.6610   22.4310   35.2550 O   0  0  0  0  0  0  0  0  0  0  0  0
   39.6430   22.8070   33.4980 C   0  0  0  0  0  2  0  0  0  0  0  0
   38.6470   21.8030   34.0420 C   0  0  0  0  0  2  0  0  0  0  0  0
   37.6210   22.2410   34.0920 H   0  0  0  0  0  0  0  0  0  0  0  0
  2  1  2  1  0  0  0
  2 20  1  0  0  0  0
  2  3  1  0  0  0  0
  3  4  1  0  0  0  0
  5  2  1  0  0  0  0
  6  8  1  0  0  0  0
  6  5  1  0  0  0  0
  7  6  1  0  0  0  0
  9 10  2  0  0  0  0
 10  6  1  0  0  0  0
 11 16  2  0  0  0  0
 11 12  1  0  0  0  0
 12 13  2  0  0  0  0
 13 14  1  0  0  0  0
 13 19  1  0  0  0  0
 15  9  1  0  0  0  0
 15 14  2  0  0  0  0
 16 15  1  0  0  0  0
 17 11  1  0  0  0  0
 18 12  1  0  0  0  0
 20 22  1  0  0  0  0
 21 22  2  0  0  0  0
 21 26  1  0  0  0  0
 22 23  1  0  0  0  0
 23 24  2  0  0  0  0
 24 28  1  0  0  0  0
 25 24  1  0  0  0  0
 25 29  1  0  0  0  0
 26 30  1  0  0  0  0
 26 25  2  0  0  0  0
 27 23  1  0  0  0  0
 31 33  2  0  0  0  0
 31 21  1  0  0  0  0
 32 31  2  0  0  0  0
 34 35  1  0  0  0  0
 34 31  1  0  0  0  0
 35 36  1  0  0  0  0
M  END
>  <minimizedAffinity>
-4.99116087

$$$$

 OpenBabel03262520363D

 36 37  0  0  0  0  0  0  0  0999 V2000
   37.0960   27.8850   30.4150 O   0  0  0  0  0  0  0  0  0  0  0  0
   36.1820   26.9390   31.2080 P   0  0  2  0  0  0  0  0  0  0  0  0
   35.2770   25.9590   30.1640 O   0  0  0  0  0  0  0  0  0  0  0  0
   35.4870   26.2420   29.2330 H   0  0  0  0  0  0  0  0  0  0  0  0
   35.1170   27.9830   32.0350 O   0  0  0  0  0  0  0  0  0  0  0  0
   35.6260   29.2880   31.9510 C   0  0  0  0  0  0  0  0  0  0  0  0
   35.2660   29.7470   31.0350 H   0  0  0  0  0  0  0  0  0  0  0  0
   36.7480   29.2150   31.8690 H   0  0  0  0  0  0  0  0  0  0  0  0
   34.4870   29.7020   34.0920 C   0  0  0  0  0  3  0  0  0  0  0  0
   35.3130   30.0880   33.1590 C   0  0  0  0  0  3  0  0  0  0  0  0
   34.9670   32.1720   36.7560 C   0  0  0  0  0  0  0  0  0  0  0  0
   33.7010   32.1910   37.3740 C   0  0  0  0  0  0  0  0  0  0  0  0
   32.6990   31.3480   36.8590 C   0  0  0  0  0  0  0  0  0  0  0  0
   33.0750   30.5810   35.7850 N   0  0  0  0  0  0  0  0  0  0  0  0
   34.2700   30.5870   35.2310 C   0  0  0  0  0  0  0  0  0  0  0  0
   35.2070   31.3890   35.7270 N   0  0  0  0  0  0  0  0  0  0  0  0
   35.7600   32.8040   37.1220 H   0  0  0  0  0  0  0  0  0  0  0  0
   33.4960   32.8280   38.2150 H   0  0  0  0  0  0  0  0  0  0  0  0
   31.7080   31.3150   37.2860 H   0  0  0  0  0  0  0  0  0  0  0  0
   37.0880   25.9980   32.2810 O   0  0  0  0  0  0  0  0  0  0  0  0
   39.0480   26.0210   33.4820 C   0  0  0  0  0  0  0  0  0  0  0  0
   37.7010   26.4230   33.4380 C   0  0  0  0  0  0  0  0  0  0  0  0
   37.1200   27.1480   34.4460 C   0  0  0  0  0  0  0  0  0  0  0  0
   37.8780   27.4930   35.5390 C   0  0  0  0  0  0  0  0  0  0  0  0
   39.1830   27.1120   35.5970 C   0  0  0  0  0  0  0  0  0  0  0  0
   39.8020   26.3880   34.6110 C   0  0  0  0  0  0  0  0  0  0  0  0
   36.0920   27.4030   34.3170 H   0  0  0  0  0  0  0  0  0  0  0  0
   37.3640   28.0600   36.2950 H   0  0  0  0  0  0  0  0  0  0  0  0
   39.7100   27.4270   36.4960 H   0  0  0  0  0  0  0  0  0  0  0  0
   40.8390   26.1550   34.7740 H   0  0  0  0  0  0  0  0  0  0  0  0
   39.8540   25.1130   32.2330 S   0  0  0  0  0  0  0  0  0  0  0  0
   41.2320   24.7360   32.6560 O   0  0  0  0  0  0  0  0  0  0  0  0
   39.0160   23.8580   31.9550 O   0  0  0  0  0  0  0  0  0  0  0  0
   40.0040   26.0660   30.7520 C   0  0  0  0  0  2  0  0  0  0  0  0
   40.5270   27.4350   31.1370 C   0  0  0  0  0  2  0  0  0  0  0  0
   41.6140   27.5310   30.8980 H   0  0  0  0  0  0  0  0  0  0  0  0
  2  1  2  6  0  0  0
  2  5  1  0  0  0  0
  2 20  1  0  0  0  0
  3  2  1  0  0  0  0
  4  3  1  0  0  0  0
  6  5  1  0  0  0  0
  6 10  1  0  0  0  0
  7  6  1  0  0  0  0
  8  6  1  0  0  0  0
  9 15  1  0  0  0  0
 10  9  2  0  0  0  0
 11 17  1  0  0  0  0
 11 12  1  0  0  0  0
 12 18  1  0  0  0  0
 13 19  1  0  0  0  0
 13 12  2  0  0  0  0
 14 13  1  0  0  0  0
 15 16  1  0  0  0  0
 15 14  2  0  0  0  0
 16 11  2  0  0  0  0
 20 22  1  0  0  0  0
 21 26  1  0  0  0  0
 22 21  2  0  0  0  0
 22 23  1  0  0  0  0
 23 24  2  0  0  0  0
 24 25  1  0  0  0  0
 24 28  1  0  0  0  0
 25 29  1  0  0  0  0
 26 30  1  0  0  0  0
 26 25  2  0  0  0  0
 27 23  1  0  0  0  0
 31 32  2  0  0  0  0
 31 21  1  0  0  0  0
 33 31  2  0  0  0  0
 34 35  1  0  0  0  0
 34 31  1  0  0  0  0
 36 35  1  0  0  0  0
M  END
>  <minimizedAffinity>
-4.97745657

$$$$

 OpenBabel03262520363D

 36 37  0  0  0  0  0  0  0  0999 V2000
   39.9650   26.9150   34.7670 O   0  0  0  0  0  0  0  0  0  0  0  0
   39.4250   25.8040   33.8550 P   0  0  2  0  0  0  0  0  0  0  0  0
   40.3010   25.7320   32.4070 O   0  0  0  0  0  0  0  0  0  0  0  0
   40.9620   26.4760   32.4230 H   0  0  0  0  0  0  0  0  0  0  0  0
   37.8290   26.2910   33.5020 O   0  0  0  0  0  0  0  0  0  0  0  0
   37.4990   25.8220   32.2220 C   0  0  0  0  0  0  0  0  0  0  0  0
   38.3690   25.9190   31.5770 H   0  0  0  0  0  0  0  0  0  0  0  0
   36.6980   26.4970   31.8040 H   0  0  0  0  0  0  0  0  0  0  0  0
   36.9740   23.6320   31.2320 C   0  0  0  0  0  3  0  0  0  0  0  0
   36.9550   24.4440   32.2540 C   0  0  0  0  0  3  0  0  0  0  0  0
   34.8460   20.8310   32.2580 C   0  0  0  0  0  0  0  0  0  0  0  0
   35.4600   19.7400   31.6110 C   0  0  0  0  0  0  0  0  0  0  0  0
   36.6020   19.9910   30.8280 C   0  0  0  0  0  0  0  0  0  0  0  0
   37.0030   21.3030   30.7810 N   0  0  0  0  0  0  0  0  0  0  0  0
   36.4040   22.3000   31.4000 C   0  0  0  0  0  0  0  0  0  0  0  0
   35.3260   22.0490   32.1350 N   0  0  0  0  0  0  0  0  0  0  0  0
   33.9690   20.6780   32.8660 H   0  0  0  0  0  0  0  0  0  0  0  0
   35.0740   18.7410   31.7060 H   0  0  0  0  0  0  0  0  0  0  0  0
   37.1190   19.1990   30.3060 H   0  0  0  0  0  0  0  0  0  0  0  0
   39.4580   24.3120   34.6500 O   0  0  0  0  0  0  0  0  0  0  0  0
   40.0240   23.1530   36.5530 C   0  0  0  0  0  0  0  0  0  0  0  0
   39.1340   24.0700   35.9670 C   0  0  0  0  0  0  0  0  0  0  0  0
   38.0920   24.6270   36.6630 C   0  0  0  0  0  0  0  0  0  0  0  0
   37.9080   24.2760   37.9790 C   0  0  0  0  0  0  0  0  0  0  0  0
   38.7600   23.3900   38.5610 C   0  0  0  0  0  0  0  0  0  0  0  0
   39.8140   22.8120   37.9020 C   0  0  0  0  0  0  0  0  0  0  0  0
   37.4740   25.3130   36.1260 H   0  0  0  0  0  0  0  0  0  0  0  0
   37.0740   24.7470   38.4680 H   0  0  0  0  0  0  0  0  0  0  0  0
   38.5440   23.1680   39.6040 H   0  0  0  0  0  0  0  0  0  0  0  0
   40.4170   22.1320   38.4760 H   0  0  0  0  0  0  0  0  0  0  0  0
   41.3760   22.4190   35.7360 S   0  0  0  0  0  0  0  0  0  0  0  0
   42.0280   21.3970   36.6010 O   0  0  0  0  0  0  0  0  0  0  0  0
   40.8450   21.7730   34.4480 O   0  0  0  0  0  0  0  0  0  0  0  0
   42.6030   23.6240   35.3320 C   0  0  0  0  0  2  0  0  0  0  0  0
   43.4750   23.8200   36.5550 C   0  0  0  0  0  2  0  0  0  0  0  0
   44.4520   23.2890   36.4410 H   0  0  0  0  0  0  0  0  0  0  0  0
  2 20  1  0  0  0  0
  2  1  2  1  0  0  0
  3  4  1  0  0  0  0
  3  2  1  0  0  0  0
  5  2  1  0  0  0  0
  6 10  1  0  0  0  0
  6  5  1  0  0  0  0
  7  6  1  0  0  0  0
  8  6  1  0  0  0  0
  9 15  1  0  0  0  0
  9 10  2  0  0  0  0
 11 17  1  0  0  0  0
 12 18  1  0  0  0  0
 12 11  2  0  0  0  0
 13 12  1  0  0  0  0
 14 13  2  0  0  0  0
 14 15  1  0  0  0  0
 15 16  2  0  0  0  0
 16 11  1  0  0  0  0
 19 13  1  0  0  0  0
 20 22  1  0  0  0  0
 21 26  1  0  0  0  0
 22 21  2  0  0  0  0
 22 23  1  0  0  0  0
 23 24  2  0  0  0  0
 24 28  1  0  0  0  0
 24 25  1  0  0  0  0
 25 29  1  0  0  0  0
 26 30  1  0  0  0  0
 26 25  2  0  0  0  0
 27 23  1  0  0  0  0
 31 21  1  0  0  0  0
 31 32  2  0  0  0  0
 33 31  2  0  0  0  0
 34 31  1  0  0  0  0
 34 35  1  0  0  0  0
 36 35  1  0  0  0  0
M  END
>  <minimizedAffinity>
-4.97208452

$$$$

 OpenBabel03262520363D

 36 37  0  0  0  0  0  0  0  0999 V2000
   39.0700   24.9350   29.5240 O   0  0  0  0  0  0  0  0  0  0  0  0
   39.4100   25.0340   31.0180 P   0  0  2  0  0  0  0  0  0  0  0  0
   41.0540   24.7250   31.2850 O   0  0  0  0  0  0  0  0  0  0  0  0
   41.4580   24.4830   30.4070 H   0  0  0  0  0  0  0  0  0  0  0  0
   38.4980   23.7860   31.7390 O   0  0  0  0  0  0  0  0  0  0  0  0
   39.3860   22.8900   32.3520 C   0  0  0  0  0  0  0  0  0  0  0  0
   40.3720   23.0160   31.9130 H   0  0  0  0  0  0  0  0  0  0  0  0
   39.0440   21.8440   32.1050 H   0  0  0  0  0  0  0  0  0  0  0  0
   38.3370   23.3520   34.5290 C   0  0  0  0  0  3  0  0  0  0  0  0
   39.3880   23.0270   33.8280 C   0  0  0  0  0  3  0  0  0  0  0  0
   37.8110   24.2090   38.0520 C   0  0  0  0  0  0  0  0  0  0  0  0
   38.8790   23.5390   38.6820 C   0  0  0  0  0  0  0  0  0  0  0  0
   39.7650   22.8000   37.8770 C   0  0  0  0  0  0  0  0  0  0  0  0
   39.4860   22.8140   36.5340 N   0  0  0  0  0  0  0  0  0  0  0  0
   38.4770   23.4520   35.9770 C   0  0  0  0  0  0  0  0  0  0  0  0
   37.6460   24.1460   36.7490 N   0  0  0  0  0  0  0  0  0  0  0  0
   37.1110   24.7850   38.6360 H   0  0  0  0  0  0  0  0  0  0  0  0
   39.0200   23.5850   39.7470 H   0  0  0  0  0  0  0  0  0  0  0  0
   40.6030   22.2640   38.2980 H   0  0  0  0  0  0  0  0  0  0  0  0
   38.9790   26.5500   31.6280 O   0  0  0  0  0  0  0  0  0  0  0  0
   37.3630   27.2810   33.0910 C   0  0  0  0  0  0  0  0  0  0  0  0
   38.6970   26.8640   32.9390 C   0  0  0  0  0  0  0  0  0  0  0  0
   39.5680   26.7950   33.9960 C   0  0  0  0  0  0  0  0  0  0  0  0
   39.1230   27.1470   35.2470 C   0  0  0  0  0  0  0  0  0  0  0  0
   37.8350   27.5520   35.4120 C   0  0  0  0  0  0  0  0  0  0  0  0
   36.9330   27.6330   34.3830 C   0  0  0  0  0  0  0  0  0  0  0  0
   40.5590   26.4670   33.7740 H   0  0  0  0  0  0  0  0  0  0  0  0
   39.8550   27.0710   36.0330 H   0  0  0  0  0  0  0  0  0  0  0  0
   37.5660   27.8100   36.4340 H   0  0  0  0  0  0  0  0  0  0  0  0
   35.9430   27.9620   34.6460 H   0  0  0  0  0  0  0  0  0  0  0  0
   36.1990   27.3780   31.7990 S   0  0  0  0  0  0  0  0  0  0  0  0
   35.7920   26.0170   31.3480 O   0  0  0  0  0  0  0  0  0  0  0  0
   34.9840   28.1550   32.3240 O   0  0  0  0  0  0  0  0  0  0  0  0
   36.8760   28.2140   30.3960 C   0  0  0  0  0  2  0  0  0  0  0  0
   37.0560   29.6700   30.7720 C   0  0  0  0  0  2  0  0  0  0  0  0
   38.1270   29.8980   30.9920 H   0  0  0  0  0  0  0  0  0  0  0  0
  2  1  2  6  0  0  0
  2  3  1  0  0  0  0
  2 20  1  0  0  0  0
  2  5  1  0  0  0  0
  4  3  1  0  0  0  0
  5  6  1  0  0  0  0
  6 10  1  0  0  0  0
  7  6  1  0  0  0  0
  8  6  1  0  0  0  0
  9 15  1  0  0  0  0
 10  9  2  0  0  0  0
 11 17  1  0  0  0  0
 11 12  1  0  0  0  0
 12 18  1  0  0  0  0
 13 19  1  0  0  0  0
 13 12  2  0  0  0  0
 14 13  1  0  0  0  0
 15 14  2  0  0  0  0
 15 16  1  0  0  0  0
 16 11  2  0  0  0  0
 20 22  1  0  0  0  0
 21 26  1  0  0  0  0
 22 21  2  0  0  0  0
 22 23  1  0  0  0  0
 23 24  2  0  0  0  0
 24 25  1  0  0  0  0
 24 28  1  0  0  0  0
 25 29  1  0  0  0  0
 26 30  1  0  0  0  0
 26 25  2  0  0  0  0
 27 23  1  0  0  0  0
 31 33  2  0  0  0  0
 31 21  1  0  0  0  0
 32 31  2  0  0  0  0
 34 35  1  0  0  0  0
 34 31  1  0  0  0  0
 35 36  1  0  0  0  0
M  END
>  <minimizedAffinity>
-4.95851278

$$$$

 OpenBabel03262520363D

 36 37  0  0  0  0  0  0  0  0999 V2000
   39.0370   27.1360   35.0080 O   0  0  0  0  0  0  0  0  0  0  0  0
   38.5100   26.0660   34.0400 P   0  0  2  0  0  0  0  0  0  0  0  0
   39.2580   26.2010   32.5260 O   0  0  0  0  0  0  0  0  0  0  0  0
   39.8560   26.9970   32.5600 H   0  0  0  0  0  0  0  0  0  0  0  0
   36.8550   26.4390   33.8650 O   0  0  0  0  0  0  0  0  0  0  0  0
   36.7500   27.7130   33.2870 C   0  0  0  0  0  0  0  0  0  0  0  0
   36.4110   27.6060   32.2600 H   0  0  0  0  0  0  0  0  0  0  0  0
   37.7840   28.1620   33.2520 H   0  0  0  0  0  0  0  0  0  0  0  0
   36.2960   29.7610   34.5720 C   0  0  0  0  0  3  0  0  0  0  0  0
   35.8920   28.6190   34.0870 C   0  0  0  0  0  3  0  0  0  0  0  0
   34.8190   32.2150   36.8580 C   0  0  0  0  0  0  0  0  0  0  0  0
   33.4410   31.9640   36.7110 C   0  0  0  0  0  0  0  0  0  0  0  0
   33.0430   30.9490   35.8230 C   0  0  0  0  0  0  0  0  0  0  0  0
   34.0660   30.2980   35.1800 N   0  0  0  0  0  0  0  0  0  0  0  0
   35.3470   30.5580   35.3410 C   0  0  0  0  0  0  0  0  0  0  0  0
   35.7100   31.5210   36.1830 N   0  0  0  0  0  0  0  0  0  0  0  0
   35.1630   32.9850   37.5290 H   0  0  0  0  0  0  0  0  0  0  0  0
   32.7060   32.5270   37.2590 H   0  0  0  0  0  0  0  0  0  0  0  0
   32.0020   30.7070   35.6650 H   0  0  0  0  0  0  0  0  0  0  0  0
   38.7340   24.5190   34.6840 O   0  0  0  0  0  0  0  0  0  0  0  0
   39.7740   23.3650   36.3790 C   0  0  0  0  0  0  0  0  0  0  0  0
   38.6740   24.1600   36.0120 C   0  0  0  0  0  0  0  0  0  0  0  0
   37.6910   24.5070   36.9030 C   0  0  0  0  0  0  0  0  0  0  0  0
   37.7830   24.0620   38.2000 C   0  0  0  0  0  0  0  0  0  0  0  0
   38.8420   23.2930   38.5720 C   0  0  0  0  0  0  0  0  0  0  0  0
   39.8450   22.9250   37.7130 C   0  0  0  0  0  0  0  0  0  0  0  0
   36.8980   25.1120   36.5250 H   0  0  0  0  0  0  0  0  0  0  0  0
   36.9810   24.3680   38.8490 H   0  0  0  0  0  0  0  0  0  0  0  0
   38.8370   22.9850   39.6150 H   0  0  0  0  0  0  0  0  0  0  0  0
   40.6290   22.3200   38.1310 H   0  0  0  0  0  0  0  0  0  0  0  0
   41.0650   22.9000   35.3050 S   0  0  0  0  0  0  0  0  0  0  0  0
   40.5560   22.0260   34.2110 O   0  0  0  0  0  0  0  0  0  0  0  0
   41.6750   24.1850   34.7270 O   0  0  0  0  0  0  0  0  0  0  0  0
   42.3100   21.9890   36.1670 C   0  0  0  0  0  2  0  0  0  0  0  0
   43.4910   22.9130   36.3810 C   0  0  0  0  0  2  0  0  0  0  0  0
   43.5230   23.2860   37.4330 H   0  0  0  0  0  0  0  0  0  0  0  0
  2 20  1  0  0  0  0
  2  1  2  1  0  0  0
  3  4  1  0  0  0  0
  3  2  1  0  0  0  0
  5  2  1  0  0  0  0
  6  5  1  0  0  0  0
  6 10  1  0  0  0  0
  7  6  1  0  0  0  0
  8  6  1  0  0  0  0
  9 15  1  0  0  0  0
 10  9  2  0  0  0  0
 11 17  1  0  0  0  0
 12 11  1  0  0  0  0
 12 18  1  0  0  0  0
 13 12  2  0  0  0  0
 14 15  2  0  0  0  0
 14 13  1  0  0  0  0
 15 16  1  0  0  0  0
 16 11  2  0  0  0  0
 19 13  1  0  0  0  0
 20 22  1  0  0  0  0
 21 26  1  0  0  0  0
 22 21  2  0  0  0  0
 22 23  1  0  0  0  0
 23 24  2  0  0  0  0
 24 25  1  0  0  0  0
 24 28  1  0  0  0  0
 25 29  1  0  0  0  0
 26 30  1  0  0  0  0
 26 25  2  0  0  0  0
 27 23  1  0  0  0  0
 31 34  1  0  0  0  0
 31 21  1  0  0  0  0
 32 31  2  0  0  0  0
 33 31  2  0  0  0  0
 34 35  1  0  0  0  0
 35 36  1  0  0  0  0
M  END
>  <minimizedAffinity>
-4.92614508

$$$$

 OpenBabel03262520363D

 36 37  0  0  0  0  0  0  0  0999 V2000
   39.6900   27.1250   35.3300 O   0  0  0  0  0  0  0  0  0  0  0  0
   40.6770   26.5410   34.3090 P   0  0  2  0  0  0  0  0  0  0  0  0
   42.2650   27.0120   34.6670 O   0  0  0  0  0  0  0  0  0  0  0  0
   42.2230   27.6280   35.4480 H   0  0  0  0  0  0  0  0  0  0  0  0
   40.2190   27.2540   32.8290 O   0  0  0  0  0  0  0  0  0  0  0  0
   39.0190   26.6600   32.4080 C   0  0  0  0  0  0  0  0  0  0  0  0
   38.7600   25.8620   33.0990 H   0  0  0  0  0  0  0  0  0  0  0  0
   39.2040   26.1840   31.4030 H   0  0  0  0  0  0  0  0  0  0  0  0
   36.9580   27.8140   33.0960 C   0  0  0  0  0  3  0  0  0  0  0  0
   37.9320   27.6540   32.2420 C   0  0  0  0  0  3  0  0  0  0  0  0
   34.1240   30.1190   33.3780 C   0  0  0  0  0  0  0  0  0  0  0  0
   34.1350   30.7580   32.1220 C   0  0  0  0  0  0  0  0  0  0  0  0
   35.1250   30.3810   31.1960 C   0  0  0  0  0  0  0  0  0  0  0  0
   35.9910   29.4080   31.6270 N   0  0  0  0  0  0  0  0  0  0  0  0
   35.9520   28.8310   32.8110 C   0  0  0  0  0  0  0  0  0  0  0  0
   35.0120   29.1970   33.6770 N   0  0  0  0  0  0  0  0  0  0  0  0
   33.3810   30.3820   34.1140 H   0  0  0  0  0  0  0  0  0  0  0  0
   33.4130   31.5140   31.8690 H   0  0  0  0  0  0  0  0  0  0  0  0
   35.1890   30.8320   30.2160 H   0  0  0  0  0  0  0  0  0  0  0  0
   40.5500   24.8560   34.2530 O   0  0  0  0  0  0  0  0  0  0  0  0
   40.1990   23.1910   35.7990 C   0  0  0  0  0  0  0  0  0  0  0  0
   41.1520   23.9540   35.1010 C   0  0  0  0  0  0  0  0  0  0  0  0
   42.5010   23.7810   35.2790 C   0  0  0  0  0  0  0  0  0  0  0  0
   42.9380   22.8310   36.1700 C   0  0  0  0  0  0  0  0  0  0  0  0
   42.0290   22.0830   36.8520 C   0  0  0  0  0  0  0  0  0  0  0  0
   40.6730   22.2240   36.7030 C   0  0  0  0  0  0  0  0  0  0  0  0
   43.1410   24.4110   34.7020 H   0  0  0  0  0  0  0  0  0  0  0  0
   44.0060   22.7450   36.2630 H   0  0  0  0  0  0  0  0  0  0  0  0
   42.4590   21.3540   37.5360 H   0  0  0  0  0  0  0  0  0  0  0  0
   40.0610   21.5680   37.2960 H   0  0  0  0  0  0  0  0  0  0  0  0
   38.4740   23.3460   35.6130 S   0  0  0  0  0  0  0  0  0  0  0  0
   38.1230   23.7200   34.2140 O   0  0  0  0  0  0  0  0  0  0  0  0
   37.8430   21.9950   35.9810 O   0  0  0  0  0  0  0  0  0  0  0  0
   37.8320   24.6080   36.6700 C   0  0  0  0  0  2  0  0  0  0  0  0
   37.8130   24.0600   38.0810 C   0  0  0  0  0  2  0  0  0  0  0  0
   38.6610   24.4680   38.6830 H   0  0  0  0  0  0  0  0  0  0  0  0
  2  3  1  0  0  0  0
  2  1  2  1  0  0  0
  3  4  1  0  0  0  0
  5  2  1  0  0  0  0
  6  5  1  0  0  0  0
  6  7  1  0  0  0  0
  8  6  1  0  0  0  0
 10  6  1  0  0  0  0
 10  9  2  0  0  0  0
 11 16  1  0  0  0  0
 11 17  1  0  0  0  0
 12 11  2  0  0  0  0
 13 14  2  0  0  0  0
 13 12  1  0  0  0  0
 14 15  1  0  0  0  0
 15  9  1  0  0  0  0
 15 16  2  0  0  0  0
 18 12  1  0  0  0  0
 19 13  1  0  0  0  0
 20  2  1  0  0  0  0
 20 22  1  0  0  0  0
 21 26  1  0  0  0  0
 22 23  1  0  0  0  0
 22 21  2  0  0  0  0
 23 24  2  0  0  0  0
 24 28  1  0  0  0  0
 24 25  1  0  0  0  0
 25 29  1  0  0  0  0
 26 25  2  0  0  0  0
 26 30  1  0  0  0  0
 27 23  1  0  0  0  0
 31 21  1  0  0  0  0
 31 33  2  0  0  0  0
 31 34  1  0  0  0  0
 32 31  2  0  0  0  0
 34 35  1  0  0  0  0
 35 36  1  0  0  0  0
M  END
>  <minimizedAffinity>
-4.92612028

$$$$
