
 OpenBabel03272510113D

 29 31  0  0  0  0  0  0  0  0999 V2000
   33.5770   28.6340   48.2290 C   0  0  0  0  0  0  0  0  0  0  0  0
   34.0550   28.2890   49.4520 C   0  0  0  0  0  0  0  0  0  0  0  0
   35.3040   28.6160   49.9310 C   0  0  0  0  0  0  0  0  0  0  0  0
   36.1610   29.3400   49.1570 C   0  0  0  0  0  0  0  0  0  0  0  0
   35.6810   29.7030   47.8910 C   0  0  0  0  0  0  0  0  0  0  0  0
   34.4500   29.3590   47.4660 N   0  0  0  0  0  0  0  0  0  0  0  0
   33.4400   27.7140   50.1310 H   0  0  0  0  0  0  0  0  0  0  0  0
   35.6770   28.3370   50.9060 H   0  0  0  0  0  0  0  0  0  0  0  0
   36.2630   30.2760   47.1840 H   0  0  0  0  0  0  0  0  0  0  0  0
   31.3420   27.5610   48.4610 C   0  0  0  0  0  0  0  0  0  0  0  0
   32.2830   28.2930   47.7230 C   0  0  0  0  0  0  0  0  0  0  0  0
   31.9170   28.6740   46.4610 C   0  0  0  0  0  0  0  0  0  0  0  0
   30.6810   28.3360   45.9790 N   0  0  0  0  0  0  0  0  0  0  0  0
   29.8050   27.6220   46.7430 C   0  0  0  0  0  0  0  0  0  0  0  0
   30.1250   27.2250   47.9960 N   0  0  0  0  0  0  0  0  0  0  0  0
   31.5820   27.2360   49.4640 H   0  0  0  0  0  0  0  0  0  0  0  0
   32.5950   29.2380   45.8460 H   0  0  0  0  0  0  0  0  0  0  0  0
   28.8630   27.4300   46.2210 H   0  0  0  0  0  0  0  0  0  0  0  0
   37.4500   29.7580   49.4710 O   0  0  0  0  0  0  0  0  0  0  0  0
   37.9650   30.9580   49.0180 C   0  0  0  0  0  0  0  0  0  0  0  0
   37.5390   32.0670   49.7480 C   0  0  0  0  0  0  0  0  0  0  0  0
   38.1360   33.1890   49.1770 C   0  0  0  0  0  0  0  0  0  0  0  0
   38.8780   32.7450   48.1530 N   0  0  0  0  0  0  0  0  0  0  0  0
   38.7770   31.4420   48.0610 N   0  0  0  0  0  0  0  0  0  0  0  0
   36.8880   32.2360   50.6090 H   0  0  0  0  0  0  0  0  0  0  0  0
   38.0580   34.2390   49.4540 H   0  0  0  0  0  0  0  0  0  0  0  0
   39.6750   33.5820   47.2770 C   0  0  0  0  0  2  0  0  0  0  0  0
   40.2680   34.6840   48.1260 C   0  0  0  0  0  2  0  0  0  0  0  0
   39.7010   35.6130   47.9700 H   0  0  0  0  0  0  0  0  0  0  0  0
  1  2  1  0  0  0  0
  2  3  2  0  0  0  0
  2  7  1  0  0  0  0
  3  8  1  0  0  0  0
  4 19  1  0  0  0  0
  4  3  1  0  0  0  0
  5  4  2  0  0  0  0
  6  5  1  0  0  0  0
  6  1  2  0  0  0  0
  9  5  1  0  0  0  0
 10 16  1  0  0  0  0
 11  1  1  0  0  0  0
 11 10  2  0  0  0  0
 12 11  1  0  0  0  0
 13 12  2  0  0  0  0
 13 14  1  0  0  0  0
 14 15  2  0  0  0  0
 15 10  1  0  0  0  0
 17 12  1  0  0  0  0
 18 14  1  0  0  0  0
 20 19  1  0  0  0  0
 20 21  1  0  0  0  0
 21 25  1  0  0  0  0
 22 26  1  0  0  0  0
 22 21  2  0  0  0  0
 23 22  1  0  0  0  0
 24 23  1  0  0  0  0
 24 20  2  0  0  0  0
 27 28  1  0  0  0  0
 27 23  1  0  0  0  0
 29 28  1  0  0  0  0
M  END
>  <minimizedAffinity>
-4.74019384

>  <minimizedRMSD>
0.419042438

$$$$
