
 OpenBabel03272508343D

 19 20  0  0  0  0  0  0  0  0999 V2000
   38.5200   24.5500   36.1520 C   0  0  0  0  0  0  0  0  0  0  0  0
   37.9640   24.3240   37.3860 C   0  0  0  0  0  0  0  0  0  0  0  0
   38.7230   23.3680   38.0480 C   0  0  0  0  0  0  0  0  0  0  0  0
   39.7240   23.0450   37.1830 N   0  0  0  0  0  0  0  0  0  0  0  0
   39.5960   23.7530   36.0580 N   0  0  0  0  0  0  0  0  0  0  0  0
   37.1020   24.7300   37.8960 H   0  0  0  0  0  0  0  0  0  0  0  0
   38.5930   22.9400   39.0330 H   0  0  0  0  0  0  0  0  0  0  0  0
   37.1370   27.6700   34.5620 C   0  0  0  0  0  0  0  0  0  0  0  0
   37.6730   26.8370   35.5460 C   0  0  0  0  0  0  0  0  0  0  0  0
   37.9620   25.5000   35.2090 C   0  0  0  0  0  0  0  0  0  0  0  0
   37.6960   25.1030   33.9300 N   0  0  0  0  0  0  0  0  0  0  0  0
   37.1720   25.9520   33.0060 C   0  0  0  0  0  0  0  0  0  0  0  0
   36.8980   27.2220   33.3250 N   0  0  0  0  0  0  0  0  0  0  0  0
   36.9060   28.7080   34.8040 H   0  0  0  0  0  0  0  0  0  0  0  0
   37.8730   27.1720   36.5430 H   0  0  0  0  0  0  0  0  0  0  0  0
   37.0360   25.4360   32.0460 H   0  0  0  0  0  0  0  0  0  0  0  0
   40.7620   22.0580   37.4930 C   0  0  0  0  0  2  0  0  0  0  0  0
   42.0260   22.3960   36.7300 C   0  0  0  0  0  2  0  0  0  0  0  0
   41.9960   21.8720   35.7770 H   0  0  0  0  0  0  0  0  0  0  0  0
  1  2  1  0  0  0  0
  2  6  1  0  0  0  0
  2  3  2  0  0  0  0
  3  7  1  0  0  0  0
  4 17  1  0  0  0  0
  4  3  1  0  0  0  0
  5  1  2  0  0  0  0
  5  4  1  0  0  0  0
  8 14  1  0  0  0  0
  8  9  1  0  0  0  0
  9 15  1  0  0  0  0
 10  9  2  0  0  0  0
 10  1  1  0  0  0  0
 11 10  1  0  0  0  0
 12 13  1  0  0  0  0
 12 11  2  0  0  0  0
 13  8  2  0  0  0  0
 16 12  1  0  0  0  0
 18 17  1  0  0  0  0
 19 18  1  0  0  0  0
M  END
>  <minimizedAffinity>
-3.9462502

$$$$

 OpenBabel03272508343D

 19 20  0  0  0  0  0  0  0  0999 V2000
   38.0280   25.6330   35.3490 C   0  0  0  0  0  0  0  0  0  0  0  0
   37.8870   26.9510   35.7020 C   0  0  0  0  0  0  0  0  0  0  0  0
   37.3170   27.6380   34.6370 C   0  0  0  0  0  0  0  0  0  0  0  0
   37.1310   26.7000   33.6670 N   0  0  0  0  0  0  0  0  0  0  0  0
   37.5560   25.5110   34.0980 N   0  0  0  0  0  0  0  0  0  0  0  0
   38.1240   27.5090   36.5960 H   0  0  0  0  0  0  0  0  0  0  0  0
   37.0580   28.6840   34.5460 H   0  0  0  0  0  0  0  0  0  0  0  0
   38.6850   23.3960   38.3060 C   0  0  0  0  0  0  0  0  0  0  0  0
   38.0620   24.3680   37.5200 C   0  0  0  0  0  0  0  0  0  0  0  0
   38.5960   24.6450   36.2460 C   0  0  0  0  0  0  0  0  0  0  0  0
   39.6970   23.9360   35.8590 N   0  0  0  0  0  0  0  0  0  0  0  0
   40.2700   22.9990   36.6610 C   0  0  0  0  0  0  0  0  0  0  0  0
   39.7640   22.7350   37.8710 N   0  0  0  0  0  0  0  0  0  0  0  0
   38.2870   23.1690   39.2950 H   0  0  0  0  0  0  0  0  0  0  0  0
   37.1980   24.9100   37.8460 H   0  0  0  0  0  0  0  0  0  0  0  0
   41.1390   22.5490   36.1630 H   0  0  0  0  0  0  0  0  0  0  0  0
   36.5450   27.0080   32.3590 C   0  0  0  0  0  2  0  0  0  0  0  0
   36.9580   28.4010   31.9340 C   0  0  0  0  0  2  0  0  0  0  0  0
   36.2050   29.1000   32.2900 H   0  0  0  0  0  0  0  0  0  0  0  0
  1  2  1  0  0  0  0
  1 10  1  0  0  0  0
  2  6  1  0  0  0  0
  3  2  2  0  0  0  0
  4  5  1  0  0  0  0
  4  3  1  0  0  0  0
  5  1  2  0  0  0  0
  7  3  1  0  0  0  0
  8 14  1  0  0  0  0
  9 15  1  0  0  0  0
  9  8  2  0  0  0  0
 10  9  1  0  0  0  0
 11 10  2  0  0  0  0
 11 12  1  0  0  0  0
 12 13  2  0  0  0  0
 13  8  1  0  0  0  0
 16 12  1  0  0  0  0
 17  4  1  0  0  0  0
 18 19  1  0  0  0  0
 18 17  1  0  0  0  0
M  END
>  <minimizedAffinity>
-3.90265155

$$$$

 OpenBabel03272508343D

 19 20  0  0  0  0  0  0  0  0999 V2000
   37.8740   25.3470   34.8890 C   0  0  0  0  0  0  0  0  0  0  0  0
   37.5240   26.6580   35.0890 C   0  0  0  0  0  0  0  0  0  0  0  0
   37.0220   27.1710   33.8990 C   0  0  0  0  0  0  0  0  0  0  0  0
   37.0850   26.1400   33.0120 N   0  0  0  0  0  0  0  0  0  0  0  0
   37.5930   25.0590   33.6090 N   0  0  0  0  0  0  0  0  0  0  0  0
   37.5670   27.3150   35.9450 H   0  0  0  0  0  0  0  0  0  0  0  0
   36.6490   28.1610   33.6740 H   0  0  0  0  0  0  0  0  0  0  0  0
   40.0640   23.0030   36.8600 C   0  0  0  0  0  0  0  0  0  0  0  0
   39.6090   23.7630   35.7810 C   0  0  0  0  0  0  0  0  0  0  0  0
   38.4340   24.5230   35.9430 C   0  0  0  0  0  0  0  0  0  0  0  0
   37.8110   24.4650   37.1570 N   0  0  0  0  0  0  0  0  0  0  0  0
   38.2930   23.7090   38.1790 C   0  0  0  0  0  0  0  0  0  0  0  0
   39.4090   22.9870   38.0270 N   0  0  0  0  0  0  0  0  0  0  0  0
   40.9720   22.4080   36.7540 H   0  0  0  0  0  0  0  0  0  0  0  0
   40.1160   23.7920   34.8390 H   0  0  0  0  0  0  0  0  0  0  0  0
   37.6470   23.8030   39.0620 H   0  0  0  0  0  0  0  0  0  0  0  0
   36.6470   26.2550   31.6180 C   0  0  0  0  0  2  0  0  0  0  0  0
   35.6230   25.1810   31.3180 C   0  0  0  0  0  2  0  0  0  0  0  0
   36.1510   24.3070   30.9430 H   0  0  0  0  0  0  0  0  0  0  0  0
  1  2  1  0  0  0  0
  1 10  1  0  0  0  0
  2  6  1  0  0  0  0
  3  2  2  0  0  0  0
  4  5  1  0  0  0  0
  4  3  1  0  0  0  0
  5  1  2  0  0  0  0
  7  3  1  0  0  0  0
  8 13  1  0  0  0  0
  9 10  1  0  0  0  0
  9  8  2  0  0  0  0
 10 11  2  0  0  0  0
 11 12  1  0  0  0  0
 12 16  1  0  0  0  0
 13 12  2  0  0  0  0
 14  8  1  0  0  0  0
 15  9  1  0  0  0  0
 17  4  1  0  0  0  0
 18 17  1  0  0  0  0
 19 18  1  0  0  0  0
M  END
>  <minimizedAffinity>
-3.81090164

$$$$

 OpenBabel03272508343D

 19 20  0  0  0  0  0  0  0  0999 V2000
   37.7030   22.2760   34.6480 C   0  0  0  0  0  0  0  0  0  0  0  0
   38.0140   22.9970   33.5230 C   0  0  0  0  0  0  0  0  0  0  0  0
   37.3210   22.4610   32.4450 C   0  0  0  0  0  0  0  0  0  0  0  0
   36.6060   21.4240   32.9610 N   0  0  0  0  0  0  0  0  0  0  0  0
   36.8390   21.3200   34.2710 N   0  0  0  0  0  0  0  0  0  0  0  0
   38.6570   23.8470   33.3410 H   0  0  0  0  0  0  0  0  0  0  0  0
   37.3140   22.7640   31.4060 H   0  0  0  0  0  0  0  0  0  0  0  0
   40.0490   22.6590   37.5680 C   0  0  0  0  0  0  0  0  0  0  0  0
   39.6080   22.3240   36.2860 C   0  0  0  0  0  0  0  0  0  0  0  0
   38.2650   22.5830   35.9490 C   0  0  0  0  0  0  0  0  0  0  0  0
   37.4750   23.1520   36.9080 N   0  0  0  0  0  0  0  0  0  0  0  0
   37.9510   23.4600   38.1430 C   0  0  0  0  0  0  0  0  0  0  0  0
   39.2260   23.2140   38.4650 N   0  0  0  0  0  0  0  0  0  0  0  0
   41.0850   22.4650   37.8470 H   0  0  0  0  0  0  0  0  0  0  0  0
   40.2470   21.8790   35.5510 H   0  0  0  0  0  0  0  0  0  0  0  0
   37.1570   23.9050   38.7580 H   0  0  0  0  0  0  0  0  0  0  0  0
   35.7260   20.5770   32.1500 C   0  0  0  0  0  2  0  0  0  0  0  0
   35.4410   19.2880   32.8900 C   0  0  0  0  0  2  0  0  0  0  0  0
   36.1940   18.5580   32.6000 H   0  0  0  0  0  0  0  0  0  0  0  0
  1 10  1  0  0  0  0
  2  1  1  0  0  0  0
  3  4  1  0  0  0  0
  3  2  2  0  0  0  0
  4  5  1  0  0  0  0
  5  1  2  0  0  0  0
  6  2  1  0  0  0  0
  7  3  1  0  0  0  0
  8 14  1  0  0  0  0
  8 13  1  0  0  0  0
  9  8  2  0  0  0  0
 10  9  1  0  0  0  0
 10 11  2  0  0  0  0
 11 12  1  0  0  0  0
 12 13  2  0  0  0  0
 12 16  1  0  0  0  0
 15  9  1  0  0  0  0
 17 18  1  0  0  0  0
 17  4  1  0  0  0  0
 19 18  1  0  0  0  0
M  END
>  <minimizedAffinity>
-3.76137304

$$$$

 OpenBabel03272508343D

 19 20  0  0  0  0  0  0  0  0999 V2000
   38.2490   24.4600   35.1760 C   0  0  0  0  0  0  0  0  0  0  0  0
   38.1870   23.1730   34.7020 C   0  0  0  0  0  0  0  0  0  0  0  0
   38.8520   22.3390   35.5920 C   0  0  0  0  0  0  0  0  0  0  0  0
   39.2970   23.1590   36.5850 N   0  0  0  0  0  0  0  0  0  0  0  0
   38.9340   24.4170   36.3290 N   0  0  0  0  0  0  0  0  0  0  0  0
   37.7450   22.7270   33.8230 H   0  0  0  0  0  0  0  0  0  0  0  0
   39.0090   21.2690   35.5540 H   0  0  0  0  0  0  0  0  0  0  0  0
   36.7860   27.8220   34.3230 C   0  0  0  0  0  0  0  0  0  0  0  0
   37.3670   26.8110   35.0910 C   0  0  0  0  0  0  0  0  0  0  0  0
   37.6470   25.5760   34.4730 C   0  0  0  0  0  0  0  0  0  0  0  0
   37.3290   25.4490   33.1510 N   0  0  0  0  0  0  0  0  0  0  0  0
   36.7630   26.4640   32.4450 C   0  0  0  0  0  0  0  0  0  0  0  0
   36.4970   27.6370   33.0300 N   0  0  0  0  0  0  0  0  0  0  0  0
   36.5620   28.7840   34.7840 H   0  0  0  0  0  0  0  0  0  0  0  0
   37.6070   26.9350   36.1260 H   0  0  0  0  0  0  0  0  0  0  0  0
   36.5900   26.1560   31.4050 H   0  0  0  0  0  0  0  0  0  0  0  0
   40.0580   22.6750   37.7400 C   0  0  0  0  0  2  0  0  0  0  0  0
   41.1770   21.7710   37.2670 C   0  0  0  0  0  2  0  0  0  0  0  0
   40.8020   20.7500   37.2520 H   0  0  0  0  0  0  0  0  0  0  0  0
  1  5  2  0  0  0  0
  2  1  1  0  0  0  0
  2  3  2  0  0  0  0
  3  4  1  0  0  0  0
  4 17  1  0  0  0  0
  5  4  1  0  0  0  0
  6  2  1  0  0  0  0
  7  3  1  0  0  0  0
  8 14  1  0  0  0  0
  8  9  1  0  0  0  0
  9 15  1  0  0  0  0
 10  9  2  0  0  0  0
 10  1  1  0  0  0  0
 11 10  1  0  0  0  0
 12 13  1  0  0  0  0
 12 11  2  0  0  0  0
 13  8  2  0  0  0  0
 16 12  1  0  0  0  0
 18 17  1  0  0  0  0
 19 18  1  0  0  0  0
M  END
>  <minimizedAffinity>
-3.73018694

$$$$

 OpenBabel03272508343D

 19 20  0  0  0  0  0  0  0  0999 V2000
   37.5710   26.9650   34.2740 C   0  0  0  0  0  0  0  0  0  0  0  0
   37.9780   27.6070   35.4170 C   0  0  0  0  0  0  0  0  0  0  0  0
   38.3170   26.6530   36.3670 C   0  0  0  0  0  0  0  0  0  0  0  0
   38.1010   25.4530   35.7610 N   0  0  0  0  0  0  0  0  0  0  0  0
   37.6580   25.6470   34.5170 N   0  0  0  0  0  0  0  0  0  0  0  0
   38.0740   28.6490   35.6870 H   0  0  0  0  0  0  0  0  0  0  0  0
   38.6780   26.7800   37.3790 H   0  0  0  0  0  0  0  0  0  0  0  0
   37.4240   28.4670   30.8250 C   0  0  0  0  0  0  0  0  0  0  0  0
   37.9240   27.7490   31.9140 C   0  0  0  0  0  0  0  0  0  0  0  0
   37.1480   27.6830   33.0870 C   0  0  0  0  0  0  0  0  0  0  0  0
   35.9460   28.3300   33.0830 N   0  0  0  0  0  0  0  0  0  0  0  0
   35.5010   29.0180   31.9980 C   0  0  0  0  0  0  0  0  0  0  0  0
   36.2370   29.0820   30.8820 N   0  0  0  0  0  0  0  0  0  0  0  0
   38.0100   28.5310   29.9090 H   0  0  0  0  0  0  0  0  0  0  0  0
   38.8700   27.2500   31.8920 H   0  0  0  0  0  0  0  0  0  0  0  0
   34.5180   29.4610   32.2030 H   0  0  0  0  0  0  0  0  0  0  0  0
   38.3380   24.1670   36.4230 C   0  0  0  0  0  2  0  0  0  0  0  0
   37.9900   24.2830   37.8920 C   0  0  0  0  0  2  0  0  0  0  0  0
   38.8880   24.5770   38.4300 H   0  0  0  0  0  0  0  0  0  0  0  0
  1  5  2  0  0  0  0
  1  2  1  0  0  0  0
  2  6  1  0  0  0  0
  2  3  2  0  0  0  0
  3  7  1  0  0  0  0
  4  3  1  0  0  0  0
  4 17  1  0  0  0  0
  5  4  1  0  0  0  0
  8 13  2  0  0  0  0
  8  9  1  0  0  0  0
  9 10  2  0  0  0  0
 10  1  1  0  0  0  0
 11 10  1  0  0  0  0
 12 16  1  0  0  0  0
 12 11  2  0  0  0  0
 13 12  1  0  0  0  0
 14  8  1  0  0  0  0
 15  9  1  0  0  0  0
 17 18  1  0  0  0  0
 18 19  1  0  0  0  0
M  END
>  <minimizedAffinity>
-3.68392658

$$$$

 OpenBabel03272508343D

 19 20  0  0  0  0  0  0  0  0999 V2000
   36.1510   23.8130   31.6920 C   0  0  0  0  0  0  0  0  0  0  0  0
   35.2800   24.6710   31.0690 C   0  0  0  0  0  0  0  0  0  0  0  0
   35.6680   25.9760   31.3430 C   0  0  0  0  0  0  0  0  0  0  0  0
   36.7740   25.8620   32.1290 N   0  0  0  0  0  0  0  0  0  0  0  0
   37.0540   24.5730   32.3320 N   0  0  0  0  0  0  0  0  0  0  0  0
   34.4080   24.5200   30.4490 H   0  0  0  0  0  0  0  0  0  0  0  0
   35.2260   26.9120   31.0260 H   0  0  0  0  0  0  0  0  0  0  0  0
   34.9560   20.2660   32.0870 C   0  0  0  0  0  0  0  0  0  0  0  0
   34.9900   21.6530   32.2380 C   0  0  0  0  0  0  0  0  0  0  0  0
   36.0210   22.3720   31.6020 C   0  0  0  0  0  0  0  0  0  0  0  0
   36.9280   21.6570   30.8730 N   0  0  0  0  0  0  0  0  0  0  0  0
   36.8540   20.3040   30.7570 C   0  0  0  0  0  0  0  0  0  0  0  0
   35.8740   19.6210   31.3600 N   0  0  0  0  0  0  0  0  0  0  0  0
   34.1650   19.6920   32.5720 H   0  0  0  0  0  0  0  0  0  0  0  0
   34.2660   22.1910   32.8150 H   0  0  0  0  0  0  0  0  0  0  0  0
   37.6740   19.9290   30.1310 H   0  0  0  0  0  0  0  0  0  0  0  0
   37.5080   27.0190   32.6500 C   0  0  0  0  0  2  0  0  0  0  0  0
   36.8440   27.5120   33.9180 C   0  0  0  0  0  2  0  0  0  0  0  0
   36.1100   28.2670   33.6430 H   0  0  0  0  0  0  0  0  0  0  0  0
  1  5  2  0  0  0  0
  2  3  2  0  0  0  0
  2  1  1  0  0  0  0
  3  4  1  0  0  0  0
  4  5  1  0  0  0  0
  4 17  1  0  0  0  0
  6  2  1  0  0  0  0
  7  3  1  0  0  0  0
  8  9  1  0  0  0  0
  8 14  1  0  0  0  0
  9 15  1  0  0  0  0
 10  1  1  0  0  0  0
 10  9  2  0  0  0  0
 11 10  1  0  0  0  0
 12 11  2  0  0  0  0
 12 13  1  0  0  0  0
 13  8  2  0  0  0  0
 16 12  1  0  0  0  0
 17 18  1  0  0  0  0
 19 18  1  0  0  0  0
M  END
>  <minimizedAffinity>
-3.67742801

$$$$

 OpenBabel03272508343D

 19 20  0  0  0  0  0  0  0  0999 V2000
   35.6820   29.1050   34.0310 C   0  0  0  0  0  0  0  0  0  0  0  0
   36.6140   28.1910   34.4540 C   0  0  0  0  0  0  0  0  0  0  0  0
   36.9160   27.3420   33.3970 C   0  0  0  0  0  0  0  0  0  0  0  0
   36.1490   27.7770   32.3590 N   0  0  0  0  0  0  0  0  0  0  0  0
   35.4190   28.8250   32.7440 N   0  0  0  0  0  0  0  0  0  0  0  0
   37.1170   28.0280   35.3960 H   0  0  0  0  0  0  0  0  0  0  0  0
   37.6010   26.5060   33.3540 H   0  0  0  0  0  0  0  0  0  0  0  0
   35.3640   31.9930   36.4260 C   0  0  0  0  0  0  0  0  0  0  0  0
   35.9750   31.0340   35.6140 C   0  0  0  0  0  0  0  0  0  0  0  0
   35.1540   30.1380   34.9020 C   0  0  0  0  0  0  0  0  0  0  0  0
   33.8030   30.2670   35.0530 N   0  0  0  0  0  0  0  0  0  0  0  0
   33.2550   31.2170   35.8560 C   0  0  0  0  0  0  0  0  0  0  0  0
   34.0330   32.0690   36.5330 N   0  0  0  0  0  0  0  0  0  0  0  0
   35.9820   32.6950   36.9860 H   0  0  0  0  0  0  0  0  0  0  0  0
   37.0370   30.9540   35.5120 H   0  0  0  0  0  0  0  0  0  0  0  0
   32.1590   31.1480   35.8360 H   0  0  0  0  0  0  0  0  0  0  0  0
   36.1630   27.1480   31.0360 C   0  0  0  0  0  2  0  0  0  0  0  0
   35.3480   25.8720   31.0720 C   0  0  0  0  0  2  0  0  0  0  0  0
   36.0160   25.0520   31.3250 H   0  0  0  0  0  0  0  0  0  0  0  0
  1  2  1  0  0  0  0
  1 10  1  0  0  0  0
  2  6  1  0  0  0  0
  3  2  2  0  0  0  0
  4  5  1  0  0  0  0
  4  3  1  0  0  0  0
  5  1  2  0  0  0  0
  7  3  1  0  0  0  0
  8 13  1  0  0  0  0
  8 14  1  0  0  0  0
  9  8  2  0  0  0  0
 10 11  2  0  0  0  0
 10  9  1  0  0  0  0
 11 12  1  0  0  0  0
 12 13  2  0  0  0  0
 15  9  1  0  0  0  0
 16 12  1  0  0  0  0
 17 18  1  0  0  0  0
 17  4  1  0  0  0  0
 18 19  1  0  0  0  0
M  END
>  <minimizedAffinity>
-3.60641265

$$$$

 OpenBabel03272508343D

 19 20  0  0  0  0  0  0  0  0999 V2000
   35.5130   29.9050   33.9760 C   0  0  0  0  0  0  0  0  0  0  0  0
   36.0320   28.6420   34.1110 C   0  0  0  0  0  0  0  0  0  0  0  0
   36.5280   28.2310   32.8800 C   0  0  0  0  0  0  0  0  0  0  0  0
   36.2900   29.2710   32.0340 N   0  0  0  0  0  0  0  0  0  0  0  0
   35.6870   30.2620   32.6940 N   0  0  0  0  0  0  0  0  0  0  0  0
   36.1160   27.9600   34.9450 H   0  0  0  0  0  0  0  0  0  0  0  0
   37.0070   27.3020   32.6020 H   0  0  0  0  0  0  0  0  0  0  0  0
   34.9570   32.1670   36.9330 C   0  0  0  0  0  0  0  0  0  0  0  0
   35.6300   31.5280   35.8900 C   0  0  0  0  0  0  0  0  0  0  0  0
   34.9130   30.6220   35.0850 C   0  0  0  0  0  0  0  0  0  0  0  0
   33.5940   30.4260   35.3800 N   0  0  0  0  0  0  0  0  0  0  0  0
   32.9820   31.0720   36.4090 C   0  0  0  0  0  0  0  0  0  0  0  0
   33.6620   31.9340   37.1740 N   0  0  0  0  0  0  0  0  0  0  0  0
   35.4960   32.8720   37.5680 H   0  0  0  0  0  0  0  0  0  0  0  0
   36.6650   31.6990   35.6780 H   0  0  0  0  0  0  0  0  0  0  0  0
   31.9280   30.7740   36.4740 H   0  0  0  0  0  0  0  0  0  0  0  0
   36.6640   29.2510   30.6170 C   0  0  0  0  0  2  0  0  0  0  0  0
   36.8810   30.6690   30.1310 C   0  0  0  0  0  2  0  0  0  0  0  0
   35.9350   31.0400   29.7420 H   0  0  0  0  0  0  0  0  0  0  0  0
  1  2  1  0  0  0  0
  1 10  1  0  0  0  0
  2  6  1  0  0  0  0
  3  2  2  0  0  0  0
  4  5  1  0  0  0  0
  4  3  1  0  0  0  0
  5  1  2  0  0  0  0
  7  3  1  0  0  0  0
  8 13  1  0  0  0  0
  8 14  1  0  0  0  0
  9  8  2  0  0  0  0
 10 11  2  0  0  0  0
 10  9  1  0  0  0  0
 11 12  1  0  0  0  0
 12 16  1  0  0  0  0
 12 13  2  0  0  0  0
 15  9  1  0  0  0  0
 17  4  1  0  0  0  0
 18 17  1  0  0  0  0
 19 18  1  0  0  0  0
M  END
>  <minimizedAffinity>
-3.51615214

$$$$
