
 OpenBabel03272510113D

 29 31  0  0  0  0  0  0  0  0999 V2000
   34.0010   28.8240   48.2970 C   0  0  0  0  0  0  0  0  0  0  0  0
   34.6380   28.3570   49.4020 C   0  0  0  0  0  0  0  0  0  0  0  0
   35.8690   28.7890   49.8440 C   0  0  0  0  0  0  0  0  0  0  0  0
   36.5370   29.7570   49.1560 C   0  0  0  0  0  0  0  0  0  0  0  0
   35.8910   30.2490   48.0140 C   0  0  0  0  0  0  0  0  0  0  0  0
   34.6860   29.7940   47.6190 N   0  0  0  0  0  0  0  0  0  0  0  0
   34.1790   27.5870   50.0070 H   0  0  0  0  0  0  0  0  0  0  0  0
   36.3690   28.4120   50.7240 H   0  0  0  0  0  0  0  0  0  0  0  0
   36.3160   31.0170   47.3830 H   0  0  0  0  0  0  0  0  0  0  0  0
   31.9070   27.5030   48.5590 C   0  0  0  0  0  0  0  0  0  0  0  0
   32.7260   28.3760   47.8300 C   0  0  0  0  0  0  0  0  0  0  0  0
   32.2560   28.7910   46.6130 C   0  0  0  0  0  0  0  0  0  0  0  0
   31.0390   28.3510   46.1670 N   0  0  0  0  0  0  0  0  0  0  0  0
   30.2840   27.5010   46.9210 C   0  0  0  0  0  0  0  0  0  0  0  0
   30.7090   27.0660   48.1290 N   0  0  0  0  0  0  0  0  0  0  0  0
   32.2320   27.1460   49.5280 H   0  0  0  0  0  0  0  0  0  0  0  0
   32.8380   29.4620   46.0070 H   0  0  0  0  0  0  0  0  0  0  0  0
   29.3420   27.2410   46.4310 H   0  0  0  0  0  0  0  0  0  0  0  0
   37.7780   30.3120   49.4500 O   0  0  0  0  0  0  0  0  0  0  0  0
   38.3660   31.2680   48.6440 C   0  0  0  0  0  0  0  0  0  0  0  0
   38.4470   32.5300   49.2310 C   0  0  0  0  0  0  0  0  0  0  0  0
   39.0560   33.3760   48.3060 C   0  0  0  0  0  0  0  0  0  0  0  0
   39.3170   32.6300   47.2230 N   0  0  0  0  0  0  0  0  0  0  0  0
   38.9140   31.4000   47.4220 N   0  0  0  0  0  0  0  0  0  0  0  0
   38.1590   32.9690   50.1900 H   0  0  0  0  0  0  0  0  0  0  0  0
   39.3000   34.4340   48.3820 H   0  0  0  0  0  0  0  0  0  0  0  0
   39.9510   33.1120   46.0120 C   0  0  0  0  0  2  0  0  0  0  0  0
   40.6770   31.9410   45.3880 C   0  0  0  0  0  2  0  0  0  0  0  0
   41.7520   32.0200   45.6010 H   0  0  0  0  0  0  0  0  0  0  0  0
  1  2  1  0  0  0  0
  2  3  2  0  0  0  0
  2  7  1  0  0  0  0
  3  8  1  0  0  0  0
  4 19  1  0  0  0  0
  4  3  1  0  0  0  0
  5  4  2  0  0  0  0
  6  5  1  0  0  0  0
  6  1  2  0  0  0  0
  9  5  1  0  0  0  0
 10 16  1  0  0  0  0
 11  1  1  0  0  0  0
 11 10  2  0  0  0  0
 12 11  1  0  0  0  0
 13 12  2  0  0  0  0
 13 14  1  0  0  0  0
 14 15  2  0  0  0  0
 15 10  1  0  0  0  0
 17 12  1  0  0  0  0
 18 14  1  0  0  0  0
 20 21  1  0  0  0  0
 20 19  1  0  0  0  0
 21 25  1  0  0  0  0
 22 26  1  0  0  0  0
 22 21  2  0  0  0  0
 23 24  1  0  0  0  0
 23 22  1  0  0  0  0
 24 20  2  0  0  0  0
 27 23  1  0  0  0  0
 28 29  1  0  0  0  0
 28 27  1  0  0  0  0
M  END
>  <minimizedAffinity>
-5.50307989

>  <minimizedRMSD>
0.818680108

$$$$
