
 OpenBabel03272508333D

 19 20  0  0  0  0  0  0  0  0999 V2000
   37.9090   31.2700   47.9960 C   0  0  0  0  0  0  0  0  0  0  0  0
   37.3630   31.1140   46.7470 C   0  0  0  0  0  0  0  0  0  0  0  0
   38.1160   31.8440   45.8370 C   0  0  0  0  0  0  0  0  0  0  0  0
   39.1040   32.4230   46.5750 N   0  0  0  0  0  0  0  0  0  0  0  0
   38.9730   32.0770   47.8570 N   0  0  0  0  0  0  0  0  0  0  0  0
   36.5110   30.5630   46.3740 H   0  0  0  0  0  0  0  0  0  0  0  0
   37.9910   31.9610   44.7690 H   0  0  0  0  0  0  0  0  0  0  0  0
   37.2960   30.1160   51.5270 C   0  0  0  0  0  0  0  0  0  0  0  0
   37.9110   30.7730   50.4590 C   0  0  0  0  0  0  0  0  0  0  0  0
   37.3520   30.6330   49.1740 C   0  0  0  0  0  0  0  0  0  0  0  0
   36.2350   29.8560   49.0560 N   0  0  0  0  0  0  0  0  0  0  0  0
   35.6720   29.2350   50.1260 C   0  0  0  0  0  0  0  0  0  0  0  0
   36.2020   29.3680   51.3480 N   0  0  0  0  0  0  0  0  0  0  0  0
   37.7150   30.2130   52.5290 H   0  0  0  0  0  0  0  0  0  0  0  0
   38.7870   31.3770   50.5780 H   0  0  0  0  0  0  0  0  0  0  0  0
   34.7880   28.6640   49.8160 H   0  0  0  0  0  0  0  0  0  0  0  0
   40.1330   33.2910   45.9940 C   0  0  0  0  0  0  0  0  0  0  0  0
   39.9180   33.4000   44.4990 C   0  0  0  0  0  0  0  0  0  0  0  0
   40.4940   32.6140   44.0170 H   0  0  0  0  0  0  0  0  0  0  0  0
  1 10  1  0  0  0  0
  2  1  1  0  0  0  0
  3  4  1  0  0  0  0
  3  2  2  0  0  0  0
  4  5  1  0  0  0  0
  5  1  2  0  0  0  0
  6  2  1  0  0  0  0
  7  3  1  0  0  0  0
  8 14  1  0  0  0  0
  9 15  1  0  0  0  0
  9  8  2  0  0  0  0
 10  9  1  0  0  0  0
 11 10  2  0  0  0  0
 11 12  1  0  0  0  0
 12 13  2  0  0  0  0
 13  8  1  0  0  0  0
 16 12  1  0  0  0  0
 17  4  1  0  0  0  0
 18 17  1  0  0  0  0
 19 18  1  0  0  0  0
M  END
>  <minimizedAffinity>
-4.78650999

>  <minimizedRMSD>
1.34140968

$$$$
