
 OpenBabel03272510113D

 29 31  0  0  0  0  0  0  0  0999 V2000
   34.0920   28.8840   48.3520 C   0  0  0  0  0  0  0  0  0  0  0  0
   34.8150   28.3540   49.3710 C   0  0  0  0  0  0  0  0  0  0  0  0
   35.9790   28.8900   49.8750 C   0  0  0  0  0  0  0  0  0  0  0  0
   36.4830   30.0400   49.3450 C   0  0  0  0  0  0  0  0  0  0  0  0
   35.7460   30.6000   48.2930 C   0  0  0  0  0  0  0  0  0  0  0  0
   34.6120   30.0370   47.8330 N   0  0  0  0  0  0  0  0  0  0  0  0
   34.4870   27.4400   49.8490 H   0  0  0  0  0  0  0  0  0  0  0  0
   36.5480   28.4610   50.6860 H   0  0  0  0  0  0  0  0  0  0  0  0
   36.0400   31.5100   47.7890 H   0  0  0  0  0  0  0  0  0  0  0  0
   32.1730   27.3000   48.4520 C   0  0  0  0  0  0  0  0  0  0  0  0
   32.8860   28.3300   47.8200 C   0  0  0  0  0  0  0  0  0  0  0  0
   32.3790   28.7940   46.6370 C   0  0  0  0  0  0  0  0  0  0  0  0
   31.2300   28.2520   46.1280 N   0  0  0  0  0  0  0  0  0  0  0  0
   30.5780   27.2510   46.7870 C   0  0  0  0  0  0  0  0  0  0  0  0
   31.0430   26.7610   47.9600 N   0  0  0  0  0  0  0  0  0  0  0  0
   32.5310   26.8980   49.3900 H   0  0  0  0  0  0  0  0  0  0  0  0
   32.8800   29.5830   46.1050 H   0  0  0  0  0  0  0  0  0  0  0  0
   29.6800   26.9230   46.2570 H   0  0  0  0  0  0  0  0  0  0  0  0
   37.6350   30.7210   49.7230 O   0  0  0  0  0  0  0  0  0  0  0  0
   38.2950   31.5810   48.8660 C   0  0  0  0  0  0  0  0  0  0  0  0
   38.4930   32.8590   49.3880 C   0  0  0  0  0  0  0  0  0  0  0  0
   39.1620   33.6010   48.4180 C   0  0  0  0  0  0  0  0  0  0  0  0
   39.3450   32.7830   47.3710 N   0  0  0  0  0  0  0  0  0  0  0  0
   38.8380   31.6040   47.6350 N   0  0  0  0  0  0  0  0  0  0  0  0
   38.2550   33.3680   50.3260 H   0  0  0  0  0  0  0  0  0  0  0  0
   39.4980   34.6370   48.4390 H   0  0  0  0  0  0  0  0  0  0  0  0
   40.0050   33.1480   46.1340 C   0  0  0  0  0  2  0  0  0  0  0  0
   39.0800   32.7590   45.0010 C   0  0  0  0  0  2  0  0  0  0  0  0
   39.4350   31.8270   44.5420 H   0  0  0  0  0  0  0  0  0  0  0  0
  1  2  1  0  0  0  0
  2  7  1  0  0  0  0
  2  3  2  0  0  0  0
  3  8  1  0  0  0  0
  4 19  1  0  0  0  0
  4  3  1  0  0  0  0
  5  4  2  0  0  0  0
  6  5  1  0  0  0  0
  6  1  2  0  0  0  0
  9  5  1  0  0  0  0
 10 16  1  0  0  0  0
 11  1  1  0  0  0  0
 11 10  2  0  0  0  0
 12 11  1  0  0  0  0
 13 12  2  0  0  0  0
 13 14  1  0  0  0  0
 14 15  2  0  0  0  0
 15 10  1  0  0  0  0
 17 12  1  0  0  0  0
 18 14  1  0  0  0  0
 20 21  1  0  0  0  0
 20 19  1  0  0  0  0
 21 25  1  0  0  0  0
 22 26  1  0  0  0  0
 22 21  2  0  0  0  0
 23 24  1  0  0  0  0
 23 22  1  0  0  0  0
 24 20  2  0  0  0  0
 27 23  1  0  0  0  0
 28 27  1  0  0  0  0
 29 28  1  0  0  0  0
M  END
>  <minimizedAffinity>
-5.41328049

>  <minimizedRMSD>
0.728678107

$$$$
