
 OpenBabel03272509423D

 32 33  0  0  1  0  0  0  0  0999 V2000
   37.0930   30.9360   49.0490 C   0  0  0  0  0  0  0  0  0  0  0  0
   36.8240   31.8760   50.0450 C   0  0  0  0  0  0  0  0  0  0  0  0
   37.4230   33.1260   50.0500 C   0  0  0  0  0  0  0  0  0  0  0  0
   38.3210   33.4640   49.0360 C   0  0  0  0  0  0  0  0  0  0  0  0
   38.5750   32.5340   48.0690 C   0  0  0  0  0  0  0  0  0  0  0  0
   37.9590   31.2910   48.0930 C   0  0  0  0  0  0  0  0  0  0  0  0
   36.1310   31.6260   50.8330 H   0  0  0  0  0  0  0  0  0  0  0  0
   37.1650   33.7910   50.8470 H   0  0  0  0  0  0  0  0  0  0  0  0
   38.7330   34.4460   49.1210 H   0  0  0  0  0  0  0  0  0  0  0  0
   39.2940   32.9380   47.3510 H   0  0  0  0  0  0  0  0  0  0  0  0
   36.4950   29.6190   49.0590 C   0  0  2  0  0  0  0  0  0  0  0  0
   36.9880   29.0530   48.1790 H   0  0  0  0  0  0  0  0  0  0  0  0
   33.6230   29.9620   46.8590 C   0  0  0  0  0  0  0  0  0  0  0  0
   32.8840   28.8180   47.0920 C   0  0  0  0  0  0  0  0  0  0  0  0
   33.3320   27.9390   48.0600 C   0  0  0  0  0  0  0  0  0  0  0  0
   34.4890   28.2290   48.7500 N   0  0  0  0  0  0  0  0  0  0  0  0
   35.1500   29.3360   48.4810 C   0  0  0  0  0  0  0  0  0  0  0  0
   34.7260   30.2090   47.5390 N   0  0  0  0  0  0  0  0  0  0  0  0
   33.2940   30.6680   46.1080 H   0  0  0  0  0  0  0  0  0  0  0  0
   31.9890   28.6510   46.5160 H   0  0  0  0  0  0  0  0  0  0  0  0
   32.7690   27.0290   48.2660 H   0  0  0  0  0  0  0  0  0  0  0  0
   36.9590   28.8740   49.9990 O   0  0  0  0  0  0  0  0  0  0  0  0
   37.1560   29.2190   50.9030 H   0  0  0  0  0  0  0  0  0  0  0  0
   38.3430   30.3960   47.0250 C   0  0  0  0  0  3  0  0  0  0  0  0
   38.7050   30.8010   45.8040 C   0  0  0  0  0  3  0  0  0  0  0  0
   39.1540   29.9790   44.6570 C   0  0  0  0  0  0  0  0  0  0  0  0
   38.2510   29.7560   44.0220 H   0  0  0  0  0  0  0  0  0  0  0  0
   39.5310   28.9780   44.9480 H   0  0  0  0  0  0  0  0  0  0  0  0
   40.3430   30.9020   43.6800 S   0  0  0  0  0  0  0  0  0  0  0  0
   40.8530   30.0670   42.1750 C   0  0  0  0  0  2  0  0  0  0  0  0
   40.4840   30.8760   40.9710 C   0  0  0  0  0  2  0  0  0  0  0  0
   39.3990   30.9850   40.8900 H   0  0  0  0  0  0  0  0  0  0  0  0
  1 11  1  0  0  0  0
  1  2  1  0  0  0  0
  2  3  2  0  0  0  0
  2  7  1  0  0  0  0
  3  8  1  0  0  0  0
  4  9  1  0  0  0  0
  4  3  1  0  0  0  0
  5  6  1  0  0  0  0
  5  4  2  0  0  0  0
  6  1  2  0  0  0  0
 10  5  1  0  0  0  0
 11 12  1  6  0  0  0
 11 22  1  0  0  0  0
 13 14  2  0  0  0  0
 13 18  1  0  0  0  0
 14 15  1  0  0  0  0
 15 21  1  0  0  0  0
 15 16  2  0  0  0  0
 17 16  1  0  0  0  0
 17 11  1  0  0  0  0
 18 17  2  0  0  0  0
 19 13  1  0  0  0  0
 20 14  1  0  0  0  0
 22 23  1  0  0  0  0
 24  6  1  0  0  0  0
 25 24  2  0  0  0  0
 26 28  1  0  0  0  0
 26 25  1  0  0  0  0
 27 26  1  0  0  0  0
 29 26  1  0  0  0  0
 30 29  1  0  0  0  0
 31 30  1  0  0  0  0
 32 31  1  0  0  0  0
M  END
>  <minimizedAffinity>
-5.3273387

>  <minimizedRMSD>
0.578256071

$$$$
