
 OpenBabel03272509413D

 32 33  0  0  1  0  0  0  0  0999 V2000
   37.1160   30.9150   49.0790 C   0  0  0  0  0  0  0  0  0  0  0  0
   36.8460   31.8570   50.0730 C   0  0  0  0  0  0  0  0  0  0  0  0
   37.4100   33.1230   50.0500 C   0  0  0  0  0  0  0  0  0  0  0  0
   38.2740   33.4740   49.0110 C   0  0  0  0  0  0  0  0  0  0  0  0
   38.5290   32.5410   48.0480 C   0  0  0  0  0  0  0  0  0  0  0  0
   37.9480   31.2820   48.0980 C   0  0  0  0  0  0  0  0  0  0  0  0
   36.1790   31.5970   50.8800 H   0  0  0  0  0  0  0  0  0  0  0  0
   37.1540   33.7890   50.8470 H   0  0  0  0  0  0  0  0  0  0  0  0
   38.6600   34.4680   49.0760 H   0  0  0  0  0  0  0  0  0  0  0  0
   39.2190   32.9570   47.3080 H   0  0  0  0  0  0  0  0  0  0  0  0
   36.5540   29.5820   49.1170 C   0  0  2  0  0  0  0  0  0  0  0  0
   37.0290   29.0260   48.2210 H   0  0  0  0  0  0  0  0  0  0  0  0
   33.6330   29.7710   46.9640 C   0  0  0  0  0  0  0  0  0  0  0  0
   32.9000   28.6480   47.2950 C   0  0  0  0  0  0  0  0  0  0  0  0
   33.3700   27.8390   48.3120 C   0  0  0  0  0  0  0  0  0  0  0  0
   34.5420   28.1760   48.9530 N   0  0  0  0  0  0  0  0  0  0  0  0
   35.1970   29.2600   48.5910 C   0  0  0  0  0  0  0  0  0  0  0  0
   34.7510   30.0650   47.5990 N   0  0  0  0  0  0  0  0  0  0  0  0
   33.2860   30.4230   46.1720 H   0  0  0  0  0  0  0  0  0  0  0  0
   31.9920   28.4410   46.7530 H   0  0  0  0  0  0  0  0  0  0  0  0
   32.8120   26.9470   48.5950 H   0  0  0  0  0  0  0  0  0  0  0  0
   37.0730   28.8540   50.0420 O   0  0  0  0  0  0  0  0  0  0  0  0
   37.2950   29.2080   50.9360 H   0  0  0  0  0  0  0  0  0  0  0  0
   38.3300   30.3870   47.0300 C   0  0  0  0  0  3  0  0  0  0  0  0
   38.7070   30.7930   45.8140 C   0  0  0  0  0  3  0  0  0  0  0  0
   39.1560   29.9700   44.6670 C   0  0  0  0  0  0  0  0  0  0  0  0
   38.2510   29.7410   44.0360 H   0  0  0  0  0  0  0  0  0  0  0  0
   39.5400   28.9720   44.9600 H   0  0  0  0  0  0  0  0  0  0  0  0
   40.3360   30.8970   43.6830 S   0  0  0  0  0  0  0  0  0  0  0  0
   40.8440   30.0600   42.1780 C   0  0  0  0  0  2  0  0  0  0  0  0
   40.4840   30.8740   40.9740 C   0  0  0  0  0  2  0  0  0  0  0  0
   39.4000   30.9900   40.8920 H   0  0  0  0  0  0  0  0  0  0  0  0
  1 11  1  0  0  0  0
  1  2  1  0  0  0  0
  2  7  1  0  0  0  0
  3  2  2  0  0  0  0
  3  8  1  0  0  0  0
  4  9  1  0  0  0  0
  4  3  1  0  0  0  0
  5  6  1  0  0  0  0
  5  4  2  0  0  0  0
  6  1  2  0  0  0  0
 10  5  1  0  0  0  0
 11 12  1  6  0  0  0
 11 22  1  0  0  0  0
 13 14  2  0  0  0  0
 13 18  1  0  0  0  0
 14 15  1  0  0  0  0
 15 21  1  0  0  0  0
 15 16  2  0  0  0  0
 17 16  1  0  0  0  0
 17 11  1  0  0  0  0
 18 17  2  0  0  0  0
 19 13  1  0  0  0  0
 20 14  1  0  0  0  0
 22 23  1  0  0  0  0
 24  6  1  0  0  0  0
 25 24  2  0  0  0  0
 26 28  1  0  0  0  0
 26 25  1  0  0  0  0
 27 26  1  0  0  0  0
 29 26  1  0  0  0  0
 30 29  1  0  0  0  0
 31 30  1  0  0  0  0
 32 31  1  0  0  0  0
M  END
>  <minimizedAffinity>
-5.32812214

>  <minimizedRMSD>
0.652624726

$$$$
