
 OpenBabel03272507593D

 33 35  0  0  0  0  0  0  0  0999 V2000
   36.8900   31.2730   48.5770 C   0  0  0  0  0  0  0  0  0  0  0  0
   37.0990   32.1360   49.6470 C   0  0  0  0  0  0  0  0  0  0  0  0
   38.0140   33.1780   49.4960 C   0  0  0  0  0  0  0  0  0  0  0  0
   38.6960   33.3420   48.2990 C   0  0  0  0  0  0  0  0  0  0  0  0
   38.4630   32.4650   47.2570 C   0  0  0  0  0  0  0  0  0  0  0  0
   37.5820   31.4810   47.4370 N   0  0  0  0  0  0  0  0  0  0  0  0
   36.6830   32.2130   50.6410 H   0  0  0  0  0  0  0  0  0  0  0  0
   38.2880   33.9200   50.2140 H   0  0  0  0  0  0  0  0  0  0  0  0
   39.4160   34.1150   48.1010 H   0  0  0  0  0  0  0  0  0  0  0  0
   35.1990   28.3340   50.1880 C   0  0  0  0  0  0  0  0  0  0  0  0
   36.1740   29.3310   49.9140 C   0  0  0  0  0  0  0  0  0  0  0  0
   35.9240   30.2490   48.8830 C   0  0  0  0  0  0  0  0  0  0  0  0
   34.7470   30.1290   48.1970 N   0  0  0  0  0  0  0  0  0  0  0  0
   33.8410   29.1530   48.4980 C   0  0  0  0  0  0  0  0  0  0  0  0
   34.0680   28.2670   49.4830 N   0  0  0  0  0  0  0  0  0  0  0  0
   32.7030   29.2300   47.6600 N   0  0  0  0  0  0  0  0  0  0  0  0
   35.4000   27.6300   50.9850 H   0  0  0  0  0  0  0  0  0  0  0  0
   32.0040   30.0110   47.6150 H   0  0  0  0  0  0  0  0  0  0  0  0
   32.4360   28.4840   46.9780 H   0  0  0  0  0  0  0  0  0  0  0  0
   37.4140   29.3620   50.7250 C   0  0  0  0  0  0  0  0  0  0  0  0
   38.5070   29.8150   49.9830 F   0  0  0  0  0  0  0  0  0  0  0  0
   37.2440   30.1990   51.7720 F   0  0  0  0  0  0  0  0  0  0  0  0
   37.7690   28.1120   51.2210 F   0  0  0  0  0  0  0  0  0  0  0  0
   39.1330   32.5770   45.9710 C   0  0  0  0  0  0  0  0  0  0  0  0
   40.4920   32.6050   45.7580 C   0  0  0  0  0  0  0  0  0  0  0  0
   40.7590   32.7190   44.4040 C   0  0  0  0  0  0  0  0  0  0  0  0
   39.5190   32.7570   43.8300 N   0  0  0  0  0  0  0  0  0  0  0  0
   38.5800   32.6750   44.7540 N   0  0  0  0  0  0  0  0  0  0  0  0
   41.2110   32.5420   46.5860 H   0  0  0  0  0  0  0  0  0  0  0  0
   41.7400   32.7630   43.9500 H   0  0  0  0  0  0  0  0  0  0  0  0
   39.3920   32.8760   42.3890 C   0  0  0  0  0  0  0  0  0  0  0  0
   39.8290   31.6080   41.7100 C   0  0  0  0  0  0  0  0  0  0  0  0
   40.6070   31.8310   40.9300 H   0  0  0  0  0  0  0  0  0  0  0  0
  1 12  1  0  0  0  0
  1  2  1  0  0  0  0
  2  7  1  0  0  0  0
  3  2  2  0  0  0  0
  3  8  1  0  0  0  0
  4  3  1  0  0  0  0
  5  6  1  0  0  0  0
  5  4  2  0  0  0  0
  6  1  2  0  0  0  0
  9  4  1  0  0  0  0
 10 17  1  0  0  0  0
 11 10  1  0  0  0  0
 11 20  1  0  0  0  0
 12 11  2  0  0  0  0
 13 14  2  0  0  0  0
 13 12  1  0  0  0  0
 14 15  1  0  0  0  0
 15 10  2  0  0  0  0
 16 14  1  0  0  0  0
 18 16  1  0  0  0  0
 19 16  1  0  0  0  0
 20 23  1  0  0  0  0
 20 22  1  0  0  0  0
 21 20  1  0  0  0  0
 24  5  1  0  0  0  0
 25 24  1  0  0  0  0
 25 29  1  0  0  0  0
 26 25  2  0  0  0  0
 27 26  1  0  0  0  0
 27 28  1  0  0  0  0
 28 24  2  0  0  0  0
 30 26  1  0  0  0  0
 31 27  1  0  0  0  0
 32 31  1  0  0  0  0
 33 32  1  0  0  0  0
M  END
>  <minimizedAffinity>
-6.90086222

>  <minimizedRMSD>
0.922438502

$$$$
