
 OpenBabel03272510123D

 29 31  0  0  0  0  0  0  0  0999 V2000
   38.6060   25.4260   35.3430 C   0  0  0  0  0  0  0  0  0  0  0  0
   38.5720   26.6410   35.9470 C   0  0  0  0  0  0  0  0  0  0  0  0
   37.8500   27.7250   35.5000 C   0  0  0  0  0  0  0  0  0  0  0  0
   37.0960   27.6190   34.3690 C   0  0  0  0  0  0  0  0  0  0  0  0
   37.1220   26.3700   33.7340 C   0  0  0  0  0  0  0  0  0  0  0  0
   37.8450   25.3380   34.2100 N   0  0  0  0  0  0  0  0  0  0  0  0
   39.1410   26.8120   36.8510 H   0  0  0  0  0  0  0  0  0  0  0  0
   37.8290   28.6880   35.9870 H   0  0  0  0  0  0  0  0  0  0  0  0
   36.5670   26.1590   32.8310 H   0  0  0  0  0  0  0  0  0  0  0  0
   40.5010   23.8230   35.1400 C   0  0  0  0  0  0  0  0  0  0  0  0
   39.3580   24.2980   35.7990 C   0  0  0  0  0  0  0  0  0  0  0  0
   38.9670   23.6210   36.9220 C   0  0  0  0  0  0  0  0  0  0  0  0
   39.6860   22.5360   37.3490 N   0  0  0  0  0  0  0  0  0  0  0  0
   40.7910   22.1190   36.6670 C   0  0  0  0  0  0  0  0  0  0  0  0
   41.2140   22.7580   35.5510 N   0  0  0  0  0  0  0  0  0  0  0  0
   40.8530   24.3230   34.2470 H   0  0  0  0  0  0  0  0  0  0  0  0
   38.0990   23.9370   37.4720 H   0  0  0  0  0  0  0  0  0  0  0  0
   41.2550   21.2430   37.1280 H   0  0  0  0  0  0  0  0  0  0  0  0
   36.3090   28.5990   33.7730 O   0  0  0  0  0  0  0  0  0  0  0  0
   35.6680   29.5760   34.5100 C   0  0  0  0  0  0  0  0  0  0  0  0
   34.2770   29.5310   34.4190 C   0  0  0  0  0  0  0  0  0  0  0  0
   33.7800   30.5670   35.2060 C   0  0  0  0  0  0  0  0  0  0  0  0
   34.8450   31.1900   35.7330 N   0  0  0  0  0  0  0  0  0  0  0  0
   35.9460   30.6100   35.3250 N   0  0  0  0  0  0  0  0  0  0  0  0
   33.5450   28.9050   33.9030 H   0  0  0  0  0  0  0  0  0  0  0  0
   32.7510   30.8660   35.3990 H   0  0  0  0  0  0  0  0  0  0  0  0
   34.7860   32.3340   36.6210 C   0  0  0  0  0  2  0  0  0  0  0  0
   33.4270   32.3170   37.2840 C   0  0  0  0  0  2  0  0  0  0  0  0
   32.7750   33.0590   36.8050 H   0  0  0  0  0  0  0  0  0  0  0  0
  1 11  1  0  0  0  0
  1  2  1  0  0  0  0
  2  7  1  0  0  0  0
  3  2  2  0  0  0  0
  3  8  1  0  0  0  0
  4  3  1  0  0  0  0
  5  6  1  0  0  0  0
  5  4  2  0  0  0  0
  6  1  2  0  0  0  0
  9  5  1  0  0  0  0
 10 15  2  0  0  0  0
 10 11  1  0  0  0  0
 11 12  2  0  0  0  0
 12 13  1  0  0  0  0
 12 17  1  0  0  0  0
 14 18  1  0  0  0  0
 14 13  2  0  0  0  0
 15 14  1  0  0  0  0
 16 10  1  0  0  0  0
 19  4  1  0  0  0  0
 19 20  1  0  0  0  0
 20 24  2  0  0  0  0
 21 20  1  0  0  0  0
 21 22  2  0  0  0  0
 22 26  1  0  0  0  0
 22 23  1  0  0  0  0
 23 27  1  0  0  0  0
 24 23  1  0  0  0  0
 25 21  1  0  0  0  0
 27 28  1  0  0  0  0
 29 28  1  0  0  0  0
M  END
>  <minimizedAffinity>
-4.9896822

$$$$

 OpenBabel03272510123D

 29 31  0  0  0  0  0  0  0  0999 V2000
   35.6700   29.1560   34.1080 C   0  0  0  0  0  0  0  0  0  0  0  0
   36.5780   28.2430   34.5400 C   0  0  0  0  0  0  0  0  0  0  0  0
   37.0520   27.1880   33.7920 C   0  0  0  0  0  0  0  0  0  0  0  0
   36.6070   27.0050   32.5170 C   0  0  0  0  0  0  0  0  0  0  0  0
   35.6700   27.9400   32.0580 C   0  0  0  0  0  0  0  0  0  0  0  0
   35.2350   28.9570   32.8270 N   0  0  0  0  0  0  0  0  0  0  0  0
   36.9830   28.3140   35.5400 H   0  0  0  0  0  0  0  0  0  0  0  0
   37.7740   26.4660   34.1440 H   0  0  0  0  0  0  0  0  0  0  0  0
   35.2420   27.9050   31.0660 H   0  0  0  0  0  0  0  0  0  0  0  0
   35.9930   31.0780   35.6580 C   0  0  0  0  0  0  0  0  0  0  0  0
   35.1690   30.2500   34.8810 C   0  0  0  0  0  0  0  0  0  0  0  0
   33.8290   30.5250   34.8950 C   0  0  0  0  0  0  0  0  0  0  0  0
   33.3550   31.5680   35.6450 N   0  0  0  0  0  0  0  0  0  0  0  0
   34.2040   32.3410   36.3810 C   0  0  0  0  0  0  0  0  0  0  0  0
   35.5370   32.1060   36.3970 N   0  0  0  0  0  0  0  0  0  0  0  0
   37.0610   30.9040   35.6810 H   0  0  0  0  0  0  0  0  0  0  0  0
   33.1460   29.9260   34.3190 H   0  0  0  0  0  0  0  0  0  0  0  0
   33.6780   33.1310   36.9250 H   0  0  0  0  0  0  0  0  0  0  0  0
   36.9710   26.0050   31.6210 O   0  0  0  0  0  0  0  0  0  0  0  0
   36.7790   24.6640   31.8970 C   0  0  0  0  0  0  0  0  0  0  0  0
   35.6630   24.1120   31.2700 C   0  0  0  0  0  0  0  0  0  0  0  0
   35.6050   22.7710   31.6420 C   0  0  0  0  0  0  0  0  0  0  0  0
   36.6480   22.5550   32.4560 N   0  0  0  0  0  0  0  0  0  0  0  0
   37.3330   23.6620   32.6040 N   0  0  0  0  0  0  0  0  0  0  0  0
   34.8820   24.4750   30.5980 H   0  0  0  0  0  0  0  0  0  0  0  0
   34.8860   22.0000   31.3660 H   0  0  0  0  0  0  0  0  0  0  0  0
   36.9700   21.2870   33.0800 C   0  0  0  0  0  2  0  0  0  0  0  0
   35.6790   20.7080   33.6110 C   0  0  0  0  0  2  0  0  0  0  0  0
   35.6250   20.8640   34.6970 H   0  0  0  0  0  0  0  0  0  0  0  0
  1  2  1  0  0  0  0
  1 11  1  0  0  0  0
  2  7  1  0  0  0  0
  3  8  1  0  0  0  0
  3  2  2  0  0  0  0
  4  3  1  0  0  0  0
  5  4  2  0  0  0  0
  5  6  1  0  0  0  0
  6  1  2  0  0  0  0
  9  5  1  0  0  0  0
 10 16  1  0  0  0  0
 10 15  1  0  0  0  0
 11 12  1  0  0  0  0
 11 10  2  0  0  0  0
 12 13  2  0  0  0  0
 13 14  1  0  0  0  0
 14 15  2  0  0  0  0
 14 18  1  0  0  0  0
 17 12  1  0  0  0  0
 19 20  1  0  0  0  0
 19  4  1  0  0  0  0
 20 24  2  0  0  0  0
 21 22  2  0  0  0  0
 21 20  1  0  0  0  0
 22 23  1  0  0  0  0
 23 24  1  0  0  0  0
 23 27  1  0  0  0  0
 25 21  1  0  0  0  0
 26 22  1  0  0  0  0
 27 28  1  0  0  0  0
 28 29  1  0  0  0  0
M  END
>  <minimizedAffinity>
-4.90371656

$$$$

 OpenBabel03272510123D

 29 31  0  0  0  0  0  0  0  0999 V2000
   35.6510   29.5090   34.0900 C   0  0  0  0  0  0  0  0  0  0  0  0
   35.5430   29.5600   32.7380 C   0  0  0  0  0  0  0  0  0  0  0  0
   36.0690   28.6300   31.8690 C   0  0  0  0  0  0  0  0  0  0  0  0
   36.7570   27.5590   32.3550 C   0  0  0  0  0  0  0  0  0  0  0  0
   36.8760   27.4930   33.7500 C   0  0  0  0  0  0  0  0  0  0  0  0
   36.3440   28.4280   34.5600 N   0  0  0  0  0  0  0  0  0  0  0  0
   35.0130   30.3780   32.2680 H   0  0  0  0  0  0  0  0  0  0  0  0
   35.9790   28.6790   30.7940 H   0  0  0  0  0  0  0  0  0  0  0  0
   37.3970   26.6930   34.2580 H   0  0  0  0  0  0  0  0  0  0  0  0
   33.7350   30.6600   35.1890 C   0  0  0  0  0  0  0  0  0  0  0  0
   35.1120   30.4740   34.9980 C   0  0  0  0  0  0  0  0  0  0  0  0
   35.9490   31.2780   35.7230 C   0  0  0  0  0  0  0  0  0  0  0  0
   35.4270   32.2070   36.5830 N   0  0  0  0  0  0  0  0  0  0  0  0
   34.0770   32.3420   36.7280 C   0  0  0  0  0  0  0  0  0  0  0  0
   33.2120   31.5690   36.0320 N   0  0  0  0  0  0  0  0  0  0  0  0
   33.0300   30.0490   34.6400 H   0  0  0  0  0  0  0  0  0  0  0  0
   37.0150   31.1830   35.6210 H   0  0  0  0  0  0  0  0  0  0  0  0
   33.8160   33.1230   37.4470 H   0  0  0  0  0  0  0  0  0  0  0  0
   37.3530   26.5290   31.6350 O   0  0  0  0  0  0  0  0  0  0  0  0
   36.9440   25.2140   31.7570 C   0  0  0  0  0  0  0  0  0  0  0  0
   35.7780   24.9180   31.0530 C   0  0  0  0  0  0  0  0  0  0  0  0
   35.4960   23.5710   31.2720 C   0  0  0  0  0  0  0  0  0  0  0  0
   36.4640   23.1060   32.0740 N   0  0  0  0  0  0  0  0  0  0  0  0
   37.3090   24.0660   32.3560 N   0  0  0  0  0  0  0  0  0  0  0  0
   35.0860   25.4710   30.4130 H   0  0  0  0  0  0  0  0  0  0  0  0
   34.6760   22.9590   30.9000 H   0  0  0  0  0  0  0  0  0  0  0  0
   36.5630   21.7430   32.5570 C   0  0  0  0  0  2  0  0  0  0  0  0
   35.1970   21.1130   32.4020 C   0  0  0  0  0  2  0  0  0  0  0  0
   34.6930   21.0830   33.3780 H   0  0  0  0  0  0  0  0  0  0  0  0
  1  6  1  0  0  0  0
  1 11  1  0  0  0  0
  2  1  2  0  0  0  0
  3  4  2  0  0  0  0
  3  2  1  0  0  0  0
  4  5  1  0  0  0  0
  5  9  1  0  0  0  0
  5  6  2  0  0  0  0
  7  2  1  0  0  0  0
  8  3  1  0  0  0  0
 10 15  1  0  0  0  0
 11 10  2  0  0  0  0
 11 12  1  0  0  0  0
 12 13  2  0  0  0  0
 13 14  1  0  0  0  0
 14 18  1  0  0  0  0
 15 14  2  0  0  0  0
 16 10  1  0  0  0  0
 17 12  1  0  0  0  0
 19 20  1  0  0  0  0
 19  4  1  0  0  0  0
 20 24  2  0  0  0  0
 21 22  2  0  0  0  0
 21 20  1  0  0  0  0
 22 23  1  0  0  0  0
 23 24  1  0  0  0  0
 23 27  1  0  0  0  0
 25 21  1  0  0  0  0
 26 22  1  0  0  0  0
 28 27  1  0  0  0  0
 28 29  1  0  0  0  0
M  END
>  <minimizedAffinity>
-4.77725649

$$$$

 OpenBabel03272510123D

 29 31  0  0  0  0  0  0  0  0999 V2000
   38.3710   25.4380   35.3150 C   0  0  0  0  0  0  0  0  0  0  0  0
   38.1690   26.7040   35.7610 C   0  0  0  0  0  0  0  0  0  0  0  0
   37.4650   27.6760   35.0860 C   0  0  0  0  0  0  0  0  0  0  0  0
   36.9090   27.3940   33.8740 C   0  0  0  0  0  0  0  0  0  0  0  0
   37.1080   26.0910   33.4010 C   0  0  0  0  0  0  0  0  0  0  0  0
   37.8060   25.1730   34.0980 N   0  0  0  0  0  0  0  0  0  0  0  0
   38.5770   27.0130   36.7150 H   0  0  0  0  0  0  0  0  0  0  0  0
   37.3110   28.6820   35.4490 H   0  0  0  0  0  0  0  0  0  0  0  0
   36.7180   25.7430   32.4550 H   0  0  0  0  0  0  0  0  0  0  0  0
   40.3230   23.9100   35.5420 C   0  0  0  0  0  0  0  0  0  0  0  0
   39.1050   24.4260   36.0080 C   0  0  0  0  0  0  0  0  0  0  0  0
   38.6220   23.9060   37.1780 C   0  0  0  0  0  0  0  0  0  0  0  0
   39.3250   22.9300   37.8320 N   0  0  0  0  0  0  0  0  0  0  0  0
   40.5070   22.4670   37.3310 C   0  0  0  0  0  0  0  0  0  0  0  0
   41.0220   22.9510   36.1780 N   0  0  0  0  0  0  0  0  0  0  0  0
   40.7490   24.2870   34.6220 H   0  0  0  0  0  0  0  0  0  0  0  0
   37.6930   24.2620   37.5870 H   0  0  0  0  0  0  0  0  0  0  0  0
   40.9470   21.6910   37.9640 H   0  0  0  0  0  0  0  0  0  0  0  0
   36.1710   28.2420   33.0560 O   0  0  0  0  0  0  0  0  0  0  0  0
   36.6110   28.6220   31.8010 C   0  0  0  0  0  0  0  0  0  0  0  0
   36.3560   29.9570   31.4930 C   0  0  0  0  0  0  0  0  0  0  0  0
   36.8520   30.1840   30.2110 C   0  0  0  0  0  0  0  0  0  0  0  0
   37.3740   29.0230   29.7930 N   0  0  0  0  0  0  0  0  0  0  0  0
   37.2320   28.1110   30.7230 N   0  0  0  0  0  0  0  0  0  0  0  0
   35.8870   30.8040   32.0010 H   0  0  0  0  0  0  0  0  0  0  0  0
   36.8490   31.0940   29.6120 H   0  0  0  0  0  0  0  0  0  0  0  0
   38.0010   28.8070   28.5040 C   0  0  0  0  0  2  0  0  0  0  0  0
   38.1180   30.1560   27.8320 C   0  0  0  0  0  2  0  0  0  0  0  0
   37.3310   30.2580   27.0730 H   0  0  0  0  0  0  0  0  0  0  0  0
  1  2  1  0  0  0  0
  1 11  1  0  0  0  0
  2  7  1  0  0  0  0
  3  8  1  0  0  0  0
  3  2  2  0  0  0  0
  4  3  1  0  0  0  0
  5  4  2  0  0  0  0
  5  6  1  0  0  0  0
  6  1  2  0  0  0  0
  9  5  1  0  0  0  0
 10 11  2  0  0  0  0
 10 15  1  0  0  0  0
 11 12  1  0  0  0  0
 12 17  1  0  0  0  0
 12 13  2  0  0  0  0
 14 13  1  0  0  0  0
 14 18  1  0  0  0  0
 15 14  2  0  0  0  0
 16 10  1  0  0  0  0
 19  4  1  0  0  0  0
 20 19  1  0  0  0  0
 21 20  1  0  0  0  0
 21 25  1  0  0  0  0
 22 21  2  0  0  0  0
 23 22  1  0  0  0  0
 23 24  1  0  0  0  0
 24 20  2  0  0  0  0
 26 22  1  0  0  0  0
 27 23  1  0  0  0  0
 28 27  1  0  0  0  0
 29 28  1  0  0  0  0
M  END
>  <minimizedAffinity>
-4.76841116

$$$$

 OpenBabel03272510123D

 29 31  0  0  0  0  0  0  0  0999 V2000
   37.9280   25.6390   35.0670 C   0  0  0  0  0  0  0  0  0  0  0  0
   37.5910   26.9280   35.3280 C   0  0  0  0  0  0  0  0  0  0  0  0
   37.0870   27.8150   34.4020 C   0  0  0  0  0  0  0  0  0  0  0  0
   36.8940   27.4150   33.1140 C   0  0  0  0  0  0  0  0  0  0  0  0
   37.2370   26.0870   32.8300 C   0  0  0  0  0  0  0  0  0  0  0  0
   37.7270   25.2560   33.7690 N   0  0  0  0  0  0  0  0  0  0  0  0
   37.7130   27.3280   36.3260 H   0  0  0  0  0  0  0  0  0  0  0  0
   36.8220   28.8390   34.6190 H   0  0  0  0  0  0  0  0  0  0  0  0
   37.1300   25.6490   31.8470 H   0  0  0  0  0  0  0  0  0  0  0  0
   39.6200   23.9650   35.7980 C   0  0  0  0  0  0  0  0  0  0  0  0
   38.4560   24.7150   36.0220 C   0  0  0  0  0  0  0  0  0  0  0  0
   37.8180   24.5210   37.2160 C   0  0  0  0  0  0  0  0  0  0  0  0
   38.3230   23.6270   38.1220 N   0  0  0  0  0  0  0  0  0  0  0  0
   39.4610   22.9250   37.8490 C   0  0  0  0  0  0  0  0  0  0  0  0
   40.1250   23.0850   36.6820 N   0  0  0  0  0  0  0  0  0  0  0  0
   40.1630   24.0810   34.8690 H   0  0  0  0  0  0  0  0  0  0  0  0
   36.9200   25.0670   37.4470 H   0  0  0  0  0  0  0  0  0  0  0  0
   39.7370   22.2530   38.6670 H   0  0  0  0  0  0  0  0  0  0  0  0
   36.3990   28.1650   32.0520 O   0  0  0  0  0  0  0  0  0  0  0  0
   35.2560   28.9340   32.1650 C   0  0  0  0  0  0  0  0  0  0  0  0
   35.3180   30.1440   31.4740 C   0  0  0  0  0  0  0  0  0  0  0  0
   34.1060   30.7990   31.6820 C   0  0  0  0  0  0  0  0  0  0  0  0
   33.3700   29.9980   32.4650 N   0  0  0  0  0  0  0  0  0  0  0  0
   34.0420   28.9090   32.7460 N   0  0  0  0  0  0  0  0  0  0  0  0
   36.0570   30.6540   30.8510 H   0  0  0  0  0  0  0  0  0  0  0  0
   33.7620   31.7650   31.3150 H   0  0  0  0  0  0  0  0  0  0  0  0
   32.0290   30.2910   32.9310 C   0  0  0  0  0  2  0  0  0  0  0  0
   31.4320   28.9930   33.4240 C   0  0  0  0  0  2  0  0  0  0  0  0
   30.7390   28.5970   32.6690 H   0  0  0  0  0  0  0  0  0  0  0  0
  1  2  1  0  0  0  0
  1 11  1  0  0  0  0
  2  7  1  0  0  0  0
  3  8  1  0  0  0  0
  3  2  2  0  0  0  0
  4  3  1  0  0  0  0
  5  4  2  0  0  0  0
  5  6  1  0  0  0  0
  6  1  2  0  0  0  0
  9  5  1  0  0  0  0
 10 11  2  0  0  0  0
 10 15  1  0  0  0  0
 11 12  1  0  0  0  0
 12 17  1  0  0  0  0
 12 13  2  0  0  0  0
 14 13  1  0  0  0  0
 14 18  1  0  0  0  0
 15 14  2  0  0  0  0
 16 10  1  0  0  0  0
 19 20  1  0  0  0  0
 19  4  1  0  0  0  0
 20 24  2  0  0  0  0
 21 22  2  0  0  0  0
 21 20  1  0  0  0  0
 22 23  1  0  0  0  0
 23 24  1  0  0  0  0
 23 27  1  0  0  0  0
 25 21  1  0  0  0  0
 26 22  1  0  0  0  0
 27 28  1  0  0  0  0
 29 28  1  0  0  0  0
M  END
>  <minimizedAffinity>
-4.76717377

$$$$

 OpenBabel03272510123D

 29 31  0  0  0  0  0  0  0  0999 V2000
   36.2680   23.3800   31.5860 C   0  0  0  0  0  0  0  0  0  0  0  0
   35.4290   24.3320   31.1030 C   0  0  0  0  0  0  0  0  0  0  0  0
   35.6930   25.6840   31.0910 C   0  0  0  0  0  0  0  0  0  0  0  0
   36.8720   26.1500   31.5910 C   0  0  0  0  0  0  0  0  0  0  0  0
   37.7480   25.1790   32.0940 C   0  0  0  0  0  0  0  0  0  0  0  0
   37.4450   23.8660   32.0840 N   0  0  0  0  0  0  0  0  0  0  0  0
   34.4710   24.0490   30.6870 H   0  0  0  0  0  0  0  0  0  0  0  0
   35.0200   26.4340   30.7040 H   0  0  0  0  0  0  0  0  0  0  0  0
   38.7130   25.4200   32.5170 H   0  0  0  0  0  0  0  0  0  0  0  0
   36.6720   21.0550   30.7910 C   0  0  0  0  0  0  0  0  0  0  0  0
   35.9970   21.9760   31.6060 C   0  0  0  0  0  0  0  0  0  0  0  0
   35.0360   21.4730   32.4400 C   0  0  0  0  0  0  0  0  0  0  0  0
   34.7750   20.1290   32.4480 N   0  0  0  0  0  0  0  0  0  0  0  0
   35.4640   19.2800   31.6320 C   0  0  0  0  0  0  0  0  0  0  0  0
   36.4230   19.7330   30.7910 N   0  0  0  0  0  0  0  0  0  0  0  0
   37.4420   21.4010   30.1140 H   0  0  0  0  0  0  0  0  0  0  0  0
   34.4850   22.1290   33.0900 H   0  0  0  0  0  0  0  0  0  0  0  0
   35.1440   18.2410   31.7510 H   0  0  0  0  0  0  0  0  0  0  0  0
   37.3070   27.4690   31.6620 O   0  0  0  0  0  0  0  0  0  0  0  0
   36.6250   28.4320   32.3820 C   0  0  0  0  0  0  0  0  0  0  0  0
   36.3580   29.5940   31.6610 C   0  0  0  0  0  0  0  0  0  0  0  0
   35.6740   30.4590   32.5120 C   0  0  0  0  0  0  0  0  0  0  0  0
   35.5500   29.8200   33.6850 N   0  0  0  0  0  0  0  0  0  0  0  0
   36.1050   28.6360   33.6070 N   0  0  0  0  0  0  0  0  0  0  0  0
   36.5540   29.9500   30.6460 H   0  0  0  0  0  0  0  0  0  0  0  0
   35.2900   31.4610   32.3290 H   0  0  0  0  0  0  0  0  0  0  0  0
   34.8980   30.3580   34.8620 C   0  0  0  0  0  2  0  0  0  0  0  0
   35.9340   31.1520   35.6240 C   0  0  0  0  0  2  0  0  0  0  0  0
   36.2900   30.5650   36.4820 H   0  0  0  0  0  0  0  0  0  0  0  0
  1 11  1  0  0  0  0
  1  6  1  0  0  0  0
  2  1  2  0  0  0  0
  3  2  1  0  0  0  0
  3  4  2  0  0  0  0
  4 19  1  0  0  0  0
  4  5  1  0  0  0  0
  5  9  1  0  0  0  0
  6  5  2  0  0  0  0
  7  2  1  0  0  0  0
  8  3  1  0  0  0  0
 10 11  1  0  0  0  0
 11 12  2  0  0  0  0
 12 13  1  0  0  0  0
 12 17  1  0  0  0  0
 14 18  1  0  0  0  0
 14 13  2  0  0  0  0
 15 10  2  0  0  0  0
 15 14  1  0  0  0  0
 16 10  1  0  0  0  0
 19 20  1  0  0  0  0
 20 24  2  0  0  0  0
 21 20  1  0  0  0  0
 21 22  2  0  0  0  0
 22 23  1  0  0  0  0
 23 27  1  0  0  0  0
 24 23  1  0  0  0  0
 25 21  1  0  0  0  0
 26 22  1  0  0  0  0
 27 28  1  0  0  0  0
 28 29  1  0  0  0  0
M  END
>  <minimizedAffinity>
-4.74638033

$$$$

 OpenBabel03272510123D

 29 31  0  0  0  0  0  0  0  0999 V2000
   38.4570   27.1360   32.0400 C   0  0  0  0  0  0  0  0  0  0  0  0
   39.4030   27.1440   33.0140 C   0  0  0  0  0  0  0  0  0  0  0  0
   39.2250   26.6590   34.2900 C   0  0  0  0  0  0  0  0  0  0  0  0
   38.0260   26.1190   34.6520 C   0  0  0  0  0  0  0  0  0  0  0  0
   37.0410   26.1040   33.6560 C   0  0  0  0  0  0  0  0  0  0  0  0
   37.2610   26.5910   32.4200 N   0  0  0  0  0  0  0  0  0  0  0  0
   40.3830   27.5550   32.8130 H   0  0  0  0  0  0  0  0  0  0  0  0
   39.9830   26.6700   35.0590 H   0  0  0  0  0  0  0  0  0  0  0  0
   36.0500   25.7030   33.8170 H   0  0  0  0  0  0  0  0  0  0  0  0
   37.5960   28.2290   29.9750 C   0  0  0  0  0  0  0  0  0  0  0  0
   38.6330   27.6430   30.7150 C   0  0  0  0  0  0  0  0  0  0  0  0
   39.8550   27.5600   30.1040 C   0  0  0  0  0  0  0  0  0  0  0  0
   40.0150   28.0390   28.8310 N   0  0  0  0  0  0  0  0  0  0  0  0
   38.9680   28.6000   28.1600 C   0  0  0  0  0  0  0  0  0  0  0  0
   37.7430   28.7030   28.7240 N   0  0  0  0  0  0  0  0  0  0  0  0
   36.6100   28.3200   30.4120 H   0  0  0  0  0  0  0  0  0  0  0  0
   40.6910   27.1210   30.6200 H   0  0  0  0  0  0  0  0  0  0  0  0
   39.2520   28.9330   27.1580 H   0  0  0  0  0  0  0  0  0  0  0  0
   37.6670   25.5850   35.8840 O   0  0  0  0  0  0  0  0  0  0  0  0
   38.4070   24.5920   36.4990 C   0  0  0  0  0  0  0  0  0  0  0  0
   38.0160   24.3280   37.8110 C   0  0  0  0  0  0  0  0  0  0  0  0
   38.8460   23.3170   38.2910 C   0  0  0  0  0  0  0  0  0  0  0  0
   39.6870   23.0080   37.2930 N   0  0  0  0  0  0  0  0  0  0  0  0
   39.4290   23.7540   36.2480 N   0  0  0  0  0  0  0  0  0  0  0  0
   37.2560   24.7120   38.4960 H   0  0  0  0  0  0  0  0  0  0  0  0
   38.8630   22.8300   39.2650 H   0  0  0  0  0  0  0  0  0  0  0  0
   40.7260   22.0000   37.3600 C   0  0  0  0  0  2  0  0  0  0  0  0
   41.9580   22.5820   36.7060 C   0  0  0  0  0  2  0  0  0  0  0  0
   42.0670   22.1690   35.6940 H   0  0  0  0  0  0  0  0  0  0  0  0
  1  6  2  0  0  0  0
  1  2  1  0  0  0  0
  2  3  2  0  0  0  0
  3  4  1  0  0  0  0
  3  8  1  0  0  0  0
  4 19  1  0  0  0  0
  5  9  1  0  0  0  0
  5  4  2  0  0  0  0
  6  5  1  0  0  0  0
  7  2  1  0  0  0  0
 10 16  1  0  0  0  0
 10 11  1  0  0  0  0
 11  1  1  0  0  0  0
 12 17  1  0  0  0  0
 12 11  2  0  0  0  0
 13 12  1  0  0  0  0
 14 15  1  0  0  0  0
 14 13  2  0  0  0  0
 15 10  2  0  0  0  0
 18 14  1  0  0  0  0
 19 20  1  0  0  0  0
 20 21  1  0  0  0  0
 21 22  2  0  0  0  0
 21 25  1  0  0  0  0
 22 26  1  0  0  0  0
 23 27  1  0  0  0  0
 23 22  1  0  0  0  0
 24 20  2  0  0  0  0
 24 23  1  0  0  0  0
 28 27  1  0  0  0  0
 29 28  1  0  0  0  0
M  END
>  <minimizedAffinity>
-4.74042511

$$$$

 OpenBabel03272510123D

 29 31  0  0  0  0  0  0  0  0999 V2000
   36.5520   26.3340   32.4350 C   0  0  0  0  0  0  0  0  0  0  0  0
   36.8430   26.8280   33.6660 C   0  0  0  0  0  0  0  0  0  0  0  0
   36.6100   28.1240   34.0710 C   0  0  0  0  0  0  0  0  0  0  0  0
   36.0460   29.0150   33.2070 C   0  0  0  0  0  0  0  0  0  0  0  0
   35.7400   28.5180   31.9330 C   0  0  0  0  0  0  0  0  0  0  0  0
   35.9880   27.2420   31.5820 N   0  0  0  0  0  0  0  0  0  0  0  0
   37.2930   26.1890   34.4140 H   0  0  0  0  0  0  0  0  0  0  0  0
   36.8450   28.5090   35.0520 H   0  0  0  0  0  0  0  0  0  0  0  0
   35.2910   29.1240   31.1590 H   0  0  0  0  0  0  0  0  0  0  0  0
   38.0570   24.3820   32.0820 C   0  0  0  0  0  0  0  0  0  0  0  0
   36.7960   24.9920   32.0070 C   0  0  0  0  0  0  0  0  0  0  0  0
   35.7780   24.2410   31.4850 C   0  0  0  0  0  0  0  0  0  0  0  0
   36.0200   22.9600   31.0680 N   0  0  0  0  0  0  0  0  0  0  0  0
   37.2690   22.4180   31.1660 C   0  0  0  0  0  0  0  0  0  0  0  0
   38.3050   23.1230   31.6750 N   0  0  0  0  0  0  0  0  0  0  0  0
   38.8960   24.9320   32.4880 H   0  0  0  0  0  0  0  0  0  0  0  0
   34.7880   24.6530   31.4020 H   0  0  0  0  0  0  0  0  0  0  0  0
   37.3040   21.3910   30.7930 H   0  0  0  0  0  0  0  0  0  0  0  0
   35.7400   30.3520   33.4380 O   0  0  0  0  0  0  0  0  0  0  0  0
   35.1350   30.7760   34.6060 C   0  0  0  0  0  0  0  0  0  0  0  0
   35.9700   31.5260   35.4350 C   0  0  0  0  0  0  0  0  0  0  0  0
   35.2260   31.8760   36.5590 C   0  0  0  0  0  0  0  0  0  0  0  0
   34.0050   31.3480   36.3880 N   0  0  0  0  0  0  0  0  0  0  0  0
   33.9540   30.7060   35.2470 N   0  0  0  0  0  0  0  0  0  0  0  0
   37.0050   31.8740   35.3970 H   0  0  0  0  0  0  0  0  0  0  0  0
   35.5140   32.4580   37.4340 H   0  0  0  0  0  0  0  0  0  0  0  0
   32.9060   31.4690   37.3250 C   0  0  0  0  0  2  0  0  0  0  0  0
   31.9560   30.3260   37.0510 C   0  0  0  0  0  2  0  0  0  0  0  0
   31.0920   30.6940   36.4820 H   0  0  0  0  0  0  0  0  0  0  0  0
  1  2  1  0  0  0  0
  2  3  2  0  0  0  0
  2  7  1  0  0  0  0
  3  8  1  0  0  0  0
  4 19  1  0  0  0  0
  4  3  1  0  0  0  0
  5  4  2  0  0  0  0
  6  5  1  0  0  0  0
  6  1  2  0  0  0  0
  9  5  1  0  0  0  0
 10 16  1  0  0  0  0
 11 10  1  0  0  0  0
 11  1  1  0  0  0  0
 12 11  2  0  0  0  0
 13 14  2  0  0  0  0
 13 12  1  0  0  0  0
 14 15  1  0  0  0  0
 15 10  2  0  0  0  0
 17 12  1  0  0  0  0
 18 14  1  0  0  0  0
 19 20  1  0  0  0  0
 20 24  2  0  0  0  0
 20 21  1  0  0  0  0
 21 22  2  0  0  0  0
 22 26  1  0  0  0  0
 23 22  1  0  0  0  0
 23 27  1  0  0  0  0
 24 23  1  0  0  0  0
 25 21  1  0  0  0  0
 28 27  1  0  0  0  0
 29 28  1  0  0  0  0
M  END
>  <minimizedAffinity>
-4.69318295

$$$$

 OpenBabel03272510123D

 29 31  0  0  0  0  0  0  0  0999 V2000
   35.3470   28.7420   32.7970 C   0  0  0  0  0  0  0  0  0  0  0  0
   35.9060   28.6810   34.0320 C   0  0  0  0  0  0  0  0  0  0  0  0
   36.9440   27.8480   34.3880 C   0  0  0  0  0  0  0  0  0  0  0  0
   37.4850   27.0040   33.4650 C   0  0  0  0  0  0  0  0  0  0  0  0
   36.9180   27.0570   32.1840 C   0  0  0  0  0  0  0  0  0  0  0  0
   35.9020   27.8890   31.8840 N   0  0  0  0  0  0  0  0  0  0  0  0
   35.5360   29.3170   34.8260 H   0  0  0  0  0  0  0  0  0  0  0  0
   37.3820   27.8050   35.3740 H   0  0  0  0  0  0  0  0  0  0  0  0
   37.2580   26.4390   31.3650 H   0  0  0  0  0  0  0  0  0  0  0  0
   34.4150   30.6770   31.5360 C   0  0  0  0  0  0  0  0  0  0  0  0
   34.2660   29.6000   32.4220 C   0  0  0  0  0  0  0  0  0  0  0  0
   33.0160   29.3970   32.9410 C   0  0  0  0  0  0  0  0  0  0  0  0
   31.9870   30.2280   32.5870 N   0  0  0  0  0  0  0  0  0  0  0  0
   32.1910   31.2600   31.7180 C   0  0  0  0  0  0  0  0  0  0  0  0
   33.4100   31.4980   31.1810 N   0  0  0  0  0  0  0  0  0  0  0  0
   35.3820   30.8800   31.0960 H   0  0  0  0  0  0  0  0  0  0  0  0
   32.8380   28.5880   33.6260 H   0  0  0  0  0  0  0  0  0  0  0  0
   31.2780   31.8320   31.5340 H   0  0  0  0  0  0  0  0  0  0  0  0
   38.5270   26.1010   33.6410 O   0  0  0  0  0  0  0  0  0  0  0  0
   38.5180   25.1540   34.6480 C   0  0  0  0  0  0  0  0  0  0  0  0
   38.1560   23.8770   34.2190 C   0  0  0  0  0  0  0  0  0  0  0  0
   38.1920   23.0440   35.3350 C   0  0  0  0  0  0  0  0  0  0  0  0
   38.5610   23.8110   36.3720 N   0  0  0  0  0  0  0  0  0  0  0  0
   38.7510   25.0430   35.9680 N   0  0  0  0  0  0  0  0  0  0  0  0
   37.8720   23.4210   33.2680 H   0  0  0  0  0  0  0  0  0  0  0  0
   37.9770   21.9800   35.4200 H   0  0  0  0  0  0  0  0  0  0  0  0
   38.7250   23.3470   37.7350 C   0  0  0  0  0  2  0  0  0  0  0  0
   37.9500   24.2910   38.6260 C   0  0  0  0  0  2  0  0  0  0  0  0
   38.6450   24.9850   39.1180 H   0  0  0  0  0  0  0  0  0  0  0  0
  1  2  1  0  0  0  0
  2  3  2  0  0  0  0
  2  7  1  0  0  0  0
  3  8  1  0  0  0  0
  4 19  1  0  0  0  0
  4  3  1  0  0  0  0
  5  4  2  0  0  0  0
  6  5  1  0  0  0  0
  6  1  2  0  0  0  0
  9  5  1  0  0  0  0
 10 11  1  0  0  0  0
 11  1  1  0  0  0  0
 11 12  2  0  0  0  0
 12 17  1  0  0  0  0
 13 12  1  0  0  0  0
 14 13  2  0  0  0  0
 15 10  2  0  0  0  0
 15 14  1  0  0  0  0
 16 10  1  0  0  0  0
 18 14  1  0  0  0  0
 19 20  1  0  0  0  0
 20 24  2  0  0  0  0
 21 20  1  0  0  0  0
 21 22  2  0  0  0  0
 22 26  1  0  0  0  0
 22 23  1  0  0  0  0
 23 27  1  0  0  0  0
 24 23  1  0  0  0  0
 25 21  1  0  0  0  0
 27 28  1  0  0  0  0
 28 29  1  0  0  0  0
M  END
>  <minimizedAffinity>
-4.61586905

$$$$
