
 OpenBabel03272510113D

 29 31  0  0  0  0  0  0  0  0999 V2000
   34.0300   28.8180   48.2930 C   0  0  0  0  0  0  0  0  0  0  0  0
   34.6490   28.3770   49.4180 C   0  0  0  0  0  0  0  0  0  0  0  0
   35.8840   28.7990   49.8550 C   0  0  0  0  0  0  0  0  0  0  0  0
   36.5780   29.7290   49.1400 C   0  0  0  0  0  0  0  0  0  0  0  0
   35.9510   30.1940   47.9760 C   0  0  0  0  0  0  0  0  0  0  0  0
   34.7400   29.7510   47.5880 N   0  0  0  0  0  0  0  0  0  0  0  0
   34.1690   27.6370   50.0450 H   0  0  0  0  0  0  0  0  0  0  0  0
   36.3700   28.4410   50.7520 H   0  0  0  0  0  0  0  0  0  0  0  0
   36.3960   30.9310   47.3240 H   0  0  0  0  0  0  0  0  0  0  0  0
   31.9260   27.5130   48.5630 C   0  0  0  0  0  0  0  0  0  0  0  0
   32.7490   28.3810   47.8300 C   0  0  0  0  0  0  0  0  0  0  0  0
   32.2770   28.8000   46.6160 C   0  0  0  0  0  0  0  0  0  0  0  0
   31.0550   28.3700   46.1740 N   0  0  0  0  0  0  0  0  0  0  0  0
   30.2970   27.5250   46.9310 C   0  0  0  0  0  0  0  0  0  0  0  0
   30.7240   27.0850   48.1370 N   0  0  0  0  0  0  0  0  0  0  0  0
   32.2530   27.1520   49.5290 H   0  0  0  0  0  0  0  0  0  0  0  0
   32.8620   29.4670   46.0080 H   0  0  0  0  0  0  0  0  0  0  0  0
   29.3510   27.2720   46.4450 H   0  0  0  0  0  0  0  0  0  0  0  0
   37.8270   30.2680   49.4260 O   0  0  0  0  0  0  0  0  0  0  0  0
   38.3920   31.2660   48.6540 C   0  0  0  0  0  0  0  0  0  0  0  0
   38.4450   32.5080   49.2850 C   0  0  0  0  0  0  0  0  0  0  0  0
   39.0320   33.3990   48.3900 C   0  0  0  0  0  0  0  0  0  0  0  0
   39.3090   32.6980   47.2810 N   0  0  0  0  0  0  0  0  0  0  0  0
   38.9340   31.4530   47.4360 N   0  0  0  0  0  0  0  0  0  0  0  0
   38.1480   32.9060   50.2580 H   0  0  0  0  0  0  0  0  0  0  0  0
   39.2520   34.4600   48.5030 H   0  0  0  0  0  0  0  0  0  0  0  0
   39.9300   33.2380   46.0870 C   0  0  0  0  0  2  0  0  0  0  0  0
   40.6560   32.0990   45.4060 C   0  0  0  0  0  2  0  0  0  0  0  0
   41.7320   32.1750   45.6130 H   0  0  0  0  0  0  0  0  0  0  0  0
  1  2  1  0  0  0  0
  2  3  2  0  0  0  0
  2  7  1  0  0  0  0
  3  8  1  0  0  0  0
  4 19  1  0  0  0  0
  4  3  1  0  0  0  0
  5  4  2  0  0  0  0
  6  5  1  0  0  0  0
  6  1  2  0  0  0  0
  9  5  1  0  0  0  0
 10 16  1  0  0  0  0
 11  1  1  0  0  0  0
 11 10  2  0  0  0  0
 12 11  1  0  0  0  0
 13 12  2  0  0  0  0
 13 14  1  0  0  0  0
 14 15  2  0  0  0  0
 15 10  1  0  0  0  0
 17 12  1  0  0  0  0
 18 14  1  0  0  0  0
 20 21  1  0  0  0  0
 20 19  1  0  0  0  0
 21 25  1  0  0  0  0
 22 26  1  0  0  0  0
 22 21  2  0  0  0  0
 23 24  1  0  0  0  0
 23 22  1  0  0  0  0
 24 20  2  0  0  0  0
 27 23  1  0  0  0  0
 28 29  1  0  0  0  0
 28 27  1  0  0  0  0
M  END
>  <minimizedAffinity>
-5.49456787

>  <minimizedRMSD>
0.614531457

$$$$
