
 OpenBabel03272509423D

 32 33  0  0  1  0  0  0  0  0999 V2000
   37.0840   30.9390   49.0590 C   0  0  0  0  0  0  0  0  0  0  0  0
   36.8070   31.8740   50.0570 C   0  0  0  0  0  0  0  0  0  0  0  0
   37.4010   33.1270   50.0690 C   0  0  0  0  0  0  0  0  0  0  0  0
   38.3040   33.4700   49.0610 C   0  0  0  0  0  0  0  0  0  0  0  0
   38.5650   32.5450   48.0930 C   0  0  0  0  0  0  0  0  0  0  0  0
   37.9540   31.2990   48.1090 C   0  0  0  0  0  0  0  0  0  0  0  0
   36.1100   31.6190   50.8410 H   0  0  0  0  0  0  0  0  0  0  0  0
   37.1370   33.7870   50.8670 H   0  0  0  0  0  0  0  0  0  0  0  0
   38.7110   34.4530   49.1520 H   0  0  0  0  0  0  0  0  0  0  0  0
   39.2870   32.9540   47.3800 H   0  0  0  0  0  0  0  0  0  0  0  0
   36.4900   29.6200   49.0620 C   0  0  2  0  0  0  0  0  0  0  0  0
   36.9850   29.0610   48.1780 H   0  0  0  0  0  0  0  0  0  0  0  0
   33.6220   29.9590   46.8570 C   0  0  0  0  0  0  0  0  0  0  0  0
   32.8820   28.8150   47.0900 C   0  0  0  0  0  0  0  0  0  0  0  0
   33.3290   27.9380   48.0600 C   0  0  0  0  0  0  0  0  0  0  0  0
   34.4850   28.2290   48.7510 N   0  0  0  0  0  0  0  0  0  0  0  0
   35.1460   29.3350   48.4820 C   0  0  0  0  0  0  0  0  0  0  0  0
   34.7230   30.2070   47.5380 N   0  0  0  0  0  0  0  0  0  0  0  0
   33.2940   30.6640   46.1040 H   0  0  0  0  0  0  0  0  0  0  0  0
   31.9880   28.6470   46.5130 H   0  0  0  0  0  0  0  0  0  0  0  0
   32.7660   27.0280   48.2660 H   0  0  0  0  0  0  0  0  0  0  0  0
   36.9560   28.8700   49.9980 O   0  0  0  0  0  0  0  0  0  0  0  0
   37.1520   29.2110   50.9040 H   0  0  0  0  0  0  0  0  0  0  0  0
   38.3460   30.4100   47.0400 C   0  0  0  0  0  3  0  0  0  0  0  0
   38.6860   30.8190   45.8140 C   0  0  0  0  0  3  0  0  0  0  0  0
   39.1420   30.0020   44.6650 C   0  0  0  0  0  0  0  0  0  0  0  0
   38.2470   29.8050   44.0100 H   0  0  0  0  0  0  0  0  0  0  0  0
   39.4940   28.9910   44.9500 H   0  0  0  0  0  0  0  0  0  0  0  0
   40.3660   30.9150   43.7230 S   0  0  0  0  0  0  0  0  0  0  0  0
   40.8720   30.1010   42.2050 C   0  0  0  0  0  2  0  0  0  0  0  0
   39.8000   30.2120   41.1650 C   0  0  0  0  0  2  0  0  0  0  0  0
   38.8920   29.6950   41.4840 H   0  0  0  0  0  0  0  0  0  0  0  0
  1 11  1  0  0  0  0
  1  2  1  0  0  0  0
  2  3  2  0  0  0  0
  2  7  1  0  0  0  0
  3  8  1  0  0  0  0
  4  9  1  0  0  0  0
  4  3  1  0  0  0  0
  5  6  1  0  0  0  0
  5  4  2  0  0  0  0
  6  1  2  0  0  0  0
 10  5  1  0  0  0  0
 11 12  1  6  0  0  0
 11 22  1  0  0  0  0
 13 14  2  0  0  0  0
 13 18  1  0  0  0  0
 14 15  1  0  0  0  0
 15 21  1  0  0  0  0
 15 16  2  0  0  0  0
 17 16  1  0  0  0  0
 17 11  1  0  0  0  0
 18 17  2  0  0  0  0
 19 13  1  0  0  0  0
 20 14  1  0  0  0  0
 22 23  1  0  0  0  0
 24  6  1  0  0  0  0
 25 24  2  0  0  0  0
 26 28  1  0  0  0  0
 26 25  1  0  0  0  0
 27 26  1  0  0  0  0
 29 26  1  0  0  0  0
 30 29  1  0  0  0  0
 31 32  1  0  0  0  0
 31 30  1  0  0  0  0
M  END
>  <minimizedAffinity>
-5.25091505

>  <minimizedRMSD>
0.555142939

$$$$
