
 OpenBabel03262522343D

 34 36  0  0  0  0  0  0  0  0999 V2000
   38.8340   31.5650   47.1450 C   0  0  0  0  0  0  0  0  0  0  0  0
   39.3760   32.8190   47.1500 C   0  0  0  0  0  0  0  0  0  0  0  0
   40.0510   33.3890   46.0890 C   0  0  0  0  0  0  0  0  0  0  0  0
   40.2000   32.6500   44.9230 C   0  0  0  0  0  0  0  0  0  0  0  0
   39.6490   31.3850   44.9290 C   0  0  0  0  0  0  0  0  0  0  0  0
   39.0210   30.9300   45.9980 N   0  0  0  0  0  0  0  0  0  0  0  0
   39.3020   33.4700   48.0330 H   0  0  0  0  0  0  0  0  0  0  0  0
   40.4630   34.3820   46.1320 H   0  0  0  0  0  0  0  0  0  0  0  0
   40.7350   33.1120   44.0920 H   0  0  0  0  0  0  0  0  0  0  0  0
   38.6630   30.3780   42.9180 C   0  0  0  0  0  0  0  0  0  0  0  0
   39.7920   30.6030   43.7030 C   0  0  0  0  0  0  0  0  0  0  0  0
   40.9900   30.0800   43.2840 C   0  0  0  0  0  0  0  0  0  0  0  0
   41.1710   29.3400   42.1350 C   0  0  0  0  0  0  0  0  0  0  0  0
   40.0740   29.1050   41.3470 C   0  0  0  0  0  0  0  0  0  0  0  0
   38.8680   29.6260   41.7610 C   0  0  0  0  0  0  0  0  0  0  0  0
   41.8280   30.3130   43.9750 H   0  0  0  0  0  0  0  0  0  0  0  0
   42.1600   28.9760   41.9010 H   0  0  0  0  0  0  0  0  0  0  0  0
   40.1540   28.5330   40.4400 H   0  0  0  0  0  0  0  0  0  0  0  0
   37.9830   29.4350   41.1220 H   0  0  0  0  0  0  0  0  0  0  0  0
   37.0730   30.9230   43.3130 S   0  0  0  0  0  0  0  0  0  0  0  0
   36.2150   30.6530   42.0660 O   0  0  0  0  0  0  0  0  0  0  0  0
   36.4770   30.0960   44.3990 O   0  0  0  0  0  0  0  0  0  0  0  0
   36.8200   32.6520   43.4110 C   0  0  0  0  0  0  0  0  0  0  0  0
   35.6510   32.9590   42.4820 C   0  0  0  0  0  0  0  0  0  0  0  0
   36.0020   33.2420   41.4710 H   0  0  0  0  0  0  0  0  0  0  0  0
   38.3770   31.3460   49.6120 C   0  0  0  0  0  0  0  0  0  0  0  0
   38.1280   31.0130   48.2650 C   0  0  0  0  0  0  0  0  0  0  0  0
   37.1050   30.0790   47.9930 C   0  0  0  0  0  0  0  0  0  0  0  0
   36.4060   29.5430   49.0510 N   0  0  0  0  0  0  0  0  0  0  0  0
   36.7000   29.9110   50.3380 C   0  0  0  0  0  0  0  0  0  0  0  0
   37.6750   30.8030   50.6160 N   0  0  0  0  0  0  0  0  0  0  0  0
   39.1800   32.0650   49.6830 H   0  0  0  0  0  0  0  0  0  0  0  0
   36.8740   29.7880   46.9770 H   0  0  0  0  0  0  0  0  0  0  0  0
   36.1400   29.4810   51.1580 H   0  0  0  0  0  0  0  0  0  0  0  0
  1  2  1  0  0  0  0
  1 27  1  0  0  0  0
  2  7  1  0  0  0  0
  3  8  1  0  0  0  0
  3  2  2  0  0  0  0
  4  5  2  0  0  0  0
  4  3  1  0  0  0  0
  5  6  1  0  0  0  0
  6  1  2  0  0  0  0
  9  4  1  0  0  0  0
 10 20  1  0  0  0  0
 10 11  1  0  0  0  0
 11  5  1  0  0  0  0
 12 11  2  0  0  0  0
 12 16  1  0  0  0  0
 13 12  1  0  0  0  0
 14 15  1  0  0  0  0
 14 13  2  0  0  0  0
 15 10  2  0  0  0  0
 17 13  1  0  0  0  0
 18 14  1  0  0  0  0
 19 15  1  0  0  0  0
 20 23  1  0  0  0  0
 20 22  2  0  0  0  0
 21 20  2  0  0  0  0
 24 23  1  0  0  0  0
 25 24  1  0  0  0  0
 26 32  1  0  0  0  0
 26 31  1  0  0  0  0
 27 26  2  0  0  0  0
 28 27  1  0  0  0  0
 28 29  2  0  0  0  0
 29 30  1  0  0  0  0
 30 31  2  0  0  0  0
 30 34  1  0  0  0  0
 33 28  1  0  0  0  0
M  END
>  <minimizedAffinity>
-5.26536894

>  <minimizedRMSD>
0.948502123

$$$$
