
 OpenBabel03272510113D

 29 31  0  0  0  0  0  0  0  0999 V2000
   33.5790   28.6340   48.2270 C   0  0  0  0  0  0  0  0  0  0  0  0
   34.0590   28.2860   49.4490 C   0  0  0  0  0  0  0  0  0  0  0  0
   35.3080   28.6120   49.9280 C   0  0  0  0  0  0  0  0  0  0  0  0
   36.1630   29.3400   49.1560 C   0  0  0  0  0  0  0  0  0  0  0  0
   35.6810   29.7070   47.8930 C   0  0  0  0  0  0  0  0  0  0  0  0
   34.4510   29.3630   47.4670 N   0  0  0  0  0  0  0  0  0  0  0  0
   33.4450   27.7070   50.1260 H   0  0  0  0  0  0  0  0  0  0  0  0
   35.6810   28.3310   50.9020 H   0  0  0  0  0  0  0  0  0  0  0  0
   36.2620   30.2840   47.1870 H   0  0  0  0  0  0  0  0  0  0  0  0
   31.3430   27.5630   48.4600 C   0  0  0  0  0  0  0  0  0  0  0  0
   32.2860   28.2930   47.7210 C   0  0  0  0  0  0  0  0  0  0  0  0
   31.9200   28.6730   46.4590 C   0  0  0  0  0  0  0  0  0  0  0  0
   30.6840   28.3350   45.9760 N   0  0  0  0  0  0  0  0  0  0  0  0
   29.8070   27.6230   46.7410 C   0  0  0  0  0  0  0  0  0  0  0  0
   30.1260   27.2270   47.9950 N   0  0  0  0  0  0  0  0  0  0  0  0
   31.5820   27.2390   49.4640 H   0  0  0  0  0  0  0  0  0  0  0  0
   32.5990   29.2350   45.8430 H   0  0  0  0  0  0  0  0  0  0  0  0
   28.8650   27.4310   46.2190 H   0  0  0  0  0  0  0  0  0  0  0  0
   37.4510   29.7590   49.4710 O   0  0  0  0  0  0  0  0  0  0  0  0
   37.9660   30.9600   49.0180 C   0  0  0  0  0  0  0  0  0  0  0  0
   37.5400   32.0680   49.7480 C   0  0  0  0  0  0  0  0  0  0  0  0
   38.1360   33.1900   49.1760 C   0  0  0  0  0  0  0  0  0  0  0  0
   38.8790   32.7470   48.1520 N   0  0  0  0  0  0  0  0  0  0  0  0
   38.7780   31.4440   48.0610 N   0  0  0  0  0  0  0  0  0  0  0  0
   36.8890   32.2370   50.6090 H   0  0  0  0  0  0  0  0  0  0  0  0
   38.0580   34.2400   49.4540 H   0  0  0  0  0  0  0  0  0  0  0  0
   39.6750   33.5830   47.2760 C   0  0  0  0  0  2  0  0  0  0  0  0
   40.2680   34.6850   48.1260 C   0  0  0  0  0  2  0  0  0  0  0  0
   39.7020   35.6140   47.9700 H   0  0  0  0  0  0  0  0  0  0  0  0
  1  2  1  0  0  0  0
  2  3  2  0  0  0  0
  2  7  1  0  0  0  0
  3  8  1  0  0  0  0
  4 19  1  0  0  0  0
  4  3  1  0  0  0  0
  5  4  2  0  0  0  0
  6  5  1  0  0  0  0
  6  1  2  0  0  0  0
  9  5  1  0  0  0  0
 10 16  1  0  0  0  0
 11  1  1  0  0  0  0
 11 10  2  0  0  0  0
 12 11  1  0  0  0  0
 13 12  2  0  0  0  0
 13 14  1  0  0  0  0
 14 15  2  0  0  0  0
 15 10  1  0  0  0  0
 17 12  1  0  0  0  0
 18 14  1  0  0  0  0
 20 19  1  0  0  0  0
 20 21  1  0  0  0  0
 21 25  1  0  0  0  0
 22 26  1  0  0  0  0
 22 21  2  0  0  0  0
 23 22  1  0  0  0  0
 24 23  1  0  0  0  0
 24 20  2  0  0  0  0
 27 28  1  0  0  0  0
 27 23  1  0  0  0  0
 29 28  1  0  0  0  0
M  END
>  <minimizedAffinity>
-4.7416687

>  <minimizedRMSD>
0.444159478

$$$$
