
 OpenBabel03262521483D

 24 24  0  0  0  0  0  0  0  0999 V2000
   36.1040   21.0180   35.1190 C   0  0  0  0  0  0  0  0  0  0  0  0
   36.0110   20.0500   35.6830 H   0  0  0  0  0  0  0  0  0  0  0  0
   35.2130   21.6020   35.4540 H   0  0  0  0  0  0  0  0  0  0  0  0
   35.9440   20.7490   33.6890 C   0  0  0  0  0  0  0  0  0  0  0  0
   36.2730   21.6670   32.7080 C   0  0  0  0  0  0  0  0  0  0  0  0
   36.0710   21.2850   31.3570 C   0  0  0  0  0  0  0  0  0  0  0  0
   35.5630   20.0350   31.1020 N   0  0  0  0  0  0  0  0  0  0  0  0
   35.2550   19.1680   32.1070 C   0  0  0  0  0  0  0  0  0  0  0  0
   35.4500   19.5370   33.3910 N   0  0  0  0  0  0  0  0  0  0  0  0
   36.6690   22.6350   32.9810 H   0  0  0  0  0  0  0  0  0  0  0  0
   36.3170   21.9730   30.5770 H   0  0  0  0  0  0  0  0  0  0  0  0
   34.8610   18.2060   31.8340 H   0  0  0  0  0  0  0  0  0  0  0  0
   37.3160   21.8070   35.4780 C   0  0  0  0  0  0  0  0  0  0  0  0
   38.1590   21.1120   35.6570 H   0  0  0  0  0  0  0  0  0  0  0  0
   37.5940   22.5570   34.6960 H   0  0  0  0  0  0  0  0  0  0  0  0
   37.0650   22.4640   36.6880 O   0  0  0  0  0  0  0  0  0  0  0  0
   39.5770   23.0320   36.3020 O   0  0  0  0  0  0  0  0  0  0  0  0
   38.3970   23.3270   37.2320 P   0  0  2  0  0  0  0  0  0  0  0  0
   38.8900   22.8610   38.7520 O   0  0  0  0  0  0  0  0  0  0  0  0
   38.2360   23.1120   39.4480 H   0  0  0  0  0  0  0  0  0  0  0  0
   38.0800   24.9880   37.2300 O   0  0  0  0  0  0  0  0  0  0  0  0
   38.0560   25.5210   35.9720 C   0  0  0  0  0  2  0  0  0  0  0  0
   38.4610   26.9970   36.0750 C   0  0  0  0  0  2  0  0  0  0  0  0
   39.5610   27.1080   36.1330 H   0  0  0  0  0  0  0  0  0  0  0  0
  1  3  1  0  0  0  0
  1 13  1  0  0  0  0
  1  2  1  0  0  0  0
  4  1  1  0  0  0  0
  5 10  1  0  0  0  0
  5  4  2  0  0  0  0
  6  5  1  0  0  0  0
  7  6  2  0  0  0  0
  7  8  1  0  0  0  0
  8  9  2  0  0  0  0
  9  4  1  0  0  0  0
 11  6  1  0  0  0  0
 12  8  1  0  0  0  0
 13 14  1  0  0  0  0
 13 16  1  0  0  0  0
 15 13  1  0  0  0  0
 16 18  1  0  0  0  0
 18 17  2  6  0  0  0
 18 19  1  0  0  0  0
 19 20  1  0  0  0  0
 21 18  1  0  0  0  0
 22 23  1  0  0  0  0
 22 21  1  0  0  0  0
 23 24  1  0  0  0  0
M  END
>  <minimizedAffinity>
-4.066957

$$$$

 OpenBabel03262521483D

 24 24  0  0  0  0  0  0  0  0999 V2000
   38.0710   26.8450   35.8290 C   0  0  0  0  0  0  0  0  0  0  0  0
   37.5070   27.2120   36.7300 H   0  0  0  0  0  0  0  0  0  0  0  0
   39.0010   27.4620   35.8340 H   0  0  0  0  0  0  0  0  0  0  0  0
   37.3150   27.1930   34.6240 C   0  0  0  0  0  0  0  0  0  0  0  0
   36.5780   28.3580   34.5090 C   0  0  0  0  0  0  0  0  0  0  0  0
   35.8890   28.5800   33.2880 C   0  0  0  0  0  0  0  0  0  0  0  0
   35.9940   27.6330   32.2990 N   0  0  0  0  0  0  0  0  0  0  0  0
   36.7360   26.5020   32.4650 C   0  0  0  0  0  0  0  0  0  0  0  0
   37.3890   26.2960   33.6290 N   0  0  0  0  0  0  0  0  0  0  0  0
   36.5390   29.0600   35.3290 H   0  0  0  0  0  0  0  0  0  0  0  0
   35.3120   29.4710   33.1690 H   0  0  0  0  0  0  0  0  0  0  0  0
   36.7730   25.8040   31.6490 H   0  0  0  0  0  0  0  0  0  0  0  0
   38.4810   25.4150   35.9220 C   0  0  0  0  0  0  0  0  0  0  0  0
   37.8840   24.8200   35.2060 H   0  0  0  0  0  0  0  0  0  0  0  0
   39.5730   25.2640   35.7330 H   0  0  0  0  0  0  0  0  0  0  0  0
   38.1610   24.9530   37.2040 O   0  0  0  0  0  0  0  0  0  0  0  0
   37.1010   22.6100   36.7950 O   0  0  0  0  0  0  0  0  0  0  0  0
   38.3540   23.2930   37.3490 P   0  0  2  0  0  0  0  0  0  0  0  0
   38.4810   22.7940   38.9320 O   0  0  0  0  0  0  0  0  0  0  0  0
   39.3230   23.0950   39.3500 H   0  0  0  0  0  0  0  0  0  0  0  0
   39.7100   22.7680   36.4860 O   0  0  0  0  0  0  0  0  0  0  0  0
   40.7050   22.2980   37.2960 C   0  0  0  0  0  2  0  0  0  0  0  0
   42.0490   22.7290   36.6940 C   0  0  0  0  0  2  0  0  0  0  0  0
   42.2890   23.7770   36.9590 H   0  0  0  0  0  0  0  0  0  0  0  0
  1  3  1  0  0  0  0
  1 13  1  0  0  0  0
  1  2  1  0  0  0  0
  4  1  1  0  0  0  0
  5  4  1  0  0  0  0
  5 10  1  0  0  0  0
  6  5  2  0  0  0  0
  7  8  2  0  0  0  0
  7  6  1  0  0  0  0
  8  9  1  0  0  0  0
  9  4  2  0  0  0  0
 11  6  1  0  0  0  0
 12  8  1  0  0  0  0
 13 16  1  0  0  0  0
 14 13  1  0  0  0  0
 15 13  1  0  0  0  0
 16 18  1  0  0  0  0
 18 17  2  6  0  0  0
 18 19  1  0  0  0  0
 19 20  1  0  0  0  0
 21 22  1  0  0  0  0
 21 18  1  0  0  0  0
 23 24  1  0  0  0  0
 23 22  1  0  0  0  0
M  END
>  <minimizedAffinity>
-4.06016111

$$$$

 OpenBabel03262521483D

 24 24  0  0  0  0  0  0  0  0999 V2000
   38.5790   26.7360   35.9160 C   0  0  0  0  0  0  0  0  0  0  0  0
   37.8850   27.6040   36.0810 H   0  0  0  0  0  0  0  0  0  0  0  0
   39.3360   26.8470   36.7290 H   0  0  0  0  0  0  0  0  0  0  0  0
   39.2730   26.9220   34.6400 C   0  0  0  0  0  0  0  0  0  0  0  0
   40.6520   26.9370   34.5280 C   0  0  0  0  0  0  0  0  0  0  0  0
   41.2030   27.1270   33.2340 C   0  0  0  0  0  0  0  0  0  0  0  0
   40.3420   27.2830   32.1750 N   0  0  0  0  0  0  0  0  0  0  0  0
   38.9900   27.2590   32.3410 C   0  0  0  0  0  0  0  0  0  0  0  0
   38.4710   27.0780   33.5750 N   0  0  0  0  0  0  0  0  0  0  0  0
   41.2700   26.8080   35.4050 H   0  0  0  0  0  0  0  0  0  0  0  0
   42.2640   27.1430   33.1160 H   0  0  0  0  0  0  0  0  0  0  0  0
   38.3760   27.3880   31.4680 H   0  0  0  0  0  0  0  0  0  0  0  0
   37.9280   25.4060   36.0890 C   0  0  0  0  0  0  0  0  0  0  0  0
   36.8300   25.5310   36.0240 H   0  0  0  0  0  0  0  0  0  0  0  0
   38.2750   24.6520   35.3390 H   0  0  0  0  0  0  0  0  0  0  0  0
   38.2120   24.9480   37.3800 O   0  0  0  0  0  0  0  0  0  0  0  0
   37.1030   22.6640   36.8030 O   0  0  0  0  0  0  0  0  0  0  0  0
   38.3490   23.2770   37.4470 P   0  0  2  0  0  0  0  0  0  0  0  0
   38.3880   22.6950   39.0050 O   0  0  0  0  0  0  0  0  0  0  0  0
   39.2190   22.9470   39.4760 H   0  0  0  0  0  0  0  0  0  0  0  0
   39.7270   22.7530   36.6180 O   0  0  0  0  0  0  0  0  0  0  0  0
   40.8170   22.6220   37.4310 C   0  0  0  0  0  2  0  0  0  0  0  0
   41.5990   21.3810   36.9800 C   0  0  0  0  0  2  0  0  0  0  0  0
   42.2410   21.6090   36.1070 H   0  0  0  0  0  0  0  0  0  0  0  0
  1  2  1  0  0  0  0
  1 13  1  0  0  0  0
  1  3  1  0  0  0  0
  4  1  1  0  0  0  0
  5  4  1  0  0  0  0
  5 10  1  0  0  0  0
  6  5  2  0  0  0  0
  7  8  2  0  0  0  0
  7  6  1  0  0  0  0
  8  9  1  0  0  0  0
  9  4  2  0  0  0  0
 11  6  1  0  0  0  0
 12  8  1  0  0  0  0
 13 16  1  0  0  0  0
 14 13  1  0  0  0  0
 15 13  1  0  0  0  0
 16 18  1  0  0  0  0
 18 17  2  6  0  0  0
 18 19  1  0  0  0  0
 19 20  1  0  0  0  0
 21 22  1  0  0  0  0
 21 18  1  0  0  0  0
 23 22  1  0  0  0  0
 24 23  1  0  0  0  0
M  END
>  <minimizedAffinity>
-3.9910593

$$$$

 OpenBabel03262521483D

 24 24  0  0  0  0  0  0  0  0999 V2000
   38.1510   25.6010   36.5200 C   0  0  0  0  0  0  0  0  0  0  0  0
   37.8140   26.3820   37.2550 H   0  0  0  0  0  0  0  0  0  0  0  0
   39.2640   25.6800   36.5450 H   0  0  0  0  0  0  0  0  0  0  0  0
   37.7100   25.9920   35.1800 C   0  0  0  0  0  0  0  0  0  0  0  0
   37.2160   27.2500   34.8870 C   0  0  0  0  0  0  0  0  0  0  0  0
   36.8210   27.5050   33.5480 C   0  0  0  0  0  0  0  0  0  0  0  0
   36.9530   26.4950   32.6260 N   0  0  0  0  0  0  0  0  0  0  0  0
   37.4470   25.2730   32.9680 C   0  0  0  0  0  0  0  0  0  0  0  0
   37.8210   25.0360   34.2450 N   0  0  0  0  0  0  0  0  0  0  0  0
   37.1400   27.9980   35.6630 H   0  0  0  0  0  0  0  0  0  0  0  0
   36.4360   28.4680   33.2910 H   0  0  0  0  0  0  0  0  0  0  0  0
   37.5220   24.5290   32.1960 H   0  0  0  0  0  0  0  0  0  0  0  0
   37.7920   24.2100   36.9190 C   0  0  0  0  0  0  0  0  0  0  0  0
   36.8720   24.2360   37.5330 H   0  0  0  0  0  0  0  0  0  0  0  0
   37.6520   23.5290   36.0430 H   0  0  0  0  0  0  0  0  0  0  0  0
   38.8150   23.7150   37.7370 O   0  0  0  0  0  0  0  0  0  0  0  0
   39.0700   21.9260   35.8620 O   0  0  0  0  0  0  0  0  0  0  0  0
   39.8720   22.7170   36.9000 P   0  0  2  0  0  0  0  0  0  0  0  0
   40.5950   21.5800   37.8770 O   0  0  0  0  0  0  0  0  0  0  0  0
   41.2260   21.9880   38.5180 H   0  0  0  0  0  0  0  0  0  0  0  0
   41.0650   23.6240   36.1180 O   0  0  0  0  0  0  0  0  0  0  0  0
   42.2210   22.9220   35.9230 C   0  0  0  0  0  2  0  0  0  0  0  0
   43.3740   23.7300   36.5330 C   0  0  0  0  0  2  0  0  0  0  0  0
   43.4330   23.5790   37.6290 H   0  0  0  0  0  0  0  0  0  0  0  0
  1  3  1  0  0  0  0
  1 13  1  0  0  0  0
  1  2  1  0  0  0  0
  4  1  1  0  0  0  0
  5  4  1  0  0  0  0
  5 10  1  0  0  0  0
  6  5  2  0  0  0  0
  7  8  2  0  0  0  0
  7  6  1  0  0  0  0
  8  9  1  0  0  0  0
  9  4  2  0  0  0  0
 11  6  1  0  0  0  0
 12  8  1  0  0  0  0
 13 14  1  0  0  0  0
 13 16  1  0  0  0  0
 15 13  1  0  0  0  0
 18 17  2  6  0  0  0
 18 16  1  0  0  0  0
 18 19  1  0  0  0  0
 19 20  1  0  0  0  0
 21 18  1  0  0  0  0
 22 21  1  0  0  0  0
 22 23  1  0  0  0  0
 23 24  1  0  0  0  0
M  END
>  <minimizedAffinity>
-3.87168431

$$$$

 OpenBabel03262521483D

 24 24  0  0  0  0  0  0  0  0999 V2000
   38.8530   26.4910   35.6770 C   0  0  0  0  0  0  0  0  0  0  0  0
   39.1020   27.3070   36.4090 H   0  0  0  0  0  0  0  0  0  0  0  0
   39.8540   26.1340   35.3340 H   0  0  0  0  0  0  0  0  0  0  0  0
   38.1750   27.0830   34.5220 C   0  0  0  0  0  0  0  0  0  0  0  0
   38.6830   27.0190   33.2370 C   0  0  0  0  0  0  0  0  0  0  0  0
   37.9310   27.6330   32.2030 C   0  0  0  0  0  0  0  0  0  0  0  0
   36.7490   28.2490   32.5340 N   0  0  0  0  0  0  0  0  0  0  0  0
   36.2930   28.2820   33.8170 C   0  0  0  0  0  0  0  0  0  0  0  0
   37.0140   27.6960   34.7980 N   0  0  0  0  0  0  0  0  0  0  0  0
   39.6210   26.5170   33.0480 H   0  0  0  0  0  0  0  0  0  0  0  0
   38.2970   27.6000   31.2000 H   0  0  0  0  0  0  0  0  0  0  0  0
   35.3600   28.7830   34.0040 H   0  0  0  0  0  0  0  0  0  0  0  0
   38.1500   25.3300   36.2910 C   0  0  0  0  0  0  0  0  0  0  0  0
   38.7130   24.9980   37.1850 H   0  0  0  0  0  0  0  0  0  0  0  0
   37.0900   25.5590   36.5670 H   0  0  0  0  0  0  0  0  0  0  0  0
   38.1770   24.2710   35.3760 O   0  0  0  0  0  0  0  0  0  0  0  0
   37.3160   21.8130   35.3820 O   0  0  0  0  0  0  0  0  0  0  0  0
   38.2400   22.7760   36.1340 P   0  0  2  0  0  0  0  0  0  0  0  0
   37.6720   22.8210   37.6970 O   0  0  0  0  0  0  0  0  0  0  0  0
   38.2680   23.3340   38.2950 H   0  0  0  0  0  0  0  0  0  0  0  0
   39.8160   22.1630   36.1270 O   0  0  0  0  0  0  0  0  0  0  0  0
   40.4600   22.3470   37.3180 C   0  0  0  0  0  2  0  0  0  0  0  0
   41.6680   21.4010   37.3540 C   0  0  0  0  0  2  0  0  0  0  0  0
   42.5240   21.8230   36.7920 H   0  0  0  0  0  0  0  0  0  0  0  0
  1 13  1  0  0  0  0
  1  2  1  0  0  0  0
  3  1  1  0  0  0  0
  4  9  1  0  0  0  0
  4  1  1  0  0  0  0
  5  4  2  0  0  0  0
  6  7  2  0  0  0  0
  6  5  1  0  0  0  0
  7  8  1  0  0  0  0
  8 12  1  0  0  0  0
  8  9  2  0  0  0  0
 10  5  1  0  0  0  0
 11  6  1  0  0  0  0
 13 15  1  0  0  0  0
 13 14  1  0  0  0  0
 16 18  1  0  0  0  0
 16 13  1  0  0  0  0
 18 17  2  6  0  0  0
 18 19  1  0  0  0  0
 19 20  1  0  0  0  0
 21 18  1  0  0  0  0
 21 22  1  0  0  0  0
 22 23  1  0  0  0  0
 24 23  1  0  0  0  0
M  END
>  <minimizedAffinity>
-3.81516051

$$$$

 OpenBabel03262521483D

 24 24  0  0  0  0  0  0  0  0999 V2000
   39.3490   23.1160   37.3750 C   0  0  0  0  0  0  0  0  0  0  0  0
   39.4430   23.6960   38.3330 H   0  0  0  0  0  0  0  0  0  0  0  0
   38.7620   22.2140   37.6730 H   0  0  0  0  0  0  0  0  0  0  0  0
   40.6790   22.6610   36.9640 C   0  0  0  0  0  0  0  0  0  0  0  0
   41.4520   23.3360   36.0360 C   0  0  0  0  0  0  0  0  0  0  0  0
   42.7240   22.7920   35.7230 C   0  0  0  0  0  0  0  0  0  0  0  0
   43.1130   21.6360   36.3540 N   0  0  0  0  0  0  0  0  0  0  0  0
   42.3120   21.0120   37.2620 C   0  0  0  0  0  0  0  0  0  0  0  0
   41.1010   21.5340   37.5560 N   0  0  0  0  0  0  0  0  0  0  0  0
   41.0830   24.2420   35.5770 H   0  0  0  0  0  0  0  0  0  0  0  0
   43.3440   23.2910   35.0100 H   0  0  0  0  0  0  0  0  0  0  0  0
   42.6800   20.1100   37.7170 H   0  0  0  0  0  0  0  0  0  0  0  0
   38.5730   23.8250   36.3180 C   0  0  0  0  0  0  0  0  0  0  0  0
   39.2430   24.0470   35.4660 H   0  0  0  0  0  0  0  0  0  0  0  0
   37.6830   23.2450   35.9690 H   0  0  0  0  0  0  0  0  0  0  0  0
   38.1540   25.0550   36.8390 O   0  0  0  0  0  0  0  0  0  0  0  0
   39.4420   25.9460   34.7590 O   0  0  0  0  0  0  0  0  0  0  0  0
   38.3130   26.3030   35.7300 P   0  0  2  0  0  0  0  0  0  0  0  0
   38.7610   27.7410   36.4370 O   0  0  0  0  0  0  0  0  0  0  0  0
   38.0440   28.1160   37.0050 H   0  0  0  0  0  0  0  0  0  0  0  0
   36.8770   26.5270   34.8650 O   0  0  0  0  0  0  0  0  0  0  0  0
   36.6810   27.8270   34.4910 C   0  0  0  0  0  2  0  0  0  0  0  0
   36.8420   27.9090   32.9670 C   0  0  0  0  0  2  0  0  0  0  0  0
   35.9160   27.5910   32.4490 H   0  0  0  0  0  0  0  0  0  0  0  0
  1  3  1  0  0  0  0
  1  2  1  0  0  0  0
  4  1  1  0  0  0  0
  4  9  1  0  0  0  0
  5  4  2  0  0  0  0
  6  5  1  0  0  0  0
  6  7  2  0  0  0  0
  7  8  1  0  0  0  0
  8  9  2  0  0  0  0
  8 12  1  0  0  0  0
 10  5  1  0  0  0  0
 11  6  1  0  0  0  0
 13 16  1  0  0  0  0
 13  1  1  0  0  0  0
 14 13  1  0  0  0  0
 15 13  1  0  0  0  0
 18 17  2  6  0  0  0
 18 19  1  0  0  0  0
 18 16  1  0  0  0  0
 19 20  1  0  0  0  0
 21 18  1  0  0  0  0
 22 21  1  0  0  0  0
 23 22  1  0  0  0  0
 24 23  1  0  0  0  0
M  END
>  <minimizedAffinity>
-3.81422138

$$$$

 OpenBabel03262521483D

 24 24  0  0  0  0  0  0  0  0999 V2000
   37.1690   22.4770   32.6820 C   0  0  0  0  0  0  0  0  0  0  0  0
   37.4330   21.8400   31.7940 H   0  0  0  0  0  0  0  0  0  0  0  0
   36.3350   21.9150   33.1670 H   0  0  0  0  0  0  0  0  0  0  0  0
   36.6250   23.7500   32.2060 C   0  0  0  0  0  0  0  0  0  0  0  0
   35.5900   23.8320   31.2910 C   0  0  0  0  0  0  0  0  0  0  0  0
   35.1530   25.1260   30.9080 C   0  0  0  0  0  0  0  0  0  0  0  0
   35.7770   26.2160   31.4650 N   0  0  0  0  0  0  0  0  0  0  0  0
   36.7920   26.0790   32.3630 C   0  0  0  0  0  0  0  0  0  0  0  0
   37.2040   24.8440   32.7230 N   0  0  0  0  0  0  0  0  0  0  0  0
   35.1450   22.9320   30.8930 H   0  0  0  0  0  0  0  0  0  0  0  0
   34.3560   25.2210   30.2040 H   0  0  0  0  0  0  0  0  0  0  0  0
   37.2350   26.9760   32.7580 H   0  0  0  0  0  0  0  0  0  0  0  0
   38.2680   22.5980   33.6810 C   0  0  0  0  0  0  0  0  0  0  0  0
   39.0770   21.8910   33.4150 H   0  0  0  0  0  0  0  0  0  0  0  0
   38.6740   23.6380   33.7570 H   0  0  0  0  0  0  0  0  0  0  0  0
   37.7690   22.1980   34.9270 O   0  0  0  0  0  0  0  0  0  0  0  0
   39.9170   22.0610   36.3930 O   0  0  0  0  0  0  0  0  0  0  0  0
   38.6300   22.8680   36.2010 P   0  0  2  0  0  0  0  0  0  0  0  0
   37.8150   22.7730   37.6490 O   0  0  0  0  0  0  0  0  0  0  0  0
   37.0180   23.3550   37.6660 H   0  0  0  0  0  0  0  0  0  0  0  0
   39.0210   24.4820   35.8820 O   0  0  0  0  0  0  0  0  0  0  0  0
   38.0460   25.3520   36.2820 C   0  0  0  0  0  2  0  0  0  0  0  0
   38.5040   26.7720   35.9280 C   0  0  0  0  0  2  0  0  0  0  0  0
   38.3120   27.0020   34.8620 H   0  0  0  0  0  0  0  0  0  0  0  0
  1  3  1  0  0  0  0
  1 13  1  0  0  0  0
  2  1  1  0  0  0  0
  4  1  1  0  0  0  0
  4  9  1  0  0  0  0
  5  4  2  0  0  0  0
  6  5  1  0  0  0  0
  6  7  2  0  0  0  0
  7  8  1  0  0  0  0
  8  9  2  0  0  0  0
  8 12  1  0  0  0  0
 10  5  1  0  0  0  0
 11  6  1  0  0  0  0
 13 15  1  0  0  0  0
 13 16  1  0  0  0  0
 14 13  1  0  0  0  0
 16 18  1  0  0  0  0
 18 17  2  1  0  0  0
 18 19  1  0  0  0  0
 19 20  1  0  0  0  0
 21 18  1  0  0  0  0
 21 22  1  0  0  0  0
 23 22  1  0  0  0  0
 24 23  1  0  0  0  0
M  END
>  <minimizedAffinity>
-3.69642591

$$$$

 OpenBabel03262521483D

 24 24  0  0  0  0  0  0  0  0999 V2000
   38.7700   26.8550   35.7750 C   0  0  0  0  0  0  0  0  0  0  0  0
   38.5320   27.7550   36.4050 H   0  0  0  0  0  0  0  0  0  0  0  0
   39.8830   26.7830   35.8300 H   0  0  0  0  0  0  0  0  0  0  0  0
   38.4150   27.1440   34.3840 C   0  0  0  0  0  0  0  0  0  0  0  0
   39.2970   26.9770   33.3310 C   0  0  0  0  0  0  0  0  0  0  0  0
   38.8320   27.2940   32.0290 C   0  0  0  0  0  0  0  0  0  0  0  0
   37.5420   27.7440   31.8890 N   0  0  0  0  0  0  0  0  0  0  0  0
   36.7130   27.8900   32.9610 C   0  0  0  0  0  0  0  0  0  0  0  0
   37.1620   27.5870   34.1980 N   0  0  0  0  0  0  0  0  0  0  0  0
   40.2990   26.6180   33.5140 H   0  0  0  0  0  0  0  0  0  0  0  0
   39.4900   27.1740   31.1960 H   0  0  0  0  0  0  0  0  0  0  0  0
   35.7160   28.2480   32.7780 H   0  0  0  0  0  0  0  0  0  0  0  0
   38.2120   25.5820   36.3140 C   0  0  0  0  0  0  0  0  0  0  0  0
   37.9760   25.7170   37.3860 H   0  0  0  0  0  0  0  0  0  0  0  0
   37.3040   25.2370   35.7600 H   0  0  0  0  0  0  0  0  0  0  0  0
   39.2090   24.6030   36.2350 O   0  0  0  0  0  0  0  0  0  0  0  0
   37.2020   23.2340   37.1730 O   0  0  0  0  0  0  0  0  0  0  0  0
   38.6660   23.1000   36.7440 P   0  0  2  0  0  0  0  0  0  0  0  0
   39.4800   22.5390   38.0820 O   0  0  0  0  0  0  0  0  0  0  0  0
   40.4200   22.3130   37.8780 H   0  0  0  0  0  0  0  0  0  0  0  0
   38.7840   21.9620   35.4980 O   0  0  0  0  0  0  0  0  0  0  0  0
   38.2420   22.4040   34.3240 C   0  0  0  0  0  2  0  0  0  0  0  0
   37.0390   21.5110   33.9920 C   0  0  0  0  0  2  0  0  0  0  0  0
   36.1400   21.8230   34.5580 H   0  0  0  0  0  0  0  0  0  0  0  0
  1  3  1  0  0  0  0
  1 13  1  0  0  0  0
  1  2  1  0  0  0  0
  4  1  1  0  0  0  0
  5 10  1  0  0  0  0
  5  4  2  0  0  0  0
  6  5  1  0  0  0  0
  7  6  2  0  0  0  0
  7  8  1  0  0  0  0
  8  9  2  0  0  0  0
  9  4  1  0  0  0  0
 11  6  1  0  0  0  0
 12  8  1  0  0  0  0
 13 14  1  0  0  0  0
 15 13  1  0  0  0  0
 16 13  1  0  0  0  0
 16 18  1  0  0  0  0
 18 17  2  1  0  0  0
 18 19  1  0  0  0  0
 20 19  1  0  0  0  0
 21 18  1  0  0  0  0
 22 21  1  0  0  0  0
 23 22  1  0  0  0  0
 23 24  1  0  0  0  0
M  END
>  <minimizedAffinity>
-3.66971564

$$$$

 OpenBabel03262521483D

 24 24  0  0  0  0  0  0  0  0999 V2000
   38.7930   25.6260   34.0840 C   0  0  0  0  0  0  0  0  0  0  0  0
   39.8990   25.8090   34.1720 H   0  0  0  0  0  0  0  0  0  0  0  0
   38.3450   26.6250   34.3040 H   0  0  0  0  0  0  0  0  0  0  0  0
   38.3790   24.7120   35.1500 C   0  0  0  0  0  0  0  0  0  0  0  0
   38.0870   25.1360   36.4340 C   0  0  0  0  0  0  0  0  0  0  0  0
   37.6970   24.1500   37.3770 C   0  0  0  0  0  0  0  0  0  0  0  0
   37.6330   22.8420   36.9650 N   0  0  0  0  0  0  0  0  0  0  0  0
   37.9310   22.4780   35.6860 C   0  0  0  0  0  0  0  0  0  0  0  0
   38.3010   23.4210   34.7930 N   0  0  0  0  0  0  0  0  0  0  0  0
   38.1590   26.1830   36.6900 H   0  0  0  0  0  0  0  0  0  0  0  0
   37.4650   24.4470   38.3770 H   0  0  0  0  0  0  0  0  0  0  0  0
   37.8600   21.4360   35.4320 H   0  0  0  0  0  0  0  0  0  0  0  0
   38.3580   25.2320   32.7140 C   0  0  0  0  0  0  0  0  0  0  0  0
   38.8540   25.8900   31.9750 H   0  0  0  0  0  0  0  0  0  0  0  0
   38.5730   24.1600   32.4820 H   0  0  0  0  0  0  0  0  0  0  0  0
   36.9820   25.4670   32.6110 O   0  0  0  0  0  0  0  0  0  0  0  0
   37.4390   24.2000   30.3820 O   0  0  0  0  0  0  0  0  0  0  0  0
   36.3050   24.7020   31.2800 P   0  0  2  0  0  0  0  0  0  0  0  0
   35.4010   25.7320   30.3360 O   0  0  0  0  0  0  0  0  0  0  0  0
   34.5760   26.0280   30.7920 H   0  0  0  0  0  0  0  0  0  0  0  0
   35.3460   23.3950   31.7600 O   0  0  0  0  0  0  0  0  0  0  0  0
   36.0810   22.2900   32.0840 C   0  0  0  0  0  2  0  0  0  0  0  0
   35.4320   21.0740   31.4090 C   0  0  0  0  0  2  0  0  0  0  0  0
   35.7320   20.9980   30.3460 H   0  0  0  0  0  0  0  0  0  0  0  0
  1  2  1  0  0  0  0
  1  3  1  0  0  0  0
  1  4  1  0  0  0  0
  4  5  1  0  0  0  0
  5 10  1  0  0  0  0
  5  6  2  0  0  0  0
  6 11  1  0  0  0  0
  7  6  1  0  0  0  0
  8  7  2  0  0  0  0
  9  4  2  0  0  0  0
  9  8  1  0  0  0  0
 12  8  1  0  0  0  0
 13  1  1  0  0  0  0
 14 13  1  0  0  0  0
 15 13  1  0  0  0  0
 16 13  1  0  0  0  0
 18 17  2  6  0  0  0
 18 21  1  0  0  0  0
 18 16  1  0  0  0  0
 19 20  1  0  0  0  0
 19 18  1  0  0  0  0
 21 22  1  0  0  0  0
 23 22  1  0  0  0  0
 24 23  1  0  0  0  0
M  END
>  <minimizedAffinity>
-3.62308455

$$$$
