
 OpenBabel03272510103D

 22 23  0  0  0  0  0  0  0  0999 V2000
   37.6890   31.0880   47.8300 C   0  0  0  0  0  0  0  0  0  0  0  0
   38.7400   31.9670   47.6900 C   0  0  0  0  0  0  0  0  0  0  0  0
   39.0950   32.4910   46.4540 C   0  0  0  0  0  0  0  0  0  0  0  0
   38.4180   32.1590   45.3190 C   0  0  0  0  0  0  0  0  0  0  0  0
   37.3750   31.2790   45.5050 C   0  0  0  0  0  0  0  0  0  0  0  0
   37.0260   30.7680   46.7000 N   0  0  0  0  0  0  0  0  0  0  0  0
   39.3130   32.2650   48.5590 H   0  0  0  0  0  0  0  0  0  0  0  0
   39.9360   33.1900   46.3550 H   0  0  0  0  0  0  0  0  0  0  0  0
   36.7520   30.9310   44.6900 H   0  0  0  0  0  0  0  0  0  0  0  0
   37.9440   30.8260   50.3260 C   0  0  0  0  0  0  0  0  0  0  0  0
   37.2960   30.5240   49.1060 C   0  0  0  0  0  0  0  0  0  0  0  0
   36.2360   29.6450   49.1530 C   0  0  0  0  0  0  0  0  0  0  0  0
   35.8540   29.1070   50.3450 N   0  0  0  0  0  0  0  0  0  0  0  0
   36.5040   29.4240   51.4930 C   0  0  0  0  0  0  0  0  0  0  0  0
   37.5370   30.2750   51.4810 N   0  0  0  0  0  0  0  0  0  0  0  0
   38.7670   31.5230   50.2130 H   0  0  0  0  0  0  0  0  0  0  0  0
   35.6560   29.3330   48.2800 H   0  0  0  0  0  0  0  0  0  0  0  0
   36.2130   29.0050   52.4500 H   0  0  0  0  0  0  0  0  0  0  0  0
   38.6880   32.6220   44.0420 O   0  0  0  0  0  0  0  0  0  0  0  0
   39.9760   32.5330   43.4890 C   0  0  0  0  0  2  0  0  0  0  0  0
   40.2350   31.0860   43.1430 C   0  0  0  0  0  2  0  0  0  0  0  0
   39.6440   30.4530   43.8520 H   0  0  0  0  0  0  0  0  0  0  0  0
  1 11  1  0  0  0  0
  2  1  1  0  0  0  0
  2  7  1  0  0  0  0
  3  2  2  0  0  0  0
  4  5  2  0  0  0  0
  4  3  1  0  0  0  0
  5  6  1  0  0  0  0
  6  1  2  0  0  0  0
  8  3  1  0  0  0  0
  9  5  1  0  0  0  0
 10 15  1  0  0  0  0
 11 12  1  0  0  0  0
 11 10  2  0  0  0  0
 12 13  2  0  0  0  0
 13 14  1  0  0  0  0
 14 18  1  0  0  0  0
 15 14  2  0  0  0  0
 16 10  1  0  0  0  0
 17 12  1  0  0  0  0
 19  4  1  0  0  0  0
 20 19  1  0  0  0  0
 21 20  1  0  0  0  0
 21 22  1  0  0  0  0
M  END
>  <minimizedAffinity>
-4.63439226

>  <minimizedRMSD>
2.83824563

$$$$
