
 OpenBabel03272507383D

 17 17  0  0  0  0  0  0  0  0999 V2000
   39.7730   23.9360   35.7420 C   0  0  0  0  0  0  0  0  0  0  0  0
   39.5160   23.0500   36.7960 C   0  0  0  0  0  0  0  0  0  0  0  0
   40.5750   22.3730   37.4030 C   0  0  0  0  0  0  0  0  0  0  0  0
   41.8310   22.6220   36.9170 N   0  0  0  0  0  0  0  0  0  0  0  0
   42.0540   23.4750   35.9060 C   0  0  0  0  0  0  0  0  0  0  0  0
   41.0510   24.1220   35.3250 N   0  0  0  0  0  0  0  0  0  0  0  0
   40.4290   21.6790   38.2210 H   0  0  0  0  0  0  0  0  0  0  0  0
   43.0430   23.6790   35.5150 H   0  0  0  0  0  0  0  0  0  0  0  0
   37.7130   23.6330   38.3180 C   0  0  0  0  0  0  0  0  0  0  0  0
   38.1080   24.6890   38.9500 O   0  0  0  0  0  0  0  0  0  0  0  0
   38.2580   22.7630   37.3260 N   0  0  0  0  0  0  0  0  0  0  0  0
   36.7570   23.6250   38.8330 H   0  0  0  0  0  0  0  0  0  0  0  0
   37.5520   22.0110   37.1680 H   0  0  0  0  0  0  0  0  0  0  0  0
   38.6300   24.5170   35.2590 O   0  0  0  0  0  0  0  0  0  0  0  0
   38.6610   25.8710   34.8550 C   0  0  0  0  0  2  0  0  0  0  0  0
   38.4200   26.7500   36.0590 C   0  0  0  0  0  2  0  0  0  0  0  0
   39.0900   27.6460   36.0640 H   0  0  0  0  0  0  0  0  0  0  0  0
  1  2  1  0  0  0  0
  2 11  1  0  0  0  0
  2  3  2  0  0  0  0
  3  7  1  0  0  0  0
  4  3  1  0  0  0  0
  5  4  2  0  0  0  0
  6  1  2  0  0  0  0
  6  5  1  0  0  0  0
  8  5  1  0  0  0  0
  9 12  1  0  0  0  0
  9 10  2  0  0  0  0
 11  9  1  0  0  0  0
 13 11  1  0  0  0  0
 14  1  1  0  0  0  0
 15 14  1  0  0  0  0
 15 16  1  0  0  0  0
 16 17  1  0  0  0  0
M  END
>  <minimizedAffinity>
-3.56325936

$$$$

 OpenBabel03272507383D

 17 17  0  0  0  0  0  0  0  0999 V2000
   38.9480   25.1250   35.7020 C   0  0  0  0  0  0  0  0  0  0  0  0
   39.2970   26.4670   35.5020 C   0  0  0  0  0  0  0  0  0  0  0  0
   40.4230   26.7820   34.7400 C   0  0  0  0  0  0  0  0  0  0  0  0
   41.1350   25.7330   34.2210 N   0  0  0  0  0  0  0  0  0  0  0  0
   40.7820   24.4540   34.4260 C   0  0  0  0  0  0  0  0  0  0  0  0
   39.7130   24.1490   35.1490 N   0  0  0  0  0  0  0  0  0  0  0  0
   40.7340   27.8020   34.5550 H   0  0  0  0  0  0  0  0  0  0  0  0
   41.3390   23.6190   34.0200 H   0  0  0  0  0  0  0  0  0  0  0  0
   37.4680   28.0540   35.2940 C   0  0  0  0  0  0  0  0  0  0  0  0
   36.8620   27.7560   34.1910 O   0  0  0  0  0  0  0  0  0  0  0  0
   38.6060   27.5680   36.0060 N   0  0  0  0  0  0  0  0  0  0  0  0
   36.7720   28.8570   35.5140 H   0  0  0  0  0  0  0  0  0  0  0  0
   38.7160   28.1790   36.8450 H   0  0  0  0  0  0  0  0  0  0  0  0
   37.8220   24.9880   36.4690 O   0  0  0  0  0  0  0  0  0  0  0  0
   37.6060   23.7780   37.1670 C   0  0  0  0  0  2  0  0  0  0  0  0
   38.2730   23.8640   38.5200 C   0  0  0  0  0  2  0  0  0  0  0  0
   37.6360   23.4260   39.3300 H   0  0  0  0  0  0  0  0  0  0  0  0
  1 14  1  0  0  0  0
  2  1  1  0  0  0  0
  2 11  1  0  0  0  0
  3  2  2  0  0  0  0
  4  5  2  0  0  0  0
  4  3  1  0  0  0  0
  5  6  1  0  0  0  0
  6  1  2  0  0  0  0
  7  3  1  0  0  0  0
  8  5  1  0  0  0  0
  9 12  1  0  0  0  0
  9 11  1  0  0  0  0
 10  9  2  0  0  0  0
 11 13  1  0  0  0  0
 14 15  1  0  0  0  0
 15 16  1  0  0  0  0
 16 17  1  0  0  0  0
M  END
>  <minimizedAffinity>
-3.38207531

$$$$

 OpenBabel03272507383D

 17 17  0  0  0  0  0  0  0  0999 V2000
   39.8310   24.5260   35.4620 C   0  0  0  0  0  0  0  0  0  0  0  0
   38.5970   24.8620   36.0340 C   0  0  0  0  0  0  0  0  0  0  0  0
   38.1660   26.1890   36.0150 C   0  0  0  0  0  0  0  0  0  0  0  0
   38.9960   27.1040   35.4230 N   0  0  0  0  0  0  0  0  0  0  0  0
   40.1740   26.7590   34.8810 C   0  0  0  0  0  0  0  0  0  0  0  0
   40.5890   25.5000   34.8970 N   0  0  0  0  0  0  0  0  0  0  0  0
   37.2200   26.5010   36.4430 H   0  0  0  0  0  0  0  0  0  0  0  0
   40.8370   27.4750   34.4120 H   0  0  0  0  0  0  0  0  0  0  0  0
   37.7750   23.8080   38.0640 C   0  0  0  0  0  0  0  0  0  0  0  0
   38.5050   24.2710   39.0260 O   0  0  0  0  0  0  0  0  0  0  0  0
   37.7180   23.9700   36.6470 N   0  0  0  0  0  0  0  0  0  0  0  0
   37.1770   23.2090   38.7440 H   0  0  0  0  0  0  0  0  0  0  0  0
   36.9620   23.3370   36.3050 H   0  0  0  0  0  0  0  0  0  0  0  0
   40.1060   23.1880   35.5650 O   0  0  0  0  0  0  0  0  0  0  0  0
   41.2770   22.7740   36.2380 C   0  0  0  0  0  2  0  0  0  0  0  0
   40.8890   21.9240   37.4250 C   0  0  0  0  0  2  0  0  0  0  0  0
   41.5600   21.0360   37.5410 H   0  0  0  0  0  0  0  0  0  0  0  0
  1 14  1  0  0  0  0
  1  2  1  0  0  0  0
  2 11  1  0  0  0  0
  3  2  2  0  0  0  0
  3  7  1  0  0  0  0
  4  3  1  0  0  0  0
  5  6  1  0  0  0  0
  5  4  2  0  0  0  0
  6  1  2  0  0  0  0
  8  5  1  0  0  0  0
  9 12  1  0  0  0  0
  9 10  2  0  0  0  0
 11  9  1  0  0  0  0
 13 11  1  0  0  0  0
 14 15  1  0  0  0  0
 15 16  1  0  0  0  0
 16 17  1  0  0  0  0
M  END
>  <minimizedAffinity>
-3.36187816

$$$$

 OpenBabel03272507383D

 17 17  0  0  0  0  0  0  0  0999 V2000
   40.5090   23.0870   35.7640 C   0  0  0  0  0  0  0  0  0  0  0  0
   39.4500   22.6140   36.5500 C   0  0  0  0  0  0  0  0  0  0  0  0
   38.2630   22.2100   35.9380 C   0  0  0  0  0  0  0  0  0  0  0  0
   38.2050   22.3030   34.5720 N   0  0  0  0  0  0  0  0  0  0  0  0
   39.2320   22.7600   33.8400 C   0  0  0  0  0  0  0  0  0  0  0  0
   40.3630   23.1450   34.4160 N   0  0  0  0  0  0  0  0  0  0  0  0
   37.4160   21.8370   36.5000 H   0  0  0  0  0  0  0  0  0  0  0  0
   39.1950   22.8370   32.7600 H   0  0  0  0  0  0  0  0  0  0  0  0
   38.7460   23.4620   38.7160 C   0  0  0  0  0  0  0  0  0  0  0  0
   38.0590   24.5300   38.4730 O   0  0  0  0  0  0  0  0  0  0  0  0
   39.4600   22.5000   37.9400 N   0  0  0  0  0  0  0  0  0  0  0  0
   38.5900   23.5480   39.7870 H   0  0  0  0  0  0  0  0  0  0  0  0
   39.8920   21.8330   38.6160 H   0  0  0  0  0  0  0  0  0  0  0  0
   41.5980   23.4420   36.5160 O   0  0  0  0  0  0  0  0  0  0  0  0
   42.8600   22.8840   36.2080 C   0  0  0  0  0  2  0  0  0  0  0  0
   43.9420   23.8280   36.6770 C   0  0  0  0  0  2  0  0  0  0  0  0
   44.7950   23.2830   37.1540 H   0  0  0  0  0  0  0  0  0  0  0  0
  1 14  1  0  0  0  0
  1  2  1  0  0  0  0
  2 11  1  0  0  0  0
  3  7  1  0  0  0  0
  3  2  2  0  0  0  0
  4  3  1  0  0  0  0
  5  6  1  0  0  0  0
  5  4  2  0  0  0  0
  6  1  2  0  0  0  0
  8  5  1  0  0  0  0
  9 12  1  0  0  0  0
 10  9  2  0  0  0  0
 11 13  1  0  0  0  0
 11  9  1  0  0  0  0
 15 14  1  0  0  0  0
 15 16  1  0  0  0  0
 16 17  1  0  0  0  0
M  END
>  <minimizedAffinity>
-3.34159589

$$$$

 OpenBabel03272507383D

 17 17  0  0  0  0  0  0  0  0999 V2000
   38.4010   24.4000   36.1070 C   0  0  0  0  0  0  0  0  0  0  0  0
   39.5910   23.7440   35.7690 C   0  0  0  0  0  0  0  0  0  0  0  0
   40.2400   22.9550   36.7200 C   0  0  0  0  0  0  0  0  0  0  0  0
   39.6570   22.8680   37.9570 N   0  0  0  0  0  0  0  0  0  0  0  0
   38.5160   23.5050   38.2590 C   0  0  0  0  0  0  0  0  0  0  0  0
   37.8950   24.2570   37.3590 N   0  0  0  0  0  0  0  0  0  0  0  0
   41.1620   22.4270   36.5080 H   0  0  0  0  0  0  0  0  0  0  0  0
   38.0480   23.4430   39.2330 H   0  0  0  0  0  0  0  0  0  0  0  0
   41.2590   24.7600   34.3220 C   0  0  0  0  0  0  0  0  0  0  0  0
   41.8040   25.7040   35.0160 O   0  0  0  0  0  0  0  0  0  0  0  0
   40.2230   23.7990   34.5270 N   0  0  0  0  0  0  0  0  0  0  0  0
   41.8990   24.9550   33.4670 H   0  0  0  0  0  0  0  0  0  0  0  0
   40.1240   23.2730   33.6310 H   0  0  0  0  0  0  0  0  0  0  0  0
   37.8940   25.1300   35.0650 O   0  0  0  0  0  0  0  0  0  0  0  0
   37.4600   26.4550   35.2980 C   0  0  0  0  0  2  0  0  0  0  0  0
   38.6590   27.3170   35.6170 C   0  0  0  0  0  2  0  0  0  0  0  0
   38.6000   28.3170   35.1170 H   0  0  0  0  0  0  0  0  0  0  0  0
  1  6  1  0  0  0  0
  2  1  2  0  0  0  0
  2  3  1  0  0  0  0
  3  4  2  0  0  0  0
  4  5  1  0  0  0  0
  5  8  1  0  0  0  0
  6  5  2  0  0  0  0
  7  3  1  0  0  0  0
  9 11  1  0  0  0  0
  9 10  2  0  0  0  0
 11  2  1  0  0  0  0
 12  9  1  0  0  0  0
 13 11  1  0  0  0  0
 14 15  1  0  0  0  0
 14  1  1  0  0  0  0
 15 16  1  0  0  0  0
 17 16  1  0  0  0  0
M  END
>  <minimizedAffinity>
-3.32614398

$$$$

 OpenBabel03272507383D

 17 17  0  0  0  0  0  0  0  0999 V2000
   39.5810   23.5320   35.5420 C   0  0  0  0  0  0  0  0  0  0  0  0
   39.4750   22.9030   36.7890 C   0  0  0  0  0  0  0  0  0  0  0  0
   40.6320   22.5420   37.4810 C   0  0  0  0  0  0  0  0  0  0  0  0
   41.8300   22.8320   36.8830 N   0  0  0  0  0  0  0  0  0  0  0  0
   41.9070   23.4350   35.6870 C   0  0  0  0  0  0  0  0  0  0  0  0
   40.8110   23.7810   35.0250 N   0  0  0  0  0  0  0  0  0  0  0  0
   40.6040   22.0540   38.4480 H   0  0  0  0  0  0  0  0  0  0  0  0
   42.8490   23.6680   35.2070 H   0  0  0  0  0  0  0  0  0  0  0  0
   37.7290   23.5270   38.3610 C   0  0  0  0  0  0  0  0  0  0  0  0
   38.0730   24.6800   38.8340 O   0  0  0  0  0  0  0  0  0  0  0  0
   38.2820   22.5880   37.4400 N   0  0  0  0  0  0  0  0  0  0  0  0
   36.8130   23.5100   38.9420 H   0  0  0  0  0  0  0  0  0  0  0  0
   37.6340   21.7700   37.4220 H   0  0  0  0  0  0  0  0  0  0  0  0
   38.3570   23.8190   34.9980 O   0  0  0  0  0  0  0  0  0  0  0  0
   38.0590   23.3660   33.6930 C   0  0  0  0  0  2  0  0  0  0  0  0
   37.5210   21.9570   33.7720 C   0  0  0  0  0  2  0  0  0  0  0  0
   36.6560   21.8000   33.0790 H   0  0  0  0  0  0  0  0  0  0  0  0
  1  2  1  0  0  0  0
  2 11  1  0  0  0  0
  2  3  2  0  0  0  0
  3  7  1  0  0  0  0
  4  3  1  0  0  0  0
  5  4  2  0  0  0  0
  6  1  2  0  0  0  0
  6  5  1  0  0  0  0
  8  5  1  0  0  0  0
  9 10  2  0  0  0  0
  9 12  1  0  0  0  0
 11  9  1  0  0  0  0
 13 11  1  0  0  0  0
 14  1  1  0  0  0  0
 15 16  1  0  0  0  0
 15 14  1  0  0  0  0
 17 16  1  0  0  0  0
M  END
>  <minimizedAffinity>
-3.2924552

$$$$

 OpenBabel03272507383D

 17 17  0  0  0  0  0  0  0  0999 V2000
   38.5440   24.8430   36.0260 C   0  0  0  0  0  0  0  0  0  0  0  0
   39.6700   24.5520   35.2450 C   0  0  0  0  0  0  0  0  0  0  0  0
   40.4220   25.5950   34.7010 C   0  0  0  0  0  0  0  0  0  0  0  0
   40.0030   26.8700   34.9720 N   0  0  0  0  0  0  0  0  0  0  0  0
   38.9210   27.1250   35.7240 C   0  0  0  0  0  0  0  0  0  0  0  0
   38.2020   26.1390   36.2420 N   0  0  0  0  0  0  0  0  0  0  0  0
   41.3010   25.4230   34.0920 H   0  0  0  0  0  0  0  0  0  0  0  0
   38.5810   28.1300   35.9430 H   0  0  0  0  0  0  0  0  0  0  0  0
   41.1680   22.7060   35.7500 C   0  0  0  0  0  0  0  0  0  0  0  0
   41.8820   23.0920   36.7560 O   0  0  0  0  0  0  0  0  0  0  0  0
   40.1380   23.2740   34.9410 N   0  0  0  0  0  0  0  0  0  0  0  0
   41.6500   21.7330   35.7220 H   0  0  0  0  0  0  0  0  0  0  0  0
   39.9060   22.5640   34.2120 H   0  0  0  0  0  0  0  0  0  0  0  0
   37.9190   23.7120   36.4810 O   0  0  0  0  0  0  0  0  0  0  0  0
   37.5850   23.6130   37.8510 C   0  0  0  0  0  2  0  0  0  0  0  0
   38.8420   23.3570   38.6480 C   0  0  0  0  0  2  0  0  0  0  0  0
   38.8650   23.9500   39.5970 H   0  0  0  0  0  0  0  0  0  0  0  0
  1  6  1  0  0  0  0
  1 14  1  0  0  0  0
  2  1  2  0  0  0  0
  3  4  2  0  0  0  0
  3  2  1  0  0  0  0
  4  5  1  0  0  0  0
  5  8  1  0  0  0  0
  5  6  2  0  0  0  0
  7  3  1  0  0  0  0
  9 10  2  0  0  0  0
 11  2  1  0  0  0  0
 11  9  1  0  0  0  0
 12  9  1  0  0  0  0
 13 11  1  0  0  0  0
 14 15  1  0  0  0  0
 15 16  1  0  0  0  0
 16 17  1  0  0  0  0
M  END
>  <minimizedAffinity>
-3.25534534

$$$$

 OpenBabel03272507383D

 17 17  0  0  0  0  0  0  0  0999 V2000
   37.0230   26.2340   32.7400 C   0  0  0  0  0  0  0  0  0  0  0  0
   36.0950   26.7520   31.8270 C   0  0  0  0  0  0  0  0  0  0  0  0
   35.4100   25.8880   30.9730 C   0  0  0  0  0  0  0  0  0  0  0  0
   35.6930   24.5520   31.0830 N   0  0  0  0  0  0  0  0  0  0  0  0
   36.5870   24.0780   31.9650 C   0  0  0  0  0  0  0  0  0  0  0  0
   37.2410   24.8950   32.7790 N   0  0  0  0  0  0  0  0  0  0  0  0
   34.6820   26.2380   30.2510 H   0  0  0  0  0  0  0  0  0  0  0  0
   36.8180   23.0240   32.0580 H   0  0  0  0  0  0  0  0  0  0  0  0
   36.3460   28.8330   30.5960 C   0  0  0  0  0  0  0  0  0  0  0  0
   37.1900   28.5850   29.6480 O   0  0  0  0  0  0  0  0  0  0  0  0
   35.7710   28.1010   31.6780 N   0  0  0  0  0  0  0  0  0  0  0  0
   36.2120   29.8600   30.2710 H   0  0  0  0  0  0  0  0  0  0  0  0
   35.1620   28.7690   32.1990 H   0  0  0  0  0  0  0  0  0  0  0  0
   37.6060   27.2120   33.5020 O   0  0  0  0  0  0  0  0  0  0  0  0
   37.2830   27.3030   34.8740 C   0  0  0  0  0  2  0  0  0  0  0  0
   38.5600   27.3200   35.6810 C   0  0  0  0  0  2  0  0  0  0  0  0
   38.5140   28.0600   36.5200 H   0  0  0  0  0  0  0  0  0  0  0  0
  1  6  1  0  0  0  0
  1 14  1  0  0  0  0
  2  1  2  0  0  0  0
  3  4  2  0  0  0  0
  3  2  1  0  0  0  0
  4  5  1  0  0  0  0
  5  8  1  0  0  0  0
  5  6  2  0  0  0  0
  7  3  1  0  0  0  0
  9 11  1  0  0  0  0
 10  9  2  0  0  0  0
 11  2  1  0  0  0  0
 11 13  1  0  0  0  0
 12  9  1  0  0  0  0
 14 15  1  0  0  0  0
 15 16  1  0  0  0  0
 16 17  1  0  0  0  0
M  END
>  <minimizedAffinity>
-3.23505592

$$$$

 OpenBabel03272507383D

 17 17  0  0  0  0  0  0  0  0999 V2000
   38.1740   24.0540   34.9750 C   0  0  0  0  0  0  0  0  0  0  0  0
   37.8460   25.3700   34.6240 C   0  0  0  0  0  0  0  0  0  0  0  0
   37.3350   25.6400   33.3540 C   0  0  0  0  0  0  0  0  0  0  0  0
   37.1800   24.5740   32.5070 N   0  0  0  0  0  0  0  0  0  0  0  0
   37.5000   23.3210   32.8650 C   0  0  0  0  0  0  0  0  0  0  0  0
   37.9870   23.0590   34.0710 N   0  0  0  0  0  0  0  0  0  0  0  0
   37.0660   26.6390   33.0350 H   0  0  0  0  0  0  0  0  0  0  0  0
   37.3820   22.4730   32.2030 H   0  0  0  0  0  0  0  0  0  0  0  0
   39.2560   27.1310   35.5300 C   0  0  0  0  0  0  0  0  0  0  0  0
   40.4350   26.9310   35.0380 O   0  0  0  0  0  0  0  0  0  0  0  0
   37.9840   26.4870   35.4480 N   0  0  0  0  0  0  0  0  0  0  0  0
   39.5790   28.0170   36.0670 H   0  0  0  0  0  0  0  0  0  0  0  0
   37.3400   27.0190   36.0730 H   0  0  0  0  0  0  0  0  0  0  0  0
   38.6620   23.9610   36.2510 O   0  0  0  0  0  0  0  0  0  0  0  0
   37.8270   23.4580   37.2740 C   0  0  0  0  0  2  0  0  0  0  0  0
   37.9850   24.3180   38.5060 C   0  0  0  0  0  2  0  0  0  0  0  0
   37.0040   24.5160   39.0070 H   0  0  0  0  0  0  0  0  0  0  0  0
  1 14  1  0  0  0  0
  2  1  1  0  0  0  0
  2 11  1  0  0  0  0
  3  2  2  0  0  0  0
  4  5  2  0  0  0  0
  4  3  1  0  0  0  0
  5  6  1  0  0  0  0
  6  1  2  0  0  0  0
  7  3  1  0  0  0  0
  8  5  1  0  0  0  0
  9 12  1  0  0  0  0
 10  9  2  0  0  0  0
 11  9  1  0  0  0  0
 11 13  1  0  0  0  0
 14 15  1  0  0  0  0
 15 16  1  0  0  0  0
 16 17  1  0  0  0  0
M  END
>  <minimizedAffinity>
-3.16855669

$$$$
