
 OpenBabel03272508163D

 25 26  0  0  0  0  0  0  0  0999 V2000
   36.9670   32.1720   49.8480 Cl  0  0  0  0  0  0  0  0  0  0  0  0
   37.6450   31.7920   48.2990 C   0  0  0  0  0  0  0  0  0  0  0  0
   37.0040   30.7670   47.6750 C   0  0  0  0  0  0  0  0  0  0  0  0
   37.4850   30.3800   46.4000 C   0  0  0  0  0  0  0  0  0  0  0  0
   38.5450   31.0000   45.8110 C   0  0  0  0  0  0  0  0  0  0  0  0
   39.1670   32.0320   46.4710 C   0  0  0  0  0  0  0  0  0  0  0  0
   40.5210   32.8490   45.7570 Cl  0  0  0  0  0  0  0  0  0  0  0  0
   38.7170   32.4120   47.6940 C   0  0  0  0  0  0  0  0  0  0  0  0
   37.0420   29.5790   45.8270 H   0  0  0  0  0  0  0  0  0  0  0  0
   38.9160   30.7080   44.8350 H   0  0  0  0  0  0  0  0  0  0  0  0
   36.0340   29.0860   49.1850 C   0  0  0  0  0  0  0  0  0  0  0  0
   35.8560   29.9630   48.1130 C   0  0  0  0  0  0  0  0  0  0  0  0
   34.5900   30.0310   47.5080 C   0  0  0  0  0  0  0  0  0  0  0  0
   33.6110   29.2380   48.0020 N   0  0  0  0  0  0  0  0  0  0  0  0
   33.8210   28.4000   49.0430 C   0  0  0  0  0  0  0  0  0  0  0  0
   35.0390   28.3240   49.6380 N   0  0  0  0  0  0  0  0  0  0  0  0
   37.0130   29.0420   49.6430 H   0  0  0  0  0  0  0  0  0  0  0  0
   34.4600   30.6970   46.6950 H   0  0  0  0  0  0  0  0  0  0  0  0
   33.0370   27.7610   49.4450 H   0  0  0  0  0  0  0  0  0  0  0  0
   39.3230   33.5090   48.4730 C   0  0  0  0  0  0  0  0  0  0  0  0
   39.8790   34.5280   48.0820 O   0  0  0  0  0  0  0  0  0  0  0  0
   39.3790   33.5930   49.8840 O   0  0  0  0  0  0  0  0  0  0  0  0
   40.1620   34.5190   50.5590 C   0  0  0  0  0  2  0  0  0  0  0  0
   39.4000   35.4750   51.4390 C   0  0  0  0  0  2  0  0  0  0  0  0
   39.9990   36.4270   51.5070 H   0  0  0  0  0  0  0  0  0  0  0  0
  2  1  1  0  0  0  0
  3 12  1  0  0  0  0
  3  2  2  0  0  0  0
  4  3  1  0  0  0  0
  5  4  2  0  0  0  0
  5  6  1  0  0  0  0
  6  8  2  0  0  0  0
  7  6  1  0  0  0  0
  8  2  1  0  0  0  0
  8 20  1  0  0  0  0
  9  4  1  0  0  0  0
 10  5  1  0  0  0  0
 11 16  1  0  0  0  0
 11 17  1  0  0  0  0
 12 11  2  0  0  0  0
 13 14  2  0  0  0  0
 13 12  1  0  0  0  0
 14 15  1  0  0  0  0
 15 19  1  0  0  0  0
 15 16  2  0  0  0  0
 18 13  1  0  0  0  0
 20 22  1  0  0  0  0
 21 20  2  0  0  0  0
 22 23  1  0  0  0  0
 23 24  1  0  0  0  0
 24 25  1  0  0  0  0
M  END
>  <minimizedAffinity>
-3.2189858

>  <minimizedRMSD>
0.483633727

$$$$
