
 OpenBabel03272510103D

 22 23  0  0  0  0  0  0  0  0999 V2000
   35.3330   30.1670   48.3580 C   0  0  0  0  0  0  0  0  0  0  0  0
   35.6180   30.7100   49.5920 C   0  0  0  0  0  0  0  0  0  0  0  0
   36.7780   31.4400   49.8190 C   0  0  0  0  0  0  0  0  0  0  0  0
   37.6900   31.6530   48.8300 C   0  0  0  0  0  0  0  0  0  0  0  0
   37.3660   31.0930   47.6140 C   0  0  0  0  0  0  0  0  0  0  0  0
   36.2440   30.3850   47.3880 N   0  0  0  0  0  0  0  0  0  0  0  0
   34.9280   30.5720   50.4140 H   0  0  0  0  0  0  0  0  0  0  0  0
   36.9940   31.8680   50.8070 H   0  0  0  0  0  0  0  0  0  0  0  0
   38.0000   31.1850   46.7410 H   0  0  0  0  0  0  0  0  0  0  0  0
   33.6110   28.4320   48.9790 C   0  0  0  0  0  0  0  0  0  0  0  0
   34.1320   29.4010   48.0910 C   0  0  0  0  0  0  0  0  0  0  0  0
   33.4490   29.6130   46.9140 C   0  0  0  0  0  0  0  0  0  0  0  0
   32.3190   28.9010   46.6480 N   0  0  0  0  0  0  0  0  0  0  0  0
   31.8510   27.9810   47.5290 C   0  0  0  0  0  0  0  0  0  0  0  0
   32.4930   27.7510   48.6810 N   0  0  0  0  0  0  0  0  0  0  0  0
   34.1990   28.3190   49.8830 H   0  0  0  0  0  0  0  0  0  0  0  0
   33.7520   30.3340   46.1480 H   0  0  0  0  0  0  0  0  0  0  0  0
   30.9540   27.4050   47.3340 H   0  0  0  0  0  0  0  0  0  0  0  0
   38.8740   32.3620   48.9490 O   0  0  0  0  0  0  0  0  0  0  0  0
   38.8890   33.6870   49.4150 C   0  0  0  0  0  2  0  0  0  0  0  0
   39.8590   34.4680   48.5600 C   0  0  0  0  0  2  0  0  0  0  0  0
   40.6440   33.7580   48.1980 H   0  0  0  0  0  0  0  0  0  0  0  0
  1  2  1  0  0  0  0
  2  3  2  0  0  0  0
  2  7  1  0  0  0  0
  3  8  1  0  0  0  0
  4 19  1  0  0  0  0
  4  3  1  0  0  0  0
  5  4  2  0  0  0  0
  6  5  1  0  0  0  0
  6  1  2  0  0  0  0
  9  5  1  0  0  0  0
 10 16  1  0  0  0  0
 11  1  1  0  0  0  0
 11 10  2  0  0  0  0
 12 11  1  0  0  0  0
 13 12  2  0  0  0  0
 13 14  1  0  0  0  0
 14 15  2  0  0  0  0
 15 10  1  0  0  0  0
 17 12  1  0  0  0  0
 18 14  1  0  0  0  0
 19 20  1  0  0  0  0
 21 20  1  0  0  0  0
 22 21  1  0  0  0  0
M  END
>  <minimizedAffinity>
-4.51953983

>  <minimizedRMSD>
3.34767914

$$$$
