
 OpenBabel03272510113D

 22 23  0  0  0  0  0  0  0  0999 V2000
   37.1910   27.2160   34.0020 C   0  0  0  0  0  0  0  0  0  0  0  0
   37.6790   27.5290   35.2520 C   0  0  0  0  0  0  0  0  0  0  0  0
   38.3050   26.5800   36.0500 C   0  0  0  0  0  0  0  0  0  0  0  0
   38.4660   25.2930   35.6330 C   0  0  0  0  0  0  0  0  0  0  0  0
   37.9630   25.0240   34.3790 C   0  0  0  0  0  0  0  0  0  0  0  0
   37.3560   25.9400   33.6010 N   0  0  0  0  0  0  0  0  0  0  0  0
   37.5790   28.5370   35.6330 H   0  0  0  0  0  0  0  0  0  0  0  0
   38.6900   26.8410   37.0440 H   0  0  0  0  0  0  0  0  0  0  0  0
   38.0230   24.0440   33.9240 H   0  0  0  0  0  0  0  0  0  0  0  0
   36.7910   28.3060   31.7630 C   0  0  0  0  0  0  0  0  0  0  0  0
   36.5320   28.1840   33.1470 C   0  0  0  0  0  0  0  0  0  0  0  0
   35.6020   29.0400   33.6950 C   0  0  0  0  0  0  0  0  0  0  0  0
   34.9740   29.9550   32.9050 N   0  0  0  0  0  0  0  0  0  0  0  0
   35.2520   30.0380   31.5790 C   0  0  0  0  0  0  0  0  0  0  0  0
   36.1510   29.2210   31.0170 N   0  0  0  0  0  0  0  0  0  0  0  0
   37.5330   27.6030   31.4020 H   0  0  0  0  0  0  0  0  0  0  0  0
   35.3160   29.0430   34.7510 H   0  0  0  0  0  0  0  0  0  0  0  0
   34.7620   30.7600   30.9360 H   0  0  0  0  0  0  0  0  0  0  0  0
   39.0720   24.2730   36.3470 O   0  0  0  0  0  0  0  0  0  0  0  0
   38.3140   23.3160   37.0420 C   0  0  0  0  0  2  0  0  0  0  0  0
   38.4210   23.6210   38.5170 C   0  0  0  0  0  2  0  0  0  0  0  0
   39.4100   24.1130   38.6950 H   0  0  0  0  0  0  0  0  0  0  0  0
  1  2  1  0  0  0  0
  2  7  1  0  0  0  0
  2  3  2  0  0  0  0
  3  8  1  0  0  0  0
  4  3  1  0  0  0  0
  4 19  1  0  0  0  0
  5  4  2  0  0  0  0
  6  1  2  0  0  0  0
  6  5  1  0  0  0  0
  9  5  1  0  0  0  0
 10 11  1  0  0  0  0
 11 12  2  0  0  0  0
 11  1  1  0  0  0  0
 12 17  1  0  0  0  0
 13 12  1  0  0  0  0
 14 13  2  0  0  0  0
 15 14  1  0  0  0  0
 15 10  2  0  0  0  0
 16 10  1  0  0  0  0
 18 14  1  0  0  0  0
 19 20  1  0  0  0  0
 20 21  1  0  0  0  0
 21 22  1  0  0  0  0
M  END
>  <minimizedAffinity>
-4.14529657

$$$$

 OpenBabel03272510113D

 22 23  0  0  0  0  0  0  0  0999 V2000
   38.3430   25.3690   35.2860 C   0  0  0  0  0  0  0  0  0  0  0  0
   38.0890   26.6380   35.7550 C   0  0  0  0  0  0  0  0  0  0  0  0
   37.3990   27.5730   34.9940 C   0  0  0  0  0  0  0  0  0  0  0  0
   36.9410   27.2780   33.7460 C   0  0  0  0  0  0  0  0  0  0  0  0
   37.2180   25.9980   33.3160 C   0  0  0  0  0  0  0  0  0  0  0  0
   37.8850   25.0880   34.0490 N   0  0  0  0  0  0  0  0  0  0  0  0
   38.4300   26.9280   36.7400 H   0  0  0  0  0  0  0  0  0  0  0  0
   37.2020   28.5830   35.3790 H   0  0  0  0  0  0  0  0  0  0  0  0
   36.9120   25.6290   32.3460 H   0  0  0  0  0  0  0  0  0  0  0  0
   40.2880   23.8030   35.6450 C   0  0  0  0  0  0  0  0  0  0  0  0
   39.0610   24.3720   36.0560 C   0  0  0  0  0  0  0  0  0  0  0  0
   38.5340   23.9430   37.2550 C   0  0  0  0  0  0  0  0  0  0  0  0
   39.1960   23.0070   37.9900 N   0  0  0  0  0  0  0  0  0  0  0  0
   40.3730   22.4870   37.5590 C   0  0  0  0  0  0  0  0  0  0  0  0
   40.9110   22.8820   36.3990 N   0  0  0  0  0  0  0  0  0  0  0  0
   40.6410   24.1870   34.6950 H   0  0  0  0  0  0  0  0  0  0  0  0
   37.5930   24.3070   37.6780 H   0  0  0  0  0  0  0  0  0  0  0  0
   40.9140   21.7410   38.1310 H   0  0  0  0  0  0  0  0  0  0  0  0
   36.2460   28.1330   32.9070 O   0  0  0  0  0  0  0  0  0  0  0  0
   35.9140   27.7590   31.5940 C   0  0  0  0  0  2  0  0  0  0  0  0
   36.6380   28.6880   30.6490 C   0  0  0  0  0  2  0  0  0  0  0  0
   36.7760   29.6680   31.1710 H   0  0  0  0  0  0  0  0  0  0  0  0
  1  2  1  0  0  0  0
  1 11  1  0  0  0  0
  2  7  1  0  0  0  0
  3  8  1  0  0  0  0
  3  2  2  0  0  0  0
  4  3  1  0  0  0  0
  5  4  2  0  0  0  0
  5  6  1  0  0  0  0
  6  1  2  0  0  0  0
  9  5  1  0  0  0  0
 10 11  2  0  0  0  0
 10 15  1  0  0  0  0
 11 12  1  0  0  0  0
 12 17  1  0  0  0  0
 12 13  2  0  0  0  0
 14 13  1  0  0  0  0
 14 18  1  0  0  0  0
 15 14  2  0  0  0  0
 16 10  1  0  0  0  0
 19  4  1  0  0  0  0
 20 19  1  0  0  0  0
 21 22  1  0  0  0  0
 21 20  1  0  0  0  0
M  END
>  <minimizedAffinity>
-4.10417795

$$$$

 OpenBabel03272510113D

 22 23  0  0  0  0  0  0  0  0999 V2000
   35.5640   29.2390   34.0650 C   0  0  0  0  0  0  0  0  0  0  0  0
   36.5000   28.2960   34.4280 C   0  0  0  0  0  0  0  0  0  0  0  0
   36.9430   27.3260   33.5380 C   0  0  0  0  0  0  0  0  0  0  0  0
   36.4710   27.2610   32.2620 C   0  0  0  0  0  0  0  0  0  0  0  0
   35.5370   28.2220   31.9420 C   0  0  0  0  0  0  0  0  0  0  0  0
   35.1040   29.1640   32.8000 N   0  0  0  0  0  0  0  0  0  0  0  0
   36.9100   28.3000   35.4300 H   0  0  0  0  0  0  0  0  0  0  0  0
   37.6900   26.5790   33.8390 H   0  0  0  0  0  0  0  0  0  0  0  0
   35.0790   28.2880   30.9640 H   0  0  0  0  0  0  0  0  0  0  0  0
   35.9340   31.1310   35.6910 C   0  0  0  0  0  0  0  0  0  0  0  0
   35.0820   30.2620   34.9720 C   0  0  0  0  0  0  0  0  0  0  0  0
   33.7250   30.4110   35.1550 C   0  0  0  0  0  0  0  0  0  0  0  0
   33.2560   31.3690   36.0030 N   0  0  0  0  0  0  0  0  0  0  0  0
   34.1090   32.1830   36.6740 C   0  0  0  0  0  0  0  0  0  0  0  0
   35.4330   32.0630   36.5180 N   0  0  0  0  0  0  0  0  0  0  0  0
   36.9860   30.9570   35.4980 H   0  0  0  0  0  0  0  0  0  0  0  0
   32.9660   29.8010   34.6560 H   0  0  0  0  0  0  0  0  0  0  0  0
   33.7540   32.9500   37.3530 H   0  0  0  0  0  0  0  0  0  0  0  0
   36.8430   26.3390   31.2990 O   0  0  0  0  0  0  0  0  0  0  0  0
   36.6830   24.9580   31.5070 C   0  0  0  0  0  2  0  0  0  0  0  0
   35.2770   24.5870   31.1020 C   0  0  0  0  0  2  0  0  0  0  0  0
   34.6250   25.4820   31.2640 H   0  0  0  0  0  0  0  0  0  0  0  0
  1  2  1  0  0  0  0
  1 11  1  0  0  0  0
  2  7  1  0  0  0  0
  3  8  1  0  0  0  0
  3  2  2  0  0  0  0
  4  3  1  0  0  0  0
  5  4  2  0  0  0  0
  5  6  1  0  0  0  0
  6  1  2  0  0  0  0
  9  5  1  0  0  0  0
 10 15  1  0  0  0  0
 11 12  1  0  0  0  0
 11 10  2  0  0  0  0
 12 13  2  0  0  0  0
 13 14  1  0  0  0  0
 14 18  1  0  0  0  0
 15 14  2  0  0  0  0
 16 10  1  0  0  0  0
 17 12  1  0  0  0  0
 19 20  1  0  0  0  0
 19  4  1  0  0  0  0
 21 22  1  0  0  0  0
 21 20  1  0  0  0  0
M  END
>  <minimizedAffinity>
-3.95297074

$$$$

 OpenBabel03272510113D

 22 23  0  0  0  0  0  0  0  0999 V2000
   36.2140   26.2730   31.4360 C   0  0  0  0  0  0  0  0  0  0  0  0
   35.2520   25.4040   30.9720 C   0  0  0  0  0  0  0  0  0  0  0  0
   35.3120   24.0410   31.2330 C   0  0  0  0  0  0  0  0  0  0  0  0
   36.3270   23.5000   31.9620 C   0  0  0  0  0  0  0  0  0  0  0  0
   37.2660   24.4040   32.4060 C   0  0  0  0  0  0  0  0  0  0  0  0
   37.2130   25.7250   32.1570 N   0  0  0  0  0  0  0  0  0  0  0  0
   34.4230   25.7800   30.3860 H   0  0  0  0  0  0  0  0  0  0  0  0
   34.5390   23.3570   30.8570 H   0  0  0  0  0  0  0  0  0  0  0  0
   38.1250   24.1120   32.9970 H   0  0  0  0  0  0  0  0  0  0  0  0
   36.8530   28.3140   30.0990 C   0  0  0  0  0  0  0  0  0  0  0  0
   36.1800   27.6990   31.1790 C   0  0  0  0  0  0  0  0  0  0  0  0
   35.4570   28.5160   32.0220 C   0  0  0  0  0  0  0  0  0  0  0  0
   35.4150   29.8580   31.7940 N   0  0  0  0  0  0  0  0  0  0  0  0
   36.0760   30.4080   30.7440 C   0  0  0  0  0  0  0  0  0  0  0  0
   36.7870   29.6420   29.9070 N   0  0  0  0  0  0  0  0  0  0  0  0
   37.4000   27.6130   29.4800 H   0  0  0  0  0  0  0  0  0  0  0  0
   34.8950   28.1600   32.8900 H   0  0  0  0  0  0  0  0  0  0  0  0
   36.0520   31.4740   30.5470 H   0  0  0  0  0  0  0  0  0  0  0  0
   36.4810   22.1600   32.2790 O   0  0  0  0  0  0  0  0  0  0  0  0
   35.3720   21.3290   32.5070 C   0  0  0  0  0  2  0  0  0  0  0  0
   35.6060   20.5860   33.7990 C   0  0  0  0  0  2  0  0  0  0  0  0
   36.7110   20.4660   33.9310 H   0  0  0  0  0  0  0  0  0  0  0  0
  1  6  1  0  0  0  0
  2  3  1  0  0  0  0
  2  1  2  0  0  0  0
  3  4  2  0  0  0  0
  4 19  1  0  0  0  0
  4  5  1  0  0  0  0
  5  9  1  0  0  0  0
  6  5  2  0  0  0  0
  7  2  1  0  0  0  0
  8  3  1  0  0  0  0
 10 11  1  0  0  0  0
 11  1  1  0  0  0  0
 11 12  2  0  0  0  0
 12 17  1  0  0  0  0
 13 12  1  0  0  0  0
 14 13  2  0  0  0  0
 15 10  2  0  0  0  0
 15 14  1  0  0  0  0
 16 10  1  0  0  0  0
 18 14  1  0  0  0  0
 19 20  1  0  0  0  0
 20 21  1  0  0  0  0
 21 22  1  0  0  0  0
M  END
>  <minimizedAffinity>
-3.9512229

$$$$

 OpenBabel03272510113D

 22 23  0  0  0  0  0  0  0  0999 V2000
   36.2570   22.8670   32.0460 C   0  0  0  0  0  0  0  0  0  0  0  0
   35.4800   23.7550   31.3350 C   0  0  0  0  0  0  0  0  0  0  0  0
   35.7310   25.1210   31.3510 C   0  0  0  0  0  0  0  0  0  0  0  0
   36.7600   25.6480   32.0720 C   0  0  0  0  0  0  0  0  0  0  0  0
   37.5100   24.7250   32.7670 C   0  0  0  0  0  0  0  0  0  0  0  0
   37.2720   23.4010   32.7560 N   0  0  0  0  0  0  0  0  0  0  0  0
   34.6490   23.3910   30.7450 H   0  0  0  0  0  0  0  0  0  0  0  0
   35.1040   25.8190   30.7800 H   0  0  0  0  0  0  0  0  0  0  0  0
   38.3570   25.0050   33.3800 H   0  0  0  0  0  0  0  0  0  0  0  0
   36.1320   20.6240   30.9000 C   0  0  0  0  0  0  0  0  0  0  0  0
   36.0190   21.4380   32.0510 C   0  0  0  0  0  0  0  0  0  0  0  0
   35.6630   20.8200   33.2300 C   0  0  0  0  0  0  0  0  0  0  0  0
   35.4370   19.4770   33.2500 N   0  0  0  0  0  0  0  0  0  0  0  0
   35.5570   18.7330   32.1220 C   0  0  0  0  0  0  0  0  0  0  0  0
   35.9010   19.3030   30.9610 N   0  0  0  0  0  0  0  0  0  0  0  0
   36.4150   21.1760   30.0110 H   0  0  0  0  0  0  0  0  0  0  0  0
   35.5440   21.3400   34.1850 H   0  0  0  0  0  0  0  0  0  0  0  0
   35.3800   17.6630   32.1200 H   0  0  0  0  0  0  0  0  0  0  0  0
   37.0950   26.9890   32.1560 O   0  0  0  0  0  0  0  0  0  0  0  0
   36.2480   27.9170   32.7840 C   0  0  0  0  0  2  0  0  0  0  0  0
   36.6400   27.9930   34.2400 C   0  0  0  0  0  2  0  0  0  0  0  0
   37.0640   27.0000   34.5340 H   0  0  0  0  0  0  0  0  0  0  0  0
  1 11  1  0  0  0  0
  1  6  1  0  0  0  0
  2  3  1  0  0  0  0
  2  1  2  0  0  0  0
  3  4  2  0  0  0  0
  4 19  1  0  0  0  0
  4  5  1  0  0  0  0
  5  9  1  0  0  0  0
  6  5  2  0  0  0  0
  7  2  1  0  0  0  0
  8  3  1  0  0  0  0
 10 15  2  0  0  0  0
 10 11  1  0  0  0  0
 11 12  2  0  0  0  0
 12 13  1  0  0  0  0
 12 17  1  0  0  0  0
 14 13  2  0  0  0  0
 15 14  1  0  0  0  0
 16 10  1  0  0  0  0
 18 14  1  0  0  0  0
 19 20  1  0  0  0  0
 20 21  1  0  0  0  0
 21 22  1  0  0  0  0
M  END
>  <minimizedAffinity>
-3.94847679

$$$$

 OpenBabel03272510113D

 22 23  0  0  0  0  0  0  0  0999 V2000
   37.6790   26.2910   34.2100 C   0  0  0  0  0  0  0  0  0  0  0  0
   37.8430   26.4860   35.5630 C   0  0  0  0  0  0  0  0  0  0  0  0
   38.1930   25.4460   36.4140 C   0  0  0  0  0  0  0  0  0  0  0  0
   38.3910   24.1820   35.9490 C   0  0  0  0  0  0  0  0  0  0  0  0
   38.2170   24.0310   34.5900 C   0  0  0  0  0  0  0  0  0  0  0  0
   37.8780   25.0350   33.7610 N   0  0  0  0  0  0  0  0  0  0  0  0
   37.6980   27.4720   35.9870 H   0  0  0  0  0  0  0  0  0  0  0  0
   38.3210   25.6140   37.4920 H   0  0  0  0  0  0  0  0  0  0  0  0
   38.3430   23.0810   34.0870 H   0  0  0  0  0  0  0  0  0  0  0  0
   37.9000   27.5280   32.0230 C   0  0  0  0  0  0  0  0  0  0  0  0
   37.3130   27.3560   33.2970 C   0  0  0  0  0  0  0  0  0  0  0  0
   36.3440   28.2600   33.6750 C   0  0  0  0  0  0  0  0  0  0  0  0
   35.9890   29.2660   32.8280 N   0  0  0  0  0  0  0  0  0  0  0  0
   36.5770   29.3950   31.6120 C   0  0  0  0  0  0  0  0  0  0  0  0
   37.5220   28.5330   31.2160 N   0  0  0  0  0  0  0  0  0  0  0  0
   38.6530   26.7830   31.7940 H   0  0  0  0  0  0  0  0  0  0  0  0
   35.8170   28.2330   34.6330 H   0  0  0  0  0  0  0  0  0  0  0  0
   36.3060   30.1890   30.9260 H   0  0  0  0  0  0  0  0  0  0  0  0
   38.7410   23.0770   36.7080 O   0  0  0  0  0  0  0  0  0  0  0  0
   39.7890   22.2260   36.3210 C   0  0  0  0  0  2  0  0  0  0  0  0
   40.7540   22.1230   37.4770 C   0  0  0  0  0  2  0  0  0  0  0  0
   40.6970   23.0780   38.0580 H   0  0  0  0  0  0  0  0  0  0  0  0
  1  2  1  0  0  0  0
  2  7  1  0  0  0  0
  2  3  2  0  0  0  0
  3  8  1  0  0  0  0
  4  3  1  0  0  0  0
  4 19  1  0  0  0  0
  5  4  2  0  0  0  0
  6  1  2  0  0  0  0
  6  5  1  0  0  0  0
  9  5  1  0  0  0  0
 10 11  1  0  0  0  0
 11 12  2  0  0  0  0
 11  1  1  0  0  0  0
 12 17  1  0  0  0  0
 13 12  1  0  0  0  0
 14 13  2  0  0  0  0
 15 14  1  0  0  0  0
 15 10  2  0  0  0  0
 16 10  1  0  0  0  0
 18 14  1  0  0  0  0
 20 19  1  0  0  0  0
 20 21  1  0  0  0  0
 21 22  1  0  0  0  0
M  END
>  <minimizedAffinity>
-3.938972

$$$$

 OpenBabel03272510113D

 22 23  0  0  0  0  0  0  0  0999 V2000
   38.1480   24.5010   34.9060 C   0  0  0  0  0  0  0  0  0  0  0  0
   38.2870   23.6990   33.7940 C   0  0  0  0  0  0  0  0  0  0  0  0
   37.9380   24.1430   32.5260 C   0  0  0  0  0  0  0  0  0  0  0  0
   37.4400   25.3950   32.3210 C   0  0  0  0  0  0  0  0  0  0  0  0
   37.3180   26.1620   33.4590 C   0  0  0  0  0  0  0  0  0  0  0  0
   37.6550   25.7370   34.6900 N   0  0  0  0  0  0  0  0  0  0  0  0
   38.6770   22.6950   33.8990 H   0  0  0  0  0  0  0  0  0  0  0  0
   38.0530   23.4950   31.6470 H   0  0  0  0  0  0  0  0  0  0  0  0
   36.9380   27.1750   33.4420 H   0  0  0  0  0  0  0  0  0  0  0  0
   37.8160   24.4800   37.4060 C   0  0  0  0  0  0  0  0  0  0  0  0
   38.5020   24.0650   36.2420 C   0  0  0  0  0  0  0  0  0  0  0  0
   39.5630   23.2010   36.4070 C   0  0  0  0  0  0  0  0  0  0  0  0
   39.9080   22.7820   37.6560 N   0  0  0  0  0  0  0  0  0  0  0  0
   39.2220   23.2040   38.7480 C   0  0  0  0  0  0  0  0  0  0  0  0
   38.1870   24.0440   38.6210 N   0  0  0  0  0  0  0  0  0  0  0  0
   36.9950   25.1580   37.2010 H   0  0  0  0  0  0  0  0  0  0  0  0
   40.1710   22.8100   35.5860 H   0  0  0  0  0  0  0  0  0  0  0  0
   39.4830   22.8810   39.7490 H   0  0  0  0  0  0  0  0  0  0  0  0
   37.0620   25.9350   31.1030 O   0  0  0  0  0  0  0  0  0  0  0  0
   35.7690   26.4450   30.8990 C   0  0  0  0  0  2  0  0  0  0  0  0
   34.8150   25.2780   30.8220 C   0  0  0  0  0  2  0  0  0  0  0  0
   35.3800   24.3990   30.4220 H   0  0  0  0  0  0  0  0  0  0  0  0
  1 11  1  0  0  0  0
  2  7  1  0  0  0  0
  2  1  2  0  0  0  0
  3  2  1  0  0  0  0
  4  3  2  0  0  0  0
  4  5  1  0  0  0  0
  5  6  2  0  0  0  0
  6  1  1  0  0  0  0
  8  3  1  0  0  0  0
  9  5  1  0  0  0  0
 10 15  1  0  0  0  0
 11 12  1  0  0  0  0
 11 10  2  0  0  0  0
 12 13  2  0  0  0  0
 13 14  1  0  0  0  0
 14 18  1  0  0  0  0
 15 14  2  0  0  0  0
 16 10  1  0  0  0  0
 17 12  1  0  0  0  0
 19  4  1  0  0  0  0
 20 19  1  0  0  0  0
 21 20  1  0  0  0  0
 22 21  1  0  0  0  0
M  END
>  <minimizedAffinity>
-3.90775061

$$$$

 OpenBabel03272510113D

 22 23  0  0  0  0  0  0  0  0999 V2000
   35.0410   30.0630   34.8310 C   0  0  0  0  0  0  0  0  0  0  0  0
   33.6930   30.2330   35.0610 C   0  0  0  0  0  0  0  0  0  0  0  0
   33.2190   31.1850   35.9530 C   0  0  0  0  0  0  0  0  0  0  0  0
   34.0650   31.9980   36.6440 C   0  0  0  0  0  0  0  0  0  0  0  0
   35.4030   31.7940   36.3850 C   0  0  0  0  0  0  0  0  0  0  0  0
   35.8680   30.8730   35.5220 N   0  0  0  0  0  0  0  0  0  0  0  0
   32.9750   29.6140   34.5390 H   0  0  0  0  0  0  0  0  0  0  0  0
   32.1420   31.3110   36.1280 H   0  0  0  0  0  0  0  0  0  0  0  0
   36.1850   32.3700   36.8630 H   0  0  0  0  0  0  0  0  0  0  0  0
   35.2030   29.0160   32.5430 C   0  0  0  0  0  0  0  0  0  0  0  0
   35.5660   29.0770   33.9070 C   0  0  0  0  0  0  0  0  0  0  0  0
   36.4680   28.1410   34.3660 C   0  0  0  0  0  0  0  0  0  0  0  0
   36.9710   27.2090   33.5100 N   0  0  0  0  0  0  0  0  0  0  0  0
   36.5970   27.1850   32.2060 C   0  0  0  0  0  0  0  0  0  0  0  0
   35.7220   28.0800   31.7300 N   0  0  0  0  0  0  0  0  0  0  0  0
   34.4920   29.7800   32.2530 H   0  0  0  0  0  0  0  0  0  0  0  0
   36.8250   28.0860   35.3980 H   0  0  0  0  0  0  0  0  0  0  0  0
   36.9870   26.4510   31.5110 H   0  0  0  0  0  0  0  0  0  0  0  0
   33.6990   32.9750   37.5540 O   0  0  0  0  0  0  0  0  0  0  0  0
   34.3170   34.2370   37.5620 C   0  0  0  0  0  2  0  0  0  0  0  0
   33.6980   35.0510   38.6720 C   0  0  0  0  0  2  0  0  0  0  0  0
   32.6460   34.6960   38.8120 H   0  0  0  0  0  0  0  0  0  0  0  0
  1  2  2  0  0  0  0
  1  6  1  0  0  0  0
  2  3  1  0  0  0  0
  3  8  1  0  0  0  0
  3  4  2  0  0  0  0
  4 19  1  0  0  0  0
  5  4  1  0  0  0  0
  5  9  1  0  0  0  0
  6  5  2  0  0  0  0
  7  2  1  0  0  0  0
 10 11  1  0  0  0  0
 11 12  2  0  0  0  0
 11  1  1  0  0  0  0
 12 17  1  0  0  0  0
 13 12  1  0  0  0  0
 14 13  2  0  0  0  0
 15 14  1  0  0  0  0
 15 10  2  0  0  0  0
 16 10  1  0  0  0  0
 18 14  1  0  0  0  0
 19 20  1  0  0  0  0
 20 21  1  0  0  0  0
 21 22  1  0  0  0  0
M  END
>  <minimizedAffinity>
-3.80889964

$$$$

 OpenBabel03272510113D

 22 23  0  0  0  0  0  0  0  0999 V2000
   36.5840   24.2070   32.0200 C   0  0  0  0  0  0  0  0  0  0  0  0
   35.6320   23.5000   31.3180 C   0  0  0  0  0  0  0  0  0  0  0  0
   35.7170   22.1240   31.1560 C   0  0  0  0  0  0  0  0  0  0  0  0
   36.7470   21.4070   31.6860 C   0  0  0  0  0  0  0  0  0  0  0  0
   37.6750   22.1520   32.3790 C   0  0  0  0  0  0  0  0  0  0  0  0
   37.5980   23.4860   32.5390 N   0  0  0  0  0  0  0  0  0  0  0  0
   34.7920   24.0200   30.8760 H   0  0  0  0  0  0  0  0  0  0  0  0
   34.9520   21.5710   30.5940 H   0  0  0  0  0  0  0  0  0  0  0  0
   38.5430   21.7110   32.8510 H   0  0  0  0  0  0  0  0  0  0  0  0
   35.8420   26.5150   31.3250 C   0  0  0  0  0  0  0  0  0  0  0  0
   36.5230   25.6440   32.2040 C   0  0  0  0  0  0  0  0  0  0  0  0
   37.1590   26.2080   33.2890 C   0  0  0  0  0  0  0  0  0  0  0  0
   37.1110   27.5560   33.4760 N   0  0  0  0  0  0  0  0  0  0  0  0
   36.4450   28.3580   32.6080 C   0  0  0  0  0  0  0  0  0  0  0  0
   35.8180   27.8400   31.5440 N   0  0  0  0  0  0  0  0  0  0  0  0
   35.3670   26.0030   30.4960 H   0  0  0  0  0  0  0  0  0  0  0  0
   37.7180   25.6400   34.0380 H   0  0  0  0  0  0  0  0  0  0  0  0
   36.3970   29.4320   32.7420 H   0  0  0  0  0  0  0  0  0  0  0  0
   36.9260   20.0370   31.5840 O   0  0  0  0  0  0  0  0  0  0  0  0
   35.8320   19.1610   31.4790 C   0  0  0  0  0  2  0  0  0  0  0  0
   35.3910   18.8010   32.8770 C   0  0  0  0  0  2  0  0  0  0  0  0
   36.2870   18.8550   33.5450 H   0  0  0  0  0  0  0  0  0  0  0  0
  1 11  1  0  0  0  0
  1  6  1  0  0  0  0
  2  1  2  0  0  0  0
  3  2  1  0  0  0  0
  3  4  2  0  0  0  0
  4  5  1  0  0  0  0
  5  6  2  0  0  0  0
  5  9  1  0  0  0  0
  7  2  1  0  0  0  0
  8  3  1  0  0  0  0
 10 15  2  0  0  0  0
 10 11  1  0  0  0  0
 11 12  2  0  0  0  0
 12 13  1  0  0  0  0
 12 17  1  0  0  0  0
 14 18  1  0  0  0  0
 14 13  2  0  0  0  0
 15 14  1  0  0  0  0
 16 10  1  0  0  0  0
 19  4  1  0  0  0  0
 20 19  1  0  0  0  0
 20 21  1  0  0  0  0
 21 22  1  0  0  0  0
M  END
>  <minimizedAffinity>
-3.79368544

$$$$
