
 OpenBabel03272504433D

 39 40  0  0  0  0  0  0  0  0999 V2000
   38.4420   26.8740   36.2400 Cl  0  0  0  0  0  0  0  0  0  0  0  0
   37.9500   26.0310   34.7700 C   0  0  0  0  0  0  0  0  0  0  0  0
   38.3350   24.7510   34.5800 C   0  0  0  0  0  0  0  0  0  0  0  0
   37.9560   24.0830   33.4350 C   0  0  0  0  0  0  0  0  0  0  0  0
   37.1790   24.7510   32.4940 C   0  0  0  0  0  0  0  0  0  0  0  0
   36.8180   26.0840   32.7640 C   0  0  0  0  0  0  0  0  0  0  0  0
   37.1810   26.7450   33.8750 C   0  0  0  0  0  0  0  0  0  0  0  0
   38.2780   23.0440   33.3000 H   0  0  0  0  0  0  0  0  0  0  0  0
   36.9390   24.1460   31.6450 H   0  0  0  0  0  0  0  0  0  0  0  0
   36.2560   26.3950   31.9580 H   0  0  0  0  0  0  0  0  0  0  0  0
   41.1770   23.1350   36.2880 C   0  0  0  0  0  0  0  0  0  0  0  0
   40.5590   22.7410   37.5140 C   0  0  0  0  0  0  0  0  0  0  0  0
   39.1970   23.0490   37.7010 C   0  0  0  0  0  0  0  0  0  0  0  0
   38.5300   23.7020   36.7150 N   0  0  0  0  0  0  0  0  0  0  0  0
   39.1490   24.0590   35.5650 C   0  0  0  0  0  0  0  0  0  0  0  0
   40.4420   23.7740   35.3700 N   0  0  0  0  0  0  0  0  0  0  0  0
   42.2140   22.9090   36.1270 H   0  0  0  0  0  0  0  0  0  0  0  0
   41.1390   22.2260   38.2600 H   0  0  0  0  0  0  0  0  0  0  0  0
   38.6310   22.6460   38.9160 N   0  0  0  0  0  0  0  0  0  0  0  0
   38.2850   21.6950   39.1810 H   0  0  0  0  0  0  0  0  0  0  0  0
   38.4860   23.2930   39.7390 H   0  0  0  0  0  0  0  0  0  0  0  0
   36.7910   28.1050   34.0970 C   0  0  0  0  0  0  0  0  0  0  0  0
   37.7270   28.7350   34.0290 H   0  0  0  0  0  0  0  0  0  0  0  0
   36.4970   28.2210   35.1700 H   0  0  0  0  0  0  0  0  0  0  0  0
   35.7460   28.7140   33.2770 C   0  0  0  0  0  0  0  0  0  0  0  0
   34.7220   28.2950   33.4740 H   0  0  0  0  0  0  0  0  0  0  0  0
   35.9360   28.5020   32.2040 H   0  0  0  0  0  0  0  0  0  0  0  0
   35.6720   30.0700   33.4790 O   0  0  0  0  0  0  0  0  0  0  0  0
   33.1830   29.3720   33.8970 O   0  0  0  0  0  0  0  0  0  0  0  0
   34.1690   30.5020   34.0600 P   0  0  2  0  0  0  0  0  0  0  0  0
   33.6760   31.8670   33.1320 O   0  0  0  0  0  0  0  0  0  0  0  0
   33.7940   31.6650   31.7740 C   0  0  0  0  0  2  0  0  0  0  0  0
   32.5100   31.4460   31.0570 C   0  0  0  0  0  2  0  0  0  0  0  0
   32.2360   32.3770   30.4980 H   0  0  0  0  0  0  0  0  0  0  0  0
   34.2000   30.9930   35.6390 O   0  0  0  0  0  0  0  0  0  0  0  0
   35.3870   31.6340   35.9310 C   0  0  0  0  0  0  0  0  0  0  0  0
   36.4470   30.7310   36.0270 F   0  0  0  0  0  0  0  0  0  0  0  0
   35.7260   32.5420   34.9630 F   0  0  0  0  0  0  0  0  0  0  0  0
   35.2910   32.3030   37.1460 F   0  0  0  0  0  0  0  0  0  0  0  0
  2  1  1  0  0  0  0
  3  2  1  0  0  0  0
  3 15  1  0  0  0  0
  4  3  2  0  0  0  0
  5  6  2  0  0  0  0
  5  4  1  0  0  0  0
  6  7  1  0  0  0  0
  7 22  1  0  0  0  0
  7  2  2  0  0  0  0
  8  4  1  0  0  0  0
  9  5  1  0  0  0  0
 10  6  1  0  0  0  0
 11 12  1  0  0  0  0
 12 13  2  0  0  0  0
 12 18  1  0  0  0  0
 13 19  1  0  0  0  0
 14 13  1  0  0  0  0
 15 14  2  0  0  0  0
 16 15  1  0  0  0  0
 16 11  2  0  0  0  0
 17 11  1  0  0  0  0
 19 20  1  0  0  0  0
 19 21  1  0  0  0  0
 22 24  1  0  0  0  0
 23 22  1  0  0  0  0
 25 26  1  0  0  0  0
 25 28  1  0  0  0  0
 25 22  1  0  0  0  0
 27 25  1  0  0  0  0
 28 30  1  0  0  0  0
 30 29  2  6  0  0  0
 30 35  1  0  0  0  0
 31 30  1  0  0  0  0
 32 31  1  0  0  0  0
 33 32  1  0  0  0  0
 34 33  1  0  0  0  0
 35 36  1  0  0  0  0
 36 37  1  0  0  0  0
 36 39  1  0  0  0  0
 38 36  1  0  0  0  0
M  END
>  <minimizedAffinity>
-5.59262323

$$$$

 OpenBabel03272504433D

 39 40  0  0  0  0  0  0  0  0999 V2000
   39.0580   26.4270   32.1060 Cl  0  0  0  0  0  0  0  0  0  0  0  0
   37.6170   25.4640   31.7750 C   0  0  0  0  0  0  0  0  0  0  0  0
   36.4850   26.0820   31.3780 C   0  0  0  0  0  0  0  0  0  0  0  0
   35.3530   25.3380   31.1170 C   0  0  0  0  0  0  0  0  0  0  0  0
   35.4060   23.9570   31.2710 C   0  0  0  0  0  0  0  0  0  0  0  0
   36.6240   23.3870   31.6880 C   0  0  0  0  0  0  0  0  0  0  0  0
   37.7320   24.1000   31.9450 C   0  0  0  0  0  0  0  0  0  0  0  0
   34.4440   25.8590   30.7950 H   0  0  0  0  0  0  0  0  0  0  0  0
   34.4790   23.4750   31.0440 H   0  0  0  0  0  0  0  0  0  0  0  0
   36.4570   22.3720   31.7440 H   0  0  0  0  0  0  0  0  0  0  0  0
   36.7670   29.4830   29.9800 C   0  0  0  0  0  0  0  0  0  0  0  0
   36.2850   30.2610   31.0770 C   0  0  0  0  0  0  0  0  0  0  0  0
   35.8840   29.5840   32.2460 C   0  0  0  0  0  0  0  0  0  0  0  0
   35.9710   28.2300   32.2830 N   0  0  0  0  0  0  0  0  0  0  0  0
   36.4330   27.5250   31.2220 C   0  0  0  0  0  0  0  0  0  0  0  0
   36.8190   28.1520   30.1050 N   0  0  0  0  0  0  0  0  0  0  0  0
   37.0770   29.9810   29.0810 H   0  0  0  0  0  0  0  0  0  0  0  0
   36.2380   31.3320   30.9890 H   0  0  0  0  0  0  0  0  0  0  0  0
   35.4180   30.3830   33.2960 N   0  0  0  0  0  0  0  0  0  0  0  0
   35.9820   30.9190   33.9960 H   0  0  0  0  0  0  0  0  0  0  0  0
   34.3950   30.5390   33.5060 H   0  0  0  0  0  0  0  0  0  0  0  0
   38.9450   23.4690   32.3740 C   0  0  0  0  0  0  0  0  0  0  0  0
   39.7810   24.2120   32.2120 H   0  0  0  0  0  0  0  0  0  0  0  0
   39.1980   22.6550   31.6510 H   0  0  0  0  0  0  0  0  0  0  0  0
   39.0510   22.9200   33.7230 C   0  0  0  0  0  0  0  0  0  0  0  0
   39.8920   22.1840   33.8420 H   0  0  0  0  0  0  0  0  0  0  0  0
   38.1350   22.3430   33.9690 H   0  0  0  0  0  0  0  0  0  0  0  0
   39.2450   23.9080   34.6560 O   0  0  0  0  0  0  0  0  0  0  0  0
   37.4520   22.4100   35.8380 O   0  0  0  0  0  0  0  0  0  0  0  0
   38.3290   23.6220   36.0220 P   0  0  2  0  0  0  0  0  0  0  0  0
   37.3660   25.0310   36.2500 O   0  0  0  0  0  0  0  0  0  0  0  0
   37.6170   26.0130   35.3170 C   0  0  0  0  0  2  0  0  0  0  0  0
   38.3830   27.1820   35.8240 C   0  0  0  0  0  2  0  0  0  0  0  0
   39.4410   27.1160   35.4620 H   0  0  0  0  0  0  0  0  0  0  0  0
   39.2420   23.4480   37.3910 O   0  0  0  0  0  0  0  0  0  0  0  0
   38.5190   23.8050   38.5110 C   0  0  0  0  0  0  0  0  0  0  0  0
   39.2880   23.7060   39.6710 F   0  0  0  0  0  0  0  0  0  0  0  0
   38.0720   25.0970   38.4390 F   0  0  0  0  0  0  0  0  0  0  0  0
   37.4180   22.9680   38.6630 F   0  0  0  0  0  0  0  0  0  0  0  0
  2  7  1  0  0  0  0
  2  1  1  0  0  0  0
  3  2  2  0  0  0  0
  4  5  2  0  0  0  0
  4  3  1  0  0  0  0
  5  6  1  0  0  0  0
  6 10  1  0  0  0  0
  6  7  2  0  0  0  0
  7 22  1  0  0  0  0
  8  4  1  0  0  0  0
  9  5  1  0  0  0  0
 11 16  2  0  0  0  0
 11 12  1  0  0  0  0
 12 13  2  0  0  0  0
 13 14  1  0  0  0  0
 13 19  1  0  0  0  0
 15  3  1  0  0  0  0
 15 14  2  0  0  0  0
 16 15  1  0  0  0  0
 17 11  1  0  0  0  0
 18 12  1  0  0  0  0
 19 21  1  0  0  0  0
 19 20  1  0  0  0  0
 22 25  1  0  0  0  0
 23 22  1  0  0  0  0
 24 22  1  0  0  0  0
 25 26  1  0  0  0  0
 25 27  1  0  0  0  0
 25 28  1  0  0  0  0
 28 30  1  0  0  0  0
 30 29  2  6  0  0  0
 30 31  1  0  0  0  0
 30 35  1  0  0  0  0
 32 33  1  0  0  0  0
 32 31  1  0  0  0  0
 34 33  1  0  0  0  0
 35 36  1  0  0  0  0
 36 39  1  0  0  0  0
 36 37  1  0  0  0  0
 38 36  1  0  0  0  0
M  END
>  <minimizedAffinity>
-5.54646969

$$$$

 OpenBabel03272504433D

 39 40  0  0  0  0  0  0  0  0999 V2000
   38.1850   27.2330   35.6320 Cl  0  0  0  0  0  0  0  0  0  0  0  0
   37.6440   26.3360   34.2120 C   0  0  0  0  0  0  0  0  0  0  0  0
   37.9020   25.0130   34.1270 C   0  0  0  0  0  0  0  0  0  0  0  0
   37.4850   24.3020   33.0220 C   0  0  0  0  0  0  0  0  0  0  0  0
   36.8010   24.9710   32.0120 C   0  0  0  0  0  0  0  0  0  0  0  0
   36.5700   26.3500   32.1750 C   0  0  0  0  0  0  0  0  0  0  0  0
   36.9720   27.0530   33.2450 C   0  0  0  0  0  0  0  0  0  0  0  0
   37.7040   23.2290   32.9720 H   0  0  0  0  0  0  0  0  0  0  0  0
   36.5210   24.3310   31.2020 H   0  0  0  0  0  0  0  0  0  0  0  0
   36.0610   26.6540   31.3310 H   0  0  0  0  0  0  0  0  0  0  0  0
   40.5760   23.4160   36.1040 C   0  0  0  0  0  0  0  0  0  0  0  0
   39.8390   22.9960   37.2540 C   0  0  0  0  0  0  0  0  0  0  0  0
   38.4600   23.2810   37.3000 C   0  0  0  0  0  0  0  0  0  0  0  0
   37.8890   23.9370   36.2570 N   0  0  0  0  0  0  0  0  0  0  0  0
   38.6200   24.3200   35.1830 C   0  0  0  0  0  0  0  0  0  0  0  0
   39.9310   24.0570   35.1220 N   0  0  0  0  0  0  0  0  0  0  0  0
   41.6280   23.2080   36.0500 H   0  0  0  0  0  0  0  0  0  0  0  0
   40.3460   22.4790   38.0500 H   0  0  0  0  0  0  0  0  0  0  0  0
   37.7770   22.8530   38.4430 N   0  0  0  0  0  0  0  0  0  0  0  0
   37.4200   21.8930   38.6590 H   0  0  0  0  0  0  0  0  0  0  0  0
   37.5350   23.4850   39.2550 H   0  0  0  0  0  0  0  0  0  0  0  0
   36.7160   28.4580   33.3570 C   0  0  0  0  0  0  0  0  0  0  0  0
   37.3350   28.9730   32.5640 H   0  0  0  0  0  0  0  0  0  0  0  0
   37.1760   28.8300   34.3060 H   0  0  0  0  0  0  0  0  0  0  0  0
   35.3460   28.9630   33.2940 C   0  0  0  0  0  0  0  0  0  0  0  0
   34.6580   28.3170   32.6840 H   0  0  0  0  0  0  0  0  0  0  0  0
   35.3300   29.9500   32.7860 H   0  0  0  0  0  0  0  0  0  0  0  0
   34.7910   29.0740   34.5450 O   0  0  0  0  0  0  0  0  0  0  0  0
   33.2800   30.6130   36.0300 O   0  0  0  0  0  0  0  0  0  0  0  0
   34.0600   30.5610   34.7400 P   0  0  2  0  0  0  0  0  0  0  0  0
   33.0050   30.7510   33.3920 O   0  0  0  0  0  0  0  0  0  0  0  0
   31.7350   30.2720   33.6310 C   0  0  0  0  0  2  0  0  0  0  0  0
   31.5280   28.8410   33.2830 C   0  0  0  0  0  2  0  0  0  0  0  0
   31.5090   28.2330   34.2240 H   0  0  0  0  0  0  0  0  0  0  0  0
   35.1300   31.8220   34.6830 O   0  0  0  0  0  0  0  0  0  0  0  0
   35.9730   31.8000   35.7760 C   0  0  0  0  0  0  0  0  0  0  0  0
   35.2900   32.1010   36.9560 F   0  0  0  0  0  0  0  0  0  0  0  0
   36.5470   30.5690   35.9510 F   0  0  0  0  0  0  0  0  0  0  0  0
   36.9870   32.7400   35.6240 F   0  0  0  0  0  0  0  0  0  0  0  0
  2  1  1  0  0  0  0
  3  2  1  0  0  0  0
  3 15  1  0  0  0  0
  4  3  2  0  0  0  0
  5  6  2  0  0  0  0
  5  4  1  0  0  0  0
  6  7  1  0  0  0  0
  7 22  1  0  0  0  0
  7  2  2  0  0  0  0
  8  4  1  0  0  0  0
  9  5  1  0  0  0  0
 10  6  1  0  0  0  0
 11 12  1  0  0  0  0
 12 13  2  0  0  0  0
 12 18  1  0  0  0  0
 13 19  1  0  0  0  0
 14 13  1  0  0  0  0
 15 14  2  0  0  0  0
 16 15  1  0  0  0  0
 16 11  2  0  0  0  0
 17 11  1  0  0  0  0
 19 20  1  0  0  0  0
 19 21  1  0  0  0  0
 22 24  1  0  0  0  0
 23 22  1  0  0  0  0
 25 22  1  0  0  0  0
 25 28  1  0  0  0  0
 26 25  1  0  0  0  0
 27 25  1  0  0  0  0
 28 30  1  0  0  0  0
 30 29  2  1  0  0  0
 31 32  1  0  0  0  0
 31 30  1  0  0  0  0
 33 32  1  0  0  0  0
 33 34  1  0  0  0  0
 35 30  1  0  0  0  0
 35 36  1  0  0  0  0
 36 38  1  0  0  0  0
 36 37  1  0  0  0  0
 39 36  1  0  0  0  0
M  END
>  <minimizedAffinity>
-5.50970984

$$$$

 OpenBabel03272504433D

 39 40  0  0  0  0  0  0  0  0999 V2000
   38.5610   26.8760   36.1360 Cl  0  0  0  0  0  0  0  0  0  0  0  0
   38.0230   25.9990   34.7030 C   0  0  0  0  0  0  0  0  0  0  0  0
   38.3560   24.6980   34.5580 C   0  0  0  0  0  0  0  0  0  0  0  0
   37.9410   24.0040   33.4420 C   0  0  0  0  0  0  0  0  0  0  0  0
   37.1810   24.6650   32.4830 C   0  0  0  0  0  0  0  0  0  0  0  0
   36.8740   26.0210   32.7060 C   0  0  0  0  0  0  0  0  0  0  0  0
   37.2730   26.7080   33.7880 C   0  0  0  0  0  0  0  0  0  0  0  0
   38.2220   22.9490   33.3440 H   0  0  0  0  0  0  0  0  0  0  0  0
   36.9100   24.0390   31.6590 H   0  0  0  0  0  0  0  0  0  0  0  0
   36.3170   26.3230   31.8930 H   0  0  0  0  0  0  0  0  0  0  0  0
   41.1600   23.0690   36.3150 C   0  0  0  0  0  0  0  0  0  0  0  0
   40.5290   22.7100   37.5450 C   0  0  0  0  0  0  0  0  0  0  0  0
   39.1720   23.0450   37.7180 C   0  0  0  0  0  0  0  0  0  0  0  0
   38.5210   23.6890   36.7150 N   0  0  0  0  0  0  0  0  0  0  0  0
   39.1530   24.0130   35.5610 C   0  0  0  0  0  0  0  0  0  0  0  0
   40.4420   23.7020   35.3800 N   0  0  0  0  0  0  0  0  0  0  0  0
   42.1950   22.8220   36.1650 H   0  0  0  0  0  0  0  0  0  0  0  0
   41.0960   22.2000   38.3040 H   0  0  0  0  0  0  0  0  0  0  0  0
   38.5920   22.6760   38.9360 N   0  0  0  0  0  0  0  0  0  0  0  0
   38.2280   21.7370   39.2190 H   0  0  0  0  0  0  0  0  0  0  0  0
   38.4540   23.3410   39.7460 H   0  0  0  0  0  0  0  0  0  0  0  0
   36.9370   28.0900   33.9630 C   0  0  0  0  0  0  0  0  0  0  0  0
   37.8140   28.6950   33.5850 H   0  0  0  0  0  0  0  0  0  0  0  0
   36.9350   28.3210   35.0570 H   0  0  0  0  0  0  0  0  0  0  0  0
   35.7050   28.6250   33.3880 C   0  0  0  0  0  0  0  0  0  0  0  0
   35.0770   27.8490   32.8740 H   0  0  0  0  0  0  0  0  0  0  0  0
   35.9480   29.3620   32.5940 H   0  0  0  0  0  0  0  0  0  0  0  0
   34.9170   29.2140   34.3450 O   0  0  0  0  0  0  0  0  0  0  0  0
   34.3270   30.6810   32.2580 O   0  0  0  0  0  0  0  0  0  0  0  0
   34.2180   30.6120   33.7600 P   0  0  2  0  0  0  0  0  0  0  0  0
   35.0830   31.9130   34.4850 O   0  0  0  0  0  0  0  0  0  0  0  0
   35.6160   31.5880   35.7130 C   0  0  0  0  0  2  0  0  0  0  0  0
   34.7860   31.9790   36.8830 C   0  0  0  0  0  2  0  0  0  0  0  0
   34.2830   31.0690   37.2990 H   0  0  0  0  0  0  0  0  0  0  0  0
   32.6370   30.7860   34.2150 O   0  0  0  0  0  0  0  0  0  0  0  0
   32.0100   29.5580   34.2920 C   0  0  0  0  0  0  0  0  0  0  0  0
   30.6240   29.6940   34.3680 F   0  0  0  0  0  0  0  0  0  0  0  0
   32.2750   28.7820   33.1950 F   0  0  0  0  0  0  0  0  0  0  0  0
   32.4300   28.8720   35.4270 F   0  0  0  0  0  0  0  0  0  0  0  0
  2  1  1  0  0  0  0
  3  2  1  0  0  0  0
  3 15  1  0  0  0  0
  4  3  2  0  0  0  0
  5  6  2  0  0  0  0
  5  4  1  0  0  0  0
  6  7  1  0  0  0  0
  7 22  1  0  0  0  0
  7  2  2  0  0  0  0
  8  4  1  0  0  0  0
  9  5  1  0  0  0  0
 10  6  1  0  0  0  0
 11 12  1  0  0  0  0
 12 13  2  0  0  0  0
 12 18  1  0  0  0  0
 13 19  1  0  0  0  0
 14 13  1  0  0  0  0
 15 14  2  0  0  0  0
 16 15  1  0  0  0  0
 16 11  2  0  0  0  0
 17 11  1  0  0  0  0
 19 20  1  0  0  0  0
 19 21  1  0  0  0  0
 22 24  1  0  0  0  0
 23 22  1  0  0  0  0
 25 22  1  0  0  0  0
 25 28  1  0  0  0  0
 26 25  1  0  0  0  0
 27 25  1  0  0  0  0
 30 29  2  6  0  0  0
 30 35  1  0  0  0  0
 30 28  1  0  0  0  0
 30 31  1  0  0  0  0
 31 32  1  0  0  0  0
 32 33  1  0  0  0  0
 33 34  1  0  0  0  0
 35 36  1  0  0  0  0
 36 37  1  0  0  0  0
 36 39  1  0  0  0  0
 38 36  1  0  0  0  0
M  END
>  <minimizedAffinity>
-5.41527367

$$$$

 OpenBabel03272504433D

 39 40  0  0  0  0  0  0  0  0999 V2000
   36.6450   27.5590   34.9210 Cl  0  0  0  0  0  0  0  0  0  0  0  0
   37.0580   27.8620   33.2330 C   0  0  0  0  0  0  0  0  0  0  0  0
   36.3080   28.7210   32.5110 C   0  0  0  0  0  0  0  0  0  0  0  0
   36.6230   28.9640   31.1910 C   0  0  0  0  0  0  0  0  0  0  0  0
   37.7160   28.3120   30.6290 C   0  0  0  0  0  0  0  0  0  0  0  0
   38.4490   27.4320   31.4480 C   0  0  0  0  0  0  0  0  0  0  0  0
   38.1520   27.1860   32.7330 C   0  0  0  0  0  0  0  0  0  0  0  0
   36.0010   29.6650   30.6220 H   0  0  0  0  0  0  0  0  0  0  0  0
   37.8740   28.5700   29.6030 H   0  0  0  0  0  0  0  0  0  0  0  0
   39.2020   27.0550   30.8540 H   0  0  0  0  0  0  0  0  0  0  0  0
   34.2190   30.9600   34.5660 C   0  0  0  0  0  0  0  0  0  0  0  0
   32.9130   30.5780   34.1300 C   0  0  0  0  0  0  0  0  0  0  0  0
   32.8080   29.5720   33.1490 C   0  0  0  0  0  0  0  0  0  0  0  0
   33.9440   29.0080   32.6630 N   0  0  0  0  0  0  0  0  0  0  0  0
   35.1650   29.3960   33.1010 C   0  0  0  0  0  0  0  0  0  0  0  0
   35.2830   30.3500   34.0330 N   0  0  0  0  0  0  0  0  0  0  0  0
   34.3190   31.7250   35.3130 H   0  0  0  0  0  0  0  0  0  0  0  0
   32.0490   31.0610   34.5520 H   0  0  0  0  0  0  0  0  0  0  0  0
   31.5120   29.2290   32.7500 N   0  0  0  0  0  0  0  0  0  0  0  0
   30.8340   28.5980   33.2370 H   0  0  0  0  0  0  0  0  0  0  0  0
   31.0550   29.5880   31.8680 H   0  0  0  0  0  0  0  0  0  0  0  0
   38.9290   26.2750   33.5190 C   0  0  0  0  0  0  0  0  0  0  0  0
   38.8520   26.6140   34.5950 H   0  0  0  0  0  0  0  0  0  0  0  0
   40.0110   26.4380   33.2900 H   0  0  0  0  0  0  0  0  0  0  0  0
   38.6680   24.8390   33.4530 C   0  0  0  0  0  0  0  0  0  0  0  0
   39.6020   24.2140   33.4410 H   0  0  0  0  0  0  0  0  0  0  0  0
   38.1520   24.5930   32.5010 H   0  0  0  0  0  0  0  0  0  0  0  0
   37.9110   24.4140   34.5160 O   0  0  0  0  0  0  0  0  0  0  0  0
   39.8860   22.6950   34.5610 O   0  0  0  0  0  0  0  0  0  0  0  0
   38.6620   23.1540   35.3120 P   0  0  2  0  0  0  0  0  0  0  0  0
   37.4980   21.8870   35.3970 O   0  0  0  0  0  0  0  0  0  0  0  0
   37.0170   21.5140   34.1600 C   0  0  0  0  0  2  0  0  0  0  0  0
   35.7350   20.7620   34.1850 C   0  0  0  0  0  2  0  0  0  0  0  0
   34.9030   21.4420   33.8680 H   0  0  0  0  0  0  0  0  0  0  0  0
   39.0700   23.5230   36.8720 O   0  0  0  0  0  0  0  0  0  0  0  0
   38.1490   24.3880   37.4290 C   0  0  0  0  0  0  0  0  0  0  0  0
   38.3060   25.6860   36.9440 F   0  0  0  0  0  0  0  0  0  0  0  0
   36.8630   24.0110   37.1480 F   0  0  0  0  0  0  0  0  0  0  0  0
   38.3000   24.4320   38.8110 F   0  0  0  0  0  0  0  0  0  0  0  0
  2  1  1  0  0  0  0
  3 15  1  0  0  0  0
  3  2  2  0  0  0  0
  4  3  1  0  0  0  0
  5  4  2  0  0  0  0
  5  6  1  0  0  0  0
  6  7  2  0  0  0  0
  7  2  1  0  0  0  0
  7 22  1  0  0  0  0
  8  4  1  0  0  0  0
  9  5  1  0  0  0  0
 10  6  1  0  0  0  0
 11 17  1  0  0  0  0
 12 18  1  0  0  0  0
 12 11  1  0  0  0  0
 13 12  2  0  0  0  0
 14 15  2  0  0  0  0
 14 13  1  0  0  0  0
 15 16  1  0  0  0  0
 16 11  2  0  0  0  0
 19 13  1  0  0  0  0
 19 20  1  0  0  0  0
 21 19  1  0  0  0  0
 22 23  1  0  0  0  0
 24 22  1  0  0  0  0
 25 22  1  0  0  0  0
 25 28  1  0  0  0  0
 26 25  1  0  0  0  0
 27 25  1  0  0  0  0
 28 30  1  0  0  0  0
 30 29  2  6  0  0  0
 30 31  1  0  0  0  0
 30 35  1  0  0  0  0
 32 33  1  0  0  0  0
 32 31  1  0  0  0  0
 34 33  1  0  0  0  0
 35 36  1  0  0  0  0
 36 39  1  0  0  0  0
 37 36  1  0  0  0  0
 38 36  1  0  0  0  0
M  END
>  <minimizedAffinity>
-5.29256487

$$$$

 OpenBabel03272504433D

 39 40  0  0  0  0  0  0  0  0999 V2000
   39.0320   23.0630   33.4210 Cl  0  0  0  0  0  0  0  0  0  0  0  0
   39.7070   24.6860   33.5690 C   0  0  0  0  0  0  0  0  0  0  0  0
   39.8800   25.2210   34.7970 C   0  0  0  0  0  0  0  0  0  0  0  0
   40.4070   26.4900   34.9240 C   0  0  0  0  0  0  0  0  0  0  0  0
   40.7490   27.1930   33.7740 C   0  0  0  0  0  0  0  0  0  0  0  0
   40.5390   26.5660   32.5310 C   0  0  0  0  0  0  0  0  0  0  0  0
   40.0270   25.3330   32.3940 C   0  0  0  0  0  0  0  0  0  0  0  0
   40.5400   26.9050   35.9290 H   0  0  0  0  0  0  0  0  0  0  0  0
   41.1480   28.1640   33.9810 H   0  0  0  0  0  0  0  0  0  0  0  0
   40.8480   27.2430   31.8170 H   0  0  0  0  0  0  0  0  0  0  0  0
   38.1360   24.1020   37.8470 C   0  0  0  0  0  0  0  0  0  0  0  0
   38.9600   23.0010   38.2340 C   0  0  0  0  0  0  0  0  0  0  0  0
   40.0750   22.6910   37.4310 C   0  0  0  0  0  0  0  0  0  0  0  0
   40.3220   23.4460   36.3300 N   0  0  0  0  0  0  0  0  0  0  0  0
   39.5170   24.4830   35.9940 C   0  0  0  0  0  0  0  0  0  0  0  0
   38.4540   24.7920   36.7460 N   0  0  0  0  0  0  0  0  0  0  0  0
   37.2810   24.3530   38.4470 H   0  0  0  0  0  0  0  0  0  0  0  0
   38.7150   22.4380   39.1180 H   0  0  0  0  0  0  0  0  0  0  0  0
   40.8550   21.6060   37.8450 N   0  0  0  0  0  0  0  0  0  0  0  0
   41.5910   21.5880   38.5890 H   0  0  0  0  0  0  0  0  0  0  0  0
   40.7810   20.6370   37.4300 H   0  0  0  0  0  0  0  0  0  0  0  0
   39.8270   24.7450   31.1040 C   0  0  0  0  0  0  0  0  0  0  0  0
   39.9660   23.6290   31.2210 H   0  0  0  0  0  0  0  0  0  0  0  0
   40.6850   25.0290   30.4450 H   0  0  0  0  0  0  0  0  0  0  0  0
   38.5920   24.9960   30.3640 C   0  0  0  0  0  0  0  0  0  0  0  0
   38.7300   24.9930   29.2490 H   0  0  0  0  0  0  0  0  0  0  0  0
   38.2110   26.0120   30.5990 H   0  0  0  0  0  0  0  0  0  0  0  0
   37.6320   24.0590   30.6540 O   0  0  0  0  0  0  0  0  0  0  0  0
   35.7700   25.8730   30.3410 O   0  0  0  0  0  0  0  0  0  0  0  0
   36.2590   24.7850   31.2640 P   0  0  2  0  0  0  0  0  0  0  0  0
   36.7110   25.4490   32.7870 O   0  0  0  0  0  0  0  0  0  0  0  0
   36.6810   26.8270   32.8050 C   0  0  0  0  0  2  0  0  0  0  0  0
   36.9350   27.4440   34.1340 C   0  0  0  0  0  2  0  0  0  0  0  0
   37.9760   27.8580   34.1550 H   0  0  0  0  0  0  0  0  0  0  0  0
   35.0350   23.7130   31.5620 O   0  0  0  0  0  0  0  0  0  0  0  0
   35.5390   22.4620   31.8560 C   0  0  0  0  0  0  0  0  0  0  0  0
   36.1400   21.8760   30.7410 F   0  0  0  0  0  0  0  0  0  0  0  0
   36.4920   22.5170   32.8390 F   0  0  0  0  0  0  0  0  0  0  0  0
   34.5200   21.6170   32.2800 F   0  0  0  0  0  0  0  0  0  0  0  0
  1  2  1  0  0  0  0
  2  3  1  0  0  0  0
  3  4  2  0  0  0  0
  3 15  1  0  0  0  0
  4  8  1  0  0  0  0
  5  9  1  0  0  0  0
  5  4  1  0  0  0  0
  6  5  2  0  0  0  0
  7  6  1  0  0  0  0
  7  2  2  0  0  0  0
 10  6  1  0  0  0  0
 11 12  1  0  0  0  0
 11 17  1  0  0  0  0
 12 18  1  0  0  0  0
 13 19  1  0  0  0  0
 13 12  2  0  0  0  0
 14 13  1  0  0  0  0
 15 14  2  0  0  0  0
 15 16  1  0  0  0  0
 16 11  2  0  0  0  0
 19 20  1  0  0  0  0
 21 19  1  0  0  0  0
 22 23  1  0  0  0  0
 22  7  1  0  0  0  0
 24 22  1  0  0  0  0
 25 27  1  0  0  0  0
 25 28  1  0  0  0  0
 25 22  1  0  0  0  0
 26 25  1  0  0  0  0
 28 30  1  0  0  0  0
 30 29  2  6  0  0  0
 30 35  1  0  0  0  0
 30 31  1  0  0  0  0
 31 32  1  0  0  0  0
 32 33  1  0  0  0  0
 33 34  1  0  0  0  0
 35 36  1  0  0  0  0
 36 39  1  0  0  0  0
 36 38  1  0  0  0  0
 37 36  1  0  0  0  0
M  END
>  <minimizedAffinity>
-5.24541426

$$$$

 OpenBabel03272504433D

 39 40  0  0  0  0  0  0  0  0999 V2000
   38.8660   27.1420   32.2430 Cl  0  0  0  0  0  0  0  0  0  0  0  0
   37.4720   26.1770   31.7560 C   0  0  0  0  0  0  0  0  0  0  0  0
   36.3080   26.7950   31.4620 C   0  0  0  0  0  0  0  0  0  0  0  0
   35.2120   26.0500   31.0810 C   0  0  0  0  0  0  0  0  0  0  0  0
   35.3330   24.6660   31.0080 C   0  0  0  0  0  0  0  0  0  0  0  0
   36.5800   24.0960   31.3300 C   0  0  0  0  0  0  0  0  0  0  0  0
   37.6530   24.8100   31.7020 C   0  0  0  0  0  0  0  0  0  0  0  0
   34.2770   26.5710   30.8460 H   0  0  0  0  0  0  0  0  0  0  0  0
   34.4290   24.1830   30.7030 H   0  0  0  0  0  0  0  0  0  0  0  0
   36.4620   23.0780   31.2190 H   0  0  0  0  0  0  0  0  0  0  0  0
   35.7310   30.2130   32.7220 C   0  0  0  0  0  0  0  0  0  0  0  0
   35.9900   30.9770   31.5430 C   0  0  0  0  0  0  0  0  0  0  0  0
   36.3540   30.2860   30.3700 C   0  0  0  0  0  0  0  0  0  0  0  0
   36.4400   28.9310   30.4060 N   0  0  0  0  0  0  0  0  0  0  0  0
   36.1870   28.2410   31.5430 C   0  0  0  0  0  0  0  0  0  0  0  0
   35.8390   28.8800   32.6660 N   0  0  0  0  0  0  0  0  0  0  0  0
   35.4520   30.7220   33.6260 H   0  0  0  0  0  0  0  0  0  0  0  0
   35.9060   32.0490   31.5750 H   0  0  0  0  0  0  0  0  0  0  0  0
   36.6000   31.0720   29.2390 N   0  0  0  0  0  0  0  0  0  0  0  0
   35.9020   31.4900   28.5810 H   0  0  0  0  0  0  0  0  0  0  0  0
   37.5670   31.3410   28.9100 H   0  0  0  0  0  0  0  0  0  0  0  0
   38.8970   24.1780   32.0250 C   0  0  0  0  0  0  0  0  0  0  0  0
   39.6690   24.9970   32.1290 H   0  0  0  0  0  0  0  0  0  0  0  0
   39.2560   23.6170   31.1270 H   0  0  0  0  0  0  0  0  0  0  0  0
   38.9910   23.2860   33.1780 C   0  0  0  0  0  0  0  0  0  0  0  0
   40.0150   23.2590   33.6410 H   0  0  0  0  0  0  0  0  0  0  0  0
   38.7970   22.2400   32.8630 H   0  0  0  0  0  0  0  0  0  0  0  0
   38.1100   23.6460   34.1680 O   0  0  0  0  0  0  0  0  0  0  0  0
   40.1350   23.3540   35.8020 O   0  0  0  0  0  0  0  0  0  0  0  0
   38.9250   24.2060   35.5120 P   0  0  2  0  0  0  0  0  0  0  0  0
   37.8040   24.1200   36.8170 O   0  0  0  0  0  0  0  0  0  0  0  0
   38.1860   23.2300   37.7970 C   0  0  0  0  0  2  0  0  0  0  0  0
   38.6480   23.8540   39.0660 C   0  0  0  0  0  2  0  0  0  0  0  0
   37.8430   23.7540   39.8390 H   0  0  0  0  0  0  0  0  0  0  0  0
   39.3770   25.7930   35.3830 O   0  0  0  0  0  0  0  0  0  0  0  0
   38.3550   26.6280   35.7890 C   0  0  0  0  0  0  0  0  0  0  0  0
   37.1390   26.2720   35.2040 F   0  0  0  0  0  0  0  0  0  0  0  0
   38.1720   26.5860   37.1450 F   0  0  0  0  0  0  0  0  0  0  0  0
   38.6300   27.9410   35.4230 F   0  0  0  0  0  0  0  0  0  0  0  0
  2  1  1  0  0  0  0
  3 15  1  0  0  0  0
  3  2  2  0  0  0  0
  4  3  1  0  0  0  0
  5  4  2  0  0  0  0
  5  6  1  0  0  0  0
  6  7  2  0  0  0  0
  7  2  1  0  0  0  0
  7 22  1  0  0  0  0
  8  4  1  0  0  0  0
  9  5  1  0  0  0  0
 10  6  1  0  0  0  0
 11 17  1  0  0  0  0
 12 18  1  0  0  0  0
 12 11  2  0  0  0  0
 13 14  2  0  0  0  0
 13 12  1  0  0  0  0
 14 15  1  0  0  0  0
 15 16  2  0  0  0  0
 16 11  1  0  0  0  0
 19 13  1  0  0  0  0
 20 19  1  0  0  0  0
 21 19  1  0  0  0  0
 22 23  1  0  0  0  0
 22 25  1  0  0  0  0
 24 22  1  0  0  0  0
 25 26  1  0  0  0  0
 25 28  1  0  0  0  0
 27 25  1  0  0  0  0
 28 30  1  0  0  0  0
 30 29  2  1  0  0  0
 30 31  1  0  0  0  0
 31 32  1  0  0  0  0
 32 33  1  0  0  0  0
 33 34  1  0  0  0  0
 35 30  1  0  0  0  0
 35 36  1  0  0  0  0
 36 38  1  0  0  0  0
 37 36  1  0  0  0  0
 39 36  1  0  0  0  0
M  END
>  <minimizedAffinity>
-5.22403622

$$$$

 OpenBabel03272504433D

 39 40  0  0  0  0  0  0  0  0999 V2000
   38.7260   26.9670   35.9010 Cl  0  0  0  0  0  0  0  0  0  0  0  0
   38.0770   26.0410   34.5460 C   0  0  0  0  0  0  0  0  0  0  0  0
   38.3530   24.7230   34.4520 C   0  0  0  0  0  0  0  0  0  0  0  0
   37.8510   23.9910   33.3970 C   0  0  0  0  0  0  0  0  0  0  0  0
   37.0660   24.6340   32.4460 C   0  0  0  0  0  0  0  0  0  0  0  0
   36.8240   26.0110   32.6140 C   0  0  0  0  0  0  0  0  0  0  0  0
   37.3070   26.7340   33.6360 C   0  0  0  0  0  0  0  0  0  0  0  0
   38.0860   22.9210   33.3400 H   0  0  0  0  0  0  0  0  0  0  0  0
   36.7270   23.9780   31.6710 H   0  0  0  0  0  0  0  0  0  0  0  0
   36.2350   26.2930   31.8160 H   0  0  0  0  0  0  0  0  0  0  0  0
   41.2170   23.1750   36.1850 C   0  0  0  0  0  0  0  0  0  0  0  0
   40.6030   22.7850   37.4150 C   0  0  0  0  0  0  0  0  0  0  0  0
   39.2350   23.0720   37.5950 C   0  0  0  0  0  0  0  0  0  0  0  0
   38.5600   23.7020   36.5990 N   0  0  0  0  0  0  0  0  0  0  0  0
   39.1760   24.0570   35.4470 C   0  0  0  0  0  0  0  0  0  0  0  0
   40.4740   23.7920   35.2580 N   0  0  0  0  0  0  0  0  0  0  0  0
   42.2580   22.9650   36.0300 H   0  0  0  0  0  0  0  0  0  0  0  0
   41.1890   22.2890   38.1680 H   0  0  0  0  0  0  0  0  0  0  0  0
   38.6730   22.6740   38.8120 N   0  0  0  0  0  0  0  0  0  0  0  0
   38.3420   21.7200   39.0880 H   0  0  0  0  0  0  0  0  0  0  0  0
   38.5150   23.3270   39.6280 H   0  0  0  0  0  0  0  0  0  0  0  0
   37.0340   28.1350   33.7550 C   0  0  0  0  0  0  0  0  0  0  0  0
   36.9550   28.5490   32.7060 H   0  0  0  0  0  0  0  0  0  0  0  0
   37.9480   28.6440   34.1500 H   0  0  0  0  0  0  0  0  0  0  0  0
   35.8900   28.5980   34.5370 C   0  0  0  0  0  0  0  0  0  0  0  0
   36.1750   29.0440   35.5280 H   0  0  0  0  0  0  0  0  0  0  0  0
   35.2350   27.7380   34.7920 H   0  0  0  0  0  0  0  0  0  0  0  0
   35.1680   29.5490   33.8590 O   0  0  0  0  0  0  0  0  0  0  0  0
   36.1960   30.9570   35.8130 O   0  0  0  0  0  0  0  0  0  0  0  0
   35.3610   31.0510   34.5600 P   0  0  2  0  0  0  0  0  0  0  0  0
   33.7750   31.6070   34.9350 O   0  0  0  0  0  0  0  0  0  0  0  0
   33.1030   30.7730   35.8010 C   0  0  0  0  0  2  0  0  0  0  0  0
   32.8670   31.3330   37.1580 C   0  0  0  0  0  2  0  0  0  0  0  0
   31.7940   31.6440   37.2470 H   0  0  0  0  0  0  0  0  0  0  0  0
   36.0210   32.1660   33.5320 O   0  0  0  0  0  0  0  0  0  0  0  0
   35.7950   31.8150   32.2160 C   0  0  0  0  0  0  0  0  0  0  0  0
   36.6140   30.7570   31.8200 F   0  0  0  0  0  0  0  0  0  0  0  0
   34.5010   31.4150   32.0120 F   0  0  0  0  0  0  0  0  0  0  0  0
   36.0590   32.8910   31.3760 F   0  0  0  0  0  0  0  0  0  0  0  0
  2  1  1  0  0  0  0
  3  2  1  0  0  0  0
  3 15  1  0  0  0  0
  4  3  2  0  0  0  0
  5  6  2  0  0  0  0
  5  4  1  0  0  0  0
  6  7  1  0  0  0  0
  7 22  1  0  0  0  0
  7  2  2  0  0  0  0
  8  4  1  0  0  0  0
  9  5  1  0  0  0  0
 10  6  1  0  0  0  0
 11 12  1  0  0  0  0
 12 13  2  0  0  0  0
 12 18  1  0  0  0  0
 13 19  1  0  0  0  0
 14 13  1  0  0  0  0
 15 14  2  0  0  0  0
 16 15  1  0  0  0  0
 16 11  2  0  0  0  0
 17 11  1  0  0  0  0
 19 20  1  0  0  0  0
 19 21  1  0  0  0  0
 22 24  1  0  0  0  0
 22 25  1  0  0  0  0
 23 22  1  0  0  0  0
 25 27  1  0  0  0  0
 25 26  1  0  0  0  0
 28 25  1  0  0  0  0
 28 30  1  0  0  0  0
 30 31  1  0  0  0  0
 30 29  2  1  0  0  0
 31 32  1  0  0  0  0
 32 33  1  0  0  0  0
 33 34  1  0  0  0  0
 35 30  1  0  0  0  0
 36 35  1  0  0  0  0
 37 36  1  0  0  0  0
 38 36  1  0  0  0  0
 39 36  1  0  0  0  0
M  END
>  <minimizedAffinity>
-5.1641674

$$$$

 OpenBabel03272504433D

 39 40  0  0  0  0  0  0  0  0999 V2000
   36.8560   27.3020   34.9900 Cl  0  0  0  0  0  0  0  0  0  0  0  0
   36.9640   27.8900   33.3300 C   0  0  0  0  0  0  0  0  0  0  0  0
   36.1730   28.9110   32.9360 C   0  0  0  0  0  0  0  0  0  0  0  0
   36.2490   29.3780   31.6410 C   0  0  0  0  0  0  0  0  0  0  0  0
   37.1470   28.7800   30.7630 C   0  0  0  0  0  0  0  0  0  0  0  0
   37.9370   27.7210   31.2490 C   0  0  0  0  0  0  0  0  0  0  0  0
   37.8720   27.2570   32.5070 C   0  0  0  0  0  0  0  0  0  0  0  0
   35.5990   30.2080   31.3420 H   0  0  0  0  0  0  0  0  0  0  0  0
   37.1280   29.2150   29.7860 H   0  0  0  0  0  0  0  0  0  0  0  0
   38.5230   27.4190   30.4570 H   0  0  0  0  0  0  0  0  0  0  0  0
   33.0700   29.8560   34.6920 C   0  0  0  0  0  0  0  0  0  0  0  0
   33.5810   30.7790   35.6540 C   0  0  0  0  0  0  0  0  0  0  0  0
   34.9670   31.0340   35.6600 C   0  0  0  0  0  0  0  0  0  0  0  0
   35.7550   30.3990   34.7550 N   0  0  0  0  0  0  0  0  0  0  0  0
   35.2340   29.5290   33.8570 C   0  0  0  0  0  0  0  0  0  0  0  0
   33.9200   29.2750   33.8370 N   0  0  0  0  0  0  0  0  0  0  0  0
   32.0160   29.6490   34.6720 H   0  0  0  0  0  0  0  0  0  0  0  0
   32.9080   31.2530   36.3470 H   0  0  0  0  0  0  0  0  0  0  0  0
   35.4260   31.9440   36.6180 N   0  0  0  0  0  0  0  0  0  0  0  0
   35.3990   32.9890   36.5800 H   0  0  0  0  0  0  0  0  0  0  0  0
   35.8730   31.6580   37.5320 H   0  0  0  0  0  0  0  0  0  0  0  0
   38.6960   26.1720   32.9480 C   0  0  0  0  0  0  0  0  0  0  0  0
   38.8010   26.2680   34.0690 H   0  0  0  0  0  0  0  0  0  0  0  0
   39.7410   26.3480   32.5890 H   0  0  0  0  0  0  0  0  0  0  0  0
   38.3350   24.7940   32.6190 C   0  0  0  0  0  0  0  0  0  0  0  0
   39.2170   24.1550   32.3410 H   0  0  0  0  0  0  0  0  0  0  0  0
   37.6820   24.7790   31.7220 H   0  0  0  0  0  0  0  0  0  0  0  0
   37.7020   24.1750   33.6680 O   0  0  0  0  0  0  0  0  0  0  0  0
   40.0590   23.0530   33.8670 O   0  0  0  0  0  0  0  0  0  0  0  0
   38.6050   22.8890   34.2300 P   0  0  2  0  0  0  0  0  0  0  0  0
   37.9520   21.4850   33.4750 O   0  0  0  0  0  0  0  0  0  0  0  0
   36.5930   21.5690   33.2660 C   0  0  0  0  0  2  0  0  0  0  0  0
   35.7640   20.7410   34.1810 C   0  0  0  0  0  2  0  0  0  0  0  0
   35.2900   21.4030   34.9510 H   0  0  0  0  0  0  0  0  0  0  0  0
   38.4590   22.6580   35.8610 O   0  0  0  0  0  0  0  0  0  0  0  0
   38.5130   23.8630   36.5340 C   0  0  0  0  0  0  0  0  0  0  0  0
   37.2630   24.4810   36.5780 F   0  0  0  0  0  0  0  0  0  0  0  0
   38.9240   23.7030   37.8310 F   0  0  0  0  0  0  0  0  0  0  0  0
   39.3920   24.7330   35.8990 F   0  0  0  0  0  0  0  0  0  0  0  0
  2  1  1  0  0  0  0
  3  2  1  0  0  0  0
  3 15  1  0  0  0  0
  4  3  2  0  0  0  0
  5  6  2  0  0  0  0
  5  4  1  0  0  0  0
  6  7  1  0  0  0  0
  7 22  1  0  0  0  0
  7  2  2  0  0  0  0
  8  4  1  0  0  0  0
  9  5  1  0  0  0  0
 10  6  1  0  0  0  0
 11 12  1  0  0  0  0
 12 13  2  0  0  0  0
 12 18  1  0  0  0  0
 13 19  1  0  0  0  0
 14 13  1  0  0  0  0
 15 14  2  0  0  0  0
 16 15  1  0  0  0  0
 16 11  2  0  0  0  0
 17 11  1  0  0  0  0
 19 21  1  0  0  0  0
 20 19  1  0  0  0  0
 22 23  1  0  0  0  0
 24 22  1  0  0  0  0
 25 22  1  0  0  0  0
 25 28  1  0  0  0  0
 26 25  1  0  0  0  0
 27 25  1  0  0  0  0
 28 30  1  0  0  0  0
 30 29  2  6  0  0  0
 30 35  1  0  0  0  0
 31 30  1  0  0  0  0
 32 31  1  0  0  0  0
 32 33  1  0  0  0  0
 33 34  1  0  0  0  0
 35 36  1  0  0  0  0
 36 37  1  0  0  0  0
 36 38  1  0  0  0  0
 39 36  1  0  0  0  0
M  END
>  <minimizedAffinity>
-5.14011192

$$$$
