
 OpenBabel03272510103D

 22 23  0  0  0  0  0  0  0  0999 V2000
   35.3330   30.1670   48.3570 C   0  0  0  0  0  0  0  0  0  0  0  0
   35.6180   30.7110   49.5900 C   0  0  0  0  0  0  0  0  0  0  0  0
   36.7780   31.4400   49.8170 C   0  0  0  0  0  0  0  0  0  0  0  0
   37.6900   31.6530   48.8280 C   0  0  0  0  0  0  0  0  0  0  0  0
   37.3660   31.0920   47.6120 C   0  0  0  0  0  0  0  0  0  0  0  0
   36.2440   30.3850   47.3860 N   0  0  0  0  0  0  0  0  0  0  0  0
   34.9290   30.5720   50.4130 H   0  0  0  0  0  0  0  0  0  0  0  0
   36.9950   31.8680   50.8050 H   0  0  0  0  0  0  0  0  0  0  0  0
   38.0000   31.1840   46.7390 H   0  0  0  0  0  0  0  0  0  0  0  0
   33.6110   28.4330   48.9790 C   0  0  0  0  0  0  0  0  0  0  0  0
   34.1320   29.4010   48.0910 C   0  0  0  0  0  0  0  0  0  0  0  0
   33.4480   29.6130   46.9130 C   0  0  0  0  0  0  0  0  0  0  0  0
   32.3180   28.9010   46.6480 N   0  0  0  0  0  0  0  0  0  0  0  0
   31.8510   27.9810   47.5290 C   0  0  0  0  0  0  0  0  0  0  0  0
   32.4930   27.7510   48.6810 N   0  0  0  0  0  0  0  0  0  0  0  0
   34.2000   28.3190   49.8820 H   0  0  0  0  0  0  0  0  0  0  0  0
   33.7510   30.3340   46.1470 H   0  0  0  0  0  0  0  0  0  0  0  0
   30.9530   27.4050   47.3350 H   0  0  0  0  0  0  0  0  0  0  0  0
   38.8740   32.3620   48.9460 O   0  0  0  0  0  0  0  0  0  0  0  0
   38.8900   33.6860   49.4160 C   0  0  0  0  0  2  0  0  0  0  0  0
   39.8580   34.4680   48.5610 C   0  0  0  0  0  2  0  0  0  0  0  0
   40.6430   33.7590   48.1950 H   0  0  0  0  0  0  0  0  0  0  0  0
  1  2  1  0  0  0  0
  2  3  2  0  0  0  0
  2  7  1  0  0  0  0
  3  8  1  0  0  0  0
  4 19  1  0  0  0  0
  4  3  1  0  0  0  0
  5  4  2  0  0  0  0
  6  5  1  0  0  0  0
  6  1  2  0  0  0  0
  9  5  1  0  0  0  0
 10 16  1  0  0  0  0
 11  1  1  0  0  0  0
 11 10  2  0  0  0  0
 12 11  1  0  0  0  0
 13 12  2  0  0  0  0
 13 14  1  0  0  0  0
 14 15  2  0  0  0  0
 15 10  1  0  0  0  0
 17 12  1  0  0  0  0
 18 14  1  0  0  0  0
 19 20  1  0  0  0  0
 21 20  1  0  0  0  0
 22 21  1  0  0  0  0
M  END
>  <minimizedAffinity>
-4.52270174

>  <minimizedRMSD>
3.3604207

$$$$
