
 OpenBabel03272507373D

 17 17  0  0  0  0  0  0  0  0999 V2000
   36.1560   30.5940   48.6450 C   0  0  0  0  0  0  0  0  0  0  0  0
   37.4030   30.8630   48.0680 C   0  0  0  0  0  0  0  0  0  0  0  0
   37.5590   30.7680   46.6840 C   0  0  0  0  0  0  0  0  0  0  0  0
   36.4540   30.4090   45.9580 N   0  0  0  0  0  0  0  0  0  0  0  0
   35.2680   30.1570   46.5330 C   0  0  0  0  0  0  0  0  0  0  0  0
   35.1140   30.2460   47.8470 N   0  0  0  0  0  0  0  0  0  0  0  0
   38.5020   30.9650   46.1890 H   0  0  0  0  0  0  0  0  0  0  0  0
   34.3890   29.8740   45.9670 H   0  0  0  0  0  0  0  0  0  0  0  0
   38.6850   32.5770   49.2200 C   0  0  0  0  0  0  0  0  0  0  0  0
   37.9860   33.6610   49.1340 O   0  0  0  0  0  0  0  0  0  0  0  0
   38.5560   31.2310   48.7620 N   0  0  0  0  0  0  0  0  0  0  0  0
   39.4610   33.0670   49.7990 H   0  0  0  0  0  0  0  0  0  0  0  0
   39.4220   30.7300   49.0590 H   0  0  0  0  0  0  0  0  0  0  0  0
   36.1720   30.7320   50.0080 O   0  0  0  0  0  0  0  0  0  0  0  0
   36.3240   29.5810   50.8150 C   0  0  0  0  0  0  0  0  0  0  0  0
   37.3420   29.8680   51.8940 C   0  0  0  0  0  0  0  0  0  0  0  0
   37.0310   29.4500   52.8850 H   0  0  0  0  0  0  0  0  0  0  0  0
  1 14  1  0  0  0  0
  2  1  1  0  0  0  0
  2 11  1  0  0  0  0
  3  2  2  0  0  0  0
  4  5  2  0  0  0  0
  4  3  1  0  0  0  0
  5  6  1  0  0  0  0
  6  1  2  0  0  0  0
  7  3  1  0  0  0  0
  8  5  1  0  0  0  0
  9 12  1  0  0  0  0
 10  9  2  0  0  0  0
 11 13  1  0  0  0  0
 11  9  1  0  0  0  0
 14 15  1  0  0  0  0
 15 16  1  0  0  0  0
 16 17  1  0  0  0  0
M  END
>  <minimizedAffinity>
-3.99707747

>  <minimizedRMSD>
2.58547187

$$$$
