
 OpenBabel03272504403D

 39 40  0  0  0  0  0  0  0  0999 V2000
   37.5870   30.4620   48.5280 Cl  0  0  0  0  0  0  0  0  0  0  0  0
   36.4390   30.3060   47.1970 C   0  0  0  0  0  0  0  0  0  0  0  0
   36.8090   30.6850   45.9560 C   0  0  0  0  0  0  0  0  0  0  0  0
   35.9190   30.5680   44.9090 C   0  0  0  0  0  0  0  0  0  0  0  0
   34.6500   30.0570   45.1600 C   0  0  0  0  0  0  0  0  0  0  0  0
   34.3400   29.6830   46.4820 C   0  0  0  0  0  0  0  0  0  0  0  0
   35.1970   29.7930   47.5080 C   0  0  0  0  0  0  0  0  0  0  0  0
   36.2390   30.8800   43.9080 H   0  0  0  0  0  0  0  0  0  0  0  0
   34.0380   30.0070   44.2830 H   0  0  0  0  0  0  0  0  0  0  0  0
   33.3690   29.3390   46.4580 H   0  0  0  0  0  0  0  0  0  0  0  0
   39.8020   32.8400   45.9950 C   0  0  0  0  0  0  0  0  0  0  0  0
   40.6630   32.1130   45.1170 C   0  0  0  0  0  0  0  0  0  0  0  0
   40.1790   30.9160   44.5520 C   0  0  0  0  0  0  0  0  0  0  0  0
   38.9230   30.5050   44.8620 N   0  0  0  0  0  0  0  0  0  0  0  0
   38.1350   31.2210   45.6990 C   0  0  0  0  0  0  0  0  0  0  0  0
   38.5780   32.3600   46.2440 N   0  0  0  0  0  0  0  0  0  0  0  0
   40.1530   33.7550   46.4350 H   0  0  0  0  0  0  0  0  0  0  0  0
   41.6500   32.4890   44.9090 H   0  0  0  0  0  0  0  0  0  0  0  0
   41.0540   30.2360   43.6990 N   0  0  0  0  0  0  0  0  0  0  0  0
   41.2590   30.4360   42.6930 H   0  0  0  0  0  0  0  0  0  0  0  0
   41.6330   29.4030   43.9940 H   0  0  0  0  0  0  0  0  0  0  0  0
   34.8270   29.4040   48.8360 C   0  0  0  0  0  0  0  0  0  0  0  0
   34.1810   30.2300   49.2580 H   0  0  0  0  0  0  0  0  0  0  0  0
   35.7350   29.4480   49.4880 H   0  0  0  0  0  0  0  0  0  0  0  0
   34.1700   28.1200   49.0700 C   0  0  0  0  0  0  0  0  0  0  0  0
   34.6170   27.5370   49.9200 H   0  0  0  0  0  0  0  0  0  0  0  0
   34.2960   27.4650   48.1830 H   0  0  0  0  0  0  0  0  0  0  0  0
   32.8350   28.2790   49.3470 O   0  0  0  0  0  0  0  0  0  0  0  0
   32.7520   26.5160   47.4130 O   0  0  0  0  0  0  0  0  0  0  0  0
   31.8980   27.4220   48.2650 P   0  0  2  0  0  0  0  0  0  0  0  0
   31.1070   28.5980   47.2870 O   0  0  0  0  0  0  0  0  0  0  0  0
   30.9220   28.1800   45.9870 C   0  0  0  0  0  0  0  0  0  0  0  0
   29.5540   27.6860   45.6750 C   0  0  0  0  0  0  0  0  0  0  0  0
   29.0060   28.4660   45.0870 H   0  0  0  0  0  0  0  0  0  0  0  0
   30.7060   26.5390   48.9970 O   0  0  0  0  0  0  0  0  0  0  0  0
   29.8790   27.3550   49.7430 C   0  0  0  0  0  0  0  0  0  0  0  0
   29.3090   26.6650   50.8140 F   0  0  0  0  0  0  0  0  0  0  0  0
   30.5580   28.4200   50.2720 F   0  0  0  0  0  0  0  0  0  0  0  0
   28.8420   27.8430   48.9550 F   0  0  0  0  0  0  0  0  0  0  0  0
  2  7  1  0  0  0  0
  2  1  1  0  0  0  0
  3  2  2  0  0  0  0
  4  5  2  0  0  0  0
  4  3  1  0  0  0  0
  5  6  1  0  0  0  0
  6  7  2  0  0  0  0
  7 22  1  0  0  0  0
  8  4  1  0  0  0  0
  9  5  1  0  0  0  0
 10  6  1  0  0  0  0
 11 16  1  0  0  0  0
 11 17  1  0  0  0  0
 12 11  2  0  0  0  0
 13 14  2  0  0  0  0
 13 12  1  0  0  0  0
 14 15  1  0  0  0  0
 15  3  1  0  0  0  0
 15 16  2  0  0  0  0
 18 12  1  0  0  0  0
 19 21  1  0  0  0  0
 19 13  1  0  0  0  0
 20 19  1  0  0  0  0
 22 25  1  0  0  0  0
 22 23  1  0  0  0  0
 22 24  1  0  0  0  0
 25 28  1  0  0  0  0
 25 26  1  0  0  0  0
 27 25  1  0  0  0  0
 30 29  2  6  0  0  0
 30 35  1  0  0  0  0
 30 28  1  0  0  0  0
 31 30  1  0  0  0  0
 32 31  1  0  0  0  0
 33 32  1  0  0  0  0
 34 33  1  0  0  0  0
 35 36  1  0  0  0  0
 36 38  1  0  0  0  0
 36 37  1  0  0  0  0
 39 36  1  0  0  0  0
M  END
>  <minimizedAffinity>
-5.49246025

>  <minimizedRMSD>
0.214013293

$$$$
