
 OpenBabel03262522193D

 13 13  0  0  0  0  0  0  0  0999 V2000
   37.2730   30.4510   51.1200 C   0  0  0  0  0  0  0  0  0  0  0  0
   37.6910   30.8730   49.8400 C   0  0  0  0  0  0  0  0  0  0  0  0
   37.1250   30.2630   48.7330 C   0  0  0  0  0  0  0  0  0  0  0  0
   36.1930   29.2910   48.9310 N   0  0  0  0  0  0  0  0  0  0  0  0
   35.8150   28.9120   50.1550 C   0  0  0  0  0  0  0  0  0  0  0  0
   36.3510   29.4880   51.2560 N   0  0  0  0  0  0  0  0  0  0  0  0
   37.6520   30.8620   52.0230 H   0  0  0  0  0  0  0  0  0  0  0  0
   37.4810   30.6240   47.7780 H   0  0  0  0  0  0  0  0  0  0  0  0
   35.0710   28.1320   50.2180 H   0  0  0  0  0  0  0  0  0  0  0  0
   38.6430   31.8690   49.8560 O   0  0  0  0  0  0  0  0  0  0  0  0
   38.3040   33.0470   49.1250 C   0  0  0  0  0  0  0  0  0  0  0  0
   39.3820   34.0700   49.3070 C   0  0  0  0  0  0  0  0  0  0  0  0
   39.8470   33.8810   50.3160 H   0  0  0  0  0  0  0  0  0  0  0  0
  1  6  1  0  0  0  0
  1  7  1  0  0  0  0
  2 10  1  0  0  0  0
  2  1  2  0  0  0  0
  3  4  2  0  0  0  0
  3  2  1  0  0  0  0
  4  5  1  0  0  0  0
  5  9  1  0  0  0  0
  5  6  2  0  0  0  0
  8  3  1  0  0  0  0
 11 12  1  0  0  0  0
 11 10  1  0  0  0  0
 12 13  1  0  0  0  0
M  END
>  <minimizedAffinity>
-3.56911564

>  <minimizedRMSD>
1.23051679

$$$$
