
 OpenBabel03272503473D

 18 18  0  0  0  0  0  0  0  0999 V2000
   38.8530   24.4270   36.1870 C   0  0  0  0  0  0  0  0  0  0  0  0
   39.7700   23.3950   36.4340 C   0  0  0  0  0  0  0  0  0  0  0  0
   39.7670   22.7870   37.6810 C   0  0  0  0  0  0  0  0  0  0  0  0
   38.8770   23.2090   38.6220 N   0  0  0  0  0  0  0  0  0  0  0  0
   37.9940   24.2200   38.3490 C   0  0  0  0  0  0  0  0  0  0  0  0
   37.9810   24.8280   37.1360 N   0  0  0  0  0  0  0  0  0  0  0  0
   40.4270   23.1490   35.6100 H   0  0  0  0  0  0  0  0  0  0  0  0
   40.4820   22.0100   37.8180 H   0  0  0  0  0  0  0  0  0  0  0  0
   37.3190   24.4940   39.1540 H   0  0  0  0  0  0  0  0  0  0  0  0
   38.7290   25.1300   35.0070 O   0  0  0  0  0  0  0  0  0  0  0  0
   40.7450   26.8740   34.6990 O   0  0  0  0  0  0  0  0  0  0  0  0
   39.2410   26.7680   34.8500 P   0  0  2  0  0  0  0  0  0  0  0  0
   38.8190   27.6250   36.2430 O   0  0  0  0  0  0  0  0  0  0  0  0
   39.5430   27.5510   36.9180 H   0  0  0  0  0  0  0  0  0  0  0  0
   38.4300   27.3720   33.4850 O   0  0  0  0  0  0  0  0  0  0  0  0
   37.0740   27.0520   33.6750 C   0  0  0  0  0  2  0  0  0  0  0  0
   36.2890   28.3410   33.8500 C   0  0  0  0  0  2  0  0  0  0  0  0
   36.0450   28.7080   32.8380 H   0  0  0  0  0  0  0  0  0  0  0  0
  1  2  2  0  0  0  0
  1  6  1  0  0  0  0
  2  3  1  0  0  0  0
  3  8  1  0  0  0  0
  3  4  2  0  0  0  0
  5  4  1  0  0  0  0
  5  9  1  0  0  0  0
  6  5  2  0  0  0  0
  7  2  1  0  0  0  0
 10  1  1  0  0  0  0
 12 11  2  6  0  0  0
 12 10  1  0  0  0  0
 12 13  1  0  0  0  0
 13 14  1  0  0  0  0
 15 16  1  0  0  0  0
 15 12  1  0  0  0  0
 16 17  1  0  0  0  0
 18 17  1  0  0  0  0
M  END
>  <minimizedAffinity>
-4.00155449

$$$$

 OpenBabel03272503473D

 18 18  0  0  0  0  0  0  0  0999 V2000
   38.0420   25.4960   35.5550 C   0  0  0  0  0  0  0  0  0  0  0  0
   38.7470   26.6890   35.7750 C   0  0  0  0  0  0  0  0  0  0  0  0
   39.2650   27.3670   34.6810 C   0  0  0  0  0  0  0  0  0  0  0  0
   39.0740   26.8550   33.4330 N   0  0  0  0  0  0  0  0  0  0  0  0
   38.3820   25.6870   33.2520 C   0  0  0  0  0  0  0  0  0  0  0  0
   37.8670   25.0100   34.3080 N   0  0  0  0  0  0  0  0  0  0  0  0
   38.8330   26.9950   36.8100 H   0  0  0  0  0  0  0  0  0  0  0  0
   39.7910   28.2660   34.9010 H   0  0  0  0  0  0  0  0  0  0  0  0
   38.2760   25.3500   32.2260 H   0  0  0  0  0  0  0  0  0  0  0  0
   37.4690   24.7070   36.5300 O   0  0  0  0  0  0  0  0  0  0  0  0
   37.3290   22.0720   36.0490 O   0  0  0  0  0  0  0  0  0  0  0  0
   38.0360   23.1200   36.8840 P   0  0  2  0  0  0  0  0  0  0  0  0
   37.7250   22.7580   38.5040 O   0  0  0  0  0  0  0  0  0  0  0  0
   36.8190   22.3640   38.5950 H   0  0  0  0  0  0  0  0  0  0  0  0
   39.7060   23.1500   36.5680 O   0  0  0  0  0  0  0  0  0  0  0  0
   40.3210   22.6290   37.7200 C   0  0  0  0  0  2  0  0  0  0  0  0
   41.3290   21.5740   37.2990 C   0  0  0  0  0  2  0  0  0  0  0  0
   42.2660   22.1050   37.0570 H   0  0  0  0  0  0  0  0  0  0  0  0
  1  2  1  0  0  0  0
  1 10  1  0  0  0  0
  2  7  1  0  0  0  0
  3  8  1  0  0  0  0
  3  2  2  0  0  0  0
  4  3  1  0  0  0  0
  5  4  2  0  0  0  0
  5  6  1  0  0  0  0
  6  1  2  0  0  0  0
  9  5  1  0  0  0  0
 10 12  1  0  0  0  0
 12 11  2  6  0  0  0
 12 13  1  0  0  0  0
 13 14  1  0  0  0  0
 15 12  1  0  0  0  0
 15 16  1  0  0  0  0
 17 16  1  0  0  0  0
 18 17  1  0  0  0  0
M  END
>  <minimizedAffinity>
-3.55935383

$$$$

 OpenBabel03272503473D

 18 18  0  0  0  0  0  0  0  0999 V2000
   39.6400   24.1490   35.6770 C   0  0  0  0  0  0  0  0  0  0  0  0
   38.8140   23.8100   36.7590 C   0  0  0  0  0  0  0  0  0  0  0  0
   39.3240   22.9880   37.7530 C   0  0  0  0  0  0  0  0  0  0  0  0
   40.6050   22.5370   37.6480 N   0  0  0  0  0  0  0  0  0  0  0  0
   41.3860   22.8860   36.5780 C   0  0  0  0  0  0  0  0  0  0  0  0
   40.9060   23.6890   35.5950 N   0  0  0  0  0  0  0  0  0  0  0  0
   37.8160   24.2290   36.7310 H   0  0  0  0  0  0  0  0  0  0  0  0
   38.6570   22.7610   38.5520 H   0  0  0  0  0  0  0  0  0  0  0  0
   42.3940   22.4840   36.5720 H   0  0  0  0  0  0  0  0  0  0  0  0
   39.2860   24.9510   34.6120 O   0  0  0  0  0  0  0  0  0  0  0  0
   39.7570   27.0730   33.0400 O   0  0  0  0  0  0  0  0  0  0  0  0
   39.8130   26.5850   34.4730 P   0  0  2  0  0  0  0  0  0  0  0  0
   41.4200   26.7030   34.9770 O   0  0  0  0  0  0  0  0  0  0  0  0
   42.0290   26.5300   34.2120 H   0  0  0  0  0  0  0  0  0  0  0  0
   38.7830   27.4850   35.4810 O   0  0  0  0  0  0  0  0  0  0  0  0
   37.4870   27.0000   35.2330 C   0  0  0  0  0  2  0  0  0  0  0  0
   36.6940   28.0760   34.5140 C   0  0  0  0  0  2  0  0  0  0  0  0
   36.9200   27.9770   33.4380 H   0  0  0  0  0  0  0  0  0  0  0  0
  1  2  1  0  0  0  0
  2  3  2  0  0  0  0
  3  8  1  0  0  0  0
  4  3  1  0  0  0  0
  5  4  2  0  0  0  0
  6  1  2  0  0  0  0
  6  5  1  0  0  0  0
  7  2  1  0  0  0  0
  9  5  1  0  0  0  0
 10  1  1  0  0  0  0
 12 11  2  6  0  0  0
 12 10  1  0  0  0  0
 12 13  1  0  0  0  0
 12 15  1  0  0  0  0
 14 13  1  0  0  0  0
 16 15  1  0  0  0  0
 17 16  1  0  0  0  0
 18 17  1  0  0  0  0
M  END
>  <minimizedAffinity>
-3.48233652

$$$$

 OpenBabel03272503473D

 18 18  0  0  0  0  0  0  0  0999 V2000
   36.9080   27.3670   33.6920 C   0  0  0  0  0  0  0  0  0  0  0  0
   37.0810   27.7340   32.3490 C   0  0  0  0  0  0  0  0  0  0  0  0
   36.5620   28.9470   31.9190 C   0  0  0  0  0  0  0  0  0  0  0  0
   35.9050   29.7400   32.8110 N   0  0  0  0  0  0  0  0  0  0  0  0
   35.7540   29.3520   34.1160 C   0  0  0  0  0  0  0  0  0  0  0  0
   36.2530   28.1700   34.5560 N   0  0  0  0  0  0  0  0  0  0  0  0
   37.6190   27.0210   31.7370 H   0  0  0  0  0  0  0  0  0  0  0  0
   36.7190   29.1780   30.8920 H   0  0  0  0  0  0  0  0  0  0  0  0
   35.2180   30.0430   34.7590 H   0  0  0  0  0  0  0  0  0  0  0  0
   37.3610   26.2010   34.2730 O   0  0  0  0  0  0  0  0  0  0  0  0
   38.0640   25.3180   36.7070 O   0  0  0  0  0  0  0  0  0  0  0  0
   38.5110   26.1950   35.5550 P   0  0  2  0  0  0  0  0  0  0  0  0
   38.6870   27.7620   36.1610 O   0  0  0  0  0  0  0  0  0  0  0  0
   38.0170   27.9250   36.8750 H   0  0  0  0  0  0  0  0  0  0  0  0
   39.9600   25.6350   34.8670 O   0  0  0  0  0  0  0  0  0  0  0  0
   40.7390   26.7810   34.6320 C   0  0  0  0  0  2  0  0  0  0  0  0
   40.6640   27.1280   33.1560 C   0  0  0  0  0  2  0  0  0  0  0  0
   39.7540   27.7370   33.0160 H   0  0  0  0  0  0  0  0  0  0  0  0
  1 10  1  0  0  0  0
  1  6  1  0  0  0  0
  2  1  2  0  0  0  0
  3  2  1  0  0  0  0
  3  4  2  0  0  0  0
  4  5  1  0  0  0  0
  5  6  2  0  0  0  0
  5  9  1  0  0  0  0
  7  2  1  0  0  0  0
  8  3  1  0  0  0  0
 10 12  1  0  0  0  0
 12 13  1  0  0  0  0
 12 11  2  1  0  0  0
 13 14  1  0  0  0  0
 15 12  1  0  0  0  0
 16 15  1  0  0  0  0
 17 16  1  0  0  0  0
 18 17  1  0  0  0  0
M  END
>  <minimizedAffinity>
-3.44778371

$$$$

 OpenBabel03272503473D

 18 18  0  0  0  0  0  0  0  0999 V2000
   37.3880   25.3610   32.5050 C   0  0  0  0  0  0  0  0  0  0  0  0
   36.8540   26.5240   31.9320 C   0  0  0  0  0  0  0  0  0  0  0  0
   35.7380   26.4110   31.1150 C   0  0  0  0  0  0  0  0  0  0  0  0
   35.1990   25.1790   30.8960 N   0  0  0  0  0  0  0  0  0  0  0  0
   35.7460   24.0620   31.4700 C   0  0  0  0  0  0  0  0  0  0  0  0
   36.8360   24.1510   32.2720 N   0  0  0  0  0  0  0  0  0  0  0  0
   37.3690   27.4440   32.1800 H   0  0  0  0  0  0  0  0  0  0  0  0
   35.3710   27.3230   30.7060 H   0  0  0  0  0  0  0  0  0  0  0  0
   35.2550   23.1210   31.2440 H   0  0  0  0  0  0  0  0  0  0  0  0
   38.4890   25.3030   33.3350 O   0  0  0  0  0  0  0  0  0  0  0  0
   37.0760   26.3740   35.3490 O   0  0  0  0  0  0  0  0  0  0  0  0
   38.4220   25.7790   34.9890 P   0  0  2  0  0  0  0  0  0  0  0  0
   39.5860   26.9670   35.2810 O   0  0  0  0  0  0  0  0  0  0  0  0
   39.2070   27.8650   35.0940 H   0  0  0  0  0  0  0  0  0  0  0  0
   38.7430   24.3690   35.8830 O   0  0  0  0  0  0  0  0  0  0  0  0
   37.8540   24.3980   36.9720 C   0  0  0  0  0  2  0  0  0  0  0  0
   38.4520   23.5920   38.1110 C   0  0  0  0  0  2  0  0  0  0  0  0
   39.1270   24.2690   38.6630 H   0  0  0  0  0  0  0  0  0  0  0  0
  1 10  1  0  0  0  0
  2  7  1  0  0  0  0
  2  1  2  0  0  0  0
  3  2  1  0  0  0  0
  4  3  2  0  0  0  0
  4  5  1  0  0  0  0
  5  6  2  0  0  0  0
  6  1  1  0  0  0  0
  8  3  1  0  0  0  0
  9  5  1  0  0  0  0
 10 12  1  0  0  0  0
 12 13  1  0  0  0  0
 12 11  2  1  0  0  0
 12 15  1  0  0  0  0
 14 13  1  0  0  0  0
 15 16  1  0  0  0  0
 16 17  1  0  0  0  0
 17 18  1  0  0  0  0
M  END
>  <minimizedAffinity>
-3.38033581

$$$$

 OpenBabel03272503473D

 18 18  0  0  0  0  0  0  0  0999 V2000
   38.8580   24.2280   35.8190 C   0  0  0  0  0  0  0  0  0  0  0  0
   40.1300   23.6480   35.7030 C   0  0  0  0  0  0  0  0  0  0  0  0
   40.6210   22.9040   36.7670 C   0  0  0  0  0  0  0  0  0  0  0  0
   39.8550   22.7610   37.8840 N   0  0  0  0  0  0  0  0  0  0  0  0
   38.6170   23.3410   37.9650 C   0  0  0  0  0  0  0  0  0  0  0  0
   38.1190   24.0720   36.9370 N   0  0  0  0  0  0  0  0  0  0  0  0
   40.6420   23.8330   34.7680 H   0  0  0  0  0  0  0  0  0  0  0  0
   41.5900   22.4860   36.6290 H   0  0  0  0  0  0  0  0  0  0  0  0
   38.0730   23.1770   38.8900 H   0  0  0  0  0  0  0  0  0  0  0  0
   38.2310   24.9930   34.8570 O   0  0  0  0  0  0  0  0  0  0  0  0
   38.7970   27.2550   36.1850 O   0  0  0  0  0  0  0  0  0  0  0  0
   38.2960   26.7150   34.8610 P   0  0  2  0  0  0  0  0  0  0  0  0
   36.7440   27.3380   34.6250 O   0  0  0  0  0  0  0  0  0  0  0  0
   36.2830   27.4370   35.4990 H   0  0  0  0  0  0  0  0  0  0  0  0
   39.3310   27.1360   33.5810 O   0  0  0  0  0  0  0  0  0  0  0  0
   40.6360   26.9780   34.0770 C   0  0  0  0  0  2  0  0  0  0  0  0
   41.6200   27.4540   33.0240 C   0  0  0  0  0  2  0  0  0  0  0  0
   41.7210   28.5460   33.1500 H   0  0  0  0  0  0  0  0  0  0  0  0
  1  6  1  0  0  0  0
  2  1  2  0  0  0  0
  2  3  1  0  0  0  0
  3  4  2  0  0  0  0
  4  5  1  0  0  0  0
  5  9  1  0  0  0  0
  6  5  2  0  0  0  0
  7  2  1  0  0  0  0
  8  3  1  0  0  0  0
 10 12  1  0  0  0  0
 10  1  1  0  0  0  0
 12 11  2  1  0  0  0
 13 12  1  0  0  0  0
 13 14  1  0  0  0  0
 15 16  1  0  0  0  0
 15 12  1  0  0  0  0
 17 18  1  0  0  0  0
 17 16  1  0  0  0  0
M  END
>  <minimizedAffinity>
-3.3485949

$$$$

 OpenBabel03272503473D

 18 18  0  0  0  0  0  0  0  0999 V2000
   38.4540   23.7290   36.0550 C   0  0  0  0  0  0  0  0  0  0  0  0
   37.5810   24.1510   37.0680 C   0  0  0  0  0  0  0  0  0  0  0  0
   37.9060   23.8700   38.3870 C   0  0  0  0  0  0  0  0  0  0  0  0
   39.0590   23.1950   38.6560 N   0  0  0  0  0  0  0  0  0  0  0  0
   39.8910   22.7960   37.6430 C   0  0  0  0  0  0  0  0  0  0  0  0
   39.5900   23.0620   36.3470 N   0  0  0  0  0  0  0  0  0  0  0  0
   36.6970   24.6780   36.7310 H   0  0  0  0  0  0  0  0  0  0  0  0
   37.2110   24.2110   39.1180 H   0  0  0  0  0  0  0  0  0  0  0  0
   40.7870   22.2650   37.9440 H   0  0  0  0  0  0  0  0  0  0  0  0
   38.2760   23.9280   34.7020 O   0  0  0  0  0  0  0  0  0  0  0  0
   38.9820   24.9400   32.3190 O   0  0  0  0  0  0  0  0  0  0  0  0
   39.5080   24.5930   33.6970 P   0  0  2  0  0  0  0  0  0  0  0  0
   40.7380   23.4560   33.4880 O   0  0  0  0  0  0  0  0  0  0  0  0
   40.5330   22.8740   32.7100 H   0  0  0  0  0  0  0  0  0  0  0  0
   40.0730   25.9700   34.5170 O   0  0  0  0  0  0  0  0  0  0  0  0
   39.0990   26.9620   34.3130 C   0  0  0  0  0  2  0  0  0  0  0  0
   38.5850   27.4260   35.6640 C   0  0  0  0  0  2  0  0  0  0  0  0
   39.2810   28.2050   36.0210 H   0  0  0  0  0  0  0  0  0  0  0  0
  1  6  2  0  0  0  0
  1  2  1  0  0  0  0
  2  3  2  0  0  0  0
  3  4  1  0  0  0  0
  3  8  1  0  0  0  0
  5  9  1  0  0  0  0
  5  4  2  0  0  0  0
  6  5  1  0  0  0  0
  7  2  1  0  0  0  0
 10  1  1  0  0  0  0
 12 11  2  6  0  0  0
 12 15  1  0  0  0  0
 12 10  1  0  0  0  0
 13 12  1  0  0  0  0
 14 13  1  0  0  0  0
 16 15  1  0  0  0  0
 16 17  1  0  0  0  0
 17 18  1  0  0  0  0
M  END
>  <minimizedAffinity>
-3.34092951

$$$$

 OpenBabel03272503473D

 18 18  0  0  0  0  0  0  0  0999 V2000
   37.3130   21.8910   34.0820 C   0  0  0  0  0  0  0  0  0  0  0  0
   36.2550   20.9810   33.9390 C   0  0  0  0  0  0  0  0  0  0  0  0
   35.4160   21.1050   32.8400 C   0  0  0  0  0  0  0  0  0  0  0  0
   35.6460   22.1010   31.9400 N   0  0  0  0  0  0  0  0  0  0  0  0
   36.6880   22.9740   32.1090 C   0  0  0  0  0  0  0  0  0  0  0  0
   37.5200   22.8690   33.1760 N   0  0  0  0  0  0  0  0  0  0  0  0
   36.1740   20.2350   34.7180 H   0  0  0  0  0  0  0  0  0  0  0  0
   34.6290   20.3910   32.7780 H   0  0  0  0  0  0  0  0  0  0  0  0
   36.8000   23.7370   31.3460 H   0  0  0  0  0  0  0  0  0  0  0  0
   38.2310   21.9040   35.1120 O   0  0  0  0  0  0  0  0  0  0  0  0
   37.0080   22.8860   37.2890 O   0  0  0  0  0  0  0  0  0  0  0  0
   38.1930   23.0850   36.3660 P   0  0  2  0  0  0  0  0  0  0  0  0
   38.0420   24.6230   35.6870 O   0  0  0  0  0  0  0  0  0  0  0  0
   37.0820   24.8460   35.5630 H   0  0  0  0  0  0  0  0  0  0  0  0
   39.6680   22.9190   37.1940 O   0  0  0  0  0  0  0  0  0  0  0  0
   40.4490   22.0500   36.4120 C   0  0  0  0  0  2  0  0  0  0  0  0
   41.5610   21.4830   37.2760 C   0  0  0  0  0  2  0  0  0  0  0  0
   41.1430   20.6080   37.8030 H   0  0  0  0  0  0  0  0  0  0  0  0
  1 10  1  0  0  0  0
  2  1  1  0  0  0  0
  2  7  1  0  0  0  0
  3  2  2  0  0  0  0
  4  5  2  0  0  0  0
  4  3  1  0  0  0  0
  5  6  1  0  0  0  0
  6  1  2  0  0  0  0
  8  3  1  0  0  0  0
  9  5  1  0  0  0  0
 10 12  1  0  0  0  0
 12 15  1  0  0  0  0
 12 11  2  1  0  0  0
 13 12  1  0  0  0  0
 14 13  1  0  0  0  0
 16 15  1  0  0  0  0
 16 17  1  0  0  0  0
 17 18  1  0  0  0  0
M  END
>  <minimizedAffinity>
-3.27859211

$$$$

 OpenBabel03272503473D

 18 18  0  0  0  0  0  0  0  0999 V2000
   38.0840   25.6600   34.6440 C   0  0  0  0  0  0  0  0  0  0  0  0
   37.5620   26.8300   35.2160 C   0  0  0  0  0  0  0  0  0  0  0  0
   36.8070   27.6790   34.4210 C   0  0  0  0  0  0  0  0  0  0  0  0
   36.5960   27.3520   33.1150 N   0  0  0  0  0  0  0  0  0  0  0  0
   37.1200   26.2020   32.5870 C   0  0  0  0  0  0  0  0  0  0  0  0
   37.8610   25.3580   33.3480 N   0  0  0  0  0  0  0  0  0  0  0  0
   37.7980   26.9810   36.2620 H   0  0  0  0  0  0  0  0  0  0  0  0
   36.4340   28.5530   34.9020 H   0  0  0  0  0  0  0  0  0  0  0  0
   36.9040   26.0170   31.5400 H   0  0  0  0  0  0  0  0  0  0  0  0
   38.8510   24.7170   35.2950 O   0  0  0  0  0  0  0  0  0  0  0  0
   39.5450   22.1430   35.6000 O   0  0  0  0  0  0  0  0  0  0  0  0
   38.3590   23.0730   35.4490 P   0  0  2  0  0  0  0  0  0  0  0  0
   37.5300   22.6000   34.0560 O   0  0  0  0  0  0  0  0  0  0  0  0
   38.1710   22.2580   33.3800 H   0  0  0  0  0  0  0  0  0  0  0  0
   37.3470   23.0250   36.8140 O   0  0  0  0  0  0  0  0  0  0  0  0
   37.8240   24.0270   37.6770 C   0  0  0  0  0  2  0  0  0  0  0  0
   38.7240   23.3860   38.7190 C   0  0  0  0  0  2  0  0  0  0  0  0
   39.7310   23.3140   38.2710 H   0  0  0  0  0  0  0  0  0  0  0  0
  1  2  1  0  0  0  0
  1 10  1  0  0  0  0
  2  7  1  0  0  0  0
  3  8  1  0  0  0  0
  3  2  2  0  0  0  0
  4  3  1  0  0  0  0
  5  4  2  0  0  0  0
  5  6  1  0  0  0  0
  6  1  2  0  0  0  0
  9  5  1  0  0  0  0
 10 12  1  0  0  0  0
 12 11  2  1  0  0  0
 12 15  1  0  0  0  0
 13 12  1  0  0  0  0
 14 13  1  0  0  0  0
 15 16  1  0  0  0  0
 16 17  1  0  0  0  0
 18 17  1  0  0  0  0
M  END
>  <minimizedAffinity>
-3.26977372

$$$$
