
 OpenBabel03272509453D

 13 13  0  0  0  0  0  0  0  0999 V2000
   37.5920   30.2840   51.3370 C   0  0  0  0  0  0  0  0  0  0  0  0
   38.2120   30.9540   50.2770 C   0  0  0  0  0  0  0  0  0  0  0  0
   37.8020   30.6550   48.9740 C   0  0  0  0  0  0  0  0  0  0  0  0
   36.8120   29.7190   48.8300 N   0  0  0  0  0  0  0  0  0  0  0  0
   36.2410   29.0950   49.8720 C   0  0  0  0  0  0  0  0  0  0  0  0
   36.6400   29.3880   51.1260 N   0  0  0  0  0  0  0  0  0  0  0  0
   37.8970   30.5020   52.3640 H   0  0  0  0  0  0  0  0  0  0  0  0
   38.9870   31.6860   50.4270 H   0  0  0  0  0  0  0  0  0  0  0  0
   38.2670   31.1600   48.1570 H   0  0  0  0  0  0  0  0  0  0  0  0
   35.2710   28.1950   49.4880 O   0  0  0  0  0  0  0  0  0  0  0  0
   33.9610   28.6800   49.2570 C   0  0  0  0  0  2  0  0  0  0  0  0
   33.5070   29.5560   50.3900 C   0  0  0  0  0  2  0  0  0  0  0  0
   33.9440   30.5620   50.3330 H   0  0  0  0  0  0  0  0  0  0  0  0
  1  7  1  0  0  0  0
  2  8  1  0  0  0  0
  2  1  2  0  0  0  0
  3  2  1  0  0  0  0
  4  3  2  0  0  0  0
  4  5  1  0  0  0  0
  5  6  2  0  0  0  0
  6  1  1  0  0  0  0
  9  3  1  0  0  0  0
 10  5  1  0  0  0  0
 11 10  1  0  0  0  0
 11 12  1  0  0  0  0
 13 12  1  0  0  0  0
M  END
>  <minimizedAffinity>
-3.20007062

>  <minimizedRMSD>
1.07417917

$$$$
