
 OpenBabel03272509453D

 13 13  0  0  0  0  0  0  0  0999 V2000
   37.5240   30.3210   51.0840 C   0  0  0  0  0  0  0  0  0  0  0  0
   38.2750   31.1030   50.1990 C   0  0  0  0  0  0  0  0  0  0  0  0
   37.6900   31.4780   48.9850 C   0  0  0  0  0  0  0  0  0  0  0  0
   36.4110   31.0470   48.7500 N   0  0  0  0  0  0  0  0  0  0  0  0
   35.7210   30.2960   49.6240 C   0  0  0  0  0  0  0  0  0  0  0  0
   36.2910   29.9390   50.7920 N   0  0  0  0  0  0  0  0  0  0  0  0
   37.9620   30.0180   52.0380 H   0  0  0  0  0  0  0  0  0  0  0  0
   39.2790   31.4250   50.4180 H   0  0  0  0  0  0  0  0  0  0  0  0
   38.2520   32.0750   48.3030 H   0  0  0  0  0  0  0  0  0  0  0  0
   34.4570   29.9820   49.1740 O   0  0  0  0  0  0  0  0  0  0  0  0
   33.9230   28.7150   49.5120 C   0  0  0  0  0  2  0  0  0  0  0  0
   34.2410   27.6990   48.4520 C   0  0  0  0  0  2  0  0  0  0  0  0
   35.2760   27.3390   48.5260 H   0  0  0  0  0  0  0  0  0  0  0  0
  1  7  1  0  0  0  0
  2  8  1  0  0  0  0
  2  1  2  0  0  0  0
  3  2  1  0  0  0  0
  4  3  2  0  0  0  0
  4  5  1  0  0  0  0
  5  6  2  0  0  0  0
  6  1  1  0  0  0  0
  9  3  1  0  0  0  0
 10 11  1  0  0  0  0
 10  5  1  0  0  0  0
 12 13  1  0  0  0  0
 12 11  1  0  0  0  0
M  END
>  <minimizedAffinity>
-3.29896498

>  <minimizedRMSD>
1.56696796

$$$$
