
 OpenBabel03272510243D

 26 28  0  0  0  0  0  0  0  0999 V2000
   36.9580   30.5950   46.8640 C   0  0  0  0  0  0  0  0  0  0  0  0
   37.5910   31.0760   48.0020 C   0  0  0  0  0  0  0  0  0  0  0  0
   38.5840   32.0480   47.9170 C   0  0  0  0  0  0  0  0  0  0  0  0
   38.8970   32.5000   46.6420 C   0  0  0  0  0  0  0  0  0  0  0  0
   39.8200   33.4340   46.2960 N   0  0  0  0  0  0  0  0  0  0  0  0
   39.7710   33.5410   44.9660 C   0  0  0  0  0  0  0  0  0  0  0  0
   38.8600   32.7170   44.4470 N   0  0  0  0  0  0  0  0  0  0  0  0
   38.2950   32.0500   45.4810 C   0  0  0  0  0  0  0  0  0  0  0  0
   37.3050   31.0750   45.6020 C   0  0  0  0  0  0  0  0  0  0  0  0
   36.1940   29.8520   46.8760 H   0  0  0  0  0  0  0  0  0  0  0  0
   39.0770   32.4240   48.7990 H   0  0  0  0  0  0  0  0  0  0  0  0
   40.4510   33.9690   46.9580 H   0  0  0  0  0  0  0  0  0  0  0  0
   36.8160   30.7060   44.7070 H   0  0  0  0  0  0  0  0  0  0  0  0
   37.3720   30.0920   51.6320 C   0  0  0  0  0  0  0  0  0  0  0  0
   37.8550   30.6570   50.4680 C   0  0  0  0  0  0  0  0  0  0  0  0
   37.1760   30.5260   49.2770 C   0  0  0  0  0  0  0  0  0  0  0  0
   36.0210   29.8170   49.3200 N   0  0  0  0  0  0  0  0  0  0  0  0
   35.5480   29.2640   50.4640 C   0  0  0  0  0  0  0  0  0  0  0  0
   36.2210   29.4030   51.6050 N   0  0  0  0  0  0  0  0  0  0  0  0
   37.9840   30.2570   52.5090 H   0  0  0  0  0  0  0  0  0  0  0  0
   38.7780   31.2190   50.4550 H   0  0  0  0  0  0  0  0  0  0  0  0
   34.6070   28.7010   50.4330 H   0  0  0  0  0  0  0  0  0  0  0  0
   40.6030   34.4290   44.2630 O   0  0  0  0  0  0  0  0  0  0  0  0
   40.1050   35.0950   43.1100 C   0  0  0  0  0  2  0  0  0  0  0  0
   40.9570   36.3270   42.8850 C   0  0  0  0  0  2  0  0  0  0  0  0
   41.4870   36.6570   43.8080 H   0  0  0  0  0  0  0  0  0  0  0  0
  1 10  1  0  0  0  0
  1  2  1  0  0  0  0
  2 16  1  0  0  0  0
  3  2  2  0  0  0  0
  3 11  1  0  0  0  0
  4  3  1  0  0  0  0
  5  4  1  0  0  0  0
  5 12  1  0  0  0  0
  6  5  1  0  0  0  0
  7  6  2  0  0  0  0
  7  8  1  0  0  0  0
  8  9  1  0  0  0  0
  8  4  2  0  0  0  0
  9  1  2  0  0  0  0
 13  9  1  0  0  0  0
 14 20  1  0  0  0  0
 15 14  2  0  0  0  0
 16 17  2  0  0  0  0
 16 15  1  0  0  0  0
 17 18  1  0  0  0  0
 18 19  2  0  0  0  0
 19 14  1  0  0  0  0
 21 15  1  0  0  0  0
 22 18  1  0  0  0  0
 23  6  1  0  0  0  0
 24 23  1  0  0  0  0
 25 24  1  0  0  0  0
 25 26  1  0  0  0  0
M  END
>  <minimizedAffinity>
-4.15621328

>  <minimizedRMSD>
0.300965041

$$$$
