
 OpenBabel03272510243D

 26 28  0  0  0  0  0  0  0  0999 V2000
   36.1440   30.1580   46.7690 C   0  0  0  0  0  0  0  0  0  0  0  0
   37.0260   30.7360   47.6730 C   0  0  0  0  0  0  0  0  0  0  0  0
   38.0050   31.6290   47.2520 C   0  0  0  0  0  0  0  0  0  0  0  0
   38.0470   31.9030   45.8910 C   0  0  0  0  0  0  0  0  0  0  0  0
   38.9000   32.7320   45.2370 N   0  0  0  0  0  0  0  0  0  0  0  0
   38.5650   32.6790   43.9450 C   0  0  0  0  0  0  0  0  0  0  0  0
   37.5370   31.8540   43.7460 N   0  0  0  0  0  0  0  0  0  0  0  0
   37.1910   31.3520   44.9550 C   0  0  0  0  0  0  0  0  0  0  0  0
   36.2210   30.4600   45.4100 C   0  0  0  0  0  0  0  0  0  0  0  0
   35.3790   29.4680   47.0420 H   0  0  0  0  0  0  0  0  0  0  0  0
   38.6910   32.0810   47.9510 H   0  0  0  0  0  0  0  0  0  0  0  0
   39.6770   33.3060   45.6730 H   0  0  0  0  0  0  0  0  0  0  0  0
   35.5370   30.0140   44.6970 H   0  0  0  0  0  0  0  0  0  0  0  0
   37.5540   30.2560   51.3720 C   0  0  0  0  0  0  0  0  0  0  0  0
   37.7860   30.6500   50.0690 C   0  0  0  0  0  0  0  0  0  0  0  0
   36.8820   30.3700   49.0690 C   0  0  0  0  0  0  0  0  0  0  0  0
   35.7670   29.6940   49.4390 N   0  0  0  0  0  0  0  0  0  0  0  0
   35.5410   29.3090   50.7200 C   0  0  0  0  0  0  0  0  0  0  0  0
   36.4290   29.5900   51.6720 N   0  0  0  0  0  0  0  0  0  0  0  0
   38.3290   30.5270   52.0770 H   0  0  0  0  0  0  0  0  0  0  0  0
   38.6820   31.1880   49.7940 H   0  0  0  0  0  0  0  0  0  0  0  0
   34.6190   28.7640   50.9560 H   0  0  0  0  0  0  0  0  0  0  0  0
   39.2500   33.4240   42.9700 O   0  0  0  0  0  0  0  0  0  0  0  0
   38.7460   33.4770   41.6430 C   0  0  0  0  0  2  0  0  0  0  0  0
   39.3090   32.2920   40.8870 C   0  0  0  0  0  2  0  0  0  0  0  0
   40.2380   31.8880   41.3520 H   0  0  0  0  0  0  0  0  0  0  0  0
  1 10  1  0  0  0  0
  1  2  1  0  0  0  0
  2 16  1  0  0  0  0
  3  2  2  0  0  0  0
  3 11  1  0  0  0  0
  4  3  1  0  0  0  0
  5 12  1  0  0  0  0
  5  4  1  0  0  0  0
  6  5  1  0  0  0  0
  7  6  2  0  0  0  0
  7  8  1  0  0  0  0
  8  9  1  0  0  0  0
  8  4  2  0  0  0  0
  9  1  2  0  0  0  0
 13  9  1  0  0  0  0
 14 19  1  0  0  0  0
 14 20  1  0  0  0  0
 15 14  2  0  0  0  0
 16 17  2  0  0  0  0
 16 15  1  0  0  0  0
 17 18  1  0  0  0  0
 18 22  1  0  0  0  0
 18 19  2  0  0  0  0
 21 15  1  0  0  0  0
 23  6  1  0  0  0  0
 24 23  1  0  0  0  0
 25 26  1  0  0  0  0
 25 24  1  0  0  0  0
M  END
>  <minimizedAffinity>
-5.00957108

>  <minimizedRMSD>
1.18712163

$$$$
