
 OpenBabel03272507173D

 20 21  0  0  1  0  0  0  0  0999 V2000
   37.7800   27.3880   35.3440 C   0  0  1  0  0  0  0  0  0  0  0  0
   38.2170   26.2590   36.1390 C   0  0  2  0  0  0  0  0  0  0  0  0
   39.2610   26.9980   35.3220 C   0  0  0  0  0  0  0  0  0  0  0  0
   37.6500   28.4280   35.7140 H   0  0  0  0  0  0  0  0  0  0  0  0
   38.2600   26.3810   37.2350 H   0  0  0  0  0  0  0  0  0  0  0  0
   39.6640   26.4970   34.4180 H   0  0  0  0  0  0  0  0  0  0  0  0
   39.9710   27.5980   35.9040 H   0  0  0  0  0  0  0  0  0  0  0  0
   37.1150   27.1850   34.0050 C   0  0  0  0  0  0  0  0  0  0  0  0
   36.4090   28.2780   33.5030 C   0  0  0  0  0  0  0  0  0  0  0  0
   35.7770   28.0610   32.2710 C   0  0  0  0  0  0  0  0  0  0  0  0
   35.8700   26.8400   31.6370 N   0  0  0  0  0  0  0  0  0  0  0  0
   36.5780   25.8100   32.1860 C   0  0  0  0  0  0  0  0  0  0  0  0
   37.2040   25.9930   33.3830 N   0  0  0  0  0  0  0  0  0  0  0  0
   36.3490   29.2260   34.0160 H   0  0  0  0  0  0  0  0  0  0  0  0
   35.2110   28.8520   31.8100 H   0  0  0  0  0  0  0  0  0  0  0  0
   36.6730   24.8580   31.7280 H   0  0  0  0  0  0  0  0  0  0  0  0
   37.9480   24.9650   35.6920 O   0  0  0  0  0  0  0  0  0  0  0  0
   38.2850   23.9680   36.5840 C   0  0  0  0  0  2  0  0  0  0  0  0
   37.9660   24.3430   38.0200 C   0  0  0  0  0  2  0  0  0  0  0  0
   36.8500   24.3830   38.1380 H   0  0  0  0  0  0  0  0  0  0  0  0
  1  4  1  1  0  0  0
  1  2  1  0  0  0  0
  2  5  1  1  0  0  0
  3  1  1  0  0  0  0
  3  7  1  0  0  0  0
  3  2  1  0  0  0  0
  6  3  1  0  0  0  0
  8  1  1  0  0  0  0
  9  8  1  0  0  0  0
  9 14  1  0  0  0  0
 10  9  2  0  0  0  0
 11 12  2  0  0  0  0
 11 10  1  0  0  0  0
 12 13  1  0  0  0  0
 13  8  2  0  0  0  0
 15 10  1  0  0  0  0
 16 12  1  0  0  0  0
 17  2  1  0  0  0  0
 17 18  1  0  0  0  0
 18 19  1  0  0  0  0
 19 20  1  0  0  0  0
M  END
>  <minimizedAffinity>
-3.71896887

$$$$

 OpenBabel03272507173D

 20 21  0  0  1  0  0  0  0  0999 V2000
   37.7880   23.9730   37.1400 C   0  0  1  0  0  0  0  0  0  0  0  0
   38.6120   23.1330   37.9850 C   0  0  2  0  0  0  0  0  0  0  0  0
   37.9290   24.3290   38.6220 C   0  0  0  0  0  0  0  0  0  0  0  0
   36.7250   23.7820   36.8780 H   0  0  0  0  0  0  0  0  0  0  0  0
   38.2290   22.1340   38.2560 H   0  0  0  0  0  0  0  0  0  0  0  0
   38.5580   25.2000   38.9010 H   0  0  0  0  0  0  0  0  0  0  0  0
   37.1020   24.0880   39.3020 H   0  0  0  0  0  0  0  0  0  0  0  0
   38.4060   25.0140   36.2400 C   0  0  0  0  0  0  0  0  0  0  0  0
   39.1430   24.5270   35.1610 C   0  0  0  0  0  0  0  0  0  0  0  0
   39.7300   25.5090   34.3510 C   0  0  0  0  0  0  0  0  0  0  0  0
   39.5670   26.8480   34.6380 N   0  0  0  0  0  0  0  0  0  0  0  0
   38.8310   27.2570   35.7120 C   0  0  0  0  0  0  0  0  0  0  0  0
   38.2470   26.3230   36.5160 N   0  0  0  0  0  0  0  0  0  0  0  0
   39.2600   23.4740   34.9540 H   0  0  0  0  0  0  0  0  0  0  0  0
   40.3170   25.2210   33.4960 H   0  0  0  0  0  0  0  0  0  0  0  0
   38.6820   28.2760   35.9640 H   0  0  0  0  0  0  0  0  0  0  0  0
   40.0010   23.2390   37.9050 O   0  0  0  0  0  0  0  0  0  0  0  0
   40.6420   22.0900   37.4940 C   0  0  0  0  0  2  0  0  0  0  0  0
   41.9060   22.3800   36.7060 C   0  0  0  0  0  2  0  0  0  0  0  0
   42.6650   22.8230   37.4030 H   0  0  0  0  0  0  0  0  0  0  0  0
  1  4  1  6  0  0  0
  1  2  1  0  0  0  0
  1  3  1  0  0  0  0
  2  5  1  1  0  0  0
  2  3  1  0  0  0  0
  3  6  1  0  0  0  0
  3  7  1  0  0  0  0
  8 13  1  0  0  0  0
  8  1  1  0  0  0  0
  9  8  2  0  0  0  0
 10 11  2  0  0  0  0
 10  9  1  0  0  0  0
 11 12  1  0  0  0  0
 12 16  1  0  0  0  0
 12 13  2  0  0  0  0
 14  9  1  0  0  0  0
 15 10  1  0  0  0  0
 17  2  1  0  0  0  0
 18 17  1  0  0  0  0
 19 20  1  0  0  0  0
 19 18  1  0  0  0  0
M  END
>  <minimizedAffinity>
-3.67088461

$$$$

 OpenBabel03272507173D

 20 21  0  0  1  0  0  0  0  0999 V2000
   38.6080   23.0200   36.5300 C   0  0  1  0  0  0  0  0  0  0  0  0
   38.4630   24.4560   36.6490 C   0  0  2  0  0  0  0  0  0  0  0  0
   38.0330   23.5980   37.8250 C   0  0  0  0  0  0  0  0  0  0  0  0
   39.5370   22.4450   36.7310 H   0  0  0  0  0  0  0  0  0  0  0  0
   39.3770   25.0610   36.7790 H   0  0  0  0  0  0  0  0  0  0  0  0
   36.9450   23.4890   38.0190 H   0  0  0  0  0  0  0  0  0  0  0  0
   38.6810   23.6570   38.7080 H   0  0  0  0  0  0  0  0  0  0  0  0
   37.5960   22.1970   35.7710 C   0  0  0  0  0  0  0  0  0  0  0  0
   37.7900   22.1110   34.3930 C   0  0  0  0  0  0  0  0  0  0  0  0
   36.8250   21.3640   33.7030 C   0  0  0  0  0  0  0  0  0  0  0  0
   35.7760   20.7750   34.3770 N   0  0  0  0  0  0  0  0  0  0  0  0
   35.6450   20.9000   35.7300 C   0  0  0  0  0  0  0  0  0  0  0  0
   36.5700   21.6190   36.4260 N   0  0  0  0  0  0  0  0  0  0  0  0
   38.6180   22.5810   33.8840 H   0  0  0  0  0  0  0  0  0  0  0  0
   36.8980   21.2460   32.6350 H   0  0  0  0  0  0  0  0  0  0  0  0
   34.8540   20.4610   36.2830 H   0  0  0  0  0  0  0  0  0  0  0  0
   37.4130   25.0930   35.9880 O   0  0  0  0  0  0  0  0  0  0  0  0
   37.7990   26.1280   35.1620 C   0  0  0  0  0  2  0  0  0  0  0  0
   38.6450   27.1610   35.8830 C   0  0  0  0  0  2  0  0  0  0  0  0
   39.6340   26.6950   36.1370 H   0  0  0  0  0  0  0  0  0  0  0  0
  1  2  1  0  0  0  0
  1  4  1  1  0  0  0
  1  3  1  0  0  0  0
  2  5  1  1  0  0  0
  2  3  1  0  0  0  0
  3  6  1  0  0  0  0
  3  7  1  0  0  0  0
  8 13  1  0  0  0  0
  8  1  1  0  0  0  0
  9  8  2  0  0  0  0
 10 11  2  0  0  0  0
 10  9  1  0  0  0  0
 11 12  1  0  0  0  0
 12 16  1  0  0  0  0
 12 13  2  0  0  0  0
 14  9  1  0  0  0  0
 15 10  1  0  0  0  0
 17  2  1  0  0  0  0
 18 19  1  0  0  0  0
 18 17  1  0  0  0  0
 19 20  1  0  0  0  0
M  END
>  <minimizedAffinity>
-3.5252068

$$$$

 OpenBabel03272507173D

 20 21  0  0  1  0  0  0  0  0999 V2000
   38.7870   23.2100   37.6820 C   0  0  1  0  0  0  0  0  0  0  0  0
   38.1780   24.4600   37.2750 C   0  0  2  0  0  0  0  0  0  0  0  0
   37.4270   23.1750   36.9790 C   0  0  0  0  0  0  0  0  0  0  0  0
   38.7210   22.7580   38.6950 H   0  0  0  0  0  0  0  0  0  0  0  0
   37.7610   25.1140   38.0600 H   0  0  0  0  0  0  0  0  0  0  0  0
   37.3830   22.8290   35.9250 H   0  0  0  0  0  0  0  0  0  0  0  0
   36.5270   23.0090   37.5830 H   0  0  0  0  0  0  0  0  0  0  0  0
   39.8750   22.5700   36.8560 C   0  0  0  0  0  0  0  0  0  0  0  0
   40.9310   22.0060   37.5700 C   0  0  0  0  0  0  0  0  0  0  0  0
   41.9440   21.4400   36.7850 C   0  0  0  0  0  0  0  0  0  0  0  0
   41.8640   21.4620   35.4080 N   0  0  0  0  0  0  0  0  0  0  0  0
   40.8000   22.0330   34.7710 C   0  0  0  0  0  0  0  0  0  0  0  0
   39.8000   22.5900   35.5100 N   0  0  0  0  0  0  0  0  0  0  0  0
   40.9750   21.9990   38.6490 H   0  0  0  0  0  0  0  0  0  0  0  0
   42.7970   20.9810   37.2550 H   0  0  0  0  0  0  0  0  0  0  0  0
   40.7020   22.0690   33.7160 H   0  0  0  0  0  0  0  0  0  0  0  0
   38.6610   25.1170   36.1430 O   0  0  0  0  0  0  0  0  0  0  0  0
   37.7690   25.9960   35.5660 C   0  0  0  0  0  2  0  0  0  0  0  0
   38.2180   27.4410   35.6850 C   0  0  0  0  0  2  0  0  0  0  0  0
   39.1250   27.5850   35.0400 H   0  0  0  0  0  0  0  0  0  0  0  0
  1  4  1  1  0  0  0
  2  1  1  0  0  0  0
  2  5  1  1  0  0  0
  3  2  1  0  0  0  0
  3  7  1  0  0  0  0
  3  1  1  0  0  0  0
  6  3  1  0  0  0  0
  8  9  1  0  0  0  0
  8  1  1  0  0  0  0
  9 14  1  0  0  0  0
 10 15  1  0  0  0  0
 10  9  2  0  0  0  0
 11 10  1  0  0  0  0
 12 11  2  0  0  0  0
 12 13  1  0  0  0  0
 13  8  2  0  0  0  0
 16 12  1  0  0  0  0
 17  2  1  0  0  0  0
 18 19  1  0  0  0  0
 18 17  1  0  0  0  0
 20 19  1  0  0  0  0
M  END
>  <minimizedAffinity>
-3.48710084

$$$$

 OpenBabel03272507173D

 20 21  0  0  1  0  0  0  0  0999 V2000
   38.2530   24.3140   34.6930 C   0  0  1  0  0  0  0  0  0  0  0  0
   38.5340   25.6680   34.2620 C   0  0  2  0  0  0  0  0  0  0  0  0
   39.5070   24.5770   33.8550 C   0  0  0  0  0  0  0  0  0  0  0  0
   37.5750   23.5990   34.1780 H   0  0  0  0  0  0  0  0  0  0  0  0
   37.9050   26.1010   33.4650 H   0  0  0  0  0  0  0  0  0  0  0  0
   40.4970   24.5480   34.3580 H   0  0  0  0  0  0  0  0  0  0  0  0
   39.4940   24.3110   32.7910 H   0  0  0  0  0  0  0  0  0  0  0  0
   38.5840   23.8590   36.0930 C   0  0  0  0  0  0  0  0  0  0  0  0
   37.6650   24.2090   37.0810 C   0  0  0  0  0  0  0  0  0  0  0  0
   38.0030   23.8000   38.3780 C   0  0  0  0  0  0  0  0  0  0  0  0
   39.1700   23.1050   38.6160 N   0  0  0  0  0  0  0  0  0  0  0  0
   40.0270   22.7950   37.6000 C   0  0  0  0  0  0  0  0  0  0  0  0
   39.7230   23.1790   36.3280 N   0  0  0  0  0  0  0  0  0  0  0  0
   36.7560   24.7550   36.8740 H   0  0  0  0  0  0  0  0  0  0  0  0
   37.3490   24.0290   39.2020 H   0  0  0  0  0  0  0  0  0  0  0  0
   40.9330   22.2610   37.7430 H   0  0  0  0  0  0  0  0  0  0  0  0
   39.0480   26.5830   35.1810 O   0  0  0  0  0  0  0  0  0  0  0  0
   38.1510   27.5450   35.5960 C   0  0  0  0  0  2  0  0  0  0  0  0
   36.9960   27.7170   34.6270 C   0  0  0  0  0  2  0  0  0  0  0  0
   36.3640   26.7910   34.6590 H   0  0  0  0  0  0  0  0  0  0  0  0
  1  4  1  6  0  0  0
  1  8  1  0  0  0  0
  2  5  1  6  0  0  0
  2  1  1  0  0  0  0
  2 17  1  0  0  0  0
  3  2  1  0  0  0  0
  3  6  1  0  0  0  0
  3  1  1  0  0  0  0
  7  3  1  0  0  0  0
  8 13  2  0  0  0  0
  8  9  1  0  0  0  0
  9 10  2  0  0  0  0
 10 11  1  0  0  0  0
 10 15  1  0  0  0  0
 12 16  1  0  0  0  0
 12 11  2  0  0  0  0
 13 12  1  0  0  0  0
 14  9  1  0  0  0  0
 17 18  1  0  0  0  0
 19 20  1  0  0  0  0
 19 18  1  0  0  0  0
M  END
>  <minimizedAffinity>
-3.42390084

$$$$

 OpenBabel03272507173D

 20 21  0  0  1  0  0  0  0  0999 V2000
   37.8720   26.4830   35.8300 C   0  0  1  0  0  0  0  0  0  0  0  0
   38.9600   27.3610   35.4520 C   0  0  2  0  0  0  0  0  0  0  0  0
   37.8760   27.0920   34.4250 C   0  0  0  0  0  0  0  0  0  0  0  0
   36.9610   26.7860   36.3900 H   0  0  0  0  0  0  0  0  0  0  0  0
   38.9900   28.3710   35.8950 H   0  0  0  0  0  0  0  0  0  0  0  0
   38.1260   26.4370   33.5640 H   0  0  0  0  0  0  0  0  0  0  0  0
   37.2090   27.9370   34.2160 H   0  0  0  0  0  0  0  0  0  0  0  0
   38.0380   24.9840   35.8050 C   0  0  0  0  0  0  0  0  0  0  0  0
   38.1860   24.3660   37.0460 C   0  0  0  0  0  0  0  0  0  0  0  0
   38.3650   22.9770   37.0010 C   0  0  0  0  0  0  0  0  0  0  0  0
   38.3870   22.3090   35.7950 N   0  0  0  0  0  0  0  0  0  0  0  0
   38.2360   22.9760   34.6140 C   0  0  0  0  0  0  0  0  0  0  0  0
   38.0590   24.3280   34.6280 N   0  0  0  0  0  0  0  0  0  0  0  0
   38.1660   24.9080   37.9800 H   0  0  0  0  0  0  0  0  0  0  0  0
   38.4870   22.4200   37.9140 H   0  0  0  0  0  0  0  0  0  0  0  0
   38.2470   22.4980   33.6670 H   0  0  0  0  0  0  0  0  0  0  0  0
   40.2020   26.8100   35.1350 O   0  0  0  0  0  0  0  0  0  0  0  0
   40.6260   27.0540   33.8460 C   0  0  0  0  0  2  0  0  0  0  0  0
   42.1370   27.1470   33.7400 C   0  0  0  0  0  2  0  0  0  0  0  0
   42.5700   26.1290   33.9290 H   0  0  0  0  0  0  0  0  0  0  0  0
  1  4  1  1  0  0  0
  2  1  1  0  0  0  0
  2  5  1  1  0  0  0
  3  2  1  0  0  0  0
  3  1  1  0  0  0  0
  6  3  1  0  0  0  0
  7  3  1  0  0  0  0
  8  1  1  0  0  0  0
  8  9  1  0  0  0  0
  9 14  1  0  0  0  0
 10  9  2  0  0  0  0
 10 15  1  0  0  0  0
 11 10  1  0  0  0  0
 12 13  1  0  0  0  0
 12 11  2  0  0  0  0
 13  8  2  0  0  0  0
 16 12  1  0  0  0  0
 17  2  1  0  0  0  0
 18 17  1  0  0  0  0
 19 18  1  0  0  0  0
 19 20  1  0  0  0  0
M  END
>  <minimizedAffinity>
-3.35464501

$$$$

 OpenBabel03272507173D

 20 21  0  0  1  0  0  0  0  0999 V2000
   39.1750   26.0950   35.2710 C   0  0  1  0  0  0  0  0  0  0  0  0
   38.3800   27.0610   34.5410 C   0  0  2  0  0  0  0  0  0  0  0  0
   38.5100   27.2390   36.0430 C   0  0  0  0  0  0  0  0  0  0  0  0
   40.2790   26.1260   35.3930 H   0  0  0  0  0  0  0  0  0  0  0  0
   38.9080   27.7910   33.9030 H   0  0  0  0  0  0  0  0  0  0  0  0
   37.6240   27.0100   36.6720 H   0  0  0  0  0  0  0  0  0  0  0  0
   39.1280   28.0870   36.3610 H   0  0  0  0  0  0  0  0  0  0  0  0
   38.6090   24.7480   35.6450 C   0  0  0  0  0  0  0  0  0  0  0  0
   38.7020   23.7550   34.6700 C   0  0  0  0  0  0  0  0  0  0  0  0
   38.1480   22.5180   35.0270 C   0  0  0  0  0  0  0  0  0  0  0  0
   37.5620   22.3390   36.2620 N   0  0  0  0  0  0  0  0  0  0  0  0
   37.5040   23.3550   37.1720 C   0  0  0  0  0  0  0  0  0  0  0  0
   38.0360   24.5690   36.8520 N   0  0  0  0  0  0  0  0  0  0  0  0
   39.1650   23.9160   33.7080 H   0  0  0  0  0  0  0  0  0  0  0  0
   38.1770   21.6960   34.3330 H   0  0  0  0  0  0  0  0  0  0  0  0
   37.0630   23.2550   38.1310 H   0  0  0  0  0  0  0  0  0  0  0  0
   37.1010   26.7070   34.1120 O   0  0  0  0  0  0  0  0  0  0  0  0
   36.9570   26.6240   32.7430 C   0  0  0  0  0  2  0  0  0  0  0  0
   37.9430   27.5090   32.0020 C   0  0  0  0  0  2  0  0  0  0  0  0
   38.9740   27.0910   32.1450 H   0  0  0  0  0  0  0  0  0  0  0  0
  1  4  1  6  0  0  0
  1  8  1  0  0  0  0
  1  3  1  0  0  0  0
  2  5  1  6  0  0  0
  2  1  1  0  0  0  0
  2  3  1  0  0  0  0
  3  7  1  0  0  0  0
  3  6  1  0  0  0  0
  8 13  1  0  0  0  0
  9 10  1  0  0  0  0
  9  8  2  0  0  0  0
 10 11  2  0  0  0  0
 11 12  1  0  0  0  0
 12 16  1  0  0  0  0
 13 12  2  0  0  0  0
 14  9  1  0  0  0  0
 15 10  1  0  0  0  0
 17  2  1  0  0  0  0
 18 17  1  0  0  0  0
 19 20  1  0  0  0  0
 19 18  1  0  0  0  0
M  END
>  <minimizedAffinity>
-3.34599042

$$$$

 OpenBabel03272507173D

 20 21  0  0  1  0  0  0  0  0999 V2000
   39.6940   24.6380   35.3850 C   0  0  1  0  0  0  0  0  0  0  0  0
   39.2570   23.5110   36.1830 C   0  0  2  0  0  0  0  0  0  0  0  0
   39.4430   23.2960   34.6920 C   0  0  0  0  0  0  0  0  0  0  0  0
   40.7480   24.9630   35.2480 H   0  0  0  0  0  0  0  0  0  0  0  0
   39.9920   23.0330   36.8530 H   0  0  0  0  0  0  0  0  0  0  0  0
   38.5340   23.1840   34.0650 H   0  0  0  0  0  0  0  0  0  0  0  0
   40.3060   22.6790   34.4130 H   0  0  0  0  0  0  0  0  0  0  0  0
   38.7200   25.7020   34.9430 C   0  0  0  0  0  0  0  0  0  0  0  0
   38.6090   26.8120   35.7790 C   0  0  0  0  0  0  0  0  0  0  0  0
   37.6800   27.7770   35.3650 C   0  0  0  0  0  0  0  0  0  0  0  0
   36.9490   27.6000   34.2090 N   0  0  0  0  0  0  0  0  0  0  0  0
   37.1070   26.4860   33.4360 C   0  0  0  0  0  0  0  0  0  0  0  0
   38.0040   25.5320   33.8140 N   0  0  0  0  0  0  0  0  0  0  0  0
   39.1910   26.9320   36.6800 H   0  0  0  0  0  0  0  0  0  0  0  0
   37.5320   28.6680   35.9510 H   0  0  0  0  0  0  0  0  0  0  0  0
   36.5640   26.3150   32.5410 H   0  0  0  0  0  0  0  0  0  0  0  0
   37.9300   23.4510   36.6110 O   0  0  0  0  0  0  0  0  0  0  0  0
   37.7730   23.2990   37.9720 C   0  0  0  0  0  2  0  0  0  0  0  0
   37.9900   24.5950   38.7300 C   0  0  0  0  0  2  0  0  0  0  0  0
   37.1490   25.2960   38.4840 H   0  0  0  0  0  0  0  0  0  0  0  0
  1  4  1  1  0  0  0
  1  2  1  0  0  0  0
  2 17  1  0  0  0  0
  2  5  1  1  0  0  0
  3  1  1  0  0  0  0
  3  2  1  0  0  0  0
  6  3  1  0  0  0  0
  7  3  1  0  0  0  0
  8  1  1  0  0  0  0
  8  9  1  0  0  0  0
  9 14  1  0  0  0  0
 10  9  2  0  0  0  0
 10 15  1  0  0  0  0
 11 10  1  0  0  0  0
 12 13  1  0  0  0  0
 12 11  2  0  0  0  0
 13  8  2  0  0  0  0
 16 12  1  0  0  0  0
 17 18  1  0  0  0  0
 18 19  1  0  0  0  0
 20 19  1  0  0  0  0
M  END
>  <minimizedAffinity>
-3.31665564

$$$$

 OpenBabel03272507173D

 20 21  0  0  1  0  0  0  0  0999 V2000
   37.4780   26.7720   35.0090 C   0  0  1  0  0  0  0  0  0  0  0  0
   38.0610   25.9560   36.0550 C   0  0  2  0  0  0  0  0  0  0  0  0
   38.6650   27.3250   35.8020 C   0  0  0  0  0  0  0  0  0  0  0  0
   36.5870   27.4270   35.1210 H   0  0  0  0  0  0  0  0  0  0  0  0
   37.4900   25.8250   36.9900 H   0  0  0  0  0  0  0  0  0  0  0  0
   39.6580   27.3720   35.3080 H   0  0  0  0  0  0  0  0  0  0  0  0
   38.4740   28.0720   36.5830 H   0  0  0  0  0  0  0  0  0  0  0  0
   37.8180   26.5360   33.5590 C   0  0  0  0  0  0  0  0  0  0  0  0
   37.0400   25.5880   32.8960 C   0  0  0  0  0  0  0  0  0  0  0  0
   37.3880   25.3640   31.5570 C   0  0  0  0  0  0  0  0  0  0  0  0
   38.4330   26.0530   30.9760 N   0  0  0  0  0  0  0  0  0  0  0  0
   39.1560   26.9690   31.6840 C   0  0  0  0  0  0  0  0  0  0  0  0
   38.8380   27.2070   32.9880 N   0  0  0  0  0  0  0  0  0  0  0  0
   36.2260   25.0590   33.3690 H   0  0  0  0  0  0  0  0  0  0  0  0
   36.8380   24.6490   30.9700 H   0  0  0  0  0  0  0  0  0  0  0  0
   39.9650   27.5180   31.2730 H   0  0  0  0  0  0  0  0  0  0  0  0
   38.8890   24.8890   35.7060 O   0  0  0  0  0  0  0  0  0  0  0  0
   38.7040   23.7490   36.4590 C   0  0  0  0  0  2  0  0  0  0  0  0
   38.0260   24.0350   37.7860 C   0  0  0  0  0  2  0  0  0  0  0  0
   36.9660   24.3450   37.5850 H   0  0  0  0  0  0  0  0  0  0  0  0
  1  4  1  1  0  0  0
  1  3  1  0  0  0  0
  1  2  1  0  0  0  0
  2  5  1  1  0  0  0
  3  2  1  0  0  0  0
  3  7  1  0  0  0  0
  6  3  1  0  0  0  0
  8  1  1  0  0  0  0
  9 14  1  0  0  0  0
  9  8  2  0  0  0  0
 10  9  1  0  0  0  0
 11 10  2  0  0  0  0
 11 12  1  0  0  0  0
 12 13  2  0  0  0  0
 13  8  1  0  0  0  0
 15 10  1  0  0  0  0
 16 12  1  0  0  0  0
 17  2  1  0  0  0  0
 17 18  1  0  0  0  0
 18 19  1  0  0  0  0
 20 19  1  0  0  0  0
M  END
>  <minimizedAffinity>
-3.23644996

$$$$
