
 OpenBabel03272509453D

 13 13  0  0  0  0  0  0  0  0999 V2000
   37.3280   30.2190   51.4210 C   0  0  0  0  0  0  0  0  0  0  0  0
   38.0520   30.6660   50.3100 C   0  0  0  0  0  0  0  0  0  0  0  0
   37.6170   30.2840   49.0370 C   0  0  0  0  0  0  0  0  0  0  0  0
   36.5000   29.4930   48.9710 N   0  0  0  0  0  0  0  0  0  0  0  0
   35.8310   29.0830   50.0610 C   0  0  0  0  0  0  0  0  0  0  0  0
   36.2560   29.4550   51.2840 N   0  0  0  0  0  0  0  0  0  0  0  0
   37.6510   30.5060   52.4250 H   0  0  0  0  0  0  0  0  0  0  0  0
   38.9270   31.2880   50.3990 H   0  0  0  0  0  0  0  0  0  0  0  0
   38.1600   30.6180   48.1830 H   0  0  0  0  0  0  0  0  0  0  0  0
   34.7420   28.2970   49.7520 O   0  0  0  0  0  0  0  0  0  0  0  0
   34.1920   28.3960   48.4510 C   0  0  0  0  0  0  0  0  0  0  0  0
   33.8370   27.0380   47.9150 C   0  0  0  0  0  0  0  0  0  0  0  0
   32.8960   26.6630   48.3400 H   0  0  0  0  0  0  0  0  0  0  0  0
  1  7  1  0  0  0  0
  2  8  1  0  0  0  0
  2  1  2  0  0  0  0
  3  2  1  0  0  0  0
  4  3  2  0  0  0  0
  4  5  1  0  0  0  0
  5  6  2  0  0  0  0
  6  1  1  0  0  0  0
  9  3  1  0  0  0  0
 10  5  1  0  0  0  0
 11 10  1  0  0  0  0
 12 13  1  0  0  0  0
 12 11  1  0  0  0  0
M  END
>  <minimizedAffinity>
-3.4835856

>  <minimizedRMSD>
1.26507199

$$$$
