
 OpenBabel03272507263D

 31 32  0  0  1  0  0  0  0  0999 V2000
   35.4790   25.4600   31.1040 C   0  0  0  0  0  0  0  0  0  0  0  0
   36.3030   25.9840   32.1230 C   0  0  0  0  0  0  0  0  0  0  0  0
   37.2190   25.1050   32.7390 C   0  0  0  0  0  0  0  0  0  0  0  0
   37.2450   23.8340   32.3140 N   0  0  0  0  0  0  0  0  0  0  0  0
   36.4410   23.3570   31.3310 C   0  0  0  0  0  0  0  0  0  0  0  0
   35.5650   24.1850   30.7390 N   0  0  0  0  0  0  0  0  0  0  0  0
   38.0630   25.5580   33.7530 N   0  0  0  0  0  0  0  0  0  0  0  0
   38.5530   26.9350   33.9010 C   0  0  0  0  0  0  0  0  0  0  0  0
   39.6130   26.9010   34.9610 C   0  0  0  0  0  0  0  0  0  0  0  0
   39.9780   25.4710   35.0200 C   0  0  0  0  0  0  0  0  0  0  0  0
   38.6180   24.8120   34.8340 C   0  0  2  0  0  0  0  0  0  0  0  0
   34.8000   26.2010   30.6790 H   0  0  0  0  0  0  0  0  0  0  0  0
   36.2720   27.0210   32.4600 H   0  0  0  0  0  0  0  0  0  0  0  0
   36.4800   22.3160   31.0010 H   0  0  0  0  0  0  0  0  0  0  0  0
   38.8700   27.3730   32.9520 H   0  0  0  0  0  0  0  0  0  0  0  0
   37.6900   27.5150   34.3110 H   0  0  0  0  0  0  0  0  0  0  0  0
   40.4950   27.4390   34.5160 H   0  0  0  0  0  0  0  0  0  0  0  0
   39.3990   27.4200   35.8870 H   0  0  0  0  0  0  0  0  0  0  0  0
   40.5600   25.2180   34.0950 H   0  0  0  0  0  0  0  0  0  0  0  0
   40.4920   25.1400   35.9420 H   0  0  0  0  0  0  0  0  0  0  0  0
   38.7220   23.3500   34.7140 C   0  0  0  0  0  0  0  0  0  0  0  0
   39.6380   22.9310   35.6630 F   0  0  0  0  0  0  0  0  0  0  0  0
   39.1750   22.8850   33.5030 F   0  0  0  0  0  0  0  0  0  0  0  0
   37.5020   22.8230   35.1010 F   0  0  0  0  0  0  0  0  0  0  0  0
   37.7570   25.1230   36.0330 C   0  0  0  0  0  0  0  0  0  0  0  0
   37.5100   26.2200   35.8980 H   0  0  0  0  0  0  0  0  0  0  0  0
   36.7530   24.6480   35.9450 H   0  0  0  0  0  0  0  0  0  0  0  0
   38.4090   24.8430   37.0180 O   0  0  0  0  0  0  0  0  0  0  0  0
   37.9740   24.3990   38.2370 C   0  0  0  0  0  2  0  0  0  0  0  0
   38.8590   23.3020   38.7320 C   0  0  0  0  0  2  0  0  0  0  0  0
   39.8650   23.7600   38.9480 H   0  0  0  0  0  0  0  0  0  0  0  0
  1  2  1  0  0  0  0
  2 13  1  0  0  0  0
  2  3  2  0  0  0  0
  3  7  1  0  0  0  0
  4  3  1  0  0  0  0
  5  4  2  0  0  0  0
  6  1  2  0  0  0  0
  6  5  1  0  0  0  0
  7  8  1  0  0  0  0
  7 11  1  0  0  0  0
  8 16  1  0  0  0  0
  8  9  1  0  0  0  0
  9 10  1  0  0  0  0
  9 18  1  0  0  0  0
 10 20  1  0  0  0  0
 11 21  1  6  0  0  0
 11 10  1  0  0  0  0
 11 25  1  0  0  0  0
 12  1  1  0  0  0  0
 14  5  1  0  0  0  0
 15  8  1  0  0  0  0
 17  9  1  0  0  0  0
 19 10  1  0  0  0  0
 21 24  1  0  0  0  0
 21 22  1  0  0  0  0
 23 21  1  0  0  0  0
 25 28  1  0  0  0  0
 26 25  1  0  0  0  0
 27 25  1  0  0  0  0
 28 29  1  0  0  0  0
 29 30  1  0  0  0  0
 30 31  1  0  0  0  0
M  END
>  <minimizedAffinity>
-4.40172529

$$$$

 OpenBabel03272507263D

 31 32  0  0  1  0  0  0  0  0999 V2000
   38.9040   22.7330   37.0450 C   0  0  0  0  0  0  0  0  0  0  0  0
   39.0830   23.3120   35.7700 C   0  0  0  0  0  0  0  0  0  0  0  0
   38.7300   24.6700   35.6140 C   0  0  0  0  0  0  0  0  0  0  0  0
   38.2510   25.3170   36.6860 N   0  0  0  0  0  0  0  0  0  0  0  0
   38.0900   24.7350   37.9010 C   0  0  0  0  0  0  0  0  0  0  0  0
   38.4220   23.4430   38.0600 N   0  0  0  0  0  0  0  0  0  0  0  0
   38.8820   25.3040   34.3800 N   0  0  0  0  0  0  0  0  0  0  0  0
   39.8760   24.9500   33.3580 C   0  0  0  0  0  0  0  0  0  0  0  0
   39.8390   26.0410   32.3300 C   0  0  0  0  0  0  0  0  0  0  0  0
   39.1780   27.1510   33.0460 C   0  0  0  0  0  0  0  0  0  0  0  0
   38.1320   26.3970   33.8560 C   0  0  2  0  0  0  0  0  0  0  0  0
   39.1990   21.6840   37.0830 H   0  0  0  0  0  0  0  0  0  0  0  0
   39.4740   22.7750   34.9050 H   0  0  0  0  0  0  0  0  0  0  0  0
   37.6970   25.2820   38.7610 H   0  0  0  0  0  0  0  0  0  0  0  0
   40.8640   24.7550   33.7820 H   0  0  0  0  0  0  0  0  0  0  0  0
   39.4870   24.0210   32.8740 H   0  0  0  0  0  0  0  0  0  0  0  0
   40.9120   26.3470   32.1840 H   0  0  0  0  0  0  0  0  0  0  0  0
   39.4820   25.7740   31.3440 H   0  0  0  0  0  0  0  0  0  0  0  0
   39.8990   27.5610   33.8010 H   0  0  0  0  0  0  0  0  0  0  0  0
   38.7390   27.9430   32.4110 H   0  0  0  0  0  0  0  0  0  0  0  0
   37.4080   27.2780   34.7840 C   0  0  0  0  0  0  0  0  0  0  0  0
   36.9360   28.3460   34.0410 F   0  0  0  0  0  0  0  0  0  0  0  0
   38.1600   27.8120   35.8020 F   0  0  0  0  0  0  0  0  0  0  0  0
   36.2890   26.5850   35.2120 F   0  0  0  0  0  0  0  0  0  0  0  0
   37.1270   25.7880   32.9080 C   0  0  0  0  0  0  0  0  0  0  0  0
   37.6860   24.9060   32.4680 H   0  0  0  0  0  0  0  0  0  0  0  0
   36.3020   25.2850   33.4620 H   0  0  0  0  0  0  0  0  0  0  0  0
   36.8080   26.6590   32.1260 O   0  0  0  0  0  0  0  0  0  0  0  0
   35.8990   26.6040   31.1040 C   0  0  0  0  0  2  0  0  0  0  0  0
   35.2460   25.2610   31.0680 C   0  0  0  0  0  2  0  0  0  0  0  0
   34.6200   25.1720   32.0000 H   0  0  0  0  0  0  0  0  0  0  0  0
  1 12  1  0  0  0  0
  1  6  1  0  0  0  0
  2  1  2  0  0  0  0
  3  2  1  0  0  0  0
  3  4  2  0  0  0  0
  4  5  1  0  0  0  0
  5  6  2  0  0  0  0
  5 14  1  0  0  0  0
  7  3  1  0  0  0  0
  8 15  1  0  0  0  0
  8  7  1  0  0  0  0
  9 10  1  0  0  0  0
  9  8  1  0  0  0  0
 10 19  1  0  0  0  0
 10 11  1  0  0  0  0
 11 25  1  6  0  0  0
 11  7  1  0  0  0  0
 11 21  1  0  0  0  0
 13  2  1  0  0  0  0
 16  8  1  0  0  0  0
 17  9  1  0  0  0  0
 18  9  1  0  0  0  0
 20 10  1  0  0  0  0
 21 24  1  0  0  0  0
 21 23  1  0  0  0  0
 22 21  1  0  0  0  0
 25 27  1  0  0  0  0
 26 25  1  0  0  0  0
 28 25  1  0  0  0  0
 29 28  1  0  0  0  0
 30 29  1  0  0  0  0
 30 31  1  0  0  0  0
M  END
>  <minimizedAffinity>
-4.39335012

$$$$

 OpenBabel03272507263D

 31 32  0  0  1  0  0  0  0  0999 V2000
   37.2660   27.3680   32.3430 C   0  0  0  0  0  0  0  0  0  0  0  0
   37.7250   26.0540   32.5800 C   0  0  0  0  0  0  0  0  0  0  0  0
   37.6480   25.5660   33.9020 C   0  0  0  0  0  0  0  0  0  0  0  0
   37.1450   26.3800   34.8400 N   0  0  0  0  0  0  0  0  0  0  0  0
   36.7110   27.6390   34.5820 C   0  0  0  0  0  0  0  0  0  0  0  0
   36.7790   28.1140   33.3280 N   0  0  0  0  0  0  0  0  0  0  0  0
   38.0840   24.2750   34.2060 N   0  0  0  0  0  0  0  0  0  0  0  0
   38.0890   23.1370   33.2770 C   0  0  0  0  0  0  0  0  0  0  0  0
   38.3940   21.9190   34.0960 C   0  0  0  0  0  0  0  0  0  0  0  0
   38.0930   22.3590   35.4730 C   0  0  0  0  0  0  0  0  0  0  0  0
   38.6050   23.7930   35.4430 C   0  0  2  0  0  0  0  0  0  0  0  0
   37.3590   27.6710   31.2980 H   0  0  0  0  0  0  0  0  0  0  0  0
   38.1320   25.4010   31.8080 H   0  0  0  0  0  0  0  0  0  0  0  0
   36.3040   28.2860   35.3640 H   0  0  0  0  0  0  0  0  0  0  0  0
   37.1720   23.0730   32.6860 H   0  0  0  0  0  0  0  0  0  0  0  0
   38.9600   23.3100   32.5990 H   0  0  0  0  0  0  0  0  0  0  0  0
   37.6020   21.1690   33.8180 H   0  0  0  0  0  0  0  0  0  0  0  0
   39.3370   21.4220   33.9040 H   0  0  0  0  0  0  0  0  0  0  0  0
   36.9800   22.4430   35.5800 H   0  0  0  0  0  0  0  0  0  0  0  0
   38.5480   21.7590   36.2830 H   0  0  0  0  0  0  0  0  0  0  0  0
   38.2930   24.5190   36.6820 C   0  0  0  0  0  0  0  0  0  0  0  0
   36.9300   24.3980   36.8880 F   0  0  0  0  0  0  0  0  0  0  0  0
   38.5680   25.8650   36.6660 F   0  0  0  0  0  0  0  0  0  0  0  0
   38.8990   23.8310   37.7190 F   0  0  0  0  0  0  0  0  0  0  0  0
   40.1050   23.7720   35.2760 C   0  0  0  0  0  0  0  0  0  0  0  0
   40.4550   23.1460   36.1520 H   0  0  0  0  0  0  0  0  0  0  0  0
   40.4070   23.1430   34.4080 H   0  0  0  0  0  0  0  0  0  0  0  0
   40.4740   24.9280   35.2670 O   0  0  0  0  0  0  0  0  0  0  0  0
   41.4590   25.5080   34.5140 C   0  0  0  0  0  2  0  0  0  0  0  0
   41.0920   26.9180   34.1850 C   0  0  0  0  0  2  0  0  0  0  0  0
   41.1060   27.4970   35.1510 H   0  0  0  0  0  0  0  0  0  0  0  0
  1  2  2  0  0  0  0
  1  6  1  0  0  0  0
  2  3  1  0  0  0  0
  3  7  1  0  0  0  0
  3  4  2  0  0  0  0
  5  4  1  0  0  0  0
  5 14  1  0  0  0  0
  6  5  2  0  0  0  0
  7 11  1  0  0  0  0
  8  9  1  0  0  0  0
  8  7  1  0  0  0  0
  9 10  1  0  0  0  0
 10 19  1  0  0  0  0
 10 20  1  0  0  0  0
 11 25  1  6  0  0  0
 11 10  1  0  0  0  0
 11 21  1  0  0  0  0
 12  1  1  0  0  0  0
 13  2  1  0  0  0  0
 15  8  1  0  0  0  0
 16  8  1  0  0  0  0
 17  9  1  0  0  0  0
 18  9  1  0  0  0  0
 21 22  1  0  0  0  0
 21 24  1  0  0  0  0
 23 21  1  0  0  0  0
 25 26  1  0  0  0  0
 27 25  1  0  0  0  0
 28 25  1  0  0  0  0
 29 28  1  0  0  0  0
 30 29  1  0  0  0  0
 30 31  1  0  0  0  0
M  END
>  <minimizedAffinity>
-4.37066364

$$$$

 OpenBabel03272507263D

 31 32  0  0  1  0  0  0  0  0999 V2000
   42.5800   21.8020   36.0780 C   0  0  0  0  0  0  0  0  0  0  0  0
   42.1510   22.9780   35.4250 C   0  0  0  0  0  0  0  0  0  0  0  0
   40.9690   23.5900   35.8950 C   0  0  0  0  0  0  0  0  0  0  0  0
   40.3370   23.0150   36.9280 N   0  0  0  0  0  0  0  0  0  0  0  0
   40.7740   21.8840   37.5360 C   0  0  0  0  0  0  0  0  0  0  0  0
   41.8970   21.2930   37.0970 N   0  0  0  0  0  0  0  0  0  0  0  0
   40.4890   24.7550   35.2950 N   0  0  0  0  0  0  0  0  0  0  0  0
   41.3120   25.7660   34.6190 C   0  0  0  0  0  0  0  0  0  0  0  0
   40.4180   26.9420   34.3600 C   0  0  0  0  0  0  0  0  0  0  0  0
   39.2960   26.7180   35.2930 C   0  0  0  0  0  0  0  0  0  0  0  0
   39.1390   25.2060   35.2080 C   0  0  2  0  0  0  0  0  0  0  0  0
   43.4990   21.3910   35.6560 H   0  0  0  0  0  0  0  0  0  0  0  0
   42.6750   23.4360   34.5860 H   0  0  0  0  0  0  0  0  0  0  0  0
   40.2410   21.4330   38.3780 H   0  0  0  0  0  0  0  0  0  0  0  0
   42.2270   26.0000   35.1690 H   0  0  0  0  0  0  0  0  0  0  0  0
   41.5750   25.3210   33.6280 H   0  0  0  0  0  0  0  0  0  0  0  0
   40.9840   27.8350   34.7450 H   0  0  0  0  0  0  0  0  0  0  0  0
   40.1950   27.1700   33.3250 H   0  0  0  0  0  0  0  0  0  0  0  0
   39.6580   26.9220   36.3340 H   0  0  0  0  0  0  0  0  0  0  0  0
   38.3590   27.2600   35.0610 H   0  0  0  0  0  0  0  0  0  0  0  0
   38.1510   24.6960   36.1720 C   0  0  0  0  0  0  0  0  0  0  0  0
   37.0220   25.4860   36.0470 F   0  0  0  0  0  0  0  0  0  0  0  0
   38.5250   24.7550   37.4910 F   0  0  0  0  0  0  0  0  0  0  0  0
   37.7840   23.4320   35.7440 F   0  0  0  0  0  0  0  0  0  0  0  0
   38.6720   24.8400   33.8200 C   0  0  0  0  0  0  0  0  0  0  0  0
   39.5670   25.0880   33.1720 H   0  0  0  0  0  0  0  0  0  0  0  0
   38.5970   23.7360   33.6970 H   0  0  0  0  0  0  0  0  0  0  0  0
   37.6650   25.4830   33.6060 O   0  0  0  0  0  0  0  0  0  0  0  0
   37.1500   25.8970   32.4080 C   0  0  0  0  0  2  0  0  0  0  0  0
   37.0110   27.3840   32.3930 C   0  0  0  0  0  2  0  0  0  0  0  0
   38.0520   27.8140   32.4090 H   0  0  0  0  0  0  0  0  0  0  0  0
  1  6  1  0  0  0  0
  2  3  1  0  0  0  0
  2  1  2  0  0  0  0
  3  4  2  0  0  0  0
  4  5  1  0  0  0  0
  5 14  1  0  0  0  0
  6  5  2  0  0  0  0
  7  3  1  0  0  0  0
  8 15  1  0  0  0  0
  8  7  1  0  0  0  0
  9  8  1  0  0  0  0
  9 17  1  0  0  0  0
  9 10  1  0  0  0  0
 10 19  1  0  0  0  0
 11 25  1  6  0  0  0
 11 10  1  0  0  0  0
 11  7  1  0  0  0  0
 11 21  1  0  0  0  0
 12  1  1  0  0  0  0
 13  2  1  0  0  0  0
 16  8  1  0  0  0  0
 18  9  1  0  0  0  0
 20 10  1  0  0  0  0
 21 23  1  0  0  0  0
 22 21  1  0  0  0  0
 24 21  1  0  0  0  0
 26 25  1  0  0  0  0
 27 25  1  0  0  0  0
 28 25  1  0  0  0  0
 29 28  1  0  0  0  0
 30 29  1  0  0  0  0
 30 31  1  0  0  0  0
M  END
>  <minimizedAffinity>
-4.33947849

$$$$

 OpenBabel03272507263D

 31 32  0  0  1  0  0  0  0  0999 V2000
   35.8740   24.6310   30.8790 C   0  0  0  0  0  0  0  0  0  0  0  0
   36.7260   24.1420   31.8940 C   0  0  0  0  0  0  0  0  0  0  0  0
   37.1550   25.0540   32.8800 C   0  0  0  0  0  0  0  0  0  0  0  0
   36.7250   26.3200   32.7890 N   0  0  0  0  0  0  0  0  0  0  0  0
   35.9060   26.7630   31.8020 C   0  0  0  0  0  0  0  0  0  0  0  0
   35.4920   25.9030   30.8570 N   0  0  0  0  0  0  0  0  0  0  0  0
   37.9970   24.6370   33.9120 N   0  0  0  0  0  0  0  0  0  0  0  0
   38.0590   23.2760   34.4620 C   0  0  0  0  0  0  0  0  0  0  0  0
   38.9030   23.3540   35.6990 C   0  0  0  0  0  0  0  0  0  0  0  0
   38.8840   24.7940   36.0250 C   0  0  0  0  0  0  0  0  0  0  0  0
   38.9510   25.4110   34.6350 C   0  0  2  0  0  0  0  0  0  0  0  0
   35.5880   23.8650   30.1560 H   0  0  0  0  0  0  0  0  0  0  0  0
   37.0680   23.1080   31.9570 H   0  0  0  0  0  0  0  0  0  0  0  0
   35.5680   27.8000   31.7470 H   0  0  0  0  0  0  0  0  0  0  0  0
   37.0700   22.8370   34.6110 H   0  0  0  0  0  0  0  0  0  0  0  0
   38.6260   22.6760   33.7080 H   0  0  0  0  0  0  0  0  0  0  0  0
   38.3050   22.8360   36.4990 H   0  0  0  0  0  0  0  0  0  0  0  0
   39.8560   22.8390   35.6770 H   0  0  0  0  0  0  0  0  0  0  0  0
   37.8660   25.0530   36.4170 H   0  0  0  0  0  0  0  0  0  0  0  0
   39.6930   25.1500   36.6910 H   0  0  0  0  0  0  0  0  0  0  0  0
   38.8050   26.8740   34.6710 C   0  0  0  0  0  0  0  0  0  0  0  0
   39.6560   27.3400   35.6580 F   0  0  0  0  0  0  0  0  0  0  0  0
   37.5510   27.3370   34.9840 F   0  0  0  0  0  0  0  0  0  0  0  0
   39.3050   27.3600   33.4750 F   0  0  0  0  0  0  0  0  0  0  0  0
   40.2920   25.0890   34.0210 C   0  0  0  0  0  0  0  0  0  0  0  0
   40.1780   24.0080   33.7020 H   0  0  0  0  0  0  0  0  0  0  0  0
   40.4240   25.6060   33.0440 H   0  0  0  0  0  0  0  0  0  0  0  0
   41.1300   25.3060   34.8720 O   0  0  0  0  0  0  0  0  0  0  0  0
   42.4420   25.6630   34.7120 C   0  0  0  0  0  2  0  0  0  0  0  0
   42.5420   26.8990   33.8790 C   0  0  0  0  0  2  0  0  0  0  0  0
   42.0980   27.7400   34.4810 H   0  0  0  0  0  0  0  0  0  0  0  0
  1  2  1  0  0  0  0
  2 13  1  0  0  0  0
  2  3  2  0  0  0  0
  3  7  1  0  0  0  0
  4  3  1  0  0  0  0
  5  4  2  0  0  0  0
  6  1  2  0  0  0  0
  6  5  1  0  0  0  0
  7  8  1  0  0  0  0
  7 11  1  0  0  0  0
  8 15  1  0  0  0  0
  8  9  1  0  0  0  0
  9 10  1  0  0  0  0
  9 17  1  0  0  0  0
 10 19  1  0  0  0  0
 10 20  1  0  0  0  0
 11 25  1  6  0  0  0
 11 21  1  0  0  0  0
 11 10  1  0  0  0  0
 12  1  1  0  0  0  0
 14  5  1  0  0  0  0
 16  8  1  0  0  0  0
 18  9  1  0  0  0  0
 21 23  1  0  0  0  0
 21 22  1  0  0  0  0
 24 21  1  0  0  0  0
 25 28  1  0  0  0  0
 26 25  1  0  0  0  0
 27 25  1  0  0  0  0
 29 28  1  0  0  0  0
 30 31  1  0  0  0  0
 30 29  1  0  0  0  0
M  END
>  <minimizedAffinity>
-4.18199396

$$$$

 OpenBabel03272507263D

 31 32  0  0  1  0  0  0  0  0999 V2000
   42.0880   21.8620   36.1180 C   0  0  0  0  0  0  0  0  0  0  0  0
   41.8150   23.0250   35.3650 C   0  0  0  0  0  0  0  0  0  0  0  0
   40.6950   23.7960   35.7390 C   0  0  0  0  0  0  0  0  0  0  0  0
   39.9670   23.3750   36.7830 N   0  0  0  0  0  0  0  0  0  0  0  0
   40.2540   22.2520   37.4890 C   0  0  0  0  0  0  0  0  0  0  0  0
   41.3180   21.5100   37.1410 N   0  0  0  0  0  0  0  0  0  0  0  0
   40.3680   24.9580   35.0370 N   0  0  0  0  0  0  0  0  0  0  0  0
   41.3220   25.8190   34.3260 C   0  0  0  0  0  0  0  0  0  0  0  0
   40.5750   27.0620   33.9450 C   0  0  0  0  0  0  0  0  0  0  0  0
   39.4040   27.0340   34.8430 C   0  0  0  0  0  0  0  0  0  0  0  0
   39.0810   25.5460   34.8610 C   0  0  2  0  0  0  0  0  0  0  0  0
   42.9690   21.3230   35.7660 H   0  0  0  0  0  0  0  0  0  0  0  0
   42.4160   23.3580   34.5180 H   0  0  0  0  0  0  0  0  0  0  0  0
   39.6460   21.9270   38.3370 H   0  0  0  0  0  0  0  0  0  0  0  0
   42.2390   25.9920   34.8950 H   0  0  0  0  0  0  0  0  0  0  0  0
   41.5670   25.2740   33.3810 H   0  0  0  0  0  0  0  0  0  0  0  0
   41.2240   27.9140   34.2890 H   0  0  0  0  0  0  0  0  0  0  0  0
   40.4150   27.2340   32.8880 H   0  0  0  0  0  0  0  0  0  0  0  0
   39.7510   27.2750   35.8820 H   0  0  0  0  0  0  0  0  0  0  0  0
   38.5420   27.6550   34.5340 H   0  0  0  0  0  0  0  0  0  0  0  0
   38.0110   25.2220   35.8160 C   0  0  0  0  0  0  0  0  0  0  0  0
   38.4070   25.7130   37.0480 F   0  0  0  0  0  0  0  0  0  0  0  0
   37.7580   23.8830   35.9920 F   0  0  0  0  0  0  0  0  0  0  0  0
   36.9010   25.9620   35.4470 F   0  0  0  0  0  0  0  0  0  0  0  0
   38.6240   25.1280   33.4850 C   0  0  0  0  0  0  0  0  0  0  0  0
   37.5780   25.5560   33.4170 H   0  0  0  0  0  0  0  0  0  0  0  0
   39.1580   25.6990   32.6910 H   0  0  0  0  0  0  0  0  0  0  0  0
   38.7090   23.9180   33.4380 O   0  0  0  0  0  0  0  0  0  0  0  0
   37.8830   23.0250   32.8100 C   0  0  0  0  0  2  0  0  0  0  0  0
   37.9040   21.7140   33.5270 C   0  0  0  0  0  2  0  0  0  0  0  0
   37.4210   21.8780   34.5310 H   0  0  0  0  0  0  0  0  0  0  0  0
  1  6  1  0  0  0  0
  2  3  1  0  0  0  0
  2  1  2  0  0  0  0
  3  4  2  0  0  0  0
  4  5  1  0  0  0  0
  5 14  1  0  0  0  0
  6  5  2  0  0  0  0
  7  3  1  0  0  0  0
  8 15  1  0  0  0  0
  8  7  1  0  0  0  0
  9 17  1  0  0  0  0
  9  8  1  0  0  0  0
  9 10  1  0  0  0  0
 10 11  1  0  0  0  0
 10 19  1  0  0  0  0
 11 25  1  6  0  0  0
 11  7  1  0  0  0  0
 11 21  1  0  0  0  0
 12  1  1  0  0  0  0
 13  2  1  0  0  0  0
 16  8  1  0  0  0  0
 18  9  1  0  0  0  0
 20 10  1  0  0  0  0
 21 23  1  0  0  0  0
 21 22  1  0  0  0  0
 24 21  1  0  0  0  0
 26 25  1  0  0  0  0
 27 25  1  0  0  0  0
 28 25  1  0  0  0  0
 29 28  1  0  0  0  0
 29 30  1  0  0  0  0
 30 31  1  0  0  0  0
M  END
>  <minimizedAffinity>
-4.18171215

$$$$

 OpenBabel03272507263D

 31 32  0  0  1  0  0  0  0  0999 V2000
   38.0110   24.9200   30.7640 C   0  0  0  0  0  0  0  0  0  0  0  0
   38.1180   24.0120   31.8390 C   0  0  0  0  0  0  0  0  0  0  0  0
   37.8820   24.5080   33.1390 C   0  0  0  0  0  0  0  0  0  0  0  0
   37.5710   25.8060   33.2640 N   0  0  0  0  0  0  0  0  0  0  0  0
   37.4750   26.6570   32.2110 C   0  0  0  0  0  0  0  0  0  0  0  0
   37.6980   26.1950   30.9700 N   0  0  0  0  0  0  0  0  0  0  0  0
   37.9700   23.6640   34.2460 N   0  0  0  0  0  0  0  0  0  0  0  0
   37.7170   22.2170   34.2360 C   0  0  0  0  0  0  0  0  0  0  0  0
   37.6810   21.7790   35.6700 C   0  0  0  0  0  0  0  0  0  0  0  0
   37.4590   23.0440   36.3980 C   0  0  0  0  0  0  0  0  0  0  0  0
   38.3160   24.0060   35.5870 C   0  0  2  0  0  0  0  0  0  0  0  0
   38.2080   24.4600   29.7940 H   0  0  0  0  0  0  0  0  0  0  0  0
   38.3710   22.9570   31.7240 H   0  0  0  0  0  0  0  0  0  0  0  0
   37.2200   27.7120   32.3370 H   0  0  0  0  0  0  0  0  0  0  0  0
   36.8310   21.9490   33.6540 H   0  0  0  0  0  0  0  0  0  0  0  0
   38.6230   21.7590   33.7690 H   0  0  0  0  0  0  0  0  0  0  0  0
   36.7350   21.1780   35.7730 H   0  0  0  0  0  0  0  0  0  0  0  0
   38.4750   21.1210   36.0010 H   0  0  0  0  0  0  0  0  0  0  0  0
   36.4000   23.3690   36.2250 H   0  0  0  0  0  0  0  0  0  0  0  0
   37.7250   23.0360   37.4730 H   0  0  0  0  0  0  0  0  0  0  0  0
   38.1590   25.3990   36.0320 C   0  0  0  0  0  0  0  0  0  0  0  0
   38.1800   25.3840   37.4150 F   0  0  0  0  0  0  0  0  0  0  0  0
   36.9860   26.0100   35.6650 F   0  0  0  0  0  0  0  0  0  0  0  0
   39.2980   26.0800   35.6390 F   0  0  0  0  0  0  0  0  0  0  0  0
   39.7670   23.6220   35.7470 C   0  0  0  0  0  0  0  0  0  0  0  0
   39.9020   22.7930   34.9880 H   0  0  0  0  0  0  0  0  0  0  0  0
   40.4410   24.4140   35.3480 H   0  0  0  0  0  0  0  0  0  0  0  0
   39.9220   23.3100   36.9100 O   0  0  0  0  0  0  0  0  0  0  0  0
   40.9010   22.5330   37.4660 C   0  0  0  0  0  2  0  0  0  0  0  0
   41.4870   21.6250   36.4340 C   0  0  0  0  0  2  0  0  0  0  0  0
   42.0350   22.2750   35.6960 H   0  0  0  0  0  0  0  0  0  0  0  0
  1  6  2  0  0  0  0
  1  2  1  0  0  0  0
  2  3  2  0  0  0  0
  3  4  1  0  0  0  0
  3  7  1  0  0  0  0
  5 14  1  0  0  0  0
  5  4  2  0  0  0  0
  6  5  1  0  0  0  0
  7 11  1  0  0  0  0
  8  7  1  0  0  0  0
  8  9  1  0  0  0  0
  9 17  1  0  0  0  0
  9 18  1  0  0  0  0
  9 10  1  0  0  0  0
 10 20  1  0  0  0  0
 11 25  1  1  0  0  0
 11 21  1  0  0  0  0
 11 10  1  0  0  0  0
 12  1  1  0  0  0  0
 13  2  1  0  0  0  0
 15  8  1  0  0  0  0
 16  8  1  0  0  0  0
 19 10  1  0  0  0  0
 21 22  1  0  0  0  0
 23 21  1  0  0  0  0
 24 21  1  0  0  0  0
 25 28  1  0  0  0  0
 26 25  1  0  0  0  0
 27 25  1  0  0  0  0
 28 29  1  0  0  0  0
 30 29  1  0  0  0  0
 31 30  1  0  0  0  0
M  END
>  <minimizedAffinity>
-4.14554358

$$$$

 OpenBabel03272507263D

 31 32  0  0  1  0  0  0  0  0999 V2000
   38.0160   22.2450   35.6150 C   0  0  0  0  0  0  0  0  0  0  0  0
   38.3370   22.7360   34.3310 C   0  0  0  0  0  0  0  0  0  0  0  0
   38.4110   24.1360   34.1670 C   0  0  0  0  0  0  0  0  0  0  0  0
   38.1740   24.9030   35.2400 N   0  0  0  0  0  0  0  0  0  0  0  0
   37.8670   24.4030   36.4640 C   0  0  0  0  0  0  0  0  0  0  0  0
   37.7930   23.0720   36.6300 N   0  0  0  0  0  0  0  0  0  0  0  0
   38.7250   24.6880   32.9240 N   0  0  0  0  0  0  0  0  0  0  0  0
   39.5440   24.0440   31.8890 C   0  0  0  0  0  0  0  0  0  0  0  0
   39.8200   25.0890   30.8500 C   0  0  0  0  0  0  0  0  0  0  0  0
   39.5430   26.3510   31.5660 C   0  0  0  0  0  0  0  0  0  0  0  0
   38.3330   25.9550   32.4020 C   0  0  2  0  0  0  0  0  0  0  0  0
   37.9780   21.1560   35.6580 H   0  0  0  0  0  0  0  0  0  0  0  0
   38.5290   22.1010   33.4650 H   0  0  0  0  0  0  0  0  0  0  0  0
   37.6770   25.0480   37.3250 H   0  0  0  0  0  0  0  0  0  0  0  0
   40.4340   23.5580   32.2970 H   0  0  0  0  0  0  0  0  0  0  0  0
   38.8810   23.2750   31.4210 H   0  0  0  0  0  0  0  0  0  0  0  0
   40.9320   25.0530   30.6820 H   0  0  0  0  0  0  0  0  0  0  0  0
   39.3790   24.9390   29.8730 H   0  0  0  0  0  0  0  0  0  0  0  0
   40.3690   26.5260   32.3040 H   0  0  0  0  0  0  0  0  0  0  0  0
   39.3530   27.2360   30.9310 H   0  0  0  0  0  0  0  0  0  0  0  0
   37.9300   27.0190   33.3340 C   0  0  0  0  0  0  0  0  0  0  0  0
   37.6980   28.1530   32.5750 F   0  0  0  0  0  0  0  0  0  0  0  0
   38.8660   27.3650   34.2770 F   0  0  0  0  0  0  0  0  0  0  0  0
   36.7040   26.6540   33.8610 F   0  0  0  0  0  0  0  0  0  0  0  0
   37.1710   25.6770   31.4780 C   0  0  0  0  0  0  0  0  0  0  0  0
   36.6810   26.6910   31.3640 H   0  0  0  0  0  0  0  0  0  0  0  0
   37.5200   25.4710   30.4410 H   0  0  0  0  0  0  0  0  0  0  0  0
   36.4980   24.8170   32.0080 O   0  0  0  0  0  0  0  0  0  0  0  0
   35.4860   24.0680   31.4720 C   0  0  0  0  0  2  0  0  0  0  0  0
   35.8430   22.6180   31.5110 C   0  0  0  0  0  2  0  0  0  0  0  0
   35.8690   22.3120   32.5940 H   0  0  0  0  0  0  0  0  0  0  0  0
  1 12  1  0  0  0  0
  1  6  1  0  0  0  0
  2  1  2  0  0  0  0
  3  2  1  0  0  0  0
  3  4  2  0  0  0  0
  4  5  1  0  0  0  0
  5  6  2  0  0  0  0
  5 14  1  0  0  0  0
  7  3  1  0  0  0  0
  8 15  1  0  0  0  0
  8  7  1  0  0  0  0
  9 10  1  0  0  0  0
  9  8  1  0  0  0  0
 10 19  1  0  0  0  0
 10 11  1  0  0  0  0
 11 25  1  6  0  0  0
 11  7  1  0  0  0  0
 11 21  1  0  0  0  0
 13  2  1  0  0  0  0
 16  8  1  0  0  0  0
 17  9  1  0  0  0  0
 18  9  1  0  0  0  0
 20 10  1  0  0  0  0
 21 24  1  0  0  0  0
 21 23  1  0  0  0  0
 22 21  1  0  0  0  0
 25 28  1  0  0  0  0
 26 25  1  0  0  0  0
 27 25  1  0  0  0  0
 29 30  1  0  0  0  0
 29 28  1  0  0  0  0
 30 31  1  0  0  0  0
M  END
>  <minimizedAffinity>
-4.06676006

$$$$

 OpenBabel03272507263D

 31 32  0  0  1  0  0  0  0  0999 V2000
   42.3160   21.8140   36.2240 C   0  0  0  0  0  0  0  0  0  0  0  0
   42.0420   22.9900   35.4910 C   0  0  0  0  0  0  0  0  0  0  0  0
   40.8830   23.7170   35.8360 C   0  0  0  0  0  0  0  0  0  0  0  0
   40.1240   23.2460   36.8340 N   0  0  0  0  0  0  0  0  0  0  0  0
   40.4130   22.1120   37.5220 C   0  0  0  0  0  0  0  0  0  0  0  0
   41.5120   21.4110   37.2020 N   0  0  0  0  0  0  0  0  0  0  0  0
   40.5540   24.8890   35.1520 N   0  0  0  0  0  0  0  0  0  0  0  0
   41.5120   25.7960   34.5070 C   0  0  0  0  0  0  0  0  0  0  0  0
   40.7450   27.0280   34.1270 C   0  0  0  0  0  0  0  0  0  0  0  0
   39.5370   26.9410   34.9720 C   0  0  0  0  0  0  0  0  0  0  0  0
   39.2590   25.4440   34.9350 C   0  0  2  0  0  0  0  0  0  0  0  0
   43.2270   21.3100   35.8970 H   0  0  0  0  0  0  0  0  0  0  0  0
   42.6690   23.3640   34.6810 H   0  0  0  0  0  0  0  0  0  0  0  0
   39.7780   21.7460   38.3330 H   0  0  0  0  0  0  0  0  0  0  0  0
   42.3970   25.9800   35.1220 H   0  0  0  0  0  0  0  0  0  0  0  0
   41.8140   25.2860   33.5600 H   0  0  0  0  0  0  0  0  0  0  0  0
   41.3520   27.8890   34.5230 H   0  0  0  0  0  0  0  0  0  0  0  0
   40.6260   27.2250   33.0690 H   0  0  0  0  0  0  0  0  0  0  0  0
   39.8310   27.1630   36.0310 H   0  0  0  0  0  0  0  0  0  0  0  0
   38.6710   27.5460   34.6410 H   0  0  0  0  0  0  0  0  0  0  0  0
   38.1570   25.0630   35.8320 C   0  0  0  0  0  0  0  0  0  0  0  0
   37.0690   25.8470   35.4900 F   0  0  0  0  0  0  0  0  0  0  0  0
   38.3840   25.2690   37.1700 F   0  0  0  0  0  0  0  0  0  0  0  0
   37.8070   23.7620   35.5120 F   0  0  0  0  0  0  0  0  0  0  0  0
   38.8750   25.0530   33.5280 C   0  0  0  0  0  0  0  0  0  0  0  0
   37.7840   25.3490   33.4650 H   0  0  0  0  0  0  0  0  0  0  0  0
   39.3420   25.7320   32.7780 H   0  0  0  0  0  0  0  0  0  0  0  0
   39.1130   23.8680   33.4150 O   0  0  0  0  0  0  0  0  0  0  0  0
   39.3450   23.1450   32.2760 C   0  0  0  0  0  2  0  0  0  0  0  0
   40.7300   23.3990   31.7770 C   0  0  0  0  0  2  0  0  0  0  0  0
   41.4390   22.9600   32.5330 H   0  0  0  0  0  0  0  0  0  0  0  0
  1  6  1  0  0  0  0
  2  3  1  0  0  0  0
  2  1  2  0  0  0  0
  3  4  2  0  0  0  0
  4  5  1  0  0  0  0
  5 14  1  0  0  0  0
  6  5  2  0  0  0  0
  7  3  1  0  0  0  0
  8 15  1  0  0  0  0
  8  7  1  0  0  0  0
  9  8  1  0  0  0  0
  9 17  1  0  0  0  0
  9 10  1  0  0  0  0
 10 19  1  0  0  0  0
 11 25  1  6  0  0  0
 11 10  1  0  0  0  0
 11  7  1  0  0  0  0
 11 21  1  0  0  0  0
 12  1  1  0  0  0  0
 13  2  1  0  0  0  0
 16  8  1  0  0  0  0
 18  9  1  0  0  0  0
 20 10  1  0  0  0  0
 21 23  1  0  0  0  0
 22 21  1  0  0  0  0
 24 21  1  0  0  0  0
 26 25  1  0  0  0  0
 27 25  1  0  0  0  0
 28 25  1  0  0  0  0
 29 28  1  0  0  0  0
 30 29  1  0  0  0  0
 30 31  1  0  0  0  0
M  END
>  <minimizedAffinity>
-4.03691435

$$$$
