
 OpenBabel03272509453D

 13 13  0  0  0  0  0  0  0  0999 V2000
   37.6690   30.2690   51.2140 C   0  0  0  0  0  0  0  0  0  0  0  0
   38.3330   31.1120   50.3170 C   0  0  0  0  0  0  0  0  0  0  0  0
   38.0070   31.0250   48.9600 C   0  0  0  0  0  0  0  0  0  0  0  0
   37.0510   30.1100   48.6050 N   0  0  0  0  0  0  0  0  0  0  0  0
   36.4350   29.3160   49.4950 C   0  0  0  0  0  0  0  0  0  0  0  0
   36.7530   29.4060   50.8020 N   0  0  0  0  0  0  0  0  0  0  0  0
   37.9080   30.3200   52.2790 H   0  0  0  0  0  0  0  0  0  0  0  0
   39.0800   31.8210   50.6320 H   0  0  0  0  0  0  0  0  0  0  0  0
   38.5060   31.6630   48.2660 H   0  0  0  0  0  0  0  0  0  0  0  0
   35.5120   28.4770   48.9110 O   0  0  0  0  0  0  0  0  0  0  0  0
   34.2490   28.3320   49.5340 C   0  0  0  0  0  2  0  0  0  0  0  0
   33.7790   29.6420   50.1020 C   0  0  0  0  0  2  0  0  0  0  0  0
   33.3770   30.3060   49.3260 H   0  0  0  0  0  0  0  0  0  0  0  0
  1  7  1  0  0  0  0
  2  8  1  0  0  0  0
  2  1  2  0  0  0  0
  3  2  1  0  0  0  0
  4  3  2  0  0  0  0
  4  5  1  0  0  0  0
  5  6  2  0  0  0  0
  6  1  1  0  0  0  0
  9  3  1  0  0  0  0
 10  5  1  0  0  0  0
 10 11  1  0  0  0  0
 11 12  1  0  0  0  0
 13 12  1  0  0  0  0
M  END
>  <minimizedAffinity>
-3.19665408

>  <minimizedRMSD>
1.11496127

$$$$
