
 OpenBabel03262521433D

 24 25  0  0  1  0  0  0  0  0999 V2000
   37.7520   24.1420   36.9460 C   0  0  1  0  0  0  0  0  0  0  0  0
   38.3000   22.7080   36.8730 C   0  0  2  0  0  0  0  0  0  0  0  0
   39.5060   22.9450   37.7570 C   0  0  0  0  0  0  0  0  0  0  0  0
   39.0180   23.6460   38.8470 O   0  0  0  0  0  0  0  0  0  0  0  0
   37.8990   24.3350   38.4700 C   0  0  0  0  0  0  0  0  0  0  0  0
   36.7000   24.1820   36.6480 H   0  0  0  0  0  0  0  0  0  0  0  0
   37.5550   22.0490   37.3490 H   0  0  0  0  0  0  0  0  0  0  0  0
   40.2030   23.6390   37.2440 H   0  0  0  0  0  0  0  0  0  0  0  0
   39.9980   21.9970   38.0520 H   0  0  0  0  0  0  0  0  0  0  0  0
   38.0930   25.4170   38.6670 H   0  0  0  0  0  0  0  0  0  0  0  0
   36.9600   23.9960   38.9360 H   0  0  0  0  0  0  0  0  0  0  0  0
   38.6150   22.3150   35.4990 C   0  0  0  0  0  0  0  0  0  0  0  0
   39.9580   22.2280   35.0700 C   0  0  0  0  0  0  0  0  0  0  0  0
   40.1580   21.8670   33.7340 C   0  0  0  0  0  0  0  0  0  0  0  0
   39.0800   21.6200   32.9250 N   0  0  0  0  0  0  0  0  0  0  0  0
   37.8090   21.7170   33.3850 C   0  0  0  0  0  0  0  0  0  0  0  0
   37.5830   22.0640   34.6730 N   0  0  0  0  0  0  0  0  0  0  0  0
   40.7560   22.4380   35.7660 H   0  0  0  0  0  0  0  0  0  0  0  0
   41.1730   21.7900   33.3660 H   0  0  0  0  0  0  0  0  0  0  0  0
   37.0340   21.5010   32.6640 H   0  0  0  0  0  0  0  0  0  0  0  0
   38.5970   25.0460   36.3800 O   0  0  0  0  0  0  0  0  0  0  0  0
   37.8760   25.9830   35.6780 C   0  0  0  0  0  2  0  0  0  0  0  0
   38.4530   27.3720   35.7100 C   0  0  0  0  0  2  0  0  0  0  0  0
   39.5020   27.4100   35.3480 H   0  0  0  0  0  0  0  0  0  0  0  0
  1  6  1  6  0  0  0
  1  5  1  0  0  0  0
  2  1  1  0  0  0  0
  2  7  1  1  0  0  0
  2  3  1  0  0  0  0
  3  9  1  0  0  0  0
  3  4  1  0  0  0  0
  5 10  1  0  0  0  0
  5  4  1  0  0  0  0
  5 11  1  0  0  0  0
  8  3  1  0  0  0  0
 12  2  1  0  0  0  0
 13 12  1  0  0  0  0
 13 18  1  0  0  0  0
 14 13  2  0  0  0  0
 15 16  2  0  0  0  0
 15 14  1  0  0  0  0
 16 17  1  0  0  0  0
 17 12  2  0  0  0  0
 19 14  1  0  0  0  0
 20 16  1  0  0  0  0
 21  1  1  0  0  0  0
 22 23  1  0  0  0  0
 22 21  1  0  0  0  0
 24 23  1  0  0  0  0
M  END
>  <minimizedAffinity>
-3.83294988

$$$$

 OpenBabel03262521433D

 24 25  0  0  1  0  0  0  0  0999 V2000
   35.0140   21.2190   32.3970 C   0  0  1  0  0  0  0  0  0  0  0  0
   35.5310   21.6960   31.0310 C   0  0  2  0  0  0  0  0  0  0  0  0
   36.5060   20.5590   30.8140 C   0  0  0  0  0  0  0  0  0  0  0  0
   35.7970   19.4130   31.1370 O   0  0  0  0  0  0  0  0  0  0  0  0
   34.8120   19.7350   32.0280 C   0  0  0  0  0  0  0  0  0  0  0  0
   34.0610   21.6920   32.6500 H   0  0  0  0  0  0  0  0  0  0  0  0
   34.6800   21.6570   30.3290 H   0  0  0  0  0  0  0  0  0  0  0  0
   37.3180   20.6280   31.5670 H   0  0  0  0  0  0  0  0  0  0  0  0
   36.8950   20.5340   29.7770 H   0  0  0  0  0  0  0  0  0  0  0  0
   34.9800   19.1210   32.9460 H   0  0  0  0  0  0  0  0  0  0  0  0
   33.7830   19.6280   31.6480 H   0  0  0  0  0  0  0  0  0  0  0  0
   36.1440   23.0220   31.1130 C   0  0  0  0  0  0  0  0  0  0  0  0
   35.3580   24.1540   31.4240 C   0  0  0  0  0  0  0  0  0  0  0  0
   36.0280   25.3810   31.4570 C   0  0  0  0  0  0  0  0  0  0  0  0
   37.3720   25.4320   31.1950 N   0  0  0  0  0  0  0  0  0  0  0  0
   38.0820   24.3150   30.9020 C   0  0  0  0  0  0  0  0  0  0  0  0
   37.4620   23.1140   30.8620 N   0  0  0  0  0  0  0  0  0  0  0  0
   34.3030   24.0360   31.6190 H   0  0  0  0  0  0  0  0  0  0  0  0
   35.4610   26.2730   31.6910 H   0  0  0  0  0  0  0  0  0  0  0  0
   39.1340   24.4680   30.7120 H   0  0  0  0  0  0  0  0  0  0  0  0
   35.9890   21.2300   33.3480 O   0  0  0  0  0  0  0  0  0  0  0  0
   35.5970   20.4710   34.4260 C   0  0  0  0  0  2  0  0  0  0  0  0
   35.9700   21.0450   35.7660 C   0  0  0  0  0  2  0  0  0  0  0  0
   35.5810   22.0740   35.9160 H   0  0  0  0  0  0  0  0  0  0  0  0
  1  6  1  1  0  0  0
  1 21  1  0  0  0  0
  2  7  1  6  0  0  0
  2 12  1  0  0  0  0
  2  1  1  0  0  0  0
  3  2  1  0  0  0  0
  3  4  1  0  0  0  0
  3  8  1  0  0  0  0
  4  5  1  0  0  0  0
  5  1  1  0  0  0  0
  5 10  1  0  0  0  0
  9  3  1  0  0  0  0
 11  5  1  0  0  0  0
 12 13  1  0  0  0  0
 13 14  2  0  0  0  0
 13 18  1  0  0  0  0
 14 19  1  0  0  0  0
 15 14  1  0  0  0  0
 16 15  2  0  0  0  0
 17 16  1  0  0  0  0
 17 12  2  0  0  0  0
 20 16  1  0  0  0  0
 21 22  1  0  0  0  0
 22 23  1  0  0  0  0
 23 24  1  0  0  0  0
M  END
>  <minimizedAffinity>
-3.81628966

$$$$

 OpenBabel03262521433D

 24 25  0  0  1  0  0  0  0  0999 V2000
   38.7700   26.0010   34.8730 C   0  0  1  0  0  0  0  0  0  0  0  0
   38.1880   26.7040   33.6370 C   0  0  2  0  0  0  0  0  0  0  0  0
   37.0610   27.4090   34.3610 C   0  0  0  0  0  0  0  0  0  0  0  0
   37.6470   27.9560   35.4910 O   0  0  0  0  0  0  0  0  0  0  0  0
   38.7470   27.2150   35.8240 C   0  0  0  0  0  0  0  0  0  0  0  0
   39.7960   25.6640   34.6940 H   0  0  0  0  0  0  0  0  0  0  0  0
   38.9550   27.4080   33.2710 H   0  0  0  0  0  0  0  0  0  0  0  0
   36.3400   26.6540   34.7350 H   0  0  0  0  0  0  0  0  0  0  0  0
   36.5740   28.1770   33.7270 H   0  0  0  0  0  0  0  0  0  0  0  0
   38.5910   26.8400   36.8650 H   0  0  0  0  0  0  0  0  0  0  0  0
   39.7120   27.7350   35.7170 H   0  0  0  0  0  0  0  0  0  0  0  0
   37.7590   25.7480   32.6170 C   0  0  0  0  0  0  0  0  0  0  0  0
   38.7050   24.9260   31.9640 C   0  0  0  0  0  0  0  0  0  0  0  0
   38.2020   24.0600   30.9880 C   0  0  0  0  0  0  0  0  0  0  0  0
   36.8590   24.0440   30.7160 N   0  0  0  0  0  0  0  0  0  0  0  0
   35.9910   24.8530   31.3720 C   0  0  0  0  0  0  0  0  0  0  0  0
   36.4470   25.7020   32.3210 N   0  0  0  0  0  0  0  0  0  0  0  0
   39.7480   24.9950   32.2320 H   0  0  0  0  0  0  0  0  0  0  0  0
   38.8950   23.4150   30.4640 H   0  0  0  0  0  0  0  0  0  0  0  0
   34.9550   24.7600   31.0800 H   0  0  0  0  0  0  0  0  0  0  0  0
   37.9010   25.1000   35.4080 O   0  0  0  0  0  0  0  0  0  0  0  0
   38.5530   24.3130   36.3290 C   0  0  0  0  0  2  0  0  0  0  0  0
   37.7940   24.0820   37.6070 C   0  0  0  0  0  2  0  0  0  0  0  0
   36.7890   23.6430   37.4370 H   0  0  0  0  0  0  0  0  0  0  0  0
  1  6  1  6  0  0  0
  1 21  1  0  0  0  0
  1  5  1  0  0  0  0
  2  7  1  6  0  0  0
  2  3  1  0  0  0  0
  2  1  1  0  0  0  0
  3  8  1  0  0  0  0
  3  4  1  0  0  0  0
  4  5  1  0  0  0  0
  5 10  1  0  0  0  0
  9  3  1  0  0  0  0
 11  5  1  0  0  0  0
 12  2  1  0  0  0  0
 13 18  1  0  0  0  0
 13 12  2  0  0  0  0
 14 13  1  0  0  0  0
 15 14  2  0  0  0  0
 15 16  1  0  0  0  0
 16 17  2  0  0  0  0
 17 12  1  0  0  0  0
 19 14  1  0  0  0  0
 20 16  1  0  0  0  0
 21 22  1  0  0  0  0
 22 23  1  0  0  0  0
 24 23  1  0  0  0  0
M  END
>  <minimizedAffinity>
-3.56978774

$$$$

 OpenBabel03262521433D

 24 25  0  0  1  0  0  0  0  0999 V2000
   38.5450   23.5370   36.0130 C   0  0  1  0  0  0  0  0  0  0  0  0
   39.4770   22.4790   36.6240 C   0  0  2  0  0  0  0  0  0  0  0  0
   39.4880   23.0540   38.0240 C   0  0  0  0  0  0  0  0  0  0  0  0
   38.1600   23.3280   38.3090 O   0  0  0  0  0  0  0  0  0  0  0  0
   37.4900   23.5490   37.1380 C   0  0  0  0  0  0  0  0  0  0  0  0
   38.1090   23.1890   35.0720 H   0  0  0  0  0  0  0  0  0  0  0  0
   38.9490   21.5110   36.5730 H   0  0  0  0  0  0  0  0  0  0  0  0
   39.9990   24.0380   38.0090 H   0  0  0  0  0  0  0  0  0  0  0  0
   39.9400   22.3570   38.7570 H   0  0  0  0  0  0  0  0  0  0  0  0
   37.0510   24.5750   37.1940 H   0  0  0  0  0  0  0  0  0  0  0  0
   36.7300   22.7930   36.8840 H   0  0  0  0  0  0  0  0  0  0  0  0
   40.7810   22.4530   35.9610 C   0  0  0  0  0  0  0  0  0  0  0  0
   41.9530   22.7810   36.6770 C   0  0  0  0  0  0  0  0  0  0  0  0
   43.1490   22.7500   35.9530 C   0  0  0  0  0  0  0  0  0  0  0  0
   43.1340   22.4140   34.6250 N   0  0  0  0  0  0  0  0  0  0  0  0
   41.9810   22.1060   33.9820 C   0  0  0  0  0  0  0  0  0  0  0  0
   40.8080   22.1280   34.6560 N   0  0  0  0  0  0  0  0  0  0  0  0
   41.8870   23.0370   37.7240 H   0  0  0  0  0  0  0  0  0  0  0  0
   44.0700   22.9970   36.4660 H   0  0  0  0  0  0  0  0  0  0  0  0
   42.0820   21.8560   32.9360 H   0  0  0  0  0  0  0  0  0  0  0  0
   39.1020   24.7790   36.0210 O   0  0  0  0  0  0  0  0  0  0  0  0
   38.1640   25.7140   35.6500 C   0  0  0  0  0  2  0  0  0  0  0  0
   38.5510   27.1390   35.9360 C   0  0  0  0  0  2  0  0  0  0  0  0
   39.5170   27.4240   35.4700 H   0  0  0  0  0  0  0  0  0  0  0  0
  1  6  1  6  0  0  0
  1 21  1  0  0  0  0
  1  2  1  0  0  0  0
  1  5  1  0  0  0  0
  2  7  1  6  0  0  0
  2  3  1  0  0  0  0
  3  4  1  0  0  0  0
  3  9  1  0  0  0  0
  5 10  1  0  0  0  0
  5  4  1  0  0  0  0
  8  3  1  0  0  0  0
 11  5  1  0  0  0  0
 12  2  1  0  0  0  0
 12 13  1  0  0  0  0
 13 18  1  0  0  0  0
 14 19  1  0  0  0  0
 14 13  2  0  0  0  0
 15 14  1  0  0  0  0
 16 15  2  0  0  0  0
 16 17  1  0  0  0  0
 17 12  2  0  0  0  0
 20 16  1  0  0  0  0
 22 23  1  0  0  0  0
 22 21  1  0  0  0  0
 24 23  1  0  0  0  0
M  END
>  <minimizedAffinity>
-3.53378701

$$$$

 OpenBabel03262521433D

 24 25  0  0  1  0  0  0  0  0999 V2000
   39.4770   25.5170   34.1020 C   0  0  1  0  0  0  0  0  0  0  0  0
   38.2380   24.8830   34.7540 C   0  0  2  0  0  0  0  0  0  0  0  0
   37.4280   26.1580   34.8480 C   0  0  0  0  0  0  0  0  0  0  0  0
   37.5600   26.7590   33.6070 O   0  0  0  0  0  0  0  0  0  0  0  0
   38.7370   26.3560   33.0400 C   0  0  0  0  0  0  0  0  0  0  0  0
   40.1100   24.7590   33.6290 H   0  0  0  0  0  0  0  0  0  0  0  0
   37.8140   24.1710   34.0250 H   0  0  0  0  0  0  0  0  0  0  0  0
   37.9170   26.8480   35.5660 H   0  0  0  0  0  0  0  0  0  0  0  0
   36.3700   25.9620   35.1100 H   0  0  0  0  0  0  0  0  0  0  0  0
   39.3400   27.2750   32.8400 H   0  0  0  0  0  0  0  0  0  0  0  0
   38.6340   25.7310   32.1390 H   0  0  0  0  0  0  0  0  0  0  0  0
   38.5570   24.2620   36.0400 C   0  0  0  0  0  0  0  0  0  0  0  0
   37.8560   24.6370   37.2080 C   0  0  0  0  0  0  0  0  0  0  0  0
   38.2460   24.0060   38.3920 C   0  0  0  0  0  0  0  0  0  0  0  0
   39.2570   23.0810   38.3720 N   0  0  0  0  0  0  0  0  0  0  0  0
   39.8990   22.7550   37.2230 C   0  0  0  0  0  0  0  0  0  0  0  0
   39.5440   23.3490   36.0610 N   0  0  0  0  0  0  0  0  0  0  0  0
   37.0700   25.3750   37.1460 H   0  0  0  0  0  0  0  0  0  0  0  0
   37.7340   24.2660   39.3100 H   0  0  0  0  0  0  0  0  0  0  0  0
   40.6800   22.0150   37.3190 H   0  0  0  0  0  0  0  0  0  0  0  0
   40.0860   26.4170   34.9210 O   0  0  0  0  0  0  0  0  0  0  0  0
   41.3910   26.5980   34.5280 C   0  0  0  0  0  2  0  0  0  0  0  0
   42.3240   25.4840   34.9160 C   0  0  0  0  0  2  0  0  0  0  0  0
   41.9910   24.4940   34.5410 H   0  0  0  0  0  0  0  0  0  0  0  0
  1  6  1  6  0  0  0
  1  2  1  0  0  0  0
  1 21  1  0  0  0  0
  2  7  1  6  0  0  0
  2  3  1  0  0  0  0
  2 12  1  0  0  0  0
  3  9  1  0  0  0  0
  3  8  1  0  0  0  0
  4  3  1  0  0  0  0
  5  4  1  0  0  0  0
  5  1  1  0  0  0  0
 10  5  1  0  0  0  0
 11  5  1  0  0  0  0
 12 17  2  0  0  0  0
 12 13  1  0  0  0  0
 13 14  2  0  0  0  0
 14 19  1  0  0  0  0
 15 14  1  0  0  0  0
 16 20  1  0  0  0  0
 16 15  2  0  0  0  0
 17 16  1  0  0  0  0
 18 13  1  0  0  0  0
 22 23  1  0  0  0  0
 22 21  1  0  0  0  0
 24 23  1  0  0  0  0
M  END
>  <minimizedAffinity>
-3.50561523

$$$$

 OpenBabel03262521433D

 24 25  0  0  1  0  0  0  0  0999 V2000
   37.8630   23.2220   33.6610 C   0  0  1  0  0  0  0  0  0  0  0  0
   38.9940   23.9450   34.4080 C   0  0  2  0  0  0  0  0  0  0  0  0
   40.1350   23.2170   33.7300 C   0  0  0  0  0  0  0  0  0  0  0  0
   39.8190   23.2320   32.3820 O   0  0  0  0  0  0  0  0  0  0  0  0
   38.4620   23.3220   32.2430 C   0  0  0  0  0  0  0  0  0  0  0  0
   36.9220   23.7770   33.7280 H   0  0  0  0  0  0  0  0  0  0  0  0
   38.9470   25.0090   34.1180 H   0  0  0  0  0  0  0  0  0  0  0  0
   40.1130   22.1480   34.0290 H   0  0  0  0  0  0  0  0  0  0  0  0
   41.1140   23.6900   33.9380 H   0  0  0  0  0  0  0  0  0  0  0  0
   38.1270   22.4300   31.6590 H   0  0  0  0  0  0  0  0  0  0  0  0
   38.0980   24.2620   31.7980 H   0  0  0  0  0  0  0  0  0  0  0  0
   38.9090   23.7430   35.8540 C   0  0  0  0  0  0  0  0  0  0  0  0
   37.8610   24.3290   36.5980 C   0  0  0  0  0  0  0  0  0  0  0  0
   37.8770   24.0980   37.9760 C   0  0  0  0  0  0  0  0  0  0  0  0
   38.8740   23.3380   38.5300 N   0  0  0  0  0  0  0  0  0  0  0  0
   39.8590   22.7970   37.7720 C   0  0  0  0  0  0  0  0  0  0  0  0
   39.8710   23.0030   36.4350 N   0  0  0  0  0  0  0  0  0  0  0  0
   37.1090   24.9160   36.0910 H   0  0  0  0  0  0  0  0  0  0  0  0
   37.0900   24.5300   38.5820 H   0  0  0  0  0  0  0  0  0  0  0  0
   40.5950   22.2170   38.3090 H   0  0  0  0  0  0  0  0  0  0  0  0
   37.8250   21.8920   33.9490 O   0  0  0  0  0  0  0  0  0  0  0  0
   36.7250   21.3170   33.3570 C   0  0  0  0  0  2  0  0  0  0  0  0
   35.7300   20.7280   34.3200 C   0  0  0  0  0  2  0  0  0  0  0  0
   35.3670   21.4650   35.0670 H   0  0  0  0  0  0  0  0  0  0  0  0
  1  6  1  1  0  0  0
  1 21  1  0  0  0  0
  1  2  1  0  0  0  0
  2  7  1  6  0  0  0
  2 12  1  0  0  0  0
  3  9  1  0  0  0  0
  3  8  1  0  0  0  0
  3  2  1  0  0  0  0
  4  3  1  0  0  0  0
  5  4  1  0  0  0  0
  5  1  1  0  0  0  0
 10  5  1  0  0  0  0
 11  5  1  0  0  0  0
 12 17  2  0  0  0  0
 12 13  1  0  0  0  0
 13 14  2  0  0  0  0
 14 15  1  0  0  0  0
 14 19  1  0  0  0  0
 16 20  1  0  0  0  0
 16 15  2  0  0  0  0
 17 16  1  0  0  0  0
 18 13  1  0  0  0  0
 22 21  1  0  0  0  0
 22 23  1  0  0  0  0
 23 24  1  0  0  0  0
M  END
>  <minimizedAffinity>
-3.49007869

$$$$

 OpenBabel03262521433D

 24 25  0  0  1  0  0  0  0  0999 V2000
   36.5340   21.8520   31.7700 C   0  0  1  0  0  0  0  0  0  0  0  0
   36.9280   21.0150   32.9970 C   0  0  2  0  0  0  0  0  0  0  0  0
   35.5200   20.7850   33.5020 C   0  0  0  0  0  0  0  0  0  0  0  0
   34.7930   20.4180   32.3820 O   0  0  0  0  0  0  0  0  0  0  0  0
   35.3870   20.9490   31.2710 C   0  0  0  0  0  0  0  0  0  0  0  0
   37.3450   21.8920   31.0370 H   0  0  0  0  0  0  0  0  0  0  0  0
   37.3940   20.0870   32.6230 H   0  0  0  0  0  0  0  0  0  0  0  0
   35.0890   21.7530   33.8320 H   0  0  0  0  0  0  0  0  0  0  0  0
   35.4820   20.0160   34.2990 H   0  0  0  0  0  0  0  0  0  0  0  0
   34.6280   21.5950   30.7660 H   0  0  0  0  0  0  0  0  0  0  0  0
   35.8250   20.2140   30.5770 H   0  0  0  0  0  0  0  0  0  0  0  0
   37.7940   21.7610   33.9100 C   0  0  0  0  0  0  0  0  0  0  0  0
   39.0160   22.3030   33.4530 C   0  0  0  0  0  0  0  0  0  0  0  0
   39.7850   22.9800   34.4050 C   0  0  0  0  0  0  0  0  0  0  0  0
   39.3370   23.0860   35.6950 N   0  0  0  0  0  0  0  0  0  0  0  0
   38.1550   22.5480   36.0840 C   0  0  0  0  0  0  0  0  0  0  0  0
   37.3880   21.8870   35.1860 N   0  0  0  0  0  0  0  0  0  0  0  0
   39.3030   22.1790   32.4200 H   0  0  0  0  0  0  0  0  0  0  0  0
   40.7300   23.4090   34.0950 H   0  0  0  0  0  0  0  0  0  0  0  0
   37.8970   22.6900   37.1230 H   0  0  0  0  0  0  0  0  0  0  0  0
   35.9470   23.0300   32.1180 O   0  0  0  0  0  0  0  0  0  0  0  0
   36.1570   23.9660   31.1320 C   0  0  0  0  0  2  0  0  0  0  0  0
   35.0610   24.9850   30.9890 C   0  0  0  0  0  2  0  0  0  0  0  0
   34.8540   25.5290   31.9340 H   0  0  0  0  0  0  0  0  0  0  0  0
  1  6  1  6  0  0  0
  1 21  1  0  0  0  0
  1  2  1  0  0  0  0
  2  7  1  6  0  0  0
  2  3  1  0  0  0  0
  2 12  1  0  0  0  0
  3  8  1  0  0  0  0
  3  9  1  0  0  0  0
  4  3  1  0  0  0  0
  5  1  1  0  0  0  0
  5  4  1  0  0  0  0
 10  5  1  0  0  0  0
 11  5  1  0  0  0  0
 12 17  1  0  0  0  0
 13 12  2  0  0  0  0
 13 14  1  0  0  0  0
 14 15  2  0  0  0  0
 15 16  1  0  0  0  0
 16 20  1  0  0  0  0
 17 16  2  0  0  0  0
 18 13  1  0  0  0  0
 19 14  1  0  0  0  0
 22 21  1  0  0  0  0
 23 22  1  0  0  0  0
 23 24  1  0  0  0  0
M  END
>  <minimizedAffinity>
-3.45264387

$$$$

 OpenBabel03262521433D

 24 25  0  0  1  0  0  0  0  0999 V2000
   39.2970   23.9780   34.9030 C   0  0  1  0  0  0  0  0  0  0  0  0
   40.4830   23.0130   35.0520 C   0  0  2  0  0  0  0  0  0  0  0  0
   39.8950   22.1970   36.1830 C   0  0  0  0  0  0  0  0  0  0  0  0
   38.5910   21.9360   35.7950 O   0  0  0  0  0  0  0  0  0  0  0  0
   38.1730   22.9220   34.9450 C   0  0  0  0  0  0  0  0  0  0  0  0
   39.3170   24.4890   33.9350 H   0  0  0  0  0  0  0  0  0  0  0  0
   40.5550   22.4370   34.1130 H   0  0  0  0  0  0  0  0  0  0  0  0
   39.8150   22.8340   37.0870 H   0  0  0  0  0  0  0  0  0  0  0  0
   40.4700   21.2700   36.3720 H   0  0  0  0  0  0  0  0  0  0  0  0
   37.2690   23.3930   35.4010 H   0  0  0  0  0  0  0  0  0  0  0  0
   37.9870   22.5990   33.9080 H   0  0  0  0  0  0  0  0  0  0  0  0
   41.7210   23.7190   35.3840 C   0  0  0  0  0  0  0  0  0  0  0  0
   42.5520   23.2520   36.4270 C   0  0  0  0  0  0  0  0  0  0  0  0
   43.7010   24.0050   36.6850 C   0  0  0  0  0  0  0  0  0  0  0  0
   43.9650   25.1250   35.9410 N   0  0  0  0  0  0  0  0  0  0  0  0
   43.1360   25.5310   34.9490 C   0  0  0  0  0  0  0  0  0  0  0  0
   42.0150   24.8240   34.6760 N   0  0  0  0  0  0  0  0  0  0  0  0
   42.2780   22.3600   36.9700 H   0  0  0  0  0  0  0  0  0  0  0  0
   44.3640   23.6810   37.4770 H   0  0  0  0  0  0  0  0  0  0  0  0
   43.4370   26.4270   34.4260 H   0  0  0  0  0  0  0  0  0  0  0  0
   39.1170   24.7470   36.0110 O   0  0  0  0  0  0  0  0  0  0  0  0
   38.1330   25.6790   35.7790 C   0  0  0  0  0  2  0  0  0  0  0  0
   38.5710   27.1090   35.9400 C   0  0  0  0  0  2  0  0  0  0  0  0
   39.4400   27.3670   35.2990 H   0  0  0  0  0  0  0  0  0  0  0  0
  1  6  1  6  0  0  0
  1  5  1  0  0  0  0
  1  2  1  0  0  0  0
  1 21  1  0  0  0  0
  2  7  1  6  0  0  0
  2 12  1  0  0  0  0
  2  3  1  0  0  0  0
  3  9  1  0  0  0  0
  3  8  1  0  0  0  0
  4  3  1  0  0  0  0
  5 10  1  0  0  0  0
  5  4  1  0  0  0  0
 11  5  1  0  0  0  0
 12 13  1  0  0  0  0
 13 14  2  0  0  0  0
 13 18  1  0  0  0  0
 14 19  1  0  0  0  0
 15 14  1  0  0  0  0
 16 15  2  0  0  0  0
 17 16  1  0  0  0  0
 17 12  2  0  0  0  0
 20 16  1  0  0  0  0
 22 23  1  0  0  0  0
 22 21  1  0  0  0  0
 24 23  1  0  0  0  0
M  END
>  <minimizedAffinity>
-3.45124364

$$$$

 OpenBabel03262521433D

 24 25  0  0  1  0  0  0  0  0999 V2000
   37.2100   26.2820   33.6310 C   0  0  1  0  0  0  0  0  0  0  0  0
   38.4830   26.4630   34.4730 C   0  0  2  0  0  0  0  0  0  0  0  0
   39.4370   26.6050   33.3060 C   0  0  0  0  0  0  0  0  0  0  0  0
   38.8170   27.4950   32.4430 O   0  0  0  0  0  0  0  0  0  0  0  0
   37.4650   27.4300   32.6330 C   0  0  0  0  0  0  0  0  0  0  0  0
   36.3100   26.4710   34.2230 H   0  0  0  0  0  0  0  0  0  0  0  0
   38.3690   27.4040   35.0370 H   0  0  0  0  0  0  0  0  0  0  0  0
   39.4850   25.6430   32.7560 H   0  0  0  0  0  0  0  0  0  0  0  0
   40.4370   26.9570   33.6250 H   0  0  0  0  0  0  0  0  0  0  0  0
   37.0050   27.1500   31.6540 H   0  0  0  0  0  0  0  0  0  0  0  0
   37.0070   28.3390   33.0540 H   0  0  0  0  0  0  0  0  0  0  0  0
   38.7360   25.3080   35.3340 C   0  0  0  0  0  0  0  0  0  0  0  0
   37.8340   24.9780   36.3710 C   0  0  0  0  0  0  0  0  0  0  0  0
   38.1720   23.8710   37.1550 C   0  0  0  0  0  0  0  0  0  0  0  0
   39.3230   23.1760   36.8940 N   0  0  0  0  0  0  0  0  0  0  0  0
   40.1560   23.5320   35.8860 C   0  0  0  0  0  0  0  0  0  0  0  0
   39.8570   24.5990   35.1100 N   0  0  0  0  0  0  0  0  0  0  0  0
   36.9450   25.5740   36.5160 H   0  0  0  0  0  0  0  0  0  0  0  0
   37.5070   23.5870   37.9610 H   0  0  0  0  0  0  0  0  0  0  0  0
   41.0360   22.9160   35.7680 H   0  0  0  0  0  0  0  0  0  0  0  0
   37.2410   25.1400   32.8900 O   0  0  0  0  0  0  0  0  0  0  0  0
   36.2750   25.1900   31.9130 C   0  0  0  0  0  2  0  0  0  0  0  0
   35.7500   23.8490   31.4790 C   0  0  0  0  0  2  0  0  0  0  0  0
   35.3480   23.2510   32.3240 H   0  0  0  0  0  0  0  0  0  0  0  0
  1  6  1  1  0  0  0
  1  2  1  0  0  0  0
  2  7  1  1  0  0  0
  2 12  1  0  0  0  0
  3  9  1  0  0  0  0
  3  2  1  0  0  0  0
  4  5  1  0  0  0  0
  4  3  1  0  0  0  0
  5 11  1  0  0  0  0
  5  1  1  0  0  0  0
  8  3  1  0  0  0  0
 10  5  1  0  0  0  0
 12 13  1  0  0  0  0
 13 18  1  0  0  0  0
 13 14  2  0  0  0  0
 14 19  1  0  0  0  0
 15 14  1  0  0  0  0
 16 15  2  0  0  0  0
 17 12  2  0  0  0  0
 17 16  1  0  0  0  0
 20 16  1  0  0  0  0
 21  1  1  0  0  0  0
 22 21  1  0  0  0  0
 23 22  1  0  0  0  0
 23 24  1  0  0  0  0
M  END
>  <minimizedAffinity>
-3.45012236

$$$$
