
 OpenBabel03272510233D

 26 28  0  0  0  0  0  0  0  0999 V2000
   36.1280   30.1290   46.7950 C   0  0  0  0  0  0  0  0  0  0  0  0
   37.0050   30.7200   47.6940 C   0  0  0  0  0  0  0  0  0  0  0  0
   37.9740   31.6230   47.2670 C   0  0  0  0  0  0  0  0  0  0  0  0
   38.0080   31.8920   45.9050 C   0  0  0  0  0  0  0  0  0  0  0  0
   38.8510   32.7280   45.2450 N   0  0  0  0  0  0  0  0  0  0  0  0
   38.5120   32.6670   43.9550 C   0  0  0  0  0  0  0  0  0  0  0  0
   37.4930   31.8290   43.7610 N   0  0  0  0  0  0  0  0  0  0  0  0
   37.1560   31.3280   44.9730 C   0  0  0  0  0  0  0  0  0  0  0  0
   36.1970   30.4270   45.4350 C   0  0  0  0  0  0  0  0  0  0  0  0
   35.3700   29.4320   47.0720 H   0  0  0  0  0  0  0  0  0  0  0  0
   38.6560   32.0840   47.9620 H   0  0  0  0  0  0  0  0  0  0  0  0
   39.6220   33.3120   45.6770 H   0  0  0  0  0  0  0  0  0  0  0  0
   35.5160   29.9710   44.7250 H   0  0  0  0  0  0  0  0  0  0  0  0
   37.5560   30.2470   51.3910 C   0  0  0  0  0  0  0  0  0  0  0  0
   37.7810   30.6370   50.0850 C   0  0  0  0  0  0  0  0  0  0  0  0
   36.8700   30.3580   49.0910 C   0  0  0  0  0  0  0  0  0  0  0  0
   35.7550   29.6860   49.4700 N   0  0  0  0  0  0  0  0  0  0  0  0
   35.5360   29.3040   50.7530 C   0  0  0  0  0  0  0  0  0  0  0  0
   36.4320   29.5850   51.6990 N   0  0  0  0  0  0  0  0  0  0  0  0
   38.3360   30.5180   52.0900 H   0  0  0  0  0  0  0  0  0  0  0  0
   38.6760   31.1730   49.8040 H   0  0  0  0  0  0  0  0  0  0  0  0
   34.6140   28.7620   50.9960 H   0  0  0  0  0  0  0  0  0  0  0  0
   39.1860   33.4160   42.9750 O   0  0  0  0  0  0  0  0  0  0  0  0
   39.1050   33.0240   41.6110 C   0  0  0  0  0  2  0  0  0  0  0  0
   38.2070   34.0150   40.9000 C   0  0  0  0  0  2  0  0  0  0  0  0
   37.5260   34.5560   41.5970 H   0  0  0  0  0  0  0  0  0  0  0  0
  1 10  1  0  0  0  0
  1  2  1  0  0  0  0
  2 16  1  0  0  0  0
  3  2  2  0  0  0  0
  3 11  1  0  0  0  0
  4  3  1  0  0  0  0
  5 12  1  0  0  0  0
  5  4  1  0  0  0  0
  6  5  1  0  0  0  0
  7  6  2  0  0  0  0
  7  8  1  0  0  0  0
  8  9  1  0  0  0  0
  8  4  2  0  0  0  0
  9  1  2  0  0  0  0
 13  9  1  0  0  0  0
 14 19  1  0  0  0  0
 14 20  1  0  0  0  0
 15 14  2  0  0  0  0
 16 17  2  0  0  0  0
 16 15  1  0  0  0  0
 17 18  1  0  0  0  0
 18 22  1  0  0  0  0
 18 19  2  0  0  0  0
 21 15  1  0  0  0  0
 23  6  1  0  0  0  0
 24 23  1  0  0  0  0
 25 26  1  0  0  0  0
 25 24  1  0  0  0  0
M  END
>  <minimizedAffinity>
-5.05421352

>  <minimizedRMSD>
1.2152319

$$$$
