
 OpenBabel03262521423D

 24 25  0  0  1  0  0  0  0  0999 V2000
   38.6850   31.7790   47.9440 C   0  0  1  0  0  0  0  0  0  0  0  0
   37.9190   30.4550   47.7950 C   0  0  2  0  0  0  0  0  0  0  0  0
   37.0350   30.9010   46.6500 C   0  0  0  0  0  0  0  0  0  0  0  0
   37.8910   31.5290   45.7600 O   0  0  0  0  0  0  0  0  0  0  0  0
   38.9680   32.0170   46.4470 C   0  0  0  0  0  0  0  0  0  0  0  0
   39.6170   31.6400   48.5010 H   0  0  0  0  0  0  0  0  0  0  0  0
   38.6500   29.6890   47.4840 H   0  0  0  0  0  0  0  0  0  0  0  0
   36.3460   31.6930   47.0100 H   0  0  0  0  0  0  0  0  0  0  0  0
   36.4940   30.0530   46.1860 H   0  0  0  0  0  0  0  0  0  0  0  0
   39.0030   33.1190   46.2690 H   0  0  0  0  0  0  0  0  0  0  0  0
   39.9300   31.5350   46.2130 H   0  0  0  0  0  0  0  0  0  0  0  0
   37.2040   30.0980   49.0200 C   0  0  0  0  0  0  0  0  0  0  0  0
   37.9040   29.9380   50.2360 C   0  0  0  0  0  0  0  0  0  0  0  0
   37.1380   29.5740   51.3480 C   0  0  0  0  0  0  0  0  0  0  0  0
   35.7860   29.3950   51.2150 N   0  0  0  0  0  0  0  0  0  0  0  0
   35.1600   29.5610   50.0250 C   0  0  0  0  0  0  0  0  0  0  0  0
   35.8740   29.9130   48.9310 N   0  0  0  0  0  0  0  0  0  0  0  0
   38.9720   30.0970   50.2630 H   0  0  0  0  0  0  0  0  0  0  0  0
   37.6380   29.4410   52.2990 H   0  0  0  0  0  0  0  0  0  0  0  0
   34.0930   29.3940   50.0320 H   0  0  0  0  0  0  0  0  0  0  0  0
   37.8740   32.8010   48.3310 O   0  0  0  0  0  0  0  0  0  0  0  0
   38.4240   33.4520   49.4100 C   0  0  0  0  0  0  0  0  0  0  0  0
   39.6060   34.3220   49.0830 C   0  0  0  0  0  0  0  0  0  0  0  0
   39.3780   35.0840   48.3090 H   0  0  0  0  0  0  0  0  0  0  0  0
  1 21  1  0  0  0  0
  1  6  1  1  0  0  0
  2  7  1  6  0  0  0
  2  1  1  0  0  0  0
  2 12  1  0  0  0  0
  3  8  1  0  0  0  0
  3  2  1  0  0  0  0
  4  5  1  0  0  0  0
  4  3  1  0  0  0  0
  5  1  1  0  0  0  0
  9  3  1  0  0  0  0
 10  5  1  0  0  0  0
 11  5  1  0  0  0  0
 12 13  1  0  0  0  0
 13 18  1  0  0  0  0
 13 14  2  0  0  0  0
 14 19  1  0  0  0  0
 15 14  1  0  0  0  0
 16 20  1  0  0  0  0
 16 15  2  0  0  0  0
 17 12  2  0  0  0  0
 17 16  1  0  0  0  0
 21 22  1  0  0  0  0
 23 22  1  0  0  0  0
 24 23  1  0  0  0  0
M  END
>  <minimizedAffinity>
-4.74875879

>  <minimizedRMSD>
0.669487238

$$$$
