
 OpenBabel03272510233D

 26 28  0  0  0  0  0  0  0  0999 V2000
   36.1430   30.1570   46.7710 C   0  0  0  0  0  0  0  0  0  0  0  0
   37.0250   30.7350   47.6740 C   0  0  0  0  0  0  0  0  0  0  0  0
   38.0040   31.6290   47.2530 C   0  0  0  0  0  0  0  0  0  0  0  0
   38.0460   31.9030   45.8920 C   0  0  0  0  0  0  0  0  0  0  0  0
   38.8990   32.7320   45.2380 N   0  0  0  0  0  0  0  0  0  0  0  0
   38.5630   32.6780   43.9460 C   0  0  0  0  0  0  0  0  0  0  0  0
   37.5350   31.8530   43.7470 N   0  0  0  0  0  0  0  0  0  0  0  0
   37.1890   31.3510   44.9560 C   0  0  0  0  0  0  0  0  0  0  0  0
   36.2200   30.4590   45.4120 C   0  0  0  0  0  0  0  0  0  0  0  0
   35.3780   29.4670   47.0440 H   0  0  0  0  0  0  0  0  0  0  0  0
   38.6900   32.0800   47.9520 H   0  0  0  0  0  0  0  0  0  0  0  0
   39.6760   33.3050   45.6730 H   0  0  0  0  0  0  0  0  0  0  0  0
   35.5360   30.0130   44.6990 H   0  0  0  0  0  0  0  0  0  0  0  0
   37.5540   30.2560   51.3730 C   0  0  0  0  0  0  0  0  0  0  0  0
   37.7860   30.6490   50.0700 C   0  0  0  0  0  0  0  0  0  0  0  0
   36.8810   30.3700   49.0700 C   0  0  0  0  0  0  0  0  0  0  0  0
   35.7660   29.6930   49.4410 N   0  0  0  0  0  0  0  0  0  0  0  0
   35.5400   29.3090   50.7210 C   0  0  0  0  0  0  0  0  0  0  0  0
   36.4290   29.5890   51.6740 N   0  0  0  0  0  0  0  0  0  0  0  0
   38.3290   30.5260   52.0780 H   0  0  0  0  0  0  0  0  0  0  0  0
   38.6820   31.1880   49.7950 H   0  0  0  0  0  0  0  0  0  0  0  0
   34.6190   28.7630   50.9570 H   0  0  0  0  0  0  0  0  0  0  0  0
   39.2480   33.4230   42.9710 O   0  0  0  0  0  0  0  0  0  0  0  0
   38.7440   33.4760   41.6440 C   0  0  0  0  0  2  0  0  0  0  0  0
   39.3080   32.2920   40.8870 C   0  0  0  0  0  2  0  0  0  0  0  0
   40.2370   31.8880   41.3520 H   0  0  0  0  0  0  0  0  0  0  0  0
  1 10  1  0  0  0  0
  1  2  1  0  0  0  0
  2 16  1  0  0  0  0
  3  2  2  0  0  0  0
  3 11  1  0  0  0  0
  4  3  1  0  0  0  0
  5 12  1  0  0  0  0
  5  4  1  0  0  0  0
  6  5  1  0  0  0  0
  7  6  2  0  0  0  0
  7  8  1  0  0  0  0
  8  9  1  0  0  0  0
  8  4  2  0  0  0  0
  9  1  2  0  0  0  0
 13  9  1  0  0  0  0
 14 19  1  0  0  0  0
 14 20  1  0  0  0  0
 15 14  2  0  0  0  0
 16 17  2  0  0  0  0
 16 15  1  0  0  0  0
 17 18  1  0  0  0  0
 18 22  1  0  0  0  0
 18 19  2  0  0  0  0
 21 15  1  0  0  0  0
 23  6  1  0  0  0  0
 24 23  1  0  0  0  0
 25 26  1  0  0  0  0
 25 24  1  0  0  0  0
M  END
>  <minimizedAffinity>
-5.00872135

>  <minimizedRMSD>
1.20702755

$$$$
