
 OpenBabel03272509453D

 13 13  0  0  0  0  0  0  0  0999 V2000
   38.7080   24.1850   35.9660 C   0  0  0  0  0  0  0  0  0  0  0  0
   37.8760   24.5820   37.0180 C   0  0  0  0  0  0  0  0  0  0  0  0
   38.0990   24.0310   38.2840 C   0  0  0  0  0  0  0  0  0  0  0  0
   39.1280   23.1350   38.4020 N   0  0  0  0  0  0  0  0  0  0  0  0
   39.9060   22.7770   37.3680 C   0  0  0  0  0  0  0  0  0  0  0  0
   39.6850   23.3110   36.1500 N   0  0  0  0  0  0  0  0  0  0  0  0
   38.5510   24.6030   34.9690 H   0  0  0  0  0  0  0  0  0  0  0  0
   37.0760   25.2910   36.8900 H   0  0  0  0  0  0  0  0  0  0  0  0
   37.4720   24.3270   39.0950 H   0  0  0  0  0  0  0  0  0  0  0  0
   40.8740   21.8630   37.7210 O   0  0  0  0  0  0  0  0  0  0  0  0
   41.7750   21.4210   36.7220 C   0  0  0  0  0  2  0  0  0  0  0  0
   42.6870   20.3540   37.2570 C   0  0  0  0  0  2  0  0  0  0  0  0
   42.1880   19.3770   37.3120 H   0  0  0  0  0  0  0  0  0  0  0  0
  1  6  2  0  0  0  0
  1  2  1  0  0  0  0
  2  3  2  0  0  0  0
  3  4  1  0  0  0  0
  3  9  1  0  0  0  0
  5 10  1  0  0  0  0
  5  4  2  0  0  0  0
  6  5  1  0  0  0  0
  7  1  1  0  0  0  0
  8  2  1  0  0  0  0
 11 12  1  0  0  0  0
 11 10  1  0  0  0  0
 12 13  1  0  0  0  0
M  END
>  <minimizedAffinity>
-3.07235074

$$$$

 OpenBabel03272509453D

 13 13  0  0  0  0  0  0  0  0999 V2000
   38.5390   23.4490   38.1640 C   0  0  0  0  0  0  0  0  0  0  0  0
   39.7550   22.8300   37.8580 C   0  0  0  0  0  0  0  0  0  0  0  0
   40.2950   23.0200   36.5820 C   0  0  0  0  0  0  0  0  0  0  0  0
   39.5850   23.8100   35.7160 N   0  0  0  0  0  0  0  0  0  0  0  0
   38.4190   24.3880   36.0450 C   0  0  0  0  0  0  0  0  0  0  0  0
   37.9050   24.2000   37.2760 N   0  0  0  0  0  0  0  0  0  0  0  0
   38.0990   23.3130   39.1550 H   0  0  0  0  0  0  0  0  0  0  0  0
   40.2870   22.2160   38.5650 H   0  0  0  0  0  0  0  0  0  0  0  0
   41.2220   22.5540   36.3380 H   0  0  0  0  0  0  0  0  0  0  0  0
   37.8870   25.1340   35.0170 O   0  0  0  0  0  0  0  0  0  0  0  0
   37.4630   26.4560   35.2980 C   0  0  0  0  0  2  0  0  0  0  0  0
   38.6340   27.3330   35.6400 C   0  0  0  0  0  2  0  0  0  0  0  0
   39.1870   27.6460   34.7440 H   0  0  0  0  0  0  0  0  0  0  0  0
  1  7  1  0  0  0  0
  2  1  1  0  0  0  0
  2  8  1  0  0  0  0
  3  2  2  0  0  0  0
  4  5  2  0  0  0  0
  4  3  1  0  0  0  0
  5  6  1  0  0  0  0
  6  1  2  0  0  0  0
  9  3  1  0  0  0  0
 10 11  1  0  0  0  0
 10  5  1  0  0  0  0
 11 12  1  0  0  0  0
 13 12  1  0  0  0  0
M  END
>  <minimizedAffinity>
-3.05172849

$$$$

 OpenBabel03272509453D

 13 13  0  0  0  0  0  0  0  0999 V2000
   39.9590   23.0210   37.0210 C   0  0  0  0  0  0  0  0  0  0  0  0
   39.2390   23.0200   38.2200 C   0  0  0  0  0  0  0  0  0  0  0  0
   38.0480   23.7520   38.2800 C   0  0  0  0  0  0  0  0  0  0  0  0
   37.6700   24.4220   37.1460 N   0  0  0  0  0  0  0  0  0  0  0  0
   38.3880   24.4000   36.0120 C   0  0  0  0  0  0  0  0  0  0  0  0
   39.5350   23.6930   35.9610 N   0  0  0  0  0  0  0  0  0  0  0  0
   40.8910   22.4560   36.9520 H   0  0  0  0  0  0  0  0  0  0  0  0
   39.5660   22.4810   39.0930 H   0  0  0  0  0  0  0  0  0  0  0  0
   37.4910   23.7580   39.1890 H   0  0  0  0  0  0  0  0  0  0  0  0
   37.8160   25.1460   35.0050 O   0  0  0  0  0  0  0  0  0  0  0  0
   37.5180   26.5050   35.2660 C   0  0  0  0  0  2  0  0  0  0  0  0
   38.7760   27.2930   35.5010 C   0  0  0  0  0  2  0  0  0  0  0  0
   39.2920   27.5330   34.5620 H   0  0  0  0  0  0  0  0  0  0  0  0
  1  2  1  0  0  0  0
  2  3  2  0  0  0  0
  2  8  1  0  0  0  0
  3  9  1  0  0  0  0
  4  3  1  0  0  0  0
  5  4  2  0  0  0  0
  6  5  1  0  0  0  0
  6  1  2  0  0  0  0
  7  1  1  0  0  0  0
 10 11  1  0  0  0  0
 10  5  1  0  0  0  0
 11 12  1  0  0  0  0
 13 12  1  0  0  0  0
M  END
>  <minimizedAffinity>
-3.03792381

$$$$

 OpenBabel03272509453D

 13 13  0  0  0  0  0  0  0  0999 V2000
   39.8270   25.4800   34.3740 C   0  0  0  0  0  0  0  0  0  0  0  0
   39.7540   26.8460   34.6670 C   0  0  0  0  0  0  0  0  0  0  0  0
   38.9110   27.2580   35.7040 C   0  0  0  0  0  0  0  0  0  0  0  0
   38.2120   26.2830   36.3650 N   0  0  0  0  0  0  0  0  0  0  0  0
   38.3070   24.9800   36.0540 C   0  0  0  0  0  0  0  0  0  0  0  0
   39.1210   24.5900   35.0540 N   0  0  0  0  0  0  0  0  0  0  0  0
   40.4790   25.1370   33.5670 H   0  0  0  0  0  0  0  0  0  0  0  0
   40.3200   27.5860   34.1270 H   0  0  0  0  0  0  0  0  0  0  0  0
   38.8490   28.2970   35.9370 H   0  0  0  0  0  0  0  0  0  0  0  0
   37.5130   24.1840   36.8510 O   0  0  0  0  0  0  0  0  0  0  0  0
   37.8180   24.1020   38.2310 C   0  0  0  0  0  2  0  0  0  0  0  0
   39.0550   23.2800   38.4580 C   0  0  0  0  0  2  0  0  0  0  0  0
   39.9710   23.8460   38.2370 H   0  0  0  0  0  0  0  0  0  0  0  0
  1  2  2  0  0  0  0
  1  6  1  0  0  0  0
  2  3  1  0  0  0  0
  3  9  1  0  0  0  0
  3  4  2  0  0  0  0
  5  4  1  0  0  0  0
  5 10  1  0  0  0  0
  6  5  2  0  0  0  0
  7  1  1  0  0  0  0
  8  2  1  0  0  0  0
 10 11  1  0  0  0  0
 11 12  1  0  0  0  0
 13 12  1  0  0  0  0
M  END
>  <minimizedAffinity>
-2.98686433

$$$$

 OpenBabel03272509453D

 13 13  0  0  0  0  0  0  0  0999 V2000
   38.8590   27.0840   35.6450 C   0  0  0  0  0  0  0  0  0  0  0  0
   40.0530   26.8990   34.9410 C   0  0  0  0  0  0  0  0  0  0  0  0
   40.5010   25.5910   34.7280 C   0  0  0  0  0  0  0  0  0  0  0  0
   39.7290   24.5770   35.2300 N   0  0  0  0  0  0  0  0  0  0  0  0
   38.5870   24.7940   35.9030 C   0  0  0  0  0  0  0  0  0  0  0  0
   38.1610   26.0570   36.1040 N   0  0  0  0  0  0  0  0  0  0  0  0
   38.4900   28.0980   35.8230 H   0  0  0  0  0  0  0  0  0  0  0  0
   40.6350   27.7210   34.5590 H   0  0  0  0  0  0  0  0  0  0  0  0
   41.4100   25.4380   34.1910 H   0  0  0  0  0  0  0  0  0  0  0  0
   37.9810   23.6270   36.3120 O   0  0  0  0  0  0  0  0  0  0  0  0
   37.5870   23.5170   37.6680 C   0  0  0  0  0  2  0  0  0  0  0  0
   38.7870   23.4270   38.5680 C   0  0  0  0  0  2  0  0  0  0  0  0
   39.2540   24.4080   38.7300 H   0  0  0  0  0  0  0  0  0  0  0  0
  1  7  1  0  0  0  0
  1  6  1  0  0  0  0
  2  1  2  0  0  0  0
  3  2  1  0  0  0  0
  3  4  2  0  0  0  0
  4  5  1  0  0  0  0
  5  6  2  0  0  0  0
  5 10  1  0  0  0  0
  8  2  1  0  0  0  0
  9  3  1  0  0  0  0
 10 11  1  0  0  0  0
 11 12  1  0  0  0  0
 12 13  1  0  0  0  0
M  END
>  <minimizedAffinity>
-2.97995472

$$$$

 OpenBabel03272509453D

 13 13  0  0  0  0  0  0  0  0999 V2000
   37.8300   27.6810   35.4610 C   0  0  0  0  0  0  0  0  0  0  0  0
   37.2620   27.4390   34.2060 C   0  0  0  0  0  0  0  0  0  0  0  0
   37.2890   26.1330   33.7070 C   0  0  0  0  0  0  0  0  0  0  0  0
   37.8740   25.1760   34.4930 N   0  0  0  0  0  0  0  0  0  0  0  0
   38.4100   25.4470   35.6940 C   0  0  0  0  0  0  0  0  0  0  0  0
   38.3810   26.7080   36.1690 N   0  0  0  0  0  0  0  0  0  0  0  0
   37.8200   28.6940   35.8700 H   0  0  0  0  0  0  0  0  0  0  0  0
   36.8090   28.2160   33.6150 H   0  0  0  0  0  0  0  0  0  0  0  0
   36.8580   25.9360   32.7510 H   0  0  0  0  0  0  0  0  0  0  0  0
   38.9420   24.3310   36.3030 O   0  0  0  0  0  0  0  0  0  0  0  0
   38.0840   23.5240   37.0890 C   0  0  0  0  0  2  0  0  0  0  0  0
   38.1460   23.9260   38.5350 C   0  0  0  0  0  2  0  0  0  0  0  0
   37.5590   24.8330   38.7340 H   0  0  0  0  0  0  0  0  0  0  0  0
  1  7  1  0  0  0  0
  1  6  1  0  0  0  0
  2  1  2  0  0  0  0
  3  2  1  0  0  0  0
  3  4  2  0  0  0  0
  4  5  1  0  0  0  0
  5  6  2  0  0  0  0
  5 10  1  0  0  0  0
  8  2  1  0  0  0  0
  9  3  1  0  0  0  0
 10 11  1  0  0  0  0
 11 12  1  0  0  0  0
 12 13  1  0  0  0  0
M  END
>  <minimizedAffinity>
-2.86077499

$$$$

 OpenBabel03272509453D

 13 13  0  0  0  0  0  0  0  0999 V2000
   35.2000   25.5340   30.9670 C   0  0  0  0  0  0  0  0  0  0  0  0
   35.5730   24.1950   31.1320 C   0  0  0  0  0  0  0  0  0  0  0  0
   36.5960   23.8990   32.0390 C   0  0  0  0  0  0  0  0  0  0  0  0
   37.1630   24.9520   32.7060 N   0  0  0  0  0  0  0  0  0  0  0  0
   36.7790   26.2250   32.5210 C   0  0  0  0  0  0  0  0  0  0  0  0
   35.7920   26.5040   31.6460 N   0  0  0  0  0  0  0  0  0  0  0  0
   34.4030   25.7870   30.2650 H   0  0  0  0  0  0  0  0  0  0  0  0
   35.1040   23.3910   30.5910 H   0  0  0  0  0  0  0  0  0  0  0  0
   36.8880   22.8820   32.1730 H   0  0  0  0  0  0  0  0  0  0  0  0
   37.4890   27.1140   33.2980 O   0  0  0  0  0  0  0  0  0  0  0  0
   37.0550   27.3370   34.6270 C   0  0  0  0  0  2  0  0  0  0  0  0
   38.2240   27.4100   35.5670 C   0  0  0  0  0  2  0  0  0  0  0  0
   38.7330   28.3820   35.5160 H   0  0  0  0  0  0  0  0  0  0  0  0
  1  2  2  0  0  0  0
  1  6  1  0  0  0  0
  2  3  1  0  0  0  0
  3  9  1  0  0  0  0
  3  4  2  0  0  0  0
  5  4  1  0  0  0  0
  5 10  1  0  0  0  0
  6  5  2  0  0  0  0
  7  1  1  0  0  0  0
  8  2  1  0  0  0  0
 10 11  1  0  0  0  0
 11 12  1  0  0  0  0
 13 12  1  0  0  0  0
M  END
>  <minimizedAffinity>
-2.82689929

$$$$

 OpenBabel03272509453D

 13 13  0  0  0  0  0  0  0  0999 V2000
   38.3400   26.4520   35.9870 C   0  0  0  0  0  0  0  0  0  0  0  0
   39.3410   26.9440   35.1440 C   0  0  0  0  0  0  0  0  0  0  0  0
   40.3480   26.0660   34.7270 C   0  0  0  0  0  0  0  0  0  0  0  0
   40.2770   24.7750   35.1800 N   0  0  0  0  0  0  0  0  0  0  0  0
   39.2990   24.3390   35.9900 C   0  0  0  0  0  0  0  0  0  0  0  0
   38.3320   25.1900   36.3880 N   0  0  0  0  0  0  0  0  0  0  0  0
   37.5440   27.1200   36.3250 H   0  0  0  0  0  0  0  0  0  0  0  0
   39.3660   27.9660   34.8070 H   0  0  0  0  0  0  0  0  0  0  0  0
   41.1160   26.4300   34.0840 H   0  0  0  0  0  0  0  0  0  0  0  0
   39.4320   23.0070   36.3150 O   0  0  0  0  0  0  0  0  0  0  0  0
   40.0090   22.6780   37.5660 C   0  0  0  0  0  2  0  0  0  0  0  0
   41.1370   21.7000   37.3940 C   0  0  0  0  0  2  0  0  0  0  0  0
   42.0550   22.1900   37.0420 H   0  0  0  0  0  0  0  0  0  0  0  0
  1  7  1  0  0  0  0
  1  6  1  0  0  0  0
  2  1  2  0  0  0  0
  3  2  1  0  0  0  0
  3  4  2  0  0  0  0
  4  5  1  0  0  0  0
  5 10  1  0  0  0  0
  5  6  2  0  0  0  0
  8  2  1  0  0  0  0
  9  3  1  0  0  0  0
 10 11  1  0  0  0  0
 12 11  1  0  0  0  0
 13 12  1  0  0  0  0
M  END
>  <minimizedAffinity>
-2.8205533

$$$$

 OpenBabel03272509453D

 13 13  0  0  0  0  0  0  0  0999 V2000
   37.7700   23.4950   37.6980 C   0  0  0  0  0  0  0  0  0  0  0  0
   38.9920   23.3390   38.3590 C   0  0  0  0  0  0  0  0  0  0  0  0
   40.0260   22.6710   37.6950 C   0  0  0  0  0  0  0  0  0  0  0  0
   39.7620   22.2150   36.4300 N   0  0  0  0  0  0  0  0  0  0  0  0
   38.5740   22.3830   35.8270 C   0  0  0  0  0  0  0  0  0  0  0  0
   37.5830   23.0280   36.4730 N   0  0  0  0  0  0  0  0  0  0  0  0
   36.9490   24.0140   38.1990 H   0  0  0  0  0  0  0  0  0  0  0  0
   39.1650   23.7120   39.3550 H   0  0  0  0  0  0  0  0  0  0  0  0
   40.9630   22.5470   38.1890 H   0  0  0  0  0  0  0  0  0  0  0  0
   38.5390   21.8410   34.5610 O   0  0  0  0  0  0  0  0  0  0  0  0
   37.2750   21.6320   33.9570 C   0  0  0  0  0  2  0  0  0  0  0  0
   37.4260   21.3030   32.4990 C   0  0  0  0  0  2  0  0  0  0  0  0
   37.7310   20.2590   32.3430 H   0  0  0  0  0  0  0  0  0  0  0  0
  1  7  1  0  0  0  0
  1  2  1  0  0  0  0
  2  8  1  0  0  0  0
  3  9  1  0  0  0  0
  3  2  2  0  0  0  0
  4  3  1  0  0  0  0
  5  4  2  0  0  0  0
  5  6  1  0  0  0  0
  6  1  2  0  0  0  0
 10  5  1  0  0  0  0
 11 10  1  0  0  0  0
 12 11  1  0  0  0  0
 13 12  1  0  0  0  0
M  END
>  <minimizedAffinity>
-2.79429889

$$$$
