
 OpenBabel03272509453D

 13 13  0  0  0  0  0  0  0  0999 V2000
   38.3020   30.9310   50.3650 C   0  0  0  0  0  0  0  0  0  0  0  0
   38.4280   31.9620   49.4280 C   0  0  0  0  0  0  0  0  0  0  0  0
   37.6410   31.9100   48.2730 C   0  0  0  0  0  0  0  0  0  0  0  0
   36.7940   30.8410   48.1440 N   0  0  0  0  0  0  0  0  0  0  0  0
   36.7000   29.8690   49.0650 C   0  0  0  0  0  0  0  0  0  0  0  0
   37.4620   29.9260   50.1750 N   0  0  0  0  0  0  0  0  0  0  0  0
   38.9080   30.9530   51.2740 H   0  0  0  0  0  0  0  0  0  0  0  0
   39.1050   32.7890   49.5630 H   0  0  0  0  0  0  0  0  0  0  0  0
   37.7280   32.6910   47.5530 H   0  0  0  0  0  0  0  0  0  0  0  0
   35.7850   28.8970   48.7230 O   0  0  0  0  0  0  0  0  0  0  0  0
   34.8850   28.4450   49.7180 C   0  0  0  0  0  2  0  0  0  0  0  0
   34.0240   29.5730   50.2140 C   0  0  0  0  0  2  0  0  0  0  0  0
   33.2120   29.8090   49.5130 H   0  0  0  0  0  0  0  0  0  0  0  0
  1  7  1  0  0  0  0
  2  8  1  0  0  0  0
  2  1  2  0  0  0  0
  3  2  1  0  0  0  0
  4  3  2  0  0  0  0
  4  5  1  0  0  0  0
  5  6  2  0  0  0  0
  6  1  1  0  0  0  0
  9  3  1  0  0  0  0
 10  5  1  0  0  0  0
 10 11  1  0  0  0  0
 11 12  1  0  0  0  0
 13 12  1  0  0  0  0
M  END
>  <minimizedAffinity>
-3.18588448

>  <minimizedRMSD>
1.60949409

$$$$
