
 OpenBabel03272503483D

 31 32  0  0  1  0  0  0  0  0999 V2000
   33.0780   27.3050   45.9020 C   0  0  1  0  0  0  0  0  0  0  0  0
   33.9060   27.4670   47.1950 C   0  0  2  0  0  0  0  0  0  0  0  0
   33.8110   26.2410   47.7790 O   0  0  0  0  0  0  0  0  0  0  0  0
   34.0340   25.3430   46.7520 C   0  0  0  0  0  0  0  0  0  0  0  0
   33.4440   25.9000   45.5010 C   0  0  2  0  0  0  0  0  0  0  0  0
   33.4580   28.0660   45.2050 H   0  0  0  0  0  0  0  0  0  0  0  0
   34.9220   27.7700   46.8460 H   0  0  0  0  0  0  0  0  0  0  0  0
   33.4890   24.3860   46.9860 H   0  0  0  0  0  0  0  0  0  0  0  0
   35.1080   25.0640   46.6570 H   0  0  0  0  0  0  0  0  0  0  0  0
   32.5200   25.4090   45.1600 H   0  0  0  0  0  0  0  0  0  0  0  0
   31.7330   27.4970   46.1660 O   0  0  0  0  0  0  0  0  0  0  0  0
   31.4230   26.9080   46.8810 H   0  0  0  0  0  0  0  0  0  0  0  0
   33.3220   28.5110   47.8500 O   0  0  0  0  0  0  0  0  0  0  0  0
   35.3480   29.8080   46.7660 O   0  0  0  0  0  0  0  0  0  0  0  0
   34.0950   29.9880   47.6130 P   0  0  1  0  0  0  0  0  0  0  0  0
   33.1050   31.0270   46.7140 O   0  0  0  0  0  0  0  0  0  0  0  0
   33.0120   30.6340   45.8120 H   0  0  0  0  0  0  0  0  0  0  0  0
   34.4050   30.6340   49.1610 O   0  0  0  0  0  0  0  0  0  0  0  0
   35.6460   30.5120   49.7720 C   0  0  0  0  0  0  0  0  0  0  0  0
   35.9820   29.4920   50.6880 C   0  0  0  0  0  0  0  0  0  0  0  0
   37.2620   29.4950   51.2230 C   0  0  0  0  0  0  0  0  0  0  0  0
   38.1310   30.4800   50.8390 N   0  0  0  0  0  0  0  0  0  0  0  0
   37.7770   31.4460   49.9550 C   0  0  0  0  0  0  0  0  0  0  0  0
   36.5240   31.4620   49.4190 N   0  0  0  0  0  0  0  0  0  0  0  0
   35.2140   28.7660   50.9180 H   0  0  0  0  0  0  0  0  0  0  0  0
   37.5260   28.7160   51.9250 H   0  0  0  0  0  0  0  0  0  0  0  0
   38.5030   32.2020   49.6870 H   0  0  0  0  0  0  0  0  0  0  0  0
   34.3880   25.9310   44.4820 O   0  0  0  0  0  0  0  0  0  0  0  0
   35.2020   24.8290   44.4190 C   0  0  0  0  0  0  0  0  0  0  0  0
   36.2860   25.1310   43.4070 C   0  0  0  0  0  0  0  0  0  0  0  0
   36.2420   26.1910   43.0370 H   0  0  0  0  0  0  0  0  0  0  0  0
  1  6  1  6  0  0  0
  1 11  1  0  0  0  0
  1  2  1  0  0  0  0
  2  7  1  6  0  0  0
  2  3  1  0  0  0  0
  2 13  1  0  0  0  0
  4  8  1  0  0  0  0
  4  3  1  0  0  0  0
  5 10  1  6  0  0  0
  5  1  1  0  0  0  0
  5  4  1  0  0  0  0
  9  4  1  0  0  0  0
 11 12  1  0  0  0  0
 15 14  2  6  0  0  0
 15 13  1  0  0  0  0
 15 18  1  0  0  0  0
 16 15  1  0  0  0  0
 17 16  1  0  0  0  0
 18 19  1  0  0  0  0
 19 20  1  0  0  0  0
 20 25  1  0  0  0  0
 20 21  2  0  0  0  0
 21 26  1  0  0  0  0
 22 21  1  0  0  0  0
 23 22  2  0  0  0  0
 24 19  2  0  0  0  0
 24 23  1  0  0  0  0
 27 23  1  0  0  0  0
 28  5  1  0  0  0  0
 29 28  1  0  0  0  0
 30 29  1  0  0  0  0
 31 30  1  0  0  0  0
M  END
>  <minimizedAffinity>
-3.97696304

>  <minimizedRMSD>
0.548809588

$$$$
