
 OpenBabel03272504583D

 27 28  0  0  1  0  0  0  0  0999 V2000
   38.7670   23.2370   36.5470 C   0  0  1  0  0  0  0  0  0  0  0  0
   38.0780   23.5500   37.7750 C   0  0  0  0  0  0  0  0  0  0  0  0
   38.4890   24.6440   36.8450 C   0  0  2  0  0  0  0  0  0  0  0  0
   38.2200   22.8440   35.6210 H   0  0  0  0  0  0  0  0  0  0  0  0
   37.1880   22.9510   37.8130 H   0  0  0  0  0  0  0  0  0  0  0  0
   38.6660   23.4630   38.7130 H   0  0  0  0  0  0  0  0  0  0  0  0
   39.0970   25.3640   37.3620 H   0  0  0  0  0  0  0  0  0  0  0  0
   40.2090   22.8130   36.5520 C   0  0  0  0  0  0  0  0  0  0  0  0
   41.0860   23.6010   35.7770 C   0  0  0  0  0  0  0  0  0  0  0  0
   42.3990   23.1970   35.8060 C   0  0  0  0  0  0  0  0  0  0  0  0
   42.7740   22.1230   36.5350 N   0  0  0  0  0  0  0  0  0  0  0  0
   41.8970   21.3870   37.2720 C   0  0  0  0  0  0  0  0  0  0  0  0
   40.5730   21.7550   37.2710 N   0  0  0  0  0  0  0  0  0  0  0  0
   42.2620   20.2840   38.0510 N   0  0  0  0  0  0  0  0  0  0  0  0
   40.7990   24.4540   35.1960 H   0  0  0  0  0  0  0  0  0  0  0  0
   43.1790   23.7000   35.2640 H   0  0  0  0  0  0  0  0  0  0  0  0
   41.9290   20.2410   39.0500 H   0  0  0  0  0  0  0  0  0  0  0  0
   42.8620   19.5140   37.6360 H   0  0  0  0  0  0  0  0  0  0  0  0
   37.4550   25.2210   36.1000 O   0  0  0  0  0  0  0  0  0  0  0  0
   36.8590   27.2640   34.6340 O   0  0  0  0  0  0  0  0  0  0  0  0
   38.0100   26.5450   35.2570 P   0  0  1  0  0  0  0  0  0  0  0  0
   38.7090   27.6800   36.3590 O   0  0  0  0  0  0  0  0  0  0  0  0
   37.9830   27.8700   37.0060 H   0  0  0  0  0  0  0  0  0  0  0  0
   39.1670   26.0360   34.1430 O   0  0  0  0  0  0  0  0  0  0  0  0
   39.8800   27.0910   33.5960 C   0  0  0  0  0  2  0  0  0  0  0  0
   41.3230   26.9220   34.0800 C   0  0  0  0  0  2  0  0  0  0  0  0
   41.9940   27.7010   33.6670 H   0  0  0  0  0  0  0  0  0  0  0  0
  1  4  1  6  0  0  0
  1  8  1  0  0  0  0
  1  3  1  0  0  0  0
  1  2  1  0  0  0  0
  2  5  1  0  0  0  0
  2  6  1  0  0  0  0
  3  7  1  1  0  0  0
  3  2  1  0  0  0  0
  8 13  1  0  0  0  0
  9 10  1  0  0  0  0
  9  8  2  0  0  0  0
 10 11  2  0  0  0  0
 11 12  1  0  0  0  0
 12 14  1  0  0  0  0
 13 12  2  0  0  0  0
 14 17  1  0  0  0  0
 15  9  1  0  0  0  0
 16 10  1  0  0  0  0
 18 14  1  0  0  0  0
 19  3  1  0  0  0  0
 21 20  2  6  0  0  0
 21 19  1  0  0  0  0
 21 22  1  0  0  0  0
 22 23  1  0  0  0  0
 24 21  1  0  0  0  0
 25 26  1  0  0  0  0
 25 24  1  0  0  0  0
 27 26  1  0  0  0  0
M  END
>  <minimizedAffinity>
-4.72045231

$$$$

 OpenBabel03272504583D

 27 28  0  0  1  0  0  0  0  0999 V2000
   37.6730   26.2530   35.6600 C   0  0  1  0  0  0  0  0  0  0  0  0
   38.5520   27.3950   35.6780 C   0  0  0  0  0  0  0  0  0  0  0  0
   38.0440   26.8590   34.3800 C   0  0  2  0  0  0  0  0  0  0  0  0
   36.5570   26.3340   35.9040 H   0  0  0  0  0  0  0  0  0  0  0  0
   38.1390   28.1180   36.3550 H   0  0  0  0  0  0  0  0  0  0  0  0
   39.6230   27.1980   35.8990 H   0  0  0  0  0  0  0  0  0  0  0  0
   38.8640   26.6230   33.7270 H   0  0  0  0  0  0  0  0  0  0  0  0
   38.1910   24.8680   35.9330 C   0  0  0  0  0  0  0  0  0  0  0  0
   38.5460   24.1080   34.7990 C   0  0  0  0  0  0  0  0  0  0  0  0
   39.0250   22.8500   35.0760 C   0  0  0  0  0  0  0  0  0  0  0  0
   39.1310   22.4200   36.3530 N   0  0  0  0  0  0  0  0  0  0  0  0
   38.7790   23.1850   37.4230 C   0  0  0  0  0  0  0  0  0  0  0  0
   38.2940   24.4490   37.1910 N   0  0  0  0  0  0  0  0  0  0  0  0
   38.8980   22.7710   38.7540 N   0  0  0  0  0  0  0  0  0  0  0  0
   38.4650   24.4400   33.7840 H   0  0  0  0  0  0  0  0  0  0  0  0
   39.3330   22.1580   34.3140 H   0  0  0  0  0  0  0  0  0  0  0  0
   39.3730   23.4150   39.4400 H   0  0  0  0  0  0  0  0  0  0  0  0
   38.5170   21.8280   39.0550 H   0  0  0  0  0  0  0  0  0  0  0  0
   37.0430   27.6180   33.7650 O   0  0  0  0  0  0  0  0  0  0  0  0
   35.6040   27.8030   31.6260 O   0  0  0  0  0  0  0  0  0  0  0  0
   36.7780   27.0870   32.2090 P   0  0  1  0  0  0  0  0  0  0  0  0
   38.1190   27.5290   31.2110 O   0  0  0  0  0  0  0  0  0  0  0  0
   38.1840   28.5120   31.3110 H   0  0  0  0  0  0  0  0  0  0  0  0
   36.6010   25.4120   32.2290 O   0  0  0  0  0  0  0  0  0  0  0  0
   35.6540   24.9660   31.3200 C   0  0  0  0  0  2  0  0  0  0  0  0
   35.6170   23.4410   31.4620 C   0  0  0  0  0  2  0  0  0  0  0  0
   34.8590   22.9810   30.7990 H   0  0  0  0  0  0  0  0  0  0  0  0
  1  2  1  0  0  0  0
  1  4  1  1  0  0  0
  1  8  1  0  0  0  0
  2  6  1  0  0  0  0
  2  5  1  0  0  0  0
  3  7  1  6  0  0  0
  3  1  1  0  0  0  0
  3  2  1  0  0  0  0
  8 13  1  0  0  0  0
  9 10  1  0  0  0  0
  9  8  2  0  0  0  0
 10 11  2  0  0  0  0
 11 12  1  0  0  0  0
 12 14  1  0  0  0  0
 13 12  2  0  0  0  0
 14 18  1  0  0  0  0
 14 17  1  0  0  0  0
 15  9  1  0  0  0  0
 16 10  1  0  0  0  0
 19  3  1  0  0  0  0
 21 20  2  6  0  0  0
 21 24  1  0  0  0  0
 21 19  1  0  0  0  0
 22 23  1  0  0  0  0
 22 21  1  0  0  0  0
 25 26  1  0  0  0  0
 25 24  1  0  0  0  0
 27 26  1  0  0  0  0
M  END
>  <minimizedAffinity>
-4.68222809

$$$$

 OpenBabel03272504583D

 27 28  0  0  1  0  0  0  0  0999 V2000
   38.4040   26.3170   34.7380 C   0  0  1  0  0  0  0  0  0  0  0  0
   38.3020   26.9800   36.0150 C   0  0  0  0  0  0  0  0  0  0  0  0
   37.8990   25.5480   35.8770 C   0  0  2  0  0  0  0  0  0  0  0  0
   39.4000   25.9320   34.3240 H   0  0  0  0  0  0  0  0  0  0  0  0
   39.2530   27.4300   36.2280 H   0  0  0  0  0  0  0  0  0  0  0  0
   37.4720   27.7080   36.1340 H   0  0  0  0  0  0  0  0  0  0  0  0
   36.8870   25.4110   36.2120 H   0  0  0  0  0  0  0  0  0  0  0  0
   37.4300   26.6110   33.6310 C   0  0  0  0  0  0  0  0  0  0  0  0
   36.8520   27.8980   33.6420 C   0  0  0  0  0  0  0  0  0  0  0  0
   35.9720   28.1420   32.6150 C   0  0  0  0  0  0  0  0  0  0  0  0
   35.7140   27.1930   31.6890 N   0  0  0  0  0  0  0  0  0  0  0  0
   36.2930   25.9610   31.7100 C   0  0  0  0  0  0  0  0  0  0  0  0
   37.1780   25.6740   32.7210 N   0  0  0  0  0  0  0  0  0  0  0  0
   36.0580   24.9690   30.7520 N   0  0  0  0  0  0  0  0  0  0  0  0
   37.0500   28.6560   34.3720 H   0  0  0  0  0  0  0  0  0  0  0  0
   35.4560   29.0770   32.4960 H   0  0  0  0  0  0  0  0  0  0  0  0
   36.8870   24.4900   30.3110 H   0  0  0  0  0  0  0  0  0  0  0  0
   35.0650   24.7130   30.4840 H   0  0  0  0  0  0  0  0  0  0  0  0
   38.7940   24.6160   36.4130 O   0  0  0  0  0  0  0  0  0  0  0  0
   37.1030   22.7030   36.8090 O   0  0  0  0  0  0  0  0  0  0  0  0
   38.3240   23.0650   36.0300 P   0  0  1  0  0  0  0  0  0  0  0  0
   37.8380   23.0030   34.3710 O   0  0  0  0  0  0  0  0  0  0  0  0
   37.1240   23.6860   34.3000 H   0  0  0  0  0  0  0  0  0  0  0  0
   39.6210   22.0230   36.2900 O   0  0  0  0  0  0  0  0  0  0  0  0
   40.4240   22.4250   37.3460 C   0  0  0  0  0  2  0  0  0  0  0  0
   41.6230   21.4730   37.3520 C   0  0  0  0  0  2  0  0  0  0  0  0
   42.3540   21.7310   38.1440 H   0  0  0  0  0  0  0  0  0  0  0  0
  1  4  1  6  0  0  0
  1  3  1  0  0  0  0
  1  2  1  0  0  0  0
  2  6  1  0  0  0  0
  2  5  1  0  0  0  0
  3  2  1  0  0  0  0
  3  7  1  1  0  0  0
  3 19  1  0  0  0  0
  8  9  1  0  0  0  0
  8  1  1  0  0  0  0
  9 15  1  0  0  0  0
 10  9  2  0  0  0  0
 11 12  2  0  0  0  0
 11 10  1  0  0  0  0
 12 13  1  0  0  0  0
 13  8  2  0  0  0  0
 14 12  1  0  0  0  0
 16 10  1  0  0  0  0
 17 14  1  0  0  0  0
 18 14  1  0  0  0  0
 21 24  1  0  0  0  0
 21 19  1  0  0  0  0
 21 20  2  1  0  0  0
 22 21  1  0  0  0  0
 23 22  1  0  0  0  0
 24 25  1  0  0  0  0
 25 26  1  0  0  0  0
 26 27  1  0  0  0  0
M  END
>  <minimizedAffinity>
-4.53748608

$$$$

 OpenBabel03272504583D

 27 28  0  0  1  0  0  0  0  0999 V2000
   37.7620   26.1610   35.6150 C   0  0  1  0  0  0  0  0  0  0  0  0
   38.4000   27.4530   35.6800 C   0  0  0  0  0  0  0  0  0  0  0  0
   38.1770   26.7920   34.3590 C   0  0  2  0  0  0  0  0  0  0  0  0
   36.6280   26.0310   35.7140 H   0  0  0  0  0  0  0  0  0  0  0  0
   37.7710   28.1000   36.2620 H   0  0  0  0  0  0  0  0  0  0  0  0
   39.4500   27.4730   36.0420 H   0  0  0  0  0  0  0  0  0  0  0  0
   39.1060   26.7010   33.8260 H   0  0  0  0  0  0  0  0  0  0  0  0
   38.4930   24.9120   36.0220 C   0  0  0  0  0  0  0  0  0  0  0  0
   39.4170   24.4050   35.0850 C   0  0  0  0  0  0  0  0  0  0  0  0
   40.0760   23.2680   35.4860 C   0  0  0  0  0  0  0  0  0  0  0  0
   39.8270   22.7170   36.6940 N   0  0  0  0  0  0  0  0  0  0  0  0
   38.9270   23.2370   37.5730 C   0  0  0  0  0  0  0  0  0  0  0  0
   38.2440   24.3730   37.2120 N   0  0  0  0  0  0  0  0  0  0  0  0
   38.6650   22.6980   38.8370 N   0  0  0  0  0  0  0  0  0  0  0  0
   39.6210   24.8350   34.1250 H   0  0  0  0  0  0  0  0  0  0  0  0
   40.8080   22.7690   34.8770 H   0  0  0  0  0  0  0  0  0  0  0  0
   38.6750   23.3420   39.6710 H   0  0  0  0  0  0  0  0  0  0  0  0
   38.4640   21.6620   38.9430 H   0  0  0  0  0  0  0  0  0  0  0  0
   37.1400   27.3250   33.5860 O   0  0  0  0  0  0  0  0  0  0  0  0
   38.4580   26.3770   31.5750 O   0  0  0  0  0  0  0  0  0  0  0  0
   37.0740   26.5760   32.1000 P   0  0  1  0  0  0  0  0  0  0  0  0
   36.4260   24.9840   32.2840 O   0  0  0  0  0  0  0  0  0  0  0  0
   37.0250   24.5510   32.9440 H   0  0  0  0  0  0  0  0  0  0  0  0
   36.0930   27.4840   31.0760 O   0  0  0  0  0  0  0  0  0  0  0  0
   36.8190   28.2020   30.1400 C   0  0  0  0  0  2  0  0  0  0  0  0
   36.7060   29.6720   30.5520 C   0  0  0  0  0  2  0  0  0  0  0  0
   37.2870   30.3370   29.8840 H   0  0  0  0  0  0  0  0  0  0  0  0
  1  2  1  0  0  0  0
  1  4  1  1  0  0  0
  1  8  1  0  0  0  0
  2  6  1  0  0  0  0
  2  5  1  0  0  0  0
  3  7  1  6  0  0  0
  3  1  1  0  0  0  0
  3  2  1  0  0  0  0
  8 13  1  0  0  0  0
  9 10  1  0  0  0  0
  9  8  2  0  0  0  0
 10 11  2  0  0  0  0
 11 12  1  0  0  0  0
 12 14  1  0  0  0  0
 13 12  2  0  0  0  0
 14 18  1  0  0  0  0
 14 17  1  0  0  0  0
 15  9  1  0  0  0  0
 16 10  1  0  0  0  0
 19  3  1  0  0  0  0
 21 20  2  6  0  0  0
 21 22  1  0  0  0  0
 21 19  1  0  0  0  0
 22 23  1  0  0  0  0
 24 21  1  0  0  0  0
 25 26  1  0  0  0  0
 25 24  1  0  0  0  0
 27 26  1  0  0  0  0
M  END
>  <minimizedAffinity>
-4.45571709

$$$$

 OpenBabel03272504583D

 27 28  0  0  1  0  0  0  0  0999 V2000
   37.9980   23.4830   34.4490 C   0  0  1  0  0  0  0  0  0  0  0  0
   38.9010   23.1320   33.3800 C   0  0  0  0  0  0  0  0  0  0  0  0
   37.7800   22.2150   33.7480 C   0  0  2  0  0  0  0  0  0  0  0  0
   37.1490   24.2390   34.3110 H   0  0  0  0  0  0  0  0  0  0  0  0
   38.9420   23.9610   32.7000 H   0  0  0  0  0  0  0  0  0  0  0  0
   39.9180   22.7980   33.6760 H   0  0  0  0  0  0  0  0  0  0  0  0
   38.1600   21.2360   33.9780 H   0  0  0  0  0  0  0  0  0  0  0  0
   38.4270   23.4000   35.8870 C   0  0  0  0  0  0  0  0  0  0  0  0
   37.7170   24.2180   36.7910 C   0  0  0  0  0  0  0  0  0  0  0  0
   38.1240   24.1170   38.0990 C   0  0  0  0  0  0  0  0  0  0  0  0
   39.1300   23.2830   38.4460 N   0  0  0  0  0  0  0  0  0  0  0  0
   39.7910   22.5070   37.5430 C   0  0  0  0  0  0  0  0  0  0  0  0
   39.4180   22.5780   36.2230 N   0  0  0  0  0  0  0  0  0  0  0  0
   40.8210   21.6220   37.8790 N   0  0  0  0  0  0  0  0  0  0  0  0
   36.9190   24.8810   36.5260 H   0  0  0  0  0  0  0  0  0  0  0  0
   37.6760   24.6800   38.8980 H   0  0  0  0  0  0  0  0  0  0  0  0
   40.7720   20.6330   37.5180 H   0  0  0  0  0  0  0  0  0  0  0  0
   41.6290   21.9490   38.4840 H   0  0  0  0  0  0  0  0  0  0  0  0
   36.6990   22.2000   32.8610 O   0  0  0  0  0  0  0  0  0  0  0  0
   35.5790   20.3550   34.2830 O   0  0  0  0  0  0  0  0  0  0  0  0
   35.9470   20.7140   32.8810 P   0  0  1  0  0  0  0  0  0  0  0  0
   34.4450   20.8160   32.0310 O   0  0  0  0  0  0  0  0  0  0  0  0
   33.9520   21.5400   32.4920 H   0  0  0  0  0  0  0  0  0  0  0  0
   36.9530   19.5840   32.1420 O   0  0  0  0  0  0  0  0  0  0  0  0
   37.2630   19.9220   30.8340 C   0  0  0  0  0  2  0  0  0  0  0  0
   36.7030   18.7960   29.9610 C   0  0  0  0  0  2  0  0  0  0  0  0
   36.8650   18.9860   28.8820 H   0  0  0  0  0  0  0  0  0  0  0  0
  1  4  1  6  0  0  0
  1  8  1  0  0  0  0
  2  6  1  0  0  0  0
  2  3  1  0  0  0  0
  2  1  1  0  0  0  0
  3  7  1  1  0  0  0
  3  1  1  0  0  0  0
  5  2  1  0  0  0  0
  8 13  2  0  0  0  0
  8  9  1  0  0  0  0
  9 10  2  0  0  0  0
 10 11  1  0  0  0  0
 10 16  1  0  0  0  0
 12 14  1  0  0  0  0
 12 11  2  0  0  0  0
 13 12  1  0  0  0  0
 14 18  1  0  0  0  0
 15  9  1  0  0  0  0
 17 14  1  0  0  0  0
 19 21  1  0  0  0  0
 19  3  1  0  0  0  0
 21 20  2  1  0  0  0
 22 23  1  0  0  0  0
 22 21  1  0  0  0  0
 24 21  1  0  0  0  0
 25 24  1  0  0  0  0
 26 25  1  0  0  0  0
 27 26  1  0  0  0  0
M  END
>  <minimizedAffinity>
-4.39771938

$$$$

 OpenBabel03272504583D

 27 28  0  0  1  0  0  0  0  0999 V2000
   37.4020   26.0690   35.2440 C   0  0  1  0  0  0  0  0  0  0  0  0
   37.8300   27.4450   35.1920 C   0  0  0  0  0  0  0  0  0  0  0  0
   37.7480   26.6370   33.9390 C   0  0  2  0  0  0  0  0  0  0  0  0
   36.3010   25.7720   35.3420 H   0  0  0  0  0  0  0  0  0  0  0  0
   37.0930   28.0370   35.7020 H   0  0  0  0  0  0  0  0  0  0  0  0
   38.8540   27.6640   35.5630 H   0  0  0  0  0  0  0  0  0  0  0  0
   38.6930   26.6440   33.4280 H   0  0  0  0  0  0  0  0  0  0  0  0
   38.3070   24.9940   35.7790 C   0  0  0  0  0  0  0  0  0  0  0  0
   39.4300   24.6810   34.9840 C   0  0  0  0  0  0  0  0  0  0  0  0
   40.2440   23.7010   35.5000 C   0  0  0  0  0  0  0  0  0  0  0  0
   39.9520   23.1140   36.6810 N   0  0  0  0  0  0  0  0  0  0  0  0
   38.8570   23.4440   37.4210 C   0  0  0  0  0  0  0  0  0  0  0  0
   38.0150   24.4180   36.9410 N   0  0  0  0  0  0  0  0  0  0  0  0
   38.5430   22.8660   38.6550 N   0  0  0  0  0  0  0  0  0  0  0  0
   39.6700   25.1410   34.0470 H   0  0  0  0  0  0  0  0  0  0  0  0
   41.1350   23.3590   35.0050 H   0  0  0  0  0  0  0  0  0  0  0  0
   38.3130   23.5010   39.4640 H   0  0  0  0  0  0  0  0  0  0  0  0
   38.5410   21.8110   38.7640 H   0  0  0  0  0  0  0  0  0  0  0  0
   36.6620   26.9260   33.1060 O   0  0  0  0  0  0  0  0  0  0  0  0
   35.8700   24.8110   31.8490 O   0  0  0  0  0  0  0  0  0  0  0  0
   36.7370   26.0190   31.7110 P   0  0  1  0  0  0  0  0  0  0  0  0
   36.0550   26.9180   30.4000 O   0  0  0  0  0  0  0  0  0  0  0  0
   35.1390   27.1390   30.7070 H   0  0  0  0  0  0  0  0  0  0  0  0
   38.3480   25.6540   31.3840 O   0  0  0  0  0  0  0  0  0  0  0  0
   38.8430   26.3560   30.2960 C   0  0  0  0  0  2  0  0  0  0  0  0
   39.6440   27.5260   30.8750 C   0  0  0  0  0  2  0  0  0  0  0  0
   40.1180   28.1370   30.0830 H   0  0  0  0  0  0  0  0  0  0  0  0
  1  4  1  1  0  0  0
  1  8  1  0  0  0  0
  2  1  1  0  0  0  0
  2  6  1  0  0  0  0
  2  5  1  0  0  0  0
  3  7  1  6  0  0  0
  3  2  1  0  0  0  0
  3  1  1  0  0  0  0
  8 13  1  0  0  0  0
  9 10  1  0  0  0  0
  9  8  2  0  0  0  0
 10 11  2  0  0  0  0
 11 12  1  0  0  0  0
 12 14  1  0  0  0  0
 13 12  2  0  0  0  0
 14 18  1  0  0  0  0
 14 17  1  0  0  0  0
 15  9  1  0  0  0  0
 16 10  1  0  0  0  0
 19  3  1  0  0  0  0
 21 20  2  1  0  0  0
 21 19  1  0  0  0  0
 22 23  1  0  0  0  0
 22 21  1  0  0  0  0
 24 21  1  0  0  0  0
 25 26  1  0  0  0  0
 25 24  1  0  0  0  0
 27 26  1  0  0  0  0
M  END
>  <minimizedAffinity>
-4.39063358

$$$$

 OpenBabel03272504583D

 27 28  0  0  1  0  0  0  0  0999 V2000
   38.3770   26.6540   34.3650 C   0  0  1  0  0  0  0  0  0  0  0  0
   39.6140   27.0180   33.7180 C   0  0  0  0  0  0  0  0  0  0  0  0
   38.4230   26.6380   32.9010 C   0  0  2  0  0  0  0  0  0  0  0  0
   37.6580   27.4340   34.7960 H   0  0  0  0  0  0  0  0  0  0  0  0
   39.9260   27.9650   34.1160 H   0  0  0  0  0  0  0  0  0  0  0  0
   40.4350   26.2710   33.7560 H   0  0  0  0  0  0  0  0  0  0  0  0
   38.6690   25.8290   32.2360 H   0  0  0  0  0  0  0  0  0  0  0  0
   38.2220   25.3280   35.0550 C   0  0  0  0  0  0  0  0  0  0  0  0
   38.1090   25.3730   36.4610 C   0  0  0  0  0  0  0  0  0  0  0  0
   37.9600   24.1490   37.0650 C   0  0  0  0  0  0  0  0  0  0  0  0
   37.9280   23.0160   36.3290 N   0  0  0  0  0  0  0  0  0  0  0  0
   38.0400   23.0120   34.9720 C   0  0  0  0  0  0  0  0  0  0  0  0
   38.1920   24.2150   34.3270 N   0  0  0  0  0  0  0  0  0  0  0  0
   37.9900   21.8560   34.1860 N   0  0  0  0  0  0  0  0  0  0  0  0
   38.1320   26.2660   37.0520 H   0  0  0  0  0  0  0  0  0  0  0  0
   37.8620   24.0280   38.1290 H   0  0  0  0  0  0  0  0  0  0  0  0
   37.3460   21.8430   33.3520 H   0  0  0  0  0  0  0  0  0  0  0  0
   38.5910   21.0180   34.4330 H   0  0  0  0  0  0  0  0  0  0  0  0
   37.7630   27.6970   32.2690 O   0  0  0  0  0  0  0  0  0  0  0  0
   35.2070   28.0480   32.1150 O   0  0  0  0  0  0  0  0  0  0  0  0
   36.3180   27.1820   31.6200 P   0  0  1  0  0  0  0  0  0  0  0  0
   36.3420   27.4120   29.9060 O   0  0  0  0  0  0  0  0  0  0  0  0
   36.5310   28.3780   29.7920 H   0  0  0  0  0  0  0  0  0  0  0  0
   36.1100   25.5500   31.9790 O   0  0  0  0  0  0  0  0  0  0  0  0
   35.3170   24.8970   31.0500 C   0  0  0  0  0  2  0  0  0  0  0  0
   35.6580   23.4090   31.1720 C   0  0  0  0  0  2  0  0  0  0  0  0
   35.0470   22.7850   30.4910 H   0  0  0  0  0  0  0  0  0  0  0  0
  1  4  1  1  0  0  0
  1  8  1  0  0  0  0
  2  6  1  0  0  0  0
  2  5  1  0  0  0  0
  2  1  1  0  0  0  0
  3  7  1  6  0  0  0
  3  2  1  0  0  0  0
  3  1  1  0  0  0  0
  8  9  1  0  0  0  0
  9 15  1  0  0  0  0
  9 10  2  0  0  0  0
 10 16  1  0  0  0  0
 11 10  1  0  0  0  0
 12 11  2  0  0  0  0
 13 12  1  0  0  0  0
 13  8  2  0  0  0  0
 14 18  1  0  0  0  0
 14 12  1  0  0  0  0
 17 14  1  0  0  0  0
 19  3  1  0  0  0  0
 21 24  1  0  0  0  0
 21 20  2  1  0  0  0
 21 19  1  0  0  0  0
 22 21  1  0  0  0  0
 23 22  1  0  0  0  0
 25 26  1  0  0  0  0
 25 24  1  0  0  0  0
 27 26  1  0  0  0  0
M  END
>  <minimizedAffinity>
-4.3651104

$$$$

 OpenBabel03272504583D

 27 28  0  0  1  0  0  0  0  0999 V2000
   38.4990   27.0900   34.4820 C   0  0  1  0  0  0  0  0  0  0  0  0
   38.4970   27.3260   35.9050 C   0  0  0  0  0  0  0  0  0  0  0  0
   38.2750   25.9480   35.3710 C   0  0  2  0  0  0  0  0  0  0  0  0
   39.4670   27.0190   33.8740 H   0  0  0  0  0  0  0  0  0  0  0  0
   39.3990   27.8520   36.1520 H   0  0  0  0  0  0  0  0  0  0  0  0
   37.6030   27.8340   36.3240 H   0  0  0  0  0  0  0  0  0  0  0  0
   37.3500   25.5480   35.7450 H   0  0  0  0  0  0  0  0  0  0  0  0
   37.3440   27.5190   33.6210 C   0  0  0  0  0  0  0  0  0  0  0  0
   36.4280   28.4110   34.2170 C   0  0  0  0  0  0  0  0  0  0  0  0
   35.3870   28.7930   33.4070 C   0  0  0  0  0  0  0  0  0  0  0  0
   35.2910   28.3260   32.1420 N   0  0  0  0  0  0  0  0  0  0  0  0
   36.1970   27.4650   31.6010 C   0  0  0  0  0  0  0  0  0  0  0  0
   37.2530   27.0560   32.3770 N   0  0  0  0  0  0  0  0  0  0  0  0
   36.1320   26.9830   30.2890 N   0  0  0  0  0  0  0  0  0  0  0  0
   36.4960   28.7860   35.2180 H   0  0  0  0  0  0  0  0  0  0  0  0
   34.6120   29.4670   33.7250 H   0  0  0  0  0  0  0  0  0  0  0  0
   36.9960   27.0400   29.6890 H   0  0  0  0  0  0  0  0  0  0  0  0
   35.2270   26.5730   29.9170 H   0  0  0  0  0  0  0  0  0  0  0  0
   39.3550   25.0700   35.5030 O   0  0  0  0  0  0  0  0  0  0  0  0
   37.8050   23.6340   34.0150 O   0  0  0  0  0  0  0  0  0  0  0  0
   38.9350   23.5440   34.9860 P   0  0  1  0  0  0  0  0  0  0  0  0
   40.2460   22.8550   34.0930 O   0  0  0  0  0  0  0  0  0  0  0  0
   40.4180   23.5090   33.3690 H   0  0  0  0  0  0  0  0  0  0  0  0
   38.5900   22.5900   36.3310 O   0  0  0  0  0  0  0  0  0  0  0  0
   37.4670   23.0230   37.0170 C   0  0  0  0  0  2  0  0  0  0  0  0
   37.9720   23.5590   38.3600 C   0  0  0  0  0  2  0  0  0  0  0  0
   37.1510   23.9680   38.9800 H   0  0  0  0  0  0  0  0  0  0  0  0
  1  4  1  6  0  0  0
  1  3  1  0  0  0  0
  1  2  1  0  0  0  0
  2  5  1  0  0  0  0
  2  6  1  0  0  0  0
  3 19  1  0  0  0  0
  3  7  1  1  0  0  0
  3  2  1  0  0  0  0
  8  9  1  0  0  0  0
  8  1  1  0  0  0  0
  9 15  1  0  0  0  0
 10 16  1  0  0  0  0
 10  9  2  0  0  0  0
 11 10  1  0  0  0  0
 12 11  2  0  0  0  0
 12 13  1  0  0  0  0
 13  8  2  0  0  0  0
 14 12  1  0  0  0  0
 17 14  1  0  0  0  0
 18 14  1  0  0  0  0
 21 20  2  6  0  0  0
 21 19  1  0  0  0  0
 21 24  1  0  0  0  0
 22 21  1  0  0  0  0
 23 22  1  0  0  0  0
 24 25  1  0  0  0  0
 25 26  1  0  0  0  0
 26 27  1  0  0  0  0
M  END
>  <minimizedAffinity>
-4.33808708

$$$$

 OpenBabel03272504583D

 27 28  0  0  1  0  0  0  0  0999 V2000
   38.7600   25.0150   34.8330 C   0  0  1  0  0  0  0  0  0  0  0  0
   39.6150   24.5840   33.7550 C   0  0  0  0  0  0  0  0  0  0  0  0
   38.1620   24.2380   33.7450 C   0  0  2  0  0  0  0  0  0  0  0  0
   38.3630   26.0860   34.9100 H   0  0  0  0  0  0  0  0  0  0  0  0
   40.1400   25.4460   33.3880 H   0  0  0  0  0  0  0  0  0  0  0  0
   40.3120   23.7470   33.9740 H   0  0  0  0  0  0  0  0  0  0  0  0
   38.0320   23.1750   33.6580 H   0  0  0  0  0  0  0  0  0  0  0  0
   38.8220   24.3570   36.1830 C   0  0  0  0  0  0  0  0  0  0  0  0
   37.9140   24.8420   37.1480 C   0  0  0  0  0  0  0  0  0  0  0  0
   37.9860   24.2190   38.3700 C   0  0  0  0  0  0  0  0  0  0  0  0
   38.8730   23.2210   38.5840 N   0  0  0  0  0  0  0  0  0  0  0  0
   39.7330   22.7790   37.6260 C   0  0  0  0  0  0  0  0  0  0  0  0
   39.6960   23.3760   36.3890 N   0  0  0  0  0  0  0  0  0  0  0  0
   40.6460   21.7360   37.8150 N   0  0  0  0  0  0  0  0  0  0  0  0
   37.2080   25.6320   36.9880 H   0  0  0  0  0  0  0  0  0  0  0  0
   37.3570   24.4830   39.2010 H   0  0  0  0  0  0  0  0  0  0  0  0
   40.6830   20.9640   37.0980 H   0  0  0  0  0  0  0  0  0  0  0  0
   41.2810   21.7310   38.6650 H   0  0  0  0  0  0  0  0  0  0  0  0
   37.3750   24.9700   32.8500 O   0  0  0  0  0  0  0  0  0  0  0  0
   36.4600   22.6100   32.3310 O   0  0  0  0  0  0  0  0  0  0  0  0
   36.6700   23.9600   31.7290 P   0  0  1  0  0  0  0  0  0  0  0  0
   35.0850   24.5380   31.3480 O   0  0  0  0  0  0  0  0  0  0  0  0
   34.6230   24.5780   32.2230 H   0  0  0  0  0  0  0  0  0  0  0  0
   37.6250   23.9360   30.3420 O   0  0  0  0  0  0  0  0  0  0  0  0
   38.4670   22.8370   30.2930 C   0  0  0  0  0  2  0  0  0  0  0  0
   39.8920   23.3960   30.2500 C   0  0  0  0  0  2  0  0  0  0  0  0
   40.6540   22.5930   30.2460 H   0  0  0  0  0  0  0  0  0  0  0  0
  1  4  1  1  0  0  0
  1  8  1  0  0  0  0
  2  6  1  0  0  0  0
  2  1  1  0  0  0  0
  3  7  1  1  0  0  0
  3  2  1  0  0  0  0
  3  1  1  0  0  0  0
  5  2  1  0  0  0  0
  8 13  2  0  0  0  0
  8  9  1  0  0  0  0
  9 10  2  0  0  0  0
 10 11  1  0  0  0  0
 10 16  1  0  0  0  0
 12 14  1  0  0  0  0
 12 11  2  0  0  0  0
 13 12  1  0  0  0  0
 14 18  1  0  0  0  0
 15  9  1  0  0  0  0
 17 14  1  0  0  0  0
 19  3  1  0  0  0  0
 21 20  2  1  0  0  0
 21 19  1  0  0  0  0
 22 21  1  0  0  0  0
 22 23  1  0  0  0  0
 24 21  1  0  0  0  0
 25 24  1  0  0  0  0
 26 25  1  0  0  0  0
 27 26  1  0  0  0  0
M  END
>  <minimizedAffinity>
-4.31961823

$$$$
