
 OpenBabel03262522203D

 13 13  0  0  0  0  0  0  0  0999 V2000
   39.4030   23.9350   35.8980 C   0  0  0  0  0  0  0  0  0  0  0  0
   38.3020   24.4450   36.6180 C   0  0  0  0  0  0  0  0  0  0  0  0
   38.1340   24.0360   37.9310 C   0  0  0  0  0  0  0  0  0  0  0  0
   39.0380   23.1680   38.4630 N   0  0  0  0  0  0  0  0  0  0  0  0
   40.0720   22.7010   37.7570 C   0  0  0  0  0  0  0  0  0  0  0  0
   40.2610   23.0810   36.4720 N   0  0  0  0  0  0  0  0  0  0  0  0
   39.6100   24.1920   34.8870 H   0  0  0  0  0  0  0  0  0  0  0  0
   37.2760   24.4570   38.4360 H   0  0  0  0  0  0  0  0  0  0  0  0
   40.7370   22.0150   38.2590 H   0  0  0  0  0  0  0  0  0  0  0  0
   37.5070   25.3110   35.8990 O   0  0  0  0  0  0  0  0  0  0  0  0
   38.2060   26.1900   35.0190 C   0  0  0  0  0  2  0  0  0  0  0  0
   38.3700   27.5240   35.6790 C   0  0  0  0  0  2  0  0  0  0  0  0
   37.5000   27.6500   36.3850 H   0  0  0  0  0  0  0  0  0  0  0  0
  1  6  2  0  0  0  0
  1  2  1  0  0  0  0
  2  3  2  0  0  0  0
  3  8  1  0  0  0  0
  3  4  1  0  0  0  0
  5  9  1  0  0  0  0
  5  4  2  0  0  0  0
  6  5  1  0  0  0  0
  7  1  1  0  0  0  0
 10  2  1  0  0  0  0
 11 12  1  0  0  0  0
 11 10  1  0  0  0  0
 12 13  1  0  0  0  0
M  END
>  <minimizedAffinity>
-2.97536397

$$$$

 OpenBabel03262522203D

 13 13  0  0  0  0  0  0  0  0999 V2000
   39.5490   23.1560   36.2190 C   0  0  0  0  0  0  0  0  0  0  0  0
   39.6960   22.8100   37.5790 C   0  0  0  0  0  0  0  0  0  0  0  0
   38.8150   23.3620   38.4940 C   0  0  0  0  0  0  0  0  0  0  0  0
   37.8510   24.2080   38.0380 N   0  0  0  0  0  0  0  0  0  0  0  0
   37.7340   24.5180   36.7440 C   0  0  0  0  0  0  0  0  0  0  0  0
   38.5810   23.9960   35.8270 N   0  0  0  0  0  0  0  0  0  0  0  0
   40.1790   22.7820   35.4490 H   0  0  0  0  0  0  0  0  0  0  0  0
   38.9720   23.0630   39.5210 H   0  0  0  0  0  0  0  0  0  0  0  0
   36.9400   25.1990   36.4740 H   0  0  0  0  0  0  0  0  0  0  0  0
   40.7340   21.9380   37.8310 O   0  0  0  0  0  0  0  0  0  0  0  0
   41.5340   21.6000   36.6990 C   0  0  0  0  0  2  0  0  0  0  0  0
   42.5830   20.6140   37.1110 C   0  0  0  0  0  2  0  0  0  0  0  0
   42.8060   20.8080   38.1990 H   0  0  0  0  0  0  0  0  0  0  0  0
  1  2  1  0  0  0  0
  2 10  1  0  0  0  0
  2  3  2  0  0  0  0
  3  8  1  0  0  0  0
  4  3  1  0  0  0  0
  5  4  2  0  0  0  0
  6  1  2  0  0  0  0
  6  5  1  0  0  0  0
  7  1  1  0  0  0  0
  9  5  1  0  0  0  0
 11 12  1  0  0  0  0
 11 10  1  0  0  0  0
 12 13  1  0  0  0  0
M  END
>  <minimizedAffinity>
-2.96652842

$$$$

 OpenBabel03262522203D

 13 13  0  0  0  0  0  0  0  0999 V2000
   38.5280   23.8120   37.1040 C   0  0  0  0  0  0  0  0  0  0  0  0
   39.1150   24.1570   35.8690 C   0  0  0  0  0  0  0  0  0  0  0  0
   40.3800   23.6710   35.5870 C   0  0  0  0  0  0  0  0  0  0  0  0
   40.9950   22.8830   36.5110 N   0  0  0  0  0  0  0  0  0  0  0  0
   40.4150   22.5710   37.6730 C   0  0  0  0  0  0  0  0  0  0  0  0
   39.1800   23.0320   37.9780 N   0  0  0  0  0  0  0  0  0  0  0  0
   37.5630   24.1390   37.4050 H   0  0  0  0  0  0  0  0  0  0  0  0
   40.7830   23.9660   34.6270 H   0  0  0  0  0  0  0  0  0  0  0  0
   40.9770   21.9410   38.3470 H   0  0  0  0  0  0  0  0  0  0  0  0
   38.3280   24.9630   35.0750 O   0  0  0  0  0  0  0  0  0  0  0  0
   37.8270   26.1390   35.7080 C   0  0  0  0  0  2  0  0  0  0  0  0
   38.8570   27.2230   35.6260 C   0  0  0  0  0  2  0  0  0  0  0  0
   39.8640   26.7170   35.5970 H   0  0  0  0  0  0  0  0  0  0  0  0
  1  7  1  0  0  0  0
  1  6  1  0  0  0  0
  2  1  2  0  0  0  0
  3  2  1  0  0  0  0
  3  4  2  0  0  0  0
  4  5  1  0  0  0  0
  5  6  2  0  0  0  0
  5  9  1  0  0  0  0
  8  3  1  0  0  0  0
 10 11  1  0  0  0  0
 10  2  1  0  0  0  0
 12 11  1  0  0  0  0
 13 12  1  0  0  0  0
M  END
>  <minimizedAffinity>
-2.80485415

$$$$

 OpenBabel03262522203D

 13 13  0  0  0  0  0  0  0  0999 V2000
   40.0380   22.7210   37.7690 C   0  0  0  0  0  0  0  0  0  0  0  0
   39.9930   22.1780   36.4680 C   0  0  0  0  0  0  0  0  0  0  0  0
   38.7960   22.2390   35.7740 C   0  0  0  0  0  0  0  0  0  0  0  0
   37.7230   22.8210   36.3780 N   0  0  0  0  0  0  0  0  0  0  0  0
   37.7940   23.3270   37.6120 C   0  0  0  0  0  0  0  0  0  0  0  0
   38.9490   23.2810   38.3150 N   0  0  0  0  0  0  0  0  0  0  0  0
   40.9110   22.7180   38.3740 H   0  0  0  0  0  0  0  0  0  0  0  0
   38.8170   21.8090   34.7820 H   0  0  0  0  0  0  0  0  0  0  0  0
   36.8930   23.7680   38.0120 H   0  0  0  0  0  0  0  0  0  0  0  0
   41.1860   21.6370   36.0400 O   0  0  0  0  0  0  0  0  0  0  0  0
   42.1990   21.5290   37.0390 C   0  0  0  0  0  2  0  0  0  0  0  0
   42.7900   20.1540   36.9980 C   0  0  0  0  0  2  0  0  0  0  0  0
   41.9850   19.4620   36.6210 H   0  0  0  0  0  0  0  0  0  0  0  0
  1  6  1  0  0  0  0
  1  7  1  0  0  0  0
  2  1  2  0  0  0  0
  3  4  2  0  0  0  0
  3  2  1  0  0  0  0
  4  5  1  0  0  0  0
  5  9  1  0  0  0  0
  5  6  2  0  0  0  0
  8  3  1  0  0  0  0
 10  2  1  0  0  0  0
 10 11  1  0  0  0  0
 12 11  1  0  0  0  0
 13 12  1  0  0  0  0
M  END
>  <minimizedAffinity>
-2.79785562

$$$$

 OpenBabel03262522203D

 13 13  0  0  0  0  0  0  0  0999 V2000
   39.5610   24.6560   35.2450 C   0  0  0  0  0  0  0  0  0  0  0  0
   38.4500   25.1160   35.9840 C   0  0  0  0  0  0  0  0  0  0  0  0
   38.2460   26.4820   36.0770 C   0  0  0  0  0  0  0  0  0  0  0  0
   39.1240   27.3150   35.4510 N   0  0  0  0  0  0  0  0  0  0  0  0
   40.1670   26.8510   34.7580 C   0  0  0  0  0  0  0  0  0  0  0  0
   40.3930   25.5220   34.6500 N   0  0  0  0  0  0  0  0  0  0  0  0
   39.7950   23.6270   35.1220 H   0  0  0  0  0  0  0  0  0  0  0  0
   37.3810   26.7800   36.6530 H   0  0  0  0  0  0  0  0  0  0  0  0
   40.8120   27.5850   34.2960 H   0  0  0  0  0  0  0  0  0  0  0  0
   37.6850   24.1120   36.5380 O   0  0  0  0  0  0  0  0  0  0  0  0
   38.4050   23.1570   37.3160 C   0  0  0  0  0  2  0  0  0  0  0  0
   38.4280   23.5990   38.7460 C   0  0  0  0  0  2  0  0  0  0  0  0
   38.3720   24.7240   38.7430 H   0  0  0  0  0  0  0  0  0  0  0  0
  1  2  1  0  0  0  0
  2  3  2  0  0  0  0
  2 10  1  0  0  0  0
  3  8  1  0  0  0  0
  4  3  1  0  0  0  0
  5  4  2  0  0  0  0
  6  5  1  0  0  0  0
  6  1  2  0  0  0  0
  7  1  1  0  0  0  0
  9  5  1  0  0  0  0
 10 11  1  0  0  0  0
 11 12  1  0  0  0  0
 13 12  1  0  0  0  0
M  END
>  <minimizedAffinity>
-2.7530973

$$$$

 OpenBabel03262522203D

 13 13  0  0  0  0  0  0  0  0999 V2000
   36.9320   23.9010   32.2410 C   0  0  0  0  0  0  0  0  0  0  0  0
   35.7890   23.7110   31.4370 C   0  0  0  0  0  0  0  0  0  0  0  0
   35.1200   24.8330   30.9750 C   0  0  0  0  0  0  0  0  0  0  0  0
   35.5980   26.0620   31.3170 N   0  0  0  0  0  0  0  0  0  0  0  0
   36.6840   26.2110   32.0810 C   0  0  0  0  0  0  0  0  0  0  0  0
   37.3570   25.1340   32.5470 N   0  0  0  0  0  0  0  0  0  0  0  0
   37.5060   23.1000   32.6400 H   0  0  0  0  0  0  0  0  0  0  0  0
   34.2520   24.6310   30.3640 H   0  0  0  0  0  0  0  0  0  0  0  0
   36.9910   27.2230   32.3020 H   0  0  0  0  0  0  0  0  0  0  0  0
   35.4720   22.3900   31.2070 O   0  0  0  0  0  0  0  0  0  0  0  0
   35.3570   21.5790   32.3750 C   0  0  0  0  0  2  0  0  0  0  0  0
   34.6250   20.3180   32.0330 C   0  0  0  0  0  2  0  0  0  0  0  0
   33.9330   20.5630   31.1770 H   0  0  0  0  0  0  0  0  0  0  0  0
  1  6  1  0  0  0  0
  1  7  1  0  0  0  0
  2  1  2  0  0  0  0
  3  4  2  0  0  0  0
  3  2  1  0  0  0  0
  4  5  1  0  0  0  0
  5  9  1  0  0  0  0
  5  6  2  0  0  0  0
  8  3  1  0  0  0  0
 10  2  1  0  0  0  0
 10 11  1  0  0  0  0
 12 11  1  0  0  0  0
 13 12  1  0  0  0  0
M  END
>  <minimizedAffinity>
-2.71757245

$$$$

 OpenBabel03262522203D

 13 13  0  0  0  0  0  0  0  0999 V2000
   39.2900   24.6290   35.4940 C   0  0  0  0  0  0  0  0  0  0  0  0
   38.2990   25.0240   36.4160 C   0  0  0  0  0  0  0  0  0  0  0  0
   37.5040   24.0420   36.9830 C   0  0  0  0  0  0  0  0  0  0  0  0
   37.7190   22.7450   36.6260 N   0  0  0  0  0  0  0  0  0  0  0  0
   38.6660   22.4000   35.7500 C   0  0  0  0  0  0  0  0  0  0  0  0
   39.4570   23.3370   35.1780 N   0  0  0  0  0  0  0  0  0  0  0  0
   39.9440   25.3130   35.0100 H   0  0  0  0  0  0  0  0  0  0  0  0
   36.7610   24.3990   37.6830 H   0  0  0  0  0  0  0  0  0  0  0  0
   38.7650   21.3480   35.5250 H   0  0  0  0  0  0  0  0  0  0  0  0
   38.2450   26.3830   36.6410 O   0  0  0  0  0  0  0  0  0  0  0  0
   38.5480   27.2000   35.5110 C   0  0  0  0  0  2  0  0  0  0  0  0
   37.2740   27.7180   34.9190 C   0  0  0  0  0  2  0  0  0  0  0  0
   36.4740   26.9560   35.1430 H   0  0  0  0  0  0  0  0  0  0  0  0
  1  2  1  0  0  0  0
  2 10  1  0  0  0  0
  2  3  2  0  0  0  0
  3  8  1  0  0  0  0
  4  3  1  0  0  0  0
  5  4  2  0  0  0  0
  6  1  2  0  0  0  0
  6  5  1  0  0  0  0
  7  1  1  0  0  0  0
  9  5  1  0  0  0  0
 11 10  1  0  0  0  0
 12 13  1  0  0  0  0
 12 11  1  0  0  0  0
M  END
>  <minimizedAffinity>
-2.704988

$$$$

 OpenBabel03262522203D

 13 13  0  0  0  0  0  0  0  0999 V2000
   38.2080   24.3040   34.7310 C   0  0  0  0  0  0  0  0  0  0  0  0
   37.8680   25.3670   35.5940 C   0  0  0  0  0  0  0  0  0  0  0  0
   37.2910   26.4990   35.0410 C   0  0  0  0  0  0  0  0  0  0  0  0
   37.0790   26.5300   33.6970 N   0  0  0  0  0  0  0  0  0  0  0  0
   37.4120   25.5080   32.9040 C   0  0  0  0  0  0  0  0  0  0  0  0
   37.9770   24.3900   33.4140 N   0  0  0  0  0  0  0  0  0  0  0  0
   38.6550   23.4000   35.0660 H   0  0  0  0  0  0  0  0  0  0  0  0
   37.0500   27.2830   35.7460 H   0  0  0  0  0  0  0  0  0  0  0  0
   37.2080   25.6210   31.8490 H   0  0  0  0  0  0  0  0  0  0  0  0
   38.1640   25.1370   36.9200 O   0  0  0  0  0  0  0  0  0  0  0  0
   37.7520   23.8670   37.4240 C   0  0  0  0  0  2  0  0  0  0  0  0
   38.6520   23.4670   38.5520 C   0  0  0  0  0  2  0  0  0  0  0  0
   39.6540   23.9460   38.3580 H   0  0  0  0  0  0  0  0  0  0  0  0
  1  7  1  0  0  0  0
  1  2  1  0  0  0  0
  2 10  1  0  0  0  0
  3  2  2  0  0  0  0
  3  8  1  0  0  0  0
  4  3  1  0  0  0  0
  5  6  1  0  0  0  0
  5  4  2  0  0  0  0
  6  1  2  0  0  0  0
  9  5  1  0  0  0  0
 10 11  1  0  0  0  0
 11 12  1  0  0  0  0
 13 12  1  0  0  0  0
M  END
>  <minimizedAffinity>
-2.69900441

$$$$

 OpenBabel03262522203D

 13 13  0  0  0  0  0  0  0  0999 V2000
   37.1780   27.1400   35.0030 C   0  0  0  0  0  0  0  0  0  0  0  0
   37.7920   25.8780   35.1470 C   0  0  0  0  0  0  0  0  0  0  0  0
   37.9040   25.0730   34.0250 C   0  0  0  0  0  0  0  0  0  0  0  0
   37.4200   25.5370   32.8400 N   0  0  0  0  0  0  0  0  0  0  0  0
   36.8430   26.7370   32.7330 C   0  0  0  0  0  0  0  0  0  0  0  0
   36.7180   27.5460   33.8110 N   0  0  0  0  0  0  0  0  0  0  0  0
   37.0490   27.8220   35.8070 H   0  0  0  0  0  0  0  0  0  0  0  0
   38.3820   24.1170   34.1910 H   0  0  0  0  0  0  0  0  0  0  0  0
   36.4870   27.0230   31.7540 H   0  0  0  0  0  0  0  0  0  0  0  0
   38.2150   25.5970   36.4280 O   0  0  0  0  0  0  0  0  0  0  0  0
   37.8220   24.3220   36.9330 C   0  0  0  0  0  2  0  0  0  0  0  0
   37.9290   24.3270   38.4270 C   0  0  0  0  0  2  0  0  0  0  0  0
   38.7420   25.0600   38.6950 H   0  0  0  0  0  0  0  0  0  0  0  0
  1  2  1  0  0  0  0
  1  7  1  0  0  0  0
  2 10  1  0  0  0  0
  3  8  1  0  0  0  0
  3  2  2  0  0  0  0
  4  3  1  0  0  0  0
  5  4  2  0  0  0  0
  5  6  1  0  0  0  0
  6  1  2  0  0  0  0
  9  5  1  0  0  0  0
 10 11  1  0  0  0  0
 11 12  1  0  0  0  0
 12 13  1  0  0  0  0
M  END
>  <minimizedAffinity>
-2.66114688

$$$$
