
 OpenBabel03262521153D

 13 13  0  0  0  0  0  0  0  0999 V2000
   36.9870   31.2340   49.7390 C   0  0  0  0  0  0  0  0  0  0  0  0
   35.7390   30.6920   49.4150 C   0  0  0  0  0  0  0  0  0  0  0  0
   35.2360   29.6920   50.2490 C   0  0  0  0  0  0  0  0  0  0  0  0
   35.9920   29.3180   51.3110 N   0  0  0  0  0  0  0  0  0  0  0  0
   37.1970   29.8530   51.6100 C   0  0  0  0  0  0  0  0  0  0  0  0
   37.6830   30.8120   50.8140 N   0  0  0  0  0  0  0  0  0  0  0  0
   35.1240   30.9650   48.5890 H   0  0  0  0  0  0  0  0  0  0  0  0
   34.2700   29.2220   50.0600 H   0  0  0  0  0  0  0  0  0  0  0  0
   37.7740   29.5360   52.4610 H   0  0  0  0  0  0  0  0  0  0  0  0
   37.3770   32.2220   48.8330 O   0  0  0  0  0  0  0  0  0  0  0  0
   38.7300   32.5290   48.5750 C   0  0  0  0  0  0  0  0  0  0  0  0
   39.1440   33.8280   49.2270 C   0  0  0  0  0  0  0  0  0  0  0  0
   39.9660   34.2840   48.6270 H   0  0  0  0  0  0  0  0  0  0  0  0
  1  6  1  0  0  0  0
  2  1  2  0  0  0  0
  2  3  1  0  0  0  0
  3  4  2  0  0  0  0
  4  5  1  0  0  0  0
  5  9  1  0  0  0  0
  6  5  2  0  0  0  0
  7  2  1  0  0  0  0
  8  3  1  0  0  0  0
 10  1  1  0  0  0  0
 11 10  1  0  0  0  0
 11 12  1  0  0  0  0
 13 12  1  0  0  0  0
M  END
>  <minimizedAffinity>
-3.68699908

>  <minimizedRMSD>
4.03953934

$$$$
