
 OpenBabel03272510233D

 26 28  0  0  0  0  0  0  0  0999 V2000
   36.1340   30.1620   46.8060 C   0  0  0  0  0  0  0  0  0  0  0  0
   37.0210   30.7320   47.7090 C   0  0  0  0  0  0  0  0  0  0  0  0
   38.0040   31.6220   47.2880 C   0  0  0  0  0  0  0  0  0  0  0  0
   38.0430   31.9000   45.9280 C   0  0  0  0  0  0  0  0  0  0  0  0
   38.9000   32.7260   45.2740 N   0  0  0  0  0  0  0  0  0  0  0  0
   38.5600   32.6790   43.9830 C   0  0  0  0  0  0  0  0  0  0  0  0
   37.5280   31.8590   43.7840 N   0  0  0  0  0  0  0  0  0  0  0  0
   37.1820   31.3560   44.9920 C   0  0  0  0  0  0  0  0  0  0  0  0
   36.2090   30.4670   45.4480 C   0  0  0  0  0  0  0  0  0  0  0  0
   35.3650   29.4750   47.0790 H   0  0  0  0  0  0  0  0  0  0  0  0
   38.6940   32.0680   47.9860 H   0  0  0  0  0  0  0  0  0  0  0  0
   39.6800   33.2940   45.7090 H   0  0  0  0  0  0  0  0  0  0  0  0
   35.5210   30.0270   44.7350 H   0  0  0  0  0  0  0  0  0  0  0  0
   37.5560   30.2400   51.4050 C   0  0  0  0  0  0  0  0  0  0  0  0
   37.7870   30.6360   50.1030 C   0  0  0  0  0  0  0  0  0  0  0  0
   36.8790   30.3640   49.1040 C   0  0  0  0  0  0  0  0  0  0  0  0
   35.7610   29.6920   49.4750 N   0  0  0  0  0  0  0  0  0  0  0  0
   35.5360   29.3040   50.7550 C   0  0  0  0  0  0  0  0  0  0  0  0
   36.4290   29.5780   51.7060 N   0  0  0  0  0  0  0  0  0  0  0  0
   38.3340   30.5050   52.1090 H   0  0  0  0  0  0  0  0  0  0  0  0
   38.6840   31.1710   49.8280 H   0  0  0  0  0  0  0  0  0  0  0  0
   34.6130   28.7620   50.9920 H   0  0  0  0  0  0  0  0  0  0  0  0
   39.2470   33.4230   43.0080 O   0  0  0  0  0  0  0  0  0  0  0  0
   38.8090   33.3850   41.6570 C   0  0  0  0  0  2  0  0  0  0  0  0
   39.4060   32.1510   41.0120 C   0  0  0  0  0  2  0  0  0  0  0  0
   40.3100   31.7810   41.5490 H   0  0  0  0  0  0  0  0  0  0  0  0
  1 10  1  0  0  0  0
  1  2  1  0  0  0  0
  2 16  1  0  0  0  0
  3  2  2  0  0  0  0
  3 11  1  0  0  0  0
  4  3  1  0  0  0  0
  5 12  1  0  0  0  0
  5  4  1  0  0  0  0
  6  5  1  0  0  0  0
  7  6  2  0  0  0  0
  7  8  1  0  0  0  0
  8  9  1  0  0  0  0
  8  4  2  0  0  0  0
  9  1  2  0  0  0  0
 13  9  1  0  0  0  0
 14 19  1  0  0  0  0
 14 20  1  0  0  0  0
 15 14  2  0  0  0  0
 16 17  2  0  0  0  0
 16 15  1  0  0  0  0
 17 18  1  0  0  0  0
 18 22  1  0  0  0  0
 18 19  2  0  0  0  0
 21 15  1  0  0  0  0
 23  6  1  0  0  0  0
 24 23  1  0  0  0  0
 25 26  1  0  0  0  0
 25 24  1  0  0  0  0
M  END
>  <minimizedAffinity>
-5.02203417

>  <minimizedRMSD>
1.16175127

$$$$
