
 OpenBabel03272506203D

 38 40  0  0  1  0  0  0  0  0999 V2000
   34.4890   29.5260   47.9050 C   0  0  0  0  0  0  0  0  0  0  0  0
   33.6150   30.3510   47.1930 C   0  0  0  0  0  0  0  0  0  0  0  0
   32.7780   29.7270   46.2590 C   0  0  0  0  0  0  0  0  0  0  0  0
   32.8540   28.3510   46.0880 N   0  0  0  0  0  0  0  0  0  0  0  0
   33.7290   27.5910   46.8150 C   0  0  0  0  0  0  0  0  0  0  0  0
   34.5250   28.1770   47.7000 N   0  0  0  0  0  0  0  0  0  0  0  0
   31.8600   30.4660   45.4790 N   0  0  0  0  0  0  0  0  0  0  0  0
   32.2670   31.4640   44.6360 C   0  0  0  0  0  0  0  0  0  0  0  0
   31.3670   32.1720   43.8860 C   0  0  0  0  0  0  0  0  0  0  0  0
   30.0420   31.8520   44.0050 C   0  0  0  0  0  0  0  0  0  0  0  0
   29.1820   32.4900   43.3250 O   0  0  0  0  0  0  0  0  0  0  0  0
   29.6320   30.8710   44.8340 N   0  0  0  0  0  0  0  0  0  0  0  0
   30.5590   30.2050   45.5490 C   0  0  0  0  0  0  0  0  0  0  0  0
   30.0720   29.2980   46.3000 O   0  0  0  0  0  0  0  0  0  0  0  0
   33.4980   31.4070   47.2690 H   0  0  0  0  0  0  0  0  0  0  0  0
   33.7310   26.5260   46.6260 H   0  0  0  0  0  0  0  0  0  0  0  0
   33.3430   31.6590   44.5970 H   0  0  0  0  0  0  0  0  0  0  0  0
   31.7270   32.9530   43.2310 H   0  0  0  0  0  0  0  0  0  0  0  0
   28.6070   30.6590   44.8950 H   0  0  0  0  0  0  0  0  0  0  0  0
   35.3670   30.2190   48.9040 C   0  0  2  0  0  0  0  0  0  0  0  0
   36.4390   30.9970   48.1450 C   0  0  0  0  0  0  0  0  0  0  0  0
   37.8060   30.4350   48.3130 C   0  0  0  0  0  0  0  0  0  0  0  0
   38.2020   30.2570   49.7560 C   0  0  0  0  0  0  0  0  0  0  0  0
   37.1120   29.6720   50.6050 C   0  0  0  0  0  0  0  0  0  0  0  0
   35.9180   29.1980   49.8130 C   0  0  1  0  0  0  0  0  0  0  0  0
   34.7490   30.9550   49.4580 H   0  0  0  0  0  0  0  0  0  0  0  0
   36.4110   32.0640   48.4280 H   0  0  0  0  0  0  0  0  0  0  0  0
   36.2030   30.9770   47.0560 H   0  0  0  0  0  0  0  0  0  0  0  0
   38.5110   31.1190   47.8230 H   0  0  0  0  0  0  0  0  0  0  0  0
   37.8260   29.4420   47.8310 H   0  0  0  0  0  0  0  0  0  0  0  0
   38.4830   31.2500   50.2120 H   0  0  0  0  0  0  0  0  0  0  0  0
   39.1440   29.6660   49.7570 H   0  0  0  0  0  0  0  0  0  0  0  0
   37.5490   28.7790   51.0990 H   0  0  0  0  0  0  0  0  0  0  0  0
   36.7880   30.3450   51.4260 H   0  0  0  0  0  0  0  0  0  0  0  0
   36.1260   28.2650   49.2770 H   0  0  0  0  0  0  0  0  0  0  0  0
   34.8280   28.8940   50.8510 C   0  0  0  0  0  2  0  0  0  0  0  0
   33.7810   29.9570   50.9220 C   0  0  0  0  0  2  0  0  0  0  0  0
   32.8120   29.5340   50.5260 H   0  0  0  0  0  0  0  0  0  0  0  0
  1 20  1  0  0  0  0
  2 15  1  0  0  0  0
  2  1  2  0  0  0  0
  3  2  1  0  0  0  0
  4  3  2  0  0  0  0
  4  5  1  0  0  0  0
  5  6  2  0  0  0  0
  6  1  1  0  0  0  0
  7 13  1  0  0  0  0
  7  3  1  0  0  0  0
  8  7  1  0  0  0  0
  9 10  1  0  0  0  0
  9  8  2  0  0  0  0
 10 12  1  0  0  0  0
 11 10  2  0  0  0  0
 12 19  1  0  0  0  0
 12 13  1  0  0  0  0
 13 14  2  0  0  0  0
 16  5  1  0  0  0  0
 17  8  1  0  0  0  0
 18  9  1  0  0  0  0
 20 26  1  1  0  0  0
 20 25  1  0  0  0  0
 21 22  1  0  0  0  0
 21 27  1  0  0  0  0
 21 20  1  0  0  0  0
 22 23  1  0  0  0  0
 23 32  1  0  0  0  0
 23 31  1  0  0  0  0
 23 24  1  0  0  0  0
 24 33  1  0  0  0  0
 24 34  1  0  0  0  0
 25 35  1  6  0  0  0
 25 24  1  0  0  0  0
 25 36  1  0  0  0  0
 28 21  1  0  0  0  0
 29 22  1  0  0  0  0
 30 22  1  0  0  0  0
 36 37  1  0  0  0  0
 38 37  1  0  0  0  0
M  END
>  <minimizedAffinity>
-5.17472506

>  <minimizedRMSD>
1.2708956

$$$$
