
 OpenBabel03272506203D

 38 40  0  0  1  0  0  0  0  0999 V2000
   35.3390   29.6340   48.0210 C   0  0  0  0  0  0  0  0  0  0  0  0
   34.3440   29.5480   47.0450 C   0  0  0  0  0  0  0  0  0  0  0  0
   33.4610   28.4630   47.1390 C   0  0  0  0  0  0  0  0  0  0  0  0
   33.6130   27.5480   48.1710 N   0  0  0  0  0  0  0  0  0  0  0  0
   34.6080   27.6830   49.1010 C   0  0  0  0  0  0  0  0  0  0  0  0
   35.4460   28.7080   49.0170 N   0  0  0  0  0  0  0  0  0  0  0  0
   32.4210   28.2740   46.2010 N   0  0  0  0  0  0  0  0  0  0  0  0
   32.6720   28.1170   44.8650 C   0  0  0  0  0  0  0  0  0  0  0  0
   31.6550   27.9350   43.9670 C   0  0  0  0  0  0  0  0  0  0  0  0
   30.3730   27.9150   44.4470 C   0  0  0  0  0  0  0  0  0  0  0  0
   29.4080   27.7480   43.6420 O   0  0  0  0  0  0  0  0  0  0  0  0
   30.1170   28.0690   45.7620 N   0  0  0  0  0  0  0  0  0  0  0  0
   31.1550   28.2450   46.6020 C   0  0  0  0  0  0  0  0  0  0  0  0
   30.8090   28.3800   47.8210 O   0  0  0  0  0  0  0  0  0  0  0  0
   34.1630   30.2070   46.2290 H   0  0  0  0  0  0  0  0  0  0  0  0
   34.6630   26.9300   49.8760 H   0  0  0  0  0  0  0  0  0  0  0  0
   33.7220   28.1460   44.5600 H   0  0  0  0  0  0  0  0  0  0  0  0
   31.8930   27.8140   42.9200 H   0  0  0  0  0  0  0  0  0  0  0  0
   29.1200   28.0470   46.0860 H   0  0  0  0  0  0  0  0  0  0  0  0
   36.2640   30.8090   47.9020 C   0  0  2  0  0  0  0  0  0  0  0  0
   36.7690   30.8810   46.4630 C   0  0  0  0  0  0  0  0  0  0  0  0
   38.2150   30.5620   46.3270 C   0  0  0  0  0  0  0  0  0  0  0  0
   39.0930   31.3810   47.2380 C   0  0  0  0  0  0  0  0  0  0  0  0
   38.5480   31.5130   48.6300 C   0  0  0  0  0  0  0  0  0  0  0  0
   37.3430   30.6410   48.8930 C   0  0  1  0  0  0  0  0  0  0  0  0
   35.6810   31.7310   48.0990 H   0  0  0  0  0  0  0  0  0  0  0  0
   36.5370   31.8680   46.0250 H   0  0  0  0  0  0  0  0  0  0  0  0
   36.2060   30.1470   45.8410 H   0  0  0  0  0  0  0  0  0  0  0  0
   38.5010   30.7440   45.2840 H   0  0  0  0  0  0  0  0  0  0  0  0
   38.3530   29.4980   46.5900 H   0  0  0  0  0  0  0  0  0  0  0  0
   39.2170   32.4250   46.8290 H   0  0  0  0  0  0  0  0  0  0  0  0
   40.1080   30.9320   47.1900 H   0  0  0  0  0  0  0  0  0  0  0  0
   39.3530   31.1670   49.3120 H   0  0  0  0  0  0  0  0  0  0  0  0
   38.3350   32.5630   48.9190 H   0  0  0  0  0  0  0  0  0  0  0  0
   37.6180   29.5870   49.0020 H   0  0  0  0  0  0  0  0  0  0  0  0
   36.7820   31.1090   50.2430 C   0  0  0  0  0  2  0  0  0  0  0  0
   37.3580   30.3650   51.4010 C   0  0  0  0  0  2  0  0  0  0  0  0
   38.0050   31.0720   51.9980 H   0  0  0  0  0  0  0  0  0  0  0  0
  1  6  1  0  0  0  0
  2  3  1  0  0  0  0
  2  1  2  0  0  0  0
  3  4  2  0  0  0  0
  4  5  1  0  0  0  0
  5 16  1  0  0  0  0
  6  5  2  0  0  0  0
  7 13  1  0  0  0  0
  7  3  1  0  0  0  0
  8  7  1  0  0  0  0
  9 10  1  0  0  0  0
  9  8  2  0  0  0  0
 10 12  1  0  0  0  0
 11 10  2  0  0  0  0
 12 19  1  0  0  0  0
 12 13  1  0  0  0  0
 13 14  2  0  0  0  0
 15  2  1  0  0  0  0
 17  8  1  0  0  0  0
 18  9  1  0  0  0  0
 20  1  1  0  0  0  0
 20 26  1  1  0  0  0
 20 25  1  0  0  0  0
 21 20  1  0  0  0  0
 22 21  1  0  0  0  0
 22 30  1  0  0  0  0
 22 23  1  0  0  0  0
 23 24  1  0  0  0  0
 24 25  1  0  0  0  0
 24 34  1  0  0  0  0
 24 33  1  0  0  0  0
 25 35  1  1  0  0  0
 25 36  1  0  0  0  0
 27 21  1  0  0  0  0
 28 21  1  0  0  0  0
 29 22  1  0  0  0  0
 31 23  1  0  0  0  0
 32 23  1  0  0  0  0
 36 37  1  0  0  0  0
 37 38  1  0  0  0  0
M  END
>  <minimizedAffinity>
-5.45327473

>  <minimizedRMSD>
2.59517241

$$$$
