
 OpenBabel03272506203D

 38 40  0  0  1  0  0  0  0  0999 V2000
   34.4950   29.4980   47.9360 C   0  0  0  0  0  0  0  0  0  0  0  0
   33.6070   30.3050   47.2220 C   0  0  0  0  0  0  0  0  0  0  0  0
   32.7670   29.6600   46.3040 C   0  0  0  0  0  0  0  0  0  0  0  0
   32.8550   28.2840   46.1510 N   0  0  0  0  0  0  0  0  0  0  0  0
   33.7440   27.5420   46.8790 C   0  0  0  0  0  0  0  0  0  0  0  0
   34.5420   28.1470   47.7490 N   0  0  0  0  0  0  0  0  0  0  0  0
   31.8350   30.3810   45.5230 N   0  0  0  0  0  0  0  0  0  0  0  0
   32.2250   31.3710   44.6630 C   0  0  0  0  0  0  0  0  0  0  0  0
   31.3110   32.0610   43.9130 C   0  0  0  0  0  0  0  0  0  0  0  0
   29.9900   31.7300   44.0490 C   0  0  0  0  0  0  0  0  0  0  0  0
   29.1180   32.3500   43.3680 O   0  0  0  0  0  0  0  0  0  0  0  0
   29.5970   30.7560   44.8940 N   0  0  0  0  0  0  0  0  0  0  0  0
   30.5370   30.1080   45.6090 C   0  0  0  0  0  0  0  0  0  0  0  0
   30.0660   29.2070   46.3760 O   0  0  0  0  0  0  0  0  0  0  0  0
   33.4810   31.3600   47.2850 H   0  0  0  0  0  0  0  0  0  0  0  0
   33.7540   26.4740   46.7040 H   0  0  0  0  0  0  0  0  0  0  0  0
   33.2980   31.5760   44.6110 H   0  0  0  0  0  0  0  0  0  0  0  0
   31.6570   32.8360   43.2440 H   0  0  0  0  0  0  0  0  0  0  0  0
   28.5750   30.5350   44.9670 H   0  0  0  0  0  0  0  0  0  0  0  0
   35.3760   30.2120   48.9170 C   0  0  2  0  0  0  0  0  0  0  0  0
   36.4360   30.9870   48.1380 C   0  0  0  0  0  0  0  0  0  0  0  0
   37.8090   30.4380   48.3030 C   0  0  0  0  0  0  0  0  0  0  0  0
   38.2180   30.2840   49.7460 C   0  0  0  0  0  0  0  0  0  0  0  0
   37.1400   29.7040   50.6120 C   0  0  0  0  0  0  0  0  0  0  0  0
   35.9420   29.2090   49.8370 C   0  0  1  0  0  0  0  0  0  0  0  0
   34.7570   30.9520   49.4650 H   0  0  0  0  0  0  0  0  0  0  0  0
   36.4020   32.0570   48.4050 H   0  0  0  0  0  0  0  0  0  0  0  0
   36.1920   30.9490   47.0520 H   0  0  0  0  0  0  0  0  0  0  0  0
   38.5040   31.1200   47.7970 H   0  0  0  0  0  0  0  0  0  0  0  0
   37.8320   29.4380   47.8350 H   0  0  0  0  0  0  0  0  0  0  0  0
   38.4940   31.2860   50.1850 H   0  0  0  0  0  0  0  0  0  0  0  0
   39.1640   29.7010   49.7470 H   0  0  0  0  0  0  0  0  0  0  0  0
   37.5870   28.8210   51.1150 H   0  0  0  0  0  0  0  0  0  0  0  0
   36.8170   30.3860   51.4260 H   0  0  0  0  0  0  0  0  0  0  0  0
   36.1540   28.2700   49.3140 H   0  0  0  0  0  0  0  0  0  0  0  0
   34.8630   28.9120   50.8880 C   0  0  0  0  0  2  0  0  0  0  0  0
   33.7930   29.9530   50.9320 C   0  0  0  0  0  2  0  0  0  0  0  0
   32.8330   29.4980   50.5520 H   0  0  0  0  0  0  0  0  0  0  0  0
  1 20  1  0  0  0  0
  2 15  1  0  0  0  0
  2  1  2  0  0  0  0
  3  2  1  0  0  0  0
  4  3  2  0  0  0  0
  4  5  1  0  0  0  0
  5  6  2  0  0  0  0
  6  1  1  0  0  0  0
  7 13  1  0  0  0  0
  7  3  1  0  0  0  0
  8  7  1  0  0  0  0
  9 10  1  0  0  0  0
  9  8  2  0  0  0  0
 10 12  1  0  0  0  0
 11 10  2  0  0  0  0
 12 19  1  0  0  0  0
 12 13  1  0  0  0  0
 13 14  2  0  0  0  0
 16  5  1  0  0  0  0
 17  8  1  0  0  0  0
 18  9  1  0  0  0  0
 20 26  1  1  0  0  0
 20 25  1  0  0  0  0
 21 22  1  0  0  0  0
 21 27  1  0  0  0  0
 21 20  1  0  0  0  0
 22 23  1  0  0  0  0
 23 32  1  0  0  0  0
 23 31  1  0  0  0  0
 23 24  1  0  0  0  0
 24 33  1  0  0  0  0
 24 34  1  0  0  0  0
 25 35  1  6  0  0  0
 25 24  1  0  0  0  0
 25 36  1  0  0  0  0
 28 21  1  0  0  0  0
 29 22  1  0  0  0  0
 30 22  1  0  0  0  0
 36 37  1  0  0  0  0
 38 37  1  0  0  0  0
M  END
>  <minimizedAffinity>
-5.17952967

>  <minimizedRMSD>
1.28830361

$$$$
