
 OpenBabel03272506203D

 38 40  0  0  1  0  0  0  0  0999 V2000
   34.4110   29.5380   47.6140 C   0  0  0  0  0  0  0  0  0  0  0  0
   33.4770   30.3850   47.0140 C   0  0  0  0  0  0  0  0  0  0  0  0
   32.6510   29.8200   46.0320 C   0  0  0  0  0  0  0  0  0  0  0  0
   32.7980   28.4780   45.7090 N   0  0  0  0  0  0  0  0  0  0  0  0
   33.7320   27.6950   46.3310 C   0  0  0  0  0  0  0  0  0  0  0  0
   34.5160   28.2250   47.2600 N   0  0  0  0  0  0  0  0  0  0  0  0
   31.6760   30.5870   45.3560 N   0  0  0  0  0  0  0  0  0  0  0  0
   32.0070   31.6920   44.6210 C   0  0  0  0  0  0  0  0  0  0  0  0
   31.0510   32.4260   43.9710 C   0  0  0  0  0  0  0  0  0  0  0  0
   29.7480   32.0200   44.0790 C   0  0  0  0  0  0  0  0  0  0  0  0
   28.8380   32.6780   43.4900 O   0  0  0  0  0  0  0  0  0  0  0  0
   29.4130   30.9320   44.8020 N   0  0  0  0  0  0  0  0  0  0  0  0
   30.3930   30.2460   45.4210 C   0  0  0  0  0  0  0  0  0  0  0  0
   29.9750   29.2360   46.0770 O   0  0  0  0  0  0  0  0  0  0  0  0
   33.3040   31.4180   47.2090 H   0  0  0  0  0  0  0  0  0  0  0  0
   33.7870   26.6580   46.0250 H   0  0  0  0  0  0  0  0  0  0  0  0
   33.0680   31.9520   44.5840 H   0  0  0  0  0  0  0  0  0  0  0  0
   31.3510   33.2930   43.4000 H   0  0  0  0  0  0  0  0  0  0  0  0
   28.4030   30.6570   44.8580 H   0  0  0  0  0  0  0  0  0  0  0  0
   35.2750   30.1670   48.6670 C   0  0  2  0  0  0  0  0  0  0  0  0
   36.3720   30.9720   47.9730 C   0  0  0  0  0  0  0  0  0  0  0  0
   37.7280   30.3860   48.1390 C   0  0  0  0  0  0  0  0  0  0  0  0
   38.0920   30.1260   49.5790 C   0  0  0  0  0  0  0  0  0  0  0  0
   36.9780   29.5100   50.3720 C   0  0  0  0  0  0  0  0  0  0  0  0
   35.7950   29.0920   49.5310 C   0  0  1  0  0  0  0  0  0  0  0  0
   34.6530   30.8790   49.2460 H   0  0  0  0  0  0  0  0  0  0  0  0
   36.3480   32.0220   48.3120 H   0  0  0  0  0  0  0  0  0  0  0  0
   36.1590   31.0130   46.8800 H   0  0  0  0  0  0  0  0  0  0  0  0
   38.4510   31.0870   47.7010 H   0  0  0  0  0  0  0  0  0  0  0  0
   37.7480   29.4200   47.6050 H   0  0  0  0  0  0  0  0  0  0  0  0
   38.3730   31.0900   50.0930 H   0  0  0  0  0  0  0  0  0  0  0  0
   39.0270   29.5250   49.5680 H   0  0  0  0  0  0  0  0  0  0  0  0
   37.3940   28.5860   50.8260 H   0  0  0  0  0  0  0  0  0  0  0  0
   36.6430   30.1420   51.2210 H   0  0  0  0  0  0  0  0  0  0  0  0
   36.0060   28.1870   48.9510 H   0  0  0  0  0  0  0  0  0  0  0  0
   34.6800   28.7460   50.5280 C   0  0  0  0  0  2  0  0  0  0  0  0
   33.8370   29.9260   50.8880 C   0  0  0  0  0  2  0  0  0  0  0  0
   32.8050   29.7740   50.4560 H   0  0  0  0  0  0  0  0  0  0  0  0
  1 20  1  0  0  0  0
  2 15  1  0  0  0  0
  2  1  2  0  0  0  0
  3  2  1  0  0  0  0
  4  3  2  0  0  0  0
  4  5  1  0  0  0  0
  5  6  2  0  0  0  0
  6  1  1  0  0  0  0
  7 13  1  0  0  0  0
  7  3  1  0  0  0  0
  8  7  1  0  0  0  0
  9 10  1  0  0  0  0
  9  8  2  0  0  0  0
 10 12  1  0  0  0  0
 11 10  2  0  0  0  0
 12 19  1  0  0  0  0
 12 13  1  0  0  0  0
 13 14  2  0  0  0  0
 16  5  1  0  0  0  0
 17  8  1  0  0  0  0
 18  9  1  0  0  0  0
 20 26  1  1  0  0  0
 20 25  1  0  0  0  0
 21 22  1  0  0  0  0
 21 27  1  0  0  0  0
 21 20  1  0  0  0  0
 22 23  1  0  0  0  0
 23 31  1  0  0  0  0
 23 24  1  0  0  0  0
 24 33  1  0  0  0  0
 24 34  1  0  0  0  0
 25 35  1  6  0  0  0
 25 24  1  0  0  0  0
 25 36  1  0  0  0  0
 28 21  1  0  0  0  0
 29 22  1  0  0  0  0
 30 22  1  0  0  0  0
 32 23  1  0  0  0  0
 36 37  1  0  0  0  0
 38 37  1  0  0  0  0
M  END
>  <minimizedAffinity>
-4.964396

>  <minimizedRMSD>
1.60940337

$$$$
