
 OpenBabel03272506203D

 38 40  0  0  1  0  0  0  0  0999 V2000
   35.3300   29.6190   48.0290 C   0  0  0  0  0  0  0  0  0  0  0  0
   34.3210   29.5310   47.0670 C   0  0  0  0  0  0  0  0  0  0  0  0
   33.4430   28.4430   47.1710 C   0  0  0  0  0  0  0  0  0  0  0  0
   33.6130   27.5270   48.1990 N   0  0  0  0  0  0  0  0  0  0  0  0
   34.6200   27.6630   49.1150 C   0  0  0  0  0  0  0  0  0  0  0  0
   35.4540   28.6910   49.0220 N   0  0  0  0  0  0  0  0  0  0  0  0
   32.3910   28.2520   46.2480 N   0  0  0  0  0  0  0  0  0  0  0  0
   32.6230   28.0980   44.9080 C   0  0  0  0  0  0  0  0  0  0  0  0
   31.5940   27.9140   44.0250 C   0  0  0  0  0  0  0  0  0  0  0  0
   30.3190   27.8890   44.5230 C   0  0  0  0  0  0  0  0  0  0  0  0
   29.3430   27.7210   43.7310 O   0  0  0  0  0  0  0  0  0  0  0  0
   30.0810   28.0400   45.8410 N   0  0  0  0  0  0  0  0  0  0  0  0
   31.1300   28.2180   46.6660 C   0  0  0  0  0  0  0  0  0  0  0  0
   30.8020   28.3490   47.8910 O   0  0  0  0  0  0  0  0  0  0  0  0
   34.1260   30.1910   46.2550 H   0  0  0  0  0  0  0  0  0  0  0  0
   34.6900   26.9090   49.8880 H   0  0  0  0  0  0  0  0  0  0  0  0
   33.6690   28.1320   44.5890 H   0  0  0  0  0  0  0  0  0  0  0  0
   31.8170   27.7970   42.9730 H   0  0  0  0  0  0  0  0  0  0  0  0
   29.0890   28.0140   46.1800 H   0  0  0  0  0  0  0  0  0  0  0  0
   36.2490   30.7970   47.8990 C   0  0  2  0  0  0  0  0  0  0  0  0
   36.7460   30.8640   46.4570 C   0  0  0  0  0  0  0  0  0  0  0  0
   38.1920   30.5500   46.3160 C   0  0  0  0  0  0  0  0  0  0  0  0
   39.0710   31.3780   47.2180 C   0  0  0  0  0  0  0  0  0  0  0  0
   38.5330   31.5150   48.6110 C   0  0  0  0  0  0  0  0  0  0  0  0
   37.3330   30.6400   48.8850 C   0  0  1  0  0  0  0  0  0  0  0  0
   35.6620   31.7180   48.0940 H   0  0  0  0  0  0  0  0  0  0  0  0
   36.5070   31.8470   46.0150 H   0  0  0  0  0  0  0  0  0  0  0  0
   36.1830   30.1250   45.8420 H   0  0  0  0  0  0  0  0  0  0  0  0
   38.4720   30.7290   45.2690 H   0  0  0  0  0  0  0  0  0  0  0  0
   38.3370   29.4890   46.5830 H   0  0  0  0  0  0  0  0  0  0  0  0
   39.1890   32.4210   46.8030 H   0  0  0  0  0  0  0  0  0  0  0  0
   40.0890   30.9340   47.1660 H   0  0  0  0  0  0  0  0  0  0  0  0
   39.3430   31.1770   49.2910 H   0  0  0  0  0  0  0  0  0  0  0  0
   38.3160   32.5660   48.8960 H   0  0  0  0  0  0  0  0  0  0  0  0
   37.6130   29.5870   48.9980 H   0  0  0  0  0  0  0  0  0  0  0  0
   36.7770   31.1120   50.2360 C   0  0  0  0  0  2  0  0  0  0  0  0
   37.3580   30.3720   51.3940 C   0  0  0  0  0  2  0  0  0  0  0  0
   38.0060   31.0810   51.9860 H   0  0  0  0  0  0  0  0  0  0  0  0
  1  6  1  0  0  0  0
  2  3  1  0  0  0  0
  2  1  2  0  0  0  0
  3  4  2  0  0  0  0
  4  5  1  0  0  0  0
  5 16  1  0  0  0  0
  6  5  2  0  0  0  0
  7 13  1  0  0  0  0
  7  3  1  0  0  0  0
  8  7  1  0  0  0  0
  9 10  1  0  0  0  0
  9  8  2  0  0  0  0
 10 12  1  0  0  0  0
 11 10  2  0  0  0  0
 12 19  1  0  0  0  0
 12 13  1  0  0  0  0
 13 14  2  0  0  0  0
 15  2  1  0  0  0  0
 17  8  1  0  0  0  0
 18  9  1  0  0  0  0
 20  1  1  0  0  0  0
 20 26  1  1  0  0  0
 20 25  1  0  0  0  0
 21 20  1  0  0  0  0
 22 21  1  0  0  0  0
 22 30  1  0  0  0  0
 22 23  1  0  0  0  0
 23 24  1  0  0  0  0
 24 25  1  0  0  0  0
 24 34  1  0  0  0  0
 24 33  1  0  0  0  0
 25 35  1  1  0  0  0
 25 36  1  0  0  0  0
 27 21  1  0  0  0  0
 28 21  1  0  0  0  0
 29 22  1  0  0  0  0
 31 23  1  0  0  0  0
 32 23  1  0  0  0  0
 36 37  1  0  0  0  0
 37 38  1  0  0  0  0
M  END
>  <minimizedAffinity>
-5.44478893

>  <minimizedRMSD>
2.65707588

$$$$
