
 OpenBabel03272508043D

 29 31  0  0  0  0  0  0  0  0999 V2000
   38.9090   30.9040   45.7870 C   0  0  0  0  0  0  0  0  0  0  0  0
   40.0960   31.5350   46.0440 C   0  0  0  0  0  0  0  0  0  0  0  0
   40.9510   31.4800   44.9350 C   0  0  0  0  0  0  0  0  0  0  0  0
   40.2010   30.7930   44.0380 N   0  0  0  0  0  0  0  0  0  0  0  0
   39.0260   30.4560   44.5150 N   0  0  0  0  0  0  0  0  0  0  0  0
   40.3860   32.0280   46.9720 H   0  0  0  0  0  0  0  0  0  0  0  0
   41.9310   31.8520   44.7690 H   0  0  0  0  0  0  0  0  0  0  0  0
   37.7730   30.7470   46.6770 C   0  0  0  0  0  0  0  0  0  0  0  0
   37.9940   30.9700   48.0640 C   0  0  0  0  0  0  0  0  0  0  0  0
   36.9040   30.8190   48.9170 C   0  0  0  0  0  0  0  0  0  0  0  0
   35.7000   30.4670   48.3740 N   0  0  0  0  0  0  0  0  0  0  0  0
   35.5230   30.2600   47.0470 C   0  0  0  0  0  0  0  0  0  0  0  0
   36.5730   30.4060   46.2120 N   0  0  0  0  0  0  0  0  0  0  0  0
   38.9690   31.2430   48.3950 H   0  0  0  0  0  0  0  0  0  0  0  0
   34.5350   29.9840   46.6970 H   0  0  0  0  0  0  0  0  0  0  0  0
   37.0960   31.0450   50.3790 C   0  0  0  0  0  0  0  0  0  0  0  0
   36.5690   32.2890   50.6310 F   0  0  0  0  0  0  0  0  0  0  0  0
   36.4150   30.1030   51.1490 F   0  0  0  0  0  0  0  0  0  0  0  0
   38.4450   31.0380   50.7230 F   0  0  0  0  0  0  0  0  0  0  0  0
   40.5610   30.4190   42.6650 C   0  0  0  0  0  0  0  0  0  0  0  0
   40.1870   31.2190   41.5700 C   0  0  0  0  0  0  0  0  0  0  0  0
   40.5560   30.8220   40.3150 C   0  0  0  0  0  0  0  0  0  0  0  0
   41.2970   29.6220   40.1520 C   0  0  0  0  0  0  0  0  0  0  0  0
   41.4840   29.0230   41.9020 S   0  0  0  0  0  0  0  0  0  0  0  0
   39.6220   32.1350   41.6750 H   0  0  0  0  0  0  0  0  0  0  0  0
   40.3540   31.3130   39.3770 H   0  0  0  0  0  0  0  0  0  0  0  0
   41.8310   28.9200   39.0650 C   0  0  0  0  0  2  0  0  0  0  0  0
   42.3880   29.9090   38.0330 C   0  0  0  0  0  2  0  0  0  0  0  0
   42.7350   30.8100   38.5820 H   0  0  0  0  0  0  0  0  0  0  0  0
  1  2  1  0  0  0  0
  1  8  1  0  0  0  0
  2  6  1  0  0  0  0
  3  2  2  0  0  0  0
  4  5  1  0  0  0  0
  4  3  1  0  0  0  0
  5  1  2  0  0  0  0
  7  3  1  0  0  0  0
  8  9  1  0  0  0  0
  9 14  1  0  0  0  0
  9 10  2  0  0  0  0
 10 16  1  0  0  0  0
 11 10  1  0  0  0  0
 12 11  2  0  0  0  0
 13  8  2  0  0  0  0
 13 12  1  0  0  0  0
 15 12  1  0  0  0  0
 16 17  1  0  0  0  0
 16 19  1  0  0  0  0
 16 18  1  0  0  0  0
 20  4  1  0  0  0  0
 21 25  1  0  0  0  0
 21 20  2  0  0  0  0
 22 21  1  0  0  0  0
 23 22  2  0  0  0  0
 23 24  1  0  0  0  0
 24 20  1  0  0  0  0
 26 22  1  0  0  0  0
 27 23  1  0  0  0  0
 28 29  1  0  0  0  0
 28 27  1  0  0  0  0
M  END
>  <minimizedAffinity>
-5.92970562

>  <minimizedRMSD>
0.0593753569

$$$$
