
 OpenBabel03272506233D

 25 26  0  0  0  0  0  0  0  0999 V2000
   38.2140   31.1830   47.9760 C   0  0  0  0  0  0  0  0  0  0  0  0
   38.5640   30.3620   46.9270 C   0  0  0  0  0  0  0  0  0  0  0  0
   39.3160   30.7620   45.8330 C   0  0  0  0  0  0  0  0  0  0  0  0
   39.7620   32.1050   45.7800 C   0  0  0  0  0  0  0  0  0  0  0  0
   39.4050   32.9350   46.8430 C   0  0  0  0  0  0  0  0  0  0  0  0
   38.6570   32.5190   47.9180 C   0  0  0  0  0  0  0  0  0  0  0  0
   38.2640   29.3140   46.8930 H   0  0  0  0  0  0  0  0  0  0  0  0
   39.5690   30.1070   45.0370 H   0  0  0  0  0  0  0  0  0  0  0  0
   40.3530   32.4920   44.9610 H   0  0  0  0  0  0  0  0  0  0  0  0
   39.7080   33.9520   46.8690 H   0  0  0  0  0  0  0  0  0  0  0  0
   38.0660   30.4630   50.3030 C   0  0  0  0  0  0  0  0  0  0  0  0
   37.4330   30.6050   49.0300 C   0  0  0  0  0  0  0  0  0  0  0  0
   36.1150   30.1670   48.9220 C   0  0  0  0  0  0  0  0  0  0  0  0
   35.5160   29.6370   50.0200 N   0  0  0  0  0  0  0  0  0  0  0  0
   36.1450   29.5110   51.2270 C   0  0  0  0  0  0  0  0  0  0  0  0
   37.4340   29.9360   51.3480 N   0  0  0  0  0  0  0  0  0  0  0  0
   39.0850   30.7810   50.4710 H   0  0  0  0  0  0  0  0  0  0  0  0
   35.6220   29.0840   52.0510 H   0  0  0  0  0  0  0  0  0  0  0  0
   35.3400   30.2550   47.6750 C   0  0  0  0  0  0  0  0  0  0  0  0
   34.0460   30.7580   47.9530 F   0  0  0  0  0  0  0  0  0  0  0  0
   35.8770   30.9830   46.6640 F   0  0  0  0  0  0  0  0  0  0  0  0
   35.0780   28.9750   47.1840 F   0  0  0  0  0  0  0  0  0  0  0  0
   38.2650   33.4010   49.0430 C   0  0  0  0  0  0  0  0  0  0  0  0
   39.4400   34.1200   49.6380 C   0  0  0  0  0  0  0  0  0  0  0  0
   40.0060   33.5470   50.3830 H   0  0  0  0  0  0  0  0  0  0  0  0
  1 12  1  0  0  0  0
  2  1  2  0  0  0  0
  3  2  1  0  0  0  0
  4  3  2  0  0  0  0
  4  5  1  0  0  0  0
  5 10  1  0  0  0  0
  5  6  2  0  0  0  0
  6  1  1  0  0  0  0
  6 23  1  0  0  0  0
  7  2  1  0  0  0  0
  8  3  1  0  0  0  0
  9  4  1  0  0  0  0
 11 17  1  0  0  0  0
 11 16  1  0  0  0  0
 12 11  2  0  0  0  0
 13 12  1  0  0  0  0
 13 14  2  0  0  0  0
 14 15  1  0  0  0  0
 15 16  2  0  0  0  0
 15 18  1  0  0  0  0
 19 20  1  0  0  0  0
 19 13  1  0  0  0  0
 21 19  1  0  0  0  0
 22 19  1  0  0  0  0
 23 24  1  0  0  0  0
 24 25  1  0  0  0  0
M  END
>  <minimizedAffinity>
-6.02209425

>  <minimizedRMSD>
0.761312604

$$$$
