
 OpenBabel03272508053D

 29 31  0  0  0  0  0  0  0  0999 V2000
   38.9100   30.9060   45.7900 C   0  0  0  0  0  0  0  0  0  0  0  0
   40.0950   31.5400   46.0450 C   0  0  0  0  0  0  0  0  0  0  0  0
   40.9500   31.4840   44.9370 C   0  0  0  0  0  0  0  0  0  0  0  0
   40.2020   30.7940   44.0410 N   0  0  0  0  0  0  0  0  0  0  0  0
   39.0270   30.4550   44.5190 N   0  0  0  0  0  0  0  0  0  0  0  0
   40.3840   32.0350   46.9720 H   0  0  0  0  0  0  0  0  0  0  0  0
   41.9290   31.8580   44.7700 H   0  0  0  0  0  0  0  0  0  0  0  0
   37.7740   30.7480   46.6800 C   0  0  0  0  0  0  0  0  0  0  0  0
   37.9960   30.9700   48.0680 C   0  0  0  0  0  0  0  0  0  0  0  0
   36.9060   30.8190   48.9210 C   0  0  0  0  0  0  0  0  0  0  0  0
   35.7020   30.4660   48.3790 N   0  0  0  0  0  0  0  0  0  0  0  0
   35.5250   30.2610   47.0510 C   0  0  0  0  0  0  0  0  0  0  0  0
   36.5740   30.4070   46.2160 N   0  0  0  0  0  0  0  0  0  0  0  0
   38.9710   31.2430   48.3980 H   0  0  0  0  0  0  0  0  0  0  0  0
   34.5360   29.9840   46.7020 H   0  0  0  0  0  0  0  0  0  0  0  0
   37.0990   31.0440   50.3830 C   0  0  0  0  0  0  0  0  0  0  0  0
   36.5730   32.2880   50.6350 F   0  0  0  0  0  0  0  0  0  0  0  0
   36.4170   30.1020   51.1530 F   0  0  0  0  0  0  0  0  0  0  0  0
   38.4480   31.0360   50.7260 F   0  0  0  0  0  0  0  0  0  0  0  0
   40.5620   30.4180   42.6680 C   0  0  0  0  0  0  0  0  0  0  0  0
   40.1880   31.2160   41.5720 C   0  0  0  0  0  0  0  0  0  0  0  0
   40.5570   30.8180   40.3180 C   0  0  0  0  0  0  0  0  0  0  0  0
   41.2990   29.6180   40.1570 C   0  0  0  0  0  0  0  0  0  0  0  0
   41.4870   29.0210   41.9080 S   0  0  0  0  0  0  0  0  0  0  0  0
   39.6220   32.1310   41.6760 H   0  0  0  0  0  0  0  0  0  0  0  0
   40.3550   31.3060   39.3790 H   0  0  0  0  0  0  0  0  0  0  0  0
   41.8340   28.9140   39.0710 C   0  0  0  0  0  2  0  0  0  0  0  0
   40.9680   29.1490   37.8260 C   0  0  0  0  0  2  0  0  0  0  0  0
   40.5210   30.1610   37.9110 H   0  0  0  0  0  0  0  0  0  0  0  0
  1  2  1  0  0  0  0
  1  8  1  0  0  0  0
  2  6  1  0  0  0  0
  3  2  2  0  0  0  0
  4  5  1  0  0  0  0
  4  3  1  0  0  0  0
  5  1  2  0  0  0  0
  7  3  1  0  0  0  0
  8  9  1  0  0  0  0
  9 14  1  0  0  0  0
  9 10  2  0  0  0  0
 10 16  1  0  0  0  0
 11 10  1  0  0  0  0
 12 11  2  0  0  0  0
 13  8  2  0  0  0  0
 13 12  1  0  0  0  0
 15 12  1  0  0  0  0
 16 17  1  0  0  0  0
 16 19  1  0  0  0  0
 16 18  1  0  0  0  0
 20  4  1  0  0  0  0
 21 25  1  0  0  0  0
 21 20  2  0  0  0  0
 22 21  1  0  0  0  0
 23 22  2  0  0  0  0
 23 24  1  0  0  0  0
 24 20  1  0  0  0  0
 26 22  1  0  0  0  0
 27 23  1  0  0  0  0
 28 29  1  0  0  0  0
 28 27  1  0  0  0  0
M  END
>  <minimizedAffinity>
-5.90330219

>  <minimizedRMSD>
0.0316104069

$$$$
