
 OpenBabel03272508033D

 29 31  0  0  0  0  0  0  0  0999 V2000
   38.9050   30.9020   45.7890 C   0  0  0  0  0  0  0  0  0  0  0  0
   40.0930   31.5300   46.0490 C   0  0  0  0  0  0  0  0  0  0  0  0
   40.9490   31.4760   44.9420 C   0  0  0  0  0  0  0  0  0  0  0  0
   40.2000   30.7940   44.0410 N   0  0  0  0  0  0  0  0  0  0  0  0
   39.0230   30.4570   44.5150 N   0  0  0  0  0  0  0  0  0  0  0  0
   40.3820   32.0200   46.9780 H   0  0  0  0  0  0  0  0  0  0  0  0
   41.9300   31.8470   44.7780 H   0  0  0  0  0  0  0  0  0  0  0  0
   37.7680   30.7440   46.6760 C   0  0  0  0  0  0  0  0  0  0  0  0
   37.9850   30.9670   48.0640 C   0  0  0  0  0  0  0  0  0  0  0  0
   36.8940   30.8150   48.9150 C   0  0  0  0  0  0  0  0  0  0  0  0
   35.6910   30.4630   48.3690 N   0  0  0  0  0  0  0  0  0  0  0  0
   35.5170   30.2580   47.0410 C   0  0  0  0  0  0  0  0  0  0  0  0
   36.5680   30.4040   46.2080 N   0  0  0  0  0  0  0  0  0  0  0  0
   38.9600   31.2390   48.3970 H   0  0  0  0  0  0  0  0  0  0  0  0
   34.5290   29.9820   46.6900 H   0  0  0  0  0  0  0  0  0  0  0  0
   37.0830   31.0400   50.3770 C   0  0  0  0  0  0  0  0  0  0  0  0
   36.5590   32.2850   50.6280 F   0  0  0  0  0  0  0  0  0  0  0  0
   36.3970   30.1000   51.1450 F   0  0  0  0  0  0  0  0  0  0  0  0
   38.4310   31.0290   50.7240 F   0  0  0  0  0  0  0  0  0  0  0  0
   40.5620   30.4230   42.6680 C   0  0  0  0  0  0  0  0  0  0  0  0
   40.1850   31.2230   41.5740 C   0  0  0  0  0  0  0  0  0  0  0  0
   40.5550   30.8290   40.3180 C   0  0  0  0  0  0  0  0  0  0  0  0
   41.3000   29.6320   40.1540 C   0  0  0  0  0  0  0  0  0  0  0  0
   41.4900   29.0310   41.9030 S   0  0  0  0  0  0  0  0  0  0  0  0
   39.6170   32.1360   41.6800 H   0  0  0  0  0  0  0  0  0  0  0  0
   40.3510   31.3200   39.3810 H   0  0  0  0  0  0  0  0  0  0  0  0
   41.8370   28.9330   39.0660 C   0  0  0  0  0  2  0  0  0  0  0  0
   43.1280   29.6160   38.5990 C   0  0  0  0  0  2  0  0  0  0  0  0
   43.5980   30.0930   39.4830 H   0  0  0  0  0  0  0  0  0  0  0  0
  1  2  1  0  0  0  0
  1  8  1  0  0  0  0
  2  6  1  0  0  0  0
  3  2  2  0  0  0  0
  4  5  1  0  0  0  0
  4  3  1  0  0  0  0
  5  1  2  0  0  0  0
  7  3  1  0  0  0  0
  8  9  1  0  0  0  0
  9 14  1  0  0  0  0
  9 10  2  0  0  0  0
 10 16  1  0  0  0  0
 11 10  1  0  0  0  0
 12 11  2  0  0  0  0
 13  8  2  0  0  0  0
 13 12  1  0  0  0  0
 15 12  1  0  0  0  0
 16 17  1  0  0  0  0
 16 19  1  0  0  0  0
 16 18  1  0  0  0  0
 20  4  1  0  0  0  0
 21 25  1  0  0  0  0
 21 20  2  0  0  0  0
 22 21  1  0  0  0  0
 23 22  2  0  0  0  0
 23 24  1  0  0  0  0
 24 20  1  0  0  0  0
 26 22  1  0  0  0  0
 27 23  1  0  0  0  0
 28 27  1  0  0  0  0
 28 29  1  0  0  0  0
M  END
>  <minimizedAffinity>
-5.96642256

>  <minimizedRMSD>
0.487653017

$$$$
