
 OpenBabel03272503323D

 35 37  0  0  1  0  0  0  0  0999 V2000
   35.0970   29.4550   47.9000 C   0  0  0  0  0  0  0  0  0  0  0  0
   34.9310   30.0960   46.6800 C   0  0  0  0  0  0  0  0  0  0  0  0
   33.7720   29.8030   45.9570 C   0  0  0  0  0  0  0  0  0  0  0  0
   32.8910   28.9040   46.5170 N   0  0  0  0  0  0  0  0  0  0  0  0
   33.0930   28.3180   47.6830 C   0  0  0  0  0  0  0  0  0  0  0  0
   34.2010   28.5850   48.3970 N   0  0  0  0  0  0  0  0  0  0  0  0
   35.6140   30.7940   46.2420 H   0  0  0  0  0  0  0  0  0  0  0  0
   33.5500   30.2480   44.9980 H   0  0  0  0  0  0  0  0  0  0  0  0
   36.2930   29.7570   48.6470 N   0  0  0  0  0  0  0  0  0  0  0  0
   37.4220   30.5070   48.1930 C   0  0  0  0  0  0  0  0  0  0  0  0
   37.9700   31.0920   49.4950 C   0  0  2  0  0  0  0  0  0  0  0  0
   36.9840   30.6980   50.5880 C   0  0  0  0  0  0  0  0  0  0  0  0
   36.5810   29.3490   50.0180 C   0  0  0  0  0  0  0  0  0  0  0  0
   38.1400   29.8340   47.7030 H   0  0  0  0  0  0  0  0  0  0  0  0
   37.0820   31.3400   47.5380 H   0  0  0  0  0  0  0  0  0  0  0  0
   38.9360   30.6170   49.6620 H   0  0  0  0  0  0  0  0  0  0  0  0
   36.1130   31.3540   50.6190 H   0  0  0  0  0  0  0  0  0  0  0  0
   37.5110   30.5940   51.5530 H   0  0  0  0  0  0  0  0  0  0  0  0
   35.6800   28.9770   50.5170 H   0  0  0  0  0  0  0  0  0  0  0  0
   37.4230   28.6450   50.0260 H   0  0  0  0  0  0  0  0  0  0  0  0
   38.1510   32.5850   49.4140 C   0  0  0  0  0  0  0  0  0  0  0  0
   37.0090   33.1510   49.9390 F   0  0  0  0  0  0  0  0  0  0  0  0
   38.1770   32.9170   48.0730 F   0  0  0  0  0  0  0  0  0  0  0  0
   39.2810   33.0280   50.0450 F   0  0  0  0  0  0  0  0  0  0  0  0
   31.9070   27.1620   48.3460 S   0  0  0  0  0  0  0  0  0  0  0  0
   30.4300   27.7620   48.8810 C   0  0  0  0  0  0  0  0  0  0  0  0
   29.6940   27.8720   50.0200 C   0  0  0  0  0  0  0  0  0  0  0  0
   28.4410   28.4500   50.0870 C   0  0  0  0  0  0  0  0  0  0  0  0
   27.9740   28.9480   48.7750 C   0  0  0  0  0  0  0  0  0  0  0  0
   29.3150   28.5600   47.6080 S   0  0  0  0  0  0  0  0  0  0  0  0
   30.1950   27.4530   50.8800 H   0  0  0  0  0  0  0  0  0  0  0  0
   27.8650   28.5330   50.9820 H   0  0  0  0  0  0  0  0  0  0  0  0
   26.6800   29.5910   48.6260 C   0  0  0  0  0  0  0  0  0  0  0  0
   25.6690   28.5400   49.0170 C   0  0  0  0  0  0  0  0  0  0  0  0
   26.0470   27.5050   48.8740 H   0  0  0  0  0  0  0  0  0  0  0  0
  1  6  1  0  0  0  0
  1  9  1  0  0  0  0
  2  1  2  0  0  0  0
  3  4  2  0  0  0  0
  3  2  1  0  0  0  0
  4  5  1  0  0  0  0
  5 25  1  0  0  0  0
  5  6  2  0  0  0  0
  7  2  1  0  0  0  0
  8  3  1  0  0  0  0
  9 13  1  0  0  0  0
 10  9  1  0  0  0  0
 10 11  1  0  0  0  0
 11 16  1  1  0  0  0
 11 12  1  0  0  0  0
 12 17  1  0  0  0  0
 12 18  1  0  0  0  0
 13 20  1  0  0  0  0
 13 19  1  0  0  0  0
 13 12  1  0  0  0  0
 14 10  1  0  0  0  0
 15 10  1  0  0  0  0
 21 11  1  0  0  0  0
 21 22  1  0  0  0  0
 21 24  1  0  0  0  0
 23 21  1  0  0  0  0
 25 26  1  0  0  0  0
 26 27  2  0  0  0  0
 27 28  1  0  0  0  0
 27 31  1  0  0  0  0
 28 32  1  0  0  0  0
 29 28  2  0  0  0  0
 30 29  1  0  0  0  0
 30 26  1  0  0  0  0
 33 29  1  0  0  0  0
 33 34  1  0  0  0  0
 35 34  1  0  0  0  0
M  END
>  <minimizedAffinity>
-6.64022636

>  <minimizedRMSD>
0.192566141

$$$$
