
 OpenBabel03272507253D

 27 28  0  0  1  0  0  0  0  0999 V2000
   36.6050   27.0080   30.8380 C   0  0  0  0  0  0  0  0  0  0  0  0
   37.7260   27.2320   31.6490 C   0  0  0  0  0  0  0  0  0  0  0  0
   38.0720   26.2570   32.6000 C   0  0  0  0  0  0  0  0  0  0  0  0
   37.3070   25.1500   32.6870 N   0  0  0  0  0  0  0  0  0  0  0  0
   36.2230   24.9520   31.8910 C   0  0  0  0  0  0  0  0  0  0  0  0
   35.8820   25.8810   30.9770 N   0  0  0  0  0  0  0  0  0  0  0  0
   39.1910   26.4270   33.4470 N   0  0  0  0  0  0  0  0  0  0  0  0
   40.3760   27.2110   33.0780 C   0  0  0  0  0  0  0  0  0  0  0  0
   41.3920   26.9440   34.1480 C   0  0  0  0  0  0  0  0  0  0  0  0
   40.9070   25.6560   34.7130 C   0  0  0  0  0  0  0  0  0  0  0  0
   39.4150   25.9270   34.7450 C   0  0  2  0  0  0  0  0  0  0  0  0
   36.3320   27.7550   30.1030 H   0  0  0  0  0  0  0  0  0  0  0  0
   38.3350   28.1290   31.5680 H   0  0  0  0  0  0  0  0  0  0  0  0
   35.6400   24.0430   32.0030 H   0  0  0  0  0  0  0  0  0  0  0  0
   40.0570   28.2800   33.1650 H   0  0  0  0  0  0  0  0  0  0  0  0
   40.7130   27.0140   32.0570 H   0  0  0  0  0  0  0  0  0  0  0  0
   41.4820   27.7090   34.9210 H   0  0  0  0  0  0  0  0  0  0  0  0
   42.3740   26.7360   33.6600 H   0  0  0  0  0  0  0  0  0  0  0  0
   41.0650   24.8570   33.9730 H   0  0  0  0  0  0  0  0  0  0  0  0
   41.3280   25.3990   35.6970 H   0  0  0  0  0  0  0  0  0  0  0  0
   38.6170   24.7470   35.1770 C   0  0  0  0  0  0  0  0  0  0  0  0
   39.1270   24.3630   36.4110 F   0  0  0  0  0  0  0  0  0  0  0  0
   38.6520   23.6560   34.3770 F   0  0  0  0  0  0  0  0  0  0  0  0
   37.3420   25.2180   35.4790 F   0  0  0  0  0  0  0  0  0  0  0  0
   39.0530   27.0580   35.6860 C   0  0  0  0  0  2  0  0  0  0  0  0
   37.8000   27.7680   35.3660 C   0  0  0  0  0  2  0  0  0  0  0  0
   37.9320   28.5820   34.6200 H   0  0  0  0  0  0  0  0  0  0  0  0
  1  6  2  0  0  0  0
  1  2  1  0  0  0  0
  2  3  2  0  0  0  0
  3  4  1  0  0  0  0
  3  7  1  0  0  0  0
  5 14  1  0  0  0  0
  5  4  2  0  0  0  0
  6  5  1  0  0  0  0
  7 11  1  0  0  0  0
  8 15  1  0  0  0  0
  8  7  1  0  0  0  0
  8  9  1  0  0  0  0
  9 10  1  0  0  0  0
  9 17  1  0  0  0  0
 10 11  1  0  0  0  0
 10 20  1  0  0  0  0
 11 21  1  0  0  0  0
 11 25  1  1  0  0  0
 12  1  1  0  0  0  0
 13  2  1  0  0  0  0
 16  8  1  0  0  0  0
 18  9  1  0  0  0  0
 19 10  1  0  0  0  0
 21 24  1  0  0  0  0
 21 22  1  0  0  0  0
 23 21  1  0  0  0  0
 26 25  1  0  0  0  0
 27 26  1  0  0  0  0
M  END
>  <minimizedAffinity>
-4.40811634

$$$$

 OpenBabel03272507253D

 27 28  0  0  1  0  0  0  0  0999 V2000
   37.3230   27.3280   32.3430 C   0  0  0  0  0  0  0  0  0  0  0  0
   37.7670   26.0240   32.6070 C   0  0  0  0  0  0  0  0  0  0  0  0
   37.6820   25.5400   33.9230 C   0  0  0  0  0  0  0  0  0  0  0  0
   37.1760   26.3550   34.8710 N   0  0  0  0  0  0  0  0  0  0  0  0
   36.7520   27.6160   34.5950 C   0  0  0  0  0  0  0  0  0  0  0  0
   36.8300   28.0900   33.3360 N   0  0  0  0  0  0  0  0  0  0  0  0
   38.1140   24.2350   34.2510 N   0  0  0  0  0  0  0  0  0  0  0  0
   38.1040   23.1150   33.3020 C   0  0  0  0  0  0  0  0  0  0  0  0
   38.4190   21.8920   34.1110 C   0  0  0  0  0  0  0  0  0  0  0  0
   38.0560   22.3330   35.4840 C   0  0  0  0  0  0  0  0  0  0  0  0
   38.6220   23.7400   35.4680 C   0  0  2  0  0  0  0  0  0  0  0  0
   37.3860   27.7080   31.3310 H   0  0  0  0  0  0  0  0  0  0  0  0
   38.1720   25.3780   31.8320 H   0  0  0  0  0  0  0  0  0  0  0  0
   36.3540   28.2310   35.3970 H   0  0  0  0  0  0  0  0  0  0  0  0
   38.9660   23.3060   32.6160 H   0  0  0  0  0  0  0  0  0  0  0  0
   37.1800   23.0620   32.7200 H   0  0  0  0  0  0  0  0  0  0  0  0
   39.4520   21.5440   34.0650 H   0  0  0  0  0  0  0  0  0  0  0  0
   37.7020   21.0850   33.8280 H   0  0  0  0  0  0  0  0  0  0  0  0
   36.9620   22.4360   35.5500 H   0  0  0  0  0  0  0  0  0  0  0  0
   38.4620   21.7040   36.2920 H   0  0  0  0  0  0  0  0  0  0  0  0
   38.3150   24.5060   36.7070 C   0  0  0  0  0  0  0  0  0  0  0  0
   36.9500   24.3600   36.9280 F   0  0  0  0  0  0  0  0  0  0  0  0
   38.5730   25.8340   36.6880 F   0  0  0  0  0  0  0  0  0  0  0  0
   38.8970   23.8060   37.7610 F   0  0  0  0  0  0  0  0  0  0  0  0
   40.1290   23.7540   35.3180 C   0  0  0  0  0  2  0  0  0  0  0  0
   40.7100   25.0460   34.9050 C   0  0  0  0  0  2  0  0  0  0  0  0
   40.7120   25.1960   33.8030 H   0  0  0  0  0  0  0  0  0  0  0  0
  1  2  2  0  0  0  0
  1  6  1  0  0  0  0
  2  3  1  0  0  0  0
  3  7  1  0  0  0  0
  3  4  2  0  0  0  0
  5  4  1  0  0  0  0
  5 14  1  0  0  0  0
  6  5  2  0  0  0  0
  7 11  1  0  0  0  0
  8  9  1  0  0  0  0
  8  7  1  0  0  0  0
  9 10  1  0  0  0  0
 10 19  1  0  0  0  0
 10 20  1  0  0  0  0
 11 25  1  6  0  0  0
 11 10  1  0  0  0  0
 11 21  1  0  0  0  0
 12  1  1  0  0  0  0
 13  2  1  0  0  0  0
 15  8  1  0  0  0  0
 16  8  1  0  0  0  0
 17  9  1  0  0  0  0
 18  9  1  0  0  0  0
 21 22  1  0  0  0  0
 21 24  1  0  0  0  0
 23 21  1  0  0  0  0
 26 25  1  0  0  0  0
 27 26  1  0  0  0  0
M  END
>  <minimizedAffinity>
-4.34885025

$$$$

 OpenBabel03272507253D

 27 28  0  0  1  0  0  0  0  0999 V2000
   42.5920   21.7920   36.0620 C   0  0  0  0  0  0  0  0  0  0  0  0
   42.2240   22.9710   35.4000 C   0  0  0  0  0  0  0  0  0  0  0  0
   41.0500   23.6290   35.8030 C   0  0  0  0  0  0  0  0  0  0  0  0
   40.3320   23.0930   36.8100 N   0  0  0  0  0  0  0  0  0  0  0  0
   40.7050   21.9480   37.4390 C   0  0  0  0  0  0  0  0  0  0  0  0
   41.8290   21.3090   37.0600 N   0  0  0  0  0  0  0  0  0  0  0  0
   40.6280   24.8220   35.1720 N   0  0  0  0  0  0  0  0  0  0  0  0
   41.5470   25.7770   34.5430 C   0  0  0  0  0  0  0  0  0  0  0  0
   40.7190   26.9810   34.2080 C   0  0  0  0  0  0  0  0  0  0  0  0
   39.5660   26.8250   35.1340 C   0  0  0  0  0  0  0  0  0  0  0  0
   39.3250   25.3320   35.0060 C   0  0  2  0  0  0  0  0  0  0  0  0
   43.4960   21.2790   35.7570 H   0  0  0  0  0  0  0  0  0  0  0  0
   42.8140   23.3930   34.5890 H   0  0  0  0  0  0  0  0  0  0  0  0
   40.0890   21.5580   38.2450 H   0  0  0  0  0  0  0  0  0  0  0  0
   41.8580   25.2940   33.5830 H   0  0  0  0  0  0  0  0  0  0  0  0
   42.4320   25.9760   35.1530 H   0  0  0  0  0  0  0  0  0  0  0  0
   40.3890   27.0580   33.1700 H   0  0  0  0  0  0  0  0  0  0  0  0
   41.2740   27.8940   34.5300 H   0  0  0  0  0  0  0  0  0  0  0  0
   39.9080   27.0000   36.1650 H   0  0  0  0  0  0  0  0  0  0  0  0
   38.6860   27.4360   34.8790 H   0  0  0  0  0  0  0  0  0  0  0  0
   38.2650   24.8330   35.9240 C   0  0  0  0  0  0  0  0  0  0  0  0
   37.1630   25.6570   35.7330 F   0  0  0  0  0  0  0  0  0  0  0  0
   38.5440   24.8460   37.2490 F   0  0  0  0  0  0  0  0  0  0  0  0
   37.8500   23.6030   35.4200 F   0  0  0  0  0  0  0  0  0  0  0  0
   38.9040   24.9330   33.6070 C   0  0  0  0  0  2  0  0  0  0  0  0
   37.9000   25.8090   32.9770 C   0  0  0  0  0  2  0  0  0  0  0  0
   36.8530   25.5460   33.2450 H   0  0  0  0  0  0  0  0  0  0  0  0
  1  6  1  0  0  0  0
  2  3  1  0  0  0  0
  2  1  2  0  0  0  0
  3  4  2  0  0  0  0
  4  5  1  0  0  0  0
  5 14  1  0  0  0  0
  6  5  2  0  0  0  0
  7  3  1  0  0  0  0
  8 16  1  0  0  0  0
  8  7  1  0  0  0  0
  9 18  1  0  0  0  0
  9  8  1  0  0  0  0
  9 10  1  0  0  0  0
 10 19  1  0  0  0  0
 11 25  1  6  0  0  0
 11 10  1  0  0  0  0
 11  7  1  0  0  0  0
 11 21  1  0  0  0  0
 12  1  1  0  0  0  0
 13  2  1  0  0  0  0
 15  8  1  0  0  0  0
 17  9  1  0  0  0  0
 20 10  1  0  0  0  0
 21 23  1  0  0  0  0
 22 21  1  0  0  0  0
 24 21  1  0  0  0  0
 26 27  1  0  0  0  0
 26 25  1  0  0  0  0
M  END
>  <minimizedAffinity>
-4.34867907

$$$$

 OpenBabel03272507253D

 27 28  0  0  1  0  0  0  0  0999 V2000
   35.8480   24.5970   30.9180 C   0  0  0  0  0  0  0  0  0  0  0  0
   36.6950   24.1180   31.9270 C   0  0  0  0  0  0  0  0  0  0  0  0
   37.1770   25.0240   32.8850 C   0  0  0  0  0  0  0  0  0  0  0  0
   36.8000   26.3160   32.7890 N   0  0  0  0  0  0  0  0  0  0  0  0
   35.9780   26.7610   31.8030 C   0  0  0  0  0  0  0  0  0  0  0  0
   35.5100   25.8990   30.8790 N   0  0  0  0  0  0  0  0  0  0  0  0
   38.0360   24.6010   33.9250 N   0  0  0  0  0  0  0  0  0  0  0  0
   38.0320   23.2420   34.4780 C   0  0  0  0  0  0  0  0  0  0  0  0
   38.9170   23.2890   35.6870 C   0  0  0  0  0  0  0  0  0  0  0  0
   38.9090   24.7410   36.0130 C   0  0  0  0  0  0  0  0  0  0  0  0
   39.0260   25.3250   34.6180 C   0  0  2  0  0  0  0  0  0  0  0  0
   35.4720   23.9040   30.1760 H   0  0  0  0  0  0  0  0  0  0  0  0
   36.9910   23.0730   31.9930 H   0  0  0  0  0  0  0  0  0  0  0  0
   35.7060   27.8120   31.7710 H   0  0  0  0  0  0  0  0  0  0  0  0
   38.5370   22.6100   33.7050 H   0  0  0  0  0  0  0  0  0  0  0  0
   37.0220   22.8610   34.6550 H   0  0  0  0  0  0  0  0  0  0  0  0
   39.9340   22.9180   35.5480 H   0  0  0  0  0  0  0  0  0  0  0  0
   38.4010   22.7640   36.5260 H   0  0  0  0  0  0  0  0  0  0  0  0
   37.9120   25.0180   36.3870 H   0  0  0  0  0  0  0  0  0  0  0  0
   39.7120   25.0630   36.6950 H   0  0  0  0  0  0  0  0  0  0  0  0
   38.9360   26.8100   34.6000 C   0  0  0  0  0  0  0  0  0  0  0  0
   39.8350   27.2680   35.5550 F   0  0  0  0  0  0  0  0  0  0  0  0
   37.7320   27.3560   34.8950 F   0  0  0  0  0  0  0  0  0  0  0  0
   39.4940   27.2280   33.3940 F   0  0  0  0  0  0  0  0  0  0  0  0
   40.3380   24.9670   33.9500 C   0  0  0  0  0  2  0  0  0  0  0  0
   41.5280   25.0450   34.8170 C   0  0  0  0  0  2  0  0  0  0  0  0
   41.9660   26.0650   34.8760 H   0  0  0  0  0  0  0  0  0  0  0  0
  1  2  1  0  0  0  0
  2 13  1  0  0  0  0
  2  3  2  0  0  0  0
  3  7  1  0  0  0  0
  4  3  1  0  0  0  0
  5  4  2  0  0  0  0
  6  1  2  0  0  0  0
  6  5  1  0  0  0  0
  7  8  1  0  0  0  0
  7 11  1  0  0  0  0
  8 16  1  0  0  0  0
  8  9  1  0  0  0  0
  9 10  1  0  0  0  0
  9 18  1  0  0  0  0
 10 19  1  0  0  0  0
 10 20  1  0  0  0  0
 11 25  1  6  0  0  0
 11 10  1  0  0  0  0
 12  1  1  0  0  0  0
 14  5  1  0  0  0  0
 15  8  1  0  0  0  0
 17  9  1  0  0  0  0
 21 11  1  0  0  0  0
 21 23  1  0  0  0  0
 21 22  1  0  0  0  0
 24 21  1  0  0  0  0
 25 26  1  0  0  0  0
 26 27  1  0  0  0  0
M  END
>  <minimizedAffinity>
-4.26725054

$$$$

 OpenBabel03272507253D

 27 28  0  0  1  0  0  0  0  0999 V2000
   35.7860   24.3940   31.2100 C   0  0  0  0  0  0  0  0  0  0  0  0
   36.6440   24.9060   32.1940 C   0  0  0  0  0  0  0  0  0  0  0  0
   37.3870   24.0030   32.9710 C   0  0  0  0  0  0  0  0  0  0  0  0
   37.2410   22.6840   32.7330 N   0  0  0  0  0  0  0  0  0  0  0  0
   36.4030   22.2070   31.7740 C   0  0  0  0  0  0  0  0  0  0  0  0
   35.6850   23.0650   31.0240 N   0  0  0  0  0  0  0  0  0  0  0  0
   38.2680   24.4590   33.9780 N   0  0  0  0  0  0  0  0  0  0  0  0
   38.9450   25.7600   33.9360 C   0  0  0  0  0  0  0  0  0  0  0  0
   39.9380   25.7420   35.0600 C   0  0  0  0  0  0  0  0  0  0  0  0
   40.1100   24.2820   35.2890 C   0  0  0  0  0  0  0  0  0  0  0  0
   38.6690   23.8230   35.1700 C   0  0  2  0  0  0  0  0  0  0  0  0
   35.2090   25.0840   30.6070 H   0  0  0  0  0  0  0  0  0  0  0  0
   36.7530   25.9720   32.3750 H   0  0  0  0  0  0  0  0  0  0  0  0
   36.3210   21.1340   31.6250 H   0  0  0  0  0  0  0  0  0  0  0  0
   38.1530   26.5090   34.1890 H   0  0  0  0  0  0  0  0  0  0  0  0
   39.3610   25.9890   32.9520 H   0  0  0  0  0  0  0  0  0  0  0  0
   39.6320   26.2540   35.9740 H   0  0  0  0  0  0  0  0  0  0  0  0
   40.9120   26.1290   34.6790 H   0  0  0  0  0  0  0  0  0  0  0  0
   40.6490   23.8460   34.4340 H   0  0  0  0  0  0  0  0  0  0  0  0
   40.5780   24.0200   36.2510 H   0  0  0  0  0  0  0  0  0  0  0  0
   38.5200   22.3450   35.2490 C   0  0  0  0  0  0  0  0  0  0  0  0
   39.2210   21.9410   36.3790 F   0  0  0  0  0  0  0  0  0  0  0  0
   38.9980   21.6230   34.2080 F   0  0  0  0  0  0  0  0  0  0  0  0
   37.1900   22.0960   35.5790 F   0  0  0  0  0  0  0  0  0  0  0  0
   37.7880   24.4020   36.2580 C   0  0  0  0  0  2  0  0  0  0  0  0
   38.3020   24.2510   37.6320 C   0  0  0  0  0  2  0  0  0  0  0  0
   38.0410   23.2750   38.0970 H   0  0  0  0  0  0  0  0  0  0  0  0
  1  2  1  0  0  0  0
  2 13  1  0  0  0  0
  2  3  2  0  0  0  0
  3  7  1  0  0  0  0
  4  3  1  0  0  0  0
  5  4  2  0  0  0  0
  6  1  2  0  0  0  0
  6  5  1  0  0  0  0
  7 11  1  0  0  0  0
  8  7  1  0  0  0  0
  8 15  1  0  0  0  0
  8  9  1  0  0  0  0
  9 10  1  0  0  0  0
  9 17  1  0  0  0  0
 10 20  1  0  0  0  0
 11 21  1  0  0  0  0
 11 10  1  0  0  0  0
 11 25  1  1  0  0  0
 12  1  1  0  0  0  0
 14  5  1  0  0  0  0
 16  8  1  0  0  0  0
 18  9  1  0  0  0  0
 19 10  1  0  0  0  0
 21 24  1  0  0  0  0
 21 22  1  0  0  0  0
 23 21  1  0  0  0  0
 25 26  1  0  0  0  0
 26 27  1  0  0  0  0
M  END
>  <minimizedAffinity>
-4.21832275

$$$$

 OpenBabel03272507253D

 27 28  0  0  1  0  0  0  0  0999 V2000
   36.0860   29.7140   31.4110 C   0  0  0  0  0  0  0  0  0  0  0  0
   37.0420   28.6910   31.4870 C   0  0  0  0  0  0  0  0  0  0  0  0
   37.1220   27.9340   32.6670 C   0  0  0  0  0  0  0  0  0  0  0  0
   36.2730   28.2270   33.6730 N   0  0  0  0  0  0  0  0  0  0  0  0
   35.3540   29.2240   33.5800 C   0  0  0  0  0  0  0  0  0  0  0  0
   35.2700   29.9570   32.4530 N   0  0  0  0  0  0  0  0  0  0  0  0
   38.0660   26.8900   32.8030 N   0  0  0  0  0  0  0  0  0  0  0  0
   38.5830   26.1120   31.6720 C   0  0  0  0  0  0  0  0  0  0  0  0
   39.3660   24.9840   32.2750 C   0  0  0  0  0  0  0  0  0  0  0  0
   38.7910   24.9130   33.6450 C   0  0  0  0  0  0  0  0  0  0  0  0
   38.6870   26.3920   33.9650 C   0  0  2  0  0  0  0  0  0  0  0  0
   36.0190   30.3020   30.5040 H   0  0  0  0  0  0  0  0  0  0  0  0
   37.7200   28.4640   30.6670 H   0  0  0  0  0  0  0  0  0  0  0  0
   34.6950   29.4200   34.4210 H   0  0  0  0  0  0  0  0  0  0  0  0
   39.3040   26.7930   31.1540 H   0  0  0  0  0  0  0  0  0  0  0  0
   37.8000   25.8110   30.9710 H   0  0  0  0  0  0  0  0  0  0  0  0
   40.4490   25.1190   32.3050 H   0  0  0  0  0  0  0  0  0  0  0  0
   39.0850   24.0380   31.7540 H   0  0  0  0  0  0  0  0  0  0  0  0
   37.7600   24.5330   33.5810 H   0  0  0  0  0  0  0  0  0  0  0  0
   39.3970   24.3470   34.3690 H   0  0  0  0  0  0  0  0  0  0  0  0
   38.0260   26.6600   35.2710 C   0  0  0  0  0  0  0  0  0  0  0  0
   38.6610   25.8490   36.2040 F   0  0  0  0  0  0  0  0  0  0  0  0
   36.7010   26.3980   35.3540 F   0  0  0  0  0  0  0  0  0  0  0  0
   38.3980   27.9490   35.6480 F   0  0  0  0  0  0  0  0  0  0  0  0
   40.0430   27.0660   34.0240 C   0  0  0  0  0  2  0  0  0  0  0  0
   41.1000   26.2960   34.7060 C   0  0  0  0  0  2  0  0  0  0  0  0
   41.1080   26.4370   35.8080 H   0  0  0  0  0  0  0  0  0  0  0  0
  1  2  2  0  0  0  0
  1  6  1  0  0  0  0
  2  3  1  0  0  0  0
  3  7  1  0  0  0  0
  3  4  2  0  0  0  0
  5  4  1  0  0  0  0
  5 14  1  0  0  0  0
  6  5  2  0  0  0  0
  7 11  1  0  0  0  0
  8  9  1  0  0  0  0
  8  7  1  0  0  0  0
  9 17  1  0  0  0  0
  9 10  1  0  0  0  0
 10 11  1  0  0  0  0
 10 20  1  0  0  0  0
 11 25  1  1  0  0  0
 11 21  1  0  0  0  0
 12  1  1  0  0  0  0
 13  2  1  0  0  0  0
 15  8  1  0  0  0  0
 16  8  1  0  0  0  0
 18  9  1  0  0  0  0
 19 10  1  0  0  0  0
 21 23  1  0  0  0  0
 21 24  1  0  0  0  0
 21 22  1  0  0  0  0
 25 26  1  0  0  0  0
 26 27  1  0  0  0  0
M  END
>  <minimizedAffinity>
-4.20727301

$$$$

 OpenBabel03272507253D

 27 28  0  0  1  0  0  0  0  0999 V2000
   37.9520   24.0490   38.2660 C   0  0  0  0  0  0  0  0  0  0  0  0
   37.9760   24.7230   37.0380 C   0  0  0  0  0  0  0  0  0  0  0  0
   38.9850   24.4010   36.1150 C   0  0  0  0  0  0  0  0  0  0  0  0
   39.8840   23.4560   36.4570 N   0  0  0  0  0  0  0  0  0  0  0  0
   39.8440   22.8130   37.6540 C   0  0  0  0  0  0  0  0  0  0  0  0
   38.8800   23.1160   38.5460 N   0  0  0  0  0  0  0  0  0  0  0  0
   39.0620   25.0470   34.8600 N   0  0  0  0  0  0  0  0  0  0  0  0
   37.8960   25.5960   34.1580 C   0  0  0  0  0  0  0  0  0  0  0  0
   38.3840   25.9780   32.7920 C   0  0  0  0  0  0  0  0  0  0  0  0
   39.6070   25.1410   32.6610 C   0  0  0  0  0  0  0  0  0  0  0  0
   40.1880   25.3030   34.0540 C   0  0  2  0  0  0  0  0  0  0  0  0
   37.1770   24.2930   38.9830 H   0  0  0  0  0  0  0  0  0  0  0  0
   37.2440   25.4840   36.7750 H   0  0  0  0  0  0  0  0  0  0  0  0
   40.5930   22.0600   37.8790 H   0  0  0  0  0  0  0  0  0  0  0  0
   37.6390   26.5360   34.7070 H   0  0  0  0  0  0  0  0  0  0  0  0
   37.0370   24.9200   34.1720 H   0  0  0  0  0  0  0  0  0  0  0  0
   38.6080   27.0360   32.6460 H   0  0  0  0  0  0  0  0  0  0  0  0
   37.6520   25.6050   32.0370 H   0  0  0  0  0  0  0  0  0  0  0  0
   39.3110   24.0860   32.5660 H   0  0  0  0  0  0  0  0  0  0  0  0
   40.2940   25.4530   31.8590 H   0  0  0  0  0  0  0  0  0  0  0  0
   41.4020   24.4720   34.2780 C   0  0  0  0  0  0  0  0  0  0  0  0
   42.2570   24.7340   33.2150 F   0  0  0  0  0  0  0  0  0  0  0  0
   41.2280   23.1300   34.3240 F   0  0  0  0  0  0  0  0  0  0  0  0
   42.0620   25.0200   35.3750 F   0  0  0  0  0  0  0  0  0  0  0  0
   40.5870   26.7340   34.3500 C   0  0  0  0  0  2  0  0  0  0  0  0
   41.3200   27.4210   33.2700 C   0  0  0  0  0  2  0  0  0  0  0  0
   42.4150   27.2300   33.2880 H   0  0  0  0  0  0  0  0  0  0  0  0
  1  6  1  0  0  0  0
  1 12  1  0  0  0  0
  2  1  2  0  0  0  0
  3  4  2  0  0  0  0
  3  2  1  0  0  0  0
  4  5  1  0  0  0  0
  5 14  1  0  0  0  0
  5  6  2  0  0  0  0
  7  3  1  0  0  0  0
  8 16  1  0  0  0  0
  8 15  1  0  0  0  0
  8  7  1  0  0  0  0
  9  8  1  0  0  0  0
 10  9  1  0  0  0  0
 10 11  1  0  0  0  0
 11 21  1  0  0  0  0
 11 25  1  1  0  0  0
 11  7  1  0  0  0  0
 13  2  1  0  0  0  0
 17  9  1  0  0  0  0
 18  9  1  0  0  0  0
 19 10  1  0  0  0  0
 20 10  1  0  0  0  0
 21 23  1  0  0  0  0
 21 24  1  0  0  0  0
 22 21  1  0  0  0  0
 26 27  1  0  0  0  0
 26 25  1  0  0  0  0
M  END
>  <minimizedAffinity>
-4.1723156

$$$$

 OpenBabel03272507253D

 27 28  0  0  1  0  0  0  0  0999 V2000
   38.4680   22.4250   36.0460 C   0  0  0  0  0  0  0  0  0  0  0  0
   38.5770   23.1520   34.8530 C   0  0  0  0  0  0  0  0  0  0  0  0
   38.4370   24.5490   34.9020 C   0  0  0  0  0  0  0  0  0  0  0  0
   38.2040   25.1250   36.0990 N   0  0  0  0  0  0  0  0  0  0  0  0
   38.1010   24.4020   37.2460 C   0  0  0  0  0  0  0  0  0  0  0  0
   38.2330   23.0620   37.2080 N   0  0  0  0  0  0  0  0  0  0  0  0
   38.5370   25.3350   33.7320 N   0  0  0  0  0  0  0  0  0  0  0  0
   39.3360   24.9520   32.5630 C   0  0  0  0  0  0  0  0  0  0  0  0
   39.3440   26.1510   31.6620 C   0  0  0  0  0  0  0  0  0  0  0  0
   39.0180   27.2480   32.6130 C   0  0  0  0  0  0  0  0  0  0  0  0
   37.9340   26.5730   33.4320 C   0  0  2  0  0  0  0  0  0  0  0  0
   38.5740   21.3480   36.0160 H   0  0  0  0  0  0  0  0  0  0  0  0
   38.7660   22.6740   33.8940 H   0  0  0  0  0  0  0  0  0  0  0  0
   37.9110   24.9170   38.1830 H   0  0  0  0  0  0  0  0  0  0  0  0
   38.7480   24.1460   32.0580 H   0  0  0  0  0  0  0  0  0  0  0  0
   40.3230   24.5670   32.8330 H   0  0  0  0  0  0  0  0  0  0  0  0
   38.6410   26.1250   30.8290 H   0  0  0  0  0  0  0  0  0  0  0  0
   40.3890   26.3250   31.3110 H   0  0  0  0  0  0  0  0  0  0  0  0
   39.8720   27.4020   33.2890 H   0  0  0  0  0  0  0  0  0  0  0  0
   38.6910   28.1860   32.1370 H   0  0  0  0  0  0  0  0  0  0  0  0
   37.4630   27.4060   34.5720 C   0  0  0  0  0  0  0  0  0  0  0  0
   36.9870   28.5890   34.0210 F   0  0  0  0  0  0  0  0  0  0  0  0
   38.3820   27.7450   35.5060 F   0  0  0  0  0  0  0  0  0  0  0  0
   36.3170   26.7890   35.0680 F   0  0  0  0  0  0  0  0  0  0  0  0
   36.7080   26.2420   32.6070 C   0  0  0  0  0  2  0  0  0  0  0  0
   36.2790   27.2930   31.6650 C   0  0  0  0  0  2  0  0  0  0  0  0
   35.6210   28.0590   32.1290 H   0  0  0  0  0  0  0  0  0  0  0  0
  1  6  1  0  0  0  0
  2  3  1  0  0  0  0
  2  1  2  0  0  0  0
  3  4  2  0  0  0  0
  4  5  1  0  0  0  0
  5 14  1  0  0  0  0
  6  5  2  0  0  0  0
  7  3  1  0  0  0  0
  8 16  1  0  0  0  0
  8  7  1  0  0  0  0
  9  8  1  0  0  0  0
  9 10  1  0  0  0  0
 10 19  1  0  0  0  0
 10 11  1  0  0  0  0
 11 25  1  6  0  0  0
 11  7  1  0  0  0  0
 11 21  1  0  0  0  0
 12  1  1  0  0  0  0
 13  2  1  0  0  0  0
 15  8  1  0  0  0  0
 17  9  1  0  0  0  0
 18  9  1  0  0  0  0
 20 10  1  0  0  0  0
 21 24  1  0  0  0  0
 21 23  1  0  0  0  0
 22 21  1  0  0  0  0
 26 27  1  0  0  0  0
 26 25  1  0  0  0  0
M  END
>  <minimizedAffinity>
-4.12439537

$$$$

 OpenBabel03272507253D

 27 28  0  0  1  0  0  0  0  0999 V2000
   35.5200   23.2950   31.1590 C   0  0  0  0  0  0  0  0  0  0  0  0
   36.3070   24.3730   31.5860 C   0  0  0  0  0  0  0  0  0  0  0  0
   37.2880   24.1420   32.5640 C   0  0  0  0  0  0  0  0  0  0  0  0
   37.4270   22.8900   33.0450 N   0  0  0  0  0  0  0  0  0  0  0  0
   36.6530   21.8580   32.6190 C   0  0  0  0  0  0  0  0  0  0  0  0
   35.7090   22.0690   31.6820 N   0  0  0  0  0  0  0  0  0  0  0  0
   38.1120   25.1900   33.0350 N   0  0  0  0  0  0  0  0  0  0  0  0
   38.4720   26.3630   32.2300 C   0  0  0  0  0  0  0  0  0  0  0  0
   39.5200   27.0930   33.0160 C   0  0  0  0  0  0  0  0  0  0  0  0
   40.0340   26.0180   33.9070 C   0  0  0  0  0  0  0  0  0  0  0  0
   38.7290   25.3470   34.2910 C   0  0  2  0  0  0  0  0  0  0  0  0
   34.7610   23.4660   30.4050 H   0  0  0  0  0  0  0  0  0  0  0  0
   36.1850   25.3780   31.1880 H   0  0  0  0  0  0  0  0  0  0  0  0
   36.8060   20.8690   33.0410 H   0  0  0  0  0  0  0  0  0  0  0  0
   37.5510   26.9980   32.2110 H   0  0  0  0  0  0  0  0  0  0  0  0
   38.7550   26.1030   31.2060 H   0  0  0  0  0  0  0  0  0  0  0  0
   39.1720   27.9530   33.5900 H   0  0  0  0  0  0  0  0  0  0  0  0
   40.3530   27.3690   32.3260 H   0  0  0  0  0  0  0  0  0  0  0  0
   40.5960   25.2900   33.3030 H   0  0  0  0  0  0  0  0  0  0  0  0
   40.6160   26.3770   34.7710 H   0  0  0  0  0  0  0  0  0  0  0  0
   38.9240   24.1270   35.1220 C   0  0  0  0  0  0  0  0  0  0  0  0
   39.7810   24.4910   36.1540 F   0  0  0  0  0  0  0  0  0  0  0  0
   39.4730   23.0500   34.5120 F   0  0  0  0  0  0  0  0  0  0  0  0
   37.7130   23.8880   35.7670 F   0  0  0  0  0  0  0  0  0  0  0  0
   37.8190   26.2630   35.0820 C   0  0  0  0  0  2  0  0  0  0  0  0
   38.4980   27.1450   36.0500 C   0  0  0  0  0  2  0  0  0  0  0  0
   38.6810   26.6620   37.0340 H   0  0  0  0  0  0  0  0  0  0  0  0
  1  2  2  0  0  0  0
  1  6  1  0  0  0  0
  2  3  1  0  0  0  0
  3  7  1  0  0  0  0
  3  4  2  0  0  0  0
  5 14  1  0  0  0  0
  5  4  1  0  0  0  0
  6  5  2  0  0  0  0
  7 11  1  0  0  0  0
  8  9  1  0  0  0  0
  8  7  1  0  0  0  0
  9 17  1  0  0  0  0
  9 10  1  0  0  0  0
 10 11  1  0  0  0  0
 10 20  1  0  0  0  0
 11 25  1  1  0  0  0
 11 21  1  0  0  0  0
 12  1  1  0  0  0  0
 13  2  1  0  0  0  0
 15  8  1  0  0  0  0
 16  8  1  0  0  0  0
 18  9  1  0  0  0  0
 19 10  1  0  0  0  0
 21 24  1  0  0  0  0
 21 22  1  0  0  0  0
 23 21  1  0  0  0  0
 25 26  1  0  0  0  0
 26 27  1  0  0  0  0
M  END
>  <minimizedAffinity>
-4.11422396

$$$$
