
 OpenBabel03272508043D

 29 31  0  0  0  0  0  0  0  0999 V2000
   38.9030   30.9010   45.7890 C   0  0  0  0  0  0  0  0  0  0  0  0
   40.0910   31.5280   46.0500 C   0  0  0  0  0  0  0  0  0  0  0  0
   40.9480   31.4750   44.9430 C   0  0  0  0  0  0  0  0  0  0  0  0
   40.1990   30.7930   44.0420 N   0  0  0  0  0  0  0  0  0  0  0  0
   39.0210   30.4570   44.5150 N   0  0  0  0  0  0  0  0  0  0  0  0
   40.3800   32.0170   46.9800 H   0  0  0  0  0  0  0  0  0  0  0  0
   41.9300   31.8450   44.7810 H   0  0  0  0  0  0  0  0  0  0  0  0
   37.7650   30.7430   46.6750 C   0  0  0  0  0  0  0  0  0  0  0  0
   37.9820   30.9650   48.0640 C   0  0  0  0  0  0  0  0  0  0  0  0
   36.8910   30.8140   48.9140 C   0  0  0  0  0  0  0  0  0  0  0  0
   35.6880   30.4620   48.3680 N   0  0  0  0  0  0  0  0  0  0  0  0
   35.5140   30.2570   47.0400 C   0  0  0  0  0  0  0  0  0  0  0  0
   36.5660   30.4030   46.2070 N   0  0  0  0  0  0  0  0  0  0  0  0
   38.9570   31.2370   48.3970 H   0  0  0  0  0  0  0  0  0  0  0  0
   34.5270   29.9810   46.6870 H   0  0  0  0  0  0  0  0  0  0  0  0
   37.0790   31.0380   50.3760 C   0  0  0  0  0  0  0  0  0  0  0  0
   36.5580   32.2850   50.6260 F   0  0  0  0  0  0  0  0  0  0  0  0
   36.3900   30.1000   51.1440 F   0  0  0  0  0  0  0  0  0  0  0  0
   38.4270   31.0240   50.7240 F   0  0  0  0  0  0  0  0  0  0  0  0
   40.5610   30.4230   42.6680 C   0  0  0  0  0  0  0  0  0  0  0  0
   40.1840   31.2230   41.5750 C   0  0  0  0  0  0  0  0  0  0  0  0
   40.5540   30.8300   40.3190 C   0  0  0  0  0  0  0  0  0  0  0  0
   41.3010   29.6330   40.1540 C   0  0  0  0  0  0  0  0  0  0  0  0
   41.4900   29.0310   41.9040 S   0  0  0  0  0  0  0  0  0  0  0  0
   39.6150   32.1360   41.6810 H   0  0  0  0  0  0  0  0  0  0  0  0
   40.3510   31.3210   39.3820 H   0  0  0  0  0  0  0  0  0  0  0  0
   41.8380   28.9350   39.0660 C   0  0  0  0  0  2  0  0  0  0  0  0
   43.1290   29.6190   38.5990 C   0  0  0  0  0  2  0  0  0  0  0  0
   43.6000   30.0940   39.4840 H   0  0  0  0  0  0  0  0  0  0  0  0
  1  2  1  0  0  0  0
  1  8  1  0  0  0  0
  2  6  1  0  0  0  0
  3  2  2  0  0  0  0
  4  5  1  0  0  0  0
  4  3  1  0  0  0  0
  5  1  2  0  0  0  0
  7  3  1  0  0  0  0
  8  9  1  0  0  0  0
  9 14  1  0  0  0  0
  9 10  2  0  0  0  0
 10 16  1  0  0  0  0
 11 10  1  0  0  0  0
 12 11  2  0  0  0  0
 13  8  2  0  0  0  0
 13 12  1  0  0  0  0
 15 12  1  0  0  0  0
 16 17  1  0  0  0  0
 16 19  1  0  0  0  0
 16 18  1  0  0  0  0
 20  4  1  0  0  0  0
 21 25  1  0  0  0  0
 21 20  2  0  0  0  0
 22 21  1  0  0  0  0
 23 22  2  0  0  0  0
 23 24  1  0  0  0  0
 24 20  1  0  0  0  0
 26 22  1  0  0  0  0
 27 23  1  0  0  0  0
 28 27  1  0  0  0  0
 28 29  1  0  0  0  0
M  END
>  <minimizedAffinity>
-5.96694946

>  <minimizedRMSD>
0.151016518

$$$$
