
 OpenBabel03272509003D

 22 23  0  0  0  0  0  0  0  0999 V2000
   38.1040   31.5880   48.7620 Cl  0  0  0  0  0  0  0  0  0  0  0  0
   36.9660   30.9040   47.6340 C   0  0  0  0  0  0  0  0  0  0  0  0
   37.2700   30.9220   46.2840 C   0  0  0  0  0  0  0  0  0  0  0  0
   36.3990   30.3960   45.3620 C   0  0  0  0  0  0  0  0  0  0  0  0
   35.1970   29.8370   45.7570 C   0  0  0  0  0  0  0  0  0  0  0  0
   34.8750   29.8090   47.1060 C   0  0  0  0  0  0  0  0  0  0  0  0
   33.3890   29.1270   47.7310 Cl  0  0  0  0  0  0  0  0  0  0  0  0
   35.7750   30.3470   48.0020 C   0  0  0  0  0  0  0  0  0  0  0  0
   36.6140   30.3980   44.2990 H   0  0  0  0  0  0  0  0  0  0  0  0
   34.4960   29.4160   45.0510 H   0  0  0  0  0  0  0  0  0  0  0  0
   39.7270   33.2860   44.9300 C   0  0  0  0  0  0  0  0  0  0  0  0
   40.9190   32.5660   44.9880 C   0  0  0  0  0  0  0  0  0  0  0  0
   40.8600   31.2460   45.5030 C   0  0  0  0  0  0  0  0  0  0  0  0
   39.6490   30.7610   45.9080 N   0  0  0  0  0  0  0  0  0  0  0  0
   38.5240   31.5040   45.8290 C   0  0  0  0  0  0  0  0  0  0  0  0
   38.5730   32.7570   45.3430 N   0  0  0  0  0  0  0  0  0  0  0  0
   39.7340   34.2950   44.5470 H   0  0  0  0  0  0  0  0  0  0  0  0
   41.8200   33.0120   44.6540 H   0  0  0  0  0  0  0  0  0  0  0  0
   41.7690   30.6620   45.5580 H   0  0  0  0  0  0  0  0  0  0  0  0
   35.5230   30.3690   49.4870 C   0  0  0  0  0  2  0  0  0  0  0  0
   36.0180   29.1040   50.1550 C   0  0  0  0  0  2  0  0  0  0  0  0
   35.1260   28.5970   50.6260 H   0  0  0  0  0  0  0  0  0  0  0  0
  2  8  1  0  0  0  0
  2  1  1  0  0  0  0
  3  2  2  0  0  0  0
  4  5  2  0  0  0  0
  4  3  1  0  0  0  0
  5  6  1  0  0  0  0
  6  7  1  0  0  0  0
  6  8  2  0  0  0  0
  8 20  1  0  0  0  0
  9  4  1  0  0  0  0
 10  5  1  0  0  0  0
 11 12  2  0  0  0  0
 11 16  1  0  0  0  0
 12 13  1  0  0  0  0
 13 19  1  0  0  0  0
 13 14  2  0  0  0  0
 15 14  1  0  0  0  0
 15  3  1  0  0  0  0
 16 15  2  0  0  0  0
 17 11  1  0  0  0  0
 18 12  1  0  0  0  0
 20 21  1  0  0  0  0
 21 22  1  0  0  0  0
M  END
>  <minimizedAffinity>
-5.2659688

>  <minimizedRMSD>
3.14181972

$$$$
