
 OpenBabel03272507253D

 27 28  0  0  1  0  0  0  0  0999 V2000
   36.8580   30.0330   49.2270 C   0  0  0  0  0  0  0  0  0  0  0  0
   37.8290   30.6920   48.4610 C   0  0  0  0  0  0  0  0  0  0  0  0
   37.5520   30.9570   47.1090 C   0  0  0  0  0  0  0  0  0  0  0  0
   36.3610   30.5640   46.6130 N   0  0  0  0  0  0  0  0  0  0  0  0
   35.4320   29.9250   47.3730 C   0  0  0  0  0  0  0  0  0  0  0  0
   35.6890   29.6660   48.6700 N   0  0  0  0  0  0  0  0  0  0  0  0
   38.4920   31.6180   46.2860 N   0  0  0  0  0  0  0  0  0  0  0  0
   39.4810   32.5750   46.7920 C   0  0  0  0  0  0  0  0  0  0  0  0
   40.1090   33.1940   45.5790 C   0  0  0  0  0  0  0  0  0  0  0  0
   39.0770   32.9390   44.5390 C   0  0  0  0  0  0  0  0  0  0  0  0
   38.6890   31.5160   44.8950 C   0  0  2  0  0  0  0  0  0  0  0  0
   37.0650   29.8250   50.2700 H   0  0  0  0  0  0  0  0  0  0  0  0
   38.7850   31.0040   48.8740 H   0  0  0  0  0  0  0  0  0  0  0  0
   34.4890   29.6290   46.9230 H   0  0  0  0  0  0  0  0  0  0  0  0
   40.2580   31.9510   47.3010 H   0  0  0  0  0  0  0  0  0  0  0  0
   39.0570   33.2840   47.5080 H   0  0  0  0  0  0  0  0  0  0  0  0
   41.0780   32.7880   45.2850 H   0  0  0  0  0  0  0  0  0  0  0  0
   40.1550   34.2990   45.7280 H   0  0  0  0  0  0  0  0  0  0  0  0
   38.1960   33.5660   44.7470 H   0  0  0  0  0  0  0  0  0  0  0  0
   39.4310   33.0530   43.5020 H   0  0  0  0  0  0  0  0  0  0  0  0
   37.5620   30.9970   44.0730 C   0  0  0  0  0  0  0  0  0  0  0  0
   36.4500   31.7590   44.4100 F   0  0  0  0  0  0  0  0  0  0  0  0
   37.2210   29.6990   44.2490 F   0  0  0  0  0  0  0  0  0  0  0  0
   37.8270   31.3650   42.7560 F   0  0  0  0  0  0  0  0  0  0  0  0
   39.8350   30.5430   44.7140 C   0  0  0  0  0  0  0  0  0  0  0  0
   40.5370   30.6280   43.4190 C   0  0  0  0  0  0  0  0  0  0  0  0
   40.0520   30.0330   42.6150 H   0  0  0  0  0  0  0  0  0  0  0  0
  1 12  1  0  0  0  0
  2 13  1  0  0  0  0
  2  1  2  0  0  0  0
  3  2  1  0  0  0  0
  4  3  2  0  0  0  0
  4  5  1  0  0  0  0
  5  6  2  0  0  0  0
  6  1  1  0  0  0  0
  7  8  1  0  0  0  0
  7  3  1  0  0  0  0
  8 15  1  0  0  0  0
  8 16  1  0  0  0  0
  9 18  1  0  0  0  0
  9  8  1  0  0  0  0
 10 19  1  0  0  0  0
 10 11  1  0  0  0  0
 10  9  1  0  0  0  0
 11 25  1  6  0  0  0
 11  7  1  0  0  0  0
 14  5  1  0  0  0  0
 17  9  1  0  0  0  0
 20 10  1  0  0  0  0
 21 23  1  0  0  0  0
 21 22  1  0  0  0  0
 21 11  1  0  0  0  0
 24 21  1  0  0  0  0
 26 25  1  0  0  0  0
 27 26  1  0  0  0  0
M  END
>  <minimizedAffinity>
-4.55701542

>  <minimizedRMSD>
2.8020215

$$$$
