
 OpenBabel03272509003D

 22 23  0  0  0  0  0  0  0  0999 V2000
   37.7140   30.0700   49.3190 Cl  0  0  0  0  0  0  0  0  0  0  0  0
   36.4750   29.8930   48.1070 C   0  0  0  0  0  0  0  0  0  0  0  0
   36.7020   30.4030   46.8410 C   0  0  0  0  0  0  0  0  0  0  0  0
   35.7510   30.2880   45.8580 C   0  0  0  0  0  0  0  0  0  0  0  0
   34.5420   29.6620   46.1070 C   0  0  0  0  0  0  0  0  0  0  0  0
   34.2970   29.1430   47.3700 C   0  0  0  0  0  0  0  0  0  0  0  0
   32.8120   28.3280   47.8090 Cl  0  0  0  0  0  0  0  0  0  0  0  0
   35.2760   29.2790   48.3310 C   0  0  0  0  0  0  0  0  0  0  0  0
   35.9040   30.6780   44.8580 H   0  0  0  0  0  0  0  0  0  0  0  0
   33.7790   29.5580   45.3500 H   0  0  0  0  0  0  0  0  0  0  0  0
   39.3790   32.9090   46.7330 C   0  0  0  0  0  0  0  0  0  0  0  0
   40.3550   32.2910   45.9540 C   0  0  0  0  0  0  0  0  0  0  0  0
   40.0730   30.9900   45.4640 C   0  0  0  0  0  0  0  0  0  0  0  0
   38.8710   30.4250   45.7810 N   0  0  0  0  0  0  0  0  0  0  0  0
   37.9600   31.0710   46.5410 C   0  0  0  0  0  0  0  0  0  0  0  0
   38.2220   32.3040   47.0090 N   0  0  0  0  0  0  0  0  0  0  0  0
   39.5600   33.8980   47.1260 H   0  0  0  0  0  0  0  0  0  0  0  0
   41.2650   32.7960   45.7510 H   0  0  0  0  0  0  0  0  0  0  0  0
   40.8110   30.4860   44.8550 H   0  0  0  0  0  0  0  0  0  0  0  0
   35.1120   28.7550   49.7340 C   0  0  0  0  0  2  0  0  0  0  0  0
   34.3200   29.7150   50.5970 C   0  0  0  0  0  2  0  0  0  0  0  0
   34.9880   30.0400   51.4470 H   0  0  0  0  0  0  0  0  0  0  0  0
  2  8  1  0  0  0  0
  2  1  1  0  0  0  0
  3  2  2  0  0  0  0
  4  5  2  0  0  0  0
  4  3  1  0  0  0  0
  5  6  1  0  0  0  0
  6  7  1  0  0  0  0
  6  8  2  0  0  0  0
  8 20  1  0  0  0  0
  9  4  1  0  0  0  0
 10  5  1  0  0  0  0
 11 16  1  0  0  0  0
 11 17  1  0  0  0  0
 12 11  2  0  0  0  0
 13 14  2  0  0  0  0
 13 12  1  0  0  0  0
 14 15  1  0  0  0  0
 15  3  1  0  0  0  0
 15 16  2  0  0  0  0
 18 12  1  0  0  0  0
 19 13  1  0  0  0  0
 20 21  1  0  0  0  0
 21 22  1  0  0  0  0
M  END
>  <minimizedAffinity>
-4.77715969

>  <minimizedRMSD>
2.11371994

$$$$
