
 OpenBabel03272510303D

 29 31  0  0  0  0  0  0  0  0999 V2000
   37.4890   31.4510   49.4740 C   0  0  0  0  0  0  0  0  0  0  0  0
   37.9430   32.7530   49.6850 C   0  0  0  0  0  0  0  0  0  0  0  0
   38.6990   33.2870   48.6760 C   0  0  0  0  0  0  0  0  0  0  0  0
   38.9760   32.5600   47.5360 N   0  0  0  0  0  0  0  0  0  0  0  0
   38.5000   31.2790   47.3800 C   0  0  0  0  0  0  0  0  0  0  0  0
   37.7520   30.7430   48.3770 N   0  0  0  0  0  0  0  0  0  0  0  0
   37.6990   33.2800   50.5960 H   0  0  0  0  0  0  0  0  0  0  0  0
   39.0920   34.2930   48.7590 H   0  0  0  0  0  0  0  0  0  0  0  0
   36.6240   30.8140   50.5330 C   0  0  0  0  0  0  0  0  0  0  0  0
   36.4740   29.3880   50.6790 C   0  0  0  0  0  0  0  0  0  0  0  0
   37.4540   30.0890   51.5980 C   0  0  0  0  0  0  0  0  0  0  0  0
   35.8320   31.4980   50.9210 H   0  0  0  0  0  0  0  0  0  0  0  0
   37.0210   28.7470   49.9240 H   0  0  0  0  0  0  0  0  0  0  0  0
   35.5670   28.9770   51.1290 H   0  0  0  0  0  0  0  0  0  0  0  0
   38.5320   29.9960   51.4520 H   0  0  0  0  0  0  0  0  0  0  0  0
   37.1410   30.3120   52.6200 H   0  0  0  0  0  0  0  0  0  0  0  0
   38.7690   30.5090   46.1790 C   0  0  0  0  0  0  0  0  0  0  0  0
   38.9430   29.4500   46.4370 H   0  0  0  0  0  0  0  0  0  0  0  0
   39.7080   30.9030   45.6990 H   0  0  0  0  0  0  0  0  0  0  0  0
   37.9450   30.9220   43.8530 C   0  0  0  0  0  0  0  0  0  0  0  0
   37.6690   30.5980   45.1590 C   0  0  0  0  0  0  0  0  0  0  0  0
   36.3450   30.3390   45.5290 C   0  0  0  0  0  0  0  0  0  0  0  0
   36.0860   30.0790   46.5510 H   0  0  0  0  0  0  0  0  0  0  0  0
   35.3530   30.4160   44.5760 C   0  0  0  0  0  0  0  0  0  0  0  0
   34.2920   30.2280   44.7850 H   0  0  0  0  0  0  0  0  0  0  0  0
   35.6260   30.7410   43.2680 C   0  0  0  0  0  3  0  0  0  0  0  0
   36.9300   30.9990   42.8920 C   0  0  0  0  0  3  0  0  0  0  0  0
   40.3610   31.4410   43.0320 N   0  0  0  0  0  0  0  0  0  0  0  0
   39.2850   31.2140   43.3890 C   0  0  0  0  0  0  0  0  0  0  0  0
  1  2  1  0  0  0  0
  1  9  1  0  0  0  0
  2  7  1  0  0  0  0
  3  8  1  0  0  0  0
  3  2  2  0  0  0  0
  4  3  1  0  0  0  0
  5  4  2  0  0  0  0
  5  6  1  0  0  0  0
  6  1  2  0  0  0  0
  9 10  1  0  0  0  0
  9 12  1  0  0  0  0
  9 11  1  0  0  0  0
 10 14  1  0  0  0  0
 10 11  1  0  0  0  0
 11 16  1  0  0  0  0
 13 10  1  0  0  0  0
 15 11  1  0  0  0  0
 17 18  1  0  0  0  0
 17  5  1  0  0  0  0
 19 17  1  0  0  0  0
 20 21  1  0  0  0  0
 21 22  2  0  0  0  0
 21 17  1  0  0  0  0
 22 23  1  0  0  0  0
 24 25  1  0  0  0  0
 24 22  1  0  0  0  0
 26 24  2  0  0  0  0
 27 26  1  0  0  0  0
 27 20  2  0  0  0  0
 28 29  3  0  0  0  0
 29 20  1  0  0  0  0
M  END
>  <minimizedAffinity>
-5.08264446

>  <minimizedRMSD>
0.870542228

$$$$
