
 OpenBabel03272510243D

 33 36  0  0  0  0  0  0  0  0999 V2000
   34.7800   29.3150   47.6420 C   0  0  0  0  0  0  0  0  0  0  0  0
   35.9710   30.0120   47.8630 C   0  0  0  0  0  0  0  0  0  0  0  0
   36.6370   30.6610   46.8230 C   0  0  0  0  0  0  0  0  0  0  0  0
   36.0310   30.5620   45.5660 C   0  0  0  0  0  0  0  0  0  0  0  0
   36.4750   31.1020   44.3970 N   0  0  0  0  0  0  0  0  0  0  0  0
   35.5850   30.7520   43.4600 C   0  0  0  0  0  0  0  0  0  0  0  0
   34.6080   30.0250   43.9800 N   0  0  0  0  0  0  0  0  0  0  0  0
   34.8590   29.8860   45.3060 C   0  0  0  0  0  0  0  0  0  0  0  0
   34.2200   29.2480   46.3720 C   0  0  0  0  0  0  0  0  0  0  0  0
   34.2520   28.8050   48.4430 H   0  0  0  0  0  0  0  0  0  0  0  0
   37.5480   31.1960   46.9830 H   0  0  0  0  0  0  0  0  0  0  0  0
   37.3570   31.6800   44.2760 H   0  0  0  0  0  0  0  0  0  0  0  0
   33.3160   28.7270   46.1700 H   0  0  0  0  0  0  0  0  0  0  0  0
   38.0800   30.5600   50.9360 C   0  0  0  0  0  0  0  0  0  0  0  0
   37.6970   30.6040   49.6000 C   0  0  0  0  0  0  0  0  0  0  0  0
   36.4990   30.0390   49.2220 C   0  0  0  0  0  0  0  0  0  0  0  0
   35.7380   29.4530   50.1960 N   0  0  0  0  0  0  0  0  0  0  0  0
   36.1200   29.4140   51.4880 C   0  0  0  0  0  0  0  0  0  0  0  0
   37.2840   29.9670   51.8490 N   0  0  0  0  0  0  0  0  0  0  0  0
   39.0390   31.0380   51.1020 H   0  0  0  0  0  0  0  0  0  0  0  0
   38.2880   31.0650   48.8120 H   0  0  0  0  0  0  0  0  0  0  0  0
   35.5170   28.9510   52.2580 H   0  0  0  0  0  0  0  0  0  0  0  0
   35.7370   31.1440   42.1350 O   0  0  0  0  0  0  0  0  0  0  0  0
   36.1470   33.4060   41.3680 C   0  0  0  0  0  0  0  0  0  0  0  0
   35.3020   32.3310   41.6140 C   0  0  0  0  0  0  0  0  0  0  0  0
   33.9850   32.5800   41.2830 C   0  0  0  0  0  0  0  0  0  0  0  0
   33.2730   31.7610   41.4580 H   0  0  0  0  0  0  0  0  0  0  0  0
   33.5090   33.7620   40.7570 C   0  0  0  0  0  0  0  0  0  0  0  0
   32.4450   33.8230   40.5420 H   0  0  0  0  0  0  0  0  0  0  0  0
   34.4010   34.7860   40.5390 C   0  0  0  0  0  3  0  0  0  0  0  0
   35.7290   34.6110   40.8440 C   0  0  0  0  0  3  0  0  0  0  0  0
   38.6770   33.1850   41.9240 N   0  0  0  0  0  0  0  0  0  0  0  0
   37.5540   33.2830   41.6690 C   0  0  0  0  0  0  0  0  0  0  0  0
  1  2  1  0  0  0  0
  1 10  1  0  0  0  0
  2 16  1  0  0  0  0
  3 11  1  0  0  0  0
  3  2  2  0  0  0  0
  4  3  1  0  0  0  0
  5  4  1  0  0  0  0
  6  7  2  0  0  0  0
  6  5  1  0  0  0  0
  7  8  1  0  0  0  0
  8  4  2  0  0  0  0
  8  9  1  0  0  0  0
  9  1  2  0  0  0  0
 12  5  1  0  0  0  0
 13  9  1  0  0  0  0
 14 20  1  0  0  0  0
 14 19  1  0  0  0  0
 15 14  2  0  0  0  0
 16 15  1  0  0  0  0
 16 17  2  0  0  0  0
 17 18  1  0  0  0  0
 18 19  2  0  0  0  0
 18 22  1  0  0  0  0
 21 15  1  0  0  0  0
 23  6  1  0  0  0  0
 24 25  1  0  0  0  0
 24 33  1  0  0  0  0
 25 23  1  0  0  0  0
 26 27  1  0  0  0  0
 26 25  2  0  0  0  0
 28 26  1  0  0  0  0
 29 28  1  0  0  0  0
 30 28  2  0  0  0  0
 30 31  1  0  0  0  0
 31 24  2  0  0  0  0
 33 32  3  0  0  0  0
M  END
>  <minimizedAffinity>
-4.79828739

>  <minimizedRMSD>
4.22167206

$$$$
