
 OpenBabel03272501573D

 32 34  0  0  0  0  0  0  0  0999 V2000
   32.5650   28.0990   47.8770 C   0  0  0  0  0  0  0  0  0  0  0  0
   32.2190   26.8450   48.2940 C   0  0  0  0  0  0  0  0  0  0  0  0
   30.9080   26.5800   47.9780 C   0  0  0  0  0  0  0  0  0  0  0  0
   30.4710   27.6960   47.3640 N   0  0  0  0  0  0  0  0  0  0  0  0
   31.4620   28.5950   47.3070 N   0  0  0  0  0  0  0  0  0  0  0  0
   32.8800   26.1350   48.8090 H   0  0  0  0  0  0  0  0  0  0  0  0
   30.2870   25.7100   48.1440 H   0  0  0  0  0  0  0  0  0  0  0  0
   28.1870   28.6170   47.5260 C   0  0  0  0  0  0  0  0  0  0  0  0
   29.1970   28.0300   46.8090 C   0  0  0  0  0  0  0  0  0  0  0  0
   28.9240   27.7590   45.4640 C   0  0  0  0  0  0  0  0  0  0  0  0
   29.7350   27.2950   44.9160 H   0  0  0  0  0  0  0  0  0  0  0  0
   27.7330   28.0380   44.8260 C   0  0  0  0  0  0  0  0  0  0  0  0
   27.6730   27.7690   43.7800 H   0  0  0  0  0  0  0  0  0  0  0  0
   26.7340   28.6300   45.5810 C   0  0  0  0  0  3  0  0  0  0  0  0
   26.9820   28.9100   46.9260 C   0  0  0  0  0  3  0  0  0  0  0  0
   28.5170   29.1870   50.0040 N   0  0  0  0  0  0  0  0  0  0  0  0
   28.3780   28.9240   48.8930 C   0  0  0  0  0  0  0  0  0  0  0  0
   33.9060   28.7750   48.0270 C   0  0  0  0  0  0  0  0  0  0  0  0
   33.7330   29.8490   48.0370 H   0  0  0  0  0  0  0  0  0  0  0  0
   34.5380   28.4860   47.1650 H   0  0  0  0  0  0  0  0  0  0  0  0
   34.4590   28.2890   49.3420 C   0  0  0  0  0  0  0  0  0  0  0  0
   34.8210   27.2350   49.2490 H   0  0  0  0  0  0  0  0  0  0  0  0
   33.7140   28.2800   50.1650 H   0  0  0  0  0  0  0  0  0  0  0  0
   37.0540   30.0540   51.2920 C   0  0  0  0  0  0  0  0  0  0  0  0
   37.8880   30.5690   50.2860 C   0  0  0  0  0  0  0  0  0  0  0  0
   37.5500   30.3050   48.9560 C   0  0  0  0  0  0  0  0  0  0  0  0
   36.4380   29.5670   48.6950 N   0  0  0  0  0  0  0  0  0  0  0  0
   35.6630   29.0900   49.7030 C   0  0  0  0  0  0  0  0  0  0  0  0
   35.9790   29.3380   50.9740 N   0  0  0  0  0  0  0  0  0  0  0  0
   37.3860   30.3040   52.2870 H   0  0  0  0  0  0  0  0  0  0  0  0
   38.7820   31.1590   50.3730 H   0  0  0  0  0  0  0  0  0  0  0  0
   38.0900   30.6320   48.0770 H   0  0  0  0  0  0  0  0  0  0  0  0
  1 18  1  0  0  0  0
  1  2  1  0  0  0  0
  2  6  1  0  0  0  0
  3  7  1  0  0  0  0
  3  2  2  0  0  0  0
  4  3  1  0  0  0  0
  5  4  1  0  0  0  0
  5  1  2  0  0  0  0
  8 17  1  0  0  0  0
  9  4  1  0  0  0  0
  9  8  2  0  0  0  0
 10  9  1  0  0  0  0
 11 10  1  0  0  0  0
 12 10  2  0  0  0  0
 12 14  1  0  0  0  0
 13 12  1  0  0  0  0
 14 15  2  0  0  0  0
 15  8  1  0  0  0  0
 17 16  3  0  0  0  0
 18 19  1  0  0  0  0
 18 21  1  0  0  0  0
 20 18  1  0  0  0  0
 21 28  1  0  0  0  0
 21 23  1  0  0  0  0
 22 21  1  0  0  0  0
 24 30  1  0  0  0  0
 25 31  1  0  0  0  0
 25 24  2  0  0  0  0
 26 25  1  0  0  0  0
 27 26  2  0  0  0  0
 27 28  1  0  0  0  0
 28 29  2  0  0  0  0
 29 24  1  0  0  0  0
 32 26  1  0  0  0  0
M  END
>  <minimizedAffinity>
-5.04559231

>  <minimizedRMSD>
1.36548245

$$$$
