
 OpenBabel03272509303D

 39 41  0  0  1  0  0  0  0  0999 V2000
   35.9740   30.5610   48.9430 C   0  0  2  0  0  0  0  0  0  0  0  0
   36.7740   31.4510   49.8420 C   0  0  0  0  0  0  0  0  0  0  0  0
   37.6130   30.6860   50.8410 C   0  0  0  0  0  0  0  0  0  0  0  0
   36.7600   29.7330   51.6710 C   0  0  0  0  0  0  0  0  0  0  0  0
   35.6040   29.1270   50.9070 C   0  0  0  0  0  0  0  0  0  0  0  0
   35.9700   29.1460   49.4110 C   0  0  1  0  0  0  0  0  0  0  0  0
   34.8940   30.8470   48.8540 H   0  0  0  0  0  0  0  0  0  0  0  0
   35.9910   31.9710   50.4930 H   0  0  0  0  0  0  0  0  0  0  0  0
   37.3390   32.2430   49.3880 H   0  0  0  0  0  0  0  0  0  0  0  0
   37.9790   31.4560   51.5810 H   0  0  0  0  0  0  0  0  0  0  0  0
   38.4870   30.1900   50.4290 H   0  0  0  0  0  0  0  0  0  0  0  0
   36.3600   30.2160   52.5710 H   0  0  0  0  0  0  0  0  0  0  0  0
   37.4450   28.8800   51.9450 H   0  0  0  0  0  0  0  0  0  0  0  0
   34.7030   29.7390   51.0170 H   0  0  0  0  0  0  0  0  0  0  0  0
   35.4190   28.0840   51.2300 H   0  0  0  0  0  0  0  0  0  0  0  0
   36.9470   28.7350   49.4490 H   0  0  0  0  0  0  0  0  0  0  0  0
   36.4900   30.6020   47.5480 C   0  0  0  0  0  0  0  0  0  0  0  0
   37.8320   30.9700   47.4100 C   0  0  0  0  0  0  0  0  0  0  0  0
   38.3410   31.0150   46.1070 C   0  0  0  0  0  0  0  0  0  0  0  0
   37.5090   30.7010   45.0550 N   0  0  0  0  0  0  0  0  0  0  0  0
   36.1970   30.3460   45.2510 C   0  0  0  0  0  0  0  0  0  0  0  0
   35.7110   30.3040   46.5020 N   0  0  0  0  0  0  0  0  0  0  0  0
   38.5940   31.2280   48.1190 H   0  0  0  0  0  0  0  0  0  0  0  0
   39.3430   31.2780   45.8360 H   0  0  0  0  0  0  0  0  0  0  0  0
   35.6110   30.1150   44.3830 H   0  0  0  0  0  0  0  0  0  0  0  0
   33.8310   27.9790   48.6900 C   0  0  0  0  0  0  0  0  0  0  0  0
   32.9140   28.4640   49.4050 O   0  0  0  0  0  0  0  0  0  0  0  0
   35.2220   28.2490   48.6040 N   0  0  0  0  0  0  0  0  0  0  0  0
   35.6460   27.6640   47.8160 H   0  0  0  0  0  0  0  0  0  0  0  0
   31.7620   26.7870   48.0900 C   0  0  0  0  0  0  0  0  0  0  0  0
   33.1300   26.9660   47.8640 C   0  0  0  0  0  0  0  0  0  0  0  0
   33.7600   26.1940   46.8930 C   0  0  0  0  0  0  0  0  0  0  0  0
   34.8010   26.3660   46.7560 H   0  0  0  0  0  0  0  0  0  0  0  0
   33.0040   25.2690   46.1780 C   0  0  0  0  0  0  0  0  0  0  0  0
   33.5140   24.6680   45.4170 H   0  0  0  0  0  0  0  0  0  0  0  0
   31.6520   25.1040   46.4140 C   0  0  0  0  0  3  0  0  0  0  0  0
   30.9950   25.8630   47.3800 C   0  0  0  0  0  3  0  0  0  0  0  0
   30.5130   28.1880   49.8950 N   0  0  0  0  0  0  0  0  0  0  0  0
   31.0680   27.5630   49.0840 C   0  0  0  0  0  0  0  0  0  0  0  0
  1  7  1  6  0  0  0
  1  6  1  0  0  0  0
  1  2  1  0  0  0  0
  2  8  1  0  0  0  0
  2  3  1  0  0  0  0
  3 10  1  0  0  0  0
  3  4  1  0  0  0  0
  4 13  1  0  0  0  0
  4 12  1  0  0  0  0
  5 14  1  0  0  0  0
  5 15  1  0  0  0  0
  5  4  1  0  0  0  0
  6 16  1  6  0  0  0
  6  5  1  0  0  0  0
  9  2  1  0  0  0  0
 11  3  1  0  0  0  0
 17  1  1  0  0  0  0
 18 17  1  0  0  0  0
 18 23  1  0  0  0  0
 19 18  2  0  0  0  0
 20 21  2  0  0  0  0
 20 19  1  0  0  0  0
 21 22  1  0  0  0  0
 22 17  2  0  0  0  0
 24 19  1  0  0  0  0
 25 21  1  0  0  0  0
 26 27  2  0  0  0  0
 28 26  1  0  0  0  0
 28  6  1  0  0  0  0
 29 28  1  0  0  0  0
 30 39  1  0  0  0  0
 31 30  1  0  0  0  0
 31 26  1  0  0  0  0
 32 31  2  0  0  0  0
 33 32  1  0  0  0  0
 34 36  2  0  0  0  0
 34 32  1  0  0  0  0
 35 34  1  0  0  0  0
 36 37  1  0  0  0  0
 37 30  2  0  0  0  0
 39 38  3  0  0  0  0
M  END
>  <minimizedAffinity>
-6.00030422

>  <minimizedRMSD>
0.77451247

$$$$
