
 OpenBabel03272507553D

 24 25  0  0  0  0  0  0  0  0999 V2000
   35.3610   28.6550   49.6480 C   0  0  0  0  0  0  0  0  0  0  0  0
   36.4050   29.6320   49.6150 C   0  0  0  0  0  0  0  0  0  0  0  0
   36.3200   30.6780   48.7100 C   0  0  0  0  0  0  0  0  0  0  0  0
   35.2130   30.7020   47.8910 N   0  0  0  0  0  0  0  0  0  0  0  0
   34.2430   29.7630   47.9450 C   0  0  0  0  0  0  0  0  0  0  0  0
   34.3040   28.7420   48.8150 N   0  0  0  0  0  0  0  0  0  0  0  0
   33.2310   29.9560   46.9930 N   0  0  0  0  0  0  0  0  0  0  0  0
   35.4330   27.8310   50.3640 H   0  0  0  0  0  0  0  0  0  0  0  0
   32.8300   30.8350   46.6750 H   0  0  0  0  0  0  0  0  0  0  0  0
   32.7890   29.1250   46.5140 H   0  0  0  0  0  0  0  0  0  0  0  0
   38.2450   31.8290   47.6070 C   0  0  0  0  0  0  0  0  0  0  0  0
   37.3080   31.7400   48.6420 C   0  0  0  0  0  0  0  0  0  0  0  0
   37.4350   32.7020   49.6180 C   0  0  0  0  0  0  0  0  0  0  0  0
   36.8300   32.7760   50.5040 H   0  0  0  0  0  0  0  0  0  0  0  0
   38.3980   33.6950   49.6080 C   0  0  0  0  0  0  0  0  0  0  0  0
   38.5330   34.4630   50.3450 H   0  0  0  0  0  0  0  0  0  0  0  0
   39.3030   33.7280   48.5460 C   0  0  0  0  0  3  0  0  0  0  0  0
   39.2370   32.7880   47.5240 C   0  0  0  0  0  3  0  0  0  0  0  0
   38.0930   30.0710   45.6990 N   0  0  0  0  0  0  0  0  0  0  0  0
   38.1600   30.8500   46.5560 C   0  0  0  0  0  0  0  0  0  0  0  0
   37.5410   29.4740   50.5730 C   0  0  0  0  0  0  0  0  0  0  0  0
   38.7260   29.8730   49.9980 F   0  0  0  0  0  0  0  0  0  0  0  0
   37.2860   30.2530   51.6720 F   0  0  0  0  0  0  0  0  0  0  0  0
   37.7010   28.1680   51.0030 F   0  0  0  0  0  0  0  0  0  0  0  0
  1  8  1  0  0  0  0
  2  1  1  0  0  0  0
  2 21  1  0  0  0  0
  3  2  2  0  0  0  0
  4  5  2  0  0  0  0
  4  3  1  0  0  0  0
  5  6  1  0  0  0  0
  6  1  2  0  0  0  0
  7  5  1  0  0  0  0
  9  7  1  0  0  0  0
 10  7  1  0  0  0  0
 11 12  1  0  0  0  0
 12  3  1  0  0  0  0
 12 13  2  0  0  0  0
 13 14  1  0  0  0  0
 15 13  1  0  0  0  0
 15 16  1  0  0  0  0
 17 15  2  0  0  0  0
 18 11  2  0  0  0  0
 18 17  1  0  0  0  0
 19 20  3  0  0  0  0
 20 11  1  0  0  0  0
 21 24  1  0  0  0  0
 21 23  1  0  0  0  0
 22 21  1  0  0  0  0
M  END
>  <minimizedAffinity>
-5.93105459

>  <minimizedRMSD>
1.98961627

$$$$
