
 OpenBabel03272510303D

 29 31  0  0  0  0  0  0  0  0999 V2000
   37.4700   31.1420   48.8480 C   0  0  0  0  0  0  0  0  0  0  0  0
   37.9370   32.3770   49.2990 C   0  0  0  0  0  0  0  0  0  0  0  0
   38.8520   32.9950   48.4900 C   0  0  0  0  0  0  0  0  0  0  0  0
   39.2650   32.4110   47.3100 N   0  0  0  0  0  0  0  0  0  0  0  0
   38.7690   31.1910   46.9120 C   0  0  0  0  0  0  0  0  0  0  0  0
   37.8630   30.5720   47.7100 N   0  0  0  0  0  0  0  0  0  0  0  0
   37.5810   32.7920   50.2320 H   0  0  0  0  0  0  0  0  0  0  0  0
   39.2660   33.9570   48.7670 H   0  0  0  0  0  0  0  0  0  0  0  0
   36.4350   30.4220   49.6760 C   0  0  0  0  0  0  0  0  0  0  0  0
   36.1880   29.0060   49.5750 C   0  0  0  0  0  0  0  0  0  0  0  0
   37.0720   29.4860   50.7090 C   0  0  0  0  0  0  0  0  0  0  0  0
   35.6370   31.0980   50.0650 H   0  0  0  0  0  0  0  0  0  0  0  0
   36.7960   28.4450   48.8030 H   0  0  0  0  0  0  0  0  0  0  0  0
   35.2070   28.6010   49.8380 H   0  0  0  0  0  0  0  0  0  0  0  0
   38.1530   29.3350   50.6860 H   0  0  0  0  0  0  0  0  0  0  0  0
   36.6360   29.5770   51.7060 H   0  0  0  0  0  0  0  0  0  0  0  0
   39.1810   30.5720   45.6660 C   0  0  0  0  0  0  0  0  0  0  0  0
   39.1870   29.4740   45.7690 H   0  0  0  0  0  0  0  0  0  0  0  0
   40.2330   30.8990   45.4300 H   0  0  0  0  0  0  0  0  0  0  0  0
   38.1200   30.0870   43.4510 C   0  0  0  0  0  0  0  0  0  0  0  0
   38.3170   30.9570   44.4990 C   0  0  0  0  0  0  0  0  0  0  0  0
   37.6910   32.2070   44.4690 C   0  0  0  0  0  0  0  0  0  0  0  0
   37.8210   32.9220   45.2750 H   0  0  0  0  0  0  0  0  0  0  0  0
   36.8940   32.5360   43.3930 C   0  0  0  0  0  0  0  0  0  0  0  0
   36.3700   33.4950   43.2960 H   0  0  0  0  0  0  0  0  0  0  0  0
   36.6950   31.6680   42.3460 C   0  0  0  0  0  3  0  0  0  0  0  0
   37.3080   30.4310   42.3640 C   0  0  0  0  0  3  0  0  0  0  0  0
   39.2340   27.7350   43.3710 N   0  0  0  0  0  0  0  0  0  0  0  0
   38.7360   28.7790   43.3990 C   0  0  0  0  0  0  0  0  0  0  0  0
  1  2  1  0  0  0  0
  1  9  1  0  0  0  0
  2  7  1  0  0  0  0
  3  8  1  0  0  0  0
  3  2  2  0  0  0  0
  4  3  1  0  0  0  0
  5  4  2  0  0  0  0
  5  6  1  0  0  0  0
  6  1  2  0  0  0  0
  9 12  1  0  0  0  0
  9 11  1  0  0  0  0
 10  9  1  0  0  0  0
 10 14  1  0  0  0  0
 10 11  1  0  0  0  0
 11 16  1  0  0  0  0
 13 10  1  0  0  0  0
 15 11  1  0  0  0  0
 17 18  1  0  0  0  0
 17  5  1  0  0  0  0
 19 17  1  0  0  0  0
 20 21  1  0  0  0  0
 21 17  1  0  0  0  0
 22 21  2  0  0  0  0
 22 23  1  0  0  0  0
 24 22  1  0  0  0  0
 25 24  1  0  0  0  0
 26 27  1  0  0  0  0
 26 24  2  0  0  0  0
 27 20  2  0  0  0  0
 28 29  3  0  0  0  0
 29 20  1  0  0  0  0
M  END
>  <minimizedAffinity>
-5.13871479

>  <minimizedRMSD>
0.721189082

$$$$
