
 OpenBabel03272507163D

 27 29  0  0  1  0  0  0  0  0999 V2000
   37.9450   31.4360   48.8690 C   0  0  1  0  0  0  0  0  0  0  0  0
   36.6190   30.9260   49.1470 C   0  0  2  0  0  0  0  0  0  0  0  0
   37.7260   29.9190   48.9120 C   0  0  0  0  0  0  0  0  0  0  0  0
   38.6760   31.7790   49.6510 H   0  0  0  0  0  0  0  0  0  0  0  0
   36.2150   31.0530   50.1720 H   0  0  0  0  0  0  0  0  0  0  0  0
   37.7350   29.3450   47.9850 H   0  0  0  0  0  0  0  0  0  0  0  0
   38.0250   29.3780   49.8310 H   0  0  0  0  0  0  0  0  0  0  0  0
   38.3280   31.9180   47.4960 C   0  0  0  0  0  0  0  0  0  0  0  0
   39.4570   32.7350   47.4220 C   0  0  0  0  0  0  0  0  0  0  0  0
   39.7760   33.1960   46.1370 C   0  0  0  0  0  0  0  0  0  0  0  0
   39.0030   32.8400   45.0510 N   0  0  0  0  0  0  0  0  0  0  0  0
   37.9150   32.0390   45.1920 C   0  0  0  0  0  0  0  0  0  0  0  0
   37.5850   31.5800   46.4350 N   0  0  0  0  0  0  0  0  0  0  0  0
   40.0570   33.0100   48.2780 H   0  0  0  0  0  0  0  0  0  0  0  0
   40.6410   33.8300   46.0340 H   0  0  0  0  0  0  0  0  0  0  0  0
   37.3630   31.8080   44.2920 H   0  0  0  0  0  0  0  0  0  0  0  0
   35.6430   30.9790   48.1390 O   0  0  0  0  0  0  0  0  0  0  0  0
   34.2380   29.1390   48.4960 C   0  0  0  0  0  0  0  0  0  0  0  0
   34.9600   29.9260   47.6000 C   0  0  0  0  0  0  0  0  0  0  0  0
   34.8980   29.5490   46.2730 C   0  0  0  0  0  0  0  0  0  0  0  0
   35.4560   30.1600   45.5860 H   0  0  0  0  0  0  0  0  0  0  0  0
   34.1690   28.4630   45.8610 C   0  0  0  0  0  0  0  0  0  0  0  0
   34.1870   28.2540   44.8020 H   0  0  0  0  0  0  0  0  0  0  0  0
   33.4500   27.6730   46.7310 C   0  0  0  0  0  3  0  0  0  0  0  0
   33.5100   28.0500   48.0680 C   0  0  0  0  0  3  0  0  0  0  0  0
   34.1780   29.6400   51.0480 N   0  0  0  0  0  0  0  0  0  0  0  0
   34.2070   29.4080   49.9040 C   0  0  0  0  0  0  0  0  0  0  0  0
  1  3  1  0  0  0  0
  1  2  1  0  0  0  0
  1  4  1  1  0  0  0
  2  5  1  1  0  0  0
  3  2  1  0  0  0  0
  3  7  1  0  0  0  0
  6  3  1  0  0  0  0
  8  1  1  0  0  0  0
  9  8  1  0  0  0  0
  9 14  1  0  0  0  0
 10  9  2  0  0  0  0
 11 12  2  0  0  0  0
 11 10  1  0  0  0  0
 12 13  1  0  0  0  0
 13  8  2  0  0  0  0
 15 10  1  0  0  0  0
 16 12  1  0  0  0  0
 17  2  1  0  0  0  0
 18 27  1  0  0  0  0
 19 17  1  0  0  0  0
 19 18  2  0  0  0  0
 20 19  1  0  0  0  0
 21 20  1  0  0  0  0
 22 20  2  0  0  0  0
 22 24  1  0  0  0  0
 23 22  1  0  0  0  0
 24 25  2  0  0  0  0
 25 18  1  0  0  0  0
 27 26  3  0  0  0  0
M  END
>  <minimizedAffinity>
-4.43211937

>  <minimizedRMSD>
2.46162462

$$$$
