
 OpenBabel03272509323D

 39 41  0  0  1  0  0  0  0  0999 V2000
   38.7690   25.7190   34.5480 C   0  0  2  0  0  0  0  0  0  0  0  0
   38.7810   27.1120   35.0970 C   0  0  0  0  0  0  0  0  0  0  0  0
   37.4490   27.8140   34.9610 C   0  0  0  0  0  0  0  0  0  0  0  0
   36.9700   27.8240   33.5120 C   0  0  0  0  0  0  0  0  0  0  0  0
   37.3470   26.5820   32.7370 C   0  0  0  0  0  0  0  0  0  0  0  0
   37.5420   25.4380   33.7500 C   0  0  1  0  0  0  0  0  0  0  0  0
   39.6280   25.4850   33.8660 H   0  0  0  0  0  0  0  0  0  0  0  0
   39.4620   27.6890   34.3830 H   0  0  0  0  0  0  0  0  0  0  0  0
   39.2000   27.2620   36.0740 H   0  0  0  0  0  0  0  0  0  0  0  0
   37.6530   28.8990   35.1980 H   0  0  0  0  0  0  0  0  0  0  0  0
   36.6730   27.4730   35.6390 H   0  0  0  0  0  0  0  0  0  0  0  0
   37.3410   28.6980   32.9620 H   0  0  0  0  0  0  0  0  0  0  0  0
   35.8440   27.8360   33.5700 H   0  0  0  0  0  0  0  0  0  0  0  0
   38.3070   26.7190   32.2300 H   0  0  0  0  0  0  0  0  0  0  0  0
   36.5510   26.3070   32.0170 H   0  0  0  0  0  0  0  0  0  0  0  0
   36.6590   25.5420   34.3270 H   0  0  0  0  0  0  0  0  0  0  0  0
   38.8720   24.7120   35.6390 C   0  0  0  0  0  0  0  0  0  0  0  0
   38.0500   24.9350   36.7480 C   0  0  0  0  0  0  0  0  0  0  0  0
   38.1280   24.0000   37.7870 C   0  0  0  0  0  0  0  0  0  0  0  0
   38.9910   22.9350   37.6610 N   0  0  0  0  0  0  0  0  0  0  0  0
   39.7750   22.7650   36.5480 C   0  0  0  0  0  0  0  0  0  0  0  0
   39.6990   23.6640   35.5520 N   0  0  0  0  0  0  0  0  0  0  0  0
   37.3340   25.6970   36.9830 H   0  0  0  0  0  0  0  0  0  0  0  0
   37.5670   24.0300   38.6980 H   0  0  0  0  0  0  0  0  0  0  0  0
   40.4220   21.9110   36.5210 H   0  0  0  0  0  0  0  0  0  0  0  0
   36.5280   23.6550   32.2520 C   0  0  0  0  0  0  0  0  0  0  0  0
   35.5890   24.2200   31.6290 O   0  0  0  0  0  0  0  0  0  0  0  0
   37.4730   24.1340   33.1960 N   0  0  0  0  0  0  0  0  0  0  0  0
   38.1540   23.3470   33.4410 H   0  0  0  0  0  0  0  0  0  0  0  0
   37.4540   21.8310   30.8820 C   0  0  0  0  0  0  0  0  0  0  0  0
   36.4660   22.2520   31.7760 C   0  0  0  0  0  0  0  0  0  0  0  0
   35.4820   21.3490   32.1680 C   0  0  0  0  0  0  0  0  0  0  0  0
   34.7510   21.7140   32.8500 H   0  0  0  0  0  0  0  0  0  0  0  0
   35.5170   20.0560   31.6560 C   0  0  0  0  0  0  0  0  0  0  0  0
   34.7360   19.3550   31.9730 H   0  0  0  0  0  0  0  0  0  0  0  0
   36.5020   19.6550   30.7720 C   0  0  0  0  0  3  0  0  0  0  0  0
   37.5000   20.5380   30.3620 C   0  0  0  0  0  3  0  0  0  0  0  0
   39.3290   23.4540   30.0880 N   0  0  0  0  0  0  0  0  0  0  0  0
   38.4920   22.7300   30.4480 C   0  0  0  0  0  0  0  0  0  0  0  0
  1  7  1  6  0  0  0
  1  2  1  0  0  0  0
  1 17  1  0  0  0  0
  2  9  1  0  0  0  0
  3  2  1  0  0  0  0
  3 10  1  0  0  0  0
  3 11  1  0  0  0  0
  4 13  1  0  0  0  0
  4  3  1  0  0  0  0
  5  4  1  0  0  0  0
  5  6  1  0  0  0  0
  6 16  1  1  0  0  0
  6  1  1  0  0  0  0
  8  2  1  0  0  0  0
 12  4  1  0  0  0  0
 14  5  1  0  0  0  0
 15  5  1  0  0  0  0
 17 18  1  0  0  0  0
 18 23  1  0  0  0  0
 18 19  2  0  0  0  0
 19 24  1  0  0  0  0
 20 19  1  0  0  0  0
 21 20  2  0  0  0  0
 22 17  2  0  0  0  0
 22 21  1  0  0  0  0
 25 21  1  0  0  0  0
 26 28  1  0  0  0  0
 27 26  2  0  0  0  0
 28 29  1  0  0  0  0
 28  6  1  0  0  0  0
 30 31  1  0  0  0  0
 31 32  2  0  0  0  0
 31 26  1  0  0  0  0
 32 33  1  0  0  0  0
 34 35  1  0  0  0  0
 34 32  1  0  0  0  0
 36 34  2  0  0  0  0
 37 36  1  0  0  0  0
 37 30  2  0  0  0  0
 38 39  3  0  0  0  0
 39 30  1  0  0  0  0
M  END
>  <minimizedAffinity>
-5.61115265

$$$$

 OpenBabel03272509323D

 39 41  0  0  1  0  0  0  0  0999 V2000
   37.0860   27.5070   32.2160 C   0  0  2  0  0  0  0  0  0  0  0  0
   37.8580   27.1230   30.9920 C   0  0  0  0  0  0  0  0  0  0  0  0
   38.2590   28.3110   30.1470 C   0  0  0  0  0  0  0  0  0  0  0  0
   37.0470   29.1540   29.7610 C   0  0  0  0  0  0  0  0  0  0  0  0
   35.9760   29.2040   30.8270 C   0  0  0  0  0  0  0  0  0  0  0  0
   36.6510   28.9310   32.1840 C   0  0  1  0  0  0  0  0  0  0  0  0
   36.1490   26.9120   32.3740 H   0  0  0  0  0  0  0  0  0  0  0  0
   37.0970   26.5750   30.3400 H   0  0  0  0  0  0  0  0  0  0  0  0
   38.6770   26.4390   31.1110 H   0  0  0  0  0  0  0  0  0  0  0  0
   38.6250   27.8780   29.1710 H   0  0  0  0  0  0  0  0  0  0  0  0
   39.0600   28.9210   30.5530 H   0  0  0  0  0  0  0  0  0  0  0  0
   36.5860   28.8080   28.8270 H   0  0  0  0  0  0  0  0  0  0  0  0
   37.4380   30.2050   29.6490 H   0  0  0  0  0  0  0  0  0  0  0  0
   35.2410   28.4070   30.6760 H   0  0  0  0  0  0  0  0  0  0  0  0
   35.4860   30.1980   30.8490 H   0  0  0  0  0  0  0  0  0  0  0  0
   37.4720   29.5990   32.1250 H   0  0  0  0  0  0  0  0  0  0  0  0
   37.8870   27.2790   33.4490 C   0  0  0  0  0  0  0  0  0  0  0  0
   39.2660   27.1430   33.2590 C   0  0  0  0  0  0  0  0  0  0  0  0
   40.0410   26.9290   34.4050 C   0  0  0  0  0  0  0  0  0  0  0  0
   39.4160   26.8660   35.6300 N   0  0  0  0  0  0  0  0  0  0  0  0
   38.0560   27.0070   35.7580 C   0  0  0  0  0  0  0  0  0  0  0  0
   37.3150   27.2120   34.6560 N   0  0  0  0  0  0  0  0  0  0  0  0
   39.8880   27.1780   32.3870 H   0  0  0  0  0  0  0  0  0  0  0  0
   41.1040   26.8060   34.4260 H   0  0  0  0  0  0  0  0  0  0  0  0
   37.6410   26.9480   36.7450 H   0  0  0  0  0  0  0  0  0  0  0  0
   35.6160   30.6940   33.6940 C   0  0  0  0  0  0  0  0  0  0  0  0
   35.8580   31.8030   33.1460 O   0  0  0  0  0  0  0  0  0  0  0  0
   35.9070   29.3570   33.3140 N   0  0  0  0  0  0  0  0  0  0  0  0
   35.4700   28.6880   34.0240 H   0  0  0  0  0  0  0  0  0  0  0  0
   33.5860   30.6140   35.0840 C   0  0  0  0  0  0  0  0  0  0  0  0
   34.9000   31.0680   34.9370 C   0  0  0  0  0  0  0  0  0  0  0  0
   35.4630   31.8430   35.9460 C   0  0  0  0  0  0  0  0  0  0  0  0
   36.4660   32.1650   35.7900 H   0  0  0  0  0  0  0  0  0  0  0  0
   34.6980   32.1380   37.0710 C   0  0  0  0  0  0  0  0  0  0  0  0
   35.1550   32.7490   37.8580 H   0  0  0  0  0  0  0  0  0  0  0  0
   33.3990   31.6810   37.2010 C   0  0  0  0  0  3  0  0  0  0  0  0
   32.8100   30.9030   36.2060 C   0  0  0  0  0  3  0  0  0  0  0  0
   32.4480   29.1650   33.2440 N   0  0  0  0  0  0  0  0  0  0  0  0
   32.9620   29.8100   34.0660 C   0  0  0  0  0  0  0  0  0  0  0  0
  1  7  1  1  0  0  0
  1 17  1  0  0  0  0
  2  9  1  0  0  0  0
  2  1  1  0  0  0  0
  3 11  1  0  0  0  0
  3  2  1  0  0  0  0
  4  3  1  0  0  0  0
  4  5  1  0  0  0  0
  5 15  1  0  0  0  0
  5  6  1  0  0  0  0
  6 16  1  1  0  0  0
  6  1  1  0  0  0  0
  6 28  1  0  0  0  0
  8  2  1  0  0  0  0
 10  3  1  0  0  0  0
 12  4  1  0  0  0  0
 13  4  1  0  0  0  0
 14  5  1  0  0  0  0
 17 22  1  0  0  0  0
 18 17  2  0  0  0  0
 18 19  1  0  0  0  0
 19 24  1  0  0  0  0
 19 20  2  0  0  0  0
 20 21  1  0  0  0  0
 21 25  1  0  0  0  0
 22 21  2  0  0  0  0
 23 18  1  0  0  0  0
 26 31  1  0  0  0  0
 27 26  2  0  0  0  0
 28 26  1  0  0  0  0
 28 29  1  0  0  0  0
 30 37  1  0  0  0  0
 31 30  2  0  0  0  0
 31 32  1  0  0  0  0
 32 34  2  0  0  0  0
 33 32  1  0  0  0  0
 34 36  1  0  0  0  0
 34 35  1  0  0  0  0
 37 36  2  0  0  0  0
 38 39  3  0  0  0  0
 39 30  1  0  0  0  0
M  END
>  <minimizedAffinity>
-5.59742308

$$$$

 OpenBabel03272509323D

 39 41  0  0  1  0  0  0  0  0999 V2000
   36.1230   25.8220   31.9770 C   0  0  2  0  0  0  0  0  0  0  0  0
   35.9350   26.6980   30.7770 C   0  0  0  0  0  0  0  0  0  0  0  0
   36.9580   27.8080   30.6870 C   0  0  0  0  0  0  0  0  0  0  0  0
   36.9770   28.6530   31.9570 C   0  0  0  0  0  0  0  0  0  0  0  0
   36.7030   27.8650   33.2170 C   0  0  0  0  0  0  0  0  0  0  0  0
   37.0940   26.4000   32.9490 C   0  0  1  0  0  0  0  0  0  0  0  0
   35.1860   25.6390   32.5650 H   0  0  0  0  0  0  0  0  0  0  0  0
   34.9570   27.2520   30.9850 H   0  0  0  0  0  0  0  0  0  0  0  0
   35.7960   26.2200   29.8260 H   0  0  0  0  0  0  0  0  0  0  0  0
   36.5760   28.5070   29.8870 H   0  0  0  0  0  0  0  0  0  0  0  0
   37.9570   27.4960   30.3960 H   0  0  0  0  0  0  0  0  0  0  0  0
   36.2610   29.4840   31.9090 H   0  0  0  0  0  0  0  0  0  0  0  0
   38.0330   29.0390   32.0430 H   0  0  0  0  0  0  0  0  0  0  0  0
   35.6330   27.8660   33.4500 H   0  0  0  0  0  0  0  0  0  0  0  0
   37.2960   28.2570   34.0670 H   0  0  0  0  0  0  0  0  0  0  0  0
   38.0550   26.5350   32.5210 H   0  0  0  0  0  0  0  0  0  0  0  0
   36.5900   24.4650   31.5830 C   0  0  0  0  0  0  0  0  0  0  0  0
   35.6020   23.4770   31.5280 C   0  0  0  0  0  0  0  0  0  0  0  0
   36.0170   22.1920   31.1590 C   0  0  0  0  0  0  0  0  0  0  0  0
   37.3470   21.9780   30.8750 N   0  0  0  0  0  0  0  0  0  0  0  0
   38.2750   22.9870   30.9450 C   0  0  0  0  0  0  0  0  0  0  0  0
   37.8740   24.2190   31.3000 N   0  0  0  0  0  0  0  0  0  0  0  0
   34.5460   23.4930   31.7080 H   0  0  0  0  0  0  0  0  0  0  0  0
   35.3850   21.3330   31.0720 H   0  0  0  0  0  0  0  0  0  0  0  0
   39.2920   22.7440   30.7080 H   0  0  0  0  0  0  0  0  0  0  0  0
   38.2970   25.8320   35.1140 C   0  0  0  0  0  0  0  0  0  0  0  0
   39.1540   26.7420   35.2820 O   0  0  0  0  0  0  0  0  0  0  0  0
   37.3130   25.6190   34.1140 N   0  0  0  0  0  0  0  0  0  0  0  0
   36.7330   24.7580   34.3690 H   0  0  0  0  0  0  0  0  0  0  0  0
   39.4110   23.8630   36.0860 C   0  0  0  0  0  0  0  0  0  0  0  0
   38.5210   24.9260   36.2660 C   0  0  0  0  0  0  0  0  0  0  0  0
   37.8920   25.0790   37.4980 C   0  0  0  0  0  0  0  0  0  0  0  0
   37.2240   25.9020   37.5890 H   0  0  0  0  0  0  0  0  0  0  0  0
   38.1730   24.1670   38.5110 C   0  0  0  0  0  0  0  0  0  0  0  0
   37.6710   24.2990   39.4760 H   0  0  0  0  0  0  0  0  0  0  0  0
   39.0570   23.1200   38.3170 C   0  0  0  0  0  3  0  0  0  0  0  0
   39.7000   22.9430   37.0940 C   0  0  0  0  0  3  0  0  0  0  0  0
   40.6330   23.4990   33.8160 N   0  0  0  0  0  0  0  0  0  0  0  0
   40.0840   23.6660   34.8290 C   0  0  0  0  0  0  0  0  0  0  0  0
  1  7  1  1  0  0  0
  1  6  1  0  0  0  0
  2  8  1  0  0  0  0
  2  1  1  0  0  0  0
  3  2  1  0  0  0  0
  3  4  1  0  0  0  0
  4 13  1  0  0  0  0
  4  5  1  0  0  0  0
  5 14  1  0  0  0  0
  5 15  1  0  0  0  0
  6 16  1  6  0  0  0
  6  5  1  0  0  0  0
  6 28  1  0  0  0  0
  9  2  1  0  0  0  0
 10  3  1  0  0  0  0
 11  3  1  0  0  0  0
 12  4  1  0  0  0  0
 17  1  1  0  0  0  0
 18 17  1  0  0  0  0
 18 23  1  0  0  0  0
 19 18  2  0  0  0  0
 20 21  2  0  0  0  0
 20 19  1  0  0  0  0
 21 22  1  0  0  0  0
 22 17  2  0  0  0  0
 24 19  1  0  0  0  0
 25 21  1  0  0  0  0
 26 27  2  0  0  0  0
 26 31  1  0  0  0  0
 28 29  1  0  0  0  0
 28 26  1  0  0  0  0
 30 31  2  0  0  0  0
 30 37  1  0  0  0  0
 31 32  1  0  0  0  0
 32 33  1  0  0  0  0
 32 34  2  0  0  0  0
 34 35  1  0  0  0  0
 36 34  1  0  0  0  0
 37 36  2  0  0  0  0
 38 39  3  0  0  0  0
 39 30  1  0  0  0  0
M  END
>  <minimizedAffinity>
-5.46260262

$$$$

 OpenBabel03272509323D

 39 41  0  0  1  0  0  0  0  0999 V2000
   36.9710   27.6080   32.2700 C   0  0  2  0  0  0  0  0  0  0  0  0
   37.7900   27.3930   31.0350 C   0  0  0  0  0  0  0  0  0  0  0  0
   38.1430   28.6810   30.3260 C   0  0  0  0  0  0  0  0  0  0  0  0
   36.8950   29.4940   29.9940 C   0  0  0  0  0  0  0  0  0  0  0  0
   35.8000   29.3790   31.0300 C   0  0  0  0  0  0  0  0  0  0  0  0
   36.4580   29.0030   32.3700 C   0  0  1  0  0  0  0  0  0  0  0  0
   36.0640   26.9520   32.3410 H   0  0  0  0  0  0  0  0  0  0  0  0
   37.0740   26.8760   30.3090 H   0  0  0  0  0  0  0  0  0  0  0  0
   38.6420   26.7440   31.1060 H   0  0  0  0  0  0  0  0  0  0  0  0
   38.5530   28.3700   29.3210 H   0  0  0  0  0  0  0  0  0  0  0  0
   38.9000   29.2870   30.8140 H   0  0  0  0  0  0  0  0  0  0  0  0
   36.4750   29.2230   29.0180 H   0  0  0  0  0  0  0  0  0  0  0  0
   37.2300   30.5710   30.0000 H   0  0  0  0  0  0  0  0  0  0  0  0
   35.1130   28.5630   30.7780 H   0  0  0  0  0  0  0  0  0  0  0  0
   35.2560   30.3380   31.1390 H   0  0  0  0  0  0  0  0  0  0  0  0
   37.2440   29.7160   32.4020 H   0  0  0  0  0  0  0  0  0  0  0  0
   37.7560   27.2970   33.4950 C   0  0  0  0  0  0  0  0  0  0  0  0
   39.1430   27.2470   33.3290 C   0  0  0  0  0  0  0  0  0  0  0  0
   39.9040   26.9570   34.4670 C   0  0  0  0  0  0  0  0  0  0  0  0
   39.2560   26.7420   35.6640 N   0  0  0  0  0  0  0  0  0  0  0  0
   37.8890   26.8040   35.7690 C   0  0  0  0  0  0  0  0  0  0  0  0
   37.1620   27.0820   34.6740 N   0  0  0  0  0  0  0  0  0  0  0  0
   39.7820   27.3980   32.4810 H   0  0  0  0  0  0  0  0  0  0  0  0
   40.9710   26.8830   34.5040 H   0  0  0  0  0  0  0  0  0  0  0  0
   37.4570   26.6270   36.7340 H   0  0  0  0  0  0  0  0  0  0  0  0
   34.8030   30.3780   33.7210 C   0  0  0  0  0  0  0  0  0  0  0  0
   34.4600   31.3360   32.9770 O   0  0  0  0  0  0  0  0  0  0  0  0
   35.6680   29.2710   33.5170 N   0  0  0  0  0  0  0  0  0  0  0  0
   35.6400   28.6400   34.3790 H   0  0  0  0  0  0  0  0  0  0  0  0
   34.6030   31.5860   35.8570 C   0  0  0  0  0  0  0  0  0  0  0  0
   34.0670   30.6370   34.9820 C   0  0  0  0  0  0  0  0  0  0  0  0
   32.8880   29.9850   35.3330 C   0  0  0  0  0  0  0  0  0  0  0  0
   32.5180   29.2720   34.6350 H   0  0  0  0  0  0  0  0  0  0  0  0
   32.2820   30.3040   36.5440 C   0  0  0  0  0  0  0  0  0  0  0  0
   31.3540   29.7820   36.8070 H   0  0  0  0  0  0  0  0  0  0  0  0
   32.8250   31.2450   37.3990 C   0  0  0  0  0  3  0  0  0  0  0  0
   34.0040   31.9130   37.0740 C   0  0  0  0  0  3  0  0  0  0  0  0
   36.8000   32.8580   35.2780 N   0  0  0  0  0  0  0  0  0  0  0  0
   35.8200   32.2850   35.5370 C   0  0  0  0  0  0  0  0  0  0  0  0
  1  7  1  6  0  0  0
  1  6  1  0  0  0  0
  1 17  1  0  0  0  0
  2  9  1  0  0  0  0
  2  1  1  0  0  0  0
  3 11  1  0  0  0  0
  3  2  1  0  0  0  0
  4 13  1  0  0  0  0
  4  3  1  0  0  0  0
  4  5  1  0  0  0  0
  5 15  1  0  0  0  0
  5  6  1  0  0  0  0
  6 16  1  1  0  0  0
  6 28  1  0  0  0  0
  8  2  1  0  0  0  0
 10  3  1  0  0  0  0
 12  4  1  0  0  0  0
 14  5  1  0  0  0  0
 17 22  1  0  0  0  0
 18 17  2  0  0  0  0
 18 19  1  0  0  0  0
 19 24  1  0  0  0  0
 19 20  2  0  0  0  0
 20 21  1  0  0  0  0
 21 25  1  0  0  0  0
 22 21  2  0  0  0  0
 23 18  1  0  0  0  0
 26 31  1  0  0  0  0
 27 26  2  0  0  0  0
 28 26  1  0  0  0  0
 28 29  1  0  0  0  0
 30 37  1  0  0  0  0
 31 32  1  0  0  0  0
 31 30  2  0  0  0  0
 32 34  2  0  0  0  0
 33 32  1  0  0  0  0
 34 35  1  0  0  0  0
 34 36  1  0  0  0  0
 37 36  2  0  0  0  0
 38 39  3  0  0  0  0
 39 30  1  0  0  0  0
M  END
>  <minimizedAffinity>
-5.4116807

$$$$

 OpenBabel03272509323D

 39 41  0  0  1  0  0  0  0  0999 V2000
   39.3630   25.3610   34.8070 C   0  0  2  0  0  0  0  0  0  0  0  0
   39.6070   26.7300   35.3630 C   0  0  0  0  0  0  0  0  0  0  0  0
   38.3310   27.4820   35.6670 C   0  0  0  0  0  0  0  0  0  0  0  0
   37.4290   27.5680   34.4400 C   0  0  0  0  0  0  0  0  0  0  0  0
   37.4910   26.3460   33.5520 C   0  0  0  0  0  0  0  0  0  0  0  0
   37.9380   25.1560   34.4210 C   0  0  1  0  0  0  0  0  0  0  0  0
   39.9570   25.1270   33.8860 H   0  0  0  0  0  0  0  0  0  0  0  0
   40.0590   27.3120   34.4900 H   0  0  0  0  0  0  0  0  0  0  0  0
   40.3130   26.8250   36.1660 H   0  0  0  0  0  0  0  0  0  0  0  0
   38.6480   28.5490   35.8600 H   0  0  0  0  0  0  0  0  0  0  0  0
   37.7870   27.1400   36.5430 H   0  0  0  0  0  0  0  0  0  0  0  0
   37.6510   28.4500   33.8260 H   0  0  0  0  0  0  0  0  0  0  0  0
   36.3780   27.6160   34.8440 H   0  0  0  0  0  0  0  0  0  0  0  0
   38.2530   26.4700   32.7750 H   0  0  0  0  0  0  0  0  0  0  0  0
   36.5000   26.1290   33.1070 H   0  0  0  0  0  0  0  0  0  0  0  0
   37.2810   25.2670   35.2460 H   0  0  0  0  0  0  0  0  0  0  0  0
   39.7510   24.3080   35.7830 C   0  0  0  0  0  0  0  0  0  0  0  0
   41.0040   23.7230   35.5750 C   0  0  0  0  0  0  0  0  0  0  0  0
   41.3930   22.7290   36.4810 C   0  0  0  0  0  0  0  0  0  0  0  0
   40.5370   22.3900   37.5060 N   0  0  0  0  0  0  0  0  0  0  0  0
   39.3170   23.0000   37.6620 C   0  0  0  0  0  0  0  0  0  0  0  0
   38.9460   23.9530   36.7910 N   0  0  0  0  0  0  0  0  0  0  0  0
   41.7710   23.8830   34.8440 H   0  0  0  0  0  0  0  0  0  0  0  0
   42.3160   22.1880   36.4580 H   0  0  0  0  0  0  0  0  0  0  0  0
   38.7060   22.6840   38.4850 H   0  0  0  0  0  0  0  0  0  0  0  0
   38.1790   23.3050   32.6980 C   0  0  0  0  0  0  0  0  0  0  0  0
   39.0560   23.7010   31.8840 O   0  0  0  0  0  0  0  0  0  0  0  0
   37.6410   23.8790   33.8790 N   0  0  0  0  0  0  0  0  0  0  0  0
   36.9570   23.1890   34.3250 H   0  0  0  0  0  0  0  0  0  0  0  0
   36.5720   21.9530   31.4110 C   0  0  0  0  0  0  0  0  0  0  0  0
   37.7610   21.9930   32.1460 C   0  0  0  0  0  0  0  0  0  0  0  0
   38.4820   20.8170   32.3280 C   0  0  0  0  0  0  0  0  0  0  0  0
   39.3800   20.8960   32.8930 H   0  0  0  0  0  0  0  0  0  0  0  0
   37.9950   19.6390   31.7680 C   0  0  0  0  0  0  0  0  0  0  0  0
   38.5730   18.7210   31.9190 H   0  0  0  0  0  0  0  0  0  0  0  0
   36.8170   19.6160   31.0430 C   0  0  0  0  0  3  0  0  0  0  0  0
   36.0750   20.7790   30.8460 C   0  0  0  0  0  3  0  0  0  0  0  0
   35.1710   24.1130   31.0250 N   0  0  0  0  0  0  0  0  0  0  0  0
   35.7930   23.1440   31.1980 C   0  0  0  0  0  0  0  0  0  0  0  0
  1  7  1  6  0  0  0
  1  2  1  0  0  0  0
  1 17  1  0  0  0  0
  2  3  1  0  0  0  0
  2  9  1  0  0  0  0
  3 10  1  0  0  0  0
  3 11  1  0  0  0  0
  4 13  1  0  0  0  0
  4  3  1  0  0  0  0
  5  6  1  0  0  0  0
  5  4  1  0  0  0  0
  6  1  1  0  0  0  0
  6 16  1  1  0  0  0
  8  2  1  0  0  0  0
 12  4  1  0  0  0  0
 14  5  1  0  0  0  0
 15  5  1  0  0  0  0
 17 22  1  0  0  0  0
 18 17  2  0  0  0  0
 18 19  1  0  0  0  0
 19 20  2  0  0  0  0
 20 21  1  0  0  0  0
 21 25  1  0  0  0  0
 22 21  2  0  0  0  0
 23 18  1  0  0  0  0
 24 19  1  0  0  0  0
 26 28  1  0  0  0  0
 27 26  2  0  0  0  0
 28 29  1  0  0  0  0
 28  6  1  0  0  0  0
 30 31  1  0  0  0  0
 31 32  2  0  0  0  0
 31 26  1  0  0  0  0
 32 33  1  0  0  0  0
 34 35  1  0  0  0  0
 34 32  1  0  0  0  0
 36 34  2  0  0  0  0
 37 36  1  0  0  0  0
 37 30  2  0  0  0  0
 38 39  3  0  0  0  0
 39 30  1  0  0  0  0
M  END
>  <minimizedAffinity>
-5.37639904

$$$$

 OpenBabel03272509323D

 39 41  0  0  1  0  0  0  0  0999 V2000
   38.5970   26.1880   34.8750 C   0  0  2  0  0  0  0  0  0  0  0  0
   39.7600   27.0620   35.2290 C   0  0  0  0  0  0  0  0  0  0  0  0
   41.0710   26.5610   34.6660 C   0  0  0  0  0  0  0  0  0  0  0  0
   41.3470   25.1220   35.0910 C   0  0  0  0  0  0  0  0  0  0  0  0
   40.1020   24.2710   35.2030 C   0  0  0  0  0  0  0  0  0  0  0  0
   39.0280   24.8870   34.2880 C   0  0  1  0  0  0  0  0  0  0  0  0
   37.9420   25.9190   35.7440 H   0  0  0  0  0  0  0  0  0  0  0  0
   39.8830   26.9220   36.3570 H   0  0  0  0  0  0  0  0  0  0  0  0
   39.6540   28.1200   35.0820 H   0  0  0  0  0  0  0  0  0  0  0  0
   41.8730   27.1670   35.1820 H   0  0  0  0  0  0  0  0  0  0  0  0
   41.1990   26.6970   33.5960 H   0  0  0  0  0  0  0  0  0  0  0  0
   41.8860   25.0710   36.0450 H   0  0  0  0  0  0  0  0  0  0  0  0
   41.9640   24.6780   34.2580 H   0  0  0  0  0  0  0  0  0  0  0  0
   39.7020   24.3030   36.2220 H   0  0  0  0  0  0  0  0  0  0  0  0
   40.3050   23.2290   34.8870 H   0  0  0  0  0  0  0  0  0  0  0  0
   39.5890   25.0180   33.3980 H   0  0  0  0  0  0  0  0  0  0  0  0
   37.6880   26.8690   33.9140 C   0  0  0  0  0  0  0  0  0  0  0  0
   36.8300   27.8250   34.4660 C   0  0  0  0  0  0  0  0  0  0  0  0
   35.9650   28.4800   33.5820 C   0  0  0  0  0  0  0  0  0  0  0  0
   36.0060   28.1530   32.2450 N   0  0  0  0  0  0  0  0  0  0  0  0
   36.8710   27.2050   31.7580 C   0  0  0  0  0  0  0  0  0  0  0  0
   37.6990   26.5770   32.6090 N   0  0  0  0  0  0  0  0  0  0  0  0
   36.6910   28.1890   35.4650 H   0  0  0  0  0  0  0  0  0  0  0  0
   35.2520   29.2330   33.8480 H   0  0  0  0  0  0  0  0  0  0  0  0
   36.8460   27.0050   30.7040 H   0  0  0  0  0  0  0  0  0  0  0  0
   38.0840   22.6490   33.5440 C   0  0  0  0  0  0  0  0  0  0  0  0
   39.0690   21.8670   33.4640 O   0  0  0  0  0  0  0  0  0  0  0  0
   37.9710   24.0090   33.9360 N   0  0  0  0  0  0  0  0  0  0  0  0
   36.9400   24.2920   33.9310 H   0  0  0  0  0  0  0  0  0  0  0  0
   36.4190   22.0440   31.8330 C   0  0  0  0  0  0  0  0  0  0  0  0
   36.9390   21.8120   33.1100 C   0  0  0  0  0  0  0  0  0  0  0  0
   36.3630   20.8250   33.9040 C   0  0  0  0  0  0  0  0  0  0  0  0
   36.7930   20.6840   34.8680 H   0  0  0  0  0  0  0  0  0  0  0  0
   35.2890   20.1000   33.3970 C   0  0  0  0  0  0  0  0  0  0  0  0
   34.8450   19.3250   34.0340 H   0  0  0  0  0  0  0  0  0  0  0  0
   34.7860   20.3410   32.1320 C   0  0  0  0  0  3  0  0  0  0  0  0
   35.3430   21.3240   31.3150 C   0  0  0  0  0  3  0  0  0  0  0  0
   37.4410   23.8650   30.2780 N   0  0  0  0  0  0  0  0  0  0  0  0
   36.9820   23.0540   30.9770 C   0  0  0  0  0  0  0  0  0  0  0  0
  1  2  1  0  0  0  0
  1  7  1  1  0  0  0
  2  8  1  0  0  0  0
  3  4  1  0  0  0  0
  3 10  1  0  0  0  0
  3  2  1  0  0  0  0
  4  5  1  0  0  0  0
  4 12  1  0  0  0  0
  5 14  1  0  0  0  0
  6 16  1  6  0  0  0
  6  1  1  0  0  0  0
  6  5  1  0  0  0  0
  9  2  1  0  0  0  0
 11  3  1  0  0  0  0
 13  4  1  0  0  0  0
 15  5  1  0  0  0  0
 17 18  1  0  0  0  0
 17  1  1  0  0  0  0
 18 23  1  0  0  0  0
 19 24  1  0  0  0  0
 19 18  2  0  0  0  0
 20 19  1  0  0  0  0
 21 20  2  0  0  0  0
 21 22  1  0  0  0  0
 22 17  2  0  0  0  0
 25 21  1  0  0  0  0
 26 28  1  0  0  0  0
 27 26  2  0  0  0  0
 28  6  1  0  0  0  0
 29 28  1  0  0  0  0
 30 31  1  0  0  0  0
 31 26  1  0  0  0  0
 31 32  2  0  0  0  0
 32 33  1  0  0  0  0
 34 32  1  0  0  0  0
 34 35  1  0  0  0  0
 36 34  2  0  0  0  0
 37 30  2  0  0  0  0
 37 36  1  0  0  0  0
 38 39  3  0  0  0  0
 39 30  1  0  0  0  0
M  END
>  <minimizedAffinity>
-5.35131645

$$$$

 OpenBabel03272509323D

 39 41  0  0  1  0  0  0  0  0999 V2000
   36.2560   27.2410   32.1060 C   0  0  2  0  0  0  0  0  0  0  0  0
   35.8510   28.4620   31.3400 C   0  0  0  0  0  0  0  0  0  0  0  0
   36.3360   29.7470   31.9730 C   0  0  0  0  0  0  0  0  0  0  0  0
   35.8780   29.8600   33.4240 C   0  0  0  0  0  0  0  0  0  0  0  0
   35.8220   28.5350   34.1510 C   0  0  0  0  0  0  0  0  0  0  0  0
   36.8020   27.5750   33.4520 C   0  0  1  0  0  0  0  0  0  0  0  0
   35.4210   26.5170   32.2940 H   0  0  0  0  0  0  0  0  0  0  0  0
   34.7170   28.5110   31.4700 H   0  0  0  0  0  0  0  0  0  0  0  0
   36.0170   28.4660   30.2800 H   0  0  0  0  0  0  0  0  0  0  0  0
   35.7850   30.5740   31.4370 H   0  0  0  0  0  0  0  0  0  0  0  0
   37.3990   29.9420   31.8710 H   0  0  0  0  0  0  0  0  0  0  0  0
   34.8950   30.3400   33.5090 H   0  0  0  0  0  0  0  0  0  0  0  0
   36.6700   30.4750   33.9400 H   0  0  0  0  0  0  0  0  0  0  0  0
   34.8260   28.0870   34.0620 H   0  0  0  0  0  0  0  0  0  0  0  0
   36.1130   28.6530   35.2130 H   0  0  0  0  0  0  0  0  0  0  0  0
   37.6620   28.1920   33.3920 H   0  0  0  0  0  0  0  0  0  0  0  0
   37.2740   26.4520   31.3590 C   0  0  0  0  0  0  0  0  0  0  0  0
   38.2980   27.1950   30.7640 C   0  0  0  0  0  0  0  0  0  0  0  0
   39.2680   26.4760   30.0570 C   0  0  0  0  0  0  0  0  0  0  0  0
   39.1620   25.1040   29.9880 N   0  0  0  0  0  0  0  0  0  0  0  0
   38.1330   24.4260   30.5930 C   0  0  0  0  0  0  0  0  0  0  0  0
   37.2030   25.1190   31.2700 N   0  0  0  0  0  0  0  0  0  0  0  0
   38.5170   28.2440   30.7380 H   0  0  0  0  0  0  0  0  0  0  0  0
   40.1110   26.8960   29.5480 H   0  0  0  0  0  0  0  0  0  0  0  0
   38.1180   23.3580   30.4970 H   0  0  0  0  0  0  0  0  0  0  0  0
   38.0720   26.4640   35.3510 C   0  0  0  0  0  0  0  0  0  0  0  0
   38.6520   27.3960   35.9710 O   0  0  0  0  0  0  0  0  0  0  0  0
   37.1990   26.4580   34.2320 N   0  0  0  0  0  0  0  0  0  0  0  0
   36.8660   25.4590   34.0510 H   0  0  0  0  0  0  0  0  0  0  0  0
   39.5260   24.4810   35.4900 C   0  0  0  0  0  0  0  0  0  0  0  0
   38.5080   25.2430   36.0710 C   0  0  0  0  0  0  0  0  0  0  0  0
   37.9570   24.8230   37.2780 C   0  0  0  0  0  0  0  0  0  0  0  0
   37.1860   25.4350   37.6830 H   0  0  0  0  0  0  0  0  0  0  0  0
   38.4400   23.6580   37.8660 C   0  0  0  0  0  0  0  0  0  0  0  0
   37.9970   23.3400   38.8160 H   0  0  0  0  0  0  0  0  0  0  0  0
   39.4480   22.9160   37.2780 C   0  0  0  0  0  3  0  0  0  0  0  0
   40.0180   23.3120   36.0690 C   0  0  0  0  0  3  0  0  0  0  0  0
   40.6190   25.1910   33.2350 N   0  0  0  0  0  0  0  0  0  0  0  0
   40.1250   24.8760   34.2420 C   0  0  0  0  0  0  0  0  0  0  0  0
  1  7  1  1  0  0  0
  1  6  1  0  0  0  0
  2  8  1  0  0  0  0
  2  3  1  0  0  0  0
  2  1  1  0  0  0  0
  3  4  1  0  0  0  0
  4 12  1  0  0  0  0
  4 13  1  0  0  0  0
  4  5  1  0  0  0  0
  5 15  1  0  0  0  0
  6 16  1  6  0  0  0
  6  5  1  0  0  0  0
  6 28  1  0  0  0  0
  9  2  1  0  0  0  0
 10  3  1  0  0  0  0
 11  3  1  0  0  0  0
 14  5  1  0  0  0  0
 17  1  1  0  0  0  0
 18 17  2  0  0  0  0
 19 18  1  0  0  0  0
 20 19  2  0  0  0  0
 20 21  1  0  0  0  0
 21 22  2  0  0  0  0
 22 17  1  0  0  0  0
 23 18  1  0  0  0  0
 24 19  1  0  0  0  0
 25 21  1  0  0  0  0
 26 27  2  0  0  0  0
 26 31  1  0  0  0  0
 28 26  1  0  0  0  0
 29 28  1  0  0  0  0
 30 37  2  0  0  0  0
 30 31  1  0  0  0  0
 31 32  2  0  0  0  0
 32 33  1  0  0  0  0
 32 34  1  0  0  0  0
 34 35  1  0  0  0  0
 36 34  2  0  0  0  0
 37 36  1  0  0  0  0
 38 39  3  0  0  0  0
 39 30  1  0  0  0  0
M  END
>  <minimizedAffinity>
-5.24753284

$$$$

 OpenBabel03272509323D

 39 41  0  0  1  0  0  0  0  0999 V2000
   39.2080   23.8370   36.1840 C   0  0  2  0  0  0  0  0  0  0  0  0
   39.5610   23.0690   37.4200 C   0  0  0  0  0  0  0  0  0  0  0  0
   38.4390   23.0270   38.4320 C   0  0  0  0  0  0  0  0  0  0  0  0
   37.9700   24.4310   38.8030 C   0  0  0  0  0  0  0  0  0  0  0  0
   38.0310   25.4150   37.6570 C   0  0  0  0  0  0  0  0  0  0  0  0
   37.9470   24.6140   36.3450 C   0  0  1  0  0  0  0  0  0  0  0  0
   39.9810   24.5860   35.8720 H   0  0  0  0  0  0  0  0  0  0  0  0
   40.3580   23.7080   37.9300 H   0  0  0  0  0  0  0  0  0  0  0  0
   40.0070   22.1000   37.2960 H   0  0  0  0  0  0  0  0  0  0  0  0
   38.9020   22.6240   39.3800 H   0  0  0  0  0  0  0  0  0  0  0  0
   37.6050   22.3800   38.1760 H   0  0  0  0  0  0  0  0  0  0  0  0
   38.5400   24.8470   39.6430 H   0  0  0  0  0  0  0  0  0  0  0  0
   36.8810   24.3210   39.0730 H   0  0  0  0  0  0  0  0  0  0  0  0
   38.9940   25.9370   37.6450 H   0  0  0  0  0  0  0  0  0  0  0  0
   37.1890   26.1340   37.7070 H   0  0  0  0  0  0  0  0  0  0  0  0
   37.1170   23.9880   36.5570 H   0  0  0  0  0  0  0  0  0  0  0  0
   39.0670   22.9320   35.0110 C   0  0  0  0  0  0  0  0  0  0  0  0
   40.2570   22.6010   34.3560 C   0  0  0  0  0  0  0  0  0  0  0  0
   40.1500   21.7500   33.2490 C   0  0  0  0  0  0  0  0  0  0  0  0
   38.9050   21.2950   32.8760 N   0  0  0  0  0  0  0  0  0  0  0  0
   37.7690   21.6530   33.5590 C   0  0  0  0  0  0  0  0  0  0  0  0
   37.8740   22.4710   34.6190 N   0  0  0  0  0  0  0  0  0  0  0  0
   41.2820   22.8630   34.5290 H   0  0  0  0  0  0  0  0  0  0  0  0
   40.9640   21.4060   32.6440 H   0  0  0  0  0  0  0  0  0  0  0  0
   36.8350   21.2580   33.2090 H   0  0  0  0  0  0  0  0  0  0  0  0
   37.9870   26.6810   34.8670 C   0  0  0  0  0  0  0  0  0  0  0  0
   38.8190   27.4670   35.3950 O   0  0  0  0  0  0  0  0  0  0  0  0
   37.5600   25.3710   35.2090 N   0  0  0  0  0  0  0  0  0  0  0  0
   36.8810   25.0170   34.4620 H   0  0  0  0  0  0  0  0  0  0  0  0
   38.1090   27.2420   32.4730 C   0  0  0  0  0  0  0  0  0  0  0  0
   37.4770   27.4440   33.7030 C   0  0  0  0  0  0  0  0  0  0  0  0
   36.4170   28.3430   33.7770 C   0  0  0  0  0  0  0  0  0  0  0  0
   35.9660   28.4630   34.7330 H   0  0  0  0  0  0  0  0  0  0  0  0
   36.0220   29.0090   32.6200 C   0  0  0  0  0  0  0  0  0  0  0  0
   35.1860   29.7140   32.6940 H   0  0  0  0  0  0  0  0  0  0  0  0
   36.6590   28.7980   31.4110 C   0  0  0  0  0  3  0  0  0  0  0  0
   37.7230   27.9040   31.3080 C   0  0  0  0  0  3  0  0  0  0  0  0
   40.0990   25.5760   32.2570 N   0  0  0  0  0  0  0  0  0  0  0  0
   39.2100   26.3230   32.3490 C   0  0  0  0  0  0  0  0  0  0  0  0
  1  7  1  6  0  0  0
  1  6  1  0  0  0  0
  1  2  1  0  0  0  0
  2  8  1  0  0  0  0
  2  3  1  0  0  0  0
  3  4  1  0  0  0  0
  3 10  1  0  0  0  0
  4 13  1  0  0  0  0
  4 12  1  0  0  0  0
  5 15  1  0  0  0  0
  5  4  1  0  0  0  0
  6 16  1  1  0  0  0
  6  5  1  0  0  0  0
  9  2  1  0  0  0  0
 11  3  1  0  0  0  0
 14  5  1  0  0  0  0
 17  1  1  0  0  0  0
 18 23  1  0  0  0  0
 18 17  2  0  0  0  0
 19 18  1  0  0  0  0
 20 19  2  0  0  0  0
 20 21  1  0  0  0  0
 21 22  2  0  0  0  0
 22 17  1  0  0  0  0
 24 19  1  0  0  0  0
 25 21  1  0  0  0  0
 26 28  1  0  0  0  0
 26 27  2  0  0  0  0
 28  6  1  0  0  0  0
 29 28  1  0  0  0  0
 30 31  1  0  0  0  0
 31 32  2  0  0  0  0
 31 26  1  0  0  0  0
 32 33  1  0  0  0  0
 34 35  1  0  0  0  0
 34 32  1  0  0  0  0
 36 34  2  0  0  0  0
 37 36  1  0  0  0  0
 37 30  2  0  0  0  0
 38 39  3  0  0  0  0
 39 30  1  0  0  0  0
M  END
>  <minimizedAffinity>
-5.17010784

$$$$

 OpenBabel03272509323D

 39 41  0  0  1  0  0  0  0  0999 V2000
   38.5430   24.9990   33.5420 C   0  0  2  0  0  0  0  0  0  0  0  0
   38.5290   26.4620   33.8580 C   0  0  0  0  0  0  0  0  0  0  0  0
   37.2220   27.1340   33.5020 C   0  0  0  0  0  0  0  0  0  0  0  0
   36.8620   26.9110   32.0360 C   0  0  0  0  0  0  0  0  0  0  0  0
   37.2840   25.5590   31.5050 C   0  0  0  0  0  0  0  0  0  0  0  0
   37.3810   24.5940   32.7000 C   0  0  1  0  0  0  0  0  0  0  0  0
   39.4510   24.6590   32.9790 H   0  0  0  0  0  0  0  0  0  0  0  0
   39.2730   26.9170   33.1200 H   0  0  0  0  0  0  0  0  0  0  0  0
   38.8680   26.7670   34.8300 H   0  0  0  0  0  0  0  0  0  0  0  0
   37.4210   28.2430   33.5790 H   0  0  0  0  0  0  0  0  0  0  0  0
   36.3880   26.9060   34.1600 H   0  0  0  0  0  0  0  0  0  0  0  0
   37.2890   27.6840   31.3850 H   0  0  0  0  0  0  0  0  0  0  0  0
   35.7360   26.9320   31.9980 H   0  0  0  0  0  0  0  0  0  0  0  0
   38.2850   25.6130   31.0620 H   0  0  0  0  0  0  0  0  0  0  0  0
   36.5460   25.1730   30.7750 H   0  0  0  0  0  0  0  0  0  0  0  0
   36.4550   24.7900   33.1780 H   0  0  0  0  0  0  0  0  0  0  0  0
   38.5430   24.1810   34.7840 C   0  0  0  0  0  0  0  0  0  0  0  0
   37.9910   24.7940   35.9130 C   0  0  0  0  0  0  0  0  0  0  0  0
   37.9780   24.0440   37.0950 C   0  0  0  0  0  0  0  0  0  0  0  0
   38.4990   22.7690   37.0790 N   0  0  0  0  0  0  0  0  0  0  0  0
   39.0280   22.2160   35.9400 C   0  0  0  0  0  0  0  0  0  0  0  0
   39.0400   22.9390   34.8080 N   0  0  0  0  0  0  0  0  0  0  0  0
   37.5470   25.7560   36.0760 H   0  0  0  0  0  0  0  0  0  0  0  0
   37.5930   24.3710   38.0380 H   0  0  0  0  0  0  0  0  0  0  0  0
   39.4140   21.2180   36.0050 H   0  0  0  0  0  0  0  0  0  0  0  0
   36.1930   22.4590   32.0040 C   0  0  0  0  0  0  0  0  0  0  0  0
   34.9840   22.7740   31.8380 O   0  0  0  0  0  0  0  0  0  0  0  0
   37.3390   23.2180   32.3590 N   0  0  0  0  0  0  0  0  0  0  0  0
   38.2010   22.5860   32.3300 H   0  0  0  0  0  0  0  0  0  0  0  0
   36.0140   20.1440   32.8240 C   0  0  0  0  0  0  0  0  0  0  0  0
   36.2120   21.0000   31.7370 C   0  0  0  0  0  0  0  0  0  0  0  0
   36.4210   20.4520   30.4750 C   0  0  0  0  0  0  0  0  0  0  0  0
   36.5660   21.1420   29.6780 H   0  0  0  0  0  0  0  0  0  0  0  0
   36.4220   19.0670   30.3390 C   0  0  0  0  0  0  0  0  0  0  0  0
   36.5870   18.6490   29.3390 H   0  0  0  0  0  0  0  0  0  0  0  0
   36.2240   18.2330   31.4240 C   0  0  0  0  0  3  0  0  0  0  0  0
   36.0140   18.7550   32.6990 C   0  0  0  0  0  3  0  0  0  0  0  0
   35.6230   21.0800   35.2220 N   0  0  0  0  0  0  0  0  0  0  0  0
   35.7950   20.6660   34.1480 C   0  0  0  0  0  0  0  0  0  0  0  0
  1  7  1  6  0  0  0
  1  2  1  0  0  0  0
  1 17  1  0  0  0  0
  2  9  1  0  0  0  0
  3 10  1  0  0  0  0
  3  2  1  0  0  0  0
  3 11  1  0  0  0  0
  4  3  1  0  0  0  0
  5  4  1  0  0  0  0
  5  6  1  0  0  0  0
  6 16  1  1  0  0  0
  6  1  1  0  0  0  0
  8  2  1  0  0  0  0
 12  4  1  0  0  0  0
 13  4  1  0  0  0  0
 14  5  1  0  0  0  0
 15  5  1  0  0  0  0
 17 22  2  0  0  0  0
 17 18  1  0  0  0  0
 18 23  1  0  0  0  0
 18 19  2  0  0  0  0
 19 24  1  0  0  0  0
 20 19  1  0  0  0  0
 21 25  1  0  0  0  0
 21 20  2  0  0  0  0
 22 21  1  0  0  0  0
 26 28  1  0  0  0  0
 27 26  2  0  0  0  0
 28  6  1  0  0  0  0
 29 28  1  0  0  0  0
 30 39  1  0  0  0  0
 31 26  1  0  0  0  0
 31 30  2  0  0  0  0
 32 31  1  0  0  0  0
 33 32  1  0  0  0  0
 34 32  2  0  0  0  0
 34 36  1  0  0  0  0
 35 34  1  0  0  0  0
 36 37  2  0  0  0  0
 37 30  1  0  0  0  0
 39 38  3  0  0  0  0
M  END
>  <minimizedAffinity>
-5.15948534

$$$$
