
 OpenBabel03272503053D

 33 35  0  0  0  0  0  0  0  0999 V2000
   38.5490   30.6470   46.1290 F   0  0  0  0  0  0  0  0  0  0  0  0
   38.8960   31.7600   46.8320 C   0  0  0  0  0  0  0  0  0  0  0  0
   38.4620   31.9110   48.1290 C   0  0  0  0  0  0  0  0  0  0  0  0
   38.8430   33.0450   48.7790 C   0  0  0  0  0  0  0  0  0  0  0  0
   39.6250   34.0200   48.2030 C   0  0  0  0  0  0  0  0  0  0  0  0
   40.0520   33.8490   46.9000 C   0  0  0  0  0  0  0  0  0  0  0  0
   39.6820   32.7040   46.2070 C   0  0  0  0  0  0  0  0  0  0  0  0
   38.5020   33.1790   49.8130 H   0  0  0  0  0  0  0  0  0  0  0  0
   39.9080   34.9070   48.7690 H   0  0  0  0  0  0  0  0  0  0  0  0
   40.6680   34.5800   46.3950 H   0  0  0  0  0  0  0  0  0  0  0  0
   37.1790   29.1570   50.3900 C   0  0  0  0  0  0  0  0  0  0  0  0
   37.9950   30.1760   49.8620 C   0  0  0  0  0  0  0  0  0  0  0  0
   37.6300   30.8430   48.7040 C   0  0  0  0  0  0  0  0  0  0  0  0
   36.4630   30.4740   48.1110 N   0  0  0  0  0  0  0  0  0  0  0  0
   35.6940   29.4990   48.6260 C   0  0  0  0  0  0  0  0  0  0  0  0
   36.0360   28.8490   49.7380 N   0  0  0  0  0  0  0  0  0  0  0  0
   37.6390   28.7650   51.2890 H   0  0  0  0  0  0  0  0  0  0  0  0
   38.9410   30.5190   50.2890 H   0  0  0  0  0  0  0  0  0  0  0  0
   34.7670   29.1620   48.2070 H   0  0  0  0  0  0  0  0  0  0  0  0
   39.0560   32.6830   43.8870 C   0  0  0  0  0  0  0  0  0  0  0  0
   37.9130   33.0100   44.3770 O   0  0  0  0  0  0  0  0  0  0  0  0
   40.1040   32.4910   44.8590 N   0  0  0  0  0  0  0  0  0  0  0  0
   41.0060   32.2290   44.4350 H   0  0  0  0  0  0  0  0  0  0  0  0
   39.8020   31.4400   41.9930 C   0  0  0  0  0  0  0  0  0  0  0  0
   39.1300   32.5530   42.4390 C   0  0  0  0  0  0  0  0  0  0  0  0
   38.5640   33.4900   41.6040 C   0  0  0  0  0  0  0  0  0  0  0  0
   38.0480   34.3480   41.9880 H   0  0  0  0  0  0  0  0  0  0  0  0
   38.7320   33.2150   40.2450 C   0  0  0  0  0  0  0  0  0  0  0  0
   38.3030   33.9180   39.5240 H   0  0  0  0  0  0  0  0  0  0  0  0
   39.3940   32.1180   39.7730 C   0  0  0  0  0  3  0  0  0  0  0  0
   39.9570   31.1840   40.6430 C   0  0  0  0  0  3  0  0  0  0  0  0
   40.8560   29.6780   43.6030 N   0  0  0  0  0  0  0  0  0  0  0  0
   40.3990   30.4550   42.8840 C   0  0  0  0  0  0  0  0  0  0  0  0
  1  2  1  0  0  0  0
  2  3  1  0  0  0  0
  3 13  1  0  0  0  0
  3  4  2  0  0  0  0
  4  8  1  0  0  0  0
  5  9  1  0  0  0  0
  5  4  1  0  0  0  0
  6  5  2  0  0  0  0
  7  2  2  0  0  0  0
  7  6  1  0  0  0  0
 10  6  1  0  0  0  0
 11 17  1  0  0  0  0
 12 18  1  0  0  0  0
 12 11  1  0  0  0  0
 13 12  2  0  0  0  0
 14 15  2  0  0  0  0
 14 13  1  0  0  0  0
 15 16  1  0  0  0  0
 16 11  2  0  0  0  0
 19 15  1  0  0  0  0
 20 21  2  0  0  0  0
 20 22  1  0  0  0  0
 22  7  1  0  0  0  0
 23 22  1  0  0  0  0
 24 25  1  0  0  0  0
 24 33  1  0  0  0  0
 25 20  1  0  0  0  0
 26 27  1  0  0  0  0
 26 25  2  0  0  0  0
 28 26  1  0  0  0  0
 29 28  1  0  0  0  0
 30 28  2  0  0  0  0
 30 31  1  0  0  0  0
 31 24  2  0  0  0  0
 33 32  3  0  0  0  0
M  END
>  <minimizedAffinity>
-5.50014067

>  <minimizedRMSD>
1.19362545

$$$$
