
 OpenBabel03272507533D

 33 35  0  0  0  0  0  0  0  0999 V2000
   37.0570   28.5700   32.0720 N   0  0  0  0  0  0  0  0  0  0  0  0
   37.0560   29.2870   30.9510 C   0  0  0  0  0  0  0  0  0  0  0  0
   36.3420   30.4860   30.9020 C   0  0  0  0  0  0  0  0  0  0  0  0
   35.6920   30.8180   32.0510 C   0  0  0  0  0  0  0  0  0  0  0  0
   35.0460   31.9110   31.9910 O   0  0  0  0  0  0  0  0  0  0  0  0
   35.6660   30.1320   33.1890 N   0  0  0  0  0  0  0  0  0  0  0  0
   36.3740   28.9790   33.1790 C   0  0  0  0  0  0  0  0  0  0  0  0
   36.3610   28.3070   34.2660 O   0  0  0  0  0  0  0  0  0  0  0  0
   37.6070   28.9410   30.0820 H   0  0  0  0  0  0  0  0  0  0  0  0
   36.3240   31.0800   30.0180 H   0  0  0  0  0  0  0  0  0  0  0  0
   37.1940   26.1910   31.5830 C   0  0  0  0  0  0  0  0  0  0  0  0
   37.7620   27.3280   32.2000 C   0  0  0  0  0  0  0  0  0  0  0  0
   38.9710   27.1900   32.9030 C   0  0  0  0  0  0  0  0  0  0  0  0
   39.5330   25.9580   32.9480 N   0  0  0  0  0  0  0  0  0  0  0  0
   39.0000   24.8950   32.3700 C   0  0  0  0  0  0  0  0  0  0  0  0
   37.8420   25.0110   31.6940 N   0  0  0  0  0  0  0  0  0  0  0  0
   39.3540   28.0850   33.3490 H   0  0  0  0  0  0  0  0  0  0  0  0
   39.4810   23.9180   32.4300 H   0  0  0  0  0  0  0  0  0  0  0  0
   34.8710   25.3310   30.7710 C   0  0  0  0  0  0  0  0  0  0  0  0
   34.8050   24.2980   31.4690 O   0  0  0  0  0  0  0  0  0  0  0  0
   35.9920   26.2260   30.8460 N   0  0  0  0  0  0  0  0  0  0  0  0
   34.0350   25.5030   30.1130 H   0  0  0  0  0  0  0  0  0  0  0  0
   35.8330   27.0640   30.2060 H   0  0  0  0  0  0  0  0  0  0  0  0
   33.6310   30.2800   34.6380 C   0  0  0  0  0  0  0  0  0  0  0  0
   34.9590   30.5430   34.3550 C   0  0  0  0  0  0  0  0  0  0  0  0
   35.7630   31.2620   35.2190 C   0  0  0  0  0  0  0  0  0  0  0  0
   36.8010   31.5060   35.0690 H   0  0  0  0  0  0  0  0  0  0  0  0
   35.2270   31.7420   36.4160 C   0  0  0  0  0  0  0  0  0  0  0  0
   35.8230   32.3120   37.1230 H   0  0  0  0  0  0  0  0  0  0  0  0
   33.8820   31.4800   36.7080 C   0  0  0  0  0  3  0  0  0  0  0  0
   33.0920   30.7530   35.8220 C   0  0  0  0  0  3  0  0  0  0  0  0
   32.3100   28.9080   32.8930 N   0  0  0  0  0  0  0  0  0  0  0  0
   32.9070   29.5260   33.6650 C   0  0  0  0  0  0  0  0  0  0  0  0
  1 12  1  0  0  0  0
  1  7  1  0  0  0  0
  2  1  1  0  0  0  0
  3  2  2  0  0  0  0
  3  4  1  0  0  0  0
  4  6  1  0  0  0  0
  5  4  2  0  0  0  0
  6 25  1  0  0  0  0
  7  6  1  0  0  0  0
  7  8  2  0  0  0  0
  9  2  1  0  0  0  0
 10  3  1  0  0  0  0
 11 16  2  0  0  0  0
 11 12  1  0  0  0  0
 12 13  2  0  0  0  0
 13 14  1  0  0  0  0
 13 17  1  0  0  0  0
 15 18  1  0  0  0  0
 15 14  2  0  0  0  0
 16 15  1  0  0  0  0
 19 21  1  0  0  0  0
 19 20  2  0  0  0  0
 21 11  1  0  0  0  0
 22 19  1  0  0  0  0
 23 21  1  0  0  0  0
 24 31  1  0  0  0  0
 25 24  2  0  0  0  0
 25 26  1  0  0  0  0
 26 28  2  0  0  0  0
 27 26  1  0  0  0  0
 28 30  1  0  0  0  0
 28 29  1  0  0  0  0
 31 30  2  0  0  0  0
 32 33  3  0  0  0  0
 33 24  1  0  0  0  0
M  END
>  <minimizedAffinity>
-5.42310286

$$$$

 OpenBabel03272507533D

 33 35  0  0  0  0  0  0  0  0999 V2000
   39.2440   23.5150   34.6540 N   0  0  0  0  0  0  0  0  0  0  0  0
   40.1390   24.2460   33.9960 C   0  0  0  0  0  0  0  0  0  0  0  0
   40.2580   24.1060   32.6120 C   0  0  0  0  0  0  0  0  0  0  0  0
   39.4130   23.1980   32.0490 C   0  0  0  0  0  0  0  0  0  0  0  0
   39.5330   23.0810   30.7890 O   0  0  0  0  0  0  0  0  0  0  0  0
   38.5070   22.4480   32.6690 N   0  0  0  0  0  0  0  0  0  0  0  0
   38.4360   22.6270   34.0080 C   0  0  0  0  0  0  0  0  0  0  0  0
   37.5690   21.9130   34.6200 O   0  0  0  0  0  0  0  0  0  0  0  0
   40.7710   24.9470   34.5320 H   0  0  0  0  0  0  0  0  0  0  0  0
   40.9660   24.6780   32.0600 H   0  0  0  0  0  0  0  0  0  0  0  0
   38.2060   24.6080   36.5640 C   0  0  0  0  0  0  0  0  0  0  0  0
   39.0640   23.5990   36.0750 C   0  0  0  0  0  0  0  0  0  0  0  0
   39.6950   22.7380   36.9900 C   0  0  0  0  0  0  0  0  0  0  0  0
   39.4400   22.9260   38.3070 N   0  0  0  0  0  0  0  0  0  0  0  0
   38.6370   23.8720   38.7620 C   0  0  0  0  0  0  0  0  0  0  0  0
   38.0260   24.7040   37.8990 N   0  0  0  0  0  0  0  0  0  0  0  0
   40.3330   21.9920   36.5610 H   0  0  0  0  0  0  0  0  0  0  0  0
   38.4570   23.9940   39.8320 H   0  0  0  0  0  0  0  0  0  0  0  0
   37.7720   26.8780   35.3580 C   0  0  0  0  0  0  0  0  0  0  0  0
   38.7860   27.4910   35.7520 O   0  0  0  0  0  0  0  0  0  0  0  0
   37.5180   25.5140   35.7300 N   0  0  0  0  0  0  0  0  0  0  0  0
   37.1060   27.4390   34.7230 H   0  0  0  0  0  0  0  0  0  0  0  0
   36.6290   25.1660   35.2560 H   0  0  0  0  0  0  0  0  0  0  0  0
   36.4280   21.7980   31.4380 C   0  0  0  0  0  0  0  0  0  0  0  0
   37.6550   21.5160   32.0110 C   0  0  0  0  0  0  0  0  0  0  0  0
   38.1940   20.2440   31.9990 C   0  0  0  0  0  0  0  0  0  0  0  0
   39.1390   19.9480   32.4220 H   0  0  0  0  0  0  0  0  0  0  0  0
   37.4860   19.2040   31.3920 C   0  0  0  0  0  0  0  0  0  0  0  0
   37.8740   18.1900   31.3600 H   0  0  0  0  0  0  0  0  0  0  0  0
   36.2430   19.4820   30.8090 C   0  0  0  0  0  3  0  0  0  0  0  0
   35.7200   20.7720   30.8340 C   0  0  0  0  0  3  0  0  0  0  0  0
   35.6110   24.2440   31.5610 N   0  0  0  0  0  0  0  0  0  0  0  0
   35.9800   23.1510   31.5160 C   0  0  0  0  0  0  0  0  0  0  0  0
  1 12  1  0  0  0  0
  2  9  1  0  0  0  0
  2  1  1  0  0  0  0
  3  2  2  0  0  0  0
  4  3  1  0  0  0  0
  4  6  1  0  0  0  0
  5  4  2  0  0  0  0
  6  7  1  0  0  0  0
  7  8  2  0  0  0  0
  7  1  1  0  0  0  0
 10  3  1  0  0  0  0
 11 16  1  0  0  0  0
 12 11  2  0  0  0  0
 12 13  1  0  0  0  0
 13 14  2  0  0  0  0
 14 15  1  0  0  0  0
 15 18  1  0  0  0  0
 16 15  2  0  0  0  0
 17 13  1  0  0  0  0
 19 21  1  0  0  0  0
 19 20  2  0  0  0  0
 21 11  1  0  0  0  0
 22 19  1  0  0  0  0
 23 21  1  0  0  0  0
 24 33  1  0  0  0  0
 24 25  1  0  0  0  0
 25  6  1  0  0  0  0
 26 25  2  0  0  0  0
 26 27  1  0  0  0  0
 28 26  1  0  0  0  0
 29 28  1  0  0  0  0
 30 31  1  0  0  0  0
 30 28  2  0  0  0  0
 31 24  2  0  0  0  0
 33 32  3  0  0  0  0
M  END
>  <minimizedAffinity>
-5.32350922

$$$$

 OpenBabel03272507533D

 33 35  0  0  0  0  0  0  0  0999 V2000
   39.1100   23.8220   34.3660 N   0  0  0  0  0  0  0  0  0  0  0  0
   38.6900   25.0690   34.1720 C   0  0  0  0  0  0  0  0  0  0  0  0
   37.6220   25.3090   33.3060 C   0  0  0  0  0  0  0  0  0  0  0  0
   37.0930   24.1990   32.7210 C   0  0  0  0  0  0  0  0  0  0  0  0
   36.1220   24.4330   31.9350 O   0  0  0  0  0  0  0  0  0  0  0  0
   37.4820   22.9390   32.8860 N   0  0  0  0  0  0  0  0  0  0  0  0
   38.5200   22.7660   33.7360 C   0  0  0  0  0  0  0  0  0  0  0  0
   38.9070   21.5600   33.9060 O   0  0  0  0  0  0  0  0  0  0  0  0
   39.1750   25.8940   34.6860 H   0  0  0  0  0  0  0  0  0  0  0  0
   37.2650   26.2970   33.1330 H   0  0  0  0  0  0  0  0  0  0  0  0
   39.8860   22.9610   36.5050 C   0  0  0  0  0  0  0  0  0  0  0  0
   40.2020   23.4950   35.2370 C   0  0  0  0  0  0  0  0  0  0  0  0
   41.5520   23.6810   34.8920 C   0  0  0  0  0  0  0  0  0  0  0  0
   42.4880   23.3320   35.8080 N   0  0  0  0  0  0  0  0  0  0  0  0
   42.1890   22.8320   36.9950 C   0  0  0  0  0  0  0  0  0  0  0  0
   40.9010   22.6490   37.3400 N   0  0  0  0  0  0  0  0  0  0  0  0
   41.7310   24.0890   33.9180 H   0  0  0  0  0  0  0  0  0  0  0  0
   42.9710   22.5640   37.7080 H   0  0  0  0  0  0  0  0  0  0  0  0
   37.7130   23.4100   37.8730 C   0  0  0  0  0  0  0  0  0  0  0  0
   38.0760   24.4530   38.4560 O   0  0  0  0  0  0  0  0  0  0  0  0
   38.5660   22.7260   36.9420 N   0  0  0  0  0  0  0  0  0  0  0  0
   36.7230   23.0610   38.1170 H   0  0  0  0  0  0  0  0  0  0  0  0
   38.0540   21.8880   36.5260 H   0  0  0  0  0  0  0  0  0  0  0  0
   37.2640   21.2810   31.0240 C   0  0  0  0  0  0  0  0  0  0  0  0
   36.8790   21.8240   32.2370 C   0  0  0  0  0  0  0  0  0  0  0  0
   35.8240   21.3110   32.9660 C   0  0  0  0  0  0  0  0  0  0  0  0
   35.4660   21.6770   33.9140 H   0  0  0  0  0  0  0  0  0  0  0  0
   35.1190   20.2110   32.4730 C   0  0  0  0  0  0  0  0  0  0  0  0
   34.2830   19.7760   33.0140 H   0  0  0  0  0  0  0  0  0  0  0  0
   35.5030   19.6560   31.2450 C   0  0  0  0  0  3  0  0  0  0  0  0
   36.5700   20.1910   30.5280 C   0  0  0  0  0  3  0  0  0  0  0  0
   39.2520   22.4080   29.8200 N   0  0  0  0  0  0  0  0  0  0  0  0
   38.3700   21.9020   30.3670 C   0  0  0  0  0  0  0  0  0  0  0  0
  1 12  1  0  0  0  0
  2  1  1  0  0  0  0
  2  9  1  0  0  0  0
  3  2  2  0  0  0  0
  4  6  1  0  0  0  0
  4  3  1  0  0  0  0
  5  4  2  0  0  0  0
  6  7  1  0  0  0  0
  7  8  2  0  0  0  0
  7  1  1  0  0  0  0
 10  3  1  0  0  0  0
 11 21  1  0  0  0  0
 11 16  1  0  0  0  0
 12 11  2  0  0  0  0
 13 12  1  0  0  0  0
 13 14  2  0  0  0  0
 14 15  1  0  0  0  0
 15 16  2  0  0  0  0
 15 18  1  0  0  0  0
 17 13  1  0  0  0  0
 19 22  1  0  0  0  0
 19 20  2  0  0  0  0
 21 19  1  0  0  0  0
 23 21  1  0  0  0  0
 24 25  1  0  0  0  0
 25  6  1  0  0  0  0
 25 26  2  0  0  0  0
 26 27  1  0  0  0  0
 28 26  1  0  0  0  0
 28 29  1  0  0  0  0
 30 28  2  0  0  0  0
 31 24  2  0  0  0  0
 31 30  1  0  0  0  0
 32 33  3  0  0  0  0
 33 24  1  0  0  0  0
M  END
>  <minimizedAffinity>
-5.27172518

$$$$

 OpenBabel03272507533D

 33 35  0  0  0  0  0  0  0  0999 V2000
   38.6710   22.5430   33.9890 N   0  0  0  0  0  0  0  0  0  0  0  0
   37.7870   21.6380   33.5770 C   0  0  0  0  0  0  0  0  0  0  0  0
   36.7870   22.0120   32.6780 C   0  0  0  0  0  0  0  0  0  0  0  0
   36.8150   23.3190   32.2960 C   0  0  0  0  0  0  0  0  0  0  0  0
   35.8990   23.6460   31.4770 O   0  0  0  0  0  0  0  0  0  0  0  0
   37.6770   24.2540   32.6830 N   0  0  0  0  0  0  0  0  0  0  0  0
   38.6230   23.8340   33.5540 C   0  0  0  0  0  0  0  0  0  0  0  0
   39.4610   24.7210   33.9370 O   0  0  0  0  0  0  0  0  0  0  0  0
   37.8450   20.6150   33.9380 H   0  0  0  0  0  0  0  0  0  0  0  0
   36.0670   21.3080   32.3310 H   0  0  0  0  0  0  0  0  0  0  0  0
   39.4190   22.3020   36.2920 C   0  0  0  0  0  0  0  0  0  0  0  0
   39.7240   22.2370   34.9140 C   0  0  0  0  0  0  0  0  0  0  0  0
   41.0260   21.8840   34.5200 C   0  0  0  0  0  0  0  0  0  0  0  0
   41.9280   21.6210   35.4960 N   0  0  0  0  0  0  0  0  0  0  0  0
   41.6410   21.6820   36.7850 C   0  0  0  0  0  0  0  0  0  0  0  0
   40.3990   22.0190   37.1780 N   0  0  0  0  0  0  0  0  0  0  0  0
   41.1980   21.8510   33.4620 H   0  0  0  0  0  0  0  0  0  0  0  0
   42.3950   21.4640   37.5430 H   0  0  0  0  0  0  0  0  0  0  0  0
   37.5420   23.8820   37.1700 C   0  0  0  0  0  0  0  0  0  0  0  0
   38.1480   24.9680   37.0540 O   0  0  0  0  0  0  0  0  0  0  0  0
   38.1430   22.6340   36.7900 N   0  0  0  0  0  0  0  0  0  0  0  0
   36.5440   23.9470   37.5730 H   0  0  0  0  0  0  0  0  0  0  0  0
   37.4470   21.8380   36.9270 H   0  0  0  0  0  0  0  0  0  0  0  0
   38.2220   26.0990   31.0840 C   0  0  0  0  0  0  0  0  0  0  0  0
   37.6430   25.6070   32.2390 C   0  0  0  0  0  0  0  0  0  0  0  0
   36.9450   26.4190   33.1130 C   0  0  0  0  0  0  0  0  0  0  0  0
   36.4690   26.1100   34.0280 H   0  0  0  0  0  0  0  0  0  0  0  0
   36.8150   27.7800   32.8280 C   0  0  0  0  0  0  0  0  0  0  0  0
   36.2750   28.4530   33.4870 H   0  0  0  0  0  0  0  0  0  0  0  0
   37.3990   28.2860   31.6600 C   0  0  0  0  0  3  0  0  0  0  0  0
   38.0970   27.4470   30.7950 C   0  0  0  0  0  3  0  0  0  0  0  0
   39.4610   24.3880   29.5980 N   0  0  0  0  0  0  0  0  0  0  0  0
   38.9160   25.1590   30.2640 C   0  0  0  0  0  0  0  0  0  0  0  0
  1 12  1  0  0  0  0
  2  9  1  0  0  0  0
  2  1  1  0  0  0  0
  3  2  2  0  0  0  0
  4  3  1  0  0  0  0
  4  6  1  0  0  0  0
  5  4  2  0  0  0  0
  6  7  1  0  0  0  0
  7  8  2  0  0  0  0
  7  1  1  0  0  0  0
 10  3  1  0  0  0  0
 11 21  1  0  0  0  0
 11 16  1  0  0  0  0
 12 11  2  0  0  0  0
 13 12  1  0  0  0  0
 13 14  2  0  0  0  0
 14 15  1  0  0  0  0
 15 16  2  0  0  0  0
 15 18  1  0  0  0  0
 17 13  1  0  0  0  0
 19 22  1  0  0  0  0
 20 19  2  0  0  0  0
 21 23  1  0  0  0  0
 21 19  1  0  0  0  0
 24 25  1  0  0  0  0
 25  6  1  0  0  0  0
 25 26  2  0  0  0  0
 26 27  1  0  0  0  0
 28 26  1  0  0  0  0
 28 29  1  0  0  0  0
 30 28  2  0  0  0  0
 31 24  2  0  0  0  0
 31 30  1  0  0  0  0
 32 33  3  0  0  0  0
 33 24  1  0  0  0  0
M  END
>  <minimizedAffinity>
-5.2351284

$$$$

 OpenBabel03272507533D

 33 35  0  0  0  0  0  0  0  0999 V2000
   39.0560   23.6800   34.7270 N   0  0  0  0  0  0  0  0  0  0  0  0
   39.9120   24.4590   34.0710 C   0  0  0  0  0  0  0  0  0  0  0  0
   40.0240   24.3430   32.6840 C   0  0  0  0  0  0  0  0  0  0  0  0
   39.2150   23.4070   32.1160 C   0  0  0  0  0  0  0  0  0  0  0  0
   39.3280   23.3120   30.8530 O   0  0  0  0  0  0  0  0  0  0  0  0
   38.3490   22.6090   32.7320 N   0  0  0  0  0  0  0  0  0  0  0  0
   38.2830   22.7650   34.0750 C   0  0  0  0  0  0  0  0  0  0  0  0
   37.4550   22.0050   34.6840 O   0  0  0  0  0  0  0  0  0  0  0  0
   40.5170   25.1800   34.6110 H   0  0  0  0  0  0  0  0  0  0  0  0
   40.7000   24.9550   32.1340 H   0  0  0  0  0  0  0  0  0  0  0  0
   39.7050   22.8960   36.9360 C   0  0  0  0  0  0  0  0  0  0  0  0
   38.8860   23.7360   36.1500 C   0  0  0  0  0  0  0  0  0  0  0  0
   37.9550   24.5730   36.7880 C   0  0  0  0  0  0  0  0  0  0  0  0
   37.8950   24.5280   38.1410 N   0  0  0  0  0  0  0  0  0  0  0  0
   38.6620   23.7400   38.8750 C   0  0  0  0  0  0  0  0  0  0  0  0
   39.5580   22.9330   38.2790 N   0  0  0  0  0  0  0  0  0  0  0  0
   37.3630   25.1870   36.1410 H   0  0  0  0  0  0  0  0  0  0  0  0
   38.5840   23.7300   39.9640 H   0  0  0  0  0  0  0  0  0  0  0  0
   42.0830   22.1760   36.1490 C   0  0  0  0  0  0  0  0  0  0  0  0
   42.7010   23.2160   36.4610 O   0  0  0  0  0  0  0  0  0  0  0  0
   40.6760   22.0280   36.3940 N   0  0  0  0  0  0  0  0  0  0  0  0
   42.6750   21.4040   35.6850 H   0  0  0  0  0  0  0  0  0  0  0  0
   40.3540   21.0570   36.0960 H   0  0  0  0  0  0  0  0  0  0  0  0
   36.3130   21.8940   31.4660 C   0  0  0  0  0  0  0  0  0  0  0  0
   37.5330   21.6480   32.0690 C   0  0  0  0  0  0  0  0  0  0  0  0
   38.1020   20.3890   32.0860 C   0  0  0  0  0  0  0  0  0  0  0  0
   39.0440   20.1210   32.5330 H   0  0  0  0  0  0  0  0  0  0  0  0
   37.4320   19.3260   31.4770 C   0  0  0  0  0  0  0  0  0  0  0  0
   37.8440   18.3200   31.4670 H   0  0  0  0  0  0  0  0  0  0  0  0
   36.1960   19.5660   30.8640 C   0  0  0  0  0  3  0  0  0  0  0  0
   35.6430   20.8450   30.8610 C   0  0  0  0  0  3  0  0  0  0  0  0
   35.4610   24.3290   31.5670 N   0  0  0  0  0  0  0  0  0  0  0  0
   35.8330   23.2370   31.5160 C   0  0  0  0  0  0  0  0  0  0  0  0
  1 12  1  0  0  0  0
  2  9  1  0  0  0  0
  2  1  1  0  0  0  0
  3  2  2  0  0  0  0
  4  3  1  0  0  0  0
  4  6  1  0  0  0  0
  5  4  2  0  0  0  0
  6  7  1  0  0  0  0
  7  8  2  0  0  0  0
  7  1  1  0  0  0  0
 10  3  1  0  0  0  0
 11 16  1  0  0  0  0
 12 13  1  0  0  0  0
 12 11  2  0  0  0  0
 13 14  2  0  0  0  0
 14 15  1  0  0  0  0
 15 18  1  0  0  0  0
 16 15  2  0  0  0  0
 17 13  1  0  0  0  0
 19 21  1  0  0  0  0
 19 20  2  0  0  0  0
 21 11  1  0  0  0  0
 22 19  1  0  0  0  0
 23 21  1  0  0  0  0
 24 33  1  0  0  0  0
 24 25  1  0  0  0  0
 25 26  2  0  0  0  0
 25  6  1  0  0  0  0
 26 27  1  0  0  0  0
 28 26  1  0  0  0  0
 29 28  1  0  0  0  0
 30 28  2  0  0  0  0
 31 30  1  0  0  0  0
 31 24  2  0  0  0  0
 33 32  3  0  0  0  0
M  END
>  <minimizedAffinity>
-5.21686697

$$$$

 OpenBabel03272507533D

 33 35  0  0  0  0  0  0  0  0999 V2000
   39.1190   23.5820   34.0380 N   0  0  0  0  0  0  0  0  0  0  0  0
   38.5100   24.7500   33.8480 C   0  0  0  0  0  0  0  0  0  0  0  0
   37.3910   24.8150   33.0160 C   0  0  0  0  0  0  0  0  0  0  0  0
   37.0170   23.6310   32.4580 C   0  0  0  0  0  0  0  0  0  0  0  0
   35.9980   23.7050   31.7030 O   0  0  0  0  0  0  0  0  0  0  0  0
   37.5960   22.4450   32.6190 N   0  0  0  0  0  0  0  0  0  0  0  0
   38.6760   22.4420   33.4360 C   0  0  0  0  0  0  0  0  0  0  0  0
   39.2450   21.3100   33.6030 O   0  0  0  0  0  0  0  0  0  0  0  0
   38.8810   25.6440   34.3390 H   0  0  0  0  0  0  0  0  0  0  0  0
   36.8840   25.7360   32.8470 H   0  0  0  0  0  0  0  0  0  0  0  0
   40.0820   22.8830   36.1600 C   0  0  0  0  0  0  0  0  0  0  0  0
   40.2750   23.4350   34.8740 C   0  0  0  0  0  0  0  0  0  0  0  0
   41.5710   23.8100   34.4810 C   0  0  0  0  0  0  0  0  0  0  0  0
   42.5770   23.6180   35.3680 N   0  0  0  0  0  0  0  0  0  0  0  0
   42.3940   23.1010   36.5710 C   0  0  0  0  0  0  0  0  0  0  0  0
   41.1590   22.7380   36.9620 N   0  0  0  0  0  0  0  0  0  0  0  0
   41.6560   24.2220   33.4950 H   0  0  0  0  0  0  0  0  0  0  0  0
   43.2290   22.9630   37.2600 H   0  0  0  0  0  0  0  0  0  0  0  0
   37.7330   23.1730   37.2530 C   0  0  0  0  0  0  0  0  0  0  0  0
   37.7570   24.4110   37.4110 O   0  0  0  0  0  0  0  0  0  0  0  0
   38.8260   22.4650   36.6450 N   0  0  0  0  0  0  0  0  0  0  0  0
   36.8440   22.6750   37.6030 H   0  0  0  0  0  0  0  0  0  0  0  0
   38.5890   21.4280   36.5660 H   0  0  0  0  0  0  0  0  0  0  0  0
   36.3120   20.2990   32.5650 C   0  0  0  0  0  0  0  0  0  0  0  0
   37.1480   21.2440   31.9990 C   0  0  0  0  0  0  0  0  0  0  0  0
   37.6500   21.1060   30.7200 C   0  0  0  0  0  0  0  0  0  0  0  0
   38.3030   21.7960   30.2130 H   0  0  0  0  0  0  0  0  0  0  0  0
   37.3090   19.9810   29.9660 C   0  0  0  0  0  0  0  0  0  0  0  0
   37.6810   19.8330   28.9560 H   0  0  0  0  0  0  0  0  0  0  0  0
   36.4630   19.0190   30.5330 C   0  0  0  0  0  3  0  0  0  0  0  0
   35.9690   19.1800   31.8250 C   0  0  0  0  0  3  0  0  0  0  0  0
   35.4770   20.7590   34.9650 N   0  0  0  0  0  0  0  0  0  0  0  0
   35.8600   20.5570   33.8950 C   0  0  0  0  0  0  0  0  0  0  0  0
  1 12  1  0  0  0  0
  2  1  1  0  0  0  0
  2  9  1  0  0  0  0
  3  2  2  0  0  0  0
  4  6  1  0  0  0  0
  4  3  1  0  0  0  0
  5  4  2  0  0  0  0
  6  7  1  0  0  0  0
  7  8  2  0  0  0  0
  7  1  1  0  0  0  0
 10  3  1  0  0  0  0
 11 21  1  0  0  0  0
 11 16  1  0  0  0  0
 12 11  2  0  0  0  0
 13 12  1  0  0  0  0
 13 14  2  0  0  0  0
 14 15  1  0  0  0  0
 15 16  2  0  0  0  0
 15 18  1  0  0  0  0
 17 13  1  0  0  0  0
 19 20  2  0  0  0  0
 19 22  1  0  0  0  0
 21 19  1  0  0  0  0
 23 21  1  0  0  0  0
 24 33  1  0  0  0  0
 25 24  1  0  0  0  0
 25  6  1  0  0  0  0
 26 25  2  0  0  0  0
 27 26  1  0  0  0  0
 28 30  2  0  0  0  0
 28 26  1  0  0  0  0
 29 28  1  0  0  0  0
 30 31  1  0  0  0  0
 31 24  2  0  0  0  0
 33 32  3  0  0  0  0
M  END
>  <minimizedAffinity>
-5.13867998

$$$$

 OpenBabel03272507533D

 33 35  0  0  0  0  0  0  0  0999 V2000
   36.3230   28.5020   31.9570 N   0  0  0  0  0  0  0  0  0  0  0  0
   36.7860   29.2530   30.9620 C   0  0  0  0  0  0  0  0  0  0  0  0
   36.6560   30.6410   31.0280 C   0  0  0  0  0  0  0  0  0  0  0  0
   36.0430   31.1090   32.1500 C   0  0  0  0  0  0  0  0  0  0  0  0
   35.9310   32.3750   32.1970 O   0  0  0  0  0  0  0  0  0  0  0  0
   35.5660   30.3970   33.1650 N   0  0  0  0  0  0  0  0  0  0  0  0
   35.7200   29.0570   33.0470 C   0  0  0  0  0  0  0  0  0  0  0  0
   35.2670   28.3560   34.0150 O   0  0  0  0  0  0  0  0  0  0  0  0
   37.2630   28.7880   30.1040 H   0  0  0  0  0  0  0  0  0  0  0  0
   37.0180   31.2660   30.2460 H   0  0  0  0  0  0  0  0  0  0  0  0
   37.4280   26.4860   32.7540 C   0  0  0  0  0  0  0  0  0  0  0  0
   36.4160   27.0710   31.9600 C   0  0  0  0  0  0  0  0  0  0  0  0
   35.5610   26.2350   31.2200 C   0  0  0  0  0  0  0  0  0  0  0  0
   35.7580   24.8980   31.3110 N   0  0  0  0  0  0  0  0  0  0  0  0
   36.7060   24.3530   32.0540 C   0  0  0  0  0  0  0  0  0  0  0  0
   37.5320   25.1390   32.7680 N   0  0  0  0  0  0  0  0  0  0  0  0
   34.8130   26.7350   30.6380 H   0  0  0  0  0  0  0  0  0  0  0  0
   36.8340   23.2700   32.1010 H   0  0  0  0  0  0  0  0  0  0  0  0
   38.5100   27.3550   34.9600 C   0  0  0  0  0  0  0  0  0  0  0  0
   37.8260   26.6960   35.7700 O   0  0  0  0  0  0  0  0  0  0  0  0
   38.3280   27.2340   33.5400 N   0  0  0  0  0  0  0  0  0  0  0  0
   39.2410   28.0150   35.3960 H   0  0  0  0  0  0  0  0  0  0  0  0
   39.0360   27.8450   33.0280 H   0  0  0  0  0  0  0  0  0  0  0  0
   33.5790   31.1920   34.4610 C   0  0  0  0  0  0  0  0  0  0  0  0
   34.9340   30.9590   34.3110 C   0  0  0  0  0  0  0  0  0  0  0  0
   35.8430   31.2620   35.3060 C   0  0  0  0  0  0  0  0  0  0  0  0
   36.9090   31.1100   35.2630 H   0  0  0  0  0  0  0  0  0  0  0  0
   35.3910   31.8220   36.5020 C   0  0  0  0  0  0  0  0  0  0  0  0
   36.0710   32.0760   37.3100 H   0  0  0  0  0  0  0  0  0  0  0  0
   34.0200   32.0620   36.6610 C   0  0  0  0  0  3  0  0  0  0  0  0
   33.1220   31.7480   35.6430 C   0  0  0  0  0  3  0  0  0  0  0  0
   32.0600   30.5650   32.4680 N   0  0  0  0  0  0  0  0  0  0  0  0
   32.7420   30.8350   33.3600 C   0  0  0  0  0  0  0  0  0  0  0  0
  1 12  1  0  0  0  0
  1  7  1  0  0  0  0
  2  3  2  0  0  0  0
  2  1  1  0  0  0  0
  3  4  1  0  0  0  0
  4  5  2  0  0  0  0
  4  6  1  0  0  0  0
  6 25  1  0  0  0  0
  7  6  1  0  0  0  0
  7  8  2  0  0  0  0
  9  2  1  0  0  0  0
 10  3  1  0  0  0  0
 11 16  1  0  0  0  0
 11 21  1  0  0  0  0
 12 11  2  0  0  0  0
 13 14  2  0  0  0  0
 13 12  1  0  0  0  0
 14 15  1  0  0  0  0
 15 18  1  0  0  0  0
 15 16  2  0  0  0  0
 17 13  1  0  0  0  0
 19 22  1  0  0  0  0
 19 20  2  0  0  0  0
 21 19  1  0  0  0  0
 23 21  1  0  0  0  0
 24 31  1  0  0  0  0
 25 24  2  0  0  0  0
 25 26  1  0  0  0  0
 26 28  2  0  0  0  0
 27 26  1  0  0  0  0
 28 30  1  0  0  0  0
 28 29  1  0  0  0  0
 31 30  2  0  0  0  0
 32 33  3  0  0  0  0
 33 24  1  0  0  0  0
M  END
>  <minimizedAffinity>
-5.05655527

$$$$

 OpenBabel03272507533D

 33 35  0  0  0  0  0  0  0  0999 V2000
   36.2220   23.0190   31.9410 N   0  0  0  0  0  0  0  0  0  0  0  0
   35.4430   23.6290   31.0520 C   0  0  0  0  0  0  0  0  0  0  0  0
   35.4650   25.0210   30.9580 C   0  0  0  0  0  0  0  0  0  0  0  0
   36.3160   25.6440   31.8200 C   0  0  0  0  0  0  0  0  0  0  0  0
   36.3250   26.9110   31.7230 O   0  0  0  0  0  0  0  0  0  0  0  0
   37.1090   25.0750   32.7220 N   0  0  0  0  0  0  0  0  0  0  0  0
   37.0460   23.7240   32.7680 C   0  0  0  0  0  0  0  0  0  0  0  0
   37.8030   23.1600   33.6310 O   0  0  0  0  0  0  0  0  0  0  0  0
   34.7960   23.0460   30.4040 H   0  0  0  0  0  0  0  0  0  0  0  0
   34.8520   25.5350   30.2550 H   0  0  0  0  0  0  0  0  0  0  0  0
   37.1680   20.8700   31.3050 C   0  0  0  0  0  0  0  0  0  0  0  0
   36.2530   21.5940   32.1010 C   0  0  0  0  0  0  0  0  0  0  0  0
   35.4260   20.8940   32.9970 C   0  0  0  0  0  0  0  0  0  0  0  0
   35.5550   19.5470   33.0490 N   0  0  0  0  0  0  0  0  0  0  0  0
   36.4130   18.8710   32.3030 C   0  0  0  0  0  0  0  0  0  0  0  0
   37.2100   19.5260   31.4400 N   0  0  0  0  0  0  0  0  0  0  0  0
   34.7530   21.4960   33.5740 H   0  0  0  0  0  0  0  0  0  0  0  0
   36.4870   17.7840   32.3710 H   0  0  0  0  0  0  0  0  0  0  0  0
   39.4050   21.9330   30.4940 C   0  0  0  0  0  0  0  0  0  0  0  0
   40.0650   21.7940   31.5450 O   0  0  0  0  0  0  0  0  0  0  0  0
   38.0480   21.4770   30.3850 N   0  0  0  0  0  0  0  0  0  0  0  0
   39.9220   22.4160   29.6800 H   0  0  0  0  0  0  0  0  0  0  0  0
   37.6830   21.6500   29.3990 H   0  0  0  0  0  0  0  0  0  0  0  0
   39.2880   26.1410   33.3330 C   0  0  0  0  0  0  0  0  0  0  0  0
   37.9750   25.7940   33.5940 C   0  0  0  0  0  0  0  0  0  0  0  0
   37.3510   26.1290   34.7800 C   0  0  0  0  0  0  0  0  0  0  0  0
   36.3360   25.8960   35.0550 H   0  0  0  0  0  0  0  0  0  0  0  0
   38.0600   26.8390   35.7520 C   0  0  0  0  0  0  0  0  0  0  0  0
   37.6070   27.1230   36.6980 H   0  0  0  0  0  0  0  0  0  0  0  0
   39.3900   27.1940   35.4950 C   0  0  0  0  0  3  0  0  0  0  0  0
   39.9980   26.8450   34.2910 C   0  0  0  0  0  3  0  0  0  0  0  0
   40.2360   25.4230   31.0400 N   0  0  0  0  0  0  0  0  0  0  0  0
   39.8190   25.7370   32.0700 C   0  0  0  0  0  0  0  0  0  0  0  0
  1 12  1  0  0  0  0
  1  7  1  0  0  0  0
  2  1  1  0  0  0  0
  3  2  2  0  0  0  0
  3  4  1  0  0  0  0
  4  6  1  0  0  0  0
  5  4  2  0  0  0  0
  6  7  1  0  0  0  0
  6 25  1  0  0  0  0
  7  8  2  0  0  0  0
  9  2  1  0  0  0  0
 10  3  1  0  0  0  0
 11 16  2  0  0  0  0
 11 12  1  0  0  0  0
 12 13  2  0  0  0  0
 13 14  1  0  0  0  0
 13 17  1  0  0  0  0
 15 18  1  0  0  0  0
 15 14  2  0  0  0  0
 16 15  1  0  0  0  0
 19 20  2  0  0  0  0
 21 19  1  0  0  0  0
 21 11  1  0  0  0  0
 22 19  1  0  0  0  0
 23 21  1  0  0  0  0
 24 25  2  0  0  0  0
 24 31  1  0  0  0  0
 25 26  1  0  0  0  0
 26 27  1  0  0  0  0
 26 28  2  0  0  0  0
 28 29  1  0  0  0  0
 30 28  1  0  0  0  0
 31 30  2  0  0  0  0
 32 33  3  0  0  0  0
 33 24  1  0  0  0  0
M  END
>  <minimizedAffinity>
-5.05432844

$$$$

 OpenBabel03272507533D

 33 35  0  0  0  0  0  0  0  0999 V2000
   38.1750   24.0860   34.6990 N   0  0  0  0  0  0  0  0  0  0  0  0
   38.2380   25.3090   34.1800 C   0  0  0  0  0  0  0  0  0  0  0  0
   37.9930   25.4920   32.8180 C   0  0  0  0  0  0  0  0  0  0  0  0
   37.7010   24.3560   32.1260 C   0  0  0  0  0  0  0  0  0  0  0  0
   37.4810   24.5380   30.8880 O   0  0  0  0  0  0  0  0  0  0  0  0
   37.6280   23.1180   32.6040 N   0  0  0  0  0  0  0  0  0  0  0  0
   37.8750   23.0010   33.9290 C   0  0  0  0  0  0  0  0  0  0  0  0
   37.8090   21.8160   34.4060 O   0  0  0  0  0  0  0  0  0  0  0  0
   38.4790   26.1580   34.8130 H   0  0  0  0  0  0  0  0  0  0  0  0
   38.0370   26.4600   32.3760 H   0  0  0  0  0  0  0  0  0  0  0  0
   39.6690   23.2590   36.4310 C   0  0  0  0  0  0  0  0  0  0  0  0
   38.4180   23.8160   36.0860 C   0  0  0  0  0  0  0  0  0  0  0  0
   37.4820   24.0730   37.1030 C   0  0  0  0  0  0  0  0  0  0  0  0
   37.8370   23.7690   38.3750 N   0  0  0  0  0  0  0  0  0  0  0  0
   39.0090   23.2480   38.6950 C   0  0  0  0  0  0  0  0  0  0  0  0
   39.9150   22.9950   37.7330 N   0  0  0  0  0  0  0  0  0  0  0  0
   36.5510   24.4960   36.7810 H   0  0  0  0  0  0  0  0  0  0  0  0
   39.2590   23.0150   39.7320 H   0  0  0  0  0  0  0  0  0  0  0  0
   41.6720   23.7910   34.8510 C   0  0  0  0  0  0  0  0  0  0  0  0
   41.7960   25.0050   35.1170 O   0  0  0  0  0  0  0  0  0  0  0  0
   40.6790   22.9740   35.4900 N   0  0  0  0  0  0  0  0  0  0  0  0
   42.3550   23.4040   34.1130 H   0  0  0  0  0  0  0  0  0  0  0  0
   40.7670   21.9650   35.1560 H   0  0  0  0  0  0  0  0  0  0  0  0
   38.2220   21.1970   31.1150 C   0  0  0  0  0  0  0  0  0  0  0  0
   37.3170   21.9730   31.8160 C   0  0  0  0  0  0  0  0  0  0  0  0
   35.9630   21.6980   31.8190 C   0  0  0  0  0  0  0  0  0  0  0  0
   35.2010   22.2540   32.3380 H   0  0  0  0  0  0  0  0  0  0  0  0
   35.4840   20.6040   31.0950 C   0  0  0  0  0  0  0  0  0  0  0  0
   34.4270   20.3520   31.0700 H   0  0  0  0  0  0  0  0  0  0  0  0
   36.3940   19.8140   30.3820 C   0  0  0  0  0  3  0  0  0  0  0  0
   37.7550   20.1110   30.3950 C   0  0  0  0  0  3  0  0  0  0  0  0
   40.7090   21.8800   31.2500 N   0  0  0  0  0  0  0  0  0  0  0  0
   39.5940   21.5850   31.1920 C   0  0  0  0  0  0  0  0  0  0  0  0
  1 12  1  0  0  0  0
  2  1  1  0  0  0  0
  2  9  1  0  0  0  0
  3  2  2  0  0  0  0
  4  6  1  0  0  0  0
  4  3  1  0  0  0  0
  5  4  2  0  0  0  0
  6  7  1  0  0  0  0
  7  8  2  0  0  0  0
  7  1  1  0  0  0  0
 10  3  1  0  0  0  0
 11 16  1  0  0  0  0
 12 11  2  0  0  0  0
 12 13  1  0  0  0  0
 13 14  2  0  0  0  0
 14 15  1  0  0  0  0
 15 18  1  0  0  0  0
 16 15  2  0  0  0  0
 17 13  1  0  0  0  0
 19 20  2  0  0  0  0
 19 21  1  0  0  0  0
 21 11  1  0  0  0  0
 22 19  1  0  0  0  0
 23 21  1  0  0  0  0
 24 33  1  0  0  0  0
 24 25  1  0  0  0  0
 25 26  2  0  0  0  0
 25  6  1  0  0  0  0
 26 27  1  0  0  0  0
 28 26  1  0  0  0  0
 29 28  1  0  0  0  0
 30 31  1  0  0  0  0
 30 28  2  0  0  0  0
 31 24  2  0  0  0  0
 33 32  3  0  0  0  0
M  END
>  <minimizedAffinity>
-5.04498529

$$$$
