
 OpenBabel03272507383D

 24 25  0  0  0  0  0  0  0  0999 V2000
   39.6520   23.6730   35.5560 C   0  0  0  0  0  0  0  0  0  0  0  0
   39.5740   22.9590   36.7590 C   0  0  0  0  0  0  0  0  0  0  0  0
   40.7260   22.5550   37.4040 C   0  0  0  0  0  0  0  0  0  0  0  0
   41.9170   22.8810   36.8220 N   0  0  0  0  0  0  0  0  0  0  0  0
   41.9800   23.5730   35.6550 C   0  0  0  0  0  0  0  0  0  0  0  0
   40.8600   23.9510   35.0530 N   0  0  0  0  0  0  0  0  0  0  0  0
   40.7110   21.9970   38.3430 H   0  0  0  0  0  0  0  0  0  0  0  0
   42.9500   23.8060   35.2340 H   0  0  0  0  0  0  0  0  0  0  0  0
   37.8060   23.4500   38.3680 C   0  0  0  0  0  0  0  0  0  0  0  0
   38.1030   24.5910   38.8730 O   0  0  0  0  0  0  0  0  0  0  0  0
   38.3750   22.5970   37.4040 N   0  0  0  0  0  0  0  0  0  0  0  0
   36.8950   23.2830   38.9400 H   0  0  0  0  0  0  0  0  0  0  0  0
   37.8250   21.7200   37.2410 H   0  0  0  0  0  0  0  0  0  0  0  0
   38.4090   23.9850   35.0710 O   0  0  0  0  0  0  0  0  0  0  0  0
   37.4140   25.6480   33.5420 C   0  0  0  0  0  0  0  0  0  0  0  0
   37.9930   25.2580   34.7340 C   0  0  0  0  0  0  0  0  0  0  0  0
   38.2130   26.1770   35.7470 C   0  0  0  0  0  0  0  0  0  0  0  0
   38.6670   25.9410   36.7190 H   0  0  0  0  0  0  0  0  0  0  0  0
   37.8450   27.5050   35.5540 C   0  0  0  0  0  0  0  0  0  0  0  0
   38.0090   28.2400   36.3370 H   0  0  0  0  0  0  0  0  0  0  0  0
   37.2620   27.8930   34.3510 C   0  0  0  0  0  3  0  0  0  0  0  0
   37.0560   26.9510   33.3580 C   0  0  0  0  0  3  0  0  0  0  0  0
   37.0720   23.7890   31.7740 N   0  0  0  0  0  0  0  0  0  0  0  0
   37.2290   24.6270   32.5570 C   0  0  0  0  0  0  0  0  0  0  0  0
  1  2  1  0  0  0  0
  2 11  1  0  0  0  0
  2  3  2  0  0  0  0
  3  7  1  0  0  0  0
  4  3  1  0  0  0  0
  5  4  2  0  0  0  0
  6  1  2  0  0  0  0
  6  5  1  0  0  0  0
  8  5  1  0  0  0  0
  9 10  2  0  0  0  0
  9 12  1  0  0  0  0
 11  9  1  0  0  0  0
 13 11  1  0  0  0  0
 14  1  1  0  0  0  0
 15 16  1  0  0  0  0
 16 14  1  0  0  0  0
 16 17  2  0  0  0  0
 17 18  1  0  0  0  0
 19 17  1  0  0  0  0
 19 20  1  0  0  0  0
 21 19  2  0  0  0  0
 22 15  2  0  0  0  0
 22 21  1  0  0  0  0
 23 24  3  0  0  0  0
 24 15  1  0  0  0  0
M  END
>  <minimizedAffinity>
-4.80267859

$$$$

 OpenBabel03272507383D

 24 25  0  0  0  0  0  0  0  0999 V2000
   38.9110   22.2520   34.5740 C   0  0  0  0  0  0  0  0  0  0  0  0
   39.0160   22.3170   35.9700 C   0  0  0  0  0  0  0  0  0  0  0  0
   40.2340   22.1130   36.5870 C   0  0  0  0  0  0  0  0  0  0  0  0
   41.3070   21.8510   35.7840 N   0  0  0  0  0  0  0  0  0  0  0  0
   41.1930   21.7910   34.4320 C   0  0  0  0  0  0  0  0  0  0  0  0
   40.0120   21.9900   33.8610 N   0  0  0  0  0  0  0  0  0  0  0  0
   40.3600   22.1550   37.6710 H   0  0  0  0  0  0  0  0  0  0  0  0
   42.0740   21.5790   33.8390 H   0  0  0  0  0  0  0  0  0  0  0  0
   37.6620   23.9070   37.2340 C   0  0  0  0  0  0  0  0  0  0  0  0
   38.1560   25.0620   36.9790 O   0  0  0  0  0  0  0  0  0  0  0  0
   37.9450   22.5840   36.8460 N   0  0  0  0  0  0  0  0  0  0  0  0
   36.8750   24.2420   37.9070 H   0  0  0  0  0  0  0  0  0  0  0  0
   37.2970   21.8750   37.2660 H   0  0  0  0  0  0  0  0  0  0  0  0
   37.6280   22.4820   34.1520 O   0  0  0  0  0  0  0  0  0  0  0  0
   35.8920   20.7510   33.8710 C   0  0  0  0  0  0  0  0  0  0  0  0
   36.8770   21.5980   33.4030 C   0  0  0  0  0  0  0  0  0  0  0  0
   37.2060   21.6250   32.0570 C   0  0  0  0  0  0  0  0  0  0  0  0
   37.9750   22.2700   31.6130 H   0  0  0  0  0  0  0  0  0  0  0  0
   36.5310   20.7860   31.1750 C   0  0  0  0  0  0  0  0  0  0  0  0
   36.7740   20.7920   30.1170 H   0  0  0  0  0  0  0  0  0  0  0  0
   35.5400   19.9340   31.6520 C   0  0  0  0  0  3  0  0  0  0  0  0
   35.2340   19.9300   33.0030 C   0  0  0  0  0  3  0  0  0  0  0  0
   35.4280   20.8360   36.4170 N   0  0  0  0  0  0  0  0  0  0  0  0
   35.6250   20.7950   35.2770 C   0  0  0  0  0  0  0  0  0  0  0  0
  1  2  1  0  0  0  0
  2  3  2  0  0  0  0
  2 11  1  0  0  0  0
  3  7  1  0  0  0  0
  4  3  1  0  0  0  0
  5  4  2  0  0  0  0
  6  5  1  0  0  0  0
  6  1  2  0  0  0  0
  8  5  1  0  0  0  0
  9 12  1  0  0  0  0
 10  9  2  0  0  0  0
 11  9  1  0  0  0  0
 11 13  1  0  0  0  0
 14  1  1  0  0  0  0
 15 24  1  0  0  0  0
 16 15  1  0  0  0  0
 16 14  1  0  0  0  0
 17 16  2  0  0  0  0
 18 17  1  0  0  0  0
 19 21  2  0  0  0  0
 19 17  1  0  0  0  0
 20 19  1  0  0  0  0
 21 22  1  0  0  0  0
 22 15  2  0  0  0  0
 24 23  3  0  0  0  0
M  END
>  <minimizedAffinity>
-4.66457558

$$$$

 OpenBabel03272507383D

 24 25  0  0  0  0  0  0  0  0999 V2000
   38.0450   23.3570   34.4910 C   0  0  0  0  0  0  0  0  0  0  0  0
   38.3080   23.5380   35.8550 C   0  0  0  0  0  0  0  0  0  0  0  0
   38.3020   24.8040   36.4040 C   0  0  0  0  0  0  0  0  0  0  0  0
   38.0320   25.8490   35.5660 N   0  0  0  0  0  0  0  0  0  0  0  0
   37.7790   25.6610   34.2440 C   0  0  0  0  0  0  0  0  0  0  0  0
   37.7900   24.4340   33.7400 N   0  0  0  0  0  0  0  0  0  0  0  0
   38.5010   24.9900   37.4620 H   0  0  0  0  0  0  0  0  0  0  0  0
   37.5700   26.5220   33.6220 H   0  0  0  0  0  0  0  0  0  0  0  0
   39.9090   22.2900   37.2100 C   0  0  0  0  0  0  0  0  0  0  0  0
   41.0460   22.8460   37.0030 O   0  0  0  0  0  0  0  0  0  0  0  0
   38.5910   22.4990   36.7650 N   0  0  0  0  0  0  0  0  0  0  0  0
   40.2580   21.5230   37.8990 H   0  0  0  0  0  0  0  0  0  0  0  0
   37.8980   21.8270   37.1720 H   0  0  0  0  0  0  0  0  0  0  0  0
   38.0950   22.0340   34.1370 O   0  0  0  0  0  0  0  0  0  0  0  0
   35.9830   20.7920   33.8340 C   0  0  0  0  0  0  0  0  0  0  0  0
   37.1410   21.3880   33.3740 C   0  0  0  0  0  0  0  0  0  0  0  0
   37.4530   21.3810   32.0240 C   0  0  0  0  0  0  0  0  0  0  0  0
   38.3530   21.8330   31.5860 H   0  0  0  0  0  0  0  0  0  0  0  0
   36.5840   20.7650   31.1280 C   0  0  0  0  0  0  0  0  0  0  0  0
   36.8110   20.7490   30.0660 H   0  0  0  0  0  0  0  0  0  0  0  0
   35.4180   20.1660   31.5960 C   0  0  0  0  0  3  0  0  0  0  0  0
   35.1360   20.1890   32.9520 C   0  0  0  0  0  3  0  0  0  0  0  0
   35.5660   20.9180   36.3850 N   0  0  0  0  0  0  0  0  0  0  0  0
   35.7500   20.8510   35.2450 C   0  0  0  0  0  0  0  0  0  0  0  0
  1  2  1  0  0  0  0
  2  3  2  0  0  0  0
  2 11  1  0  0  0  0
  3  7  1  0  0  0  0
  4  3  1  0  0  0  0
  5  4  2  0  0  0  0
  6  5  1  0  0  0  0
  6  1  2  0  0  0  0
  8  5  1  0  0  0  0
  9 12  1  0  0  0  0
 10  9  2  0  0  0  0
 11 13  1  0  0  0  0
 11  9  1  0  0  0  0
 14  1  1  0  0  0  0
 15 24  1  0  0  0  0
 16 15  1  0  0  0  0
 16 14  1  0  0  0  0
 17 16  2  0  0  0  0
 18 17  1  0  0  0  0
 19 21  2  0  0  0  0
 19 17  1  0  0  0  0
 20 19  1  0  0  0  0
 21 22  1  0  0  0  0
 22 15  2  0  0  0  0
 24 23  3  0  0  0  0
M  END
>  <minimizedAffinity>
-4.6294508

$$$$

 OpenBabel03272507383D

 24 25  0  0  0  0  0  0  0  0999 V2000
   38.0770   23.7490   34.4140 C   0  0  0  0  0  0  0  0  0  0  0  0
   38.4330   23.4890   35.7440 C   0  0  0  0  0  0  0  0  0  0  0  0
   38.3970   24.4980   36.6840 C   0  0  0  0  0  0  0  0  0  0  0  0
   38.0060   25.7360   36.2600 N   0  0  0  0  0  0  0  0  0  0  0  0
   37.6630   25.9770   34.9680 C   0  0  0  0  0  0  0  0  0  0  0  0
   37.7050   24.9910   34.0820 N   0  0  0  0  0  0  0  0  0  0  0  0
   38.6660   24.3390   37.7310 H   0  0  0  0  0  0  0  0  0  0  0  0
   37.3600   26.9770   34.6820 H   0  0  0  0  0  0  0  0  0  0  0  0
   40.1990   21.9970   36.5270 C   0  0  0  0  0  0  0  0  0  0  0  0
   41.2820   22.6820   36.4690 O   0  0  0  0  0  0  0  0  0  0  0  0
   38.8420   22.2340   36.2360 N   0  0  0  0  0  0  0  0  0  0  0  0
   40.6420   21.0760   36.9000 H   0  0  0  0  0  0  0  0  0  0  0  0
   38.2220   21.4090   36.4230 H   0  0  0  0  0  0  0  0  0  0  0  0
   38.1740   22.6270   33.6340 O   0  0  0  0  0  0  0  0  0  0  0  0
   36.6970   22.2420   31.6950 C   0  0  0  0  0  0  0  0  0  0  0  0
   37.1110   22.0200   32.9930 C   0  0  0  0  0  0  0  0  0  0  0  0
   36.4480   21.1130   33.8030 C   0  0  0  0  0  0  0  0  0  0  0  0
   36.7190   20.8840   34.8420 H   0  0  0  0  0  0  0  0  0  0  0  0
   35.3520   20.4210   33.2940 C   0  0  0  0  0  0  0  0  0  0  0  0
   34.8190   19.7060   33.9130 H   0  0  0  0  0  0  0  0  0  0  0  0
   34.9380   20.6480   31.9850 C   0  0  0  0  0  3  0  0  0  0  0  0
   35.6220   21.5620   31.2010 C   0  0  0  0  0  3  0  0  0  0  0  0
   38.0360   23.9850   30.3270 N   0  0  0  0  0  0  0  0  0  0  0  0
   37.4460   23.1990   30.9380 C   0  0  0  0  0  0  0  0  0  0  0  0
  1  2  1  0  0  0  0
  2 11  1  0  0  0  0
  2  3  2  0  0  0  0
  3  7  1  0  0  0  0
  4  3  1  0  0  0  0
  5  4  2  0  0  0  0
  6  1  2  0  0  0  0
  6  5  1  0  0  0  0
  8  5  1  0  0  0  0
  9 12  1  0  0  0  0
 10  9  2  0  0  0  0
 11 13  1  0  0  0  0
 11  9  1  0  0  0  0
 14  1  1  0  0  0  0
 15 16  1  0  0  0  0
 16 14  1  0  0  0  0
 16 17  2  0  0  0  0
 17 18  1  0  0  0  0
 19 17  1  0  0  0  0
 19 20  1  0  0  0  0
 21 19  2  0  0  0  0
 22 15  2  0  0  0  0
 22 21  1  0  0  0  0
 23 24  3  0  0  0  0
 24 15  1  0  0  0  0
M  END
>  <minimizedAffinity>
-4.51527739

$$$$

 OpenBabel03272507383D

 24 25  0  0  0  0  0  0  0  0999 V2000
   38.6810   22.2840   34.3990 C   0  0  0  0  0  0  0  0  0  0  0  0
   38.8310   22.3050   35.7920 C   0  0  0  0  0  0  0  0  0  0  0  0
   40.0700   22.0870   36.3620 C   0  0  0  0  0  0  0  0  0  0  0  0
   41.1170   21.8560   35.5160 N   0  0  0  0  0  0  0  0  0  0  0  0
   40.9580   21.8370   34.1670 C   0  0  0  0  0  0  0  0  0  0  0  0
   39.7590   22.0490   33.6420 N   0  0  0  0  0  0  0  0  0  0  0  0
   40.2310   22.0960   37.4420 H   0  0  0  0  0  0  0  0  0  0  0  0
   41.8200   21.6490   33.5390 H   0  0  0  0  0  0  0  0  0  0  0  0
   37.5720   23.8340   37.2180 C   0  0  0  0  0  0  0  0  0  0  0  0
   38.1120   24.9850   37.0550 O   0  0  0  0  0  0  0  0  0  0  0  0
   37.7890   22.5400   36.7110 N   0  0  0  0  0  0  0  0  0  0  0  0
   36.8130   24.1420   37.9350 H   0  0  0  0  0  0  0  0  0  0  0  0
   37.1180   21.8250   37.0810 H   0  0  0  0  0  0  0  0  0  0  0  0
   37.3840   22.5210   34.0260 O   0  0  0  0  0  0  0  0  0  0  0  0
   36.4000   21.8740   31.8570 C   0  0  0  0  0  0  0  0  0  0  0  0
   36.6380   21.6970   33.2060 C   0  0  0  0  0  0  0  0  0  0  0  0
   36.1120   20.6080   33.8800 C   0  0  0  0  0  0  0  0  0  0  0  0
   36.2590   20.4010   34.9480 H   0  0  0  0  0  0  0  0  0  0  0  0
   35.3360   19.6850   33.1830 C   0  0  0  0  0  0  0  0  0  0  0  0
   34.9150   18.8250   33.6940 H   0  0  0  0  0  0  0  0  0  0  0  0
   35.0980   19.8680   31.8240 C   0  0  0  0  0  3  0  0  0  0  0  0
   35.6380   20.9690   31.1790 C   0  0  0  0  0  3  0  0  0  0  0  0
   37.4740   23.9550   30.7530 N   0  0  0  0  0  0  0  0  0  0  0  0
   36.9860   23.0310   31.2500 C   0  0  0  0  0  0  0  0  0  0  0  0
  1  2  1  0  0  0  0
  2  3  2  0  0  0  0
  2 11  1  0  0  0  0
  3  7  1  0  0  0  0
  4  3  1  0  0  0  0
  5  4  2  0  0  0  0
  6  5  1  0  0  0  0
  6  1  2  0  0  0  0
  8  5  1  0  0  0  0
  9 12  1  0  0  0  0
 10  9  2  0  0  0  0
 11 13  1  0  0  0  0
 11  9  1  0  0  0  0
 14  1  1  0  0  0  0
 15 16  1  0  0  0  0
 16 17  2  0  0  0  0
 16 14  1  0  0  0  0
 17 18  1  0  0  0  0
 19 20  1  0  0  0  0
 19 17  1  0  0  0  0
 21 19  2  0  0  0  0
 22 21  1  0  0  0  0
 22 15  2  0  0  0  0
 23 24  3  0  0  0  0
 24 15  1  0  0  0  0
M  END
>  <minimizedAffinity>
-4.43877316

$$$$

 OpenBabel03272507383D

 24 25  0  0  0  0  0  0  0  0999 V2000
   39.5690   23.6560   35.5560 C   0  0  0  0  0  0  0  0  0  0  0  0
   39.4590   22.9610   36.7670 C   0  0  0  0  0  0  0  0  0  0  0  0
   40.5900   22.5070   37.4150 C   0  0  0  0  0  0  0  0  0  0  0  0
   41.7950   22.7660   36.8270 N   0  0  0  0  0  0  0  0  0  0  0  0
   41.8900   23.4410   35.6530 C   0  0  0  0  0  0  0  0  0  0  0  0
   40.7890   23.8680   35.0480 N   0  0  0  0  0  0  0  0  0  0  0  0
   40.5490   21.9620   38.3610 H   0  0  0  0  0  0  0  0  0  0  0  0
   42.8700   23.6210   35.2270 H   0  0  0  0  0  0  0  0  0  0  0  0
   37.7130   23.5650   38.3620 C   0  0  0  0  0  0  0  0  0  0  0  0
   38.0590   24.7040   38.8400 O   0  0  0  0  0  0  0  0  0  0  0  0
   38.2440   22.6670   37.4180 N   0  0  0  0  0  0  0  0  0  0  0  0
   36.7950   23.4510   38.9360 H   0  0  0  0  0  0  0  0  0  0  0  0
   37.6560   21.8110   37.2750 H   0  0  0  0  0  0  0  0  0  0  0  0
   38.3420   24.0240   35.0690 O   0  0  0  0  0  0  0  0  0  0  0  0
   38.1570   26.1320   33.7980 C   0  0  0  0  0  0  0  0  0  0  0  0
   38.1420   24.7560   33.9150 C   0  0  0  0  0  0  0  0  0  0  0  0
   37.9080   23.9550   32.8090 C   0  0  0  0  0  0  0  0  0  0  0  0
   37.8810   22.8570   32.8250 H   0  0  0  0  0  0  0  0  0  0  0  0
   37.6870   24.5510   31.5710 C   0  0  0  0  0  0  0  0  0  0  0  0
   37.5030   23.9400   30.6920 H   0  0  0  0  0  0  0  0  0  0  0  0
   37.7040   25.9380   31.4580 C   0  0  0  0  0  3  0  0  0  0  0  0
   37.9400   26.7110   32.5830 C   0  0  0  0  0  3  0  0  0  0  0  0
   38.6080   27.4550   35.9770 N   0  0  0  0  0  0  0  0  0  0  0  0
   38.4060   26.8730   34.9970 C   0  0  0  0  0  0  0  0  0  0  0  0
  1  2  1  0  0  0  0
  2  3  2  0  0  0  0
  2 11  1  0  0  0  0
  3  7  1  0  0  0  0
  4  3  1  0  0  0  0
  5  4  2  0  0  0  0
  6  1  2  0  0  0  0
  6  5  1  0  0  0  0
  8  5  1  0  0  0  0
  9 10  2  0  0  0  0
  9 12  1  0  0  0  0
 11  9  1  0  0  0  0
 13 11  1  0  0  0  0
 14  1  1  0  0  0  0
 15 16  1  0  0  0  0
 15 24  1  0  0  0  0
 16 14  1  0  0  0  0
 17 18  1  0  0  0  0
 17 16  2  0  0  0  0
 19 17  1  0  0  0  0
 20 19  1  0  0  0  0
 21 19  2  0  0  0  0
 21 22  1  0  0  0  0
 22 15  2  0  0  0  0
 24 23  3  0  0  0  0
M  END
>  <minimizedAffinity>
-4.40008593

$$$$

 OpenBabel03272507383D

 24 25  0  0  0  0  0  0  0  0999 V2000
   37.1550   24.7900   32.5440 C   0  0  0  0  0  0  0  0  0  0  0  0
   36.7270   26.0370   32.0690 C   0  0  0  0  0  0  0  0  0  0  0  0
   35.6690   26.1190   31.1850 C   0  0  0  0  0  0  0  0  0  0  0  0
   35.0760   24.9480   30.8080 N   0  0  0  0  0  0  0  0  0  0  0  0
   35.5000   23.7460   31.2750 C   0  0  0  0  0  0  0  0  0  0  0  0
   36.5180   23.6910   32.1240 N   0  0  0  0  0  0  0  0  0  0  0  0
   35.3030   27.0700   30.7910 H   0  0  0  0  0  0  0  0  0  0  0  0
   34.9960   22.8460   30.9450 H   0  0  0  0  0  0  0  0  0  0  0  0
   38.2560   27.8770   31.5850 C   0  0  0  0  0  0  0  0  0  0  0  0
   38.8040   27.5860   30.4630 O   0  0  0  0  0  0  0  0  0  0  0  0
   37.3000   27.2740   32.4240 N   0  0  0  0  0  0  0  0  0  0  0  0
   38.7770   28.8180   31.7500 H   0  0  0  0  0  0  0  0  0  0  0  0
   37.0870   27.8300   33.2870 H   0  0  0  0  0  0  0  0  0  0  0  0
   38.2110   24.9130   33.4080 O   0  0  0  0  0  0  0  0  0  0  0  0
   38.0960   25.2220   35.8550 C   0  0  0  0  0  0  0  0  0  0  0  0
   38.2180   24.4560   34.7120 C   0  0  0  0  0  0  0  0  0  0  0  0
   38.3670   23.0820   34.7940 C   0  0  0  0  0  0  0  0  0  0  0  0
   38.4690   22.4090   33.9320 H   0  0  0  0  0  0  0  0  0  0  0  0
   38.3920   22.4730   36.0460 C   0  0  0  0  0  0  0  0  0  0  0  0
   38.5070   21.3970   36.1310 H   0  0  0  0  0  0  0  0  0  0  0  0
   38.2690   23.2490   37.1950 C   0  0  0  0  0  3  0  0  0  0  0  0
   38.1220   24.6220   37.0790 C   0  0  0  0  0  3  0  0  0  0  0  0
   37.8490   27.7770   35.5170 N   0  0  0  0  0  0  0  0  0  0  0  0
   37.9490   26.6340   35.6660 C   0  0  0  0  0  0  0  0  0  0  0  0
  1 14  1  0  0  0  0
  2 11  1  0  0  0  0
  2  1  2  0  0  0  0
  3  2  1  0  0  0  0
  4  3  2  0  0  0  0
  4  5  1  0  0  0  0
  5  6  2  0  0  0  0
  6  1  1  0  0  0  0
  7  3  1  0  0  0  0
  8  5  1  0  0  0  0
  9 12  1  0  0  0  0
  9 11  1  0  0  0  0
 10  9  2  0  0  0  0
 11 13  1  0  0  0  0
 14 16  1  0  0  0  0
 15 22  1  0  0  0  0
 16 17  1  0  0  0  0
 16 15  2  0  0  0  0
 17 19  2  0  0  0  0
 18 17  1  0  0  0  0
 19 20  1  0  0  0  0
 19 21  1  0  0  0  0
 22 21  2  0  0  0  0
 23 24  3  0  0  0  0
 24 15  1  0  0  0  0
M  END
>  <minimizedAffinity>
-4.39270401

$$$$

 OpenBabel03272507383D

 24 25  0  0  0  0  0  0  0  0999 V2000
   38.1330   23.8540   33.6960 C   0  0  0  0  0  0  0  0  0  0  0  0
   37.7150   24.9240   32.8950 C   0  0  0  0  0  0  0  0  0  0  0  0
   36.7550   24.7330   31.9220 C   0  0  0  0  0  0  0  0  0  0  0  0
   36.2440   23.4730   31.7850 N   0  0  0  0  0  0  0  0  0  0  0  0
   36.6570   22.4430   32.5680 C   0  0  0  0  0  0  0  0  0  0  0  0
   37.5810   22.6510   33.4970 N   0  0  0  0  0  0  0  0  0  0  0  0
   36.4010   25.5390   31.2760 H   0  0  0  0  0  0  0  0  0  0  0  0
   36.2200   21.4630   32.4200 H   0  0  0  0  0  0  0  0  0  0  0  0
   37.6210   27.1490   33.8950 C   0  0  0  0  0  0  0  0  0  0  0  0
   36.6680   27.1040   34.7510 O   0  0  0  0  0  0  0  0  0  0  0  0
   38.2060   26.2420   32.9920 N   0  0  0  0  0  0  0  0  0  0  0  0
   37.8990   28.1880   34.0570 H   0  0  0  0  0  0  0  0  0  0  0  0
   39.0000   26.6490   32.4420 H   0  0  0  0  0  0  0  0  0  0  0  0
   39.0870   24.2400   34.6000 O   0  0  0  0  0  0  0  0  0  0  0  0
   39.9330   23.0010   36.5610 C   0  0  0  0  0  0  0  0  0  0  0  0
   39.0860   23.8980   35.9390 C   0  0  0  0  0  0  0  0  0  0  0  0
   38.1090   24.5650   36.6590 C   0  0  0  0  0  0  0  0  0  0  0  0
   37.4020   25.2900   36.2340 H   0  0  0  0  0  0  0  0  0  0  0  0
   37.9860   24.3230   38.0240 C   0  0  0  0  0  0  0  0  0  0  0  0
   37.2260   24.8360   38.6060 H   0  0  0  0  0  0  0  0  0  0  0  0
   38.8410   23.4180   38.6470 C   0  0  0  0  0  3  0  0  0  0  0  0
   39.8070   22.7670   37.8980 C   0  0  0  0  0  3  0  0  0  0  0  0
   41.7110   21.8590   35.0650 N   0  0  0  0  0  0  0  0  0  0  0  0
   40.9090   22.3620   35.7320 C   0  0  0  0  0  0  0  0  0  0  0  0
  1 14  1  0  0  0  0
  2 11  1  0  0  0  0
  2  1  2  0  0  0  0
  3  2  1  0  0  0  0
  4  3  2  0  0  0  0
  4  5  1  0  0  0  0
  5  6  2  0  0  0  0
  6  1  1  0  0  0  0
  7  3  1  0  0  0  0
  8  5  1  0  0  0  0
  9 12  1  0  0  0  0
  9 10  2  0  0  0  0
 11  9  1  0  0  0  0
 13 11  1  0  0  0  0
 14 16  1  0  0  0  0
 15 22  1  0  0  0  0
 16 15  2  0  0  0  0
 16 17  1  0  0  0  0
 17 19  2  0  0  0  0
 18 17  1  0  0  0  0
 19 20  1  0  0  0  0
 19 21  1  0  0  0  0
 22 21  2  0  0  0  0
 23 24  3  0  0  0  0
 24 15  1  0  0  0  0
M  END
>  <minimizedAffinity>
-4.37583399

$$$$

 OpenBabel03272507383D

 24 25  0  0  0  0  0  0  0  0999 V2000
   36.2120   28.5900   33.6220 C   0  0  0  0  0  0  0  0  0  0  0  0
   36.1570   27.9910   32.3570 C   0  0  0  0  0  0  0  0  0  0  0  0
   36.6000   26.6960   32.1800 C   0  0  0  0  0  0  0  0  0  0  0  0
   37.0840   26.0430   33.2780 N   0  0  0  0  0  0  0  0  0  0  0  0
   37.1330   26.6340   34.4990 C   0  0  0  0  0  0  0  0  0  0  0  0
   36.7010   27.8800   34.6460 N   0  0  0  0  0  0  0  0  0  0  0  0
   36.5740   26.1910   31.2110 H   0  0  0  0  0  0  0  0  0  0  0  0
   37.5260   26.0740   35.3390 H   0  0  0  0  0  0  0  0  0  0  0  0
   36.5580   29.2370   30.2970 C   0  0  0  0  0  0  0  0  0  0  0  0
   37.8280   29.4060   30.2360 O   0  0  0  0  0  0  0  0  0  0  0  0
   35.6680   28.6150   31.1920 N   0  0  0  0  0  0  0  0  0  0  0  0
   36.3080   29.7580   29.3750 H   0  0  0  0  0  0  0  0  0  0  0  0
   34.6640   28.6740   30.8960 H   0  0  0  0  0  0  0  0  0  0  0  0
   35.7290   29.8720   33.5980 O   0  0  0  0  0  0  0  0  0  0  0  0
   33.6510   30.3930   34.8240 C   0  0  0  0  0  0  0  0  0  0  0  0
   35.0160   30.4630   34.6230 C   0  0  0  0  0  0  0  0  0  0  0  0
   35.8240   31.1780   35.4910 C   0  0  0  0  0  0  0  0  0  0  0  0
   36.9130   31.2780   35.3960 H   0  0  0  0  0  0  0  0  0  0  0  0
   35.2470   31.8310   36.5770 C   0  0  0  0  0  0  0  0  0  0  0  0
   35.8630   32.3960   37.2690 H   0  0  0  0  0  0  0  0  0  0  0  0
   33.8710   31.7580   36.7760 C   0  0  0  0  0  3  0  0  0  0  0  0
   33.0900   31.0350   35.8890 C   0  0  0  0  0  3  0  0  0  0  0  0
   32.2970   28.9990   33.1140 N   0  0  0  0  0  0  0  0  0  0  0  0
   32.9010   29.6310   33.8720 C   0  0  0  0  0  0  0  0  0  0  0  0
  1  6  1  0  0  0  0
  2  1  2  0  0  0  0
  3  2  1  0  0  0  0
  3  4  2  0  0  0  0
  4  5  1  0  0  0  0
  5  6  2  0  0  0  0
  5  8  1  0  0  0  0
  7  3  1  0  0  0  0
  9 11  1  0  0  0  0
 10  9  2  0  0  0  0
 11  2  1  0  0  0  0
 12  9  1  0  0  0  0
 13 11  1  0  0  0  0
 14  1  1  0  0  0  0
 14 16  1  0  0  0  0
 15 22  1  0  0  0  0
 16 15  2  0  0  0  0
 16 17  1  0  0  0  0
 17 19  2  0  0  0  0
 18 17  1  0  0  0  0
 19 21  1  0  0  0  0
 19 20  1  0  0  0  0
 22 21  2  0  0  0  0
 23 24  3  0  0  0  0
 24 15  1  0  0  0  0
M  END
>  <minimizedAffinity>
-4.35663271

$$$$
