
 OpenBabel03272501133D

 29 31  0  0  1  0  0  0  0  0999 V2000
   35.3940   30.3920   49.7520 C   0  0  1  0  0  0  0  0  0  0  0  0
   34.8780   29.1230   49.2950 C   0  0  1  0  0  0  0  0  0  0  0  0
   35.8670   29.0990   50.4100 C   0  0  0  0  0  0  0  0  0  0  0  0
   34.8140   31.0830   50.3960 H   0  0  0  0  0  0  0  0  0  0  0  0
   35.3090   28.7620   48.3060 H   0  0  0  0  0  0  0  0  0  0  0  0
   36.8980   28.7510   50.2120 H   0  0  0  0  0  0  0  0  0  0  0  0
   35.4850   28.9520   51.4300 H   0  0  0  0  0  0  0  0  0  0  0  0
   36.5050   31.1050   49.0140 C   0  0  0  0  0  0  0  0  0  0  0  0
   37.1780   32.0890   49.7400 C   0  0  0  0  0  0  0  0  0  0  0  0
   38.1860   32.7500   48.9950 C   0  0  0  0  0  0  0  0  0  0  0  0
   38.4450   32.4290   47.6990 N   0  0  0  0  0  0  0  0  0  0  0  0
   37.7430   31.4560   47.0640 C   0  0  0  0  0  0  0  0  0  0  0  0
   36.7590   30.7940   47.7540 N   0  0  0  0  0  0  0  0  0  0  0  0
   37.0080   32.3730   50.7510 H   0  0  0  0  0  0  0  0  0  0  0  0
   38.7960   33.5350   49.4110 H   0  0  0  0  0  0  0  0  0  0  0  0
   37.9110   31.1640   46.0380 H   0  0  0  0  0  0  0  0  0  0  0  0
   33.4170   28.8220   49.5450 C   0  0  0  0  0  0  0  0  0  0  0  0
   32.7850   29.7030   49.4490 H   0  0  0  0  0  0  0  0  0  0  0  0
   33.3520   28.3990   50.5810 H   0  0  0  0  0  0  0  0  0  0  0  0
   31.7870   27.1910   48.4920 C   0  0  0  0  0  0  0  0  0  0  0  0
   33.0380   27.7280   48.5840 C   0  0  0  0  0  0  0  0  0  0  0  0
   34.0830   27.2640   47.7790 C   0  0  0  0  0  0  0  0  0  0  0  0
   35.0880   27.6740   47.8340 H   0  0  0  0  0  0  0  0  0  0  0  0
   33.8900   26.2420   46.8560 C   0  0  0  0  0  0  0  0  0  0  0  0
   34.7120   25.8950   46.2410 H   0  0  0  0  0  0  0  0  0  0  0  0
   32.6290   25.7100   46.7720 C   0  0  0  0  0  0  0  0  0  0  0  0
   31.5970   26.1790   47.5770 C   0  0  0  0  0  0  0  0  0  0  0  0
   29.8770   28.1070   50.0000 N   0  0  0  0  0  0  0  0  0  0  0  0
   30.7330   27.6880   49.3170 C   0  0  0  0  0  0  0  0  0  0  0  0
  1  4  1  1  0  0  0
  1  3  1  0  0  0  0
  2  5  1  6  0  0  0
  2 17  1  0  0  0  0
  2  1  1  0  0  0  0
  2  3  1  0  0  0  0
  3  7  1  0  0  0  0
  6  3  1  0  0  0  0
  8  9  1  0  0  0  0
  8  1  1  0  0  0  0
  9 14  1  0  0  0  0
 10 15  1  0  0  0  0
 10  9  2  0  0  0  0
 11 10  1  0  0  0  0
 12 11  2  0  0  0  0
 12 13  1  0  0  0  0
 13  8  2  0  0  0  0
 16 12  1  0  0  0  0
 17 19  1  0  0  0  0
 18 17  1  0  0  0  0
 20 21  1  0  0  0  0
 20 29  1  0  0  0  0
 21 17  1  0  0  0  0
 22 23  1  0  0  0  0
 22 21  2  0  0  0  0
 24 22  1  0  0  0  0
 25 24  1  0  0  0  0
 26 24  2  0  0  0  0
 26 27  1  0  0  0  0
 27 20  2  0  0  0  0
 29 28  3  0  0  0  0
M  END
>  <minimizedAffinity>
-5.36070251

>  <minimizedRMSD>
2.36595011

$$$$
