
 OpenBabel03272501583D

 32 34  0  0  0  0  0  0  0  0999 V2000
   32.8470   28.3230   47.9700 C   0  0  0  0  0  0  0  0  0  0  0  0
   32.1530   27.7460   48.9970 C   0  0  0  0  0  0  0  0  0  0  0  0
   30.8260   27.6160   48.6650 C   0  0  0  0  0  0  0  0  0  0  0  0
   30.7330   28.1240   47.4210 N   0  0  0  0  0  0  0  0  0  0  0  0
   31.9380   28.5430   47.0140 N   0  0  0  0  0  0  0  0  0  0  0  0
   32.5770   27.4250   49.9580 H   0  0  0  0  0  0  0  0  0  0  0  0
   29.9820   27.2140   49.2080 H   0  0  0  0  0  0  0  0  0  0  0  0
   29.0990   27.2400   45.7970 C   0  0  0  0  0  0  0  0  0  0  0  0
   29.6140   28.2690   46.5430 C   0  0  0  0  0  0  0  0  0  0  0  0
   28.9810   29.5070   46.4060 C   0  0  0  0  0  0  0  0  0  0  0  0
   29.4040   30.3070   47.0040 H   0  0  0  0  0  0  0  0  0  0  0  0
   27.8980   29.7590   45.5900 C   0  0  0  0  0  0  0  0  0  0  0  0
   27.5190   30.7710   45.5920 H   0  0  0  0  0  0  0  0  0  0  0  0
   27.4040   28.6980   44.8510 C   0  0  0  0  0  3  0  0  0  0  0  0
   28.0180   27.4500   44.9700 C   0  0  0  0  0  3  0  0  0  0  0  0
   30.1330   24.8960   45.9270 N   0  0  0  0  0  0  0  0  0  0  0  0
   29.6780   25.9520   45.8730 C   0  0  0  0  0  0  0  0  0  0  0  0
   34.3210   28.6410   47.9280 C   0  0  0  0  0  0  0  0  0  0  0  0
   34.4220   29.7130   47.7700 H   0  0  0  0  0  0  0  0  0  0  0  0
   34.7730   28.0740   47.0910 H   0  0  0  0  0  0  0  0  0  0  0  0
   34.8630   28.2240   49.2720 C   0  0  0  0  0  0  0  0  0  0  0  0
   35.3160   27.2040   49.2120 H   0  0  0  0  0  0  0  0  0  0  0  0
   34.0920   28.1650   50.0670 H   0  0  0  0  0  0  0  0  0  0  0  0
   37.2530   30.1980   51.2820 C   0  0  0  0  0  0  0  0  0  0  0  0
   38.0480   30.8050   50.2950 C   0  0  0  0  0  0  0  0  0  0  0  0
   37.7540   30.5300   48.9570 C   0  0  0  0  0  0  0  0  0  0  0  0
   36.7200   29.6930   48.6700 N   0  0  0  0  0  0  0  0  0  0  0  0
   35.9810   29.1310   49.6600 C   0  0  0  0  0  0  0  0  0  0  0  0
   36.2550   29.3880   50.9380 N   0  0  0  0  0  0  0  0  0  0  0  0
   37.5470   30.4640   52.2850 H   0  0  0  0  0  0  0  0  0  0  0  0
   38.8810   31.4750   50.4030 H   0  0  0  0  0  0  0  0  0  0  0  0
   38.2720   30.9190   48.0900 H   0  0  0  0  0  0  0  0  0  0  0  0
  1  2  1  0  0  0  0
  2  6  1  0  0  0  0
  3  2  2  0  0  0  0
  3  7  1  0  0  0  0
  4  3  1  0  0  0  0
  5  4  1  0  0  0  0
  5  1  2  0  0  0  0
  8 17  1  0  0  0  0
  8  9  1  0  0  0  0
  9  4  1  0  0  0  0
 10  9  2  0  0  0  0
 10 11  1  0  0  0  0
 12 13  1  0  0  0  0
 12 10  1  0  0  0  0
 14 15  1  0  0  0  0
 14 12  2  0  0  0  0
 15  8  2  0  0  0  0
 17 16  3  0  0  0  0
 18  1  1  0  0  0  0
 18 21  1  0  0  0  0
 19 18  1  0  0  0  0
 20 18  1  0  0  0  0
 21 28  1  0  0  0  0
 21 23  1  0  0  0  0
 22 21  1  0  0  0  0
 24 30  1  0  0  0  0
 25 31  1  0  0  0  0
 25 24  2  0  0  0  0
 26 25  1  0  0  0  0
 27 26  2  0  0  0  0
 27 28  1  0  0  0  0
 28 29  2  0  0  0  0
 29 24  1  0  0  0  0
 32 26  1  0  0  0  0
M  END
>  <minimizedAffinity>
-4.68836498

>  <minimizedRMSD>
1.11048543

$$$$
