
 OpenBabel03272508193D

 32 34  0  0  0  0  0  0  0  0999 V2000
   37.0190   30.9760   49.7320 C   0  0  0  0  0  0  0  0  0  0  0  0
   35.7600   30.3830   49.6080 C   0  0  0  0  0  0  0  0  0  0  0  0
   35.4320   29.5470   50.6450 C   0  0  0  0  0  0  0  0  0  0  0  0
   36.2610   29.3230   51.6940 N   0  0  0  0  0  0  0  0  0  0  0  0
   37.4700   29.9120   51.7820 C   0  0  0  0  0  0  0  0  0  0  0  0
   37.8460   30.7380   50.8000 N   0  0  0  0  0  0  0  0  0  0  0  0
   34.5360   28.9730   50.7520 H   0  0  0  0  0  0  0  0  0  0  0  0
   38.1500   29.7520   52.6060 H   0  0  0  0  0  0  0  0  0  0  0  0
   37.3990   31.9810   48.6590 C   0  0  0  0  0  0  0  0  0  0  0  0
   38.7050   32.5170   48.5690 C   0  0  0  0  0  0  0  0  0  0  0  0
   38.4490   31.3060   47.7040 C   0  0  0  0  0  0  0  0  0  0  0  0
   36.5470   32.3480   48.0010 H   0  0  0  0  0  0  0  0  0  0  0  0
   39.4150   32.3020   49.4170 H   0  0  0  0  0  0  0  0  0  0  0  0
   38.9060   33.4960   48.1070 H   0  0  0  0  0  0  0  0  0  0  0  0
   38.3360   31.5450   46.6390 H   0  0  0  0  0  0  0  0  0  0  0  0
   38.8470   30.3370   47.9650 H   0  0  0  0  0  0  0  0  0  0  0  0
   34.8760   30.5800   48.4810 C   0  0  0  0  0  0  0  0  0  0  0  0
   34.8560   31.6580   48.2210 H   0  0  0  0  0  0  0  0  0  0  0  0
   33.8480   30.2640   48.8580 H   0  0  0  0  0  0  0  0  0  0  0  0
   35.0750   29.8070   47.2430 C   0  0  0  0  0  0  0  0  0  0  0  0
   36.1700   29.5400   47.1230 H   0  0  0  0  0  0  0  0  0  0  0  0
   34.8930   30.4430   46.3270 H   0  0  0  0  0  0  0  0  0  0  0  0
   33.9600   28.2910   45.7830 C   0  0  0  0  0  0  0  0  0  0  0  0
   34.3610   28.5310   47.1050 C   0  0  0  0  0  0  0  0  0  0  0  0
   34.0040   27.5160   47.9630 C   0  0  0  0  0  0  0  0  0  0  0  0
   34.3240   27.6900   48.9760 H   0  0  0  0  0  0  0  0  0  0  0  0
   33.3280   26.3660   47.6390 C   0  0  0  0  0  0  0  0  0  0  0  0
   33.1340   25.6860   48.4290 H   0  0  0  0  0  0  0  0  0  0  0  0
   32.9490   26.1600   46.3320 C   0  0  0  0  0  3  0  0  0  0  0  0
   33.2710   27.1310   45.4100 C   0  0  0  0  0  3  0  0  0  0  0  0
   34.4370   29.8790   43.7670 N   0  0  0  0  0  0  0  0  0  0  0  0
   34.2150   29.1740   44.6560 C   0  0  0  0  0  0  0  0  0  0  0  0
  1  6  1  0  0  0  0
  2  1  2  0  0  0  0
  2  3  1  0  0  0  0
  3  7  1  0  0  0  0
  3  4  2  0  0  0  0
  4  5  1  0  0  0  0
  5  8  1  0  0  0  0
  6  5  2  0  0  0  0
  9  1  1  0  0  0  0
 10  9  1  0  0  0  0
 10 13  1  0  0  0  0
 11 16  1  0  0  0  0
 11 10  1  0  0  0  0
 11  9  1  0  0  0  0
 12  9  1  0  0  0  0
 14 10  1  0  0  0  0
 15 11  1  0  0  0  0
 17 19  1  0  0  0  0
 17  2  1  0  0  0  0
 18 17  1  0  0  0  0
 20 17  1  0  0  0  0
 21 20  1  0  0  0  0
 22 20  1  0  0  0  0
 23 24  1  0  0  0  0
 24 20  1  0  0  0  0
 24 25  2  0  0  0  0
 25 26  1  0  0  0  0
 27 25  1  0  0  0  0
 27 28  1  0  0  0  0
 29 27  2  0  0  0  0
 30 23  2  0  0  0  0
 30 29  1  0  0  0  0
 31 32  3  0  0  0  0
 32 23  1  0  0  0  0
M  END
>  <minimizedAffinity>
-4.81215525

>  <minimizedRMSD>
7.57402802

$$$$
