
 OpenBabel03272501573D

 32 34  0  0  0  0  0  0  0  0999 V2000
   32.6230   28.1170   47.8450 C   0  0  0  0  0  0  0  0  0  0  0  0
   31.9950   27.0170   48.3620 C   0  0  0  0  0  0  0  0  0  0  0  0
   30.6640   27.0230   48.0230 C   0  0  0  0  0  0  0  0  0  0  0  0
   30.5000   28.1440   47.2940 N   0  0  0  0  0  0  0  0  0  0  0  0
   31.6690   28.7890   47.1930 N   0  0  0  0  0  0  0  0  0  0  0  0
   32.4710   26.2310   48.9630 H   0  0  0  0  0  0  0  0  0  0  0  0
   29.8600   26.3340   48.2430 H   0  0  0  0  0  0  0  0  0  0  0  0
   28.3020   29.2630   47.3530 C   0  0  0  0  0  0  0  0  0  0  0  0
   29.3430   28.6980   46.6640 C   0  0  0  0  0  0  0  0  0  0  0  0
   29.2260   28.6840   45.2720 C   0  0  0  0  0  0  0  0  0  0  0  0
   30.0600   28.2330   44.7450 H   0  0  0  0  0  0  0  0  0  0  0  0
   28.1570   29.1890   44.5600 C   0  0  0  0  0  0  0  0  0  0  0  0
   28.2120   29.1040   43.4840 H   0  0  0  0  0  0  0  0  0  0  0  0
   27.1230   29.7520   45.2880 C   0  0  0  0  0  3  0  0  0  0  0  0
   27.2150   29.7790   46.6810 C   0  0  0  0  0  3  0  0  0  0  0  0
   28.3510   29.3790   49.9160 N   0  0  0  0  0  0  0  0  0  0  0  0
   28.3380   29.3190   48.7660 C   0  0  0  0  0  0  0  0  0  0  0  0
   34.0790   28.4870   47.9830 C   0  0  0  0  0  0  0  0  0  0  0  0
   34.1840   29.5270   47.6800 H   0  0  0  0  0  0  0  0  0  0  0  0
   34.6690   27.8220   47.3240 H   0  0  0  0  0  0  0  0  0  0  0  0
   34.4080   28.2990   49.4420 C   0  0  0  0  0  0  0  0  0  0  0  0
   34.6730   27.2320   49.6500 H   0  0  0  0  0  0  0  0  0  0  0  0
   33.5670   28.5370   50.1250 H   0  0  0  0  0  0  0  0  0  0  0  0
   37.0570   30.0310   51.3480 C   0  0  0  0  0  0  0  0  0  0  0  0
   37.8840   30.5310   50.3280 C   0  0  0  0  0  0  0  0  0  0  0  0
   37.5220   30.2690   49.0040 C   0  0  0  0  0  0  0  0  0  0  0  0
   36.3950   29.5460   48.7620 N   0  0  0  0  0  0  0  0  0  0  0  0
   35.6290   29.0840   49.7830 C   0  0  0  0  0  0  0  0  0  0  0  0
   35.9670   29.3300   51.0480 N   0  0  0  0  0  0  0  0  0  0  0  0
   37.4080   30.2790   52.3370 H   0  0  0  0  0  0  0  0  0  0  0  0
   38.7870   31.1080   50.4010 H   0  0  0  0  0  0  0  0  0  0  0  0
   38.0530   30.5850   48.1160 H   0  0  0  0  0  0  0  0  0  0  0  0
  1 18  1  0  0  0  0
  1  2  1  0  0  0  0
  2  6  1  0  0  0  0
  3  7  1  0  0  0  0
  3  2  2  0  0  0  0
  4  3  1  0  0  0  0
  5  4  1  0  0  0  0
  5  1  2  0  0  0  0
  8 17  1  0  0  0  0
  9  4  1  0  0  0  0
  9  8  2  0  0  0  0
 10  9  1  0  0  0  0
 11 10  1  0  0  0  0
 12 10  2  0  0  0  0
 12 14  1  0  0  0  0
 13 12  1  0  0  0  0
 14 15  2  0  0  0  0
 15  8  1  0  0  0  0
 17 16  3  0  0  0  0
 18 21  1  0  0  0  0
 19 18  1  0  0  0  0
 20 18  1  0  0  0  0
 21 22  1  0  0  0  0
 21 28  1  0  0  0  0
 21 23  1  0  0  0  0
 24 30  1  0  0  0  0
 25 31  1  0  0  0  0
 25 24  2  0  0  0  0
 26 25  1  0  0  0  0
 27 26  2  0  0  0  0
 27 28  1  0  0  0  0
 28 29  2  0  0  0  0
 29 24  1  0  0  0  0
 32 26  1  0  0  0  0
M  END
>  <minimizedAffinity>
-5.0858407

>  <minimizedRMSD>
0.949274302

$$$$
