
 OpenBabel03272509303D

 39 41  0  0  1  0  0  0  0  0999 V2000
   37.5720   31.9790   47.8540 C   0  0  2  0  0  0  0  0  0  0  0  0
   38.4420   31.9810   49.0730 C   0  0  0  0  0  0  0  0  0  0  0  0
   38.3540   30.6970   49.8660 C   0  0  0  0  0  0  0  0  0  0  0  0
   36.9130   30.3770   50.2500 C   0  0  0  0  0  0  0  0  0  0  0  0
   35.8980   30.7910   49.2090 C   0  0  0  0  0  0  0  0  0  0  0  0
   36.6150   30.8370   47.8470 C   0  0  1  0  0  0  0  0  0  0  0  0
   36.9380   32.8980   47.7390 H   0  0  0  0  0  0  0  0  0  0  0  0
   37.9590   32.7550   49.7620 H   0  0  0  0  0  0  0  0  0  0  0  0
   39.4610   32.2970   48.9590 H   0  0  0  0  0  0  0  0  0  0  0  0
   38.8680   30.9120   50.8480 H   0  0  0  0  0  0  0  0  0  0  0  0
   38.8510   29.8410   49.4190 H   0  0  0  0  0  0  0  0  0  0  0  0
   36.6310   30.8350   51.2060 H   0  0  0  0  0  0  0  0  0  0  0  0
   36.8640   29.2520   50.3160 H   0  0  0  0  0  0  0  0  0  0  0  0
   35.5340   31.8050   49.4050 H   0  0  0  0  0  0  0  0  0  0  0  0
   35.0600   30.0680   49.1630 H   0  0  0  0  0  0  0  0  0  0  0  0
   37.1120   29.9000   47.8630 H   0  0  0  0  0  0  0  0  0  0  0  0
   38.3880   31.9290   46.6110 C   0  0  0  0  0  0  0  0  0  0  0  0
   39.5490   31.1530   46.6810 C   0  0  0  0  0  0  0  0  0  0  0  0
   40.3340   31.0880   45.5240 C   0  0  0  0  0  0  0  0  0  0  0  0
   39.9260   31.7780   44.4040 N   0  0  0  0  0  0  0  0  0  0  0  0
   38.7750   32.5250   44.3920 C   0  0  0  0  0  0  0  0  0  0  0  0
   38.0240   32.5860   45.5050 N   0  0  0  0  0  0  0  0  0  0  0  0
   39.9850   30.5620   47.4620 H   0  0  0  0  0  0  0  0  0  0  0  0
   41.2470   30.5400   45.4170 H   0  0  0  0  0  0  0  0  0  0  0  0
   38.5220   33.0340   43.4820 H   0  0  0  0  0  0  0  0  0  0  0  0
   34.8080   29.7690   46.4150 C   0  0  0  0  0  0  0  0  0  0  0  0
   34.4360   28.7390   47.0390 O   0  0  0  0  0  0  0  0  0  0  0  0
   35.7560   30.7810   46.7200 N   0  0  0  0  0  0  0  0  0  0  0  0
   35.7300   31.5270   45.9550 H   0  0  0  0  0  0  0  0  0  0  0  0
   34.6820   29.6080   43.9610 C   0  0  0  0  0  0  0  0  0  0  0  0
   33.9980   29.7350   45.1730 C   0  0  0  0  0  0  0  0  0  0  0  0
   32.6100   29.8260   45.1590 C   0  0  0  0  0  0  0  0  0  0  0  0
   32.1310   29.9200   46.1050 H   0  0  0  0  0  0  0  0  0  0  0  0
   31.9490   29.7880   43.9330 C   0  0  0  0  0  0  0  0  0  0  0  0
   30.8550   29.8600   43.9370 H   0  0  0  0  0  0  0  0  0  0  0  0
   32.6410   29.6610   42.7430 C   0  0  0  0  0  3  0  0  0  0  0  0
   34.0320   29.5690   42.7290 C   0  0  0  0  0  3  0  0  0  0  0  0
   37.2790   29.4340   43.8950 N   0  0  0  0  0  0  0  0  0  0  0  0
   36.1190   29.5110   43.9290 C   0  0  0  0  0  0  0  0  0  0  0  0
  1  7  1  6  0  0  0
  1  2  1  0  0  0  0
  2  8  1  0  0  0  0
  2  3  1  0  0  0  0
  3  4  1  0  0  0  0
  3 10  1  0  0  0  0
  4 13  1  0  0  0  0
  4 12  1  0  0  0  0
  5 14  1  0  0  0  0
  5  4  1  0  0  0  0
  6  1  1  0  0  0  0
  6 16  1  6  0  0  0
  6  5  1  0  0  0  0
  9  2  1  0  0  0  0
 11  3  1  0  0  0  0
 15  5  1  0  0  0  0
 17 18  1  0  0  0  0
 17  1  1  0  0  0  0
 18 23  1  0  0  0  0
 19 18  2  0  0  0  0
 20 19  1  0  0  0  0
 21 20  2  0  0  0  0
 21 22  1  0  0  0  0
 22 17  2  0  0  0  0
 24 19  1  0  0  0  0
 25 21  1  0  0  0  0
 26 28  1  0  0  0  0
 26 27  2  0  0  0  0
 28  6  1  0  0  0  0
 29 28  1  0  0  0  0
 30 31  1  0  0  0  0
 31 26  1  0  0  0  0
 32 31  2  0  0  0  0
 32 33  1  0  0  0  0
 34 35  1  0  0  0  0
 34 32  1  0  0  0  0
 36 34  2  0  0  0  0
 37 36  1  0  0  0  0
 37 30  2  0  0  0  0
 38 39  3  0  0  0  0
 39 30  1  0  0  0  0
M  END
>  <minimizedAffinity>
-5.22454309

>  <minimizedRMSD>
3.75521064

$$$$
