
 OpenBabel03272510253D

 33 36  0  0  0  0  0  0  0  0999 V2000
   38.2390   24.6860   33.6780 C   0  0  0  0  0  0  0  0  0  0  0  0
   38.4410   25.0130   35.0220 C   0  0  0  0  0  0  0  0  0  0  0  0
   37.9500   26.2020   35.5610 C   0  0  0  0  0  0  0  0  0  0  0  0
   37.2530   27.0250   34.6690 C   0  0  0  0  0  0  0  0  0  0  0  0
   36.6780   28.2290   34.9430 N   0  0  0  0  0  0  0  0  0  0  0  0
   36.1280   28.6510   33.7970 C   0  0  0  0  0  0  0  0  0  0  0  0
   36.3270   27.7770   32.8240 N   0  0  0  0  0  0  0  0  0  0  0  0
   37.0330   26.7400   33.3390 C   0  0  0  0  0  0  0  0  0  0  0  0
   37.5400   25.5400   32.8340 C   0  0  0  0  0  0  0  0  0  0  0  0
   38.6180   23.7630   33.2450 H   0  0  0  0  0  0  0  0  0  0  0  0
   38.0980   26.4600   36.5870 H   0  0  0  0  0  0  0  0  0  0  0  0
   36.6790   28.7180   35.8850 H   0  0  0  0  0  0  0  0  0  0  0  0
   37.3700   25.3210   31.8080 H   0  0  0  0  0  0  0  0  0  0  0  0
   40.9150   22.4970   36.3390 C   0  0  0  0  0  0  0  0  0  0  0  0
   40.3020   23.3690   35.4470 C   0  0  0  0  0  0  0  0  0  0  0  0
   39.1840   24.0680   35.8470 C   0  0  0  0  0  0  0  0  0  0  0  0
   38.7280   23.8630   37.1200 N   0  0  0  0  0  0  0  0  0  0  0  0
   39.3300   23.0130   37.9770 C   0  0  0  0  0  0  0  0  0  0  0  0
   40.4160   22.3390   37.5820 N   0  0  0  0  0  0  0  0  0  0  0  0
   41.7810   22.0110   35.9050 H   0  0  0  0  0  0  0  0  0  0  0  0
   40.6490   23.5460   34.4310 H   0  0  0  0  0  0  0  0  0  0  0  0
   38.9690   22.8520   38.9840 H   0  0  0  0  0  0  0  0  0  0  0  0
   35.4510   29.8630   33.7230 O   0  0  0  0  0  0  0  0  0  0  0  0
   33.6010   30.4500   35.1730 C   0  0  0  0  0  0  0  0  0  0  0  0
   34.9350   30.5390   34.7940 C   0  0  0  0  0  0  0  0  0  0  0  0
   35.6830   31.3710   35.6030 C   0  0  0  0  0  0  0  0  0  0  0  0
   36.7470   31.4770   35.3460 H   0  0  0  0  0  0  0  0  0  0  0  0
   35.1970   32.0670   36.6890 C   0  0  0  0  0  0  0  0  0  0  0  0
   35.9000   32.6890   37.2400 H   0  0  0  0  0  0  0  0  0  0  0  0
   33.8660   31.9340   37.0090 C   0  0  0  0  0  3  0  0  0  0  0  0
   33.0590   31.1220   36.2490 C   0  0  0  0  0  3  0  0  0  0  0  0
   31.9740   28.9480   33.8130 N   0  0  0  0  0  0  0  0  0  0  0  0
   32.7030   29.6130   34.4130 C   0  0  0  0  0  0  0  0  0  0  0  0
  1  2  1  0  0  0  0
  2  3  2  0  0  0  0
  2 16  1  0  0  0  0
  3 11  1  0  0  0  0
  4  5  1  0  0  0  0
  4  3  1  0  0  0  0
  5 12  1  0  0  0  0
  6  5  1  0  0  0  0
  7  8  1  0  0  0  0
  7  6  2  0  0  0  0
  8  4  2  0  0  0  0
  9  8  1  0  0  0  0
  9  1  2  0  0  0  0
 10  1  1  0  0  0  0
 13  9  1  0  0  0  0
 14 19  1  0  0  0  0
 15 16  1  0  0  0  0
 15 14  2  0  0  0  0
 16 17  2  0  0  0  0
 17 18  1  0  0  0  0
 18 22  1  0  0  0  0
 19 18  2  0  0  0  0
 20 14  1  0  0  0  0
 21 15  1  0  0  0  0
 23  6  1  0  0  0  0
 23 25  1  0  0  0  0
 24 31  1  0  0  0  0
 25 24  2  0  0  0  0
 25 26  1  0  0  0  0
 26 28  2  0  0  0  0
 27 26  1  0  0  0  0
 28 30  1  0  0  0  0
 28 29  1  0  0  0  0
 31 30  2  0  0  0  0
 32 33  3  0  0  0  0
 33 24  1  0  0  0  0
M  END
>  <minimizedAffinity>
-6.00467634

$$$$

 OpenBabel03272510253D

 33 36  0  0  0  0  0  0  0  0999 V2000
   35.7910   29.2770   32.7650 C   0  0  0  0  0  0  0  0  0  0  0  0
   35.9430   29.5800   34.1210 C   0  0  0  0  0  0  0  0  0  0  0  0
   36.5000   28.6620   35.0120 C   0  0  0  0  0  0  0  0  0  0  0  0
   36.8860   27.4380   34.4530 C   0  0  0  0  0  0  0  0  0  0  0  0
   37.4510   26.3820   35.1020 N   0  0  0  0  0  0  0  0  0  0  0  0
   37.6490   25.4350   34.1760 C   0  0  0  0  0  0  0  0  0  0  0  0
   37.2400   25.8430   32.9850 N   0  0  0  0  0  0  0  0  0  0  0  0
   36.7540   27.1010   33.1240 C   0  0  0  0  0  0  0  0  0  0  0  0
   36.1920   28.0460   32.2610 C   0  0  0  0  0  0  0  0  0  0  0  0
   35.3580   29.9830   32.0610 H   0  0  0  0  0  0  0  0  0  0  0  0
   36.6210   28.8840   36.0500 H   0  0  0  0  0  0  0  0  0  0  0  0
   37.6790   26.3400   36.1380 H   0  0  0  0  0  0  0  0  0  0  0  0
   36.0900   27.7850   31.2360 H   0  0  0  0  0  0  0  0  0  0  0  0
   35.4230   32.7780   36.0430 C   0  0  0  0  0  0  0  0  0  0  0  0
   35.9290   31.5220   35.7250 C   0  0  0  0  0  0  0  0  0  0  0  0
   35.5000   30.8920   34.5780 C   0  0  0  0  0  0  0  0  0  0  0  0
   34.5830   31.5430   33.8000 N   0  0  0  0  0  0  0  0  0  0  0  0
   34.0980   32.7600   34.1180 C   0  0  0  0  0  0  0  0  0  0  0  0
   34.5200   33.3680   35.2330 N   0  0  0  0  0  0  0  0  0  0  0  0
   35.8390   33.1640   36.9660 H   0  0  0  0  0  0  0  0  0  0  0  0
   36.6590   30.9890   36.3310 H   0  0  0  0  0  0  0  0  0  0  0  0
   33.3730   33.2750   33.5010 H   0  0  0  0  0  0  0  0  0  0  0  0
   38.2170   24.2100   34.5040 O   0  0  0  0  0  0  0  0  0  0  0  0
   39.8090   23.3070   36.0910 C   0  0  0  0  0  0  0  0  0  0  0  0
   38.5580   23.8180   35.7690 C   0  0  0  0  0  0  0  0  0  0  0  0
   37.6990   23.8920   36.8470 C   0  0  0  0  0  0  0  0  0  0  0  0
   36.6940   24.2910   36.6470 H   0  0  0  0  0  0  0  0  0  0  0  0
   38.0070   23.5070   38.1350 C   0  0  0  0  0  0  0  0  0  0  0  0
   37.2320   23.6210   38.8900 H   0  0  0  0  0  0  0  0  0  0  0  0
   39.2640   23.0090   38.3850 C   0  0  0  0  0  3  0  0  0  0  0  0
   40.1740   22.9060   37.3610 C   0  0  0  0  0  3  0  0  0  0  0  0
   41.5980   23.0660   34.2230 N   0  0  0  0  0  0  0  0  0  0  0  0
   40.8080   23.1740   35.0580 C   0  0  0  0  0  0  0  0  0  0  0  0
  1  2  1  0  0  0  0
  2 16  1  0  0  0  0
  2  3  2  0  0  0  0
  3 11  1  0  0  0  0
  4  3  1  0  0  0  0
  4  5  1  0  0  0  0
  5 12  1  0  0  0  0
  6 23  1  0  0  0  0
  6  5  1  0  0  0  0
  7  8  1  0  0  0  0
  7  6  2  0  0  0  0
  8  4  2  0  0  0  0
  9  1  2  0  0  0  0
  9  8  1  0  0  0  0
 10  1  1  0  0  0  0
 13  9  1  0  0  0  0
 14 20  1  0  0  0  0
 15 14  1  0  0  0  0
 15 21  1  0  0  0  0
 16 15  2  0  0  0  0
 17 18  2  0  0  0  0
 17 16  1  0  0  0  0
 18 19  1  0  0  0  0
 19 14  2  0  0  0  0
 22 18  1  0  0  0  0
 23 25  1  0  0  0  0
 24 31  1  0  0  0  0
 25 24  2  0  0  0  0
 25 26  1  0  0  0  0
 26 28  2  0  0  0  0
 27 26  1  0  0  0  0
 28 30  1  0  0  0  0
 28 29  1  0  0  0  0
 31 30  2  0  0  0  0
 32 33  3  0  0  0  0
 33 24  1  0  0  0  0
M  END
>  <minimizedAffinity>
-5.64783812

$$$$

 OpenBabel03272510253D

 33 36  0  0  0  0  0  0  0  0999 V2000
   37.9170   25.0140   33.7000 C   0  0  0  0  0  0  0  0  0  0  0  0
   37.9800   25.3960   35.0430 C   0  0  0  0  0  0  0  0  0  0  0  0
   37.4610   26.6170   35.4750 C   0  0  0  0  0  0  0  0  0  0  0  0
   36.8840   27.4130   34.4790 C   0  0  0  0  0  0  0  0  0  0  0  0
   36.3110   28.6390   34.6370 N   0  0  0  0  0  0  0  0  0  0  0  0
   35.8980   29.0200   33.4210 C   0  0  0  0  0  0  0  0  0  0  0  0
   36.1810   28.0990   32.5130 N   0  0  0  0  0  0  0  0  0  0  0  0
   36.8020   27.0730   33.1460 C   0  0  0  0  0  0  0  0  0  0  0  0
   37.3330   25.8430   32.7500 C   0  0  0  0  0  0  0  0  0  0  0  0
   38.3180   24.0660   33.3500 H   0  0  0  0  0  0  0  0  0  0  0  0
   37.5040   26.9180   36.4990 H   0  0  0  0  0  0  0  0  0  0  0  0
   36.2220   29.1690   35.5520 H   0  0  0  0  0  0  0  0  0  0  0  0
   37.2690   25.5810   31.7220 H   0  0  0  0  0  0  0  0  0  0  0  0
   38.8610   23.3130   38.0550 C   0  0  0  0  0  0  0  0  0  0  0  0
   38.1660   24.2190   37.2620 C   0  0  0  0  0  0  0  0  0  0  0  0
   38.6070   24.4750   35.9830 C   0  0  0  0  0  0  0  0  0  0  0  0
   39.7250   23.8150   35.5530 N   0  0  0  0  0  0  0  0  0  0  0  0
   40.3930   22.9400   36.3300 C   0  0  0  0  0  0  0  0  0  0  0  0
   39.9570   22.6950   37.5720 N   0  0  0  0  0  0  0  0  0  0  0  0
   38.4130   23.2010   39.0350 H   0  0  0  0  0  0  0  0  0  0  0  0
   37.2740   24.7540   37.5860 H   0  0  0  0  0  0  0  0  0  0  0  0
   41.2770   22.4180   35.9890 H   0  0  0  0  0  0  0  0  0  0  0  0
   35.2620   30.2400   33.2230 O   0  0  0  0  0  0  0  0  0  0  0  0
   36.1270   32.3510   34.0380 C   0  0  0  0  0  0  0  0  0  0  0  0
   35.9010   31.4320   33.0200 C   0  0  0  0  0  0  0  0  0  0  0  0
   36.3830   31.8400   31.7930 C   0  0  0  0  0  0  0  0  0  0  0  0
   36.2300   31.1480   30.9520 H   0  0  0  0  0  0  0  0  0  0  0  0
   37.0310   33.0330   31.5520 C   0  0  0  0  0  0  0  0  0  0  0  0
   37.3590   33.2270   30.5330 H   0  0  0  0  0  0  0  0  0  0  0  0
   37.2220   33.8970   32.6040 C   0  0  0  0  0  3  0  0  0  0  0  0
   36.7690   33.5590   33.8560 C   0  0  0  0  0  3  0  0  0  0  0  0
   35.3240   31.8160   36.4510 N   0  0  0  0  0  0  0  0  0  0  0  0
   35.6750   32.0530   35.3760 C   0  0  0  0  0  0  0  0  0  0  0  0
  1  2  1  0  0  0  0
  2  3  2  0  0  0  0
  2 16  1  0  0  0  0
  3 11  1  0  0  0  0
  4  5  1  0  0  0  0
  4  3  1  0  0  0  0
  5 12  1  0  0  0  0
  6  5  1  0  0  0  0
  7  8  1  0  0  0  0
  7  6  2  0  0  0  0
  8  4  2  0  0  0  0
  9  8  1  0  0  0  0
  9  1  2  0  0  0  0
 10  1  1  0  0  0  0
 13  9  1  0  0  0  0
 14 20  1  0  0  0  0
 15 21  1  0  0  0  0
 15 14  2  0  0  0  0
 16 15  1  0  0  0  0
 17 16  2  0  0  0  0
 17 18  1  0  0  0  0
 18 19  2  0  0  0  0
 19 14  1  0  0  0  0
 22 18  1  0  0  0  0
 23  6  1  0  0  0  0
 24 33  1  0  0  0  0
 25 23  1  0  0  0  0
 25 24  2  0  0  0  0
 26 25  1  0  0  0  0
 27 26  1  0  0  0  0
 28 26  2  0  0  0  0
 28 30  1  0  0  0  0
 29 28  1  0  0  0  0
 30 31  2  0  0  0  0
 31 24  1  0  0  0  0
 33 32  3  0  0  0  0
M  END
>  <minimizedAffinity>
-5.60654926

$$$$

 OpenBabel03272510253D

 33 36  0  0  0  0  0  0  0  0999 V2000
   35.8990   29.7610   32.6810 C   0  0  0  0  0  0  0  0  0  0  0  0
   35.8290   29.4670   34.0460 C   0  0  0  0  0  0  0  0  0  0  0  0
   36.2140   28.2210   34.5400 C   0  0  0  0  0  0  0  0  0  0  0  0
   36.6670   27.3070   33.5830 C   0  0  0  0  0  0  0  0  0  0  0  0
   37.0980   26.0340   33.8030 N   0  0  0  0  0  0  0  0  0  0  0  0
   37.4310   25.5370   32.6050 C   0  0  0  0  0  0  0  0  0  0  0  0
   37.2320   26.4300   31.6480 N   0  0  0  0  0  0  0  0  0  0  0  0
   36.7510   27.5570   32.2300 C   0  0  0  0  0  0  0  0  0  0  0  0
   36.3560   28.8160   31.7710 C   0  0  0  0  0  0  0  0  0  0  0  0
   35.6000   30.7280   32.2830 H   0  0  0  0  0  0  0  0  0  0  0  0
   36.1650   27.9870   35.5820 H   0  0  0  0  0  0  0  0  0  0  0  0
   37.1510   25.5510   34.7470 H   0  0  0  0  0  0  0  0  0  0  0  0
   36.4210   29.0080   30.7280 H   0  0  0  0  0  0  0  0  0  0  0  0
   35.5240   32.3750   36.4200 C   0  0  0  0  0  0  0  0  0  0  0  0
   36.1240   31.4330   35.5920 C   0  0  0  0  0  0  0  0  0  0  0  0
   35.3390   30.5080   34.9410 C   0  0  0  0  0  0  0  0  0  0  0  0
   33.9880   30.5650   35.1470 N   0  0  0  0  0  0  0  0  0  0  0  0
   33.4150   31.4820   35.9530 C   0  0  0  0  0  0  0  0  0  0  0  0
   34.1850   32.3790   36.5810 N   0  0  0  0  0  0  0  0  0  0  0  0
   36.2480   33.0430   36.8710 H   0  0  0  0  0  0  0  0  0  0  0  0
   37.1960   31.3720   35.4160 H   0  0  0  0  0  0  0  0  0  0  0  0
   32.3460   31.5260   36.1150 H   0  0  0  0  0  0  0  0  0  0  0  0
   37.9160   24.2410   32.4680 O   0  0  0  0  0  0  0  0  0  0  0  0
   37.0970   22.1450   33.3640 C   0  0  0  0  0  0  0  0  0  0  0  0
   37.1390   23.1200   32.3750 C   0  0  0  0  0  0  0  0  0  0  0  0
   36.3200   22.8470   31.2970 C   0  0  0  0  0  0  0  0  0  0  0  0
   36.3150   23.5880   30.4860 H   0  0  0  0  0  0  0  0  0  0  0  0
   35.5240   21.7280   31.1700 C   0  0  0  0  0  0  0  0  0  0  0  0
   34.9270   21.6390   30.2650 H   0  0  0  0  0  0  0  0  0  0  0  0
   35.5310   20.8010   32.1860 C   0  0  0  0  0  3  0  0  0  0  0  0
   36.3200   21.0060   33.2920 C   0  0  0  0  0  3  0  0  0  0  0  0
   38.5550   22.4400   35.4950 N   0  0  0  0  0  0  0  0  0  0  0  0
   37.9050   22.3020   34.5490 C   0  0  0  0  0  0  0  0  0  0  0  0
  1  2  1  0  0  0  0
  2  3  2  0  0  0  0
  2 16  1  0  0  0  0
  3 11  1  0  0  0  0
  4  5  1  0  0  0  0
  4  3  1  0  0  0  0
  5 12  1  0  0  0  0
  6  5  1  0  0  0  0
  7  8  1  0  0  0  0
  7  6  2  0  0  0  0
  8  4  2  0  0  0  0
  9  8  1  0  0  0  0
  9  1  2  0  0  0  0
 10  1  1  0  0  0  0
 13  9  1  0  0  0  0
 14 19  1  0  0  0  0
 14 20  1  0  0  0  0
 15 14  2  0  0  0  0
 16 17  2  0  0  0  0
 16 15  1  0  0  0  0
 17 18  1  0  0  0  0
 18 22  1  0  0  0  0
 18 19  2  0  0  0  0
 21 15  1  0  0  0  0
 23  6  1  0  0  0  0
 24 33  1  0  0  0  0
 25 23  1  0  0  0  0
 25 24  2  0  0  0  0
 26 25  1  0  0  0  0
 27 26  1  0  0  0  0
 28 26  2  0  0  0  0
 28 30  1  0  0  0  0
 29 28  1  0  0  0  0
 30 31  2  0  0  0  0
 31 24  1  0  0  0  0
 33 32  3  0  0  0  0
M  END
>  <minimizedAffinity>
-5.60509825

$$$$

 OpenBabel03272510253D

 33 36  0  0  0  0  0  0  0  0999 V2000
   38.3520   24.5960   33.6350 C   0  0  0  0  0  0  0  0  0  0  0  0
   38.4210   24.9840   34.9760 C   0  0  0  0  0  0  0  0  0  0  0  0
   37.8260   26.1640   35.4220 C   0  0  0  0  0  0  0  0  0  0  0  0
   37.1680   26.9150   34.4410 C   0  0  0  0  0  0  0  0  0  0  0  0
   36.5120   28.0960   34.6150 N   0  0  0  0  0  0  0  0  0  0  0  0
   36.0420   28.4450   33.4100 C   0  0  0  0  0  0  0  0  0  0  0  0
   36.3680   27.5470   32.4940 N   0  0  0  0  0  0  0  0  0  0  0  0
   37.0780   26.5690   33.1100 C   0  0  0  0  0  0  0  0  0  0  0  0
   37.6860   25.3800   32.7000 C   0  0  0  0  0  0  0  0  0  0  0  0
   38.8120   23.6790   33.2750 H   0  0  0  0  0  0  0  0  0  0  0  0
   37.8720   26.4690   36.4450 H   0  0  0  0  0  0  0  0  0  0  0  0
   36.4080   28.6190   35.5320 H   0  0  0  0  0  0  0  0  0  0  0  0
   37.6160   25.1140   31.6740 H   0  0  0  0  0  0  0  0  0  0  0  0
   40.8960   22.6570   36.6020 C   0  0  0  0  0  0  0  0  0  0  0  0
   40.3190   23.4620   35.6260 C   0  0  0  0  0  0  0  0  0  0  0  0
   39.1360   24.1120   35.8990 C   0  0  0  0  0  0  0  0  0  0  0  0
   38.5810   23.9270   37.1360 N   0  0  0  0  0  0  0  0  0  0  0  0
   39.1480   23.1430   38.0750 C   0  0  0  0  0  0  0  0  0  0  0  0
   40.2990   22.5160   37.8030 N   0  0  0  0  0  0  0  0  0  0  0  0
   41.8210   22.2040   36.2640 H   0  0  0  0  0  0  0  0  0  0  0  0
   40.7450   23.6210   34.6380 H   0  0  0  0  0  0  0  0  0  0  0  0
   38.7090   22.9990   39.0530 H   0  0  0  0  0  0  0  0  0  0  0  0
   35.3150   29.6160   33.2280 O   0  0  0  0  0  0  0  0  0  0  0  0
   33.6930   30.5470   34.7690 C   0  0  0  0  0  0  0  0  0  0  0  0
   34.0250   29.8080   33.6400 C   0  0  0  0  0  0  0  0  0  0  0  0
   32.9290   29.2910   32.9780 C   0  0  0  0  0  0  0  0  0  0  0  0
   33.1360   28.6970   32.0760 H   0  0  0  0  0  0  0  0  0  0  0  0
   31.6160   29.4640   33.3630 C   0  0  0  0  0  0  0  0  0  0  0  0
   30.8490   28.9990   32.7480 H   0  0  0  0  0  0  0  0  0  0  0  0
   31.3580   30.2060   34.4920 C   0  0  0  0  0  3  0  0  0  0  0  0
   32.3990   30.7530   35.2020 C   0  0  0  0  0  3  0  0  0  0  0  0
   35.5770   31.6230   36.1990 N   0  0  0  0  0  0  0  0  0  0  0  0
   34.7430   31.1460   35.5580 C   0  0  0  0  0  0  0  0  0  0  0  0
  1  2  1  0  0  0  0
  2  3  2  0  0  0  0
  2 16  1  0  0  0  0
  3 11  1  0  0  0  0
  4  5  1  0  0  0  0
  4  3  1  0  0  0  0
  5 12  1  0  0  0  0
  6  5  1  0  0  0  0
  7  8  1  0  0  0  0
  7  6  2  0  0  0  0
  8  4  2  0  0  0  0
  9  8  1  0  0  0  0
  9  1  2  0  0  0  0
 10  1  1  0  0  0  0
 13  9  1  0  0  0  0
 14 19  1  0  0  0  0
 15 16  1  0  0  0  0
 15 14  2  0  0  0  0
 16 17  2  0  0  0  0
 17 18  1  0  0  0  0
 18 22  1  0  0  0  0
 19 18  2  0  0  0  0
 20 14  1  0  0  0  0
 21 15  1  0  0  0  0
 23  6  1  0  0  0  0
 23 25  1  0  0  0  0
 24 31  1  0  0  0  0
 24 33  1  0  0  0  0
 25 24  2  0  0  0  0
 26 28  2  0  0  0  0
 26 25  1  0  0  0  0
 27 26  1  0  0  0  0
 28 30  1  0  0  0  0
 29 28  1  0  0  0  0
 30 31  2  0  0  0  0
 33 32  3  0  0  0  0
M  END
>  <minimizedAffinity>
-5.57580566

$$$$

 OpenBabel03272510253D

 33 36  0  0  0  0  0  0  0  0999 V2000
   37.8070   25.0750   33.2680 C   0  0  0  0  0  0  0  0  0  0  0  0
   38.1470   25.2760   34.6090 C   0  0  0  0  0  0  0  0  0  0  0  0
   37.7530   26.4260   35.2930 C   0  0  0  0  0  0  0  0  0  0  0  0
   37.0070   27.3450   34.5470 C   0  0  0  0  0  0  0  0  0  0  0  0
   36.5050   28.5360   34.9770 N   0  0  0  0  0  0  0  0  0  0  0  0
   35.8650   29.0740   33.9300 C   0  0  0  0  0  0  0  0  0  0  0  0
   35.9390   28.2840   32.8710 N   0  0  0  0  0  0  0  0  0  0  0  0
   36.6510   27.1850   33.2250 C   0  0  0  0  0  0  0  0  0  0  0  0
   37.0640   26.0210   32.5720 C   0  0  0  0  0  0  0  0  0  0  0  0
   38.1090   24.1840   32.7230 H   0  0  0  0  0  0  0  0  0  0  0  0
   38.0070   26.5880   36.3180 H   0  0  0  0  0  0  0  0  0  0  0  0
   36.6130   28.9390   35.9530 H   0  0  0  0  0  0  0  0  0  0  0  0
   36.7900   25.8980   31.5530 H   0  0  0  0  0  0  0  0  0  0  0  0
   40.5930   22.5340   35.4380 C   0  0  0  0  0  0  0  0  0  0  0  0
   39.9230   23.4920   34.6850 C   0  0  0  0  0  0  0  0  0  0  0  0
   38.9290   24.2410   35.2740 C   0  0  0  0  0  0  0  0  0  0  0  0
   38.6460   23.9970   36.5890 N   0  0  0  0  0  0  0  0  0  0  0  0
   39.3000   23.0650   37.3110 C   0  0  0  0  0  0  0  0  0  0  0  0
   40.2660   22.3420   36.7320 N   0  0  0  0  0  0  0  0  0  0  0  0
   41.3490   22.0160   34.8600 H   0  0  0  0  0  0  0  0  0  0  0  0
   40.1340   23.7000   33.6370 H   0  0  0  0  0  0  0  0  0  0  0  0
   39.0750   22.8730   38.3520 H   0  0  0  0  0  0  0  0  0  0  0  0
   35.2300   30.3070   34.0260 O   0  0  0  0  0  0  0  0  0  0  0  0
   34.7550   31.7700   35.8980 C   0  0  0  0  0  0  0  0  0  0  0  0
   34.4380   30.7000   35.0690 C   0  0  0  0  0  0  0  0  0  0  0  0
   33.2500   30.0800   35.4000 C   0  0  0  0  0  0  0  0  0  0  0  0
   32.9520   29.2270   34.7740 H   0  0  0  0  0  0  0  0  0  0  0  0
   32.4270   30.4490   36.4430 C   0  0  0  0  0  0  0  0  0  0  0  0
   31.5170   29.8700   36.5910 H   0  0  0  0  0  0  0  0  0  0  0  0
   32.8000   31.5170   37.2250 C   0  0  0  0  0  3  0  0  0  0  0  0
   33.9710   32.1840   36.9550 C   0  0  0  0  0  3  0  0  0  0  0  0
   36.9520   33.0920   35.4810 N   0  0  0  0  0  0  0  0  0  0  0  0
   35.9720   32.5100   35.6660 C   0  0  0  0  0  0  0  0  0  0  0  0
  1  2  1  0  0  0  0
  2 16  1  0  0  0  0
  2  3  2  0  0  0  0
  3 11  1  0  0  0  0
  4  5  1  0  0  0  0
  4  3  1  0  0  0  0
  5 12  1  0  0  0  0
  6 23  1  0  0  0  0
  6  5  1  0  0  0  0
  7  8  1  0  0  0  0
  7  6  2  0  0  0  0
  8  4  2  0  0  0  0
  9  8  1  0  0  0  0
  9  1  2  0  0  0  0
 10  1  1  0  0  0  0
 13  9  1  0  0  0  0
 14 19  1  0  0  0  0
 15 16  1  0  0  0  0
 15 14  2  0  0  0  0
 16 17  2  0  0  0  0
 17 18  1  0  0  0  0
 18 22  1  0  0  0  0
 19 18  2  0  0  0  0
 20 14  1  0  0  0  0
 21 15  1  0  0  0  0
 23 25  1  0  0  0  0
 24 31  1  0  0  0  0
 25 26  1  0  0  0  0
 25 24  2  0  0  0  0
 26 28  2  0  0  0  0
 27 26  1  0  0  0  0
 28 29  1  0  0  0  0
 28 30  1  0  0  0  0
 31 30  2  0  0  0  0
 32 33  3  0  0  0  0
 33 24  1  0  0  0  0
M  END
>  <minimizedAffinity>
-5.54211664

$$$$

 OpenBabel03272510253D

 33 36  0  0  0  0  0  0  0  0999 V2000
   38.1880   24.7410   33.7530 C   0  0  0  0  0  0  0  0  0  0  0  0
   38.0340   25.2270   35.0540 C   0  0  0  0  0  0  0  0  0  0  0  0
   37.3910   26.4390   35.3050 C   0  0  0  0  0  0  0  0  0  0  0  0
   36.9220   27.1180   34.1750 C   0  0  0  0  0  0  0  0  0  0  0  0
   36.2650   28.3100   34.1480 N   0  0  0  0  0  0  0  0  0  0  0  0
   36.0120   28.5710   32.8590 C   0  0  0  0  0  0  0  0  0  0  0  0
   36.4740   27.6050   32.0800 N   0  0  0  0  0  0  0  0  0  0  0  0
   37.0530   26.6730   32.8770 C   0  0  0  0  0  0  0  0  0  0  0  0
   37.7030   25.4550   32.6640 C   0  0  0  0  0  0  0  0  0  0  0  0
   38.6880   23.7980   33.5440 H   0  0  0  0  0  0  0  0  0  0  0  0
   37.2680   26.8180   36.2960 H   0  0  0  0  0  0  0  0  0  0  0  0
   36.0140   28.9000   34.9940 H   0  0  0  0  0  0  0  0  0  0  0  0
   37.8040   25.1140   31.6630 H   0  0  0  0  0  0  0  0  0  0  0  0
   38.6220   23.5010   38.3500 C   0  0  0  0  0  0  0  0  0  0  0  0
   38.0060   24.3060   37.3980 C   0  0  0  0  0  0  0  0  0  0  0  0
   38.5690   24.4230   36.1470 C   0  0  0  0  0  0  0  0  0  0  0  0
   39.7240   23.7330   35.9020 N   0  0  0  0  0  0  0  0  0  0  0  0
   40.3150   22.9570   36.8330 C   0  0  0  0  0  0  0  0  0  0  0  0
   39.7610   22.8460   38.0470 N   0  0  0  0  0  0  0  0  0  0  0  0
   38.0820   23.4930   39.2900 H   0  0  0  0  0  0  0  0  0  0  0  0
   37.0870   24.8620   37.5740 H   0  0  0  0  0  0  0  0  0  0  0  0
   41.2280   22.4110   36.6390 H   0  0  0  0  0  0  0  0  0  0  0  0
   35.3440   29.7270   32.4710 O   0  0  0  0  0  0  0  0  0  0  0  0
   36.5500   31.6320   31.5850 C   0  0  0  0  0  0  0  0  0  0  0  0
   35.8390   30.9950   32.5950 C   0  0  0  0  0  0  0  0  0  0  0  0
   35.6820   31.7680   33.7290 C   0  0  0  0  0  0  0  0  0  0  0  0
   35.1260   31.3110   34.5600 H   0  0  0  0  0  0  0  0  0  0  0  0
   36.1670   33.0490   33.8890 C   0  0  0  0  0  0  0  0  0  0  0  0
   35.9710   33.5430   34.8380 H   0  0  0  0  0  0  0  0  0  0  0  0
   36.8630   33.6190   32.8490 C   0  0  0  0  0  3  0  0  0  0  0  0
   37.0580   32.9110   31.6880 C   0  0  0  0  0  3  0  0  0  0  0  0
   36.9910   30.3900   29.3460 N   0  0  0  0  0  0  0  0  0  0  0  0
   36.7890   30.9390   30.3410 C   0  0  0  0  0  0  0  0  0  0  0  0
  1  2  1  0  0  0  0
  2  3  2  0  0  0  0
  2 16  1  0  0  0  0
  3 11  1  0  0  0  0
  4  3  1  0  0  0  0
  5  4  1  0  0  0  0
  5 12  1  0  0  0  0
  6  5  1  0  0  0  0
  7  6  2  0  0  0  0
  7  8  1  0  0  0  0
  8  4  2  0  0  0  0
  9  8  1  0  0  0  0
  9  1  2  0  0  0  0
 10  1  1  0  0  0  0
 13  9  1  0  0  0  0
 14 20  1  0  0  0  0
 15 21  1  0  0  0  0
 15 14  2  0  0  0  0
 16 15  1  0  0  0  0
 17 16  2  0  0  0  0
 17 18  1  0  0  0  0
 18 19  2  0  0  0  0
 19 14  1  0  0  0  0
 22 18  1  0  0  0  0
 23 25  1  0  0  0  0
 23  6  1  0  0  0  0
 24 31  2  0  0  0  0
 24 25  1  0  0  0  0
 25 26  2  0  0  0  0
 26 28  1  0  0  0  0
 26 27  1  0  0  0  0
 28 29  1  0  0  0  0
 30 28  2  0  0  0  0
 31 30  1  0  0  0  0
 32 33  3  0  0  0  0
 33 24  1  0  0  0  0
M  END
>  <minimizedAffinity>
-5.52003384

$$$$

 OpenBabel03272510253D

 33 36  0  0  0  0  0  0  0  0999 V2000
   37.5050   23.2450   32.9130 C   0  0  0  0  0  0  0  0  0  0  0  0
   36.5000   22.7930   32.0530 C   0  0  0  0  0  0  0  0  0  0  0  0
   35.8330   23.6660   31.1930 C   0  0  0  0  0  0  0  0  0  0  0  0
   36.2410   25.0030   31.2570 C   0  0  0  0  0  0  0  0  0  0  0  0
   35.7540   26.0450   30.5280 N   0  0  0  0  0  0  0  0  0  0  0  0
   36.4360   27.1290   30.9210 C   0  0  0  0  0  0  0  0  0  0  0  0
   37.3220   26.8210   31.8540 N   0  0  0  0  0  0  0  0  0  0  0  0
   37.2270   25.4890   32.0900 C   0  0  0  0  0  0  0  0  0  0  0  0
   37.8720   24.5850   32.9380 C   0  0  0  0  0  0  0  0  0  0  0  0
   38.0320   22.5750   33.5880 H   0  0  0  0  0  0  0  0  0  0  0  0
   35.0650   23.3300   30.5320 H   0  0  0  0  0  0  0  0  0  0  0  0
   34.9850   25.9870   29.7990 H   0  0  0  0  0  0  0  0  0  0  0  0
   38.6310   24.9600   33.5790 H   0  0  0  0  0  0  0  0  0  0  0  0
   35.3930   19.3370   33.0610 C   0  0  0  0  0  0  0  0  0  0  0  0
   35.6660   20.6960   33.1700 C   0  0  0  0  0  0  0  0  0  0  0  0
   36.1690   21.3740   32.0820 C   0  0  0  0  0  0  0  0  0  0  0  0
   36.3780   20.6630   30.9330 N   0  0  0  0  0  0  0  0  0  0  0  0
   36.1110   19.3450   30.8370 C   0  0  0  0  0  0  0  0  0  0  0  0
   35.6210   18.6930   31.8980 N   0  0  0  0  0  0  0  0  0  0  0  0
   35.0020   18.9230   33.9830 H   0  0  0  0  0  0  0  0  0  0  0  0
   35.5060   21.2780   34.0760 H   0  0  0  0  0  0  0  0  0  0  0  0
   36.2760   18.7840   29.9260 H   0  0  0  0  0  0  0  0  0  0  0  0
   36.1850   28.3810   30.3690 O   0  0  0  0  0  0  0  0  0  0  0  0
   36.6450   30.7510   30.5630 C   0  0  0  0  0  0  0  0  0  0  0  0
   36.1570   29.5540   31.0710 C   0  0  0  0  0  0  0  0  0  0  0  0
   35.6420   29.6670   32.3470 C   0  0  0  0  0  0  0  0  0  0  0  0
   35.2410   28.7470   32.7970 H   0  0  0  0  0  0  0  0  0  0  0  0
   35.5970   30.8320   33.0840 C   0  0  0  0  0  0  0  0  0  0  0  0
   35.1630   30.7770   34.0800 H   0  0  0  0  0  0  0  0  0  0  0  0
   36.0990   31.9820   32.5210 C   0  0  0  0  0  3  0  0  0  0  0  0
   36.6270   31.9460   31.2530 C   0  0  0  0  0  3  0  0  0  0  0  0
   37.6780   30.7930   28.1790 N   0  0  0  0  0  0  0  0  0  0  0  0
   37.2140   30.7790   29.2360 C   0  0  0  0  0  0  0  0  0  0  0  0
  1  9  1  0  0  0  0
  1 10  1  0  0  0  0
  2 16  1  0  0  0  0
  2  1  2  0  0  0  0
  3  4  2  0  0  0  0
  3  2  1  0  0  0  0
  4  8  1  0  0  0  0
  5  6  1  0  0  0  0
  5  4  1  0  0  0  0
  6  7  2  0  0  0  0
  7  8  1  0  0  0  0
  8  9  2  0  0  0  0
  9 13  1  0  0  0  0
 11  3  1  0  0  0  0
 12  5  1  0  0  0  0
 14 15  1  0  0  0  0
 14 20  1  0  0  0  0
 15 21  1  0  0  0  0
 16 15  2  0  0  0  0
 17 16  1  0  0  0  0
 18 17  2  0  0  0  0
 18 19  1  0  0  0  0
 19 14  2  0  0  0  0
 22 18  1  0  0  0  0
 23  6  1  0  0  0  0
 23 25  1  0  0  0  0
 24 25  2  0  0  0  0
 24 31  1  0  0  0  0
 25 26  1  0  0  0  0
 26 27  1  0  0  0  0
 26 28  2  0  0  0  0
 28 29  1  0  0  0  0
 30 28  1  0  0  0  0
 31 30  2  0  0  0  0
 32 33  3  0  0  0  0
 33 24  1  0  0  0  0
M  END
>  <minimizedAffinity>
-5.51386738

$$$$

 OpenBabel03272510253D

 33 36  0  0  0  0  0  0  0  0999 V2000
   35.1520   30.4270   32.5040 C   0  0  0  0  0  0  0  0  0  0  0  0
   35.3800   29.8670   33.7640 C   0  0  0  0  0  0  0  0  0  0  0  0
   36.0200   28.6360   33.9070 C   0  0  0  0  0  0  0  0  0  0  0  0
   36.4080   28.0170   32.7130 C   0  0  0  0  0  0  0  0  0  0  0  0
   37.0450   26.8210   32.5790 N   0  0  0  0  0  0  0  0  0  0  0  0
   37.2140   26.6310   31.2640 C   0  0  0  0  0  0  0  0  0  0  0  0
   36.7180   27.6430   30.5700 N   0  0  0  0  0  0  0  0  0  0  0  0
   36.2030   28.5350   31.4530 C   0  0  0  0  0  0  0  0  0  0  0  0
   35.5580   29.7700   31.3490 C   0  0  0  0  0  0  0  0  0  0  0  0
   34.6540   31.3850   32.3790 H   0  0  0  0  0  0  0  0  0  0  0  0
   36.1980   28.2000   34.8660 H   0  0  0  0  0  0  0  0  0  0  0  0
   37.3390   26.1820   33.3740 H   0  0  0  0  0  0  0  0  0  0  0  0
   35.4000   30.1680   30.3760 H   0  0  0  0  0  0  0  0  0  0  0  0
   35.1490   32.0920   36.7950 C   0  0  0  0  0  0  0  0  0  0  0  0
   35.7120   31.4360   35.7060 C   0  0  0  0  0  0  0  0  0  0  0  0
   34.9250   30.6140   34.9310 C   0  0  0  0  0  0  0  0  0  0  0  0
   33.6090   30.4820   35.2790 N   0  0  0  0  0  0  0  0  0  0  0  0
   33.0720   31.1210   36.3380 C   0  0  0  0  0  0  0  0  0  0  0  0
   33.8430   31.9200   37.0860 N   0  0  0  0  0  0  0  0  0  0  0  0
   35.8700   32.7060   37.3210 H   0  0  0  0  0  0  0  0  0  0  0  0
   36.7570   31.5290   35.4140 H   0  0  0  0  0  0  0  0  0  0  0  0
   32.0310   31.0160   36.6120 H   0  0  0  0  0  0  0  0  0  0  0  0
   37.8400   25.4910   30.7720 O   0  0  0  0  0  0  0  0  0  0  0  0
   38.1590   23.0900   30.7550 C   0  0  0  0  0  0  0  0  0  0  0  0
   37.3600   24.2170   30.9020 C   0  0  0  0  0  0  0  0  0  0  0  0
   36.0420   23.9240   31.1910 C   0  0  0  0  0  0  0  0  0  0  0  0
   35.3660   24.7820   31.3180 H   0  0  0  0  0  0  0  0  0  0  0  0
   35.5240   22.6530   31.3290 C   0  0  0  0  0  0  0  0  0  0  0  0
   34.4640   22.5680   31.5580 H   0  0  0  0  0  0  0  0  0  0  0  0
   36.3700   21.5810   31.1700 C   0  0  0  0  0  3  0  0  0  0  0  0
   37.6960   21.7960   30.8810 C   0  0  0  0  0  3  0  0  0  0  0  0
   40.6810   23.3890   30.2040 N   0  0  0  0  0  0  0  0  0  0  0  0
   39.5610   23.2490   30.4500 C   0  0  0  0  0  0  0  0  0  0  0  0
  1  2  1  0  0  0  0
  2  3  2  0  0  0  0
  2 16  1  0  0  0  0
  3 11  1  0  0  0  0
  4  3  1  0  0  0  0
  5  4  1  0  0  0  0
  5 12  1  0  0  0  0
  6  5  1  0  0  0  0
  7  6  2  0  0  0  0
  7  8  1  0  0  0  0
  8  4  2  0  0  0  0
  9  8  1  0  0  0  0
  9  1  2  0  0  0  0
 10  1  1  0  0  0  0
 13  9  1  0  0  0  0
 14 19  1  0  0  0  0
 14 20  1  0  0  0  0
 15 14  2  0  0  0  0
 16 17  2  0  0  0  0
 16 15  1  0  0  0  0
 17 18  1  0  0  0  0
 18 22  1  0  0  0  0
 18 19  2  0  0  0  0
 21 15  1  0  0  0  0
 23 25  1  0  0  0  0
 23  6  1  0  0  0  0
 24 31  2  0  0  0  0
 24 25  1  0  0  0  0
 25 26  2  0  0  0  0
 26 27  1  0  0  0  0
 26 28  1  0  0  0  0
 28 29  1  0  0  0  0
 30 28  2  0  0  0  0
 31 30  1  0  0  0  0
 32 33  3  0  0  0  0
 33 24  1  0  0  0  0
M  END
>  <minimizedAffinity>
-5.47230434

$$$$
