
 OpenBabel03272509303D

 39 41  0  0  1  0  0  0  0  0999 V2000
   36.5240   30.8320   48.8560 C   0  0  2  0  0  0  0  0  0  0  0  0
   37.4040   31.5610   49.8230 C   0  0  0  0  0  0  0  0  0  0  0  0
   38.0550   30.6470   50.8370 C   0  0  0  0  0  0  0  0  0  0  0  0
   37.0170   29.8210   51.5910 C   0  0  0  0  0  0  0  0  0  0  0  0
   35.8250   29.4270   50.7490 C   0  0  0  0  0  0  0  0  0  0  0  0
   36.2710   29.4240   49.2750 C   0  0  1  0  0  0  0  0  0  0  0  0
   35.5090   31.2900   48.7220 H   0  0  0  0  0  0  0  0  0  0  0  0
   36.6780   32.1820   50.4510 H   0  0  0  0  0  0  0  0  0  0  0  0
   38.1110   32.2640   49.4250 H   0  0  0  0  0  0  0  0  0  0  0  0
   38.4960   31.3300   51.6200 H   0  0  0  0  0  0  0  0  0  0  0  0
   38.8610   30.0280   50.4540 H   0  0  0  0  0  0  0  0  0  0  0  0
   36.6500   30.3390   52.4850 H   0  0  0  0  0  0  0  0  0  0  0  0
   37.5430   28.8640   51.8700 H   0  0  0  0  0  0  0  0  0  0  0  0
   35.0270   30.1720   50.8340 H   0  0  0  0  0  0  0  0  0  0  0  0
   35.4590   28.4190   51.0270 H   0  0  0  0  0  0  0  0  0  0  0  0
   37.1670   28.8620   49.3490 H   0  0  0  0  0  0  0  0  0  0  0  0
   37.1160   30.8260   47.4910 C   0  0  0  0  0  0  0  0  0  0  0  0
   38.4890   31.0830   47.4260 C   0  0  0  0  0  0  0  0  0  0  0  0
   39.0700   31.0820   46.1520 C   0  0  0  0  0  0  0  0  0  0  0  0
   38.2730   30.8320   45.0570 N   0  0  0  0  0  0  0  0  0  0  0  0
   36.9290   30.5850   45.1810 C   0  0  0  0  0  0  0  0  0  0  0  0
   36.3740   30.5870   46.4040 N   0  0  0  0  0  0  0  0  0  0  0  0
   39.2300   31.2820   48.1750 H   0  0  0  0  0  0  0  0  0  0  0  0
   40.1030   31.2610   45.9360 H   0  0  0  0  0  0  0  0  0  0  0  0
   36.3740   30.3970   44.2830 H   0  0  0  0  0  0  0  0  0  0  0  0
   34.0770   28.3280   48.6100 C   0  0  0  0  0  0  0  0  0  0  0  0
   33.2590   28.6070   49.5280 O   0  0  0  0  0  0  0  0  0  0  0  0
   35.4370   28.6800   48.4020 N   0  0  0  0  0  0  0  0  0  0  0  0
   35.7580   28.2930   47.4580 H   0  0  0  0  0  0  0  0  0  0  0  0
   32.6460   28.1060   46.6190 C   0  0  0  0  0  0  0  0  0  0  0  0
   33.2880   27.4760   47.6880 C   0  0  0  0  0  0  0  0  0  0  0  0
   33.1560   26.0990   47.8370 C   0  0  0  0  0  0  0  0  0  0  0  0
   33.6630   25.6620   48.6660 H   0  0  0  0  0  0  0  0  0  0  0  0
   32.3870   25.3960   46.9140 C   0  0  0  0  0  0  0  0  0  0  0  0
   32.2910   24.3110   47.0440 H   0  0  0  0  0  0  0  0  0  0  0  0
   31.7580   26.0350   45.8620 C   0  0  0  0  0  3  0  0  0  0  0  0
   31.8720   27.4120   45.6880 C   0  0  0  0  0  3  0  0  0  0  0  0
   32.8390   30.6810   46.2780 N   0  0  0  0  0  0  0  0  0  0  0  0
   32.7540   29.5290   46.4250 C   0  0  0  0  0  0  0  0  0  0  0  0
  1  7  1  6  0  0  0
  1  6  1  0  0  0  0
  1  2  1  0  0  0  0
  2  8  1  0  0  0  0
  2  3  1  0  0  0  0
  3  4  1  0  0  0  0
  3 10  1  0  0  0  0
  4 13  1  0  0  0  0
  4 12  1  0  0  0  0
  5 14  1  0  0  0  0
  5 15  1  0  0  0  0
  5  4  1  0  0  0  0
  6 16  1  6  0  0  0
  6  5  1  0  0  0  0
  9  2  1  0  0  0  0
 11  3  1  0  0  0  0
 17  1  1  0  0  0  0
 18 17  1  0  0  0  0
 18 23  1  0  0  0  0
 19 18  2  0  0  0  0
 20 21  2  0  0  0  0
 20 19  1  0  0  0  0
 21 22  1  0  0  0  0
 22 17  2  0  0  0  0
 24 19  1  0  0  0  0
 25 21  1  0  0  0  0
 26 27  2  0  0  0  0
 28 26  1  0  0  0  0
 28  6  1  0  0  0  0
 29 28  1  0  0  0  0
 30 31  1  0  0  0  0
 31 32  2  0  0  0  0
 31 26  1  0  0  0  0
 32 33  1  0  0  0  0
 34 35  1  0  0  0  0
 34 32  1  0  0  0  0
 36 34  2  0  0  0  0
 37 36  1  0  0  0  0
 37 30  2  0  0  0  0
 38 39  3  0  0  0  0
 39 30  1  0  0  0  0
M  END
>  <minimizedAffinity>
-5.88259268

>  <minimizedRMSD>
1.41244376

$$$$
