
 OpenBabel03272509303D

 39 41  0  0  1  0  0  0  0  0999 V2000
   36.6650   31.0420   48.5590 C   0  0  2  0  0  0  0  0  0  0  0  0
   37.4310   31.6360   49.7000 C   0  0  0  0  0  0  0  0  0  0  0  0
   37.8390   30.6140   50.7370 C   0  0  0  0  0  0  0  0  0  0  0  0
   36.6320   29.8400   51.2600 C   0  0  0  0  0  0  0  0  0  0  0  0
   35.5640   29.5980   50.2170 C   0  0  0  0  0  0  0  0  0  0  0  0
   36.2410   29.6400   48.8340 C   0  0  1  0  0  0  0  0  0  0  0  0
   35.7230   31.5920   48.3000 H   0  0  0  0  0  0  0  0  0  0  0  0
   36.6630   32.2810   50.2480 H   0  0  0  0  0  0  0  0  0  0  0  0
   38.2440   32.2960   49.4670 H   0  0  0  0  0  0  0  0  0  0  0  0
   38.1980   31.2110   51.6250 H   0  0  0  0  0  0  0  0  0  0  0  0
   38.6450   29.9500   50.4420 H   0  0  0  0  0  0  0  0  0  0  0  0
   36.1660   30.3360   52.1200 H   0  0  0  0  0  0  0  0  0  0  0  0
   37.0310   28.8260   51.5510 H   0  0  0  0  0  0  0  0  0  0  0  0
   34.8230   30.4040   50.2280 H   0  0  0  0  0  0  0  0  0  0  0  0
   35.0830   28.6110   50.3650 H   0  0  0  0  0  0  0  0  0  0  0  0
   37.0680   28.9990   49.0080 H   0  0  0  0  0  0  0  0  0  0  0  0
   37.4680   31.0610   47.3060 C   0  0  0  0  0  0  0  0  0  0  0  0
   38.8450   31.2360   47.4720 C   0  0  0  0  0  0  0  0  0  0  0  0
   39.6220   31.2570   46.3080 C   0  0  0  0  0  0  0  0  0  0  0  0
   38.9990   31.1070   45.0880 N   0  0  0  0  0  0  0  0  0  0  0  0
   37.6400   30.9380   44.9850 C   0  0  0  0  0  0  0  0  0  0  0  0
   36.8970   30.9190   46.1040 N   0  0  0  0  0  0  0  0  0  0  0  0
   39.4650   31.3540   48.3380 H   0  0  0  0  0  0  0  0  0  0  0  0
   40.6840   31.3820   46.2670 H   0  0  0  0  0  0  0  0  0  0  0  0
   37.2270   30.8260   44.0020 H   0  0  0  0  0  0  0  0  0  0  0  0
   34.3100   29.4960   47.1890 C   0  0  0  0  0  0  0  0  0  0  0  0
   33.6430   30.5540   47.3440 O   0  0  0  0  0  0  0  0  0  0  0  0
   35.5040   29.0210   47.7930 N   0  0  0  0  0  0  0  0  0  0  0  0
   35.7850   28.0960   47.3340 H   0  0  0  0  0  0  0  0  0  0  0  0
   32.4840   27.9550   46.5920 C   0  0  0  0  0  0  0  0  0  0  0  0
   33.5470   28.7520   46.1570 C   0  0  0  0  0  0  0  0  0  0  0  0
   33.8370   28.8070   44.7980 C   0  0  0  0  0  0  0  0  0  0  0  0
   34.6550   29.4270   44.5140 H   0  0  0  0  0  0  0  0  0  0  0  0
   33.0570   28.0650   43.9160 C   0  0  0  0  0  0  0  0  0  0  0  0
   33.2990   28.1170   42.8480 H   0  0  0  0  0  0  0  0  0  0  0  0
   32.0090   27.2810   44.3610 C   0  0  0  0  0  3  0  0  0  0  0  0
   31.6960   27.2070   45.7170 C   0  0  0  0  0  3  0  0  0  0  0  0
   31.8830   27.7960   49.1200 N   0  0  0  0  0  0  0  0  0  0  0  0
   32.1460   27.8680   47.9890 C   0  0  0  0  0  0  0  0  0  0  0  0
  1  7  1  6  0  0  0
  1  6  1  0  0  0  0
  1  2  1  0  0  0  0
  2  8  1  0  0  0  0
  2  3  1  0  0  0  0
  3  4  1  0  0  0  0
  3 10  1  0  0  0  0
  4 13  1  0  0  0  0
  4 12  1  0  0  0  0
  5 14  1  0  0  0  0
  5 15  1  0  0  0  0
  5  4  1  0  0  0  0
  6 16  1  1  0  0  0
  6  5  1  0  0  0  0
  9  2  1  0  0  0  0
 11  3  1  0  0  0  0
 17 18  1  0  0  0  0
 17  1  1  0  0  0  0
 18 23  1  0  0  0  0
 19 18  2  0  0  0  0
 20 19  1  0  0  0  0
 21 20  2  0  0  0  0
 21 22  1  0  0  0  0
 22 17  2  0  0  0  0
 24 19  1  0  0  0  0
 25 21  1  0  0  0  0
 26 27  2  0  0  0  0
 26 28  1  0  0  0  0
 28  6  1  0  0  0  0
 29 28  1  0  0  0  0
 30 39  1  0  0  0  0
 31 30  1  0  0  0  0
 31 26  1  0  0  0  0
 32 31  2  0  0  0  0
 33 32  1  0  0  0  0
 34 36  2  0  0  0  0
 34 32  1  0  0  0  0
 35 34  1  0  0  0  0
 36 37  1  0  0  0  0
 37 30  2  0  0  0  0
 39 38  3  0  0  0  0
M  END
>  <minimizedAffinity>
-5.25749683

>  <minimizedRMSD>
2.3831625

$$$$
