
 OpenBabel03272509303D

 39 41  0  0  1  0  0  0  0  0999 V2000
   37.5730   31.9760   47.8530 C   0  0  2  0  0  0  0  0  0  0  0  0
   38.4430   31.9740   49.0710 C   0  0  0  0  0  0  0  0  0  0  0  0
   38.3540   30.6880   49.8610 C   0  0  0  0  0  0  0  0  0  0  0  0
   36.9120   30.3690   50.2450 C   0  0  0  0  0  0  0  0  0  0  0  0
   35.8970   30.7880   49.2050 C   0  0  0  0  0  0  0  0  0  0  0  0
   36.6140   30.8350   47.8430 C   0  0  1  0  0  0  0  0  0  0  0  0
   36.9410   32.8960   47.7400 H   0  0  0  0  0  0  0  0  0  0  0  0
   37.9620   32.7460   49.7620 H   0  0  0  0  0  0  0  0  0  0  0  0
   39.4630   32.2880   48.9580 H   0  0  0  0  0  0  0  0  0  0  0  0
   38.8680   30.9000   50.8440 H   0  0  0  0  0  0  0  0  0  0  0  0
   38.8490   29.8320   49.4120 H   0  0  0  0  0  0  0  0  0  0  0  0
   36.6300   30.8260   51.2020 H   0  0  0  0  0  0  0  0  0  0  0  0
   36.8610   29.2450   50.3080 H   0  0  0  0  0  0  0  0  0  0  0  0
   35.5350   31.8020   49.4040 H   0  0  0  0  0  0  0  0  0  0  0  0
   35.0580   30.0660   49.1570 H   0  0  0  0  0  0  0  0  0  0  0  0
   37.1100   29.8980   47.8560 H   0  0  0  0  0  0  0  0  0  0  0  0
   38.3890   31.9270   46.6100 C   0  0  0  0  0  0  0  0  0  0  0  0
   39.5510   31.1530   46.6790 C   0  0  0  0  0  0  0  0  0  0  0  0
   40.3350   31.0900   45.5210 C   0  0  0  0  0  0  0  0  0  0  0  0
   39.9260   31.7800   44.4010 N   0  0  0  0  0  0  0  0  0  0  0  0
   38.7740   32.5250   44.3900 C   0  0  0  0  0  0  0  0  0  0  0  0
   38.0230   32.5840   45.5030 N   0  0  0  0  0  0  0  0  0  0  0  0
   39.9880   30.5620   47.4600 H   0  0  0  0  0  0  0  0  0  0  0  0
   41.2490   30.5430   45.4140 H   0  0  0  0  0  0  0  0  0  0  0  0
   38.5200   33.0340   43.4810 H   0  0  0  0  0  0  0  0  0  0  0  0
   34.8080   29.7720   46.4070 C   0  0  0  0  0  0  0  0  0  0  0  0
   34.4370   28.7380   47.0260 O   0  0  0  0  0  0  0  0  0  0  0  0
   35.7540   30.7840   46.7160 N   0  0  0  0  0  0  0  0  0  0  0  0
   35.7280   31.5330   45.9540 H   0  0  0  0  0  0  0  0  0  0  0  0
   34.6800   29.6130   43.9530 C   0  0  0  0  0  0  0  0  0  0  0  0
   33.9980   29.7420   45.1650 C   0  0  0  0  0  0  0  0  0  0  0  0
   32.6090   29.8410   45.1510 C   0  0  0  0  0  0  0  0  0  0  0  0
   32.1330   29.9370   46.0970 H   0  0  0  0  0  0  0  0  0  0  0  0
   31.9480   29.8060   43.9260 C   0  0  0  0  0  0  0  0  0  0  0  0
   30.8550   29.8840   43.9290 H   0  0  0  0  0  0  0  0  0  0  0  0
   32.6400   29.6770   42.7360 C   0  0  0  0  0  3  0  0  0  0  0  0
   34.0290   29.5770   42.7200 C   0  0  0  0  0  3  0  0  0  0  0  0
   37.2770   29.4320   43.8980 N   0  0  0  0  0  0  0  0  0  0  0  0
   36.1160   29.5080   43.9200 C   0  0  0  0  0  0  0  0  0  0  0  0
  1  7  1  6  0  0  0
  1  2  1  0  0  0  0
  2  8  1  0  0  0  0
  2  3  1  0  0  0  0
  3  4  1  0  0  0  0
  3 10  1  0  0  0  0
  4 13  1  0  0  0  0
  4 12  1  0  0  0  0
  5 14  1  0  0  0  0
  5  4  1  0  0  0  0
  6  1  1  0  0  0  0
  6 16  1  6  0  0  0
  6  5  1  0  0  0  0
  9  2  1  0  0  0  0
 11  3  1  0  0  0  0
 15  5  1  0  0  0  0
 17 18  1  0  0  0  0
 17  1  1  0  0  0  0
 18 23  1  0  0  0  0
 19 18  2  0  0  0  0
 20 19  1  0  0  0  0
 21 20  2  0  0  0  0
 21 22  1  0  0  0  0
 22 17  2  0  0  0  0
 24 19  1  0  0  0  0
 25 21  1  0  0  0  0
 26 28  1  0  0  0  0
 26 27  2  0  0  0  0
 28  6  1  0  0  0  0
 29 28  1  0  0  0  0
 30 31  1  0  0  0  0
 31 26  1  0  0  0  0
 32 31  2  0  0  0  0
 32 33  1  0  0  0  0
 34 35  1  0  0  0  0
 34 32  1  0  0  0  0
 36 34  2  0  0  0  0
 37 36  1  0  0  0  0
 37 30  2  0  0  0  0
 38 39  3  0  0  0  0
 39 30  1  0  0  0  0
M  END
>  <minimizedAffinity>
-5.21226692

>  <minimizedRMSD>
3.77491999

$$$$
