
 OpenBabel03262523213D

 42 45  0  0  1  0  0  0  0  0999 V2000
   40.2480   33.8340   44.9130 C   0  0  0  0  0  0  0  0  0  0  0  0
   41.5210   33.3110   45.1090 C   0  0  0  0  0  0  0  0  0  0  0  0
   41.6930   31.9400   45.0040 C   0  0  0  0  0  0  0  0  0  0  0  0
   40.6200   31.1630   44.7160 N   0  0  0  0  0  0  0  0  0  0  0  0
   39.4220   31.6470   44.5310 C   0  0  0  0  0  0  0  0  0  0  0  0
   39.3210   32.9440   44.6410 N   0  0  0  0  0  0  0  0  0  0  0  0
   38.3360   30.8000   44.2300 N   0  0  0  0  0  0  0  0  0  0  0  0
   38.3330   29.9140   43.0600 C   0  0  0  0  0  0  0  0  0  0  0  0
   37.0740   29.1580   43.1640 C   0  0  0  0  0  0  0  0  0  0  0  0
   36.6430   29.3310   44.6220 C   0  0  0  0  0  0  0  0  0  0  0  0
   37.0570   30.6850   44.9460 C   0  0  1  0  0  0  0  0  0  0  0  0
   40.0320   34.8780   44.9760 H   0  0  0  0  0  0  0  0  0  0  0  0
   42.3550   33.9680   45.3390 H   0  0  0  0  0  0  0  0  0  0  0  0
   42.6980   31.5480   45.1600 H   0  0  0  0  0  0  0  0  0  0  0  0
   38.3270   30.5650   42.1640 H   0  0  0  0  0  0  0  0  0  0  0  0
   39.2440   29.2860   43.0310 H   0  0  0  0  0  0  0  0  0  0  0  0
   37.1790   28.1080   42.8580 H   0  0  0  0  0  0  0  0  0  0  0  0
   36.3160   29.5860   42.4500 H   0  0  0  0  0  0  0  0  0  0  0  0
   35.6070   29.1030   44.5240 H   0  0  0  0  0  0  0  0  0  0  0  0
   37.3870   28.6250   45.0230 H   0  0  0  0  0  0  0  0  0  0  0  0
   36.5030   31.4900   44.3690 H   0  0  0  0  0  0  0  0  0  0  0  0
   36.1730   30.5750   47.3090 C   0  0  0  0  0  0  0  0  0  0  0  0
   37.0310   31.0840   46.3220 C   0  0  0  0  0  0  0  0  0  0  0  0
   37.9540   31.9670   46.8640 C   0  0  0  0  0  0  0  0  0  0  0  0
   38.0510   32.3180   48.1940 C   0  0  0  0  0  0  0  0  0  0  0  0
   37.1400   31.7470   49.1020 C   0  0  0  0  0  0  0  0  0  0  0  0
   36.1720   30.8550   48.6710 C   0  0  0  0  0  0  0  0  0  0  0  0
   38.6690   32.5720   46.3640 H   0  0  0  0  0  0  0  0  0  0  0  0
   38.7370   32.9850   48.6810 H   0  0  0  0  0  0  0  0  0  0  0  0
   37.1330   31.9580   50.1730 H   0  0  0  0  0  0  0  0  0  0  0  0
   35.8190   29.4050   50.5410 C   0  0  0  0  0  0  0  0  0  0  0  0
   35.2350   30.2720   49.6100 C   0  0  0  0  0  0  0  0  0  0  0  0
   33.8800   30.5070   49.6420 C   0  0  0  0  0  0  0  0  0  0  0  0
   33.4770   31.1890   48.8960 H   0  0  0  0  0  0  0  0  0  0  0  0
   33.0920   29.8870   50.5930 C   0  0  0  0  0  0  0  0  0  0  0  0
   32.0270   30.0820   50.6040 H   0  0  0  0  0  0  0  0  0  0  0  0
   33.7100   29.0400   51.4900 C   0  0  0  0  0  3  0  0  0  0  0  0
   35.0640   28.7770   51.4960 C   0  0  0  0  0  3  0  0  0  0  0  0
   38.3770   28.8960   50.5350 N   0  0  0  0  0  0  0  0  0  0  0  0
   37.2420   29.1280   50.5470 C   0  0  0  0  0  0  0  0  0  0  0  0
   34.2460   29.0430   46.5590 N   0  0  0  0  0  0  0  0  0  0  0  0
   35.0950   29.7140   46.8770 C   0  0  0  0  0  0  0  0  0  0  0  0
  1 12  1  0  0  0  0
  1  2  1  0  0  0  0
  2 13  1  0  0  0  0
  3  2  2  0  0  0  0
  3 14  1  0  0  0  0
  4  3  1  0  0  0  0
  5  6  1  0  0  0  0
  5  4  2  0  0  0  0
  6  1  2  0  0  0  0
  7  5  1  0  0  0  0
  7 11  1  0  0  0  0
  8  9  1  0  0  0  0
  8  7  1  0  0  0  0
  9 10  1  0  0  0  0
 10 11  1  0  0  0  0
 10 20  1  0  0  0  0
 11 21  1  6  0  0  0
 11 23  1  0  0  0  0
 15  8  1  0  0  0  0
 16  8  1  0  0  0  0
 17  9  1  0  0  0  0
 18  9  1  0  0  0  0
 19 10  1  0  0  0  0
 22 27  1  0  0  0  0
 23 24  1  0  0  0  0
 23 22  2  0  0  0  0
 24 25  2  0  0  0  0
 25 29  1  0  0  0  0
 25 26  1  0  0  0  0
 26 30  1  0  0  0  0
 27 26  2  0  0  0  0
 27 32  1  0  0  0  0
 28 24  1  0  0  0  0
 31 40  1  0  0  0  0
 31 38  1  0  0  0  0
 32 33  1  0  0  0  0
 32 31  2  0  0  0  0
 33 35  2  0  0  0  0
 34 33  1  0  0  0  0
 35 36  1  0  0  0  0
 35 37  1  0  0  0  0
 37 38  2  0  0  0  0
 39 40  3  0  0  0  0
 41 42  3  0  0  0  0
 42 22  1  0  0  0  0
M  END
>  <minimizedAffinity>
-1.58061659

>  <minimizedRMSD>
2.94699335

$$$$
