
 OpenBabel03272506383D

 38 40  0  0  1  0  0  0  0  0999 V2000
   35.4300   29.8320   50.4980 O   0  0  0  0  0  0  0  0  0  0  0  0
   35.1880   29.8680   49.2710 C   0  0  0  0  0  0  0  0  0  0  0  0
   35.9140   30.7600   48.3980 C   0  0  2  0  0  0  0  0  0  0  0  0
   35.4070   30.2800   47.0010 C   0  0  0  0  0  0  0  0  0  0  0  0
   34.0460   29.7300   47.3060 C   0  0  0  0  0  0  0  0  0  0  0  0
   34.2000   29.0600   48.5870 N   0  0  0  0  0  0  0  0  0  0  0  0
   35.6630   31.8080   48.5220 H   0  0  0  0  0  0  0  0  0  0  0  0
   36.1080   29.5440   46.5700 H   0  0  0  0  0  0  0  0  0  0  0  0
   35.3030   31.2100   46.4110 H   0  0  0  0  0  0  0  0  0  0  0  0
   33.8360   28.9240   46.5670 H   0  0  0  0  0  0  0  0  0  0  0  0
   33.2450   30.4550   47.2480 H   0  0  0  0  0  0  0  0  0  0  0  0
   33.5550   27.8580   49.0860 C   0  0  0  0  0  0  0  0  0  0  0  0
   32.7430   28.2010   49.7690 H   0  0  0  0  0  0  0  0  0  0  0  0
   34.3460   27.3180   49.6900 H   0  0  0  0  0  0  0  0  0  0  0  0
   31.7420   26.8090   48.0310 C   0  0  0  0  0  0  0  0  0  0  0  0
   33.1120   26.9730   48.0100 C   0  0  0  0  0  0  0  0  0  0  0  0
   33.8620   26.3380   47.0580 C   0  0  0  0  0  0  0  0  0  0  0  0
   34.9260   26.5050   47.0910 H   0  0  0  0  0  0  0  0  0  0  0  0
   33.2810   25.5310   46.1140 C   0  0  0  0  0  0  0  0  0  0  0  0
   33.9220   25.0670   45.4020 H   0  0  0  0  0  0  0  0  0  0  0  0
   31.9150   25.3460   46.1090 C   0  0  0  0  0  3  0  0  0  0  0  0
   31.1440   25.9860   47.0690 C   0  0  0  0  0  3  0  0  0  0  0  0
   30.1090   27.9000   49.7340 N   0  0  0  0  0  0  0  0  0  0  0  0
   30.8240   27.4220   48.9730 C   0  0  0  0  0  0  0  0  0  0  0  0
   37.3300   30.5650   48.3780 O   0  0  0  0  0  0  0  0  0  0  0  0
   38.1330   31.6900   48.2110 C   0  0  0  0  0  0  0  0  0  0  0  0
   38.3650   32.4700   49.3260 C   0  0  0  0  0  0  0  0  0  0  0  0
   39.1550   33.5940   49.2060 C   0  0  0  0  0  0  0  0  0  0  0  0
   39.6760   33.8890   47.9850 N   0  0  0  0  0  0  0  0  0  0  0  0
   39.4430   33.1180   46.8980 C   0  0  0  0  0  0  0  0  0  0  0  0
   38.6840   32.0470   47.0350 N   0  0  0  0  0  0  0  0  0  0  0  0
   40.8500   32.4340   45.1100 C   0  0  0  0  0  0  0  0  0  0  0  0
   41.1350   31.3290   45.6280 O   0  0  0  0  0  0  0  0  0  0  0  0
   40.0050   33.4590   45.6270 N   0  0  0  0  0  0  0  0  0  0  0  0
   37.9330   32.2070   50.2910 H   0  0  0  0  0  0  0  0  0  0  0  0
   39.3440   34.2110   50.0630 H   0  0  0  0  0  0  0  0  0  0  0  0
   41.4230   32.3560   44.1990 H   0  0  0  0  0  0  0  0  0  0  0  0
   39.9390   34.2640   45.0040 H   0  0  0  0  0  0  0  0  0  0  0  0
  2  1  2  0  0  0  0
  3  7  1  1  0  0  0
  3  2  1  0  0  0  0
  4  5  1  0  0  0  0
  4  3  1  0  0  0  0
  5  6  1  0  0  0  0
  6 12  1  0  0  0  0
  6  2  1  0  0  0  0
  8  4  1  0  0  0  0
  9  4  1  0  0  0  0
 10  5  1  0  0  0  0
 11  5  1  0  0  0  0
 12 14  1  0  0  0  0
 12 13  1  0  0  0  0
 15 24  1  0  0  0  0
 16 15  1  0  0  0  0
 16 12  1  0  0  0  0
 17 18  1  0  0  0  0
 17 16  2  0  0  0  0
 19 17  1  0  0  0  0
 20 19  1  0  0  0  0
 21 19  2  0  0  0  0
 21 22  1  0  0  0  0
 22 15  2  0  0  0  0
 24 23  3  0  0  0  0
 25  3  1  0  0  0  0
 26 25  1  0  0  0  0
 26 27  1  0  0  0  0
 27 35  1  0  0  0  0
 28 27  2  0  0  0  0
 28 36  1  0  0  0  0
 29 28  1  0  0  0  0
 30 31  1  0  0  0  0
 30 29  2  0  0  0  0
 31 26  2  0  0  0  0
 32 34  1  0  0  0  0
 32 33  2  0  0  0  0
 34 30  1  0  0  0  0
 37 32  1  0  0  0  0
 38 34  1  0  0  0  0
M  END
>  <minimizedAffinity>
-5.96694517

>  <minimizedRMSD>
2.16320419

$$$$
