
 OpenBabel03272504393D

 43 45  0  0  0  0  0  0  0  0999 V2000
   34.8600   29.4340   48.8930 C   0  0  0  0  0  0  0  0  0  0  0  0
   34.2530   30.2910   49.3120 H   0  0  0  0  0  0  0  0  0  0  0  0
   35.7730   29.4320   49.5220 H   0  0  0  0  0  0  0  0  0  0  0  0
   37.6000   30.4960   48.5800 Cl  0  0  0  0  0  0  0  0  0  0  0  0
   36.4640   30.3220   47.2410 C   0  0  0  0  0  0  0  0  0  0  0  0
   36.8450   30.6930   45.9870 C   0  0  0  0  0  0  0  0  0  0  0  0
   35.9710   30.5600   44.9440 C   0  0  0  0  0  0  0  0  0  0  0  0
   34.7130   30.0480   45.1920 C   0  0  0  0  0  0  0  0  0  0  0  0
   34.3700   29.6830   46.4940 C   0  0  0  0  0  0  0  0  0  0  0  0
   35.2240   29.8060   47.5460 C   0  0  0  0  0  0  0  0  0  0  0  0
   36.3170   30.8710   43.9520 H   0  0  0  0  0  0  0  0  0  0  0  0
   34.1000   29.9860   44.2950 H   0  0  0  0  0  0  0  0  0  0  0  0
   33.4010   29.3280   46.4730 H   0  0  0  0  0  0  0  0  0  0  0  0
   39.8540   32.8360   46.0730 C   0  0  0  0  0  0  0  0  0  0  0  0
   40.7170   32.1260   45.1890 C   0  0  0  0  0  0  0  0  0  0  0  0
   40.2280   30.9520   44.6100 C   0  0  0  0  0  0  0  0  0  0  0  0
   38.9710   30.5450   44.9090 N   0  0  0  0  0  0  0  0  0  0  0  0
   38.1780   31.2340   45.7440 C   0  0  0  0  0  0  0  0  0  0  0  0
   38.6220   32.3690   46.3180 N   0  0  0  0  0  0  0  0  0  0  0  0
   40.2060   33.7440   46.5330 H   0  0  0  0  0  0  0  0  0  0  0  0
   41.7030   32.5330   45.0150 H   0  0  0  0  0  0  0  0  0  0  0  0
   41.1050   30.2800   43.7440 N   0  0  0  0  0  0  0  0  0  0  0  0
   41.0700   30.2690   42.6860 H   0  0  0  0  0  0  0  0  0  0  0  0
   41.7680   29.8150   44.3950 H   0  0  0  0  0  0  0  0  0  0  0  0
   34.1230   28.1970   49.1180 C   0  0  0  0  0  0  0  0  0  0  0  0
   34.1700   27.5410   48.2150 H   0  0  0  0  0  0  0  0  0  0  0  0
   34.5650   27.5740   49.9310 H   0  0  0  0  0  0  0  0  0  0  0  0
   32.8130   28.4340   49.4740 O   0  0  0  0  0  0  0  0  0  0  0  0
   32.2290   26.3520   47.9800 O   0  0  0  0  0  0  0  0  0  0  0  0
   31.7530   27.7060   48.3610 P   0  0  2  0  0  0  0  0  0  0  0  0
   31.7080   28.7950   47.0400 O   0  0  0  0  0  0  0  0  0  0  0  0
   31.9200   29.7140   47.3090 H   0  0  0  0  0  0  0  0  0  0  0  0
   30.2180   27.6110   48.9760 O   0  0  0  0  0  0  0  0  0  0  0  0
   27.9530   28.6460   48.4830 C   0  0  0  0  0  0  0  0  0  0  0  0
   29.0380   27.8170   48.3680 C   0  0  0  0  0  0  0  0  0  0  0  0
   28.9540   26.8800   47.3210 C   0  0  0  0  0  0  0  0  0  0  0  0
   29.6650   26.1030   46.9980 H   0  0  0  0  0  0  0  0  0  0  0  0
   27.8450   26.8040   46.4640 C   0  0  0  0  0  0  0  0  0  0  0  0
   27.6950   26.1270   45.6440 H   0  0  0  0  0  0  0  0  0  0  0  0
   26.7880   27.6720   46.6410 C   0  0  0  0  0  3  0  0  0  0  0  0
   26.8500   28.5980   47.6610 C   0  0  0  0  0  3  0  0  0  0  0  0
   28.0910   30.3560   50.3840 N   0  0  0  0  0  0  0  0  0  0  0  0
   28.0390   29.5870   49.5370 C   0  0  0  0  0  0  0  0  0  0  0  0
  1 25  1  0  0  0  0
  1  2  1  0  0  0  0
  1  3  1  0  0  0  0
  5 10  1  0  0  0  0
  5  4  1  0  0  0  0
  6  5  2  0  0  0  0
  7  8  2  0  0  0  0
  7  6  1  0  0  0  0
  8  9  1  0  0  0  0
  9 10  2  0  0  0  0
 10  1  1  0  0  0  0
 11  7  1  0  0  0  0
 12  8  1  0  0  0  0
 13  9  1  0  0  0  0
 14 19  1  0  0  0  0
 14 20  1  0  0  0  0
 15 14  2  0  0  0  0
 16 17  2  0  0  0  0
 16 15  1  0  0  0  0
 17 18  1  0  0  0  0
 18  6  1  0  0  0  0
 18 19  2  0  0  0  0
 21 15  1  0  0  0  0
 22 24  1  0  0  0  0
 22 16  1  0  0  0  0
 23 22  1  0  0  0  0
 25 28  1  0  0  0  0
 25 27  1  0  0  0  0
 26 25  1  0  0  0  0
 30 29  2  6  0  0  0
 30 33  1  0  0  0  0
 30 28  1  0  0  0  0
 31 32  1  0  0  0  0
 31 30  1  0  0  0  0
 34 43  1  0  0  0  0
 35 34  1  0  0  0  0
 35 33  1  0  0  0  0
 36 35  2  0  0  0  0
 37 36  1  0  0  0  0
 38 40  2  0  0  0  0
 38 36  1  0  0  0  0
 39 38  1  0  0  0  0
 40 41  1  0  0  0  0
 41 34  2  0  0  0  0
 43 42  3  0  0  0  0
M  END
>  <minimizedAffinity>
-6.10039854

>  <minimizedRMSD>
1.54101908

$$$$
