
 OpenBabel03272507163D

 27 29  0  0  1  0  0  0  0  0999 V2000
   37.1190   30.7990   50.4430 C   0  0  1  0  0  0  0  0  0  0  0  0
   35.8930   30.0700   50.1970 C   0  0  2  0  0  0  0  0  0  0  0  0
   37.1620   29.2670   50.3910 C   0  0  0  0  0  0  0  0  0  0  0  0
   37.4380   31.1960   51.4440 H   0  0  0  0  0  0  0  0  0  0  0  0
   35.1220   30.0610   50.9950 H   0  0  0  0  0  0  0  0  0  0  0  0
   37.6120   28.7670   49.5330 H   0  0  0  0  0  0  0  0  0  0  0  0
   37.1870   28.7160   51.3520 H   0  0  0  0  0  0  0  0  0  0  0  0
   37.8950   31.4290   49.3190 C   0  0  0  0  0  0  0  0  0  0  0  0
   38.2910   32.7530   49.5090 C   0  0  0  0  0  0  0  0  0  0  0  0
   38.9870   33.3280   48.4360 C   0  0  0  0  0  0  0  0  0  0  0  0
   39.2410   32.5990   47.2930 N   0  0  0  0  0  0  0  0  0  0  0  0
   38.8270   31.3110   47.1710 C   0  0  0  0  0  0  0  0  0  0  0  0
   38.1470   30.7320   48.2040 N   0  0  0  0  0  0  0  0  0  0  0  0
   38.0880   33.3170   50.4080 H   0  0  0  0  0  0  0  0  0  0  0  0
   39.3120   34.3500   48.5410 H   0  0  0  0  0  0  0  0  0  0  0  0
   39.0660   30.8110   46.2430 H   0  0  0  0  0  0  0  0  0  0  0  0
   35.3660   30.0410   48.8960 O   0  0  0  0  0  0  0  0  0  0  0  0
   34.3560   29.0720   47.0190 C   0  0  0  0  0  0  0  0  0  0  0  0
   34.4310   29.1720   48.4070 C   0  0  0  0  0  0  0  0  0  0  0  0
   33.5530   28.3820   49.1220 C   0  0  0  0  0  0  0  0  0  0  0  0
   33.6160   28.4640   50.1920 H   0  0  0  0  0  0  0  0  0  0  0  0
   32.6590   27.5470   48.5030 C   0  0  0  0  0  0  0  0  0  0  0  0
   32.0170   26.9720   49.1550 H   0  0  0  0  0  0  0  0  0  0  0  0
   32.5710   27.4330   47.1330 C   0  0  0  0  0  3  0  0  0  0  0  0
   33.4530   28.2270   46.4100 C   0  0  0  0  0  3  0  0  0  0  0  0
   35.9050   30.4420   45.4400 N   0  0  0  0  0  0  0  0  0  0  0  0
   35.2030   29.8290   46.1450 C   0  0  0  0  0  0  0  0  0  0  0  0
  1  4  1  1  0  0  0
  2  3  1  0  0  0  0
  2  1  1  0  0  0  0
  2  5  1  1  0  0  0
  3  1  1  0  0  0  0
  3  7  1  0  0  0  0
  6  3  1  0  0  0  0
  8  9  1  0  0  0  0
  8  1  1  0  0  0  0
  9 14  1  0  0  0  0
 10 15  1  0  0  0  0
 10  9  2  0  0  0  0
 11 10  1  0  0  0  0
 12 11  2  0  0  0  0
 12 13  1  0  0  0  0
 13  8  2  0  0  0  0
 16 12  1  0  0  0  0
 17  2  1  0  0  0  0
 18 19  1  0  0  0  0
 19 17  1  0  0  0  0
 19 20  2  0  0  0  0
 20 21  1  0  0  0  0
 22 20  1  0  0  0  0
 22 23  1  0  0  0  0
 24 22  2  0  0  0  0
 25 18  2  0  0  0  0
 25 24  1  0  0  0  0
 26 27  3  0  0  0  0
 27 18  1  0  0  0  0
M  END
>  <minimizedAffinity>
-5.11985826

>  <minimizedRMSD>
1.98959625

$$$$
