
 OpenBabel03272507523D

 33 35  0  0  0  0  0  0  0  0999 V2000
   37.2680   31.2680   47.2480 N   0  0  0  0  0  0  0  0  0  0  0  0
   37.8740   32.1890   47.9920 C   0  0  0  0  0  0  0  0  0  0  0  0
   38.9620   32.8900   47.4680 C   0  0  0  0  0  0  0  0  0  0  0  0
   39.3110   32.5470   46.1980 C   0  0  0  0  0  0  0  0  0  0  0  0
   40.3030   33.1920   45.7340 O   0  0  0  0  0  0  0  0  0  0  0  0
   38.7350   31.6350   45.4220 N   0  0  0  0  0  0  0  0  0  0  0  0
   37.6860   30.9880   45.9810 C   0  0  0  0  0  0  0  0  0  0  0  0
   37.1190   30.1070   45.2480 O   0  0  0  0  0  0  0  0  0  0  0  0
   37.5230   32.3950   48.9990 H   0  0  0  0  0  0  0  0  0  0  0  0
   39.4660   33.6320   48.0420 H   0  0  0  0  0  0  0  0  0  0  0  0
   36.0200   30.3240   49.1110 C   0  0  0  0  0  0  0  0  0  0  0  0
   36.1470   30.5050   47.7160 C   0  0  0  0  0  0  0  0  0  0  0  0
   35.1860   29.9340   46.8630 C   0  0  0  0  0  0  0  0  0  0  0  0
   34.1760   29.2340   47.4350 N   0  0  0  0  0  0  0  0  0  0  0  0
   34.0590   29.0670   48.7410 C   0  0  0  0  0  0  0  0  0  0  0  0
   34.9710   29.6060   49.5700 N   0  0  0  0  0  0  0  0  0  0  0  0
   35.3350   30.1050   45.8160 H   0  0  0  0  0  0  0  0  0  0  0  0
   33.2320   28.4950   49.1650 H   0  0  0  0  0  0  0  0  0  0  0  0
   37.5700   30.3100   51.2060 C   0  0  0  0  0  0  0  0  0  0  0  0
   37.4170   29.1150   51.5380 O   0  0  0  0  0  0  0  0  0  0  0  0
   36.9220   30.8640   50.0500 N   0  0  0  0  0  0  0  0  0  0  0  0
   38.2160   30.8910   51.8430 H   0  0  0  0  0  0  0  0  0  0  0  0
   37.2170   31.8800   49.9190 H   0  0  0  0  0  0  0  0  0  0  0  0
   38.5110   31.7000   42.9300 C   0  0  0  0  0  0  0  0  0  0  0  0
   39.1570   31.3290   44.0960 C   0  0  0  0  0  0  0  0  0  0  0  0
   40.3260   30.5940   44.0840 C   0  0  0  0  0  0  0  0  0  0  0  0
   40.8840   30.2690   44.9460 H   0  0  0  0  0  0  0  0  0  0  0  0
   40.8810   30.2080   42.8620 C   0  0  0  0  0  0  0  0  0  0  0  0
   41.7990   29.6290   42.8070 H   0  0  0  0  0  0  0  0  0  0  0  0
   40.2330   30.5790   41.6770 C   0  0  0  0  0  0  0  0  0  0  0  0
   39.0550   31.3210   41.7150 C   0  0  0  0  0  0  0  0  0  0  0  0
   36.3290   33.0580   43.1870 N   0  0  0  0  0  0  0  0  0  0  0  0
   37.3110   32.4590   43.0760 C   0  0  0  0  0  0  0  0  0  0  0  0
  1 12  1  0  0  0  0
  1  2  1  0  0  0  0
  2  9  1  0  0  0  0
  3  2  2  0  0  0  0
  3 10  1  0  0  0  0
  4  3  1  0  0  0  0
  5  4  2  0  0  0  0
  6  7  1  0  0  0  0
  6  4  1  0  0  0  0
  7  1  1  0  0  0  0
  8  7  2  0  0  0  0
 11 16  1  0  0  0  0
 11 21  1  0  0  0  0
 12 11  2  0  0  0  0
 13 14  2  0  0  0  0
 13 12  1  0  0  0  0
 14 15  1  0  0  0  0
 15 18  1  0  0  0  0
 15 16  2  0  0  0  0
 17 13  1  0  0  0  0
 19 20  2  0  0  0  0
 19 22  1  0  0  0  0
 21 19  1  0  0  0  0
 23 21  1  0  0  0  0
 24 33  1  0  0  0  0
 24 25  1  0  0  0  0
 25  6  1  0  0  0  0
 26 25  2  0  0  0  0
 26 27  1  0  0  0  0
 28 26  1  0  0  0  0
 29 28  1  0  0  0  0
 30 31  1  0  0  0  0
 30 28  2  0  0  0  0
 31 24  2  0  0  0  0
 33 32  3  0  0  0  0
M  END
>  <minimizedAffinity>
-5.53260565

>  <minimizedRMSD>
3.05911851

$$$$
