
 OpenBabel03272507163D

 27 29  0  0  1  0  0  0  0  0999 V2000
   35.9890   31.0960   49.9270 C   0  0  1  0  0  0  0  0  0  0  0  0
   34.8550   30.2530   49.6110 C   0  0  2  0  0  0  0  0  0  0  0  0
   36.0640   29.5980   50.2480 C   0  0  0  0  0  0  0  0  0  0  0  0
   36.0770   31.7300   50.8500 H   0  0  0  0  0  0  0  0  0  0  0  0
   33.9310   30.3740   50.2110 H   0  0  0  0  0  0  0  0  0  0  0  0
   36.6960   28.9470   49.6440 H   0  0  0  0  0  0  0  0  0  0  0  0
   35.8890   29.2830   51.2950 H   0  0  0  0  0  0  0  0  0  0  0  0
   36.9800   31.5030   48.8720 C   0  0  0  0  0  0  0  0  0  0  0  0
   37.9580   32.4180   49.2650 C   0  0  0  0  0  0  0  0  0  0  0  0
   38.8530   32.8050   48.2570 C   0  0  0  0  0  0  0  0  0  0  0  0
   38.7380   32.2930   46.9820 N   0  0  0  0  0  0  0  0  0  0  0  0
   37.7620   31.4030   46.6640 C   0  0  0  0  0  0  0  0  0  0  0  0
   36.8790   31.0130   47.6310 N   0  0  0  0  0  0  0  0  0  0  0  0
   38.0410   32.8160   50.2660 H   0  0  0  0  0  0  0  0  0  0  0  0
   39.6250   33.5110   48.5180 H   0  0  0  0  0  0  0  0  0  0  0  0
   37.7410   31.0500   45.6420 H   0  0  0  0  0  0  0  0  0  0  0  0
   34.6230   29.8950   48.2740 O   0  0  0  0  0  0  0  0  0  0  0  0
   33.0330   28.9510   46.8370 C   0  0  0  0  0  0  0  0  0  0  0  0
   34.0030   28.7650   47.8210 C   0  0  0  0  0  0  0  0  0  0  0  0
   34.2220   27.4610   48.2190 C   0  0  0  0  0  0  0  0  0  0  0  0
   34.9710   27.3250   48.9780 H   0  0  0  0  0  0  0  0  0  0  0  0
   33.5250   26.4110   47.6790 C   0  0  0  0  0  0  0  0  0  0  0  0
   33.7730   25.4310   48.0610 H   0  0  0  0  0  0  0  0  0  0  0  0
   32.5640   26.5750   46.7060 C   0  0  0  0  0  3  0  0  0  0  0  0
   32.3410   27.8850   46.3030 C   0  0  0  0  0  3  0  0  0  0  0  0
   32.4370   31.3050   45.9020 N   0  0  0  0  0  0  0  0  0  0  0  0
   32.6970   30.2470   46.3230 C   0  0  0  0  0  0  0  0  0  0  0  0
  1  3  1  0  0  0  0
  1  4  1  1  0  0  0
  2  1  1  0  0  0  0
  2  5  1  1  0  0  0
  2  3  1  0  0  0  0
  3  7  1  0  0  0  0
  6  3  1  0  0  0  0
  8  9  1  0  0  0  0
  8  1  1  0  0  0  0
  9 14  1  0  0  0  0
 10 15  1  0  0  0  0
 10  9  2  0  0  0  0
 11 10  1  0  0  0  0
 12 11  2  0  0  0  0
 12 13  1  0  0  0  0
 13  8  2  0  0  0  0
 16 12  1  0  0  0  0
 17  2  1  0  0  0  0
 18 19  1  0  0  0  0
 19 20  2  0  0  0  0
 19 17  1  0  0  0  0
 20 21  1  0  0  0  0
 22 23  1  0  0  0  0
 22 20  1  0  0  0  0
 24 22  2  0  0  0  0
 25 24  1  0  0  0  0
 25 18  2  0  0  0  0
 26 27  3  0  0  0  0
 27 18  1  0  0  0  0
M  END
>  <minimizedAffinity>
-4.83579159

>  <minimizedRMSD>
1.87084448

$$$$
