
 OpenBabel03272507523D

 33 35  0  0  0  0  0  0  0  0999 V2000
   36.2180   30.4460   44.6500 N   0  0  0  0  0  0  0  0  0  0  0  0
   34.9730   30.5380   44.1930 C   0  0  0  0  0  0  0  0  0  0  0  0
   33.9040   30.4960   45.0900 C   0  0  0  0  0  0  0  0  0  0  0  0
   34.2550   30.3590   46.3980 C   0  0  0  0  0  0  0  0  0  0  0  0
   33.2720   30.3210   47.2040 O   0  0  0  0  0  0  0  0  0  0  0  0
   35.4830   30.2620   46.8980 N   0  0  0  0  0  0  0  0  0  0  0  0
   36.4780   30.3090   45.9820 C   0  0  0  0  0  0  0  0  0  0  0  0
   37.6670   30.2180   46.4450 O   0  0  0  0  0  0  0  0  0  0  0  0
   34.7900   30.6470   43.1280 H   0  0  0  0  0  0  0  0  0  0  0  0
   32.8970   30.5680   44.7500 H   0  0  0  0  0  0  0  0  0  0  0  0
   37.7080   29.2840   43.1190 C   0  0  0  0  0  0  0  0  0  0  0  0
   37.3670   30.4770   43.7930 C   0  0  0  0  0  0  0  0  0  0  0  0
   38.1590   31.6220   43.5970 C   0  0  0  0  0  0  0  0  0  0  0  0
   39.2190   31.5160   42.7600 N   0  0  0  0  0  0  0  0  0  0  0  0
   39.5370   30.3980   42.1300 C   0  0  0  0  0  0  0  0  0  0  0  0
   38.7890   29.2930   42.3080 N   0  0  0  0  0  0  0  0  0  0  0  0
   37.8510   32.4970   44.1330 H   0  0  0  0  0  0  0  0  0  0  0  0
   40.4000   30.3500   41.4640 H   0  0  0  0  0  0  0  0  0  0  0  0
   35.9750   27.4700   42.4110 C   0  0  0  0  0  0  0  0  0  0  0  0
   35.6190   27.9730   41.3240 O   0  0  0  0  0  0  0  0  0  0  0  0
   36.9740   28.0860   43.2390 N   0  0  0  0  0  0  0  0  0  0  0  0
   35.4850   26.5500   42.6810 H   0  0  0  0  0  0  0  0  0  0  0  0
   37.1630   27.4790   44.0950 H   0  0  0  0  0  0  0  0  0  0  0  0
   35.4330   29.0430   49.0820 C   0  0  0  0  0  0  0  0  0  0  0  0
   35.7740   30.1190   48.2840 C   0  0  0  0  0  0  0  0  0  0  0  0
   36.4610   31.2100   48.7810 C   0  0  0  0  0  0  0  0  0  0  0  0
   36.7610   32.0820   48.2250 H   0  0  0  0  0  0  0  0  0  0  0  0
   36.8260   31.2350   50.1300 C   0  0  0  0  0  0  0  0  0  0  0  0
   37.3670   32.0720   50.5610 H   0  0  0  0  0  0  0  0  0  0  0  0
   36.4850   30.1470   50.9430 C   0  0  0  0  0  3  0  0  0  0  0  0
   35.7920   29.0590   50.4190 C   0  0  0  0  0  3  0  0  0  0  0  0
   34.1390   27.1120   47.9540 N   0  0  0  0  0  0  0  0  0  0  0  0
   34.7240   27.9770   48.4500 C   0  0  0  0  0  0  0  0  0  0  0  0
  1  7  1  0  0  0  0
  2  1  1  0  0  0  0
  2  3  2  0  0  0  0
  3  4  1  0  0  0  0
  4  6  1  0  0  0  0
  4  5  2  0  0  0  0
  6 25  1  0  0  0  0
  7  8  2  0  0  0  0
  7  6  1  0  0  0  0
  9  2  1  0  0  0  0
 10  3  1  0  0  0  0
 11 21  1  0  0  0  0
 11 12  1  0  0  0  0
 12  1  1  0  0  0  0
 13 12  2  0  0  0  0
 13 17  1  0  0  0  0
 14 13  1  0  0  0  0
 15 16  1  0  0  0  0
 15 14  2  0  0  0  0
 16 11  2  0  0  0  0
 18 15  1  0  0  0  0
 19 22  1  0  0  0  0
 19 21  1  0  0  0  0
 20 19  2  0  0  0  0
 21 23  1  0  0  0  0
 24 31  1  0  0  0  0
 25 26  1  0  0  0  0
 25 24  2  0  0  0  0
 26 28  2  0  0  0  0
 27 26  1  0  0  0  0
 28 29  1  0  0  0  0
 28 30  1  0  0  0  0
 31 30  2  0  0  0  0
 32 33  3  0  0  0  0
 33 24  1  0  0  0  0
M  END
>  <minimizedAffinity>
-4.45123148

>  <minimizedRMSD>
6.81935167

$$$$
