
 OpenBabel03272503053D

 33 35  0  0  0  0  0  0  0  0999 V2000
   38.2330   29.9260   47.3660 F   0  0  0  0  0  0  0  0  0  0  0  0
   38.5700   31.2100   47.6680 C   0  0  0  0  0  0  0  0  0  0  0  0
   38.1160   31.7780   48.8360 C   0  0  0  0  0  0  0  0  0  0  0  0
   38.4860   33.0650   49.0810 C   0  0  0  0  0  0  0  0  0  0  0  0
   39.2760   33.8000   48.2260 C   0  0  0  0  0  0  0  0  0  0  0  0
   39.7210   33.2130   47.0580 C   0  0  0  0  0  0  0  0  0  0  0  0
   39.3630   31.9010   46.7770 C   0  0  0  0  0  0  0  0  0  0  0  0
   38.1310   33.5300   50.0090 H   0  0  0  0  0  0  0  0  0  0  0  0
   39.5500   34.8250   48.4730 H   0  0  0  0  0  0  0  0  0  0  0  0
   40.3440   33.7400   46.3490 H   0  0  0  0  0  0  0  0  0  0  0  0
   36.9320   29.6570   51.7420 C   0  0  0  0  0  0  0  0  0  0  0  0
   37.7580   30.4430   50.9150 C   0  0  0  0  0  0  0  0  0  0  0  0
   37.2780   30.9540   49.7200 C   0  0  0  0  0  0  0  0  0  0  0  0
   35.9910   30.6650   49.3890 N   0  0  0  0  0  0  0  0  0  0  0  0
   35.2140   29.9120   50.1870 C   0  0  0  0  0  0  0  0  0  0  0  0
   35.6650   29.4150   51.3380 N   0  0  0  0  0  0  0  0  0  0  0  0
   37.4910   29.3590   52.6190 H   0  0  0  0  0  0  0  0  0  0  0  0
   38.7960   30.7120   51.1240 H   0  0  0  0  0  0  0  0  0  0  0  0
   34.1950   29.6490   49.9820 H   0  0  0  0  0  0  0  0  0  0  0  0
   38.7750   31.1300   44.5770 C   0  0  0  0  0  0  0  0  0  0  0  0
   37.6280   31.6050   44.9120 O   0  0  0  0  0  0  0  0  0  0  0  0
   39.8050   31.2580   45.5790 N   0  0  0  0  0  0  0  0  0  0  0  0
   40.7100   30.8670   45.2820 H   0  0  0  0  0  0  0  0  0  0  0  0
   39.1300   31.4280   42.2390 C   0  0  0  0  0  0  0  0  0  0  0  0
   38.8710   30.5360   43.2520 C   0  0  0  0  0  0  0  0  0  0  0  0
   38.7100   29.1830   43.0580 C   0  0  0  0  0  0  0  0  0  0  0  0
   38.5080   28.5160   43.8730 H   0  0  0  0  0  0  0  0  0  0  0  0
   38.8290   28.7810   41.7250 C   0  0  0  0  0  0  0  0  0  0  0  0
   38.7160   27.7180   41.4990 H   0  0  0  0  0  0  0  0  0  0  0  0
   39.0840   29.6450   40.6970 C   0  0  0  0  0  3  0  0  0  0  0  0
   39.2440   31.0120   40.9250 C   0  0  0  0  0  3  0  0  0  0  0  0
   39.4400   33.9870   42.6430 N   0  0  0  0  0  0  0  0  0  0  0  0
   39.2960   32.8580   42.4550 C   0  0  0  0  0  0  0  0  0  0  0  0
  1  2  1  0  0  0  0
  2  3  1  0  0  0  0
  3  4  2  0  0  0  0
  3 13  1  0  0  0  0
  4  8  1  0  0  0  0
  5  9  1  0  0  0  0
  5  4  1  0  0  0  0
  6  5  2  0  0  0  0
  7  6  1  0  0  0  0
  7  2  2  0  0  0  0
 10  6  1  0  0  0  0
 11 17  1  0  0  0  0
 12 18  1  0  0  0  0
 12 11  2  0  0  0  0
 13 12  1  0  0  0  0
 14 13  2  0  0  0  0
 14 15  1  0  0  0  0
 15 16  2  0  0  0  0
 16 11  1  0  0  0  0
 19 15  1  0  0  0  0
 20 21  2  0  0  0  0
 20 22  1  0  0  0  0
 22  7  1  0  0  0  0
 23 22  1  0  0  0  0
 24 33  1  0  0  0  0
 24 25  1  0  0  0  0
 25 20  1  0  0  0  0
 26 25  2  0  0  0  0
 26 27  1  0  0  0  0
 28 26  1  0  0  0  0
 29 28  1  0  0  0  0
 30 31  1  0  0  0  0
 30 28  2  0  0  0  0
 31 24  2  0  0  0  0
 33 32  3  0  0  0  0
M  END
>  <minimizedAffinity>
-5.66221809

>  <minimizedRMSD>
1.05228484

$$$$
