
 OpenBabel03272508513D

 30 32  0  0  1  0  0  0  0  0999 V2000
   37.9990   30.6620   46.5150 C   0  0  2  0  0  0  0  0  0  0  0  0
   39.3740   30.8600   46.0640 C   0  0  0  0  0  0  0  0  0  0  0  0
   38.2700   31.8710   45.7320 C   0  0  1  0  0  0  0  0  0  0  0  0
   37.3180   29.9310   45.9750 H   0  0  0  0  0  0  0  0  0  0  0  0
   40.1870   31.1540   46.7440 H   0  0  0  0  0  0  0  0  0  0  0  0
   39.7380   30.2850   45.1880 H   0  0  0  0  0  0  0  0  0  0  0  0
   38.5910   32.8640   46.0860 H   0  0  0  0  0  0  0  0  0  0  0  0
   35.8870   30.8040   49.5550 C   0  0  0  0  0  0  0  0  0  0  0  0
   36.8450   31.0500   50.5710 C   0  0  0  0  0  0  0  0  0  0  0  0
   38.2230   31.1610   50.1700 C   0  0  0  0  0  0  0  0  0  0  0  0
   38.5150   31.0280   48.8540 N   0  0  0  0  0  0  0  0  0  0  0  0
   37.5660   30.7950   47.9360 C   0  0  0  0  0  0  0  0  0  0  0  0
   36.2470   30.6780   48.2510 N   0  0  0  0  0  0  0  0  0  0  0  0
   34.8720   30.7400   49.9250 H   0  0  0  0  0  0  0  0  0  0  0  0
   36.5600   31.1510   51.6050 H   0  0  0  0  0  0  0  0  0  0  0  0
   38.9650   31.3420   50.9300 H   0  0  0  0  0  0  0  0  0  0  0  0
   38.4640   32.7570   43.4270 C   0  0  0  0  0  0  0  0  0  0  0  0
   39.4850   33.4210   43.8290 O   0  0  0  0  0  0  0  0  0  0  0  0
   37.8520   31.8550   44.3240 N   0  0  0  0  0  0  0  0  0  0  0  0
   37.0980   31.1120   44.1700 H   0  0  0  0  0  0  0  0  0  0  0  0
   38.1130   31.9720   41.0800 C   0  0  0  0  0  0  0  0  0  0  0  0
   37.6190   32.5900   42.2100 C   0  0  0  0  0  0  0  0  0  0  0  0
   36.3560   33.1450   42.3350 C   0  0  0  0  0  0  0  0  0  0  0  0
   35.9870   33.6250   43.2260 H   0  0  0  0  0  0  0  0  0  0  0  0
   35.5180   33.0790   41.2360 C   0  0  0  0  0  0  0  0  0  0  0  0
   34.4960   33.4850   41.2120 H   0  0  0  0  0  0  0  0  0  0  0  0
   36.0140   32.4620   40.1100 C   0  0  0  0  0  3  0  0  0  0  0  0
   37.2650   31.9090   39.9780 C   0  0  0  0  0  3  0  0  0  0  0  0
   40.5090   31.0190   41.1760 N   0  0  0  0  0  0  0  0  0  0  0  0
   39.4390   31.4540   41.1340 C   0  0  0  0  0  0  0  0  0  0  0  0
  1  4  1  6  0  0  0
  1 12  1  0  0  0  0
  2  1  1  0  0  0  0
  2  5  1  0  0  0  0
  3  2  1  0  0  0  0
  3  7  1  1  0  0  0
  3  1  1  0  0  0  0
  6  2  1  0  0  0  0
  8 14  1  0  0  0  0
  8  9  1  0  0  0  0
  9 15  1  0  0  0  0
 10  9  2  0  0  0  0
 10 16  1  0  0  0  0
 11 10  1  0  0  0  0
 12 13  1  0  0  0  0
 12 11  2  0  0  0  0
 13  8  2  0  0  0  0
 17 18  2  0  0  0  0
 17 19  1  0  0  0  0
 19  3  1  0  0  0  0
 20 19  1  0  0  0  0
 21 30  1  0  0  0  0
 21 22  1  0  0  0  0
 22 23  2  0  0  0  0
 22 17  1  0  0  0  0
 23 24  1  0  0  0  0
 25 23  1  0  0  0  0
 26 25  1  0  0  0  0
 27 25  2  0  0  0  0
 28 27  1  0  0  0  0
 28 21  2  0  0  0  0
 30 29  3  0  0  0  0
M  END
>  <minimizedAffinity>
-4.43075371

>  <minimizedRMSD>
8.65906429

$$$$
