
 OpenBabel03272508193D

 32 34  0  0  0  0  0  0  0  0999 V2000
   36.6600   31.1240   48.5740 C   0  0  0  0  0  0  0  0  0  0  0  0
   36.4280   30.5210   47.3350 C   0  0  0  0  0  0  0  0  0  0  0  0
   35.2220   29.8740   47.2470 C   0  0  0  0  0  0  0  0  0  0  0  0
   34.3390   29.8280   48.2750 N   0  0  0  0  0  0  0  0  0  0  0  0
   34.5950   30.4210   49.4580 C   0  0  0  0  0  0  0  0  0  0  0  0
   35.7570   31.0680   49.6050 N   0  0  0  0  0  0  0  0  0  0  0  0
   34.8430   29.3280   46.4090 H   0  0  0  0  0  0  0  0  0  0  0  0
   33.9110   30.4000   50.2930 H   0  0  0  0  0  0  0  0  0  0  0  0
   37.9400   31.9320   48.7020 C   0  0  0  0  0  0  0  0  0  0  0  0
   38.0880   32.9440   49.6780 C   0  0  0  0  0  0  0  0  0  0  0  0
   38.6040   31.5840   50.0830 C   0  0  0  0  0  0  0  0  0  0  0  0
   38.7270   31.7390   47.9030 H   0  0  0  0  0  0  0  0  0  0  0  0
   37.1690   33.2490   50.2550 H   0  0  0  0  0  0  0  0  0  0  0  0
   38.7850   33.7870   49.5470 H   0  0  0  0  0  0  0  0  0  0  0  0
   39.6990   31.5110   50.0710 H   0  0  0  0  0  0  0  0  0  0  0  0
   38.0640   30.9660   50.7830 H   0  0  0  0  0  0  0  0  0  0  0  0
   37.3700   30.5270   46.2390 C   0  0  0  0  0  0  0  0  0  0  0  0
   37.8480   29.5300   46.1670 H   0  0  0  0  0  0  0  0  0  0  0  0
   38.1540   31.3010   46.5320 H   0  0  0  0  0  0  0  0  0  0  0  0
   36.9310   30.9300   44.8910 C   0  0  0  0  0  0  0  0  0  0  0  0
   36.3140   31.8790   44.9510 H   0  0  0  0  0  0  0  0  0  0  0  0
   36.1850   30.1970   44.4660 H   0  0  0  0  0  0  0  0  0  0  0  0
   37.5970   30.7730   42.6090 C   0  0  0  0  0  0  0  0  0  0  0  0
   37.9650   31.2170   43.8880 C   0  0  0  0  0  0  0  0  0  0  0  0
   39.1980   31.8270   43.9050 C   0  0  0  0  0  0  0  0  0  0  0  0
   39.4760   32.1870   44.8820 H   0  0  0  0  0  0  0  0  0  0  0  0
   40.0360   32.0170   42.8350 C   0  0  0  0  0  0  0  0  0  0  0  0
   40.9550   32.5090   43.0290 H   0  0  0  0  0  0  0  0  0  0  0  0
   39.6460   31.5690   41.5930 C   0  0  0  0  0  3  0  0  0  0  0  0
   38.4210   30.9460   41.4930 C   0  0  0  0  0  3  0  0  0  0  0  0
   35.3390   29.5990   42.0290 N   0  0  0  0  0  0  0  0  0  0  0  0
   36.3440   30.1110   42.2810 C   0  0  0  0  0  0  0  0  0  0  0  0
  1  9  1  0  0  0  0
  1  6  1  0  0  0  0
  2  1  2  0  0  0  0
  3  2  1  0  0  0  0
  3  4  2  0  0  0  0
  4  5  1  0  0  0  0
  5  6  2  0  0  0  0
  5  8  1  0  0  0  0
  7  3  1  0  0  0  0
  9 10  1  0  0  0  0
  9 11  1  0  0  0  0
 10 11  1  0  0  0  0
 10 13  1  0  0  0  0
 11 16  1  0  0  0  0
 12  9  1  0  0  0  0
 14 10  1  0  0  0  0
 15 11  1  0  0  0  0
 17 19  1  0  0  0  0
 17  2  1  0  0  0  0
 18 17  1  0  0  0  0
 20 21  1  0  0  0  0
 20 17  1  0  0  0  0
 22 20  1  0  0  0  0
 23 24  1  0  0  0  0
 24 25  2  0  0  0  0
 24 20  1  0  0  0  0
 25 26  1  0  0  0  0
 27 28  1  0  0  0  0
 27 25  1  0  0  0  0
 29 27  2  0  0  0  0
 30 29  1  0  0  0  0
 30 23  2  0  0  0  0
 31 32  3  0  0  0  0
 32 23  1  0  0  0  0
M  END
>  <minimizedAffinity>
-4.31413984

>  <minimizedRMSD>
5.68061256

$$$$
