
 OpenBabel03272501583D

 32 34  0  0  0  0  0  0  0  0999 V2000
   32.8460   28.3230   47.9700 C   0  0  0  0  0  0  0  0  0  0  0  0
   32.1530   27.7460   48.9970 C   0  0  0  0  0  0  0  0  0  0  0  0
   30.8260   27.6160   48.6650 C   0  0  0  0  0  0  0  0  0  0  0  0
   30.7320   28.1240   47.4210 N   0  0  0  0  0  0  0  0  0  0  0  0
   31.9370   28.5430   47.0140 N   0  0  0  0  0  0  0  0  0  0  0  0
   32.5780   27.4260   49.9580 H   0  0  0  0  0  0  0  0  0  0  0  0
   29.9820   27.2140   49.2090 H   0  0  0  0  0  0  0  0  0  0  0  0
   29.0970   27.2400   45.7980 C   0  0  0  0  0  0  0  0  0  0  0  0
   29.6130   28.2680   46.5430 C   0  0  0  0  0  0  0  0  0  0  0  0
   28.9810   29.5070   46.4070 C   0  0  0  0  0  0  0  0  0  0  0  0
   29.4050   30.3070   47.0050 H   0  0  0  0  0  0  0  0  0  0  0  0
   27.8980   29.7600   45.5910 C   0  0  0  0  0  0  0  0  0  0  0  0
   27.5190   30.7720   45.5940 H   0  0  0  0  0  0  0  0  0  0  0  0
   27.4030   28.6980   44.8530 C   0  0  0  0  0  3  0  0  0  0  0  0
   28.0160   27.4500   44.9710 C   0  0  0  0  0  3  0  0  0  0  0  0
   30.1310   24.8960   45.9270 N   0  0  0  0  0  0  0  0  0  0  0  0
   29.6750   25.9520   45.8740 C   0  0  0  0  0  0  0  0  0  0  0  0
   34.3210   28.6410   47.9270 C   0  0  0  0  0  0  0  0  0  0  0  0
   34.4210   29.7130   47.7700 H   0  0  0  0  0  0  0  0  0  0  0  0
   34.7730   28.0750   47.0900 H   0  0  0  0  0  0  0  0  0  0  0  0
   34.8640   28.2240   49.2710 C   0  0  0  0  0  0  0  0  0  0  0  0
   35.3160   27.2030   49.2100 H   0  0  0  0  0  0  0  0  0  0  0  0
   34.0920   28.1630   50.0660 H   0  0  0  0  0  0  0  0  0  0  0  0
   37.2530   30.1980   51.2820 C   0  0  0  0  0  0  0  0  0  0  0  0
   38.0480   30.8050   50.2940 C   0  0  0  0  0  0  0  0  0  0  0  0
   37.7530   30.5300   48.9560 C   0  0  0  0  0  0  0  0  0  0  0  0
   36.7200   29.6930   48.6700 N   0  0  0  0  0  0  0  0  0  0  0  0
   35.9810   29.1300   49.6600 C   0  0  0  0  0  0  0  0  0  0  0  0
   36.2550   29.3880   50.9380 N   0  0  0  0  0  0  0  0  0  0  0  0
   37.5470   30.4640   52.2840 H   0  0  0  0  0  0  0  0  0  0  0  0
   38.8800   31.4750   50.4030 H   0  0  0  0  0  0  0  0  0  0  0  0
   38.2710   30.9190   48.0890 H   0  0  0  0  0  0  0  0  0  0  0  0
  1  2  1  0  0  0  0
  2  6  1  0  0  0  0
  3  2  2  0  0  0  0
  3  7  1  0  0  0  0
  4  3  1  0  0  0  0
  5  4  1  0  0  0  0
  5  1  2  0  0  0  0
  8 17  1  0  0  0  0
  8  9  1  0  0  0  0
  9  4  1  0  0  0  0
 10  9  2  0  0  0  0
 10 11  1  0  0  0  0
 12 13  1  0  0  0  0
 12 10  1  0  0  0  0
 14 15  1  0  0  0  0
 14 12  2  0  0  0  0
 15  8  2  0  0  0  0
 17 16  3  0  0  0  0
 18  1  1  0  0  0  0
 18 21  1  0  0  0  0
 19 18  1  0  0  0  0
 20 18  1  0  0  0  0
 21 28  1  0  0  0  0
 21 23  1  0  0  0  0
 22 21  1  0  0  0  0
 24 30  1  0  0  0  0
 25 31  1  0  0  0  0
 25 24  2  0  0  0  0
 26 25  1  0  0  0  0
 27 26  2  0  0  0  0
 27 28  1  0  0  0  0
 28 29  2  0  0  0  0
 29 24  1  0  0  0  0
 32 26  1  0  0  0  0
M  END
>  <minimizedAffinity>
-4.68831253

>  <minimizedRMSD>
1.5441916

$$$$
