
 OpenBabel03262523213D

 42 45  0  0  1  0  0  0  0  0999 V2000
   37.7850   33.4560   41.9320 C   0  0  0  0  0  0  0  0  0  0  0  0
   38.5860   32.8890   40.9470 C   0  0  0  0  0  0  0  0  0  0  0  0
   38.3440   31.5770   40.5750 C   0  0  0  0  0  0  0  0  0  0  0  0
   37.3410   30.8960   41.1800 N   0  0  0  0  0  0  0  0  0  0  0  0
   36.5840   31.4210   42.1060 C   0  0  0  0  0  0  0  0  0  0  0  0
   36.8590   32.6600   42.4150 N   0  0  0  0  0  0  0  0  0  0  0  0
   35.5490   30.6760   42.7060 N   0  0  0  0  0  0  0  0  0  0  0  0
   34.4580   30.0800   41.9270 C   0  0  0  0  0  0  0  0  0  0  0  0
   33.6570   29.3320   42.9100 C   0  0  0  0  0  0  0  0  0  0  0  0
   34.5860   29.1720   44.1160 C   0  0  0  0  0  0  0  0  0  0  0  0
   35.3410   30.4120   44.1380 C   0  0  1  0  0  0  0  0  0  0  0  0
   37.9070   34.4590   42.2740 H   0  0  0  0  0  0  0  0  0  0  0  0
   39.3820   33.4690   40.4870 H   0  0  0  0  0  0  0  0  0  0  0  0
   38.9820   31.1500   39.8000 H   0  0  0  0  0  0  0  0  0  0  0  0
   33.8730   30.9180   41.5010 H   0  0  0  0  0  0  0  0  0  0  0  0
   34.8500   29.4660   41.0930 H   0  0  0  0  0  0  0  0  0  0  0  0
   33.2790   28.3780   42.5180 H   0  0  0  0  0  0  0  0  0  0  0  0
   32.7320   29.9190   43.1690 H   0  0  0  0  0  0  0  0  0  0  0  0
   33.8580   28.9820   44.8710 H   0  0  0  0  0  0  0  0  0  0  0  0
   35.2030   28.3860   43.6540 H   0  0  0  0  0  0  0  0  0  0  0  0
   34.7150   31.3330   44.3580 H   0  0  0  0  0  0  0  0  0  0  0  0
   36.4700   30.3880   46.3970 C   0  0  0  0  0  0  0  0  0  0  0  0
   36.4850   30.4880   44.9970 C   0  0  0  0  0  0  0  0  0  0  0  0
   37.7830   30.5620   44.5120 C   0  0  0  0  0  0  0  0  0  0  0  0
   38.9320   30.5370   45.2750 C   0  0  0  0  0  0  0  0  0  0  0  0
   38.8030   30.4330   46.6720 C   0  0  0  0  0  0  0  0  0  0  0  0
   37.5540   30.3570   47.2660 C   0  0  0  0  0  0  0  0  0  0  0  0
   38.1130   30.7290   43.5170 H   0  0  0  0  0  0  0  0  0  0  0  0
   39.9610   30.5850   44.9700 H   0  0  0  0  0  0  0  0  0  0  0  0
   39.6480   30.4050   47.3630 H   0  0  0  0  0  0  0  0  0  0  0  0
   37.9300   31.3520   49.4100 C   0  0  0  0  0  0  0  0  0  0  0  0
   37.4270   30.2520   48.7060 C   0  0  0  0  0  0  0  0  0  0  0  0
   36.8740   29.1940   49.3870 C   0  0  0  0  0  0  0  0  0  0  0  0
   36.4980   28.3630   48.7910 H   0  0  0  0  0  0  0  0  0  0  0  0
   36.8120   29.2130   50.7670 C   0  0  0  0  0  0  0  0  0  0  0  0
   36.3730   28.3710   51.2870 H   0  0  0  0  0  0  0  0  0  0  0  0
   37.3190   30.3180   51.4190 C   0  0  0  0  0  3  0  0  0  0  0  0
   37.8830   31.4010   50.7780 C   0  0  0  0  0  3  0  0  0  0  0  0
   39.0110   33.3910   48.1940 N   0  0  0  0  0  0  0  0  0  0  0  0
   38.5220   32.4930   48.7350 C   0  0  0  0  0  0  0  0  0  0  0  0
   34.1840   30.4110   47.5820 N   0  0  0  0  0  0  0  0  0  0  0  0
   35.1810   30.3990   47.0530 C   0  0  0  0  0  0  0  0  0  0  0  0
  1 12  1  0  0  0  0
  1  6  1  0  0  0  0
  2  1  2  0  0  0  0
  3  2  1  0  0  0  0
  3  4  2  0  0  0  0
  4  5  1  0  0  0  0
  5  6  2  0  0  0  0
  5  7  1  0  0  0  0
  7 11  1  0  0  0  0
  8  7  1  0  0  0  0
  8  9  1  0  0  0  0
  9 18  1  0  0  0  0
  9 10  1  0  0  0  0
 10 11  1  0  0  0  0
 10 19  1  0  0  0  0
 11 21  1  1  0  0  0
 11 23  1  0  0  0  0
 13  2  1  0  0  0  0
 14  3  1  0  0  0  0
 15  8  1  0  0  0  0
 16  8  1  0  0  0  0
 17  9  1  0  0  0  0
 20 10  1  0  0  0  0
 22 42  1  0  0  0  0
 22 27  1  0  0  0  0
 23 22  2  0  0  0  0
 24 23  1  0  0  0  0
 24 25  2  0  0  0  0
 25 26  1  0  0  0  0
 26 27  2  0  0  0  0
 26 30  1  0  0  0  0
 27 32  1  0  0  0  0
 28 24  1  0  0  0  0
 29 25  1  0  0  0  0
 31 38  1  0  0  0  0
 32 33  1  0  0  0  0
 32 31  2  0  0  0  0
 33 35  2  0  0  0  0
 34 33  1  0  0  0  0
 35 36  1  0  0  0  0
 35 37  1  0  0  0  0
 38 37  2  0  0  0  0
 39 40  3  0  0  0  0
 40 31  1  0  0  0  0
 42 41  3  0  0  0  0
M  END
>  <minimizedAffinity>
-5.68482304

>  <minimizedRMSD>
4.31366205

$$$$
