
 OpenBabel03272507553D

 24 25  0  0  0  0  0  0  0  0999 V2000
   35.4120   28.7080   49.7120 C   0  0  0  0  0  0  0  0  0  0  0  0
   36.4580   29.6820   49.6460 C   0  0  0  0  0  0  0  0  0  0  0  0
   36.3640   30.7090   48.7200 C   0  0  0  0  0  0  0  0  0  0  0  0
   35.2480   30.7170   47.9130 N   0  0  0  0  0  0  0  0  0  0  0  0
   34.2770   29.7820   47.9980 C   0  0  0  0  0  0  0  0  0  0  0  0
   34.3460   28.7800   48.8890 N   0  0  0  0  0  0  0  0  0  0  0  0
   33.2550   29.9570   47.0540 N   0  0  0  0  0  0  0  0  0  0  0  0
   35.4910   27.8990   50.4440 H   0  0  0  0  0  0  0  0  0  0  0  0
   32.8510   30.8300   46.7220 H   0  0  0  0  0  0  0  0  0  0  0  0
   32.8060   29.1170   46.5980 H   0  0  0  0  0  0  0  0  0  0  0  0
   38.2760   31.8350   47.5700 C   0  0  0  0  0  0  0  0  0  0  0  0
   37.3530   31.7670   48.6190 C   0  0  0  0  0  0  0  0  0  0  0  0
   37.4950   32.7480   49.5730 C   0  0  0  0  0  0  0  0  0  0  0  0
   36.9020   32.8400   50.4660 H   0  0  0  0  0  0  0  0  0  0  0  0
   38.4600   33.7380   49.5320 C   0  0  0  0  0  0  0  0  0  0  0  0
   38.6060   34.5210   50.2520 H   0  0  0  0  0  0  0  0  0  0  0  0
   39.3500   33.7500   48.4560 C   0  0  0  0  0  0  0  0  0  0  0  0
   39.2690   32.7890   47.4540 C   0  0  0  0  0  0  0  0  0  0  0  0
   38.0870   30.0380   45.6990 N   0  0  0  0  0  0  0  0  0  0  0  0
   38.1760   30.8340   46.5390 C   0  0  0  0  0  0  0  0  0  0  0  0
   37.6040   29.5420   50.5950 C   0  0  0  0  0  0  0  0  0  0  0  0
   38.7820   29.9340   50.0000 F   0  0  0  0  0  0  0  0  0  0  0  0
   37.3590   30.3370   51.6830 F   0  0  0  0  0  0  0  0  0  0  0  0
   37.7720   28.2430   51.0430 F   0  0  0  0  0  0  0  0  0  0  0  0
  1  8  1  0  0  0  0
  2  1  1  0  0  0  0
  2 21  1  0  0  0  0
  3  2  2  0  0  0  0
  4  5  2  0  0  0  0
  4  3  1  0  0  0  0
  5  6  1  0  0  0  0
  6  1  2  0  0  0  0
  7  5  1  0  0  0  0
  9  7  1  0  0  0  0
 10  7  1  0  0  0  0
 11 12  1  0  0  0  0
 12  3  1  0  0  0  0
 12 13  2  0  0  0  0
 13 14  1  0  0  0  0
 15 13  1  0  0  0  0
 15 16  1  0  0  0  0
 17 15  2  0  0  0  0
 18 11  2  0  0  0  0
 18 17  1  0  0  0  0
 19 20  3  0  0  0  0
 20 11  1  0  0  0  0
 21 24  1  0  0  0  0
 21 23  1  0  0  0  0
 22 21  1  0  0  0  0
M  END
>  <minimizedAffinity>
-5.94874048

>  <minimizedRMSD>
1.7024672

$$$$
