
 OpenBabel03272507553D

 24 25  0  0  0  0  0  0  0  0999 V2000
   35.3610   28.6550   49.6480 C   0  0  0  0  0  0  0  0  0  0  0  0
   36.4060   29.6320   49.6150 C   0  0  0  0  0  0  0  0  0  0  0  0
   36.3210   30.6780   48.7100 C   0  0  0  0  0  0  0  0  0  0  0  0
   35.2140   30.7020   47.8910 N   0  0  0  0  0  0  0  0  0  0  0  0
   34.2440   29.7640   47.9440 C   0  0  0  0  0  0  0  0  0  0  0  0
   34.3040   28.7430   48.8140 N   0  0  0  0  0  0  0  0  0  0  0  0
   33.2320   29.9570   46.9920 N   0  0  0  0  0  0  0  0  0  0  0  0
   35.4330   27.8310   50.3640 H   0  0  0  0  0  0  0  0  0  0  0  0
   32.8320   30.8360   46.6740 H   0  0  0  0  0  0  0  0  0  0  0  0
   32.7900   29.1270   46.5130 H   0  0  0  0  0  0  0  0  0  0  0  0
   38.2470   31.8280   47.6080 C   0  0  0  0  0  0  0  0  0  0  0  0
   37.3090   31.7400   48.6430 C   0  0  0  0  0  0  0  0  0  0  0  0
   37.4350   32.7030   49.6170 C   0  0  0  0  0  0  0  0  0  0  0  0
   36.8300   32.7770   50.5030 H   0  0  0  0  0  0  0  0  0  0  0  0
   38.3990   33.6960   49.6070 C   0  0  0  0  0  0  0  0  0  0  0  0
   38.5320   34.4650   50.3450 H   0  0  0  0  0  0  0  0  0  0  0  0
   39.3040   33.7280   48.5460 C   0  0  0  0  0  3  0  0  0  0  0  0
   39.2390   32.7870   47.5250 C   0  0  0  0  0  3  0  0  0  0  0  0
   38.0890   30.0670   45.7020 N   0  0  0  0  0  0  0  0  0  0  0  0
   38.1640   30.8470   46.5580 C   0  0  0  0  0  0  0  0  0  0  0  0
   37.5410   29.4740   50.5740 C   0  0  0  0  0  0  0  0  0  0  0  0
   38.7260   29.8720   49.9990 F   0  0  0  0  0  0  0  0  0  0  0  0
   37.2860   30.2520   51.6730 F   0  0  0  0  0  0  0  0  0  0  0  0
   37.7000   28.1670   51.0030 F   0  0  0  0  0  0  0  0  0  0  0  0
  1  8  1  0  0  0  0
  2  1  1  0  0  0  0
  2 21  1  0  0  0  0
  3  2  2  0  0  0  0
  4  5  2  0  0  0  0
  4  3  1  0  0  0  0
  5  6  1  0  0  0  0
  6  1  2  0  0  0  0
  7  5  1  0  0  0  0
  9  7  1  0  0  0  0
 10  7  1  0  0  0  0
 11 12  1  0  0  0  0
 12  3  1  0  0  0  0
 12 13  2  0  0  0  0
 13 14  1  0  0  0  0
 15 13  1  0  0  0  0
 15 16  1  0  0  0  0
 17 15  2  0  0  0  0
 18 11  2  0  0  0  0
 18 17  1  0  0  0  0
 19 20  3  0  0  0  0
 20 11  1  0  0  0  0
 21 24  1  0  0  0  0
 21 23  1  0  0  0  0
 22 21  1  0  0  0  0
M  END
>  <minimizedAffinity>
-5.92605543

>  <minimizedRMSD>
1.57066047

$$$$
