
 OpenBabel03272509303D

 39 41  0  0  1  0  0  0  0  0999 V2000
   36.5230   30.8310   48.8570 C   0  0  2  0  0  0  0  0  0  0  0  0
   37.4020   31.5600   49.8240 C   0  0  0  0  0  0  0  0  0  0  0  0
   38.0540   30.6470   50.8380 C   0  0  0  0  0  0  0  0  0  0  0  0
   37.0160   29.8200   51.5910 C   0  0  0  0  0  0  0  0  0  0  0  0
   35.8230   29.4260   50.7490 C   0  0  0  0  0  0  0  0  0  0  0  0
   36.2700   29.4240   49.2750 C   0  0  1  0  0  0  0  0  0  0  0  0
   35.5080   31.2890   48.7230 H   0  0  0  0  0  0  0  0  0  0  0  0
   36.6760   32.1810   50.4510 H   0  0  0  0  0  0  0  0  0  0  0  0
   38.1090   32.2630   49.4260 H   0  0  0  0  0  0  0  0  0  0  0  0
   38.4950   31.3300   51.6210 H   0  0  0  0  0  0  0  0  0  0  0  0
   38.8590   30.0280   50.4540 H   0  0  0  0  0  0  0  0  0  0  0  0
   36.6480   30.3380   52.4860 H   0  0  0  0  0  0  0  0  0  0  0  0
   37.5420   28.8630   51.8700 H   0  0  0  0  0  0  0  0  0  0  0  0
   35.0260   30.1710   50.8340 H   0  0  0  0  0  0  0  0  0  0  0  0
   35.4590   28.4170   51.0280 H   0  0  0  0  0  0  0  0  0  0  0  0
   37.1660   28.8620   49.3490 H   0  0  0  0  0  0  0  0  0  0  0  0
   37.1150   30.8260   47.4920 C   0  0  0  0  0  0  0  0  0  0  0  0
   38.4880   31.0830   47.4270 C   0  0  0  0  0  0  0  0  0  0  0  0
   39.0690   31.0830   46.1530 C   0  0  0  0  0  0  0  0  0  0  0  0
   38.2720   30.8320   45.0580 N   0  0  0  0  0  0  0  0  0  0  0  0
   36.9280   30.5840   45.1810 C   0  0  0  0  0  0  0  0  0  0  0  0
   36.3730   30.5870   46.4050 N   0  0  0  0  0  0  0  0  0  0  0  0
   39.2280   31.2830   48.1760 H   0  0  0  0  0  0  0  0  0  0  0  0
   40.1020   31.2620   45.9370 H   0  0  0  0  0  0  0  0  0  0  0  0
   36.3730   30.3970   44.2830 H   0  0  0  0  0  0  0  0  0  0  0  0
   34.0760   28.3270   48.6100 C   0  0  0  0  0  0  0  0  0  0  0  0
   33.2580   28.6060   49.5280 O   0  0  0  0  0  0  0  0  0  0  0  0
   35.4360   28.6790   48.4020 N   0  0  0  0  0  0  0  0  0  0  0  0
   35.7580   28.2930   47.4590 H   0  0  0  0  0  0  0  0  0  0  0  0
   32.6450   28.1050   46.6190 C   0  0  0  0  0  0  0  0  0  0  0  0
   33.2880   27.4740   47.6880 C   0  0  0  0  0  0  0  0  0  0  0  0
   33.1560   26.0980   47.8370 C   0  0  0  0  0  0  0  0  0  0  0  0
   33.6620   25.6600   48.6650 H   0  0  0  0  0  0  0  0  0  0  0  0
   32.3860   25.3950   46.9130 C   0  0  0  0  0  0  0  0  0  0  0  0
   32.2910   24.3100   47.0440 H   0  0  0  0  0  0  0  0  0  0  0  0
   31.7580   26.0330   45.8620 C   0  0  0  0  0  3  0  0  0  0  0  0
   31.8730   27.4110   45.6880 C   0  0  0  0  0  3  0  0  0  0  0  0
   32.8380   30.6800   46.2780 N   0  0  0  0  0  0  0  0  0  0  0  0
   32.7530   29.5280   46.4260 C   0  0  0  0  0  0  0  0  0  0  0  0
  1  7  1  6  0  0  0
  1  6  1  0  0  0  0
  1  2  1  0  0  0  0
  2  8  1  0  0  0  0
  2  3  1  0  0  0  0
  3  4  1  0  0  0  0
  3 10  1  0  0  0  0
  4 13  1  0  0  0  0
  4 12  1  0  0  0  0
  5 14  1  0  0  0  0
  5 15  1  0  0  0  0
  5  4  1  0  0  0  0
  6 16  1  6  0  0  0
  6  5  1  0  0  0  0
  9  2  1  0  0  0  0
 11  3  1  0  0  0  0
 17  1  1  0  0  0  0
 18 17  1  0  0  0  0
 18 23  1  0  0  0  0
 19 18  2  0  0  0  0
 20 21  2  0  0  0  0
 20 19  1  0  0  0  0
 21 22  1  0  0  0  0
 22 17  2  0  0  0  0
 24 19  1  0  0  0  0
 25 21  1  0  0  0  0
 26 27  2  0  0  0  0
 28 26  1  0  0  0  0
 28  6  1  0  0  0  0
 29 28  1  0  0  0  0
 30 31  1  0  0  0  0
 31 32  2  0  0  0  0
 31 26  1  0  0  0  0
 32 33  1  0  0  0  0
 34 35  1  0  0  0  0
 34 32  1  0  0  0  0
 36 34  2  0  0  0  0
 37 36  1  0  0  0  0
 37 30  2  0  0  0  0
 38 39  3  0  0  0  0
 39 30  1  0  0  0  0
M  END
>  <minimizedAffinity>
-5.88278008

>  <minimizedRMSD>
1.24585378

$$$$
