
 OpenBabel03272501573D

 32 34  0  0  0  0  0  0  0  0999 V2000
   32.6600   27.6730   48.4940 C   0  0  0  0  0  0  0  0  0  0  0  0
   32.2100   26.6180   47.7490 C   0  0  0  0  0  0  0  0  0  0  0  0
   30.8860   26.3710   48.0200 C   0  0  0  0  0  0  0  0  0  0  0  0
   30.5470   27.2930   48.9420 N   0  0  0  0  0  0  0  0  0  0  0  0
   31.6060   28.0630   49.2190 N   0  0  0  0  0  0  0  0  0  0  0  0
   32.8060   26.0400   47.0300 H   0  0  0  0  0  0  0  0  0  0  0  0
   30.1970   25.6320   47.6360 H   0  0  0  0  0  0  0  0  0  0  0  0
   28.3330   28.3680   49.1190 C   0  0  0  0  0  0  0  0  0  0  0  0
   29.3100   27.5430   49.6140 C   0  0  0  0  0  0  0  0  0  0  0  0
   29.0410   26.9370   50.8420 C   0  0  0  0  0  0  0  0  0  0  0  0
   29.8260   26.2890   51.2170 H   0  0  0  0  0  0  0  0  0  0  0  0
   27.8840   27.1070   51.5760 C   0  0  0  0  0  0  0  0  0  0  0  0
   27.8230   26.5690   52.5110 H   0  0  0  0  0  0  0  0  0  0  0  0
   26.9190   27.9460   51.0460 C   0  0  0  0  0  3  0  0  0  0  0  0
   27.1640   28.5650   49.8190 C   0  0  0  0  0  3  0  0  0  0  0  0
   28.6560   29.5610   46.8700 N   0  0  0  0  0  0  0  0  0  0  0  0
   28.5220   29.0230   47.8790 C   0  0  0  0  0  0  0  0  0  0  0  0
   34.0480   28.2660   48.4950 C   0  0  0  0  0  0  0  0  0  0  0  0
   34.0030   29.2050   47.9480 H   0  0  0  0  0  0  0  0  0  0  0  0
   34.7300   27.5500   47.9960 H   0  0  0  0  0  0  0  0  0  0  0  0
   34.3940   28.4830   49.9460 C   0  0  0  0  0  0  0  0  0  0  0  0
   34.5740   27.5040   50.4560 H   0  0  0  0  0  0  0  0  0  0  0  0
   33.5910   28.9810   50.5280 H   0  0  0  0  0  0  0  0  0  0  0  0
   37.3710   30.1930   51.3100 C   0  0  0  0  0  0  0  0  0  0  0  0
   38.0510   30.5890   50.1450 C   0  0  0  0  0  0  0  0  0  0  0  0
   37.4790   30.2650   48.9120 C   0  0  0  0  0  0  0  0  0  0  0  0
   36.3010   29.5860   48.8920 N   0  0  0  0  0  0  0  0  0  0  0  0
   35.6830   29.2250   50.0450 C   0  0  0  0  0  0  0  0  0  0  0  0
   36.2210   29.5300   51.2250 N   0  0  0  0  0  0  0  0  0  0  0  0
   37.8800   30.4820   52.2150 H   0  0  0  0  0  0  0  0  0  0  0  0
   38.9770   31.1230   50.0410 H   0  0  0  0  0  0  0  0  0  0  0  0
   37.8800   30.5000   47.9340 H   0  0  0  0  0  0  0  0  0  0  0  0
  1 18  1  0  0  0  0
  1  5  2  0  0  0  0
  2  3  2  0  0  0  0
  2  1  1  0  0  0  0
  3  4  1  0  0  0  0
  4  5  1  0  0  0  0
  4  9  1  0  0  0  0
  6  2  1  0  0  0  0
  7  3  1  0  0  0  0
  8  9  2  0  0  0  0
  8 15  1  0  0  0  0
  9 10  1  0  0  0  0
 10 11  1  0  0  0  0
 10 12  2  0  0  0  0
 12 13  1  0  0  0  0
 14 12  1  0  0  0  0
 15 14  2  0  0  0  0
 16 17  3  0  0  0  0
 17  8  1  0  0  0  0
 18 21  1  0  0  0  0
 19 18  1  0  0  0  0
 20 18  1  0  0  0  0
 21 28  1  0  0  0  0
 21 22  1  0  0  0  0
 21 23  1  0  0  0  0
 24 30  1  0  0  0  0
 25 24  2  0  0  0  0
 26 25  1  0  0  0  0
 27 26  2  0  0  0  0
 27 28  1  0  0  0  0
 28 29  2  0  0  0  0
 29 24  1  0  0  0  0
 31 25  1  0  0  0  0
 32 26  1  0  0  0  0
M  END
>  <minimizedAffinity>
-6.25259733

>  <minimizedRMSD>
3.5202837

$$$$
