
 OpenBabel03262522243D

 36 38  0  0  0  0  0  0  0  0999 V2000
   34.9310   29.0620   44.7580 C   0  0  0  0  0  0  0  0  0  0  0  0
   35.5360   30.2980   44.4590 C   0  0  0  0  0  0  0  0  0  0  0  0
   35.0880   30.9850   43.3310 C   0  0  0  0  0  0  0  0  0  0  0  0
   34.0980   30.3970   42.6140 N   0  0  0  0  0  0  0  0  0  0  0  0
   33.5600   29.2390   42.9320 C   0  0  0  0  0  0  0  0  0  0  0  0
   33.9610   28.5110   44.0350 N   0  0  0  0  0  0  0  0  0  0  0  0
   35.2020   28.4310   45.6240 H   0  0  0  0  0  0  0  0  0  0  0  0
   35.5680   31.9360   43.1180 H   0  0  0  0  0  0  0  0  0  0  0  0
   36.5120   30.7050   45.3110 O   0  0  0  0  0  0  0  0  0  0  0  0
   37.8150   30.8570   44.8040 C   0  0  0  0  0  0  0  0  0  0  0  0
   38.5570   29.9050   44.1150 C   0  0  0  0  0  0  0  0  0  0  0  0
   39.8010   30.2300   43.6990 C   0  0  0  0  0  0  0  0  0  0  0  0
   40.2890   31.4940   43.9750 C   0  0  0  0  0  0  0  0  0  0  0  0
   39.5280   32.4300   44.6660 C   0  0  0  0  0  0  0  0  0  0  0  0
   38.2930   32.0710   45.0640 N   0  0  0  0  0  0  0  0  0  0  0  0
   38.0080   28.9760   43.9980 H   0  0  0  0  0  0  0  0  0  0  0  0
   40.3390   29.4560   43.1640 H   0  0  0  0  0  0  0  0  0  0  0  0
   41.3050   31.7090   43.6150 H   0  0  0  0  0  0  0  0  0  0  0  0
   40.1110   33.7840   44.9370 C   0  0  0  0  0  0  0  0  0  0  0  0
   40.9130   33.9740   44.1970 H   0  0  0  0  0  0  0  0  0  0  0  0
   39.3310   34.5650   44.9200 H   0  0  0  0  0  0  0  0  0  0  0  0
   40.6050   33.7050   45.9380 H   0  0  0  0  0  0  0  0  0  0  0  0
   32.2700   28.8260   41.7090 S   0  0  0  0  0  0  0  0  0  0  0  0
   30.9370   30.0390   42.0470 C   0  0  0  0  0  0  0  0  0  0  0  0
   30.0960   29.7720   41.3840 H   0  0  0  0  0  0  0  0  0  0  0  0
   31.2450   31.0650   41.8170 H   0  0  0  0  0  0  0  0  0  0  0  0
   29.5490   28.9120   43.6670 C   0  0  0  0  0  0  0  0  0  0  0  0
   30.5560   29.8500   43.4720 C   0  0  0  0  0  0  0  0  0  0  0  0
   31.0770   30.4850   44.5760 C   0  0  0  0  0  0  0  0  0  0  0  0
   31.8550   31.2020   44.3510 H   0  0  0  0  0  0  0  0  0  0  0  0
   30.5970   30.1830   45.8330 C   0  0  0  0  0  0  0  0  0  0  0  0
   31.0660   30.7320   46.6530 H   0  0  0  0  0  0  0  0  0  0  0  0
   29.5990   29.2540   46.0280 C   0  0  0  0  0  3  0  0  0  0  0  0
   29.0480   28.5890   44.9310 C   0  0  0  0  0  3  0  0  0  0  0  0
   28.4660   27.6170   41.6970 N   0  0  0  0  0  0  0  0  0  0  0  0
   28.9340   28.1880   42.5730 C   0  0  0  0  0  0  0  0  0  0  0  0
  1  7  1  0  0  0  0
  2  1  1  0  0  0  0
  2  9  1  0  0  0  0
  3  2  2  0  0  0  0
  4  5  2  0  0  0  0
  4  3  1  0  0  0  0
  5  6  1  0  0  0  0
  6  1  2  0  0  0  0
  8  3  1  0  0  0  0
 10 15  1  0  0  0  0
 10  9  1  0  0  0  0
 11 10  2  0  0  0  0
 12 13  2  0  0  0  0
 12 11  1  0  0  0  0
 13 14  1  0  0  0  0
 14 19  1  0  0  0  0
 14 15  2  0  0  0  0
 16 11  1  0  0  0  0
 17 12  1  0  0  0  0
 18 13  1  0  0  0  0
 19 22  1  0  0  0  0
 20 19  1  0  0  0  0
 21 19  1  0  0  0  0
 23 24  1  0  0  0  0
 23  5  1  0  0  0  0
 24 28  1  0  0  0  0
 25 24  1  0  0  0  0
 26 24  1  0  0  0  0
 27 34  1  0  0  0  0
 28 27  2  0  0  0  0
 28 29  1  0  0  0  0
 29 31  2  0  0  0  0
 30 29  1  0  0  0  0
 31 33  1  0  0  0  0
 31 32  1  0  0  0  0
 34 33  2  0  0  0  0
 35 36  3  0  0  0  0
 36 27  1  0  0  0  0
M  END
>  <minimizedAffinity>
-2.85250711

>  <minimizedRMSD>
7.04109383

$$$$
