
 OpenBabel03272501573D

 32 34  0  0  0  0  0  0  0  0999 V2000
   32.8460   28.3230   47.9700 C   0  0  0  0  0  0  0  0  0  0  0  0
   32.1520   27.7460   48.9980 C   0  0  0  0  0  0  0  0  0  0  0  0
   30.8260   27.6160   48.6650 C   0  0  0  0  0  0  0  0  0  0  0  0
   30.7320   28.1240   47.4210 N   0  0  0  0  0  0  0  0  0  0  0  0
   31.9370   28.5420   47.0150 N   0  0  0  0  0  0  0  0  0  0  0  0
   32.5770   27.4260   49.9580 H   0  0  0  0  0  0  0  0  0  0  0  0
   29.9820   27.2140   49.2090 H   0  0  0  0  0  0  0  0  0  0  0  0
   29.0970   27.2400   45.7980 C   0  0  0  0  0  0  0  0  0  0  0  0
   29.6120   28.2680   46.5440 C   0  0  0  0  0  0  0  0  0  0  0  0
   28.9810   29.5070   46.4070 C   0  0  0  0  0  0  0  0  0  0  0  0
   29.4050   30.3070   47.0040 H   0  0  0  0  0  0  0  0  0  0  0  0
   27.8970   29.7590   45.5910 C   0  0  0  0  0  0  0  0  0  0  0  0
   27.5190   30.7710   45.5920 H   0  0  0  0  0  0  0  0  0  0  0  0
   27.4020   28.6980   44.8530 C   0  0  0  0  0  3  0  0  0  0  0  0
   28.0150   27.4500   44.9710 C   0  0  0  0  0  3  0  0  0  0  0  0
   30.1290   24.8960   45.9290 N   0  0  0  0  0  0  0  0  0  0  0  0
   29.6750   25.9510   45.8750 C   0  0  0  0  0  0  0  0  0  0  0  0
   34.3200   28.6410   47.9270 C   0  0  0  0  0  0  0  0  0  0  0  0
   34.4210   29.7130   47.7700 H   0  0  0  0  0  0  0  0  0  0  0  0
   34.7720   28.0740   47.0900 H   0  0  0  0  0  0  0  0  0  0  0  0
   34.8630   28.2240   49.2700 C   0  0  0  0  0  0  0  0  0  0  0  0
   35.3160   27.2030   49.2100 H   0  0  0  0  0  0  0  0  0  0  0  0
   34.0920   28.1630   50.0660 H   0  0  0  0  0  0  0  0  0  0  0  0
   37.2520   30.1980   51.2810 C   0  0  0  0  0  0  0  0  0  0  0  0
   38.0470   30.8050   50.2940 C   0  0  0  0  0  0  0  0  0  0  0  0
   37.7530   30.5300   48.9560 C   0  0  0  0  0  0  0  0  0  0  0  0
   36.7200   29.6930   48.6690 N   0  0  0  0  0  0  0  0  0  0  0  0
   35.9800   29.1300   49.6590 C   0  0  0  0  0  0  0  0  0  0  0  0
   36.2550   29.3880   50.9370 N   0  0  0  0  0  0  0  0  0  0  0  0
   37.5460   30.4640   52.2840 H   0  0  0  0  0  0  0  0  0  0  0  0
   38.8800   31.4750   50.4020 H   0  0  0  0  0  0  0  0  0  0  0  0
   38.2710   30.9180   48.0890 H   0  0  0  0  0  0  0  0  0  0  0  0
  1  2  1  0  0  0  0
  2  6  1  0  0  0  0
  3  2  2  0  0  0  0
  3  7  1  0  0  0  0
  4  3  1  0  0  0  0
  5  4  1  0  0  0  0
  5  1  2  0  0  0  0
  8 17  1  0  0  0  0
  8  9  1  0  0  0  0
  9  4  1  0  0  0  0
 10  9  2  0  0  0  0
 10 11  1  0  0  0  0
 12 13  1  0  0  0  0
 12 10  1  0  0  0  0
 14 15  1  0  0  0  0
 14 12  2  0  0  0  0
 15  8  2  0  0  0  0
 17 16  3  0  0  0  0
 18  1  1  0  0  0  0
 18 21  1  0  0  0  0
 19 18  1  0  0  0  0
 20 18  1  0  0  0  0
 21 28  1  0  0  0  0
 21 23  1  0  0  0  0
 22 21  1  0  0  0  0
 24 30  1  0  0  0  0
 25 31  1  0  0  0  0
 25 24  2  0  0  0  0
 26 25  1  0  0  0  0
 27 26  2  0  0  0  0
 27 28  1  0  0  0  0
 28 29  2  0  0  0  0
 29 24  1  0  0  0  0
 32 26  1  0  0  0  0
M  END
>  <minimizedAffinity>
-4.68835258

>  <minimizedRMSD>
1.21417415

$$$$
