
 OpenBabel03272501573D

 32 34  0  0  0  0  0  0  0  0999 V2000
   32.9050   28.3250   47.9720 C   0  0  0  0  0  0  0  0  0  0  0  0
   32.1890   27.7650   48.9930 C   0  0  0  0  0  0  0  0  0  0  0  0
   30.8690   27.6330   48.6360 C   0  0  0  0  0  0  0  0  0  0  0  0
   30.8020   28.1250   47.3840 N   0  0  0  0  0  0  0  0  0  0  0  0
   32.0160   28.5340   46.9960 N   0  0  0  0  0  0  0  0  0  0  0  0
   32.5940   27.4560   49.9660 H   0  0  0  0  0  0  0  0  0  0  0  0
   30.0130   27.2410   49.1680 H   0  0  0  0  0  0  0  0  0  0  0  0
   29.1900   27.2220   45.7480 C   0  0  0  0  0  0  0  0  0  0  0  0
   29.7010   28.2600   46.4810 C   0  0  0  0  0  0  0  0  0  0  0  0
   29.0840   29.5020   46.3070 C   0  0  0  0  0  0  0  0  0  0  0  0
   29.5030   30.3100   46.8950 H   0  0  0  0  0  0  0  0  0  0  0  0
   28.0180   29.7470   45.4650 C   0  0  0  0  0  0  0  0  0  0  0  0
   27.6490   30.7620   45.4390 H   0  0  0  0  0  0  0  0  0  0  0  0
   27.5280   28.6740   44.7400 C   0  0  0  0  0  3  0  0  0  0  0  0
   28.1270   27.4230   44.8960 C   0  0  0  0  0  3  0  0  0  0  0  0
   30.1990   24.8710   45.9470 N   0  0  0  0  0  0  0  0  0  0  0  0
   29.7560   25.9300   45.8630 C   0  0  0  0  0  0  0  0  0  0  0  0
   34.3810   28.6380   47.9550 C   0  0  0  0  0  0  0  0  0  0  0  0
   34.4890   29.7040   47.7680 H   0  0  0  0  0  0  0  0  0  0  0  0
   34.8510   28.0460   47.1460 H   0  0  0  0  0  0  0  0  0  0  0  0
   34.8910   28.2600   49.3230 C   0  0  0  0  0  0  0  0  0  0  0  0
   35.3260   27.2300   49.3080 H   0  0  0  0  0  0  0  0  0  0  0  0
   34.1030   28.2420   50.1040 H   0  0  0  0  0  0  0  0  0  0  0  0
   37.3130   30.2170   51.3110 C   0  0  0  0  0  0  0  0  0  0  0  0
   38.0980   30.8240   50.3160 C   0  0  0  0  0  0  0  0  0  0  0  0
   37.7870   30.5550   48.9810 C   0  0  0  0  0  0  0  0  0  0  0  0
   36.7460   29.7230   48.7040 N   0  0  0  0  0  0  0  0  0  0  0  0
   36.0170   29.1610   49.7010 C   0  0  0  0  0  0  0  0  0  0  0  0
   36.3080   29.4130   50.9770 N   0  0  0  0  0  0  0  0  0  0  0  0
   37.6200   30.4790   52.3110 H   0  0  0  0  0  0  0  0  0  0  0  0
   38.9350   31.4910   50.4170 H   0  0  0  0  0  0  0  0  0  0  0  0
   38.2960   30.9440   48.1090 H   0  0  0  0  0  0  0  0  0  0  0  0
  1  2  1  0  0  0  0
  2  6  1  0  0  0  0
  3  2  2  0  0  0  0
  3  7  1  0  0  0  0
  4  3  1  0  0  0  0
  5  4  1  0  0  0  0
  5  1  2  0  0  0  0
  8 17  1  0  0  0  0
  8  9  1  0  0  0  0
  9  4  1  0  0  0  0
 10  9  2  0  0  0  0
 10 11  1  0  0  0  0
 12 10  1  0  0  0  0
 13 12  1  0  0  0  0
 14 15  1  0  0  0  0
 14 12  2  0  0  0  0
 15  8  2  0  0  0  0
 17 16  3  0  0  0  0
 18  1  1  0  0  0  0
 18 21  1  0  0  0  0
 19 18  1  0  0  0  0
 20 18  1  0  0  0  0
 21 28  1  0  0  0  0
 21 23  1  0  0  0  0
 22 21  1  0  0  0  0
 24 30  1  0  0  0  0
 25 31  1  0  0  0  0
 25 24  2  0  0  0  0
 26 25  1  0  0  0  0
 27 26  2  0  0  0  0
 27 28  1  0  0  0  0
 28 29  2  0  0  0  0
 29 24  1  0  0  0  0
 32 26  1  0  0  0  0
M  END
>  <minimizedAffinity>
-4.6829114

>  <minimizedRMSD>
1.35838783

$$$$
