
 OpenBabel03272510243D

 33 36  0  0  0  0  0  0  0  0999 V2000
   34.6970   29.6220   47.6220 C   0  0  0  0  0  0  0  0  0  0  0  0
   36.0000   30.0980   47.7960 C   0  0  0  0  0  0  0  0  0  0  0  0
   36.7620   30.5390   46.7140 C   0  0  0  0  0  0  0  0  0  0  0  0
   36.1330   30.4690   45.4660 C   0  0  0  0  0  0  0  0  0  0  0  0
   36.6560   30.8360   44.2630 N   0  0  0  0  0  0  0  0  0  0  0  0
   35.7040   30.5950   43.3510 C   0  0  0  0  0  0  0  0  0  0  0  0
   34.6160   30.1000   43.9200 N   0  0  0  0  0  0  0  0  0  0  0  0
   34.8520   30.0080   45.2520 C   0  0  0  0  0  0  0  0  0  0  0  0
   34.1190   29.5730   46.3590 C   0  0  0  0  0  0  0  0  0  0  0  0
   34.0930   29.2740   48.4560 H   0  0  0  0  0  0  0  0  0  0  0  0
   37.7580   30.9050   46.8380 H   0  0  0  0  0  0  0  0  0  0  0  0
   37.6280   31.2310   44.1030 H   0  0  0  0  0  0  0  0  0  0  0  0
   33.1320   29.2170   46.1930 H   0  0  0  0  0  0  0  0  0  0  0  0
   38.1320   30.6400   50.8540 C   0  0  0  0  0  0  0  0  0  0  0  0
   37.7350   30.6920   49.5220 C   0  0  0  0  0  0  0  0  0  0  0  0
   36.5390   30.1190   49.1500 C   0  0  0  0  0  0  0  0  0  0  0  0
   35.7920   29.5190   50.1260 N   0  0  0  0  0  0  0  0  0  0  0  0
   36.1860   29.4730   51.4150 C   0  0  0  0  0  0  0  0  0  0  0  0
   37.3490   30.0330   51.7690 N   0  0  0  0  0  0  0  0  0  0  0  0
   39.0870   31.1250   51.0150 H   0  0  0  0  0  0  0  0  0  0  0  0
   38.3160   31.1640   48.7320 H   0  0  0  0  0  0  0  0  0  0  0  0
   35.5940   28.9990   52.1860 H   0  0  0  0  0  0  0  0  0  0  0  0
   35.9110   30.8600   42.0020 O   0  0  0  0  0  0  0  0  0  0  0  0
   36.4630   33.1620   41.4830 C   0  0  0  0  0  0  0  0  0  0  0  0
   36.7670   31.8070   41.5130 C   0  0  0  0  0  0  0  0  0  0  0  0
   38.0160   31.5120   41.0000 C   0  0  0  0  0  0  0  0  0  0  0  0
   38.3070   30.4520   41.0000 H   0  0  0  0  0  0  0  0  0  0  0  0
   38.9050   32.4390   40.4980 C   0  0  0  0  0  0  0  0  0  0  0  0
   39.8580   32.0670   40.1250 H   0  0  0  0  0  0  0  0  0  0  0  0
   38.5390   33.7640   40.4990 C   0  0  0  0  0  3  0  0  0  0  0  0
   37.3120   34.1330   40.9930 C   0  0  0  0  0  3  0  0  0  0  0  0
   34.1600   33.9670   42.3820 N   0  0  0  0  0  0  0  0  0  0  0  0
   35.1880   33.6120   41.9880 C   0  0  0  0  0  0  0  0  0  0  0  0
  1  2  1  0  0  0  0
  1 10  1  0  0  0  0
  2 16  1  0  0  0  0
  3 11  1  0  0  0  0
  3  2  2  0  0  0  0
  4  3  1  0  0  0  0
  5  4  1  0  0  0  0
  6  7  2  0  0  0  0
  6  5  1  0  0  0  0
  7  8  1  0  0  0  0
  8  4  2  0  0  0  0
  8  9  1  0  0  0  0
  9  1  2  0  0  0  0
 12  5  1  0  0  0  0
 13  9  1  0  0  0  0
 14 20  1  0  0  0  0
 14 19  1  0  0  0  0
 15 14  2  0  0  0  0
 16 15  1  0  0  0  0
 16 17  2  0  0  0  0
 17 18  1  0  0  0  0
 18 19  2  0  0  0  0
 18 22  1  0  0  0  0
 21 15  1  0  0  0  0
 23  6  1  0  0  0  0
 24 25  1  0  0  0  0
 24 33  1  0  0  0  0
 25 23  1  0  0  0  0
 26 27  1  0  0  0  0
 26 25  2  0  0  0  0
 28 30  2  0  0  0  0
 28 26  1  0  0  0  0
 29 28  1  0  0  0  0
 30 31  1  0  0  0  0
 31 24  2  0  0  0  0
 33 32  3  0  0  0  0
M  END
>  <minimizedAffinity>
-4.87875986

>  <minimizedRMSD>
3.76552606

$$$$
