
 OpenBabel03272503053D

 33 35  0  0  0  0  0  0  0  0999 V2000
   37.8790   29.8390   47.7490 F   0  0  0  0  0  0  0  0  0  0  0  0
   38.1270   31.1140   48.1570 C   0  0  0  0  0  0  0  0  0  0  0  0
   37.4410   31.6330   49.2300 C   0  0  0  0  0  0  0  0  0  0  0  0
   37.7340   32.9130   49.5890 C   0  0  0  0  0  0  0  0  0  0  0  0
   38.6670   33.6870   48.9360 C   0  0  0  0  0  0  0  0  0  0  0  0
   39.3450   33.1470   47.8600 C   0  0  0  0  0  0  0  0  0  0  0  0
   39.0710   31.8440   47.4670 C   0  0  0  0  0  0  0  0  0  0  0  0
   37.1940   33.3400   50.4430 H   0  0  0  0  0  0  0  0  0  0  0  0
   38.8690   34.7050   49.2670 H   0  0  0  0  0  0  0  0  0  0  0  0
   40.0880   33.7070   47.3080 H   0  0  0  0  0  0  0  0  0  0  0  0
   35.8240   29.1910   51.6310 C   0  0  0  0  0  0  0  0  0  0  0  0
   36.7870   30.0100   51.0100 C   0  0  0  0  0  0  0  0  0  0  0  0
   36.4570   30.7690   49.8990 C   0  0  0  0  0  0  0  0  0  0  0  0
   35.1780   30.6880   49.4440 N   0  0  0  0  0  0  0  0  0  0  0  0
   34.2690   29.9020   50.0470 C   0  0  0  0  0  0  0  0  0  0  0  0
   34.5750   29.1670   51.1140 N   0  0  0  0  0  0  0  0  0  0  0  0
   36.2790   28.6850   52.4730 H   0  0  0  0  0  0  0  0  0  0  0  0
   37.8270   30.1200   51.3270 H   0  0  0  0  0  0  0  0  0  0  0  0
   33.2490   29.7940   49.7360 H   0  0  0  0  0  0  0  0  0  0  0  0
   38.9450   31.1510   45.1690 C   0  0  0  0  0  0  0  0  0  0  0  0
   37.7470   31.6030   45.2850 O   0  0  0  0  0  0  0  0  0  0  0  0
   39.7530   31.2510   46.3600 N   0  0  0  0  0  0  0  0  0  0  0  0
   40.7060   30.8800   46.2350 H   0  0  0  0  0  0  0  0  0  0  0  0
   39.7430   31.5410   42.9570 C   0  0  0  0  0  0  0  0  0  0  0  0
   39.3120   30.6080   43.8700 C   0  0  0  0  0  0  0  0  0  0  0  0
   39.2240   29.2610   43.6020 C   0  0  0  0  0  0  0  0  0  0  0  0
   38.8830   28.5610   44.3390 H   0  0  0  0  0  0  0  0  0  0  0  0
   39.6110   28.9110   42.3060 C   0  0  0  0  0  0  0  0  0  0  0  0
   39.5680   27.8550   42.0270 H   0  0  0  0  0  0  0  0  0  0  0  0
   40.0410   29.8170   41.3770 C   0  0  0  0  0  3  0  0  0  0  0  0
   40.1220   31.1760   41.6780 C   0  0  0  0  0  3  0  0  0  0  0  0
   39.9090   34.0880   43.4980 N   0  0  0  0  0  0  0  0  0  0  0  0
   39.8320   32.9640   43.2490 C   0  0  0  0  0  0  0  0  0  0  0  0
  1  2  1  0  0  0  0
  2  3  1  0  0  0  0
  3  4  2  0  0  0  0
  3 13  1  0  0  0  0
  4  8  1  0  0  0  0
  5  9  1  0  0  0  0
  5  4  1  0  0  0  0
  6  5  2  0  0  0  0
  7  6  1  0  0  0  0
  7  2  2  0  0  0  0
 10  6  1  0  0  0  0
 11 17  1  0  0  0  0
 12 18  1  0  0  0  0
 12 11  2  0  0  0  0
 13 12  1  0  0  0  0
 14 13  2  0  0  0  0
 14 15  1  0  0  0  0
 15 16  2  0  0  0  0
 16 11  1  0  0  0  0
 19 15  1  0  0  0  0
 20 21  2  0  0  0  0
 20 22  1  0  0  0  0
 22  7  1  0  0  0  0
 23 22  1  0  0  0  0
 24 33  1  0  0  0  0
 24 25  1  0  0  0  0
 25 20  1  0  0  0  0
 26 25  2  0  0  0  0
 26 27  1  0  0  0  0
 28 26  1  0  0  0  0
 29 28  1  0  0  0  0
 30 31  1  0  0  0  0
 30 28  2  0  0  0  0
 31 24  2  0  0  0  0
 33 32  3  0  0  0  0
M  END
>  <minimizedAffinity>
-5.88925219

>  <minimizedRMSD>
1.40721357

$$$$
