
 OpenBabel03262523213D

 42 45  0  0  1  0  0  0  0  0999 V2000
   38.1650   32.2880   46.1630 C   0  0  0  0  0  0  0  0  0  0  0  0
   39.4640   32.4870   46.6180 C   0  0  0  0  0  0  0  0  0  0  0  0
   40.4690   32.6740   45.6830 C   0  0  0  0  0  0  0  0  0  0  0  0
   40.1520   32.6580   44.3650 N   0  0  0  0  0  0  0  0  0  0  0  0
   38.9350   32.4720   43.9300 C   0  0  0  0  0  0  0  0  0  0  0  0
   38.0310   32.3010   44.8570 N   0  0  0  0  0  0  0  0  0  0  0  0
   38.6510   32.4650   42.5490 N   0  0  0  0  0  0  0  0  0  0  0  0
   38.9590   33.6070   41.6800 C   0  0  0  0  0  0  0  0  0  0  0  0
   38.5880   33.1610   40.3270 C   0  0  0  0  0  0  0  0  0  0  0  0
   38.5110   31.6360   40.4350 C   0  0  0  0  0  0  0  0  0  0  0  0
   37.9860   31.4100   41.7700 C   0  0  1  0  0  0  0  0  0  0  0  0
   37.3370   32.1370   46.8180 H   0  0  0  0  0  0  0  0  0  0  0  0
   39.6770   32.4930   47.6840 H   0  0  0  0  0  0  0  0  0  0  0  0
   41.4810   32.8300   46.0580 H   0  0  0  0  0  0  0  0  0  0  0  0
   38.3130   34.4440   42.0080 H   0  0  0  0  0  0  0  0  0  0  0  0
   40.0160   33.9170   41.7860 H   0  0  0  0  0  0  0  0  0  0  0  0
   39.2860   33.5120   39.5540 H   0  0  0  0  0  0  0  0  0  0  0  0
   37.5970   33.6100   40.0390 H   0  0  0  0  0  0  0  0  0  0  0  0
   37.9020   31.4330   39.5850 H   0  0  0  0  0  0  0  0  0  0  0  0
   39.6020   31.4890   40.4510 H   0  0  0  0  0  0  0  0  0  0  0  0
   36.9230   31.7780   41.9190 H   0  0  0  0  0  0  0  0  0  0  0  0
   36.9170   29.2620   42.5570 C   0  0  0  0  0  0  0  0  0  0  0  0
   38.0290   30.0770   42.2920 C   0  0  0  0  0  0  0  0  0  0  0  0
   39.2170   29.3890   42.4980 C   0  0  0  0  0  0  0  0  0  0  0  0
   39.3290   28.0750   42.9020 C   0  0  0  0  0  0  0  0  0  0  0  0
   38.1490   27.3470   43.1390 C   0  0  0  0  0  0  0  0  0  0  0  0
   36.9060   27.9350   42.9700 C   0  0  0  0  0  0  0  0  0  0  0  0
   40.2120   29.7570   42.4650 H   0  0  0  0  0  0  0  0  0  0  0  0
   40.2070   27.4820   43.0750 H   0  0  0  0  0  0  0  0  0  0  0  0
   38.1290   26.3040   43.4600 H   0  0  0  0  0  0  0  0  0  0  0  0
   35.4630   26.1460   42.3030 C   0  0  0  0  0  0  0  0  0  0  0  0
   35.6930   27.1800   43.2170 C   0  0  0  0  0  0  0  0  0  0  0  0
   34.8030   27.4070   44.2390 C   0  0  0  0  0  0  0  0  0  0  0  0
   35.0290   28.2240   44.9230 H   0  0  0  0  0  0  0  0  0  0  0  0
   33.6770   26.6150   44.3680 C   0  0  0  0  0  0  0  0  0  0  0  0
   32.9870   26.8060   45.1780 H   0  0  0  0  0  0  0  0  0  0  0  0
   33.4910   25.6070   43.4430 C   0  0  0  0  0  3  0  0  0  0  0  0
   34.3570   25.3440   42.4030 C   0  0  0  0  0  3  0  0  0  0  0  0
   37.0960   25.6630   40.3270 N   0  0  0  0  0  0  0  0  0  0  0  0
   36.3740   25.8690   41.2080 C   0  0  0  0  0  0  0  0  0  0  0  0
   34.5790   30.3320   42.4250 N   0  0  0  0  0  0  0  0  0  0  0  0
   35.6080   29.8720   42.4780 C   0  0  0  0  0  0  0  0  0  0  0  0
  1  2  1  0  0  0  0
  1 12  1  0  0  0  0
  2 13  1  0  0  0  0
  3 14  1  0  0  0  0
  3  2  2  0  0  0  0
  4  3  1  0  0  0  0
  5  4  2  0  0  0  0
  5  6  1  0  0  0  0
  6  1  2  0  0  0  0
  7  5  1  0  0  0  0
  8 16  1  0  0  0  0
  8 15  1  0  0  0  0
  8  7  1  0  0  0  0
  9 10  1  0  0  0  0
  9  8  1  0  0  0  0
 10 20  1  0  0  0  0
 10 11  1  0  0  0  0
 11 21  1  6  0  0  0
 11 23  1  0  0  0  0
 11  7  1  0  0  0  0
 17  9  1  0  0  0  0
 18  9  1  0  0  0  0
 19 10  1  0  0  0  0
 22 27  1  0  0  0  0
 23 24  1  0  0  0  0
 23 22  2  0  0  0  0
 24 25  2  0  0  0  0
 25 29  1  0  0  0  0
 25 26  1  0  0  0  0
 26 30  1  0  0  0  0
 27 26  2  0  0  0  0
 27 32  1  0  0  0  0
 28 24  1  0  0  0  0
 31 38  2  0  0  0  0
 31 32  1  0  0  0  0
 32 33  2  0  0  0  0
 33 35  1  0  0  0  0
 33 34  1  0  0  0  0
 35 36  1  0  0  0  0
 37 35  2  0  0  0  0
 38 37  1  0  0  0  0
 39 40  3  0  0  0  0
 40 31  1  0  0  0  0
 41 42  3  0  0  0  0
 42 22  1  0  0  0  0
M  END
>  <minimizedAffinity>
-3.63578105

>  <minimizedRMSD>
7.41590929

$$$$
