
 OpenBabel03272501573D

 32 34  0  0  0  0  0  0  0  0999 V2000
   32.9480   28.3590   47.8740 C   0  0  0  0  0  0  0  0  0  0  0  0
   32.2140   27.6140   48.7540 C   0  0  0  0  0  0  0  0  0  0  0  0
   30.9040   27.5440   48.3460 C   0  0  0  0  0  0  0  0  0  0  0  0
   30.8620   28.2590   47.2050 N   0  0  0  0  0  0  0  0  0  0  0  0
   32.0800   28.7410   46.9310 N   0  0  0  0  0  0  0  0  0  0  0  0
   32.5990   27.1320   49.6630 H   0  0  0  0  0  0  0  0  0  0  0  0
   30.0400   27.0540   48.7740 H   0  0  0  0  0  0  0  0  0  0  0  0
   29.5490   27.8670   45.1530 C   0  0  0  0  0  0  0  0  0  0  0  0
   29.7810   28.5540   46.3170 C   0  0  0  0  0  0  0  0  0  0  0  0
   28.8900   29.5880   46.6100 C   0  0  0  0  0  0  0  0  0  0  0  0
   29.0910   30.1190   47.5350 H   0  0  0  0  0  0  0  0  0  0  0  0
   27.8160   29.9580   45.8270 C   0  0  0  0  0  0  0  0  0  0  0  0
   27.2170   30.7810   46.1880 H   0  0  0  0  0  0  0  0  0  0  0  0
   27.6110   29.2430   44.6580 C   0  0  0  0  0  3  0  0  0  0  0  0
   28.4880   28.2030   44.3420 C   0  0  0  0  0  3  0  0  0  0  0  0
   31.0840   25.9320   44.4590 N   0  0  0  0  0  0  0  0  0  0  0  0
   30.4030   26.8030   44.7770 C   0  0  0  0  0  0  0  0  0  0  0  0
   34.4210   28.6790   47.9520 C   0  0  0  0  0  0  0  0  0  0  0  0
   34.5360   29.7440   47.7630 H   0  0  0  0  0  0  0  0  0  0  0  0
   34.9460   28.0820   47.1810 H   0  0  0  0  0  0  0  0  0  0  0  0
   34.8390   28.3150   49.3540 C   0  0  0  0  0  0  0  0  0  0  0  0
   35.2290   27.2680   49.3870 H   0  0  0  0  0  0  0  0  0  0  0  0
   34.0110   28.3510   50.0910 H   0  0  0  0  0  0  0  0  0  0  0  0
   37.2650   30.1780   51.4260 C   0  0  0  0  0  0  0  0  0  0  0  0
   38.0970   30.7680   50.4590 C   0  0  0  0  0  0  0  0  0  0  0  0
   37.8140   30.5200   49.1130 C   0  0  0  0  0  0  0  0  0  0  0  0
   36.7560   29.7240   48.8000 N   0  0  0  0  0  0  0  0  0  0  0  0
   35.9820   29.1770   49.7710 C   0  0  0  0  0  0  0  0  0  0  0  0
   36.2450   29.4090   51.0560 N   0  0  0  0  0  0  0  0  0  0  0  0
   37.5530   30.4210   52.4360 H   0  0  0  0  0  0  0  0  0  0  0  0
   38.9510   31.4070   50.5880 H   0  0  0  0  0  0  0  0  0  0  0  0
   38.3590   30.9010   48.2590 H   0  0  0  0  0  0  0  0  0  0  0  0
  1 18  1  0  0  0  0
  1  2  1  0  0  0  0
  2  6  1  0  0  0  0
  3  2  2  0  0  0  0
  3  7  1  0  0  0  0
  4  3  1  0  0  0  0
  5  4  1  0  0  0  0
  5  1  2  0  0  0  0
  8  9  1  0  0  0  0
  9 10  2  0  0  0  0
  9  4  1  0  0  0  0
 10 11  1  0  0  0  0
 12 13  1  0  0  0  0
 12 10  1  0  0  0  0
 14 12  2  0  0  0  0
 15 14  1  0  0  0  0
 15  8  2  0  0  0  0
 16 17  3  0  0  0  0
 17  8  1  0  0  0  0
 18 21  1  0  0  0  0
 19 18  1  0  0  0  0
 20 18  1  0  0  0  0
 21 22  1  0  0  0  0
 21 28  1  0  0  0  0
 21 23  1  0  0  0  0
 24 30  1  0  0  0  0
 25 31  1  0  0  0  0
 25 24  2  0  0  0  0
 26 25  1  0  0  0  0
 27 26  2  0  0  0  0
 27 28  1  0  0  0  0
 28 29  2  0  0  0  0
 29 24  1  0  0  0  0
 32 26  1  0  0  0  0
M  END
>  <minimizedAffinity>
-4.58401632

>  <minimizedRMSD>
0.784291625

$$$$
