
 OpenBabel03272507553D

 24 25  0  0  0  0  0  0  0  0999 V2000
   35.3920   29.2500   50.6410 C   0  0  0  0  0  0  0  0  0  0  0  0
   36.2950   29.9740   49.8000 C   0  0  0  0  0  0  0  0  0  0  0  0
   36.2700   29.7490   48.4330 C   0  0  0  0  0  0  0  0  0  0  0  0
   35.3580   28.8250   47.9730 N   0  0  0  0  0  0  0  0  0  0  0  0
   34.5190   28.1550   48.7920 C   0  0  0  0  0  0  0  0  0  0  0  0
   34.5240   28.3590   50.1190 N   0  0  0  0  0  0  0  0  0  0  0  0
   33.7060   27.2310   48.1190 N   0  0  0  0  0  0  0  0  0  0  0  0
   35.4160   29.4310   51.7200 H   0  0  0  0  0  0  0  0  0  0  0  0
   33.2740   27.3280   47.2030 H   0  0  0  0  0  0  0  0  0  0  0  0
   33.4740   26.3040   48.5670 H   0  0  0  0  0  0  0  0  0  0  0  0
   36.7150   30.7610   46.1920 C   0  0  0  0  0  0  0  0  0  0  0  0
   37.1140   30.4750   47.5020 C   0  0  0  0  0  0  0  0  0  0  0  0
   38.3890   30.8840   47.8160 C   0  0  0  0  0  0  0  0  0  0  0  0
   38.8820   30.7230   48.7580 H   0  0  0  0  0  0  0  0  0  0  0  0
   39.2380   31.5310   46.9340 C   0  0  0  0  0  0  0  0  0  0  0  0
   40.2370   31.8670   47.1370 H   0  0  0  0  0  0  0  0  0  0  0  0
   38.7760   31.7880   45.6420 C   0  0  0  0  0  3  0  0  0  0  0  0
   37.4990   31.4030   45.2520 C   0  0  0  0  0  3  0  0  0  0  0  0
   34.3130   30.0490   45.4960 N   0  0  0  0  0  0  0  0  0  0  0  0
   35.3890   30.3580   45.8050 C   0  0  0  0  0  0  0  0  0  0  0  0
   37.2220   30.9510   50.4480 C   0  0  0  0  0  0  0  0  0  0  0  0
   38.5230   30.7230   50.0580 F   0  0  0  0  0  0  0  0  0  0  0  0
   36.8490   32.2130   50.0680 F   0  0  0  0  0  0  0  0  0  0  0  0
   37.1820   30.8900   51.8300 F   0  0  0  0  0  0  0  0  0  0  0  0
  1  8  1  0  0  0  0
  2 21  1  0  0  0  0
  2  1  2  0  0  0  0
  3  2  1  0  0  0  0
  4  3  2  0  0  0  0
  4  5  1  0  0  0  0
  5  6  2  0  0  0  0
  6  1  1  0  0  0  0
  7 10  1  0  0  0  0
  7  5  1  0  0  0  0
  9  7  1  0  0  0  0
 11 12  1  0  0  0  0
 12 13  2  0  0  0  0
 12  3  1  0  0  0  0
 13 14  1  0  0  0  0
 15 16  1  0  0  0  0
 15 13  1  0  0  0  0
 17 15  2  0  0  0  0
 18 17  1  0  0  0  0
 18 11  2  0  0  0  0
 19 20  3  0  0  0  0
 20 11  1  0  0  0  0
 21 24  1  0  0  0  0
 22 21  1  0  0  0  0
 23 21  1  0  0  0  0
M  END
>  <minimizedAffinity>
-5.43770027

>  <minimizedRMSD>
1.31714702

$$$$
