
 OpenBabel03272501573D

 32 34  0  0  0  0  0  0  0  0999 V2000
   32.8460   28.3230   47.9710 C   0  0  0  0  0  0  0  0  0  0  0  0
   32.1520   27.7460   48.9980 C   0  0  0  0  0  0  0  0  0  0  0  0
   30.8260   27.6160   48.6660 C   0  0  0  0  0  0  0  0  0  0  0  0
   30.7320   28.1240   47.4220 N   0  0  0  0  0  0  0  0  0  0  0  0
   31.9370   28.5430   47.0150 N   0  0  0  0  0  0  0  0  0  0  0  0
   32.5770   27.4250   49.9580 H   0  0  0  0  0  0  0  0  0  0  0  0
   29.9810   27.2140   49.2090 H   0  0  0  0  0  0  0  0  0  0  0  0
   29.0980   27.2400   45.7980 C   0  0  0  0  0  0  0  0  0  0  0  0
   29.6130   28.2690   46.5440 C   0  0  0  0  0  0  0  0  0  0  0  0
   28.9820   29.5070   46.4070 C   0  0  0  0  0  0  0  0  0  0  0  0
   29.4050   30.3070   47.0050 H   0  0  0  0  0  0  0  0  0  0  0  0
   27.8980   29.7600   45.5910 C   0  0  0  0  0  0  0  0  0  0  0  0
   27.5190   30.7720   45.5930 H   0  0  0  0  0  0  0  0  0  0  0  0
   27.4020   28.6980   44.8520 C   0  0  0  0  0  3  0  0  0  0  0  0
   28.0160   27.4510   44.9710 C   0  0  0  0  0  3  0  0  0  0  0  0
   30.1310   24.8960   45.9280 N   0  0  0  0  0  0  0  0  0  0  0  0
   29.6760   25.9520   45.8750 C   0  0  0  0  0  0  0  0  0  0  0  0
   34.3210   28.6410   47.9280 C   0  0  0  0  0  0  0  0  0  0  0  0
   34.4210   29.7120   47.7700 H   0  0  0  0  0  0  0  0  0  0  0  0
   34.7730   28.0740   47.0920 H   0  0  0  0  0  0  0  0  0  0  0  0
   34.8630   28.2240   49.2720 C   0  0  0  0  0  0  0  0  0  0  0  0
   35.3150   27.2030   49.2120 H   0  0  0  0  0  0  0  0  0  0  0  0
   34.0910   28.1650   50.0670 H   0  0  0  0  0  0  0  0  0  0  0  0
   37.2530   30.1980   51.2820 C   0  0  0  0  0  0  0  0  0  0  0  0
   38.0480   30.8040   50.2950 C   0  0  0  0  0  0  0  0  0  0  0  0
   37.7530   30.5300   48.9570 C   0  0  0  0  0  0  0  0  0  0  0  0
   36.7200   29.6930   48.6700 N   0  0  0  0  0  0  0  0  0  0  0  0
   35.9800   29.1310   49.6610 C   0  0  0  0  0  0  0  0  0  0  0  0
   36.2550   29.3880   50.9390 N   0  0  0  0  0  0  0  0  0  0  0  0
   37.5480   30.4630   52.2850 H   0  0  0  0  0  0  0  0  0  0  0  0
   38.8800   31.4750   50.4030 H   0  0  0  0  0  0  0  0  0  0  0  0
   38.2710   30.9190   48.0900 H   0  0  0  0  0  0  0  0  0  0  0  0
  1  2  1  0  0  0  0
  2  6  1  0  0  0  0
  3  2  2  0  0  0  0
  3  7  1  0  0  0  0
  4  3  1  0  0  0  0
  5  4  1  0  0  0  0
  5  1  2  0  0  0  0
  8 17  1  0  0  0  0
  8  9  1  0  0  0  0
  9  4  1  0  0  0  0
 10  9  2  0  0  0  0
 10 11  1  0  0  0  0
 12 13  1  0  0  0  0
 12 10  1  0  0  0  0
 14 15  1  0  0  0  0
 14 12  2  0  0  0  0
 15  8  2  0  0  0  0
 17 16  3  0  0  0  0
 18  1  1  0  0  0  0
 18 21  1  0  0  0  0
 19 18  1  0  0  0  0
 20 18  1  0  0  0  0
 21 28  1  0  0  0  0
 21 23  1  0  0  0  0
 22 21  1  0  0  0  0
 24 30  1  0  0  0  0
 25 31  1  0  0  0  0
 25 24  2  0  0  0  0
 26 25  1  0  0  0  0
 27 26  2  0  0  0  0
 27 28  1  0  0  0  0
 28 29  2  0  0  0  0
 29 24  1  0  0  0  0
 32 26  1  0  0  0  0
M  END
>  <minimizedAffinity>
-4.68823719

>  <minimizedRMSD>
1.1075505

$$$$
