
 OpenBabel03272503053D

 33 35  0  0  0  0  0  0  0  0999 V2000
   38.3280   30.5410   46.9020 F   0  0  0  0  0  0  0  0  0  0  0  0
   38.7460   31.7270   47.4240 C   0  0  0  0  0  0  0  0  0  0  0  0
   38.3480   32.0940   48.6890 C   0  0  0  0  0  0  0  0  0  0  0  0
   38.7980   33.2910   49.1540 C   0  0  0  0  0  0  0  0  0  0  0  0
   39.6150   34.1260   48.4260 C   0  0  0  0  0  0  0  0  0  0  0  0
   40.0040   33.7400   47.1580 C   0  0  0  0  0  0  0  0  0  0  0  0
   39.5620   32.5250   46.6520 C   0  0  0  0  0  0  0  0  0  0  0  0
   38.4880   33.5960   50.1610 H   0  0  0  0  0  0  0  0  0  0  0  0
   39.9540   35.0720   48.8480 H   0  0  0  0  0  0  0  0  0  0  0  0
   40.6440   34.3540   46.5400 H   0  0  0  0  0  0  0  0  0  0  0  0
   37.0900   29.5450   51.1920 C   0  0  0  0  0  0  0  0  0  0  0  0
   37.9460   30.4240   50.5000 C   0  0  0  0  0  0  0  0  0  0  0  0
   37.4770   31.1690   49.4300 C   0  0  0  0  0  0  0  0  0  0  0  0
   36.1710   31.0150   49.0860 N   0  0  0  0  0  0  0  0  0  0  0  0
   35.3650   30.1720   49.7560 C   0  0  0  0  0  0  0  0  0  0  0  0
   35.8050   29.4500   50.7850 N   0  0  0  0  0  0  0  0  0  0  0  0
   37.6450   29.0620   51.9860 H   0  0  0  0  0  0  0  0  0  0  0  0
   39.0020   30.5930   50.7270 H   0  0  0  0  0  0  0  0  0  0  0  0
   34.3300   30.0060   49.5330 H   0  0  0  0  0  0  0  0  0  0  0  0
   38.9460   32.3460   44.3360 C   0  0  0  0  0  0  0  0  0  0  0  0
   37.8750   32.9170   44.7620 O   0  0  0  0  0  0  0  0  0  0  0  0
   39.9440   32.0900   45.3450 N   0  0  0  0  0  0  0  0  0  0  0  0
   40.7880   31.6320   44.9720 H   0  0  0  0  0  0  0  0  0  0  0  0
   39.0280   30.7000   42.6110 C   0  0  0  0  0  0  0  0  0  0  0  0
   38.9970   32.0410   42.9140 C   0  0  0  0  0  0  0  0  0  0  0  0
   39.0170   33.0390   41.9660 C   0  0  0  0  0  0  0  0  0  0  0  0
   38.9940   34.0760   42.2380 H   0  0  0  0  0  0  0  0  0  0  0  0
   39.0730   32.5730   40.6500 C   0  0  0  0  0  0  0  0  0  0  0  0
   39.0870   33.3130   39.8450 H   0  0  0  0  0  0  0  0  0  0  0  0
   39.1050   31.2480   40.3200 C   0  0  0  0  0  3  0  0  0  0  0  0
   39.0830   30.2580   41.3030 C   0  0  0  0  0  3  0  0  0  0  0  0
   38.9810   28.8330   44.4330 N   0  0  0  0  0  0  0  0  0  0  0  0
   39.0090   29.6520   43.6220 C   0  0  0  0  0  0  0  0  0  0  0  0
  1  2  1  0  0  0  0
  2  3  1  0  0  0  0
  3  4  2  0  0  0  0
  3 13  1  0  0  0  0
  4  8  1  0  0  0  0
  5  9  1  0  0  0  0
  5  4  1  0  0  0  0
  6  5  2  0  0  0  0
  7  6  1  0  0  0  0
  7  2  2  0  0  0  0
 10  6  1  0  0  0  0
 11 17  1  0  0  0  0
 12 18  1  0  0  0  0
 12 11  2  0  0  0  0
 13 12  1  0  0  0  0
 14 13  2  0  0  0  0
 14 15  1  0  0  0  0
 15 16  2  0  0  0  0
 16 11  1  0  0  0  0
 19 15  1  0  0  0  0
 20 21  2  0  0  0  0
 20 22  1  0  0  0  0
 22  7  1  0  0  0  0
 23 22  1  0  0  0  0
 24 25  1  0  0  0  0
 24 33  1  0  0  0  0
 25 20  1  0  0  0  0
 26 27  1  0  0  0  0
 26 25  2  0  0  0  0
 28 26  1  0  0  0  0
 29 28  1  0  0  0  0
 30 28  2  0  0  0  0
 30 31  1  0  0  0  0
 31 24  2  0  0  0  0
 33 32  3  0  0  0  0
M  END
>  <minimizedAffinity>
-5.85443211

>  <minimizedRMSD>
0.511876225

$$$$
