
 OpenBabel03262520143D

 43 45  0  0  0  0  0  0  0  0999 V2000
   37.8890   27.5210   32.4440 C   0  0  0  0  0  0  0  0  0  0  0  0
   38.8610   27.8130   31.9460 H   0  0  0  0  0  0  0  0  0  0  0  0
   37.8060   28.1980   33.3270 H   0  0  0  0  0  0  0  0  0  0  0  0
   38.4820   27.1280   35.5220 Br  0  0  0  0  0  0  0  0  0  0  0  0
   38.1630   25.7540   34.2070 C   0  0  0  0  0  0  0  0  0  0  0  0
   38.1780   24.4300   34.5660 C   0  0  0  0  0  0  0  0  0  0  0  0
   37.9550   23.4970   33.5900 C   0  0  0  0  0  0  0  0  0  0  0  0
   37.7180   23.8480   32.2680 C   0  0  0  0  0  0  0  0  0  0  0  0
   37.7120   25.2090   31.9450 C   0  0  0  0  0  0  0  0  0  0  0  0
   37.9330   26.1420   32.9180 C   0  0  0  0  0  0  0  0  0  0  0  0
   37.9780   22.4510   33.9350 H   0  0  0  0  0  0  0  0  0  0  0  0
   37.5640   22.9990   31.6370 H   0  0  0  0  0  0  0  0  0  0  0  0
   37.5300   25.2620   30.8990 H   0  0  0  0  0  0  0  0  0  0  0  0
   39.8700   22.9620   37.4520 C   0  0  0  0  0  0  0  0  0  0  0  0
   38.9680   23.2250   38.5370 C   0  0  0  0  0  0  0  0  0  0  0  0
   37.8110   23.8970   38.2350 C   0  0  0  0  0  0  0  0  0  0  0  0
   37.5490   24.2920   36.9400 N   0  0  0  0  0  0  0  0  0  0  0  0
   38.4290   24.0210   35.9550 C   0  0  0  0  0  0  0  0  0  0  0  0
   39.5570   23.3690   36.2360 N   0  0  0  0  0  0  0  0  0  0  0  0
   40.7960   22.4350   37.6370 H   0  0  0  0  0  0  0  0  0  0  0  0
   39.2660   22.8770   39.4940 H   0  0  0  0  0  0  0  0  0  0  0  0
   37.1170   24.1070   39.0350 H   0  0  0  0  0  0  0  0  0  0  0  0
   36.8060   27.8790   31.4960 C   0  0  0  0  0  0  0  0  0  0  0  0
   36.8110   27.2900   30.5990 H   0  0  0  0  0  0  0  0  0  0  0  0
   37.1120   28.9210   31.1250 H   0  0  0  0  0  0  0  0  0  0  0  0
   35.6080   28.1080   32.2140 N   0  0  0  0  0  0  0  0  0  0  0  0
   34.7610   27.7840   31.7010 H   0  0  0  0  0  0  0  0  0  0  0  0
   35.3910   29.4100   32.7340 C   0  0  0  0  0  0  0  0  0  0  0  0
   35.3120   30.1690   31.9330 H   0  0  0  0  0  0  0  0  0  0  0  0
   36.2530   29.7400   33.3610 H   0  0  0  0  0  0  0  0  0  0  0  0
   34.1460   29.3860   33.5640 C   0  0  0  0  0  0  0  0  0  0  0  0
   33.2940   29.9090   33.0710 H   0  0  0  0  0  0  0  0  0  0  0  0
   33.8740   28.4920   34.0930 H   0  0  0  0  0  0  0  0  0  0  0  0
   33.4450   30.7190   35.5580 C   0  0  0  0  0  0  0  0  0  0  0  0
   34.4840   30.3390   34.7200 C   0  0  0  0  0  0  0  0  0  0  0  0
   35.7460   30.8330   34.9640 C   0  0  0  0  0  0  0  0  0  0  0  0
   36.5370   30.5220   34.2970 H   0  0  0  0  0  0  0  0  0  0  0  0
   35.9050   31.6800   36.0300 C   0  0  0  0  0  0  0  0  0  0  0  0
   36.8920   32.0770   36.2360 H   0  0  0  0  0  0  0  0  0  0  0  0
   34.8860   32.0650   36.8690 C   0  0  0  0  0  3  0  0  0  0  0  0
   33.6190   31.5720   36.6290 C   0  0  0  0  0  3  0  0  0  0  0  0
   31.0150   29.8710   35.2200 N   0  0  0  0  0  0  0  0  0  0  0  0
   32.0980   30.2390   35.3650 C   0  0  0  0  0  0  0  0  0  0  0  0
  1 10  1  0  0  0  0
  1  3  1  0  0  0  0
  2  1  1  0  0  0  0
  5  6  1  0  0  0  0
  5  4  1  0  0  0  0
  6 18  1  0  0  0  0
  7 11  1  0  0  0  0
  7  6  2  0  0  0  0
  8  7  1  0  0  0  0
  9  8  2  0  0  0  0
  9 10  1  0  0  0  0
 10  5  2  0  0  0  0
 12  8  1  0  0  0  0
 13  9  1  0  0  0  0
 14 20  1  0  0  0  0
 14 15  1  0  0  0  0
 15 21  1  0  0  0  0
 16 15  2  0  0  0  0
 16 22  1  0  0  0  0
 17 16  1  0  0  0  0
 18 19  1  0  0  0  0
 18 17  2  0  0  0  0
 19 14  2  0  0  0  0
 23 26  1  0  0  0  0
 23  1  1  0  0  0  0
 24 23  1  0  0  0  0
 25 23  1  0  0  0  0
 26 28  1  0  0  0  0
 27 26  1  0  0  0  0
 28 30  1  0  0  0  0
 28 31  1  0  0  0  0
 29 28  1  0  0  0  0
 31 33  1  0  0  0  0
 31 35  1  0  0  0  0
 32 31  1  0  0  0  0
 34 41  1  0  0  0  0
 35 36  1  0  0  0  0
 35 34  2  0  0  0  0
 36 38  2  0  0  0  0
 37 36  1  0  0  0  0
 38 39  1  0  0  0  0
 38 40  1  0  0  0  0
 41 40  2  0  0  0  0
 42 43  3  0  0  0  0
 43 34  1  0  0  0  0
M  END
>  <minimizedAffinity>
-5.74533606

$$$$

 OpenBabel03262520143D

 43 45  0  0  0  0  0  0  0  0999 V2000
   37.4040   27.8120   32.6250 C   0  0  0  0  0  0  0  0  0  0  0  0
   38.3190   28.2040   32.0900 H   0  0  0  0  0  0  0  0  0  0  0  0
   37.3670   28.3820   33.5830 H   0  0  0  0  0  0  0  0  0  0  0  0
   38.5170   27.1160   35.4990 Br  0  0  0  0  0  0  0  0  0  0  0  0
   37.9900   25.8780   34.1160 C   0  0  0  0  0  0  0  0  0  0  0  0
   38.0790   24.5240   34.3230 C   0  0  0  0  0  0  0  0  0  0  0  0
   37.7010   23.6940   33.3040 C   0  0  0  0  0  0  0  0  0  0  0  0
   37.2380   24.1740   32.0860 C   0  0  0  0  0  0  0  0  0  0  0  0
   37.1650   25.5610   31.9170 C   0  0  0  0  0  0  0  0  0  0  0  0
   37.5410   26.3930   32.9340 C   0  0  0  0  0  0  0  0  0  0  0  0
   37.7920   22.6180   33.5250 H   0  0  0  0  0  0  0  0  0  0  0  0
   36.9870   23.3920   31.4030 H   0  0  0  0  0  0  0  0  0  0  0  0
   36.8060   25.7170   30.9290 H   0  0  0  0  0  0  0  0  0  0  0  0
   40.3440   23.0170   36.7600 C   0  0  0  0  0  0  0  0  0  0  0  0
   39.5510   22.9470   37.9540 C   0  0  0  0  0  0  0  0  0  0  0  0
   38.2660   23.4190   37.8760 C   0  0  0  0  0  0  0  0  0  0  0  0
   37.7810   23.9360   36.6920 N   0  0  0  0  0  0  0  0  0  0  0  0
   38.5660   23.9800   35.5980 C   0  0  0  0  0  0  0  0  0  0  0  0
   39.8180   23.5230   35.6610 N   0  0  0  0  0  0  0  0  0  0  0  0
   41.3640   22.6570   36.7690 H   0  0  0  0  0  0  0  0  0  0  0  0
   40.0210   22.5310   38.8090 H   0  0  0  0  0  0  0  0  0  0  0  0
   37.6490   23.3770   38.7610 H   0  0  0  0  0  0  0  0  0  0  0  0
   36.2330   28.2200   31.8110 C   0  0  0  0  0  0  0  0  0  0  0  0
   36.0300   27.5570   30.9920 H   0  0  0  0  0  0  0  0  0  0  0  0
   36.5940   29.1760   31.2880 H   0  0  0  0  0  0  0  0  0  0  0  0
   35.1970   28.6660   32.6660 N   0  0  0  0  0  0  0  0  0  0  0  0
   34.5030   29.2720   32.1780 H   0  0  0  0  0  0  0  0  0  0  0  0
   35.5710   29.2550   33.9010 C   0  0  0  0  0  0  0  0  0  0  0  0
   36.6180   29.0190   34.1730 H   0  0  0  0  0  0  0  0  0  0  0  0
   34.9560   28.8510   34.7390 H   0  0  0  0  0  0  0  0  0  0  0  0
   35.3730   30.7350   33.7980 C   0  0  0  0  0  0  0  0  0  0  0  0
   36.3130   31.3060   33.9800 H   0  0  0  0  0  0  0  0  0  0  0  0
   34.7510   31.1370   33.0200 H   0  0  0  0  0  0  0  0  0  0  0  0
   35.0130   32.0800   35.8720 C   0  0  0  0  0  0  0  0  0  0  0  0
   34.5490   31.0610   35.0530 C   0  0  0  0  0  0  0  0  0  0  0  0
   33.3940   30.4000   35.4050 C   0  0  0  0  0  0  0  0  0  0  0  0
   33.0550   29.6110   34.7500 H   0  0  0  0  0  0  0  0  0  0  0  0
   32.7610   30.7920   36.5560 C   0  0  0  0  0  0  0  0  0  0  0  0
   31.8500   30.2830   36.8470 H   0  0  0  0  0  0  0  0  0  0  0  0
   33.2070   31.8000   37.3780 C   0  0  0  0  0  3  0  0  0  0  0  0
   34.3650   32.4650   37.0290 C   0  0  0  0  0  3  0  0  0  0  0  0
   37.1780   33.4080   35.3380 N   0  0  0  0  0  0  0  0  0  0  0  0
   36.2150   32.8170   35.5650 C   0  0  0  0  0  0  0  0  0  0  0  0
  1 10  1  0  0  0  0
  1  3  1  0  0  0  0
  2  1  1  0  0  0  0
  5  6  1  0  0  0  0
  5  4  1  0  0  0  0
  6 18  1  0  0  0  0
  7 11  1  0  0  0  0
  7  6  2  0  0  0  0
  8  7  1  0  0  0  0
  9  8  2  0  0  0  0
  9 10  1  0  0  0  0
 10  5  2  0  0  0  0
 12  8  1  0  0  0  0
 13  9  1  0  0  0  0
 14 20  1  0  0  0  0
 14 15  1  0  0  0  0
 15 21  1  0  0  0  0
 16 15  2  0  0  0  0
 16 22  1  0  0  0  0
 17 16  1  0  0  0  0
 18 19  1  0  0  0  0
 18 17  2  0  0  0  0
 19 14  2  0  0  0  0
 23  1  1  0  0  0  0
 23 26  1  0  0  0  0
 24 23  1  0  0  0  0
 25 23  1  0  0  0  0
 26 28  1  0  0  0  0
 27 26  1  0  0  0  0
 28 29  1  0  0  0  0
 28 30  1  0  0  0  0
 31 28  1  0  0  0  0
 31 32  1  0  0  0  0
 31 35  1  0  0  0  0
 33 31  1  0  0  0  0
 34 41  1  0  0  0  0
 35 36  1  0  0  0  0
 35 34  2  0  0  0  0
 36 38  2  0  0  0  0
 37 36  1  0  0  0  0
 38 39  1  0  0  0  0
 38 40  1  0  0  0  0
 41 40  2  0  0  0  0
 42 43  3  0  0  0  0
 43 34  1  0  0  0  0
M  END
>  <minimizedAffinity>
-5.6259737

$$$$

 OpenBabel03262520143D

 43 45  0  0  0  0  0  0  0  0999 V2000
   37.4310   27.3160   31.5820 C   0  0  0  0  0  0  0  0  0  0  0  0
   38.0120   27.0310   32.5090 H   0  0  0  0  0  0  0  0  0  0  0  0
   38.2060   27.4690   30.7940 H   0  0  0  0  0  0  0  0  0  0  0  0
   36.5820   27.9880   34.5500 Br  0  0  0  0  0  0  0  0  0  0  0  0
   36.2660   29.0520   32.9730 C   0  0  0  0  0  0  0  0  0  0  0  0
   35.6040   30.2510   33.0640 C   0  0  0  0  0  0  0  0  0  0  0  0
   35.3990   30.9590   31.9110 C   0  0  0  0  0  0  0  0  0  0  0  0
   35.8350   30.5070   30.6730 C   0  0  0  0  0  0  0  0  0  0  0  0
   36.5050   29.2800   30.6260 C   0  0  0  0  0  0  0  0  0  0  0  0
   36.7120   28.5710   31.7760 C   0  0  0  0  0  0  0  0  0  0  0  0
   34.8630   31.9130   32.0430 H   0  0  0  0  0  0  0  0  0  0  0  0
   35.5930   31.1800   29.8790 H   0  0  0  0  0  0  0  0  0  0  0  0
   36.7380   29.1120   29.6020 H   0  0  0  0  0  0  0  0  0  0  0  0
   33.3590   30.8880   35.8740 C   0  0  0  0  0  0  0  0  0  0  0  0
   34.1580   31.6780   36.7670 C   0  0  0  0  0  0  0  0  0  0  0  0
   35.4400   31.9620   36.3690 C   0  0  0  0  0  0  0  0  0  0  0  0
   35.9160   31.4980   35.1600 N   0  0  0  0  0  0  0  0  0  0  0  0
   35.1250   30.7590   34.3560 C   0  0  0  0  0  0  0  0  0  0  0  0
   33.8770   30.4770   34.7320 N   0  0  0  0  0  0  0  0  0  0  0  0
   32.3410   30.6370   36.1410 H   0  0  0  0  0  0  0  0  0  0  0  0
   33.6940   31.9830   37.6710 H   0  0  0  0  0  0  0  0  0  0  0  0
   36.0610   32.5540   37.0240 H   0  0  0  0  0  0  0  0  0  0  0  0
   36.6310   26.1260   31.2040 C   0  0  0  0  0  0  0  0  0  0  0  0
   35.6510   26.3680   30.8390 H   0  0  0  0  0  0  0  0  0  0  0  0
   36.4150   25.6200   32.2110 H   0  0  0  0  0  0  0  0  0  0  0  0
   37.4570   25.2000   30.5230 N   0  0  0  0  0  0  0  0  0  0  0  0
   37.5370   25.4030   29.5040 H   0  0  0  0  0  0  0  0  0  0  0  0
   37.2010   23.8190   30.7230 C   0  0  0  0  0  0  0  0  0  0  0  0
   37.8920   23.1800   30.1400 H   0  0  0  0  0  0  0  0  0  0  0  0
   36.1810   23.5450   30.3650 H   0  0  0  0  0  0  0  0  0  0  0  0
   37.3170   23.5240   32.1860 C   0  0  0  0  0  0  0  0  0  0  0  0
   38.3350   23.1750   32.4720 H   0  0  0  0  0  0  0  0  0  0  0  0
   36.8520   24.1780   32.9010 H   0  0  0  0  0  0  0  0  0  0  0  0
   36.6420   21.5220   33.5200 C   0  0  0  0  0  0  0  0  0  0  0  0
   36.4800   22.2460   32.3470 C   0  0  0  0  0  0  0  0  0  0  0  0
   35.5940   21.7840   31.4000 C   0  0  0  0  0  0  0  0  0  0  0  0
   35.4870   22.3660   30.4970 H   0  0  0  0  0  0  0  0  0  0  0  0
   34.9150   20.6250   31.6730 C   0  0  0  0  0  0  0  0  0  0  0  0
   34.2130   20.2480   30.9380 H   0  0  0  0  0  0  0  0  0  0  0  0
   35.0640   19.8970   32.8300 C   0  0  0  0  0  3  0  0  0  0  0  0
   35.9510   20.3560   33.7820 C   0  0  0  0  0  3  0  0  0  0  0  0
   38.2770   22.3030   35.3780 N   0  0  0  0  0  0  0  0  0  0  0  0
   37.5500   21.9460   34.5570 C   0  0  0  0  0  0  0  0  0  0  0  0
  1 10  1  0  0  0  0
  1  2  1  0  0  0  0
  3  1  1  0  0  0  0
  5  6  1  0  0  0  0
  5  4  1  0  0  0  0
  6 18  1  0  0  0  0
  7 11  1  0  0  0  0
  7  6  2  0  0  0  0
  8  7  1  0  0  0  0
  9  8  2  0  0  0  0
  9 10  1  0  0  0  0
 10  5  2  0  0  0  0
 12  8  1  0  0  0  0
 13  9  1  0  0  0  0
 14 20  1  0  0  0  0
 14 15  1  0  0  0  0
 15 21  1  0  0  0  0
 16 15  2  0  0  0  0
 16 22  1  0  0  0  0
 17 16  1  0  0  0  0
 18 19  1  0  0  0  0
 18 17  2  0  0  0  0
 19 14  2  0  0  0  0
 23  1  1  0  0  0  0
 23 25  1  0  0  0  0
 24 23  1  0  0  0  0
 26 28  1  0  0  0  0
 26 23  1  0  0  0  0
 27 26  1  0  0  0  0
 28 31  1  0  0  0  0
 29 28  1  0  0  0  0
 30 28  1  0  0  0  0
 31 35  1  0  0  0  0
 31 32  1  0  0  0  0
 31 33  1  0  0  0  0
 34 41  1  0  0  0  0
 34 43  1  0  0  0  0
 35 34  2  0  0  0  0
 36 38  2  0  0  0  0
 36 35  1  0  0  0  0
 37 36  1  0  0  0  0
 38 40  1  0  0  0  0
 39 38  1  0  0  0  0
 40 41  2  0  0  0  0
 43 42  3  0  0  0  0
M  END
>  <minimizedAffinity>
-5.4112277

$$$$

 OpenBabel03262520143D

 43 45  0  0  0  0  0  0  0  0999 V2000
   37.2630   27.8670   32.7220 C   0  0  0  0  0  0  0  0  0  0  0  0
   37.3860   28.0980   31.6230 H   0  0  0  0  0  0  0  0  0  0  0  0
   38.0900   28.4210   33.2260 H   0  0  0  0  0  0  0  0  0  0  0  0
   38.5790   27.1080   35.4920 Br  0  0  0  0  0  0  0  0  0  0  0  0
   37.9680   25.9010   34.1180 C   0  0  0  0  0  0  0  0  0  0  0  0
   38.0810   24.5440   34.2820 C   0  0  0  0  0  0  0  0  0  0  0  0
   37.6390   23.7360   33.2700 C   0  0  0  0  0  0  0  0  0  0  0  0
   37.0890   24.2420   32.1010 C   0  0  0  0  0  0  0  0  0  0  0  0
   36.9930   25.6320   31.9740 C   0  0  0  0  0  0  0  0  0  0  0  0
   37.4320   26.4410   32.9830 C   0  0  0  0  0  0  0  0  0  0  0  0
   37.7540   22.6560   33.4570 H   0  0  0  0  0  0  0  0  0  0  0  0
   36.7960   23.4760   31.4160 H   0  0  0  0  0  0  0  0  0  0  0  0
   36.5650   25.8110   31.0170 H   0  0  0  0  0  0  0  0  0  0  0  0
   38.3320   23.3950   37.7410 C   0  0  0  0  0  0  0  0  0  0  0  0
   39.6790   22.9100   37.8340 C   0  0  0  0  0  0  0  0  0  0  0  0
   40.4520   22.9980   36.7040 C   0  0  0  0  0  0  0  0  0  0  0  0
   39.9340   23.5300   35.5420 N   0  0  0  0  0  0  0  0  0  0  0  0
   38.6610   23.9720   35.5050 C   0  0  0  0  0  0  0  0  0  0  0  0
   37.9000   23.8920   36.5970 N   0  0  0  0  0  0  0  0  0  0  0  0
   37.6820   23.3490   38.6040 H   0  0  0  0  0  0  0  0  0  0  0  0
   39.9770   22.5210   38.7750 H   0  0  0  0  0  0  0  0  0  0  0  0
   41.4690   22.6390   36.7500 H   0  0  0  0  0  0  0  0  0  0  0  0
   35.9820   28.4870   33.1420 C   0  0  0  0  0  0  0  0  0  0  0  0
   35.9820   28.8160   34.1640 H   0  0  0  0  0  0  0  0  0  0  0  0
   35.2510   27.6030   33.1530 H   0  0  0  0  0  0  0  0  0  0  0  0
   35.5000   29.3200   32.1050 N   0  0  0  0  0  0  0  0  0  0  0  0
   35.6350   28.9050   31.1580 H   0  0  0  0  0  0  0  0  0  0  0  0
   35.9170   30.6760   32.1030 C   0  0  0  0  0  0  0  0  0  0  0  0
   35.6760   31.1830   31.1490 H   0  0  0  0  0  0  0  0  0  0  0  0
   37.0260   30.7540   32.1990 H   0  0  0  0  0  0  0  0  0  0  0  0
   35.2610   31.3740   33.2520 C   0  0  0  0  0  0  0  0  0  0  0  0
   34.3120   31.8800   32.9600 H   0  0  0  0  0  0  0  0  0  0  0  0
   35.2360   30.9040   34.2180 H   0  0  0  0  0  0  0  0  0  0  0  0
   36.3490   32.9810   34.8270 C   0  0  0  0  0  0  0  0  0  0  0  0
   36.1960   32.5650   33.5120 C   0  0  0  0  0  0  0  0  0  0  0  0
   36.8770   33.2360   32.5210 C   0  0  0  0  0  0  0  0  0  0  0  0
   36.7410   32.8920   31.5070 H   0  0  0  0  0  0  0  0  0  0  0  0
   37.6760   34.2850   32.8950 C   0  0  0  0  0  0  0  0  0  0  0  0
   38.2200   34.8230   32.1270 H   0  0  0  0  0  0  0  0  0  0  0  0
   37.8380   34.7090   34.1930 C   0  0  0  0  0  3  0  0  0  0  0  0
   37.1570   34.0390   35.1890 C   0  0  0  0  0  3  0  0  0  0  0  0
   35.1340   31.7830   36.7830 N   0  0  0  0  0  0  0  0  0  0  0  0
   35.6680   32.3240   35.9170 C   0  0  0  0  0  0  0  0  0  0  0  0
  1 10  1  0  0  0  0
  1 23  1  0  0  0  0
  1  3  1  0  0  0  0
  2  1  1  0  0  0  0
  5  6  1  0  0  0  0
  5  4  1  0  0  0  0
  6 18  1  0  0  0  0
  7 11  1  0  0  0  0
  7  6  2  0  0  0  0
  8  7  1  0  0  0  0
  9  8  2  0  0  0  0
  9 10  1  0  0  0  0
 10  5  2  0  0  0  0
 12  8  1  0  0  0  0
 13  9  1  0  0  0  0
 14 15  1  0  0  0  0
 14 20  1  0  0  0  0
 15 21  1  0  0  0  0
 16 22  1  0  0  0  0
 16 15  2  0  0  0  0
 17 16  1  0  0  0  0
 18 17  2  0  0  0  0
 18 19  1  0  0  0  0
 19 14  2  0  0  0  0
 23 25  1  0  0  0  0
 23 24  1  0  0  0  0
 26 23  1  0  0  0  0
 27 26  1  0  0  0  0
 28 26  1  0  0  0  0
 28 30  1  0  0  0  0
 28 31  1  0  0  0  0
 29 28  1  0  0  0  0
 31 35  1  0  0  0  0
 31 33  1  0  0  0  0
 32 31  1  0  0  0  0
 34 41  1  0  0  0  0
 34 43  1  0  0  0  0
 35 34  2  0  0  0  0
 36 38  2  0  0  0  0
 36 35  1  0  0  0  0
 37 36  1  0  0  0  0
 38 40  1  0  0  0  0
 39 38  1  0  0  0  0
 40 41  2  0  0  0  0
 43 42  3  0  0  0  0
M  END
>  <minimizedAffinity>
-5.29921675

$$$$

 OpenBabel03262520143D

 43 45  0  0  0  0  0  0  0  0999 V2000
   37.4620   27.7230   32.6740 C   0  0  0  0  0  0  0  0  0  0  0  0
   38.4480   28.1650   32.3430 H   0  0  0  0  0  0  0  0  0  0  0  0
   37.1820   28.3000   33.5870 H   0  0  0  0  0  0  0  0  0  0  0  0
   38.3010   27.1460   35.6650 Br  0  0  0  0  0  0  0  0  0  0  0  0
   37.9530   25.8530   34.2770 C   0  0  0  0  0  0  0  0  0  0  0  0
   38.0600   24.5090   34.5340 C   0  0  0  0  0  0  0  0  0  0  0  0
   37.8120   23.6380   33.5090 C   0  0  0  0  0  0  0  0  0  0  0  0
   37.4590   24.0670   32.2370 C   0  0  0  0  0  0  0  0  0  0  0  0
   37.3620   25.4460   32.0180 C   0  0  0  0  0  0  0  0  0  0  0  0
   37.6090   26.3180   33.0400 C   0  0  0  0  0  0  0  0  0  0  0  0
   37.9120   22.5730   33.7720 H   0  0  0  0  0  0  0  0  0  0  0  0
   37.3020   23.2590   31.5570 H   0  0  0  0  0  0  0  0  0  0  0  0
   37.1000   25.5620   30.9940 H   0  0  0  0  0  0  0  0  0  0  0  0
   40.0810   23.0470   37.2030 C   0  0  0  0  0  0  0  0  0  0  0  0
   39.2050   23.0780   38.3390 C   0  0  0  0  0  0  0  0  0  0  0  0
   37.9510   23.6000   38.1450 C   0  0  0  0  0  0  0  0  0  0  0  0
   37.5730   24.0680   36.9040 N   0  0  0  0  0  0  0  0  0  0  0  0
   38.4340   24.0180   35.8670 C   0  0  0  0  0  0  0  0  0  0  0  0
   39.6550   23.5130   36.0440 N   0  0  0  0  0  0  0  0  0  0  0  0
   41.0800   22.6460   37.3040 H   0  0  0  0  0  0  0  0  0  0  0  0
   39.5960   22.6920   39.2470 H   0  0  0  0  0  0  0  0  0  0  0  0
   37.2740   23.6340   38.9850 H   0  0  0  0  0  0  0  0  0  0  0  0
   36.4770   28.0490   31.6140 C   0  0  0  0  0  0  0  0  0  0  0  0
   36.5680   27.4320   30.7410 H   0  0  0  0  0  0  0  0  0  0  0  0
   36.8200   29.0790   31.2410 H   0  0  0  0  0  0  0  0  0  0  0  0
   35.2150   28.3000   32.2040 N   0  0  0  0  0  0  0  0  0  0  0  0
   34.5100   28.6460   31.5190 H   0  0  0  0  0  0  0  0  0  0  0  0
   35.1840   29.0980   33.3760 C   0  0  0  0  0  0  0  0  0  0  0  0
   36.1960   29.2630   33.7930 H   0  0  0  0  0  0  0  0  0  0  0  0
   34.6140   28.5920   34.1910 H   0  0  0  0  0  0  0  0  0  0  0  0
   34.5320   30.4030   33.0420 C   0  0  0  0  0  0  0  0  0  0  0  0
   34.7250   30.7210   31.9920 H   0  0  0  0  0  0  0  0  0  0  0  0
   33.5390   30.6090   33.3950 H   0  0  0  0  0  0  0  0  0  0  0  0
   35.9880   32.4320   33.1330 C   0  0  0  0  0  0  0  0  0  0  0  0
   35.3610   31.4180   33.8440 C   0  0  0  0  0  0  0  0  0  0  0  0
   35.5180   31.3730   35.2110 C   0  0  0  0  0  0  0  0  0  0  0  0
   35.0190   30.5740   35.7400 H   0  0  0  0  0  0  0  0  0  0  0  0
   36.2900   32.3420   35.7970 C   0  0  0  0  0  0  0  0  0  0  0  0
   36.4220   32.3200   36.8730 H   0  0  0  0  0  0  0  0  0  0  0  0
   36.9160   33.3520   35.1070 C   0  0  0  0  0  3  0  0  0  0  0  0
   36.7630   33.4020   33.7360 C   0  0  0  0  0  3  0  0  0  0  0  0
   35.7870   32.6410   30.5540 N   0  0  0  0  0  0  0  0  0  0  0  0
   35.8670   32.5440   31.6990 C   0  0  0  0  0  0  0  0  0  0  0  0
  1 10  1  0  0  0  0
  1  3  1  0  0  0  0
  2  1  1  0  0  0  0
  5  6  1  0  0  0  0
  5  4  1  0  0  0  0
  6 18  1  0  0  0  0
  7 11  1  0  0  0  0
  7  6  2  0  0  0  0
  8  7  1  0  0  0  0
  9  8  2  0  0  0  0
  9 10  1  0  0  0  0
 10  5  2  0  0  0  0
 12  8  1  0  0  0  0
 13  9  1  0  0  0  0
 14 20  1  0  0  0  0
 14 15  1  0  0  0  0
 15 21  1  0  0  0  0
 16 15  2  0  0  0  0
 16 22  1  0  0  0  0
 17 16  1  0  0  0  0
 18 19  1  0  0  0  0
 18 17  2  0  0  0  0
 19 14  2  0  0  0  0
 23 26  1  0  0  0  0
 23  1  1  0  0  0  0
 24 23  1  0  0  0  0
 25 23  1  0  0  0  0
 26 28  1  0  0  0  0
 27 26  1  0  0  0  0
 28 29  1  0  0  0  0
 28 30  1  0  0  0  0
 31 28  1  0  0  0  0
 31 33  1  0  0  0  0
 31 35  1  0  0  0  0
 32 31  1  0  0  0  0
 34 41  2  0  0  0  0
 34 35  1  0  0  0  0
 35 36  2  0  0  0  0
 36 37  1  0  0  0  0
 36 38  1  0  0  0  0
 38 39  1  0  0  0  0
 40 38  2  0  0  0  0
 41 40  1  0  0  0  0
 42 43  3  0  0  0  0
 43 34  1  0  0  0  0
M  END
>  <minimizedAffinity>
-5.266675

$$$$

 OpenBabel03262520143D

 43 45  0  0  0  0  0  0  0  0999 V2000
   41.4620   26.6040   33.9160 C   0  0  0  0  0  0  0  0  0  0  0  0
   42.0200   27.0230   34.8050 H   0  0  0  0  0  0  0  0  0  0  0  0
   41.7110   27.2910   33.0730 H   0  0  0  0  0  0  0  0  0  0  0  0
   39.6640   25.7410   31.4660 Br  0  0  0  0  0  0  0  0  0  0  0  0
   39.0700   26.2980   33.2140 C   0  0  0  0  0  0  0  0  0  0  0  0
   37.7310   26.3540   33.5100 C   0  0  0  0  0  0  0  0  0  0  0  0
   37.3670   26.7650   34.7630 C   0  0  0  0  0  0  0  0  0  0  0  0
   38.2990   27.1220   35.7280 C   0  0  0  0  0  0  0  0  0  0  0  0
   39.6540   27.0520   35.3840 C   0  0  0  0  0  0  0  0  0  0  0  0
   40.0200   26.6400   34.1340 C   0  0  0  0  0  0  0  0  0  0  0  0
   36.2810   26.7900   34.9450 H   0  0  0  0  0  0  0  0  0  0  0  0
   37.8470   27.4190   36.6490 H   0  0  0  0  0  0  0  0  0  0  0  0
   40.1920   27.3750   36.2430 H   0  0  0  0  0  0  0  0  0  0  0  0
   35.5660   24.2680   31.4360 C   0  0  0  0  0  0  0  0  0  0  0  0
   34.8260   25.2230   30.6600 C   0  0  0  0  0  0  0  0  0  0  0  0
   35.1010   26.5490   30.8790 C   0  0  0  0  0  0  0  0  0  0  0  0
   36.0480   26.9230   31.8090 N   0  0  0  0  0  0  0  0  0  0  0  0
   36.7160   25.9870   32.5130 C   0  0  0  0  0  0  0  0  0  0  0  0
   36.4590   24.6940   32.3090 N   0  0  0  0  0  0  0  0  0  0  0  0
   35.3870   23.2100   31.3000 H   0  0  0  0  0  0  0  0  0  0  0  0
   34.1210   24.8280   29.9730 H   0  0  0  0  0  0  0  0  0  0  0  0
   34.5570   27.2860   30.3080 H   0  0  0  0  0  0  0  0  0  0  0  0
   42.0720   25.2850   33.6190 C   0  0  0  0  0  0  0  0  0  0  0  0
   43.1370   25.3250   33.4970 H   0  0  0  0  0  0  0  0  0  0  0  0
   41.6960   25.0510   32.5610 H   0  0  0  0  0  0  0  0  0  0  0  0
   41.4640   24.2930   34.4270 N   0  0  0  0  0  0  0  0  0  0  0  0
   42.1300   23.8570   35.1000 H   0  0  0  0  0  0  0  0  0  0  0  0
   40.7070   23.2870   33.7740 C   0  0  0  0  0  0  0  0  0  0  0  0
   41.1670   22.9750   32.8170 H   0  0  0  0  0  0  0  0  0  0  0  0
   39.6930   23.6650   33.4990 H   0  0  0  0  0  0  0  0  0  0  0  0
   40.5730   22.1200   34.7010 C   0  0  0  0  0  0  0  0  0  0  0  0
   39.9310   21.3120   34.2820 H   0  0  0  0  0  0  0  0  0  0  0  0
   41.4310   21.7700   35.2450 H   0  0  0  0  0  0  0  0  0  0  0  0
   40.1020   22.4280   37.1350 C   0  0  0  0  0  0  0  0  0  0  0  0
   39.6950   22.6760   35.8320 C   0  0  0  0  0  0  0  0  0  0  0  0
   38.5390   23.3930   35.6240 C   0  0  0  0  0  0  0  0  0  0  0  0
   38.2450   23.5730   34.6000 H   0  0  0  0  0  0  0  0  0  0  0  0
   37.8490   23.8270   36.7270 C   0  0  0  0  0  0  0  0  0  0  0  0
   36.9380   24.3940   36.5800 H   0  0  0  0  0  0  0  0  0  0  0  0
   38.2390   23.5890   38.0240 C   0  0  0  0  0  3  0  0  0  0  0  0
   39.3980   22.8700   38.2370 C   0  0  0  0  0  3  0  0  0  0  0  0
   42.2550   21.0840   37.6790 N   0  0  0  0  0  0  0  0  0  0  0  0
   41.3040   21.6850   37.4300 C   0  0  0  0  0  0  0  0  0  0  0  0
  1 10  1  0  0  0  0
  1  2  1  0  0  0  0
  3  1  1  0  0  0  0
  4  5  1  0  0  0  0
  5  6  2  0  0  0  0
  5 10  1  0  0  0  0
  6  7  1  0  0  0  0
  7 11  1  0  0  0  0
  7  8  2  0  0  0  0
  8 12  1  0  0  0  0
  9  8  1  0  0  0  0
  9 13  1  0  0  0  0
 10  9  2  0  0  0  0
 14 19  1  0  0  0  0
 15 16  1  0  0  0  0
 15 14  2  0  0  0  0
 16 17  2  0  0  0  0
 17 18  1  0  0  0  0
 18  6  1  0  0  0  0
 19 18  2  0  0  0  0
 20 14  1  0  0  0  0
 21 15  1  0  0  0  0
 22 16  1  0  0  0  0
 23  1  1  0  0  0  0
 23 26  1  0  0  0  0
 24 23  1  0  0  0  0
 25 23  1  0  0  0  0
 26 27  1  0  0  0  0
 28 26  1  0  0  0  0
 28 31  1  0  0  0  0
 29 28  1  0  0  0  0
 30 28  1  0  0  0  0
 31 33  1  0  0  0  0
 31 35  1  0  0  0  0
 32 31  1  0  0  0  0
 34 43  1  0  0  0  0
 34 41  1  0  0  0  0
 35 34  2  0  0  0  0
 36 35  1  0  0  0  0
 36 38  2  0  0  0  0
 37 36  1  0  0  0  0
 38 40  1  0  0  0  0
 39 38  1  0  0  0  0
 40 41  2  0  0  0  0
 43 42  3  0  0  0  0
M  END
>  <minimizedAffinity>
-5.20765877

$$$$

 OpenBabel03262520143D

 43 45  0  0  0  0  0  0  0  0999 V2000
   38.7930   26.5950   32.2950 C   0  0  0  0  0  0  0  0  0  0  0  0
   39.1950   26.6550   33.3500 H   0  0  0  0  0  0  0  0  0  0  0  0
   39.6720   26.8070   31.6420 H   0  0  0  0  0  0  0  0  0  0  0  0
   37.0990   27.4840   34.8090 Br  0  0  0  0  0  0  0  0  0  0  0  0
   36.9510   28.1470   33.0040 C   0  0  0  0  0  0  0  0  0  0  0  0
   36.0300   29.1150   32.6920 C   0  0  0  0  0  0  0  0  0  0  0  0
   35.9630   29.5410   31.3930 C   0  0  0  0  0  0  0  0  0  0  0  0
   36.7860   29.0310   30.3990 C   0  0  0  0  0  0  0  0  0  0  0  0
   37.7100   28.0440   30.7610 C   0  0  0  0  0  0  0  0  0  0  0  0
   37.7800   27.6180   32.0570 C   0  0  0  0  0  0  0  0  0  0  0  0
   35.2070   30.3190   31.2000 H   0  0  0  0  0  0  0  0  0  0  0  0
   36.6030   29.4720   29.4440 H   0  0  0  0  0  0  0  0  0  0  0  0
   38.2240   27.7810   29.8680 H   0  0  0  0  0  0  0  0  0  0  0  0
   34.8750   31.2250   35.4410 C   0  0  0  0  0  0  0  0  0  0  0  0
   33.5280   30.7800   35.6600 C   0  0  0  0  0  0  0  0  0  0  0  0
   33.0680   29.7700   34.8540 C   0  0  0  0  0  0  0  0  0  0  0  0
   33.8810   29.2240   33.8830 N   0  0  0  0  0  0  0  0  0  0  0  0
   35.1400   29.6770   33.7170 C   0  0  0  0  0  0  0  0  0  0  0  0
   35.5990   30.6580   34.4940 N   0  0  0  0  0  0  0  0  0  0  0  0
   35.2860   32.0190   36.0500 H   0  0  0  0  0  0  0  0  0  0  0  0
   32.9890   31.2680   36.4330 H   0  0  0  0  0  0  0  0  0  0  0  0
   32.0580   29.4180   34.9990 H   0  0  0  0  0  0  0  0  0  0  0  0
   38.3970   25.1820   32.0750 C   0  0  0  0  0  0  0  0  0  0  0  0
   38.5580   24.8460   31.0680 H   0  0  0  0  0  0  0  0  0  0  0  0
   37.2540   25.2110   32.1600 H   0  0  0  0  0  0  0  0  0  0  0  0
   38.8060   24.4010   33.1820 N   0  0  0  0  0  0  0  0  0  0  0  0
   39.6640   23.8430   32.9880 H   0  0  0  0  0  0  0  0  0  0  0  0
   37.8290   23.5840   33.8070 C   0  0  0  0  0  0  0  0  0  0  0  0
   37.0300   23.2800   33.1040 H   0  0  0  0  0  0  0  0  0  0  0  0
   37.3030   24.1400   34.6190 H   0  0  0  0  0  0  0  0  0  0  0  0
   38.5130   22.3830   34.3800 C   0  0  0  0  0  0  0  0  0  0  0  0
   37.8530   21.4850   34.4020 H   0  0  0  0  0  0  0  0  0  0  0  0
   39.5350   22.1770   34.1220 H   0  0  0  0  0  0  0  0  0  0  0  0
   39.8650   22.5270   36.4750 C   0  0  0  0  0  0  0  0  0  0  0  0
   38.6340   22.7330   35.8700 C   0  0  0  0  0  0  0  0  0  0  0  0
   37.5970   23.2270   36.6290 C   0  0  0  0  0  0  0  0  0  0  0  0
   36.6490   23.3780   36.1340 H   0  0  0  0  0  0  0  0  0  0  0  0
   37.8440   23.4930   37.9510 C   0  0  0  0  0  0  0  0  0  0  0  0
   37.0380   23.8840   38.5610 H   0  0  0  0  0  0  0  0  0  0  0  0
   39.0580   23.2950   38.5650 C   0  0  0  0  0  3  0  0  0  0  0  0
   40.1000   22.7990   37.8080 C   0  0  0  0  0  3  0  0  0  0  0  0
   41.9080   21.6220   35.1540 N   0  0  0  0  0  0  0  0  0  0  0  0
   40.9980   22.0140   35.7430 C   0  0  0  0  0  0  0  0  0  0  0  0
  1  2  1  0  0  0  0
  3  1  1  0  0  0  0
  5  4  1  0  0  0  0
  6  5  1  0  0  0  0
  6 18  1  0  0  0  0
  7  6  2  0  0  0  0
  8  9  2  0  0  0  0
  8  7  1  0  0  0  0
  9 10  1  0  0  0  0
 10  1  1  0  0  0  0
 10  5  2  0  0  0  0
 11  7  1  0  0  0  0
 12  8  1  0  0  0  0
 13  9  1  0  0  0  0
 14 15  1  0  0  0  0
 14 20  1  0  0  0  0
 15 21  1  0  0  0  0
 16 22  1  0  0  0  0
 16 15  2  0  0  0  0
 17 16  1  0  0  0  0
 18 17  2  0  0  0  0
 18 19  1  0  0  0  0
 19 14  2  0  0  0  0
 23 25  1  0  0  0  0
 23  1  1  0  0  0  0
 23 26  1  0  0  0  0
 24 23  1  0  0  0  0
 26 28  1  0  0  0  0
 27 26  1  0  0  0  0
 28 31  1  0  0  0  0
 28 30  1  0  0  0  0
 29 28  1  0  0  0  0
 31 32  1  0  0  0  0
 31 35  1  0  0  0  0
 33 31  1  0  0  0  0
 34 41  1  0  0  0  0
 35 34  2  0  0  0  0
 35 36  1  0  0  0  0
 36 38  2  0  0  0  0
 37 36  1  0  0  0  0
 38 39  1  0  0  0  0
 38 40  1  0  0  0  0
 41 40  2  0  0  0  0
 42 43  3  0  0  0  0
 43 34  1  0  0  0  0
M  END
>  <minimizedAffinity>
-5.20294189

$$$$

 OpenBabel03262520143D

 43 45  0  0  0  0  0  0  0  0999 V2000
   37.4420   25.8310   32.6120 C   0  0  0  0  0  0  0  0  0  0  0  0
   36.3740   25.8940   32.2450 H   0  0  0  0  0  0  0  0  0  0  0  0
   38.0650   25.9170   31.6910 H   0  0  0  0  0  0  0  0  0  0  0  0
   36.1020   23.3190   31.2430 Br  0  0  0  0  0  0  0  0  0  0  0  0
   37.2400   23.3360   32.8000 C   0  0  0  0  0  0  0  0  0  0  0  0
   37.5520   22.1660   33.4470 C   0  0  0  0  0  0  0  0  0  0  0  0
   38.3550   22.2380   34.5520 C   0  0  0  0  0  0  0  0  0  0  0  0
   38.8560   23.4420   35.0290 C   0  0  0  0  0  0  0  0  0  0  0  0
   38.5120   24.6100   34.3410 C   0  0  0  0  0  0  0  0  0  0  0  0
   37.7110   24.5410   33.2360 C   0  0  0  0  0  0  0  0  0  0  0  0
   38.5730   21.2700   35.0300 H   0  0  0  0  0  0  0  0  0  0  0  0
   39.4640   23.3200   35.8990 H   0  0  0  0  0  0  0  0  0  0  0  0
   38.9770   25.4090   34.8670 H   0  0  0  0  0  0  0  0  0  0  0  0
   37.3900   19.0080   31.6180 C   0  0  0  0  0  0  0  0  0  0  0  0
   36.1390   18.4430   32.0370 C   0  0  0  0  0  0  0  0  0  0  0  0
   35.3970   19.1700   32.9330 C   0  0  0  0  0  0  0  0  0  0  0  0
   35.8550   20.3870   33.3960 N   0  0  0  0  0  0  0  0  0  0  0  0
   37.0380   20.8740   32.9720 C   0  0  0  0  0  0  0  0  0  0  0  0
   37.7680   20.1770   32.1010 N   0  0  0  0  0  0  0  0  0  0  0  0
   38.0120   18.4740   30.9120 H   0  0  0  0  0  0  0  0  0  0  0  0
   35.8820   17.5030   31.6200 H   0  0  0  0  0  0  0  0  0  0  0  0
   34.4520   18.7660   33.2640 H   0  0  0  0  0  0  0  0  0  0  0  0
   37.6760   27.0450   33.4320 C   0  0  0  0  0  0  0  0  0  0  0  0
   38.7120   27.3200   33.5020 H   0  0  0  0  0  0  0  0  0  0  0  0
   37.4260   26.6990   34.4960 H   0  0  0  0  0  0  0  0  0  0  0  0
   36.6810   28.0090   33.1410 N   0  0  0  0  0  0  0  0  0  0  0  0
   36.9770   28.6860   32.4060 H   0  0  0  0  0  0  0  0  0  0  0  0
   36.1000   28.7040   34.2330 C   0  0  0  0  0  0  0  0  0  0  0  0
   36.8590   29.2280   34.8440 H   0  0  0  0  0  0  0  0  0  0  0  0
   35.5990   27.9970   34.9360 H   0  0  0  0  0  0  0  0  0  0  0  0
   35.0950   29.6740   33.6940 C   0  0  0  0  0  0  0  0  0  0  0  0
   35.5540   30.4390   33.0270 H   0  0  0  0  0  0  0  0  0  0  0  0
   34.1330   29.3220   33.3720 H   0  0  0  0  0  0  0  0  0  0  0  0
   33.4040   30.4520   35.3610 C   0  0  0  0  0  0  0  0  0  0  0  0
   34.7220   30.5060   34.9310 C   0  0  0  0  0  0  0  0  0  0  0  0
   35.6140   31.2960   35.6210 C   0  0  0  0  0  0  0  0  0  0  0  0
   36.6330   31.3200   35.2650 H   0  0  0  0  0  0  0  0  0  0  0  0
   35.1440   31.9890   36.7060 C   0  0  0  0  0  0  0  0  0  0  0  0
   35.8330   32.6150   37.2610 H   0  0  0  0  0  0  0  0  0  0  0  0
   33.8410   31.9460   37.1450 C   0  0  0  0  0  3  0  0  0  0  0  0
   32.9440   31.1550   36.4560 C   0  0  0  0  0  3  0  0  0  0  0  0
   31.6350   29.0020   34.1350 N   0  0  0  0  0  0  0  0  0  0  0  0
   32.4160   29.6440   34.6890 C   0  0  0  0  0  0  0  0  0  0  0  0
  1 10  1  0  0  0  0
  1 23  1  0  0  0  0
  2  1  1  0  0  0  0
  3  1  1  0  0  0  0
  4  5  1  0  0  0  0
  5 10  2  0  0  0  0
  5  6  1  0  0  0  0
  6  7  2  0  0  0  0
  7  8  1  0  0  0  0
  7 11  1  0  0  0  0
  8 12  1  0  0  0  0
  9 13  1  0  0  0  0
  9  8  2  0  0  0  0
 10  9  1  0  0  0  0
 14 15  2  0  0  0  0
 14 19  1  0  0  0  0
 15 16  1  0  0  0  0
 16 22  1  0  0  0  0
 16 17  2  0  0  0  0
 18 17  1  0  0  0  0
 18  6  1  0  0  0  0
 19 18  2  0  0  0  0
 20 14  1  0  0  0  0
 21 15  1  0  0  0  0
 23 24  1  0  0  0  0
 23 25  1  0  0  0  0
 26 23  1  0  0  0  0
 26 28  1  0  0  0  0
 27 26  1  0  0  0  0
 28 29  1  0  0  0  0
 28 30  1  0  0  0  0
 31 28  1  0  0  0  0
 31 35  1  0  0  0  0
 32 31  1  0  0  0  0
 33 31  1  0  0  0  0
 34 41  1  0  0  0  0
 35 34  2  0  0  0  0
 35 36  1  0  0  0  0
 36 38  2  0  0  0  0
 37 36  1  0  0  0  0
 38 40  1  0  0  0  0
 38 39  1  0  0  0  0
 41 40  2  0  0  0  0
 42 43  3  0  0  0  0
 43 34  1  0  0  0  0
M  END
>  <minimizedAffinity>
-5.19188881

$$$$

 OpenBabel03262520143D

 43 45  0  0  0  0  0  0  0  0999 V2000
   38.6000   26.7430   32.0150 C   0  0  0  0  0  0  0  0  0  0  0  0
   38.6050   26.0600   31.1140 H   0  0  0  0  0  0  0  0  0  0  0  0
   38.2740   26.0950   32.8630 H   0  0  0  0  0  0  0  0  0  0  0  0
   36.9120   27.4860   34.5800 Br  0  0  0  0  0  0  0  0  0  0  0  0
   36.8110   28.3020   32.8360 C   0  0  0  0  0  0  0  0  0  0  0  0
   35.9320   29.3290   32.5970 C   0  0  0  0  0  0  0  0  0  0  0  0
   35.8960   29.8630   31.3390 C   0  0  0  0  0  0  0  0  0  0  0  0
   36.7100   29.4040   30.3120 C   0  0  0  0  0  0  0  0  0  0  0  0
   37.5910   28.3560   30.5990 C   0  0  0  0  0  0  0  0  0  0  0  0
   37.6300   27.8200   31.8550 C   0  0  0  0  0  0  0  0  0  0  0  0
   35.1730   30.6840   31.2040 H   0  0  0  0  0  0  0  0  0  0  0  0
   36.5550   29.9300   29.3950 H   0  0  0  0  0  0  0  0  0  0  0  0
   38.1050   28.1470   29.6910 H   0  0  0  0  0  0  0  0  0  0  0  0
   34.8090   31.2900   35.4680 C   0  0  0  0  0  0  0  0  0  0  0  0
   33.4610   30.8420   35.6700 C   0  0  0  0  0  0  0  0  0  0  0  0
   32.9880   29.8810   34.8130 C   0  0  0  0  0  0  0  0  0  0  0  0
   33.7920   29.3840   33.8080 N   0  0  0  0  0  0  0  0  0  0  0  0
   35.0520   29.8380   33.6580 C   0  0  0  0  0  0  0  0  0  0  0  0
   35.5230   30.7720   34.4860 N   0  0  0  0  0  0  0  0  0  0  0  0
   35.2290   32.0460   36.1170 H   0  0  0  0  0  0  0  0  0  0  0  0
   32.9310   31.2900   36.4730 H   0  0  0  0  0  0  0  0  0  0  0  0
   31.9770   29.5280   34.9460 H   0  0  0  0  0  0  0  0  0  0  0  0
   40.0120   27.1290   32.2580 C   0  0  0  0  0  0  0  0  0  0  0  0
   40.2950   28.0400   31.7670 H   0  0  0  0  0  0  0  0  0  0  0  0
   40.6070   26.3310   31.6890 H   0  0  0  0  0  0  0  0  0  0  0  0
   40.3360   26.8970   33.6160 N   0  0  0  0  0  0  0  0  0  0  0  0
   40.9950   27.6070   34.0010 H   0  0  0  0  0  0  0  0  0  0  0  0
   40.7630   25.5940   33.9770 C   0  0  0  0  0  0  0  0  0  0  0  0
   41.7680   25.6000   34.4420 H   0  0  0  0  0  0  0  0  0  0  0  0
   40.8660   24.9420   33.0770 H   0  0  0  0  0  0  0  0  0  0  0  0
   39.7520   25.0070   34.9110 C   0  0  0  0  0  0  0  0  0  0  0  0
   39.4650   25.7100   35.7270 H   0  0  0  0  0  0  0  0  0  0  0  0
   38.9410   24.4220   34.5200 H   0  0  0  0  0  0  0  0  0  0  0  0
   39.9030   23.2320   36.6640 C   0  0  0  0  0  0  0  0  0  0  0  0
   40.5610   23.9440   35.6710 C   0  0  0  0  0  0  0  0  0  0  0  0
   41.8880   23.6690   35.4260 C   0  0  0  0  0  0  0  0  0  0  0  0
   42.3760   24.2370   34.6480 H   0  0  0  0  0  0  0  0  0  0  0  0
   42.4880   22.6960   36.1840 C   0  0  0  0  0  0  0  0  0  0  0  0
   43.5310   22.4670   36.0020 H   0  0  0  0  0  0  0  0  0  0  0  0
   41.8490   21.9820   37.1700 C   0  0  0  0  0  3  0  0  0  0  0  0
   40.5200   22.2550   37.4190 C   0  0  0  0  0  3  0  0  0  0  0  0
   37.3990   23.6500   37.2030 N   0  0  0  0  0  0  0  0  0  0  0  0
   38.5130   23.4650   36.9740 C   0  0  0  0  0  0  0  0  0  0  0  0
  1 23  1  0  0  0  0
  1  3  1  0  0  0  0
  2  1  1  0  0  0  0
  5  4  1  0  0  0  0
  6  5  1  0  0  0  0
  6 18  1  0  0  0  0
  7  6  2  0  0  0  0
  8  9  2  0  0  0  0
  8  7  1  0  0  0  0
  9 10  1  0  0  0  0
 10  1  1  0  0  0  0
 10  5  2  0  0  0  0
 11  7  1  0  0  0  0
 12  8  1  0  0  0  0
 13  9  1  0  0  0  0
 14 15  1  0  0  0  0
 14 20  1  0  0  0  0
 15 21  1  0  0  0  0
 16 22  1  0  0  0  0
 16 15  2  0  0  0  0
 17 16  1  0  0  0  0
 18 17  2  0  0  0  0
 18 19  1  0  0  0  0
 19 14  2  0  0  0  0
 23 26  1  0  0  0  0
 24 23  1  0  0  0  0
 25 23  1  0  0  0  0
 26 28  1  0  0  0  0
 26 27  1  0  0  0  0
 28 29  1  0  0  0  0
 28 31  1  0  0  0  0
 30 28  1  0  0  0  0
 31 35  1  0  0  0  0
 31 32  1  0  0  0  0
 33 31  1  0  0  0  0
 34 43  1  0  0  0  0
 34 41  1  0  0  0  0
 35 34  2  0  0  0  0
 36 35  1  0  0  0  0
 36 38  2  0  0  0  0
 37 36  1  0  0  0  0
 38 40  1  0  0  0  0
 39 38  1  0  0  0  0
 40 41  2  0  0  0  0
 43 42  3  0  0  0  0
M  END
>  <minimizedAffinity>
-5.13587093

$$$$
