
 OpenBabel03272501083D

 41 44  0  0  1  0  0  0  0  0999 V2000
   38.1870   32.3820   46.5270 O   0  0  0  0  0  0  0  0  0  0  0  0
   38.9380   32.4870   47.6460 C   0  0  2  0  0  0  0  0  0  0  0  0
   38.0740   32.7810   48.9150 C   0  0  2  0  0  0  0  0  0  0  0  0
   39.0420   33.4730   49.7520 C   0  0  0  0  0  0  0  0  0  0  0  0
   39.8530   34.2440   48.9310 O   0  0  0  0  0  0  0  0  0  0  0  0
   39.6540   33.8660   47.6470 C   0  0  0  0  0  0  0  0  0  0  0  0
   39.6670   31.7040   47.8210 H   0  0  0  0  0  0  0  0  0  0  0  0
   37.2900   33.4740   48.5410 H   0  0  0  0  0  0  0  0  0  0  0  0
   39.7090   32.8630   50.3590 H   0  0  0  0  0  0  0  0  0  0  0  0
   38.4920   34.1750   50.4440 H   0  0  0  0  0  0  0  0  0  0  0  0
   40.6230   33.6860   47.1280 H   0  0  0  0  0  0  0  0  0  0  0  0
   39.0250   34.6040   47.1270 H   0  0  0  0  0  0  0  0  0  0  0  0
   37.3850   29.6520   50.8850 C   0  0  0  0  0  0  0  0  0  0  0  0
   38.0630   30.8170   50.4290 C   0  0  0  0  0  0  0  0  0  0  0  0
   37.4320   31.5950   49.4220 C   0  0  0  0  0  0  0  0  0  0  0  0
   36.2080   31.1960   48.9360 N   0  0  0  0  0  0  0  0  0  0  0  0
   35.6100   30.0920   49.3970 C   0  0  0  0  0  0  0  0  0  0  0  0
   36.1720   29.3160   50.3570 N   0  0  0  0  0  0  0  0  0  0  0  0
   37.8930   29.0910   51.6460 H   0  0  0  0  0  0  0  0  0  0  0  0
   39.0230   31.0800   50.8500 H   0  0  0  0  0  0  0  0  0  0  0  0
   34.6500   29.7480   49.0390 H   0  0  0  0  0  0  0  0  0  0  0  0
   40.4780   32.1300   44.4810 Cl  0  0  0  0  0  0  0  0  0  0  0  0
   38.9640   31.2560   44.4250 C   0  0  0  0  0  0  0  0  0  0  0  0
   38.1070   31.5530   45.4660 C   0  0  0  0  0  0  0  0  0  0  0  0
   36.9030   30.8630   45.4280 C   0  0  0  0  0  0  0  0  0  0  0  0
   36.5790   29.9590   44.4460 C   0  0  0  0  0  0  0  0  0  0  0  0
   37.4950   29.7170   43.4380 C   0  0  0  0  0  0  0  0  0  0  0  0
   38.7200   30.3680   43.4050 C   0  0  0  0  0  0  0  0  0  0  0  0
   36.1080   30.9650   46.1570 H   0  0  0  0  0  0  0  0  0  0  0  0
   35.6500   29.4070   44.3930 H   0  0  0  0  0  0  0  0  0  0  0  0
   37.3060   29.0180   42.6340 H   0  0  0  0  0  0  0  0  0  0  0  0
   39.8510   31.0320   41.2890 C   0  0  0  0  0  0  0  0  0  0  0  0
   39.7550   30.1880   42.3930 C   0  0  0  0  0  0  0  0  0  0  0  0
   40.6840   29.1760   42.4790 C   0  0  0  0  0  0  0  0  0  0  0  0
   40.5970   28.5220   43.3480 H   0  0  0  0  0  0  0  0  0  0  0  0
   41.6930   28.9330   41.5710 C   0  0  0  0  0  0  0  0  0  0  0  0
   42.3830   28.1130   41.7160 H   0  0  0  0  0  0  0  0  0  0  0  0
   41.7600   29.7850   40.4940 C   0  0  0  0  0  3  0  0  0  0  0  0
   40.8520   30.8120   40.3640 C   0  0  0  0  0  3  0  0  0  0  0  0
   38.1080   32.9530   41.0740 N   0  0  0  0  0  0  0  0  0  0  0  0
   38.8840   32.1020   41.1810 C   0  0  0  0  0  0  0  0  0  0  0  0
  1  2  1  0  0  0  0
  2  6  1  0  0  0  0
  2  7  1  1  0  0  0
  2  3  1  0  0  0  0
  3  8  1  6  0  0  0
  3 15  1  0  0  0  0
  3  4  1  0  0  0  0
  4  9  1  0  0  0  0
  4 10  1  0  0  0  0
  5  4  1  0  0  0  0
  6  5  1  0  0  0  0
 11  6  1  0  0  0  0
 12  6  1  0  0  0  0
 13 19  1  0  0  0  0
 14 20  1  0  0  0  0
 14 13  1  0  0  0  0
 15 14  2  0  0  0  0
 16 17  2  0  0  0  0
 16 15  1  0  0  0  0
 17 18  1  0  0  0  0
 18 13  2  0  0  0  0
 21 17  1  0  0  0  0
 23 22  1  0  0  0  0
 23 24  1  0  0  0  0
 24  1  1  0  0  0  0
 25 24  2  0  0  0  0
 25 29  1  0  0  0  0
 26 25  1  0  0  0  0
 27 26  2  0  0  0  0
 28 27  1  0  0  0  0
 28 23  2  0  0  0  0
 30 26  1  0  0  0  0
 31 27  1  0  0  0  0
 32 33  1  0  0  0  0
 33 34  2  0  0  0  0
 33 28  1  0  0  0  0
 34 35  1  0  0  0  0
 36 37  1  0  0  0  0
 36 34  1  0  0  0  0
 38 36  2  0  0  0  0
 39 38  1  0  0  0  0
 39 32  2  0  0  0  0
 40 41  3  0  0  0  0
 41 32  1  0  0  0  0
M  END
>  <minimizedAffinity>
-6.21853209

>  <minimizedRMSD>
1.11267018

$$$$
