
 OpenBabel03272508123D

 35 37  0  0  0  0  0  0  0  0999 V2000
   36.8120   29.3910   44.2020 Cl  0  0  0  0  0  0  0  0  0  0  0  0
   38.4670   29.8160   43.7010 C   0  0  0  0  0  0  0  0  0  0  0  0
   39.4190   30.3750   44.5650 C   0  0  0  0  0  0  0  0  0  0  0  0
   40.6620   30.6510   44.0280 C   0  0  0  0  0  0  0  0  0  0  0  0
   40.9500   30.3870   42.7040 C   0  0  0  0  0  0  0  0  0  0  0  0
   40.0290   29.8430   41.8590 C   0  0  0  0  0  0  0  0  0  0  0  0
   38.7950   29.5630   42.3700 C   0  0  0  0  0  0  0  0  0  0  0  0
   41.3380   31.0810   44.7660 H   0  0  0  0  0  0  0  0  0  0  0  0
   41.9580   30.6450   42.3990 H   0  0  0  0  0  0  0  0  0  0  0  0
   40.3210   29.6640   40.8420 H   0  0  0  0  0  0  0  0  0  0  0  0
   37.7050   27.5840   41.4200 C   0  0  0  0  0  0  0  0  0  0  0  0
   37.8050   28.9760   41.4490 C   0  0  0  0  0  0  0  0  0  0  0  0
   37.0170   29.7800   40.6540 C   0  0  0  0  0  0  0  0  0  0  0  0
   37.0950   30.8610   40.6750 H   0  0  0  0  0  0  0  0  0  0  0  0
   36.0960   29.2180   39.7980 C   0  0  0  0  0  0  0  0  0  0  0  0
   35.4470   29.7970   39.1480 H   0  0  0  0  0  0  0  0  0  0  0  0
   35.9870   27.8420   39.7600 C   0  0  0  0  0  3  0  0  0  0  0  0
   36.7610   27.0410   40.5420 C   0  0  0  0  0  3  0  0  0  0  0  0
   39.2040   26.0930   42.9390 N   0  0  0  0  0  0  0  0  0  0  0  0
   38.5490   26.7590   42.2710 C   0  0  0  0  0  0  0  0  0  0  0  0
   38.9420   30.5570   45.8250 O   0  0  0  0  0  0  0  0  0  0  0  0
   39.3920   32.6740   47.2410 O   0  0  0  0  0  0  0  0  0  0  0  0
   38.3110   31.9420   46.5370 P   0  0  1  0  0  0  0  0  0  0  0  0
   37.7150   32.8740   45.2340 O   0  0  0  0  0  0  0  0  0  0  0  0
   38.4420   33.4000   44.8140 H   0  0  0  0  0  0  0  0  0  0  0  0
   37.0150   31.4990   47.5470 O   0  0  0  0  0  0  0  0  0  0  0  0
   37.5100   30.5180   51.0760 C   0  0  0  0  0  0  0  0  0  0  0  0
   37.6120   31.3350   49.9320 C   0  0  0  0  0  0  0  0  0  0  0  0
   37.0390   30.8930   48.7440 C   0  0  0  0  0  0  0  0  0  0  0  0
   36.4030   29.6790   48.7520 N   0  0  0  0  0  0  0  0  0  0  0  0
   36.3290   28.9340   49.8630 C   0  0  0  0  0  0  0  0  0  0  0  0
   36.8790   29.3510   51.0190 N   0  0  0  0  0  0  0  0  0  0  0  0
   38.0030   30.9850   51.9360 H   0  0  0  0  0  0  0  0  0  0  0  0
   38.0860   32.2930   49.8290 H   0  0  0  0  0  0  0  0  0  0  0  0
   35.8230   27.9690   49.8740 H   0  0  0  0  0  0  0  0  0  0  0  0
  2  1  1  0  0  0  0
  2  3  1  0  0  0  0
  3 21  1  0  0  0  0
  4  3  2  0  0  0  0
  4  8  1  0  0  0  0
  5  4  1  0  0  0  0
  6  7  1  0  0  0  0
  6  5  2  0  0  0  0
  7  2  2  0  0  0  0
  9  5  1  0  0  0  0
 10  6  1  0  0  0  0
 11 12  1  0  0  0  0
 11 20  1  0  0  0  0
 12  7  1  0  0  0  0
 13 14  1  0  0  0  0
 13 12  2  0  0  0  0
 15 13  1  0  0  0  0
 16 15  1  0  0  0  0
 17 15  2  0  0  0  0
 17 18  1  0  0  0  0
 18 11  2  0  0  0  0
 20 19  3  0  0  0  0
 21 23  1  0  0  0  0
 23 22  2  1  0  0  0
 23 26  1  0  0  0  0
 24 23  1  0  0  0  0
 25 24  1  0  0  0  0
 26 29  1  0  0  0  0
 27 33  1  0  0  0  0
 28 27  2  0  0  0  0
 29 30  2  0  0  0  0
 29 28  1  0  0  0  0
 30 31  1  0  0  0  0
 31 35  1  0  0  0  0
 31 32  2  0  0  0  0
 32 27  1  0  0  0  0
 34 28  1  0  0  0  0
M  END
>  <minimizedAffinity>
-4.87490988

>  <minimizedRMSD>
0.561522603

$$$$
