
 OpenBabel03272500433D

 34 36  0  0  1  0  0  0  0  0999 V2000
   31.7930   31.7450   45.1290 C   0  0  0  0  0  0  0  0  0  0  0  0
   30.8860   31.3770   44.1240 C   0  0  0  0  0  0  0  0  0  0  0  0
   30.3740   30.0880   44.1470 C   0  0  0  0  0  0  0  0  0  0  0  0
   30.7770   29.2560   45.1390 N   0  0  0  0  0  0  0  0  0  0  0  0
   31.6420   29.6260   46.0870 C   0  0  0  0  0  0  0  0  0  0  0  0
   32.1650   30.8760   46.0990 N   0  0  0  0  0  0  0  0  0  0  0  0
   32.0480   28.7150   47.1250 N   0  0  0  0  0  0  0  0  0  0  0  0
   33.4360   28.5980   47.5310 C   0  0  1  0  0  0  0  0  0  0  0  0
   33.8330   27.2030   47.9370 C   0  0  0  0  0  0  0  0  0  0  0  0
   32.7900   26.2310   47.4090 C   0  0  0  0  0  0  0  0  0  0  0  0
   31.5120   26.5320   48.1570 C   0  0  0  0  0  0  0  0  0  0  0  0
   31.0470   27.9040   47.7680 C   0  0  0  0  0  0  0  0  0  0  0  0
   32.1900   32.7720   45.0960 H   0  0  0  0  0  0  0  0  0  0  0  0
   30.6150   32.1000   43.3680 H   0  0  0  0  0  0  0  0  0  0  0  0
   29.6720   29.7820   43.3810 H   0  0  0  0  0  0  0  0  0  0  0  0
   33.5080   29.2440   48.4560 H   0  0  0  0  0  0  0  0  0  0  0  0
   33.8160   27.0880   49.0400 H   0  0  0  0  0  0  0  0  0  0  0  0
   34.8480   26.9330   47.5970 H   0  0  0  0  0  0  0  0  0  0  0  0
   33.0980   25.1830   47.4410 H   0  0  0  0  0  0  0  0  0  0  0  0
   32.5430   26.4410   46.3260 H   0  0  0  0  0  0  0  0  0  0  0  0
   30.7540   25.7500   48.0880 H   0  0  0  0  0  0  0  0  0  0  0  0
   31.8280   26.6020   49.2360 H   0  0  0  0  0  0  0  0  0  0  0  0
   30.5870   28.4350   48.6460 H   0  0  0  0  0  0  0  0  0  0  0  0
   30.2140   27.7610   47.0480 H   0  0  0  0  0  0  0  0  0  0  0  0
   35.3640   30.0080   46.9450 C   0  0  0  0  0  0  0  0  0  0  0  0
   34.3970   29.0920   46.5340 C   0  0  0  0  0  0  0  0  0  0  0  0
   34.4320   28.7280   45.2040 C   0  0  0  0  0  0  0  0  0  0  0  0
   33.7000   28.0250   44.8580 H   0  0  0  0  0  0  0  0  0  0  0  0
   35.3600   29.2250   44.3050 C   0  0  0  0  0  0  0  0  0  0  0  0
   35.3690   28.9250   43.2640 H   0  0  0  0  0  0  0  0  0  0  0  0
   36.2830   30.1220   44.7750 C   0  0  0  0  0  0  0  0  0  0  0  0
   36.3090   30.5310   46.0870 C   0  0  0  0  0  0  0  0  0  0  0  0
   35.3630   30.7650   49.4400 N   0  0  0  0  0  0  0  0  0  0  0  0
   35.3730   30.4260   48.3370 C   0  0  0  0  0  0  0  0  0  0  0  0
  1  6  1  0  0  0  0
  2  3  1  0  0  0  0
  2  1  2  0  0  0  0
  3  4  2  0  0  0  0
  4  5  1  0  0  0  0
  5  6  2  0  0  0  0
  5  7  1  0  0  0  0
  7  8  1  0  0  0  0
  7 12  1  0  0  0  0
  8  9  1  0  0  0  0
  8 16  1  1  0  0  0
  9 17  1  0  0  0  0
 10 19  1  0  0  0  0
 10  9  1  0  0  0  0
 10 11  1  0  0  0  0
 11 22  1  0  0  0  0
 12 11  1  0  0  0  0
 12 23  1  0  0  0  0
 13  1  1  0  0  0  0
 14  2  1  0  0  0  0
 15  3  1  0  0  0  0
 18  9  1  0  0  0  0
 20 10  1  0  0  0  0
 21 11  1  0  0  0  0
 24 12  1  0  0  0  0
 25 34  1  0  0  0  0
 26 25  1  0  0  0  0
 26  8  1  0  0  0  0
 27 26  2  0  0  0  0
 28 27  1  0  0  0  0
 29 31  2  0  0  0  0
 29 27  1  0  0  0  0
 30 29  1  0  0  0  0
 31 32  1  0  0  0  0
 32 25  2  0  0  0  0
 34 33  3  0  0  0  0
M  END
>  <minimizedAffinity>
-4.13989162

>  <minimizedRMSD>
6.08805609

$$$$
