
 OpenBabel03272503233D

 31 33  0  0  1  0  0  0  0  0999 V2000
   36.3490   29.7680   49.6350 N   0  0  0  0  0  0  0  0  0  0  0  0
   36.7040   30.9390   50.3810 C   0  0  1  0  0  0  0  0  0  0  0  0
   37.3900   30.3930   51.6110 C   0  0  0  0  0  0  0  0  0  0  0  0
   37.1900   28.8760   51.5390 C   0  0  0  0  0  0  0  0  0  0  0  0
   37.2750   28.7240   50.0260 C   0  0  0  0  0  0  0  0  0  0  0  0
   35.7210   31.3480   50.7620 H   0  0  0  0  0  0  0  0  0  0  0  0
   38.4570   30.6530   51.5510 H   0  0  0  0  0  0  0  0  0  0  0  0
   36.9450   30.7470   52.5580 H   0  0  0  0  0  0  0  0  0  0  0  0
   38.0430   28.3520   52.0140 H   0  0  0  0  0  0  0  0  0  0  0  0
   36.2150   28.5820   51.9250 H   0  0  0  0  0  0  0  0  0  0  0  0
   38.2940   28.8440   49.6730 H   0  0  0  0  0  0  0  0  0  0  0  0
   36.8850   27.7300   49.6960 H   0  0  0  0  0  0  0  0  0  0  0  0
   35.2980   29.6350   48.6960 C   0  0  0  0  0  0  0  0  0  0  0  0
   34.7040   30.8240   48.2780 C   0  0  0  0  0  0  0  0  0  0  0  0
   33.6470   30.7540   47.3440 C   0  0  0  0  0  0  0  0  0  0  0  0
   33.2810   29.4890   46.9120 N   0  0  0  0  0  0  0  0  0  0  0  0
   33.8960   28.3690   47.3530 C   0  0  0  0  0  0  0  0  0  0  0  0
   34.9040   28.4450   48.2450 N   0  0  0  0  0  0  0  0  0  0  0  0
   34.9620   31.8250   48.5930 H   0  0  0  0  0  0  0  0  0  0  0  0
   33.1230   31.6240   46.9600 H   0  0  0  0  0  0  0  0  0  0  0  0
   33.5290   27.4350   46.9470 H   0  0  0  0  0  0  0  0  0  0  0  0
   38.0540   31.6370   48.4710 C   0  0  0  0  0  0  0  0  0  0  0  0
   37.4200   31.9800   49.6710 C   0  0  0  0  0  0  0  0  0  0  0  0
   37.5570   33.2900   50.0370 C   0  0  0  0  0  0  0  0  0  0  0  0
   37.0850   33.5990   50.9520 H   0  0  0  0  0  0  0  0  0  0  0  0
   38.2500   34.2340   49.3190 C   0  0  0  0  0  0  0  0  0  0  0  0
   38.3380   35.2660   49.6390 H   0  0  0  0  0  0  0  0  0  0  0  0
   38.8600   33.8600   48.1460 C   0  0  0  0  0  3  0  0  0  0  0  0
   38.7650   32.5360   47.7060 C   0  0  0  0  0  3  0  0  0  0  0  0
   37.9380   29.1910   47.5580 N   0  0  0  0  0  0  0  0  0  0  0  0
   37.9880   30.2820   47.9700 C   0  0  0  0  0  0  0  0  0  0  0  0
  1  5  1  0  0  0  0
  1  2  1  0  0  0  0
  2  6  1  1  0  0  0
  2  3  1  0  0  0  0
  3  8  1  0  0  0  0
  4  3  1  0  0  0  0
  4 10  1  0  0  0  0
  4  9  1  0  0  0  0
  5  4  1  0  0  0  0
  7  3  1  0  0  0  0
 11  5  1  0  0  0  0
 12  5  1  0  0  0  0
 13  1  1  0  0  0  0
 14 19  1  0  0  0  0
 14 13  1  0  0  0  0
 15 14  2  0  0  0  0
 16 15  1  0  0  0  0
 16 17  2  0  0  0  0
 17 18  1  0  0  0  0
 18 13  2  0  0  0  0
 20 15  1  0  0  0  0
 21 17  1  0  0  0  0
 22 23  1  0  0  0  0
 23 24  2  0  0  0  0
 23  2  1  0  0  0  0
 24 25  1  0  0  0  0
 26 27  1  0  0  0  0
 26 24  1  0  0  0  0
 28 26  2  0  0  0  0
 29 28  1  0  0  0  0
 29 22  2  0  0  0  0
 30 31  3  0  0  0  0
 31 22  1  0  0  0  0
M  END
>  <minimizedAffinity>
-1.13715363

>  <minimizedRMSD>
2.71512055

$$$$
