
 OpenBabel03272501083D

 41 44  0  0  1  0  0  0  0  0999 V2000
   38.2510   32.4370   46.4890 O   0  0  0  0  0  0  0  0  0  0  0  0
   38.9300   32.4770   47.6570 C   0  0  2  0  0  0  0  0  0  0  0  0
   37.9820   32.6330   48.8890 C   0  0  2  0  0  0  0  0  0  0  0  0
   38.8690   33.2880   49.8380 C   0  0  0  0  0  0  0  0  0  0  0  0
   39.6940   34.1540   49.1330 O   0  0  0  0  0  0  0  0  0  0  0  0
   39.5870   33.8770   47.8140 C   0  0  0  0  0  0  0  0  0  0  0  0
   39.6800   31.7100   47.8130 H   0  0  0  0  0  0  0  0  0  0  0  0
   37.1930   33.3250   48.5250 H   0  0  0  0  0  0  0  0  0  0  0  0
   39.5250   32.6550   50.4340 H   0  0  0  0  0  0  0  0  0  0  0  0
   38.2520   33.9090   50.5490 H   0  0  0  0  0  0  0  0  0  0  0  0
   40.5910   33.7760   47.3420 H   0  0  0  0  0  0  0  0  0  0  0  0
   38.9580   34.6310   47.3170 H   0  0  0  0  0  0  0  0  0  0  0  0
   37.3430   29.2960   50.5050 C   0  0  0  0  0  0  0  0  0  0  0  0
   38.0000   30.5170   50.1850 C   0  0  0  0  0  0  0  0  0  0  0  0
   37.3610   31.3860   49.2590 C   0  0  0  0  0  0  0  0  0  0  0  0
   36.1520   31.0150   48.7180 N   0  0  0  0  0  0  0  0  0  0  0  0
   35.5740   29.8550   49.0500 C   0  0  0  0  0  0  0  0  0  0  0  0
   36.1440   28.9930   49.9290 N   0  0  0  0  0  0  0  0  0  0  0  0
   37.8570   28.6680   51.2070 H   0  0  0  0  0  0  0  0  0  0  0  0
   38.9490   30.7540   50.6430 H   0  0  0  0  0  0  0  0  0  0  0  0
   34.6260   29.5310   48.6450 H   0  0  0  0  0  0  0  0  0  0  0  0
   40.5420   32.1320   44.4490 Cl  0  0  0  0  0  0  0  0  0  0  0  0
   39.0090   31.2900   44.3920 C   0  0  0  0  0  0  0  0  0  0  0  0
   38.1560   31.6080   45.4300 C   0  0  0  0  0  0  0  0  0  0  0  0
   36.9390   30.9430   45.3910 C   0  0  0  0  0  0  0  0  0  0  0  0
   36.5980   30.0440   44.4100 C   0  0  0  0  0  0  0  0  0  0  0  0
   37.5110   29.7800   43.4050 C   0  0  0  0  0  0  0  0  0  0  0  0
   38.7500   30.4050   43.3730 C   0  0  0  0  0  0  0  0  0  0  0  0
   36.1440   31.0630   46.1170 H   0  0  0  0  0  0  0  0  0  0  0  0
   35.6580   29.5110   44.3560 H   0  0  0  0  0  0  0  0  0  0  0  0
   37.3100   29.0830   42.6010 H   0  0  0  0  0  0  0  0  0  0  0  0
   39.8950   31.0340   41.2540 C   0  0  0  0  0  0  0  0  0  0  0  0
   39.7830   30.2010   42.3640 C   0  0  0  0  0  0  0  0  0  0  0  0
   40.6970   29.1760   42.4610 C   0  0  0  0  0  0  0  0  0  0  0  0
   40.5990   28.5300   43.3340 H   0  0  0  0  0  0  0  0  0  0  0  0
   41.7040   28.9110   41.5560 C   0  0  0  0  0  0  0  0  0  0  0  0
   42.3820   28.0810   41.7090 H   0  0  0  0  0  0  0  0  0  0  0  0
   41.7860   29.7520   40.4720 C   0  0  0  0  0  0  0  0  0  0  0  0
   40.8930   30.7920   40.3320 C   0  0  0  0  0  0  0  0  0  0  0  0
   38.1800   32.9790   41.0200 N   0  0  0  0  0  0  0  0  0  0  0  0
   38.9430   32.1180   41.1340 C   0  0  0  0  0  0  0  0  0  0  0  0
  1  2  1  0  0  0  0
  2  7  1  1  0  0  0
  2  6  1  0  0  0  0
  2  3  1  0  0  0  0
  3  8  1  6  0  0  0
  3 15  1  0  0  0  0
  3  4  1  0  0  0  0
  4  9  1  0  0  0  0
  4 10  1  0  0  0  0
  5  4  1  0  0  0  0
  6  5  1  0  0  0  0
 11  6  1  0  0  0  0
 12  6  1  0  0  0  0
 13 19  1  0  0  0  0
 14 13  1  0  0  0  0
 14 20  1  0  0  0  0
 15 14  2  0  0  0  0
 16 17  2  0  0  0  0
 16 15  1  0  0  0  0
 17 18  1  0  0  0  0
 18 13  2  0  0  0  0
 21 17  1  0  0  0  0
 23 22  1  0  0  0  0
 23 24  1  0  0  0  0
 24  1  1  0  0  0  0
 25 24  2  0  0  0  0
 25 29  1  0  0  0  0
 26 25  1  0  0  0  0
 27 26  2  0  0  0  0
 28 27  1  0  0  0  0
 28 23  2  0  0  0  0
 30 26  1  0  0  0  0
 31 27  1  0  0  0  0
 32 33  1  0  0  0  0
 33 34  2  0  0  0  0
 33 28  1  0  0  0  0
 34 35  1  0  0  0  0
 36 37  1  0  0  0  0
 36 34  1  0  0  0  0
 38 36  2  0  0  0  0
 39 38  1  0  0  0  0
 39 32  2  0  0  0  0
 40 41  3  0  0  0  0
 41 32  1  0  0  0  0
M  END
>  <minimizedAffinity>
-6.2312789

>  <minimizedRMSD>
1.47617829

$$$$
