
 OpenBabel03272509083D

 41 44  0  0  0  0  0  0  0  0999 V2000
   33.2140   28.0110   47.7560 C   0  0  0  0  0  0  0  0  0  0  0  0
   32.5040   28.6810   47.2530 H   0  0  0  0  0  0  0  0  0  0  0  0
   32.6180   27.5390   48.5920 H   0  0  0  0  0  0  0  0  0  0  0  0
   33.6410   26.8700   46.9110 C   0  0  0  0  0  0  0  0  0  0  0  0
   33.8710   25.5940   47.3930 C   0  0  0  0  0  0  0  0  0  0  0  0
   34.2660   24.5910   46.5400 C   0  0  0  0  0  0  0  0  0  0  0  0
   34.4470   24.8130   45.1840 C   0  0  0  0  0  0  0  0  0  0  0  0
   34.2190   26.0700   44.7080 C   0  0  0  0  0  0  0  0  0  0  0  0
   33.8210   27.0950   45.5480 C   0  0  0  0  0  0  0  0  0  0  0  0
   33.7140   25.4840   48.4580 H   0  0  0  0  0  0  0  0  0  0  0  0
   34.4190   23.6410   47.0110 H   0  0  0  0  0  0  0  0  0  0  0  0
   34.7610   23.9380   44.6140 H   0  0  0  0  0  0  0  0  0  0  0  0
   34.3720   26.1950   43.6470 H   0  0  0  0  0  0  0  0  0  0  0  0
   32.3980   28.8970   44.5210 C   0  0  0  0  0  0  0  0  0  0  0  0
   33.6040   28.4090   44.9390 C   0  0  0  0  0  0  0  0  0  0  0  0
   34.7630   29.1720   44.8050 C   0  0  0  0  0  0  0  0  0  0  0  0
   35.7480   28.8240   45.1250 H   0  0  0  0  0  0  0  0  0  0  0  0
   34.7230   30.4380   44.2470 C   0  0  0  0  0  0  0  0  0  0  0  0
   35.6250   31.0270   44.1450 H   0  0  0  0  0  0  0  0  0  0  0  0
   33.4750   30.8970   43.8340 C   0  0  0  0  0  3  0  0  0  0  0  0
   32.3150   30.1590   43.9570 C   0  0  0  0  0  3  0  0  0  0  0  0
   30.3120   27.3630   44.8290 N   0  0  0  0  0  0  0  0  0  0  0  0
   31.2520   28.0560   44.6910 C   0  0  0  0  0  0  0  0  0  0  0  0
   34.9690   28.3950   49.4740 C   0  0  0  0  0  3  0  0  0  0  0  0
   34.3260   28.7230   48.3920 C   0  0  0  0  0  3  0  0  0  0  0  0
   37.3940   30.1470   51.5720 C   0  0  0  0  0  0  0  0  0  0  0  0
   38.0960   30.9170   50.6230 C   0  0  0  0  0  0  0  0  0  0  0  0
   37.7030   30.8070   49.2650 C   0  0  0  0  0  0  0  0  0  0  0  0
   36.6680   29.9610   48.9510 N   0  0  0  0  0  0  0  0  0  0  0  0
   36.0440   29.2530   49.9290 C   0  0  0  0  0  0  0  0  0  0  0  0
   36.3970   29.3420   51.2040 N   0  0  0  0  0  0  0  0  0  0  0  0
   37.7350   30.2690   52.5880 H   0  0  0  0  0  0  0  0  0  0  0  0
   38.9130   31.5920   50.8260 H   0  0  0  0  0  0  0  0  0  0  0  0
   38.3620   31.5600   48.2030 C   0  0  0  0  0  0  0  0  0  0  0  0
   38.5630   31.0180   46.9430 C   0  0  0  0  0  0  0  0  0  0  0  0
   39.2110   31.9880   46.1760 C   0  0  0  0  0  0  0  0  0  0  0  0
   39.3790   33.0740   46.9940 N   0  0  0  0  0  0  0  0  0  0  0  0
   38.8690   32.8040   48.1920 N   0  0  0  0  0  0  0  0  0  0  0  0
   38.3120   30.0490   46.5160 H   0  0  0  0  0  0  0  0  0  0  0  0
   39.5360   31.9410   45.1460 H   0  0  0  0  0  0  0  0  0  0  0  0
   39.8220   34.0020   46.7910 H   0  0  0  0  0  0  0  0  0  0  0  0
  1 25  1  0  0  0  0
  1  3  1  0  0  0  0
  2  1  1  0  0  0  0
  4  5  1  0  0  0  0
  4  1  1  0  0  0  0
  5 10  1  0  0  0  0
  6 11  1  0  0  0  0
  6  5  2  0  0  0  0
  7  6  1  0  0  0  0
  8  7  2  0  0  0  0
  8  9  1  0  0  0  0
  9  4  2  0  0  0  0
 12  7  1  0  0  0  0
 13  8  1  0  0  0  0
 14 23  1  0  0  0  0
 14 15  1  0  0  0  0
 15  9  1  0  0  0  0
 16 15  2  0  0  0  0
 16 17  1  0  0  0  0
 18 16  1  0  0  0  0
 19 18  1  0  0  0  0
 20 21  1  0  0  0  0
 20 18  2  0  0  0  0
 21 14  2  0  0  0  0
 23 22  3  0  0  0  0
 24 30  1  0  0  0  0
 25 24  2  0  0  0  0
 26 32  1  0  0  0  0
 27 33  1  0  0  0  0
 27 26  2  0  0  0  0
 28 27  1  0  0  0  0
 29 28  2  0  0  0  0
 29 30  1  0  0  0  0
 30 31  2  0  0  0  0
 31 26  1  0  0  0  0
 34 28  1  0  0  0  0
 35 34  1  0  0  0  0
 36 35  2  0  0  0  0
 36 37  1  0  0  0  0
 37 38  1  0  0  0  0
 38 34  2  0  0  0  0
 39 35  1  0  0  0  0
 40 36  1  0  0  0  0
 41 37  1  0  0  0  0
M  END
>  <minimizedAffinity>
-6.19244719

>  <minimizedRMSD>
0.60318315

$$$$
