
 OpenBabel03272505123D

 40 43  0  0  0  0  0  0  0  0999 V2000
   34.0770   29.9610   47.5210 S   0  0  0  0  0  0  0  0  0  0  0  0
   36.4180   30.9080   45.7050 Cl  0  0  0  0  0  0  0  0  0  0  0  0
   36.7040   30.7910   47.4210 C   0  0  0  0  0  0  0  0  0  0  0  0
   37.9610   31.1280   47.8830 C   0  0  0  0  0  0  0  0  0  0  0  0
   38.1960   31.0370   49.2510 C   0  0  0  0  0  0  0  0  0  0  0  0
   37.1910   30.6230   50.0900 C   0  0  0  0  0  0  0  0  0  0  0  0
   35.9560   30.3020   49.5600 C   0  0  0  0  0  0  0  0  0  0  0  0
   35.6490   30.3660   48.2230 C   0  0  0  0  0  0  0  0  0  0  0  0
   39.1590   31.2890   49.6500 H   0  0  0  0  0  0  0  0  0  0  0  0
   37.3700   30.5510   51.1560 H   0  0  0  0  0  0  0  0  0  0  0  0
   35.1760   29.9770   50.2400 H   0  0  0  0  0  0  0  0  0  0  0  0
   40.2230   33.3300   46.0720 C   0  0  0  0  0  0  0  0  0  0  0  0
   40.9410   32.4690   45.2150 C   0  0  0  0  0  0  0  0  0  0  0  0
   40.6210   31.1090   45.2820 C   0  0  0  0  0  0  0  0  0  0  0  0
   39.6510   30.6960   46.1540 N   0  0  0  0  0  0  0  0  0  0  0  0
   39.0020   31.5650   46.9450 C   0  0  0  0  0  0  0  0  0  0  0  0
   39.2910   32.8660   46.8990 N   0  0  0  0  0  0  0  0  0  0  0  0
   40.3960   34.4110   46.0990 H   0  0  0  0  0  0  0  0  0  0  0  0
   41.6840   32.9090   44.5700 H   0  0  0  0  0  0  0  0  0  0  0  0
   41.1600   30.4450   44.6350 H   0  0  0  0  0  0  0  0  0  0  0  0
   33.8820   29.1700   44.4850 Cl  0  0  0  0  0  0  0  0  0  0  0  0
   33.8720   27.9600   45.7600 C   0  0  0  0  0  0  0  0  0  0  0  0
   33.9540   28.2150   47.1180 C   0  0  0  0  0  0  0  0  0  0  0  0
   33.9360   27.1780   48.0220 C   0  0  0  0  0  0  0  0  0  0  0  0
   33.8390   25.8910   47.5890 C   0  0  0  0  0  0  0  0  0  0  0  0
   33.7540   25.5740   46.2290 C   0  0  0  0  0  0  0  0  0  0  0  0
   33.7730   26.6280   45.3520 C   0  0  0  0  0  0  0  0  0  0  0  0
   34.0050   27.4800   49.0660 H   0  0  0  0  0  0  0  0  0  0  0  0
   33.8300   25.1200   48.3340 H   0  0  0  0  0  0  0  0  0  0  0  0
   33.6790   24.5440   45.9290 H   0  0  0  0  0  0  0  0  0  0  0  0
   32.3720   26.1730   43.4630 C   0  0  0  0  0  0  0  0  0  0  0  0
   33.6820   26.2370   43.9440 C   0  0  0  0  0  0  0  0  0  0  0  0
   34.7580   25.9450   43.1120 C   0  0  0  0  0  0  0  0  0  0  0  0
   35.7330   26.0170   43.5530 H   0  0  0  0  0  0  0  0  0  0  0  0
   34.4770   25.5940   41.8090 C   0  0  0  0  0  0  0  0  0  0  0  0
   35.3470   25.3750   41.1970 H   0  0  0  0  0  0  0  0  0  0  0  0
   33.2030   25.5180   41.2930 C   0  0  0  0  0  3  0  0  0  0  0  0
   32.1600   25.8140   42.1480 C   0  0  0  0  0  3  0  0  0  0  0  0
   30.3160   26.7170   44.9440 N   0  0  0  0  0  0  0  0  0  0  0  0
   31.2240   26.4670   44.2900 C   0  0  0  0  0  0  0  0  0  0  0  0
  1  8  1  0  0  0  0
  2  3  1  0  0  0  0
  3  4  2  0  0  0  0
  3  8  1  0  0  0  0
  4  5  1  0  0  0  0
  5  9  1  0  0  0  0
  5  6  2  0  0  0  0
  6 10  1  0  0  0  0
  7  6  1  0  0  0  0
  7 11  1  0  0  0  0
  8  7  2  0  0  0  0
 12 18  1  0  0  0  0
 12 17  1  0  0  0  0
 13 14  1  0  0  0  0
 13 12  2  0  0  0  0
 14 15  2  0  0  0  0
 15 16  1  0  0  0  0
 16  4  1  0  0  0  0
 17 16  2  0  0  0  0
 19 13  1  0  0  0  0
 20 14  1  0  0  0  0
 21 22  1  0  0  0  0
 22 23  1  0  0  0  0
 23  1  1  0  0  0  0
 23 24  2  0  0  0  0
 24 28  1  0  0  0  0
 25 24  1  0  0  0  0
 25 29  1  0  0  0  0
 26 25  2  0  0  0  0
 27 22  2  0  0  0  0
 27 26  1  0  0  0  0
 30 26  1  0  0  0  0
 31 32  1  0  0  0  0
 31 40  1  0  0  0  0
 32 27  1  0  0  0  0
 33 34  1  0  0  0  0
 33 32  2  0  0  0  0
 35 33  1  0  0  0  0
 36 35  1  0  0  0  0
 37 35  2  0  0  0  0
 37 38  1  0  0  0  0
 38 31  2  0  0  0  0
 40 39  3  0  0  0  0
M  END
>  <minimizedAffinity>
-5.51516914

>  <minimizedRMSD>
0.904816568

$$$$
