
 OpenBabel03272507393D

 35 37  0  0  0  0  0  0  0  0999 V2000
   38.7020   30.9270   44.5910 C   0  0  0  0  0  0  0  0  0  0  0  0
   38.1940   31.4160   45.7660 C   0  0  0  0  0  0  0  0  0  0  0  0
   38.8560   32.4170   46.4580 C   0  0  0  0  0  0  0  0  0  0  0  0
   40.0450   32.9290   45.9550 C   0  0  0  0  0  0  0  0  0  0  0  0
   40.5570   32.4300   44.7620 C   0  0  0  0  0  0  0  0  0  0  0  0
   39.8740   31.4270   44.0900 C   0  0  0  0  0  0  0  0  0  0  0  0
   38.5140   32.8470   47.3870 H   0  0  0  0  0  0  0  0  0  0  0  0
   40.5810   33.7160   46.4830 H   0  0  0  0  0  0  0  0  0  0  0  0
   41.4820   32.7960   44.3270 H   0  0  0  0  0  0  0  0  0  0  0  0
   39.9580   31.4520   41.6430 C   0  0  0  0  0  0  0  0  0  0  0  0
   40.3440   30.8450   42.8260 C   0  0  0  0  0  0  0  0  0  0  0  0
   41.1510   29.7150   42.8820 C   0  0  0  0  0  0  0  0  0  0  0  0
   41.3980   29.3130   43.8670 H   0  0  0  0  0  0  0  0  0  0  0  0
   41.5810   29.1860   41.6840 C   0  0  0  0  0  0  0  0  0  0  0  0
   42.2000   28.3190   41.7120 H   0  0  0  0  0  0  0  0  0  0  0  0
   41.2020   29.7830   40.4960 C   0  0  0  0  0  0  0  0  0  0  0  0
   40.3940   30.9120   40.4470 C   0  0  0  0  0  0  0  0  0  0  0  0
   38.4500   33.5790   41.7410 N   0  0  0  0  0  0  0  0  0  0  0  0
   39.1120   32.6300   41.6960 C   0  0  0  0  0  0  0  0  0  0  0  0
   37.3580   29.0710   43.4090 N   0  0  0  0  0  0  0  0  0  0  0  0
   37.9500   29.8920   43.9430 C   0  0  0  0  0  0  0  0  0  0  0  0
   37.0320   31.0080   46.3840 O   0  0  0  0  0  0  0  0  0  0  0  0
   36.9410   30.6120   47.6820 C   0  0  0  0  0  0  0  0  0  0  0  0
   35.6180   30.4610   48.0860 C   0  0  0  0  0  0  0  0  0  0  0  0
   35.3090   30.0640   49.3710 C   0  0  0  0  0  0  0  0  0  0  0  0
   36.3680   29.8290   50.2210 N   0  0  0  0  0  0  0  0  0  0  0  0
   37.6480   29.9800   49.8110 C   0  0  0  0  0  0  0  0  0  0  0  0
   37.9160   30.3610   48.5770 N   0  0  0  0  0  0  0  0  0  0  0  0
   34.3400   29.9220   49.7770 H   0  0  0  0  0  0  0  0  0  0  0  0
   38.5270   29.8170   50.4030 H   0  0  0  0  0  0  0  0  0  0  0  0
   33.8280   29.5170   46.7110 C   0  0  0  0  0  0  0  0  0  0  0  0
   34.1290   28.2660   46.5750 O   0  0  0  0  0  0  0  0  0  0  0  0
   34.4800   30.6450   47.2940 N   0  0  0  0  0  0  0  0  0  0  0  0
   33.0390   28.9830   46.1970 H   0  0  0  0  0  0  0  0  0  0  0  0
   33.8210   31.3090   46.8770 H   0  0  0  0  0  0  0  0  0  0  0  0
  1  2  1  0  0  0  0
  2 22  1  0  0  0  0
  2  3  2  0  0  0  0
  3  7  1  0  0  0  0
  4  3  1  0  0  0  0
  4  8  1  0  0  0  0
  5  4  2  0  0  0  0
  6  1  2  0  0  0  0
  6  5  1  0  0  0  0
  9  5  1  0  0  0  0
 10 19  1  0  0  0  0
 10 11  1  0  0  0  0
 11 12  2  0  0  0  0
 11  6  1  0  0  0  0
 12 13  1  0  0  0  0
 14 15  1  0  0  0  0
 14 12  1  0  0  0  0
 16 14  2  0  0  0  0
 17 16  1  0  0  0  0
 17 10  2  0  0  0  0
 19 18  3  0  0  0  0
 20 21  3  0  0  0  0
 21  1  1  0  0  0  0
 22 23  1  0  0  0  0
 23 24  2  0  0  0  0
 23 28  1  0  0  0  0
 24 25  1  0  0  0  0
 25 29  1  0  0  0  0
 25 26  2  0  0  0  0
 27 26  1  0  0  0  0
 27 30  1  0  0  0  0
 28 27  2  0  0  0  0
 31 33  1  0  0  0  0
 32 31  2  0  0  0  0
 33 24  1  0  0  0  0
 34 31  1  0  0  0  0
 35 33  1  0  0  0  0
M  END
>  <minimizedAffinity>
-5.76887989

>  <minimizedRMSD>
2.94104218

$$$$
