
 OpenBabel03262520133D

 43 45  0  0  0  0  0  0  0  0999 V2000
   35.3170   30.4240   49.5110 C   0  0  0  0  0  0  0  0  0  0  0  0
   34.9410   31.4280   49.8680 H   0  0  0  0  0  0  0  0  0  0  0  0
   36.2100   30.2120   50.1450 H   0  0  0  0  0  0  0  0  0  0  0  0
   38.2040   31.5970   48.9880 Br  0  0  0  0  0  0  0  0  0  0  0  0
   36.9500   30.9460   47.6750 C   0  0  0  0  0  0  0  0  0  0  0  0
   37.2690   30.9600   46.3410 C   0  0  0  0  0  0  0  0  0  0  0  0
   36.3370   30.4950   45.4530 C   0  0  0  0  0  0  0  0  0  0  0  0
   35.0970   30.0190   45.8580 C   0  0  0  0  0  0  0  0  0  0  0  0
   34.8130   30.0240   47.2280 C   0  0  0  0  0  0  0  0  0  0  0  0
   35.7420   30.4860   48.1160 C   0  0  0  0  0  0  0  0  0  0  0  0
   36.6460   30.5290   44.3970 H   0  0  0  0  0  0  0  0  0  0  0  0
   34.4910   29.6960   45.0400 H   0  0  0  0  0  0  0  0  0  0  0  0
   33.8260   29.6400   47.3240 H   0  0  0  0  0  0  0  0  0  0  0  0
   39.7790   33.2590   45.0150 C   0  0  0  0  0  0  0  0  0  0  0  0
   40.9750   32.4670   44.9880 C   0  0  0  0  0  0  0  0  0  0  0  0
   40.8740   31.1710   45.4260 C   0  0  0  0  0  0  0  0  0  0  0  0
   39.6660   30.6750   45.8690 N   0  0  0  0  0  0  0  0  0  0  0  0
   38.5690   31.4600   45.8750 C   0  0  0  0  0  0  0  0  0  0  0  0
   38.6550   32.7210   45.4510 N   0  0  0  0  0  0  0  0  0  0  0  0
   39.8050   34.2870   44.6800 H   0  0  0  0  0  0  0  0  0  0  0  0
   41.8510   32.9470   44.6290 H   0  0  0  0  0  0  0  0  0  0  0  0
   41.7610   30.5560   45.4150 H   0  0  0  0  0  0  0  0  0  0  0  0
   34.2690   29.4330   49.8590 C   0  0  0  0  0  0  0  0  0  0  0  0
   33.2710   29.8010   49.7180 H   0  0  0  0  0  0  0  0  0  0  0  0
   34.3560   29.3460   50.9990 H   0  0  0  0  0  0  0  0  0  0  0  0
   34.6530   28.1560   49.3850 N   0  0  0  0  0  0  0  0  0  0  0  0
   35.5390   28.1780   48.8360 H   0  0  0  0  0  0  0  0  0  0  0  0
   33.6770   27.3880   48.7000 C   0  0  0  0  0  0  0  0  0  0  0  0
   33.7350   26.3140   48.9610 H   0  0  0  0  0  0  0  0  0  0  0  0
   33.8400   27.4270   47.5970 H   0  0  0  0  0  0  0  0  0  0  0  0
   32.3250   27.9390   49.0290 C   0  0  0  0  0  0  0  0  0  0  0  0
   31.8460   27.4120   49.8860 H   0  0  0  0  0  0  0  0  0  0  0  0
   32.1630   29.0010   49.0130 H   0  0  0  0  0  0  0  0  0  0  0  0
   30.1720   27.0580   48.1190 C   0  0  0  0  0  0  0  0  0  0  0  0
   31.4660   27.4760   47.8430 C   0  0  0  0  0  0  0  0  0  0  0  0
   31.9080   27.4500   46.5400 C   0  0  0  0  0  0  0  0  0  0  0  0
   32.9190   27.7810   46.3520 H   0  0  0  0  0  0  0  0  0  0  0  0
   31.0350   27.0090   45.5790 C   0  0  0  0  0  0  0  0  0  0  0  0
   31.3670   26.9830   44.5480 H   0  0  0  0  0  0  0  0  0  0  0  0
   29.7500   26.5920   45.8360 C   0  0  0  0  0  0  0  0  0  0  0  0
   29.3030   26.6160   47.1410 C   0  0  0  0  0  0  0  0  0  0  0  0
   29.2200   27.0810   50.5330 N   0  0  0  0  0  0  0  0  0  0  0  0
   29.6400   27.0610   49.4600 C   0  0  0  0  0  0  0  0  0  0  0  0
  1 23  1  0  0  0  0
  1  2  1  0  0  0  0
  1  3  1  0  0  0  0
  5 10  1  0  0  0  0
  5  4  1  0  0  0  0
  6  5  2  0  0  0  0
  7  8  2  0  0  0  0
  7  6  1  0  0  0  0
  8  9  1  0  0  0  0
  9 13  1  0  0  0  0
  9 10  2  0  0  0  0
 10  1  1  0  0  0  0
 11  7  1  0  0  0  0
 12  8  1  0  0  0  0
 14 19  1  0  0  0  0
 15 14  2  0  0  0  0
 15 16  1  0  0  0  0
 16 17  2  0  0  0  0
 17 18  1  0  0  0  0
 18  6  1  0  0  0  0
 19 18  2  0  0  0  0
 20 14  1  0  0  0  0
 21 15  1  0  0  0  0
 22 16  1  0  0  0  0
 23 25  1  0  0  0  0
 24 23  1  0  0  0  0
 26 23  1  0  0  0  0
 27 26  1  0  0  0  0
 28 29  1  0  0  0  0
 28 31  1  0  0  0  0
 28 26  1  0  0  0  0
 30 28  1  0  0  0  0
 31 32  1  0  0  0  0
 33 31  1  0  0  0  0
 34 43  1  0  0  0  0
 35 34  1  0  0  0  0
 35 31  1  0  0  0  0
 36 35  2  0  0  0  0
 37 36  1  0  0  0  0
 38 40  2  0  0  0  0
 38 36  1  0  0  0  0
 39 38  1  0  0  0  0
 40 41  1  0  0  0  0
 41 34  2  0  0  0  0
 43 42  3  0  0  0  0
M  END
>  <minimizedAffinity>
-5.643682

>  <minimizedRMSD>
0.904098034

$$$$
