
 OpenBabel03272501093D

 41 44  0  0  1  0  0  0  0  0999 V2000
   38.0190   32.3520   46.1160 O   0  0  0  0  0  0  0  0  0  0  0  0
   38.7950   32.3330   47.2230 C   0  0  2  0  0  0  0  0  0  0  0  0
   37.9630   32.5080   48.5340 C   0  0  2  0  0  0  0  0  0  0  0  0
   38.9590   33.0980   49.4150 C   0  0  0  0  0  0  0  0  0  0  0  0
   39.7640   33.9380   48.6580 O   0  0  0  0  0  0  0  0  0  0  0  0
   39.5330   33.6950   47.3470 C   0  0  0  0  0  0  0  0  0  0  0  0
   39.5150   31.5260   47.3010 H   0  0  0  0  0  0  0  0  0  0  0  0
   37.1820   33.2460   48.2500 H   0  0  0  0  0  0  0  0  0  0  0  0
   39.6290   32.4210   49.9410 H   0  0  0  0  0  0  0  0  0  0  0  0
   38.4350   33.7330   50.1860 H   0  0  0  0  0  0  0  0  0  0  0  0
   40.4870   33.5560   46.7910 H   0  0  0  0  0  0  0  0  0  0  0  0
   38.9040   34.4900   46.9190 H   0  0  0  0  0  0  0  0  0  0  0  0
   37.2280   29.2450   50.2550 C   0  0  0  0  0  0  0  0  0  0  0  0
   37.9130   30.4430   49.9070 C   0  0  0  0  0  0  0  0  0  0  0  0
   37.3130   31.2850   48.9330 C   0  0  0  0  0  0  0  0  0  0  0  0
   36.1130   30.9120   48.3740 N   0  0  0  0  0  0  0  0  0  0  0  0
   35.5080   29.7750   48.7330 C   0  0  0  0  0  0  0  0  0  0  0  0
   36.0400   28.9390   49.6580 N   0  0  0  0  0  0  0  0  0  0  0  0
   37.7130   28.6360   50.9940 H   0  0  0  0  0  0  0  0  0  0  0  0
   38.8530   30.6830   50.3820 H   0  0  0  0  0  0  0  0  0  0  0  0
   34.5650   29.4500   48.3150 H   0  0  0  0  0  0  0  0  0  0  0  0
   39.3370   33.2750   43.4870 Cl  0  0  0  0  0  0  0  0  0  0  0  0
   38.3850   31.8210   43.6920 C   0  0  0  0  0  0  0  0  0  0  0  0
   37.9080   31.6410   44.9760 C   0  0  0  0  0  0  0  0  0  0  0  0
   37.1520   30.4900   45.1460 C   0  0  0  0  0  0  0  0  0  0  0  0
   36.8930   29.5970   44.1340 C   0  0  0  0  0  0  0  0  0  0  0  0
   37.4090   29.8520   42.8760 C   0  0  0  0  0  0  0  0  0  0  0  0
   38.1740   30.9820   42.6250 C   0  0  0  0  0  0  0  0  0  0  0  0
   36.6960   30.1810   46.0790 H   0  0  0  0  0  0  0  0  0  0  0  0
   36.3090   28.6930   44.2390 H   0  0  0  0  0  0  0  0  0  0  0  0
   37.2450   29.1920   42.0340 H   0  0  0  0  0  0  0  0  0  0  0  0
   40.0170   30.8780   40.9540 C   0  0  0  0  0  0  0  0  0  0  0  0
   38.7640   31.3450   41.3420 C   0  0  0  0  0  0  0  0  0  0  0  0
   38.1090   32.1680   40.4530 C   0  0  0  0  0  0  0  0  0  0  0  0
   37.1280   32.5280   40.7680 H   0  0  0  0  0  0  0  0  0  0  0  0
   38.5900   32.5630   39.2220 C   0  0  0  0  0  0  0  0  0  0  0  0
   38.0080   33.2140   38.5820 H   0  0  0  0  0  0  0  0  0  0  0  0
   39.8290   32.0840   38.8700 C   0  0  0  0  0  3  0  0  0  0  0  0
   40.5210   31.2570   39.7260 C   0  0  0  0  0  3  0  0  0  0  0  0
   41.2990   29.3300   42.6070 N   0  0  0  0  0  0  0  0  0  0  0  0
   40.7200   30.0130   41.8740 C   0  0  0  0  0  0  0  0  0  0  0  0
  1  2  1  0  0  0  0
  2  7  1  1  0  0  0
  2  6  1  0  0  0  0
  2  3  1  0  0  0  0
  3  8  1  6  0  0  0
  3 15  1  0  0  0  0
  3  4  1  0  0  0  0
  4  9  1  0  0  0  0
  4 10  1  0  0  0  0
  5  4  1  0  0  0  0
  6  5  1  0  0  0  0
 11  6  1  0  0  0  0
 12  6  1  0  0  0  0
 13 19  1  0  0  0  0
 14 13  1  0  0  0  0
 14 20  1  0  0  0  0
 15 14  2  0  0  0  0
 16 17  2  0  0  0  0
 16 15  1  0  0  0  0
 17 18  1  0  0  0  0
 18 13  2  0  0  0  0
 21 17  1  0  0  0  0
 22 23  1  0  0  0  0
 23 24  1  0  0  0  0
 24 25  2  0  0  0  0
 24  1  1  0  0  0  0
 25 29  1  0  0  0  0
 26 30  1  0  0  0  0
 26 25  1  0  0  0  0
 27 26  2  0  0  0  0
 28 27  1  0  0  0  0
 28 23  2  0  0  0  0
 31 27  1  0  0  0  0
 32 33  1  0  0  0  0
 32 41  1  0  0  0  0
 33 28  1  0  0  0  0
 34 35  1  0  0  0  0
 34 33  2  0  0  0  0
 36 34  1  0  0  0  0
 37 36  1  0  0  0  0
 38 36  2  0  0  0  0
 38 39  1  0  0  0  0
 39 32  2  0  0  0  0
 41 40  3  0  0  0  0
M  END
>  <minimizedAffinity>
-5.23326015

>  <minimizedRMSD>
2.58770967

$$$$
