
 OpenBabel03272505153D

 29 31  0  0  0  0  0  0  0  0999 V2000
   37.8620   23.0630   33.4800 Cl  0  0  0  0  0  0  0  0  0  0  0  0
   36.8350   24.0410   32.4640 C   0  0  0  0  0  0  0  0  0  0  0  0
   35.9820   23.4540   31.6000 C   0  0  0  0  0  0  0  0  0  0  0  0
   35.2100   24.3180   30.8400 C   0  0  0  0  0  0  0  0  0  0  0  0
   35.2540   25.6740   30.9030 C   0  0  0  0  0  0  0  0  0  0  0  0
   36.1380   26.2360   31.7960 C   0  0  0  0  0  0  0  0  0  0  0  0
   36.9480   25.4190   32.5970 C   0  0  0  0  0  0  0  0  0  0  0  0
   34.5020   23.8760   30.1240 H   0  0  0  0  0  0  0  0  0  0  0  0
   34.6250   26.3020   30.2810 H   0  0  0  0  0  0  0  0  0  0  0  0
   36.2490   27.3090   31.9230 H   0  0  0  0  0  0  0  0  0  0  0  0
   34.9500   19.8620   32.1420 C   0  0  0  0  0  0  0  0  0  0  0  0
   34.9800   21.2620   32.2400 C   0  0  0  0  0  0  0  0  0  0  0  0
   35.9240   22.0110   31.5210 C   0  0  0  0  0  0  0  0  0  0  0  0
   36.7750   21.3080   30.7510 N   0  0  0  0  0  0  0  0  0  0  0  0
   36.7460   19.9690   30.6570 C   0  0  0  0  0  0  0  0  0  0  0  0
   35.8410   19.2450   31.3460 N   0  0  0  0  0  0  0  0  0  0  0  0
   34.1650   19.4590   32.7590 H   0  0  0  0  0  0  0  0  0  0  0  0
   34.3160   21.8580   32.8460 H   0  0  0  0  0  0  0  0  0  0  0  0
   37.4210   19.3910   30.0450 H   0  0  0  0  0  0  0  0  0  0  0  0
   39.2120   26.3130   33.2870 C   0  0  0  0  0  0  0  0  0  0  0  0
   37.8850   26.0320   33.5440 C   0  0  0  0  0  0  0  0  0  0  0  0
   37.3050   26.3160   34.7650 C   0  0  0  0  0  0  0  0  0  0  0  0
   36.2690   26.1200   35.0300 H   0  0  0  0  0  0  0  0  0  0  0  0
   38.1030   26.9030   35.7460 C   0  0  0  0  0  0  0  0  0  0  0  0
   37.6980   27.1530   36.7380 H   0  0  0  0  0  0  0  0  0  0  0  0
   39.4340   27.1880   35.4950 C   0  0  0  0  0  3  0  0  0  0  0  0
   40.0100   26.8950   34.2530 C   0  0  0  0  0  3  0  0  0  0  0  0
   40.1170   25.6810   30.9170 N   0  0  0  0  0  0  0  0  0  0  0  0
   39.7040   25.9700   31.9730 C   0  0  0  0  0  0  0  0  0  0  0  0
  2  7  1  0  0  0  0
  2  1  1  0  0  0  0
  3  2  2  0  0  0  0
  4  5  2  0  0  0  0
  4  3  1  0  0  0  0
  5  6  1  0  0  0  0
  6 10  1  0  0  0  0
  6  7  2  0  0  0  0
  7 21  1  0  0  0  0
  8  4  1  0  0  0  0
  9  5  1  0  0  0  0
 11 12  1  0  0  0  0
 11 17  1  0  0  0  0
 12 18  1  0  0  0  0
 13  3  1  0  0  0  0
 13 12  2  0  0  0  0
 14 13  1  0  0  0  0
 15 14  2  0  0  0  0
 15 16  1  0  0  0  0
 16 11  2  0  0  0  0
 19 15  1  0  0  0  0
 20 21  2  0  0  0  0
 20 27  1  0  0  0  0
 21 22  1  0  0  0  0
 22 23  1  0  0  0  0
 22 24  2  0  0  0  0
 24 25  1  0  0  0  0
 26 24  1  0  0  0  0
 27 26  2  0  0  0  0
 28 29  3  0  0  0  0
 29 20  1  0  0  0  0
M  END
>  <minimizedAffinity>
-5.46889162

$$$$

 OpenBabel03272505153D

 29 31  0  0  0  0  0  0  0  0999 V2000
   37.9200   23.0490   33.6810 Cl  0  0  0  0  0  0  0  0  0  0  0  0
   36.9500   24.0280   32.6130 C   0  0  0  0  0  0  0  0  0  0  0  0
   36.9880   25.3730   32.7070 C   0  0  0  0  0  0  0  0  0  0  0  0
   36.1810   26.0600   31.8130 C   0  0  0  0  0  0  0  0  0  0  0  0
   35.3790   25.4870   30.8790 C   0  0  0  0  0  0  0  0  0  0  0  0
   35.3660   24.1120   30.8140 C   0  0  0  0  0  0  0  0  0  0  0  0
   36.1600   23.3560   31.6890 C   0  0  0  0  0  0  0  0  0  0  0  0
   36.1850   27.1580   31.8590 H   0  0  0  0  0  0  0  0  0  0  0  0
   34.7660   26.0760   30.2030 H   0  0  0  0  0  0  0  0  0  0  0  0
   34.7600   23.5590   30.1020 H   0  0  0  0  0  0  0  0  0  0  0  0
   38.2070   26.9640   35.9070 C   0  0  0  0  0  0  0  0  0  0  0  0
   37.3590   26.3580   34.9670 C   0  0  0  0  0  0  0  0  0  0  0  0
   37.8360   25.9970   33.6980 C   0  0  0  0  0  0  0  0  0  0  0  0
   39.1320   26.2670   33.4550 N   0  0  0  0  0  0  0  0  0  0  0  0
   39.9430   26.8450   34.3540 C   0  0  0  0  0  0  0  0  0  0  0  0
   39.4890   27.1940   35.5750 N   0  0  0  0  0  0  0  0  0  0  0  0
   37.6720   27.1690   36.8200 H   0  0  0  0  0  0  0  0  0  0  0  0
   36.3160   26.1280   35.1260 H   0  0  0  0  0  0  0  0  0  0  0  0
   40.9840   27.0680   34.1750 H   0  0  0  0  0  0  0  0  0  0  0  0
   37.0750   21.1120   30.9640 C   0  0  0  0  0  0  0  0  0  0  0  0
   36.1360   21.8930   31.6080 C   0  0  0  0  0  0  0  0  0  0  0  0
   35.0500   21.3360   32.2560 C   0  0  0  0  0  0  0  0  0  0  0  0
   34.2780   21.8940   32.7800 H   0  0  0  0  0  0  0  0  0  0  0  0
   34.9240   19.9480   32.2460 C   0  0  0  0  0  0  0  0  0  0  0  0
   34.0820   19.4460   32.7450 H   0  0  0  0  0  0  0  0  0  0  0  0
   35.8630   19.1600   31.6020 C   0  0  0  0  0  3  0  0  0  0  0  0
   36.9590   19.7360   30.9490 C   0  0  0  0  0  3  0  0  0  0  0  0
   39.0370   22.3880   29.7980 N   0  0  0  0  0  0  0  0  0  0  0  0
   38.1660   21.8090   30.3220 C   0  0  0  0  0  0  0  0  0  0  0  0
  2  3  1  0  0  0  0
  2  1  1  0  0  0  0
  3 13  1  0  0  0  0
  4  8  1  0  0  0  0
  4  3  2  0  0  0  0
  5  4  1  0  0  0  0
  6  5  2  0  0  0  0
  6  7  1  0  0  0  0
  7  2  2  0  0  0  0
  9  5  1  0  0  0  0
 10  6  1  0  0  0  0
 11 17  1  0  0  0  0
 12 18  1  0  0  0  0
 12 11  2  0  0  0  0
 13 12  1  0  0  0  0
 14 13  2  0  0  0  0
 14 15  1  0  0  0  0
 15 16  2  0  0  0  0
 16 11  1  0  0  0  0
 19 15  1  0  0  0  0
 20 21  1  0  0  0  0
 21  7  1  0  0  0  0
 21 22  2  0  0  0  0
 22 23  1  0  0  0  0
 24 22  1  0  0  0  0
 24 25  1  0  0  0  0
 26 24  2  0  0  0  0
 27 20  2  0  0  0  0
 27 26  1  0  0  0  0
 28 29  3  0  0  0  0
 29 20  1  0  0  0  0
M  END
>  <minimizedAffinity>
-5.27594137

$$$$

 OpenBabel03272505153D

 29 31  0  0  0  0  0  0  0  0999 V2000
   36.2780   28.0930   34.5560 Cl  0  0  0  0  0  0  0  0  0  0  0  0
   36.1600   29.0410   33.0970 C   0  0  0  0  0  0  0  0  0  0  0  0
   36.6920   28.5810   31.9460 C   0  0  0  0  0  0  0  0  0  0  0  0
   36.5450   29.4080   30.8440 C   0  0  0  0  0  0  0  0  0  0  0  0
   35.9210   30.6150   30.8450 C   0  0  0  0  0  0  0  0  0  0  0  0
   35.3920   31.0510   32.0380 C   0  0  0  0  0  0  0  0  0  0  0  0
   35.5050   30.2620   33.1920 C   0  0  0  0  0  0  0  0  0  0  0  0
   36.9650   29.0670   29.8880 H   0  0  0  0  0  0  0  0  0  0  0  0
   35.8350   31.2220   29.9500 H   0  0  0  0  0  0  0  0  0  0  0  0
   34.8740   32.0000   32.1440 H   0  0  0  0  0  0  0  0  0  0  0  0
   39.3670   25.9190   32.0860 C   0  0  0  0  0  0  0  0  0  0  0  0
   38.7470   27.1780   32.1080 C   0  0  0  0  0  0  0  0  0  0  0  0
   37.3600   27.2990   31.9300 C   0  0  0  0  0  0  0  0  0  0  0  0
   36.6870   26.1490   31.7410 N   0  0  0  0  0  0  0  0  0  0  0  0
   37.2790   24.9450   31.7200 C   0  0  0  0  0  0  0  0  0  0  0  0
   38.6110   24.8240   31.8910 N   0  0  0  0  0  0  0  0  0  0  0  0
   40.4290   26.0190   32.2390 H   0  0  0  0  0  0  0  0  0  0  0  0
   39.2550   28.1190   32.2550 H   0  0  0  0  0  0  0  0  0  0  0  0
   36.7530   24.0150   31.5710 H   0  0  0  0  0  0  0  0  0  0  0  0
   33.6550   30.4880   34.9020 C   0  0  0  0  0  0  0  0  0  0  0  0
   34.9360   30.7400   34.4560 C   0  0  0  0  0  0  0  0  0  0  0  0
   35.8270   31.4960   35.1940 C   0  0  0  0  0  0  0  0  0  0  0  0
   36.8460   31.7310   34.9000 H   0  0  0  0  0  0  0  0  0  0  0  0
   35.3940   32.0040   36.4180 C   0  0  0  0  0  0  0  0  0  0  0  0
   36.0570   32.6120   37.0520 H   0  0  0  0  0  0  0  0  0  0  0  0
   34.1100   31.7540   36.8710 C   0  0  0  0  0  3  0  0  0  0  0  0
   33.2180   30.9870   36.1140 C   0  0  0  0  0  3  0  0  0  0  0  0
   32.1470   29.0410   33.3310 N   0  0  0  0  0  0  0  0  0  0  0  0
   32.8160   29.6850   34.0430 C   0  0  0  0  0  0  0  0  0  0  0  0
  2  7  1  0  0  0  0
  2  1  1  0  0  0  0
  3  2  2  0  0  0  0
  4  5  2  0  0  0  0
  4  3  1  0  0  0  0
  5  6  1  0  0  0  0
  6 10  1  0  0  0  0
  6  7  2  0  0  0  0
  7 21  1  0  0  0  0
  8  4  1  0  0  0  0
  9  5  1  0  0  0  0
 11 12  1  0  0  0  0
 11 17  1  0  0  0  0
 12 18  1  0  0  0  0
 13  3  1  0  0  0  0
 13 12  2  0  0  0  0
 14 13  1  0  0  0  0
 15 14  2  0  0  0  0
 15 16  1  0  0  0  0
 16 11  2  0  0  0  0
 19 15  1  0  0  0  0
 20 27  1  0  0  0  0
 21 20  2  0  0  0  0
 21 22  1  0  0  0  0
 22 24  2  0  0  0  0
 23 22  1  0  0  0  0
 24 26  1  0  0  0  0
 24 25  1  0  0  0  0
 27 26  2  0  0  0  0
 28 29  3  0  0  0  0
 29 20  1  0  0  0  0
M  END
>  <minimizedAffinity>
-5.21728325

$$$$

 OpenBabel03272505153D

 29 31  0  0  0  0  0  0  0  0999 V2000
   39.6170   24.8810   32.2940 Cl  0  0  0  0  0  0  0  0  0  0  0  0
   38.9260   25.8310   33.5830 C   0  0  0  0  0  0  0  0  0  0  0  0
   37.5920   26.0240   33.6400 C   0  0  0  0  0  0  0  0  0  0  0  0
   37.1420   26.7930   34.7030 C   0  0  0  0  0  0  0  0  0  0  0  0
   37.9300   27.3480   35.6600 C   0  0  0  0  0  0  0  0  0  0  0  0
   39.2860   27.1300   35.5670 C   0  0  0  0  0  0  0  0  0  0  0  0
   39.8070   26.3600   34.5170 C   0  0  0  0  0  0  0  0  0  0  0  0
   36.0610   26.9720   34.7840 H   0  0  0  0  0  0  0  0  0  0  0  0
   37.5220   27.9430   36.4710 H   0  0  0  0  0  0  0  0  0  0  0  0
   40.0000   27.5290   36.2810 H   0  0  0  0  0  0  0  0  0  0  0  0
   35.1470   25.6300   30.7900 C   0  0  0  0  0  0  0  0  0  0  0  0
   35.9640   26.2260   31.7630 C   0  0  0  0  0  0  0  0  0  0  0  0
   36.7400   25.4410   32.6280 C   0  0  0  0  0  0  0  0  0  0  0  0
   36.6450   24.1080   32.4620 N   0  0  0  0  0  0  0  0  0  0  0  0
   35.8640   23.5370   31.5330 C   0  0  0  0  0  0  0  0  0  0  0  0
   35.1160   24.2880   30.6980 N   0  0  0  0  0  0  0  0  0  0  0  0
   34.6280   26.3830   30.2210 H   0  0  0  0  0  0  0  0  0  0  0  0
   36.0650   27.2890   31.9250 H   0  0  0  0  0  0  0  0  0  0  0  0
   35.7770   22.4720   31.3870 H   0  0  0  0  0  0  0  0  0  0  0  0
   41.9220   25.0330   34.9220 C   0  0  0  0  0  0  0  0  0  0  0  0
   41.2540   26.1360   34.4310 C   0  0  0  0  0  0  0  0  0  0  0  0
   41.9190   27.1640   33.7910 C   0  0  0  0  0  0  0  0  0  0  0  0
   41.4530   28.0570   33.3830 H   0  0  0  0  0  0  0  0  0  0  0  0
   43.3020   27.0580   33.6500 C   0  0  0  0  0  0  0  0  0  0  0  0
   43.8880   27.8430   33.1500 H   0  0  0  0  0  0  0  0  0  0  0  0
   43.9780   25.9540   34.1400 C   0  0  0  0  0  3  0  0  0  0  0  0
   43.2920   24.9200   34.7870 C   0  0  0  0  0  3  0  0  0  0  0  0
   40.4500   23.2130   36.0870 N   0  0  0  0  0  0  0  0  0  0  0  0
   41.1180   24.0240   35.5720 C   0  0  0  0  0  0  0  0  0  0  0  0
  1  2  1  0  0  0  0
  2  3  2  0  0  0  0
  2  7  1  0  0  0  0
  3  4  1  0  0  0  0
  4  8  1  0  0  0  0
  4  5  2  0  0  0  0
  5  9  1  0  0  0  0
  6  5  1  0  0  0  0
  6 10  1  0  0  0  0
  7  6  2  0  0  0  0
 11 12  1  0  0  0  0
 12 18  1  0  0  0  0
 12 13  2  0  0  0  0
 13  3  1  0  0  0  0
 14 13  1  0  0  0  0
 15 14  2  0  0  0  0
 16 11  2  0  0  0  0
 16 15  1  0  0  0  0
 17 11  1  0  0  0  0
 19 15  1  0  0  0  0
 20 29  1  0  0  0  0
 21  7  1  0  0  0  0
 21 20  2  0  0  0  0
 22 21  1  0  0  0  0
 23 22  1  0  0  0  0
 24 22  2  0  0  0  0
 24 26  1  0  0  0  0
 25 24  1  0  0  0  0
 26 27  2  0  0  0  0
 27 20  1  0  0  0  0
 29 28  3  0  0  0  0
M  END
>  <minimizedAffinity>
-4.98806

$$$$

 OpenBabel03272505153D

 29 31  0  0  0  0  0  0  0  0999 V2000
   36.5490   27.8600   34.5700 Cl  0  0  0  0  0  0  0  0  0  0  0  0
   36.4050   28.7350   33.0680 C   0  0  0  0  0  0  0  0  0  0  0  0
   35.6930   29.8800   33.0190 C   0  0  0  0  0  0  0  0  0  0  0  0
   35.6390   30.4990   31.7790 C   0  0  0  0  0  0  0  0  0  0  0  0
   36.2350   30.0450   30.6470 C   0  0  0  0  0  0  0  0  0  0  0  0
   36.9520   28.8730   30.7370 C   0  0  0  0  0  0  0  0  0  0  0  0
   37.0470   28.1960   31.9610 C   0  0  0  0  0  0  0  0  0  0  0  0
   35.0690   31.4360   31.7000 H   0  0  0  0  0  0  0  0  0  0  0  0
   36.1590   30.5720   29.7020 H   0  0  0  0  0  0  0  0  0  0  0  0
   37.4650   28.4260   29.8900 H   0  0  0  0  0  0  0  0  0  0  0  0
   35.0680   31.6770   36.2800 C   0  0  0  0  0  0  0  0  0  0  0  0
   35.7170   31.2120   35.1260 C   0  0  0  0  0  0  0  0  0  0  0  0
   35.0520   30.3770   34.2150 C   0  0  0  0  0  0  0  0  0  0  0  0
   33.7800   30.0640   34.5220 N   0  0  0  0  0  0  0  0  0  0  0  0
   33.1580   30.5080   35.6250 C   0  0  0  0  0  0  0  0  0  0  0  0
   33.7930   31.3110   36.5030 N   0  0  0  0  0  0  0  0  0  0  0  0
   35.7290   32.3010   36.8580 H   0  0  0  0  0  0  0  0  0  0  0  0
   36.7350   31.4410   34.8490 H   0  0  0  0  0  0  0  0  0  0  0  0
   32.1390   30.2670   35.8840 H   0  0  0  0  0  0  0  0  0  0  0  0
   37.3230   25.6880   31.7660 C   0  0  0  0  0  0  0  0  0  0  0  0
   37.8140   26.9480   32.0420 C   0  0  0  0  0  0  0  0  0  0  0  0
   39.1230   27.1480   32.4340 C   0  0  0  0  0  0  0  0  0  0  0  0
   39.5710   28.1110   32.6660 H   0  0  0  0  0  0  0  0  0  0  0  0
   39.9490   26.0300   32.5460 C   0  0  0  0  0  0  0  0  0  0  0  0
   41.0010   26.1240   32.8530 H   0  0  0  0  0  0  0  0  0  0  0  0
   39.4620   24.7640   32.2700 C   0  0  0  0  0  3  0  0  0  0  0  0
   38.1340   24.5750   31.8730 C   0  0  0  0  0  3  0  0  0  0  0  0
   34.8200   25.5290   31.0250 N   0  0  0  0  0  0  0  0  0  0  0  0
   35.9370   25.6070   31.3640 C   0  0  0  0  0  0  0  0  0  0  0  0
  2  1  1  0  0  0  0
  3  2  1  0  0  0  0
  3 13  1  0  0  0  0
  4  3  2  0  0  0  0
  5  6  2  0  0  0  0
  5  4  1  0  0  0  0
  6  7  1  0  0  0  0
  7 21  1  0  0  0  0
  7  2  2  0  0  0  0
  8  4  1  0  0  0  0
  9  5  1  0  0  0  0
 10  6  1  0  0  0  0
 11 16  1  0  0  0  0
 11 17  1  0  0  0  0
 12 11  2  0  0  0  0
 13 14  2  0  0  0  0
 13 12  1  0  0  0  0
 14 15  1  0  0  0  0
 15 19  1  0  0  0  0
 15 16  2  0  0  0  0
 18 12  1  0  0  0  0
 20 27  2  0  0  0  0
 20 21  1  0  0  0  0
 21 22  2  0  0  0  0
 22 24  1  0  0  0  0
 22 23  1  0  0  0  0
 24 25  1  0  0  0  0
 26 24  2  0  0  0  0
 27 26  1  0  0  0  0
 28 29  3  0  0  0  0
 29 20  1  0  0  0  0
M  END
>  <minimizedAffinity>
-4.92877007

$$$$

 OpenBabel03272505153D

 29 31  0  0  0  0  0  0  0  0999 V2000
   38.6610   23.1320   32.6900 Cl  0  0  0  0  0  0  0  0  0  0  0  0
   37.3260   24.0400   32.0310 C   0  0  0  0  0  0  0  0  0  0  0  0
   36.1790   23.4110   31.7000 C   0  0  0  0  0  0  0  0  0  0  0  0
   35.1780   24.2210   31.1850 C   0  0  0  0  0  0  0  0  0  0  0  0
   35.2720   25.5620   30.9970 C   0  0  0  0  0  0  0  0  0  0  0  0
   36.4580   26.1680   31.3450 C   0  0  0  0  0  0  0  0  0  0  0  0
   37.5110   25.4070   31.8730 C   0  0  0  0  0  0  0  0  0  0  0  0
   34.2290   23.7440   30.9040 H   0  0  0  0  0  0  0  0  0  0  0  0
   34.4550   26.1470   30.5880 H   0  0  0  0  0  0  0  0  0  0  0  0
   36.6330   27.2340   31.2340 H   0  0  0  0  0  0  0  0  0  0  0  0
   36.2200   19.6850   31.0860 C   0  0  0  0  0  0  0  0  0  0  0  0
   36.3410   21.0660   30.8670 C   0  0  0  0  0  0  0  0  0  0  0  0
   36.0640   21.9830   31.8940 C   0  0  0  0  0  0  0  0  0  0  0  0
   35.6840   21.4540   33.0710 N   0  0  0  0  0  0  0  0  0  0  0  0
   35.5680   20.1340   33.2810 C   0  0  0  0  0  0  0  0  0  0  0  0
   35.8330   19.2490   32.2990 N   0  0  0  0  0  0  0  0  0  0  0  0
   36.4720   19.1390   30.1930 H   0  0  0  0  0  0  0  0  0  0  0  0
   36.6420   21.5250   29.9380 H   0  0  0  0  0  0  0  0  0  0  0  0
   35.2650   19.6950   34.2190 H   0  0  0  0  0  0  0  0  0  0  0  0
   39.0860   26.5390   33.4980 C   0  0  0  0  0  0  0  0  0  0  0  0
   38.7690   26.0660   32.2400 C   0  0  0  0  0  0  0  0  0  0  0  0
   39.6460   26.1790   31.1790 C   0  0  0  0  0  0  0  0  0  0  0  0
   39.4570   25.8280   30.1670 H   0  0  0  0  0  0  0  0  0  0  0  0
   40.8770   26.7890   31.4120 C   0  0  0  0  0  0  0  0  0  0  0  0
   41.6180   26.9080   30.6070 H   0  0  0  0  0  0  0  0  0  0  0  0
   41.2010   27.2650   32.6700 C   0  0  0  0  0  3  0  0  0  0  0  0
   40.3040   27.1450   33.7370 C   0  0  0  0  0  3  0  0  0  0  0  0
   37.2680   26.2090   35.3480 N   0  0  0  0  0  0  0  0  0  0  0  0
   38.0870   26.3630   34.5270 C   0  0  0  0  0  0  0  0  0  0  0  0
  2  1  1  0  0  0  0
  3 13  1  0  0  0  0
  3  2  2  0  0  0  0
  4  3  1  0  0  0  0
  5  4  2  0  0  0  0
  5  6  1  0  0  0  0
  6  7  2  0  0  0  0
  7  2  1  0  0  0  0
  7 21  1  0  0  0  0
  8  4  1  0  0  0  0
  9  5  1  0  0  0  0
 10  6  1  0  0  0  0
 11 16  1  0  0  0  0
 12 11  2  0  0  0  0
 12 13  1  0  0  0  0
 13 14  2  0  0  0  0
 14 15  1  0  0  0  0
 15 19  1  0  0  0  0
 16 15  2  0  0  0  0
 17 11  1  0  0  0  0
 18 12  1  0  0  0  0
 20 27  1  0  0  0  0
 20 29  1  0  0  0  0
 21 20  2  0  0  0  0
 22 24  2  0  0  0  0
 22 21  1  0  0  0  0
 23 22  1  0  0  0  0
 24 26  1  0  0  0  0
 25 24  1  0  0  0  0
 26 27  2  0  0  0  0
 29 28  3  0  0  0  0
M  END
>  <minimizedAffinity>
-4.90010071

$$$$

 OpenBabel03272505153D

 29 31  0  0  0  0  0  0  0  0999 V2000
   38.7670   25.5630   34.4560 Cl  0  0  0  0  0  0  0  0  0  0  0  0
   38.0460   24.1150   33.8040 C   0  0  0  0  0  0  0  0  0  0  0  0
   37.5840   24.1010   32.5370 C   0  0  0  0  0  0  0  0  0  0  0  0
   37.0300   22.9030   32.1140 C   0  0  0  0  0  0  0  0  0  0  0  0
   36.9240   21.7780   32.8660 C   0  0  0  0  0  0  0  0  0  0  0  0
   37.4060   21.8300   34.1540 C   0  0  0  0  0  0  0  0  0  0  0  0
   37.9800   23.0120   34.6460 C   0  0  0  0  0  0  0  0  0  0  0  0
   36.6430   22.8530   31.0870 H   0  0  0  0  0  0  0  0  0  0  0  0
   36.4800   20.8650   32.4820 H   0  0  0  0  0  0  0  0  0  0  0  0
   37.3690   20.9850   34.8350 H   0  0  0  0  0  0  0  0  0  0  0  0
   36.7870   27.3860   30.8540 C   0  0  0  0  0  0  0  0  0  0  0  0
   36.6560   26.2400   31.6530 C   0  0  0  0  0  0  0  0  0  0  0  0
   37.6890   25.2920   31.7240 C   0  0  0  0  0  0  0  0  0  0  0  0
   38.7850   25.5570   30.9900 N   0  0  0  0  0  0  0  0  0  0  0  0
   38.9110   26.6530   30.2260 C   0  0  0  0  0  0  0  0  0  0  0  0
   37.9220   27.5660   30.1550 N   0  0  0  0  0  0  0  0  0  0  0  0
   35.9020   27.9960   30.9230 H   0  0  0  0  0  0  0  0  0  0  0  0
   35.7930   25.9950   32.2540 H   0  0  0  0  0  0  0  0  0  0  0  0
   39.7830   26.8790   29.6320 H   0  0  0  0  0  0  0  0  0  0  0  0
   39.7580   22.6780   36.4140 C   0  0  0  0  0  0  0  0  0  0  0  0
   38.4900   23.0530   36.0200 C   0  0  0  0  0  0  0  0  0  0  0  0
   37.5560   23.5190   36.9250 C   0  0  0  0  0  0  0  0  0  0  0  0
   36.5430   23.8290   36.6800 H   0  0  0  0  0  0  0  0  0  0  0  0
   37.9300   23.6030   38.2650 C   0  0  0  0  0  0  0  0  0  0  0  0
   37.2310   23.9660   39.0330 H   0  0  0  0  0  0  0  0  0  0  0  0
   39.2010   23.2280   38.6660 C   0  0  0  0  0  3  0  0  0  0  0  0
   40.1380   22.7580   37.7400 C   0  0  0  0  0  3  0  0  0  0  0  0
   41.3670   21.8090   34.5450 N   0  0  0  0  0  0  0  0  0  0  0  0
   40.6460   22.2080   35.3760 C   0  0  0  0  0  0  0  0  0  0  0  0
  2  1  1  0  0  0  0
  2  7  1  0  0  0  0
  3  2  2  0  0  0  0
  4  3  1  0  0  0  0
  4  5  2  0  0  0  0
  5  6  1  0  0  0  0
  6  7  2  0  0  0  0
  6 10  1  0  0  0  0
  7 21  1  0  0  0  0
  8  4  1  0  0  0  0
  9  5  1  0  0  0  0
 11 17  1  0  0  0  0
 11 12  1  0  0  0  0
 12 13  2  0  0  0  0
 12 18  1  0  0  0  0
 13  3  1  0  0  0  0
 14 13  1  0  0  0  0
 15 14  2  0  0  0  0
 16 15  1  0  0  0  0
 16 11  2  0  0  0  0
 19 15  1  0  0  0  0
 20 27  1  0  0  0  0
 21 20  2  0  0  0  0
 21 22  1  0  0  0  0
 22 24  2  0  0  0  0
 23 22  1  0  0  0  0
 24 26  1  0  0  0  0
 24 25  1  0  0  0  0
 27 26  2  0  0  0  0
 28 29  3  0  0  0  0
 29 20  1  0  0  0  0
M  END
>  <minimizedAffinity>
-4.88931179

$$$$

 OpenBabel03272505153D

 29 31  0  0  0  0  0  0  0  0999 V2000
   36.6360   27.8160   34.5730 Cl  0  0  0  0  0  0  0  0  0  0  0  0
   37.0610   28.0900   32.9040 C   0  0  0  0  0  0  0  0  0  0  0  0
   36.3280   28.9330   32.1480 C   0  0  0  0  0  0  0  0  0  0  0  0
   36.7480   29.0820   30.8360 C   0  0  0  0  0  0  0  0  0  0  0  0
   37.8150   28.4550   30.2770 C   0  0  0  0  0  0  0  0  0  0  0  0
   38.5390   27.6020   31.0790 C   0  0  0  0  0  0  0  0  0  0  0  0
   38.1680   27.4060   32.4170 C   0  0  0  0  0  0  0  0  0  0  0  0
   36.1760   29.7610   30.1890 H   0  0  0  0  0  0  0  0  0  0  0  0
   38.0990   28.6090   29.2410 H   0  0  0  0  0  0  0  0  0  0  0  0
   39.4080   27.0530   30.7280 H   0  0  0  0  0  0  0  0  0  0  0  0
   34.1790   31.4810   33.9220 C   0  0  0  0  0  0  0  0  0  0  0  0
   35.3040   30.8520   33.3670 C   0  0  0  0  0  0  0  0  0  0  0  0
   35.1880   29.6070   32.7290 C   0  0  0  0  0  0  0  0  0  0  0  0
   33.9530   29.0750   32.6900 N   0  0  0  0  0  0  0  0  0  0  0  0
   32.8760   29.6760   33.2200 C   0  0  0  0  0  0  0  0  0  0  0  0
   32.9820   30.8720   33.8340 N   0  0  0  0  0  0  0  0  0  0  0  0
   34.4550   32.4220   34.3670 H   0  0  0  0  0  0  0  0  0  0  0  0
   36.3080   31.2470   33.3800 H   0  0  0  0  0  0  0  0  0  0  0  0
   31.8800   29.2630   33.1970 H   0  0  0  0  0  0  0  0  0  0  0  0
   38.6890   25.1500   33.4360 C   0  0  0  0  0  0  0  0  0  0  0  0
   38.9480   26.4940   33.2600 C   0  0  0  0  0  0  0  0  0  0  0  0
   40.0070   27.1190   33.8890 C   0  0  0  0  0  0  0  0  0  0  0  0
   40.2640   28.1700   33.7930 H   0  0  0  0  0  0  0  0  0  0  0  0
   40.8210   26.3480   34.7180 C   0  0  0  0  0  0  0  0  0  0  0  0
   41.6800   26.7880   35.2470 H   0  0  0  0  0  0  0  0  0  0  0  0
   40.5670   24.9990   34.8980 C   0  0  0  0  0  3  0  0  0  0  0  0
   39.4900   24.3780   34.2550 C   0  0  0  0  0  3  0  0  0  0  0  0
   36.6460   24.1690   32.1330 N   0  0  0  0  0  0  0  0  0  0  0  0
   37.5530   24.6100   32.7240 C   0  0  0  0  0  0  0  0  0  0  0  0
  2  1  1  0  0  0  0
  3 13  1  0  0  0  0
  3  2  2  0  0  0  0
  4  3  1  0  0  0  0
  5  4  2  0  0  0  0
  5  6  1  0  0  0  0
  6  7  2  0  0  0  0
  7  2  1  0  0  0  0
  7 21  1  0  0  0  0
  8  4  1  0  0  0  0
  9  5  1  0  0  0  0
 10  6  1  0  0  0  0
 11 17  1  0  0  0  0
 12 18  1  0  0  0  0
 12 11  2  0  0  0  0
 13 12  1  0  0  0  0
 14 13  2  0  0  0  0
 14 15  1  0  0  0  0
 15 16  2  0  0  0  0
 16 11  1  0  0  0  0
 19 15  1  0  0  0  0
 20 27  1  0  0  0  0
 21 20  2  0  0  0  0
 21 22  1  0  0  0  0
 22 24  2  0  0  0  0
 23 22  1  0  0  0  0
 24 26  1  0  0  0  0
 24 25  1  0  0  0  0
 27 26  2  0  0  0  0
 28 29  3  0  0  0  0
 29 20  1  0  0  0  0
M  END
>  <minimizedAffinity>
-4.77373934

$$$$

 OpenBabel03272505153D

 29 31  0  0  0  0  0  0  0  0999 V2000
   35.6690   28.6940   34.4680 Cl  0  0  0  0  0  0  0  0  0  0  0  0
   35.3350   29.8130   33.1730 C   0  0  0  0  0  0  0  0  0  0  0  0
   35.7250   29.5260   31.9140 C   0  0  0  0  0  0  0  0  0  0  0  0
   35.4110   30.4780   30.9570 C   0  0  0  0  0  0  0  0  0  0  0  0
   34.7600   31.6460   31.1940 C   0  0  0  0  0  0  0  0  0  0  0  0
   34.3780   31.9040   32.4910 C   0  0  0  0  0  0  0  0  0  0  0  0
   34.6630   30.9820   33.5080 C   0  0  0  0  0  0  0  0  0  0  0  0
   35.7120   30.2790   29.9190 H   0  0  0  0  0  0  0  0  0  0  0  0
   34.5410   32.3570   30.4040 H   0  0  0  0  0  0  0  0  0  0  0  0
   33.8520   32.8080   32.7850 H   0  0  0  0  0  0  0  0  0  0  0  0
   38.4670   27.0010   31.3110 C   0  0  0  0  0  0  0  0  0  0  0  0
   37.8200   28.2190   31.5740 C   0  0  0  0  0  0  0  0  0  0  0  0
   36.4200   28.2870   31.6450 C   0  0  0  0  0  0  0  0  0  0  0  0
   35.7620   27.1300   31.4480 N   0  0  0  0  0  0  0  0  0  0  0  0
   36.3790   25.9660   31.1970 C   0  0  0  0  0  0  0  0  0  0  0  0
   37.7240   25.8950   31.1280 N   0  0  0  0  0  0  0  0  0  0  0  0
   39.5350   27.1380   31.2940 H   0  0  0  0  0  0  0  0  0  0  0  0
   38.3150   29.1640   31.7360 H   0  0  0  0  0  0  0  0  0  0  0  0
   35.8660   25.0310   31.0370 H   0  0  0  0  0  0  0  0  0  0  0  0
   34.9220   32.0970   35.7640 C   0  0  0  0  0  0  0  0  0  0  0  0
   34.2510   31.2710   34.8850 C   0  0  0  0  0  0  0  0  0  0  0  0
   33.0880   30.6190   35.2450 C   0  0  0  0  0  0  0  0  0  0  0  0
   32.5140   29.9560   34.6030 H   0  0  0  0  0  0  0  0  0  0  0  0
   32.5990   30.8190   36.5350 C   0  0  0  0  0  0  0  0  0  0  0  0
   31.6770   30.3280   36.8810 H   0  0  0  0  0  0  0  0  0  0  0  0
   33.2670   31.6470   37.4210 C   0  0  0  0  0  3  0  0  0  0  0  0
   34.4450   32.3020   37.0440 C   0  0  0  0  0  3  0  0  0  0  0  0
   37.0940   33.2480   34.8740 N   0  0  0  0  0  0  0  0  0  0  0  0
   36.1270   32.7230   35.2730 C   0  0  0  0  0  0  0  0  0  0  0  0
  2  7  1  0  0  0  0
  2  1  1  0  0  0  0
  3  2  2  0  0  0  0
  4  5  2  0  0  0  0
  4  3  1  0  0  0  0
  5  6  1  0  0  0  0
  6 10  1  0  0  0  0
  6  7  2  0  0  0  0
  7 21  1  0  0  0  0
  8  4  1  0  0  0  0
  9  5  1  0  0  0  0
 11 12  1  0  0  0  0
 12 13  2  0  0  0  0
 12 18  1  0  0  0  0
 13  3  1  0  0  0  0
 14 13  1  0  0  0  0
 15 14  2  0  0  0  0
 16 15  1  0  0  0  0
 16 11  2  0  0  0  0
 17 11  1  0  0  0  0
 19 15  1  0  0  0  0
 20 27  1  0  0  0  0
 21 22  1  0  0  0  0
 21 20  2  0  0  0  0
 22 24  2  0  0  0  0
 23 22  1  0  0  0  0
 24 25  1  0  0  0  0
 24 26  1  0  0  0  0
 27 26  2  0  0  0  0
 28 29  3  0  0  0  0
 29 20  1  0  0  0  0
M  END
>  <minimizedAffinity>
-4.76720142

$$$$
