
 OpenBabel03262523073D

 42 46  0  0  0  0  0  0  0  0999 V2000
   36.2040   26.5580   31.8500 C   0  0  0  0  0  0  0  0  0  0  0  0
   35.4390   25.8060   30.9850 C   0  0  0  0  0  0  0  0  0  0  0  0
   35.5540   24.4450   31.0090 C   0  0  0  0  0  0  0  0  0  0  0  0
   36.4130   23.8480   31.8800 N   0  0  0  0  0  0  0  0  0  0  0  0
   37.1330   24.5990   32.6970 C   0  0  0  0  0  0  0  0  0  0  0  0
   37.0420   25.9480   32.6970 N   0  0  0  0  0  0  0  0  0  0  0  0
   34.7680   26.3240   30.3090 H   0  0  0  0  0  0  0  0  0  0  0  0
   34.9530   23.8490   30.3290 H   0  0  0  0  0  0  0  0  0  0  0  0
   38.0630   23.9760   33.6400 C   0  0  0  0  0  0  0  0  0  0  0  0
   39.1250   23.2170   33.2270 C   0  0  0  0  0  0  0  0  0  0  0  0
   40.0600   22.5840   34.0010 C   0  0  0  0  0  0  0  0  0  0  0  0
   39.8700   22.7600   35.3750 C   0  0  0  0  0  0  0  0  0  0  0  0
   40.7530   22.1650   36.2090 N   0  0  0  0  0  0  0  0  0  0  0  0
   40.6710   22.2640   37.5450 C   0  0  0  0  0  0  0  0  0  0  0  0
   39.6340   23.0090   38.0920 C   0  0  0  0  0  0  0  0  0  0  0  0
   38.7290   23.6190   37.2380 C   0  0  0  0  0  0  0  0  0  0  0  0
   38.8200   23.5120   35.8610 C   0  0  0  0  0  0  0  0  0  0  0  0
   37.9250   24.1150   35.0160 C   0  0  0  0  0  0  0  0  0  0  0  0
   39.2330   23.1080   32.1470 H   0  0  0  0  0  0  0  0  0  0  0  0
   40.8680   22.0040   33.5760 H   0  0  0  0  0  0  0  0  0  0  0  0
   41.3780   21.7880   38.2220 H   0  0  0  0  0  0  0  0  0  0  0  0
   39.5670   23.0890   39.1690 H   0  0  0  0  0  0  0  0  0  0  0  0
   37.9090   24.2080   37.6790 H   0  0  0  0  0  0  0  0  0  0  0  0
   37.1130   24.6980   35.4160 H   0  0  0  0  0  0  0  0  0  0  0  0
   36.3920   30.0900   30.8550 C   0  0  0  0  0  0  0  0  0  0  0  0
   35.9260   30.7510   32.0090 C   0  0  0  0  0  0  0  0  0  0  0  0
   35.5540   29.9590   33.1150 C   0  0  0  0  0  0  0  0  0  0  0  0
   35.6760   28.6200   32.9740 N   0  0  0  0  0  0  0  0  0  0  0  0
   36.1220   28.0190   31.8650 C   0  0  0  0  0  0  0  0  0  0  0  0
   36.4780   28.7560   30.8100 N   0  0  0  0  0  0  0  0  0  0  0  0
   36.6840   30.6540   29.9900 H   0  0  0  0  0  0  0  0  0  0  0  0
   35.8550   31.8060   32.0530 H   0  0  0  0  0  0  0  0  0  0  0  0
   33.7220   30.4110   34.6530 C   0  0  0  0  0  0  0  0  0  0  0  0
   35.0600   30.5390   34.3540 C   0  0  0  0  0  0  0  0  0  0  0  0
   35.8490   31.2160   35.2560 C   0  0  0  0  0  0  0  0  0  0  0  0
   36.9000   31.3400   35.0640 H   0  0  0  0  0  0  0  0  0  0  0  0
   35.3360   31.7520   36.4210 C   0  0  0  0  0  0  0  0  0  0  0  0
   35.9870   32.2840   37.1190 H   0  0  0  0  0  0  0  0  0  0  0  0
   33.9980   31.6340   36.7370 C   0  0  0  0  0  3  0  0  0  0  0  0
   33.2120   30.9580   35.8340 C   0  0  0  0  0  3  0  0  0  0  0  0
   32.0190   29.1790   33.1510 N   0  0  0  0  0  0  0  0  0  0  0  0
   32.7750   29.7390   33.8180 C   0  0  0  0  0  0  0  0  0  0  0  0
  1 29  1  0  0  0  0
  1  6  1  0  0  0  0
  2  3  1  0  0  0  0
  2  1  2  0  0  0  0
  3  4  2  0  0  0  0
  4  5  1  0  0  0  0
  5  9  1  0  0  0  0
  6  5  2  0  0  0  0
  7  2  1  0  0  0  0
  8  3  1  0  0  0  0
  9 18  1  0  0  0  0
 10  9  2  0  0  0  0
 10 11  1  0  0  0  0
 11 12  2  0  0  0  0
 12 17  1  0  0  0  0
 12 13  1  0  0  0  0
 13 14  2  0  0  0  0
 14 15  1  0  0  0  0
 14 21  1  0  0  0  0
 15 22  1  0  0  0  0
 16 23  1  0  0  0  0
 16 15  2  0  0  0  0
 17 16  1  0  0  0  0
 18 24  1  0  0  0  0
 18 17  2  0  0  0  0
 19 10  1  0  0  0  0
 20 11  1  0  0  0  0
 25 26  1  0  0  0  0
 26 32  1  0  0  0  0
 26 27  2  0  0  0  0
 27 34  1  0  0  0  0
 28 27  1  0  0  0  0
 29 28  2  0  0  0  0
 30 25  2  0  0  0  0
 30 29  1  0  0  0  0
 31 25  1  0  0  0  0
 33 40  1  0  0  0  0
 34 33  2  0  0  0  0
 34 35  1  0  0  0  0
 35 37  2  0  0  0  0
 36 35  1  0  0  0  0
 37 39  1  0  0  0  0
 37 38  1  0  0  0  0
 40 39  2  0  0  0  0
 41 42  3  0  0  0  0
 42 33  1  0  0  0  0
M  END
>  <minimizedAffinity>
-7.16988564

$$$$

 OpenBabel03262523073D

 42 46  0  0  0  0  0  0  0  0999 V2000
   36.5630   27.0460   32.2490 C   0  0  0  0  0  0  0  0  0  0  0  0
   36.1420   26.2860   31.1790 C   0  0  0  0  0  0  0  0  0  0  0  0
   36.3800   24.9410   31.1840 C   0  0  0  0  0  0  0  0  0  0  0  0
   37.0250   24.3670   32.2370 N   0  0  0  0  0  0  0  0  0  0  0  0
   37.4170   25.1240   33.2480 C   0  0  0  0  0  0  0  0  0  0  0  0
   37.1960   26.4570   33.2720 N   0  0  0  0  0  0  0  0  0  0  0  0
   35.6320   26.7860   30.3630 H   0  0  0  0  0  0  0  0  0  0  0  0
   36.0490   24.3390   30.3440 H   0  0  0  0  0  0  0  0  0  0  0  0
   38.1130   24.5250   34.3880 C   0  0  0  0  0  0  0  0  0  0  0  0
   37.7940   24.8310   35.6840 C   0  0  0  0  0  0  0  0  0  0  0  0
   38.3640   24.3450   36.8300 C   0  0  0  0  0  0  0  0  0  0  0  0
   39.3930   23.4260   36.6030 C   0  0  0  0  0  0  0  0  0  0  0  0
   40.0100   22.8980   37.6860 N   0  0  0  0  0  0  0  0  0  0  0  0
   41.0090   22.0080   37.5910 C   0  0  0  0  0  0  0  0  0  0  0  0
   41.4290   21.6140   36.3270 C   0  0  0  0  0  0  0  0  0  0  0  0
   40.7980   22.1550   35.2170 C   0  0  0  0  0  0  0  0  0  0  0  0
   39.7670   23.0720   35.3220 C   0  0  0  0  0  0  0  0  0  0  0  0
   39.1430   23.6070   34.2250 C   0  0  0  0  0  0  0  0  0  0  0  0
   36.9850   25.5520   35.8100 H   0  0  0  0  0  0  0  0  0  0  0  0
   38.0380   24.6510   37.8140 H   0  0  0  0  0  0  0  0  0  0  0  0
   41.5090   21.5800   38.4580 H   0  0  0  0  0  0  0  0  0  0  0  0
   42.2350   20.8970   36.2500 H   0  0  0  0  0  0  0  0  0  0  0  0
   41.1360   21.8370   34.2180 H   0  0  0  0  0  0  0  0  0  0  0  0
   39.4510   23.3170   33.2350 H   0  0  0  0  0  0  0  0  0  0  0  0
   36.4470   30.6050   31.3470 C   0  0  0  0  0  0  0  0  0  0  0  0
   35.8620   31.1840   32.4910 C   0  0  0  0  0  0  0  0  0  0  0  0
   35.5170   30.3280   33.5580 C   0  0  0  0  0  0  0  0  0  0  0  0
   35.7790   29.0130   33.3920 N   0  0  0  0  0  0  0  0  0  0  0  0
   36.3360   28.4900   32.2930 C   0  0  0  0  0  0  0  0  0  0  0  0
   36.6680   29.2880   31.2760 N   0  0  0  0  0  0  0  0  0  0  0  0
   36.7240   31.2200   30.5120 H   0  0  0  0  0  0  0  0  0  0  0  0
   35.6840   32.2260   32.5560 H   0  0  0  0  0  0  0  0  0  0  0  0
   33.5680   30.5850   34.9930 C   0  0  0  0  0  0  0  0  0  0  0  0
   34.9080   30.8220   34.7820 C   0  0  0  0  0  0  0  0  0  0  0  0
   35.5880   31.5190   35.7540 C   0  0  0  0  0  0  0  0  0  0  0  0
   36.6360   31.7280   35.6330 H   0  0  0  0  0  0  0  0  0  0  0  0
   34.9680   31.9710   36.9030 C   0  0  0  0  0  0  0  0  0  0  0  0
   35.5340   32.5210   37.6580 H   0  0  0  0  0  0  0  0  0  0  0  0
   33.6260   31.7420   37.1320 C   0  0  0  0  0  3  0  0  0  0  0  0
   32.9490   31.0460   36.1590 C   0  0  0  0  0  3  0  0  0  0  0  0
   32.0610   29.3090   33.3260 N   0  0  0  0  0  0  0  0  0  0  0  0
   32.7250   29.8770   34.0780 C   0  0  0  0  0  0  0  0  0  0  0  0
  1 29  1  0  0  0  0
  1  6  1  0  0  0  0
  2  3  1  0  0  0  0
  2  1  2  0  0  0  0
  3  4  2  0  0  0  0
  4  5  1  0  0  0  0
  5  6  2  0  0  0  0
  5  9  1  0  0  0  0
  7  2  1  0  0  0  0
  8  3  1  0  0  0  0
  9 10  1  0  0  0  0
 10 19  1  0  0  0  0
 10 11  2  0  0  0  0
 11 20  1  0  0  0  0
 12 11  1  0  0  0  0
 12 13  1  0  0  0  0
 14 13  2  0  0  0  0
 14 21  1  0  0  0  0
 15 14  1  0  0  0  0
 16 17  1  0  0  0  0
 16 15  2  0  0  0  0
 17 12  2  0  0  0  0
 18  9  2  0  0  0  0
 18 17  1  0  0  0  0
 22 15  1  0  0  0  0
 23 16  1  0  0  0  0
 24 18  1  0  0  0  0
 25 26  1  0  0  0  0
 26 32  1  0  0  0  0
 26 27  2  0  0  0  0
 27 34  1  0  0  0  0
 28 27  1  0  0  0  0
 29 28  2  0  0  0  0
 30 25  2  0  0  0  0
 30 29  1  0  0  0  0
 31 25  1  0  0  0  0
 33 40  1  0  0  0  0
 34 33  2  0  0  0  0
 34 35  1  0  0  0  0
 35 37  2  0  0  0  0
 36 35  1  0  0  0  0
 37 39  1  0  0  0  0
 37 38  1  0  0  0  0
 40 39  2  0  0  0  0
 41 42  3  0  0  0  0
 42 33  1  0  0  0  0
M  END
>  <minimizedAffinity>
-7.10849953

$$$$

 OpenBabel03262523073D

 42 46  0  0  0  0  0  0  0  0999 V2000
   37.5540   26.6520   33.7410 C   0  0  0  0  0  0  0  0  0  0  0  0
   38.4950   26.6910   34.7470 C   0  0  0  0  0  0  0  0  0  0  0  0
   39.1150   25.5340   35.1220 C   0  0  0  0  0  0  0  0  0  0  0  0
   38.8030   24.3610   34.5030 N   0  0  0  0  0  0  0  0  0  0  0  0
   37.8960   24.3580   33.5410 C   0  0  0  0  0  0  0  0  0  0  0  0
   37.2640   25.4870   33.1490 N   0  0  0  0  0  0  0  0  0  0  0  0
   38.7110   27.6470   35.2120 H   0  0  0  0  0  0  0  0  0  0  0  0
   39.8580   25.5600   35.9140 H   0  0  0  0  0  0  0  0  0  0  0  0
   37.5460   23.1080   32.8650 C   0  0  0  0  0  0  0  0  0  0  0  0
   37.9620   22.8230   31.5920 C   0  0  0  0  0  0  0  0  0  0  0  0
   37.7050   21.6990   30.8530 C   0  0  0  0  0  0  0  0  0  0  0  0
   36.9190   20.7530   31.5170 C   0  0  0  0  0  0  0  0  0  0  0  0
   36.6200   19.6120   30.8540 N   0  0  0  0  0  0  0  0  0  0  0  0
   35.8740   18.6340   31.3910 C   0  0  0  0  0  0  0  0  0  0  0  0
   35.3890   18.8020   32.6820 C   0  0  0  0  0  0  0  0  0  0  0  0
   35.6950   19.9710   33.3620 C   0  0  0  0  0  0  0  0  0  0  0  0
   36.4650   20.9750   32.8020 C   0  0  0  0  0  0  0  0  0  0  0  0
   36.7680   22.1310   33.4750 C   0  0  0  0  0  0  0  0  0  0  0  0
   38.5720   23.5910   31.1140 H   0  0  0  0  0  0  0  0  0  0  0  0
   38.0820   21.5680   29.8480 H   0  0  0  0  0  0  0  0  0  0  0  0
   35.6300   17.7150   30.8630 H   0  0  0  0  0  0  0  0  0  0  0  0
   34.7870   18.0150   33.1150 H   0  0  0  0  0  0  0  0  0  0  0  0
   35.3070   20.0970   34.3850 H   0  0  0  0  0  0  0  0  0  0  0  0
   36.4040   22.2840   34.4760 H   0  0  0  0  0  0  0  0  0  0  0  0
   36.1540   29.3280   31.6480 C   0  0  0  0  0  0  0  0  0  0  0  0
   35.5250   30.1540   32.6000 C   0  0  0  0  0  0  0  0  0  0  0  0
   35.5980   29.7690   33.9550 C   0  0  0  0  0  0  0  0  0  0  0  0
   36.2700   28.6290   34.2290 N   0  0  0  0  0  0  0  0  0  0  0  0
   36.8580   27.8630   33.3030 C   0  0  0  0  0  0  0  0  0  0  0  0
   36.7980   28.2150   32.0170 N   0  0  0  0  0  0  0  0  0  0  0  0
   36.1230   29.5830   30.6060 H   0  0  0  0  0  0  0  0  0  0  0  0
   35.0140   31.0360   32.3170 H   0  0  0  0  0  0  0  0  0  0  0  0
   33.6230   30.4430   35.2090 C   0  0  0  0  0  0  0  0  0  0  0  0
   34.9830   30.5490   35.0170 C   0  0  0  0  0  0  0  0  0  0  0  0
   35.6760   31.3960   35.8510 C   0  0  0  0  0  0  0  0  0  0  0  0
   36.7400   31.5100   35.7390 H   0  0  0  0  0  0  0  0  0  0  0  0
   35.0500   32.1190   36.8480 C   0  0  0  0  0  0  0  0  0  0  0  0
   35.6270   32.7830   37.4960 H   0  0  0  0  0  0  0  0  0  0  0  0
   33.6890   32.0260   37.0550 C   0  0  0  0  0  3  0  0  0  0  0  0
   32.9980   31.1800   36.2200 C   0  0  0  0  0  3  0  0  0  0  0  0
   32.0580   28.9470   33.7980 N   0  0  0  0  0  0  0  0  0  0  0  0
   32.7650   29.6090   34.4240 C   0  0  0  0  0  0  0  0  0  0  0  0
  1  2  1  0  0  0  0
  2  3  2  0  0  0  0
  2  7  1  0  0  0  0
  3  8  1  0  0  0  0
  4  3  1  0  0  0  0
  5  4  2  0  0  0  0
  6  5  1  0  0  0  0
  6  1  2  0  0  0  0
  9 18  1  0  0  0  0
  9  5  1  0  0  0  0
 10  9  2  0  0  0  0
 11 12  2  0  0  0  0
 11 10  1  0  0  0  0
 12 17  1  0  0  0  0
 13 14  2  0  0  0  0
 13 12  1  0  0  0  0
 14 15  1  0  0  0  0
 15 22  1  0  0  0  0
 15 16  2  0  0  0  0
 16 23  1  0  0  0  0
 17 16  1  0  0  0  0
 17 18  2  0  0  0  0
 18 24  1  0  0  0  0
 19 10  1  0  0  0  0
 20 11  1  0  0  0  0
 21 14  1  0  0  0  0
 25 30  2  0  0  0  0
 25 26  1  0  0  0  0
 26 27  2  0  0  0  0
 27 28  1  0  0  0  0
 27 34  1  0  0  0  0
 29  1  1  0  0  0  0
 29 28  2  0  0  0  0
 30 29  1  0  0  0  0
 31 25  1  0  0  0  0
 32 26  1  0  0  0  0
 33 40  1  0  0  0  0
 34 33  2  0  0  0  0
 34 35  1  0  0  0  0
 35 37  2  0  0  0  0
 36 35  1  0  0  0  0
 37 39  1  0  0  0  0
 37 38  1  0  0  0  0
 40 39  2  0  0  0  0
 41 42  3  0  0  0  0
 42 33  1  0  0  0  0
M  END
>  <minimizedAffinity>
-6.9264679

$$$$

 OpenBabel03262523073D

 42 46  0  0  0  0  0  0  0  0999 V2000
   37.2880   26.9740   31.7460 C   0  0  0  0  0  0  0  0  0  0  0  0
   37.4090   27.5160   30.4850 C   0  0  0  0  0  0  0  0  0  0  0  0
   36.7780   28.6940   30.2040 C   0  0  0  0  0  0  0  0  0  0  0  0
   36.0430   29.3200   31.1650 N   0  0  0  0  0  0  0  0  0  0  0  0
   35.9470   28.7730   32.3660 C   0  0  0  0  0  0  0  0  0  0  0  0
   36.5590   27.6080   32.6730 N   0  0  0  0  0  0  0  0  0  0  0  0
   38.0050   26.9830   29.7520 H   0  0  0  0  0  0  0  0  0  0  0  0
   36.8710   29.1250   29.2120 H   0  0  0  0  0  0  0  0  0  0  0  0
   35.1600   29.4300   33.4110 C   0  0  0  0  0  0  0  0  0  0  0  0
   33.8140   29.2230   33.5530 C   0  0  0  0  0  0  0  0  0  0  0  0
   32.9710   29.7730   34.4810 C   0  0  0  0  0  0  0  0  0  0  0  0
   33.6020   30.6450   35.3730 C   0  0  0  0  0  0  0  0  0  0  0  0
   32.8360   31.2300   36.3220 N   0  0  0  0  0  0  0  0  0  0  0  0
   33.3320   32.0840   37.2320 C   0  0  0  0  0  0  0  0  0  0  0  0
   34.6890   32.3780   37.1950 C   0  0  0  0  0  0  0  0  0  0  0  0
   35.4740   31.7790   36.2220 C   0  0  0  0  0  0  0  0  0  0  0  0
   34.9560   30.8990   35.2870 C   0  0  0  0  0  0  0  0  0  0  0  0
   35.7320   30.3060   34.3250 C   0  0  0  0  0  0  0  0  0  0  0  0
   33.3670   28.5350   32.8350 H   0  0  0  0  0  0  0  0  0  0  0  0
   31.9140   29.5440   34.5110 H   0  0  0  0  0  0  0  0  0  0  0  0
   32.7210   32.5580   37.9970 H   0  0  0  0  0  0  0  0  0  0  0  0
   35.0890   33.0660   37.9260 H   0  0  0  0  0  0  0  0  0  0  0  0
   36.5490   32.0170   36.1990 H   0  0  0  0  0  0  0  0  0  0  0  0
   36.7870   30.5180   34.2760 H   0  0  0  0  0  0  0  0  0  0  0  0
   39.8140   24.4780   32.6880 C   0  0  0  0  0  0  0  0  0  0  0  0
   39.0550   23.2930   32.7470 C   0  0  0  0  0  0  0  0  0  0  0  0
   37.6770   23.3790   32.4580 C   0  0  0  0  0  0  0  0  0  0  0  0
   37.1960   24.6030   32.1460 N   0  0  0  0  0  0  0  0  0  0  0  0
   37.9410   25.7130   32.0990 C   0  0  0  0  0  0  0  0  0  0  0  0
   39.2470   25.6470   32.3690 N   0  0  0  0  0  0  0  0  0  0  0  0
   40.8650   24.4580   32.9010 H   0  0  0  0  0  0  0  0  0  0  0  0
   39.4970   22.3640   32.9980 H   0  0  0  0  0  0  0  0  0  0  0  0
   36.6440   21.5470   33.6840 C   0  0  0  0  0  0  0  0  0  0  0  0
   36.8040   22.2160   32.4910 C   0  0  0  0  0  0  0  0  0  0  0  0
   36.1200   21.7350   31.3980 C   0  0  0  0  0  0  0  0  0  0  0  0
   36.2150   22.2260   30.4450 H   0  0  0  0  0  0  0  0  0  0  0  0
   35.3010   20.6260   31.4750 C   0  0  0  0  0  0  0  0  0  0  0  0
   34.7700   20.2670   30.5900 H   0  0  0  0  0  0  0  0  0  0  0  0
   35.1280   19.9420   32.6610 C   0  0  0  0  0  3  0  0  0  0  0  0
   35.8130   20.4250   33.7510 C   0  0  0  0  0  3  0  0  0  0  0  0
   37.8190   22.2330   35.8800 N   0  0  0  0  0  0  0  0  0  0  0  0
   37.2860   21.9220   34.9060 C   0  0  0  0  0  0  0  0  0  0  0  0
  1 29  1  0  0  0  0
  1  6  1  0  0  0  0
  2  1  2  0  0  0  0
  3  2  1  0  0  0  0
  3  4  2  0  0  0  0
  4  5  1  0  0  0  0
  5  6  2  0  0  0  0
  5  9  1  0  0  0  0
  7  2  1  0  0  0  0
  8  3  1  0  0  0  0
  9 10  2  0  0  0  0
  9 18  1  0  0  0  0
 10 11  1  0  0  0  0
 11 20  1  0  0  0  0
 11 12  2  0  0  0  0
 12 13  1  0  0  0  0
 13 14  2  0  0  0  0
 14 21  1  0  0  0  0
 15 14  1  0  0  0  0
 15 22  1  0  0  0  0
 16 15  2  0  0  0  0
 17 12  1  0  0  0  0
 17 16  1  0  0  0  0
 18 17  2  0  0  0  0
 19 10  1  0  0  0  0
 23 16  1  0  0  0  0
 24 18  1  0  0  0  0
 25 26  1  0  0  0  0
 25 31  1  0  0  0  0
 26 32  1  0  0  0  0
 27 34  1  0  0  0  0
 27 26  2  0  0  0  0
 28 27  1  0  0  0  0
 29 28  2  0  0  0  0
 29 30  1  0  0  0  0
 30 25  2  0  0  0  0
 33 40  1  0  0  0  0
 33 42  1  0  0  0  0
 34 33  2  0  0  0  0
 35 37  2  0  0  0  0
 35 34  1  0  0  0  0
 36 35  1  0  0  0  0
 37 39  1  0  0  0  0
 38 37  1  0  0  0  0
 39 40  2  0  0  0  0
 42 41  3  0  0  0  0
M  END
>  <minimizedAffinity>
-6.8730731

$$$$

 OpenBabel03262523073D

 42 46  0  0  0  0  0  0  0  0999 V2000
   37.0930   26.7800   32.3470 C   0  0  0  0  0  0  0  0  0  0  0  0
   37.6650   27.3630   31.2370 C   0  0  0  0  0  0  0  0  0  0  0  0
   37.4260   28.6830   30.9820 C   0  0  0  0  0  0  0  0  0  0  0  0
   36.6320   29.4070   31.8200 N   0  0  0  0  0  0  0  0  0  0  0  0
   36.0980   28.8170   32.8760 C   0  0  0  0  0  0  0  0  0  0  0  0
   36.3160   27.5120   33.1540 N   0  0  0  0  0  0  0  0  0  0  0  0
   38.2900   26.7480   30.5980 H   0  0  0  0  0  0  0  0  0  0  0  0
   37.8750   29.1460   30.1090 H   0  0  0  0  0  0  0  0  0  0  0  0
   35.2410   29.5780   33.7870 C   0  0  0  0  0  0  0  0  0  0  0  0
   33.8820   29.4170   33.8190 C   0  0  0  0  0  0  0  0  0  0  0  0
   32.9760   30.0630   34.6170 C   0  0  0  0  0  0  0  0  0  0  0  0
   33.5510   30.9900   35.4910 C   0  0  0  0  0  0  0  0  0  0  0  0
   32.7220   31.6710   36.3140 N   0  0  0  0  0  0  0  0  0  0  0  0
   33.1600   32.5850   37.1940 C   0  0  0  0  0  0  0  0  0  0  0  0
   34.5240   32.8410   37.2610 C   0  0  0  0  0  0  0  0  0  0  0  0
   35.3740   32.1430   36.4170 C   0  0  0  0  0  0  0  0  0  0  0  0
   34.9150   31.2020   35.5120 C   0  0  0  0  0  0  0  0  0  0  0  0
   35.7560   30.5120   34.6770 C   0  0  0  0  0  0  0  0  0  0  0  0
   33.4790   28.6840   33.1190 H   0  0  0  0  0  0  0  0  0  0  0  0
   31.9140   29.8640   34.5660 H   0  0  0  0  0  0  0  0  0  0  0  0
   32.4980   33.1360   37.8590 H   0  0  0  0  0  0  0  0  0  0  0  0
   34.8780   33.5770   37.9680 H   0  0  0  0  0  0  0  0  0  0  0  0
   36.4550   32.3520   36.4750 H   0  0  0  0  0  0  0  0  0  0  0  0
   36.8170   30.6930   34.7100 H   0  0  0  0  0  0  0  0  0  0  0  0
   37.2730   23.1180   32.1050 C   0  0  0  0  0  0  0  0  0  0  0  0
   37.7680   22.7590   33.3750 C   0  0  0  0  0  0  0  0  0  0  0  0
   38.0310   23.7950   34.2950 C   0  0  0  0  0  0  0  0  0  0  0  0
   37.7850   25.0570   33.8780 N   0  0  0  0  0  0  0  0  0  0  0  0
   37.3140   25.3690   32.6650 C   0  0  0  0  0  0  0  0  0  0  0  0
   37.0600   24.3990   31.7840 N   0  0  0  0  0  0  0  0  0  0  0  0
   37.0600   22.3620   31.3750 H   0  0  0  0  0  0  0  0  0  0  0  0
   37.9380   21.7480   33.6370 H   0  0  0  0  0  0  0  0  0  0  0  0
   39.8670   23.1760   35.7690 C   0  0  0  0  0  0  0  0  0  0  0  0
   38.5440   23.5340   35.6310 C   0  0  0  0  0  0  0  0  0  0  0  0
   37.7880   23.6220   36.7770 C   0  0  0  0  0  0  0  0  0  0  0  0
   36.7510   23.8990   36.7170 H   0  0  0  0  0  0  0  0  0  0  0  0
   38.3180   23.3640   38.0260 C   0  0  0  0  0  0  0  0  0  0  0  0
   37.6930   23.4420   38.9190 H   0  0  0  0  0  0  0  0  0  0  0  0
   39.6410   23.0040   38.1850 C   0  0  0  0  0  3  0  0  0  0  0  0
   40.3930   22.9160   37.0380 C   0  0  0  0  0  3  0  0  0  0  0  0
   41.5040   22.9170   33.7860 N   0  0  0  0  0  0  0  0  0  0  0  0
   40.7800   23.0410   34.6750 C   0  0  0  0  0  0  0  0  0  0  0  0
  1 29  1  0  0  0  0
  1  6  1  0  0  0  0
  2  1  2  0  0  0  0
  3  2  1  0  0  0  0
  3  4  2  0  0  0  0
  4  5  1  0  0  0  0
  5  6  2  0  0  0  0
  5  9  1  0  0  0  0
  7  2  1  0  0  0  0
  8  3  1  0  0  0  0
  9 10  2  0  0  0  0
  9 18  1  0  0  0  0
 10 11  1  0  0  0  0
 11 12  2  0  0  0  0
 12 17  1  0  0  0  0
 12 13  1  0  0  0  0
 13 14  2  0  0  0  0
 14 15  1  0  0  0  0
 14 21  1  0  0  0  0
 15 22  1  0  0  0  0
 16 23  1  0  0  0  0
 16 15  2  0  0  0  0
 17 16  1  0  0  0  0
 18 24  1  0  0  0  0
 18 17  2  0  0  0  0
 19 10  1  0  0  0  0
 20 11  1  0  0  0  0
 25 26  1  0  0  0  0
 26 32  1  0  0  0  0
 26 27  2  0  0  0  0
 27 34  1  0  0  0  0
 28 27  1  0  0  0  0
 29 28  2  0  0  0  0
 30 25  2  0  0  0  0
 30 29  1  0  0  0  0
 31 25  1  0  0  0  0
 33 40  1  0  0  0  0
 34 33  2  0  0  0  0
 34 35  1  0  0  0  0
 35 37  2  0  0  0  0
 36 35  1  0  0  0  0
 37 39  1  0  0  0  0
 37 38  1  0  0  0  0
 40 39  2  0  0  0  0
 41 42  3  0  0  0  0
 42 33  1  0  0  0  0
M  END
>  <minimizedAffinity>
-6.86545277

$$$$

 OpenBabel03262523073D

 42 46  0  0  0  0  0  0  0  0999 V2000
   36.8500   28.4630   31.9640 C   0  0  0  0  0  0  0  0  0  0  0  0
   37.6510   28.3670   30.8480 C   0  0  0  0  0  0  0  0  0  0  0  0
   38.5770   27.3650   30.7770 C   0  0  0  0  0  0  0  0  0  0  0  0
   38.6980   26.4750   31.8010 N   0  0  0  0  0  0  0  0  0  0  0  0
   37.9130   26.5940   32.8590 C   0  0  0  0  0  0  0  0  0  0  0  0
   36.9890   27.5760   32.9580 N   0  0  0  0  0  0  0  0  0  0  0  0
   37.5200   29.0970   30.0570 H   0  0  0  0  0  0  0  0  0  0  0  0
   39.2100   27.2850   29.8990 H   0  0  0  0  0  0  0  0  0  0  0  0
   38.0290   25.6480   33.9710 C   0  0  0  0  0  0  0  0  0  0  0  0
   38.2460   24.3120   33.7730 C   0  0  0  0  0  0  0  0  0  0  0  0
   38.3730   23.3300   34.7200 C   0  0  0  0  0  0  0  0  0  0  0  0
   38.2590   23.7930   36.0340 C   0  0  0  0  0  0  0  0  0  0  0  0
   38.3720   22.8840   37.0300 N   0  0  0  0  0  0  0  0  0  0  0  0
   38.2810   23.2130   38.3280 C   0  0  0  0  0  0  0  0  0  0  0  0
   38.0600   24.5430   38.6610 C   0  0  0  0  0  0  0  0  0  0  0  0
   37.9440   25.4750   37.6420 C   0  0  0  0  0  0  0  0  0  0  0  0
   38.0390   25.1290   36.3050 C   0  0  0  0  0  0  0  0  0  0  0  0
   37.9250   26.0510   35.2970 C   0  0  0  0  0  0  0  0  0  0  0  0
   38.3280   23.9970   32.7320 H   0  0  0  0  0  0  0  0  0  0  0  0
   38.5440   22.2940   34.4610 H   0  0  0  0  0  0  0  0  0  0  0  0
   38.3700   22.4860   39.1330 H   0  0  0  0  0  0  0  0  0  0  0  0
   37.9850   24.8080   39.7070 H   0  0  0  0  0  0  0  0  0  0  0  0
   37.7690   26.5280   37.9140 H   0  0  0  0  0  0  0  0  0  0  0  0
   37.7540   27.0880   35.5300 H   0  0  0  0  0  0  0  0  0  0  0  0
   34.5430   31.2170   31.1980 C   0  0  0  0  0  0  0  0  0  0  0  0
   33.9520   31.4700   32.4530 C   0  0  0  0  0  0  0  0  0  0  0  0
   34.3660   30.6790   33.5450 C   0  0  0  0  0  0  0  0  0  0  0  0
   35.3010   29.7360   33.2950 N   0  0  0  0  0  0  0  0  0  0  0  0
   35.8450   29.5180   32.0920 C   0  0  0  0  0  0  0  0  0  0  0  0
   35.4650   30.2590   31.0490 N   0  0  0  0  0  0  0  0  0  0  0  0
   34.2580   31.7950   30.3410 H   0  0  0  0  0  0  0  0  0  0  0  0
   33.2230   32.2260   32.5790 H   0  0  0  0  0  0  0  0  0  0  0  0
   34.4880   31.6780   35.7610 C   0  0  0  0  0  0  0  0  0  0  0  0
   33.8190   30.8560   34.8810 C   0  0  0  0  0  0  0  0  0  0  0  0
   32.6680   30.2510   35.3290 C   0  0  0  0  0  0  0  0  0  0  0  0
   32.1130   29.6010   34.6760 H   0  0  0  0  0  0  0  0  0  0  0  0
   32.1860   30.4480   36.6080 C   0  0  0  0  0  0  0  0  0  0  0  0
   31.2680   29.9540   36.9360 H   0  0  0  0  0  0  0  0  0  0  0  0
   32.8410   31.2670   37.5050 C   0  0  0  0  0  3  0  0  0  0  0  0
   33.9920   31.8710   37.0550 C   0  0  0  0  0  3  0  0  0  0  0  0
   36.6820   32.9240   35.2030 N   0  0  0  0  0  0  0  0  0  0  0  0
   35.6960   32.3760   35.4470 C   0  0  0  0  0  0  0  0  0  0  0  0
  1 29  1  0  0  0  0
  1  6  1  0  0  0  0
  2  1  2  0  0  0  0
  3  2  1  0  0  0  0
  3  4  2  0  0  0  0
  4  5  1  0  0  0  0
  5  6  2  0  0  0  0
  5  9  1  0  0  0  0
  7  2  1  0  0  0  0
  8  3  1  0  0  0  0
  9 18  1  0  0  0  0
 10  9  2  0  0  0  0
 10 11  1  0  0  0  0
 11 12  2  0  0  0  0
 12 17  1  0  0  0  0
 12 13  1  0  0  0  0
 13 14  2  0  0  0  0
 14 15  1  0  0  0  0
 14 21  1  0  0  0  0
 15 22  1  0  0  0  0
 16 23  1  0  0  0  0
 16 15  2  0  0  0  0
 17 16  1  0  0  0  0
 18 24  1  0  0  0  0
 18 17  2  0  0  0  0
 19 10  1  0  0  0  0
 20 11  1  0  0  0  0
 25 26  1  0  0  0  0
 26 32  1  0  0  0  0
 26 27  2  0  0  0  0
 27 34  1  0  0  0  0
 28 27  1  0  0  0  0
 29 28  2  0  0  0  0
 30 25  2  0  0  0  0
 30 29  1  0  0  0  0
 31 25  1  0  0  0  0
 33 40  1  0  0  0  0
 34 35  1  0  0  0  0
 34 33  2  0  0  0  0
 35 37  2  0  0  0  0
 36 35  1  0  0  0  0
 37 38  1  0  0  0  0
 37 39  1  0  0  0  0
 40 39  2  0  0  0  0
 41 42  3  0  0  0  0
 42 33  1  0  0  0  0
M  END
>  <minimizedAffinity>
-6.71339893

$$$$

 OpenBabel03262523073D

 42 46  0  0  0  0  0  0  0  0999 V2000
   36.1250   28.7100   32.7420 C   0  0  0  0  0  0  0  0  0  0  0  0
   36.7120   28.9550   31.5200 C   0  0  0  0  0  0  0  0  0  0  0  0
   37.8280   28.2510   31.1650 C   0  0  0  0  0  0  0  0  0  0  0  0
   38.3460   27.3200   32.0140 N   0  0  0  0  0  0  0  0  0  0  0  0
   37.7580   27.1090   33.1800 C   0  0  0  0  0  0  0  0  0  0  0  0
   36.6530   27.7900   33.5580 N   0  0  0  0  0  0  0  0  0  0  0  0
   36.2660   29.7050   30.8760 H   0  0  0  0  0  0  0  0  0  0  0  0
   38.2940   28.4410   30.2030 H   0  0  0  0  0  0  0  0  0  0  0  0
   38.3000   26.1130   34.1060 C   0  0  0  0  0  0  0  0  0  0  0  0
   39.3860   25.3410   33.7950 C   0  0  0  0  0  0  0  0  0  0  0  0
   39.9860   24.3810   34.5670 C   0  0  0  0  0  0  0  0  0  0  0  0
   39.3830   24.2010   35.8150 C   0  0  0  0  0  0  0  0  0  0  0  0
   39.9160   23.2690   36.6390 N   0  0  0  0  0  0  0  0  0  0  0  0
   39.4220   23.0090   37.8590 C   0  0  0  0  0  0  0  0  0  0  0  0
   38.3160   23.7280   38.2940 C   0  0  0  0  0  0  0  0  0  0  0  0
   37.7690   24.6830   37.4510 C   0  0  0  0  0  0  0  0  0  0  0  0
   38.2830   24.9450   36.1930 C   0  0  0  0  0  0  0  0  0  0  0  0
   37.7420   25.8900   35.3590 C   0  0  0  0  0  0  0  0  0  0  0  0
   39.8220   25.5170   32.8110 H   0  0  0  0  0  0  0  0  0  0  0  0
   40.8470   23.8210   34.2290 H   0  0  0  0  0  0  0  0  0  0  0  0
   39.8460   22.2610   38.5260 H   0  0  0  0  0  0  0  0  0  0  0  0
   37.9170   23.5190   39.2770 H   0  0  0  0  0  0  0  0  0  0  0  0
   36.8910   25.2490   37.8020 H   0  0  0  0  0  0  0  0  0  0  0  0
   36.8850   26.4590   35.6730 H   0  0  0  0  0  0  0  0  0  0  0  0
   32.6340   29.7670   33.1840 C   0  0  0  0  0  0  0  0  0  0  0  0
   32.7650   30.8760   34.0430 C   0  0  0  0  0  0  0  0  0  0  0  0
   34.0640   31.2400   34.4550 C   0  0  0  0  0  0  0  0  0  0  0  0
   35.0840   30.4870   33.9870 N   0  0  0  0  0  0  0  0  0  0  0  0
   34.9300   29.4370   33.1720 C   0  0  0  0  0  0  0  0  0  0  0  0
   33.7070   29.0820   32.7730 N   0  0  0  0  0  0  0  0  0  0  0  0
   31.6650   29.4560   32.8460 H   0  0  0  0  0  0  0  0  0  0  0  0
   31.9210   31.4240   34.3720 H   0  0  0  0  0  0  0  0  0  0  0  0
   33.7720   32.3370   36.6080 C   0  0  0  0  0  0  0  0  0  0  0  0
   34.3100   32.3670   35.3400 C   0  0  0  0  0  0  0  0  0  0  0  0
   35.0500   33.4730   34.9920 C   0  0  0  0  0  0  0  0  0  0  0  0
   35.4900   33.5390   34.0130 H   0  0  0  0  0  0  0  0  0  0  0  0
   35.2580   34.5220   35.8670 C   0  0  0  0  0  0  0  0  0  0  0  0
   35.8510   35.3870   35.5620 H   0  0  0  0  0  0  0  0  0  0  0  0
   34.7270   34.5100   37.1410 C   0  0  0  0  0  3  0  0  0  0  0  0
   33.9870   33.4040   37.4860 C   0  0  0  0  0  3  0  0  0  0  0  0
   32.3360   30.4040   37.5450 N   0  0  0  0  0  0  0  0  0  0  0  0
   32.9790   31.2600   37.1170 C   0  0  0  0  0  0  0  0  0  0  0  0
  1 29  1  0  0  0  0
  1  6  1  0  0  0  0
  2  1  2  0  0  0  0
  3  2  1  0  0  0  0
  3  4  2  0  0  0  0
  4  5  1  0  0  0  0
  5  6  2  0  0  0  0
  5  9  1  0  0  0  0
  7  2  1  0  0  0  0
  8  3  1  0  0  0  0
  9 18  1  0  0  0  0
 10  9  2  0  0  0  0
 10 11  1  0  0  0  0
 11 12  2  0  0  0  0
 12 17  1  0  0  0  0
 12 13  1  0  0  0  0
 13 14  2  0  0  0  0
 14 15  1  0  0  0  0
 14 21  1  0  0  0  0
 15 22  1  0  0  0  0
 16 23  1  0  0  0  0
 16 15  2  0  0  0  0
 17 16  1  0  0  0  0
 18 24  1  0  0  0  0
 18 17  2  0  0  0  0
 19 10  1  0  0  0  0
 20 11  1  0  0  0  0
 25 26  1  0  0  0  0
 26 32  1  0  0  0  0
 26 27  2  0  0  0  0
 27 34  1  0  0  0  0
 28 27  1  0  0  0  0
 29 28  2  0  0  0  0
 30 29  1  0  0  0  0
 30 25  2  0  0  0  0
 31 25  1  0  0  0  0
 33 42  1  0  0  0  0
 33 40  1  0  0  0  0
 34 33  2  0  0  0  0
 35 34  1  0  0  0  0
 35 37  2  0  0  0  0
 36 35  1  0  0  0  0
 37 39  1  0  0  0  0
 38 37  1  0  0  0  0
 39 40  2  0  0  0  0
 42 41  3  0  0  0  0
M  END
>  <minimizedAffinity>
-6.6564765

$$$$

 OpenBabel03262523073D

 42 46  0  0  0  0  0  0  0  0999 V2000
   36.7430   27.1470   32.3410 C   0  0  0  0  0  0  0  0  0  0  0  0
   36.1150   26.0550   31.7830 C   0  0  0  0  0  0  0  0  0  0  0  0
   36.7120   24.8300   31.8680 C   0  0  0  0  0  0  0  0  0  0  0  0
   37.9110   24.6970   32.4990 N   0  0  0  0  0  0  0  0  0  0  0  0
   38.4880   25.7660   33.0250 C   0  0  0  0  0  0  0  0  0  0  0  0
   37.9220   26.9910   32.9560 N   0  0  0  0  0  0  0  0  0  0  0  0
   35.1610   26.2070   31.2900 H   0  0  0  0  0  0  0  0  0  0  0  0
   36.2200   23.9670   31.4300 H   0  0  0  0  0  0  0  0  0  0  0  0
   39.7780   25.6440   33.7060 C   0  0  0  0  0  0  0  0  0  0  0  0
   40.7360   26.6190   33.6390 C   0  0  0  0  0  0  0  0  0  0  0  0
   41.9730   26.6260   34.2260 C   0  0  0  0  0  0  0  0  0  0  0  0
   42.2500   25.4790   34.9750 C   0  0  0  0  0  0  0  0  0  0  0  0
   43.4550   25.4080   35.5870 N   0  0  0  0  0  0  0  0  0  0  0  0
   43.8310   24.3570   36.3320 C   0  0  0  0  0  0  0  0  0  0  0  0
   42.9450   23.2970   36.4790 C   0  0  0  0  0  0  0  0  0  0  0  0
   41.7110   23.3690   35.8520 C   0  0  0  0  0  0  0  0  0  0  0  0
   41.3300   24.4560   35.0850 C   0  0  0  0  0  0  0  0  0  0  0  0
   40.1090   24.5270   34.4650 C   0  0  0  0  0  0  0  0  0  0  0  0
   40.4740   27.4940   33.0430 H   0  0  0  0  0  0  0  0  0  0  0  0
   42.6630   27.4500   34.1120 H   0  0  0  0  0  0  0  0  0  0  0  0
   44.7980   24.2940   36.8270 H   0  0  0  0  0  0  0  0  0  0  0  0
   43.2470   22.4500   37.0780 H   0  0  0  0  0  0  0  0  0  0  0  0
   41.0130   22.5250   35.9730 H   0  0  0  0  0  0  0  0  0  0  0  0
   39.4050   23.7190   34.5640 H   0  0  0  0  0  0  0  0  0  0  0  0
   35.4780   30.3640   31.0970 C   0  0  0  0  0  0  0  0  0  0  0  0
   35.0200   30.9820   32.2770 C   0  0  0  0  0  0  0  0  0  0  0  0
   35.1580   30.2710   33.4880 C   0  0  0  0  0  0  0  0  0  0  0  0
   35.7230   29.0450   33.4130 N   0  0  0  0  0  0  0  0  0  0  0  0
   36.1490   28.4830   32.2760 C   0  0  0  0  0  0  0  0  0  0  0  0
   36.0250   29.1440   31.1230 N   0  0  0  0  0  0  0  0  0  0  0  0
   35.3910   30.8690   30.1540 H   0  0  0  0  0  0  0  0  0  0  0  0
   34.5860   31.9470   32.2650 H   0  0  0  0  0  0  0  0  0  0  0  0
   33.4430   30.5280   35.1960 C   0  0  0  0  0  0  0  0  0  0  0  0
   34.7180   30.8160   34.7620 C   0  0  0  0  0  0  0  0  0  0  0  0
   35.4980   31.6090   35.5710 C   0  0  0  0  0  0  0  0  0  0  0  0
   36.5010   31.8600   35.2730 H   0  0  0  0  0  0  0  0  0  0  0  0
   35.0380   32.1060   36.7750 C   0  0  0  0  0  0  0  0  0  0  0  0
   35.6810   32.7330   37.3970 H   0  0  0  0  0  0  0  0  0  0  0  0
   33.7640   31.8290   37.2260 C   0  0  0  0  0  3  0  0  0  0  0  0
   32.9860   31.0360   36.4160 C   0  0  0  0  0  3  0  0  0  0  0  0
   31.7470   29.0820   33.8880 N   0  0  0  0  0  0  0  0  0  0  0  0
   32.5120   29.7200   34.4690 C   0  0  0  0  0  0  0  0  0  0  0  0
  1  6  1  0  0  0  0
  2  3  1  0  0  0  0
  2  1  2  0  0  0  0
  3  4  2  0  0  0  0
  4  5  1  0  0  0  0
  5  9  1  0  0  0  0
  6  5  2  0  0  0  0
  7  2  1  0  0  0  0
  8  3  1  0  0  0  0
  9 18  1  0  0  0  0
 10  9  2  0  0  0  0
 10 11  1  0  0  0  0
 11 12  2  0  0  0  0
 12 17  1  0  0  0  0
 12 13  1  0  0  0  0
 13 14  2  0  0  0  0
 14 15  1  0  0  0  0
 14 21  1  0  0  0  0
 15 22  1  0  0  0  0
 16 23  1  0  0  0  0
 16 15  2  0  0  0  0
 17 16  1  0  0  0  0
 18 24  1  0  0  0  0
 18 17  2  0  0  0  0
 19 10  1  0  0  0  0
 20 11  1  0  0  0  0
 25 30  2  0  0  0  0
 25 26  1  0  0  0  0
 26 27  2  0  0  0  0
 27 34  1  0  0  0  0
 28 27  1  0  0  0  0
 29  1  1  0  0  0  0
 29 28  2  0  0  0  0
 30 29  1  0  0  0  0
 31 25  1  0  0  0  0
 32 26  1  0  0  0  0
 33 40  1  0  0  0  0
 34 33  2  0  0  0  0
 34 35  1  0  0  0  0
 35 37  2  0  0  0  0
 36 35  1  0  0  0  0
 37 39  1  0  0  0  0
 37 38  1  0  0  0  0
 40 39  2  0  0  0  0
 41 42  3  0  0  0  0
 42 33  1  0  0  0  0
M  END
>  <minimizedAffinity>
-6.64542198

$$$$

 OpenBabel03262523073D

 42 46  0  0  0  0  0  0  0  0999 V2000
   37.5810   27.7240   31.5180 C   0  0  0  0  0  0  0  0  0  0  0  0
   37.6120   28.2350   30.2390 C   0  0  0  0  0  0  0  0  0  0  0  0
   36.8100   29.2960   29.9280 C   0  0  0  0  0  0  0  0  0  0  0  0
   35.9950   29.8370   30.8760 N   0  0  0  0  0  0  0  0  0  0  0  0
   35.9900   29.3230   32.0950 C   0  0  0  0  0  0  0  0  0  0  0  0
   36.7710   28.2730   32.4320 N   0  0  0  0  0  0  0  0  0  0  0  0
   38.2760   27.7730   29.5170 H   0  0  0  0  0  0  0  0  0  0  0  0
   36.8320   29.7020   28.9210 H   0  0  0  0  0  0  0  0  0  0  0  0
   35.1200   29.8900   33.1270 C   0  0  0  0  0  0  0  0  0  0  0  0
   33.7560   29.8040   33.0620 C   0  0  0  0  0  0  0  0  0  0  0  0
   32.8370   30.2890   33.9550 C   0  0  0  0  0  0  0  0  0  0  0  0
   33.4060   30.9440   35.0510 C   0  0  0  0  0  0  0  0  0  0  0  0
   32.5650   31.4540   35.9800 N   0  0  0  0  0  0  0  0  0  0  0  0
   32.9960   32.1020   37.0730 C   0  0  0  0  0  0  0  0  0  0  0  0
   34.3640   32.2570   37.2560 C   0  0  0  0  0  0  0  0  0  0  0  0
   35.2270   31.7360   36.3040 C   0  0  0  0  0  0  0  0  0  0  0  0
   34.7750   31.0680   35.1790 C   0  0  0  0  0  0  0  0  0  0  0  0
   35.6280   30.5520   34.2380 C   0  0  0  0  0  0  0  0  0  0  0  0
   33.3580   29.2840   32.1900 H   0  0  0  0  0  0  0  0  0  0  0  0
   31.7720   30.1680   33.8130 H   0  0  0  0  0  0  0  0  0  0  0  0
   32.3250   32.5140   37.8240 H   0  0  0  0  0  0  0  0  0  0  0  0
   34.7120   32.7810   38.1360 H   0  0  0  0  0  0  0  0  0  0  0  0
   36.3100   31.8630   36.4560 H   0  0  0  0  0  0  0  0  0  0  0  0
   36.6920   30.6600   34.3580 H   0  0  0  0  0  0  0  0  0  0  0  0
   40.2420   25.1920   31.5820 C   0  0  0  0  0  0  0  0  0  0  0  0
   39.9070   24.4360   32.7230 C   0  0  0  0  0  0  0  0  0  0  0  0
   38.7620   24.8170   33.4520 C   0  0  0  0  0  0  0  0  0  0  0  0
   38.0750   25.8870   32.9920 N   0  0  0  0  0  0  0  0  0  0  0  0
   38.4170   26.5870   31.9040 C   0  0  0  0  0  0  0  0  0  0  0  0
   39.4980   26.2370   31.2040 N   0  0  0  0  0  0  0  0  0  0  0  0
   41.1050   24.9370   30.9990 H   0  0  0  0  0  0  0  0  0  0  0  0
   40.4900   23.6070   33.0290 H   0  0  0  0  0  0  0  0  0  0  0  0
   38.2160   24.8070   35.8250 C   0  0  0  0  0  0  0  0  0  0  0  0
   38.3280   24.1060   34.6450 C   0  0  0  0  0  0  0  0  0  0  0  0
   38.0210   22.7650   34.6720 C   0  0  0  0  0  0  0  0  0  0  0  0
   38.0940   22.1780   33.7740 H   0  0  0  0  0  0  0  0  0  0  0  0
   37.6140   22.1300   35.8290 C   0  0  0  0  0  0  0  0  0  0  0  0
   37.3760   21.0630   35.8210 H   0  0  0  0  0  0  0  0  0  0  0  0
   37.4950   22.8150   37.0210 C   0  0  0  0  0  3  0  0  0  0  0  0
   37.8040   24.1550   36.9910 C   0  0  0  0  0  3  0  0  0  0  0  0
   38.7090   27.3320   36.0640 N   0  0  0  0  0  0  0  0  0  0  0  0
   38.5000   26.2030   35.9580 C   0  0  0  0  0  0  0  0  0  0  0  0
  1 29  1  0  0  0  0
  1  6  1  0  0  0  0
  2  1  2  0  0  0  0
  3  2  1  0  0  0  0
  3  4  2  0  0  0  0
  4  5  1  0  0  0  0
  5  6  2  0  0  0  0
  5  9  1  0  0  0  0
  7  2  1  0  0  0  0
  8  3  1  0  0  0  0
  9 18  1  0  0  0  0
 10  9  2  0  0  0  0
 10 11  1  0  0  0  0
 11 12  2  0  0  0  0
 12 17  1  0  0  0  0
 12 13  1  0  0  0  0
 13 14  2  0  0  0  0
 14 15  1  0  0  0  0
 14 21  1  0  0  0  0
 15 22  1  0  0  0  0
 16 23  1  0  0  0  0
 16 15  2  0  0  0  0
 17 16  1  0  0  0  0
 18 24  1  0  0  0  0
 18 17  2  0  0  0  0
 19 10  1  0  0  0  0
 20 11  1  0  0  0  0
 25 26  1  0  0  0  0
 26 32  1  0  0  0  0
 26 27  2  0  0  0  0
 27 34  1  0  0  0  0
 28 27  1  0  0  0  0
 29 28  2  0  0  0  0
 30 25  2  0  0  0  0
 30 29  1  0  0  0  0
 31 25  1  0  0  0  0
 33 42  1  0  0  0  0
 33 40  1  0  0  0  0
 34 35  1  0  0  0  0
 34 33  2  0  0  0  0
 35 37  2  0  0  0  0
 36 35  1  0  0  0  0
 37 39  1  0  0  0  0
 38 37  1  0  0  0  0
 40 39  2  0  0  0  0
 42 41  3  0  0  0  0
M  END
>  <minimizedAffinity>
-6.58726072

$$$$
