
 OpenBabel03272509213D

 47 51  0  0  0  0  0  0  0  0999 V2000
   39.6930   31.8450   46.4460 O   0  0  0  0  0  0  0  0  0  0  0  0
   39.4340   30.3060   44.4910 C   0  0  0  0  0  0  0  0  0  0  0  0
   39.2300   31.4630   45.2140 C   0  0  0  0  0  0  0  0  0  0  0  0
   38.4240   32.4680   44.6670 C   0  0  0  0  0  0  0  0  0  0  0  0
   37.8370   32.2980   43.4070 C   0  0  0  0  0  0  0  0  0  0  0  0
   37.0390   33.0370   42.6210 N   0  0  0  0  0  0  0  0  0  0  0  0
   36.7590   32.3890   41.4760 C   0  0  0  0  0  0  0  0  0  0  0  0
   37.4040   31.1960   41.5430 N   0  0  0  0  0  0  0  0  0  0  0  0
   38.0690   31.1230   42.7180 C   0  0  0  0  0  0  0  0  0  0  0  0
   38.8610   30.1300   43.2510 C   0  0  0  0  0  0  0  0  0  0  0  0
   40.0650   29.6130   45.0080 H   0  0  0  0  0  0  0  0  0  0  0  0
   38.1710   33.4230   45.1090 H   0  0  0  0  0  0  0  0  0  0  0  0
   36.6880   33.9690   42.8550 H   0  0  0  0  0  0  0  0  0  0  0  0
   36.1490   32.7460   40.6760 H   0  0  0  0  0  0  0  0  0  0  0  0
   39.9700   28.6990   41.4760 C   0  0  0  0  0  0  0  0  0  0  0  0
   39.1320   28.8760   42.5560 C   0  0  0  0  0  0  0  0  0  0  0  0
   38.4360   27.8080   43.0980 C   0  0  0  0  0  0  0  0  0  0  0  0
   37.7520   27.8760   43.9570 H   0  0  0  0  0  0  0  0  0  0  0  0
   38.5650   26.5270   42.5690 C   0  0  0  0  0  0  0  0  0  0  0  0
   38.0150   25.6900   43.0010 H   0  0  0  0  0  0  0  0  0  0  0  0
   39.4190   26.3640   41.4740 C   0  0  0  0  0  3  0  0  0  0  0  0
   40.1110   27.4370   40.9370 C   0  0  0  0  0  3  0  0  0  0  0  0
   41.1950   30.8030   40.6040 N   0  0  0  0  0  0  0  0  0  0  0  0
   40.6410   29.8720   40.9940 C   0  0  0  0  0  0  0  0  0  0  0  0
   37.9830   31.3580   48.1000 C   0  0  0  0  0  0  0  0  0  0  0  0
   37.2190   31.6240   49.2190 C   0  0  0  0  0  0  0  0  0  0  0  0
   37.5120   32.8470   49.8310 C   0  0  0  0  0  0  0  0  0  0  0  0
   38.5030   33.7130   49.3320 C   0  0  0  0  0  0  0  0  0  0  0  0
   39.2180   33.3370   48.1840 C   0  0  0  0  0  0  0  0  0  0  0  0
   38.9380   32.1280   47.5680 C   0  0  0  0  0  0  0  0  0  0  0  0
   36.9510   33.1130   50.7090 H   0  0  0  0  0  0  0  0  0  0  0  0
   38.6890   34.6480   49.8450 H   0  0  0  0  0  0  0  0  0  0  0  0
   39.9730   34.0370   47.8340 H   0  0  0  0  0  0  0  0  0  0  0  0
   34.9840   30.6480   49.0920 C   0  0  0  0  0  0  0  0  0  0  0  0
   36.2150   30.7480   49.7290 C   0  0  0  0  0  0  0  0  0  0  0  0
   36.4260   29.9650   50.8780 C   0  0  0  0  0  0  0  0  0  0  0  0
   35.4240   29.1580   51.3020 N   0  0  0  0  0  0  0  0  0  0  0  0
   34.2280   29.0940   50.6400 C   0  0  0  0  0  0  0  0  0  0  0  0
   34.0180   29.8330   49.5490 N   0  0  0  0  0  0  0  0  0  0  0  0
   34.7430   31.2130   48.2090 H   0  0  0  0  0  0  0  0  0  0  0  0
   33.5690   28.3990   51.1300 H   0  0  0  0  0  0  0  0  0  0  0  0
   37.7220   30.0310   51.6000 C   0  0  0  0  0  0  0  0  0  0  0  0
   38.2510   30.9390   51.2740 H   0  0  0  0  0  0  0  0  0  0  0  0
   38.3250   29.1640   51.2560 H   0  0  0  0  0  0  0  0  0  0  0  0
   37.5650   29.9560   52.6820 H   0  0  0  0  0  0  0  0  0  0  0  0
   37.7660   30.1570   47.4150 O   0  0  0  0  0  0  0  0  0  0  0  0
   36.8580   30.0360   46.9950 H   0  0  0  0  0  0  0  0  0  0  0  0
  1 30  1  0  0  0  0
  2 11  1  0  0  0  0
  2  3  1  0  0  0  0
  3  1  1  0  0  0  0
  4 12  1  0  0  0  0
  4  3  2  0  0  0  0
  5  4  1  0  0  0  0
  6 13  1  0  0  0  0
  6  5  1  0  0  0  0
  7  8  2  0  0  0  0
  7  6  1  0  0  0  0
  8  9  1  0  0  0  0
  9 10  1  0  0  0  0
  9  5  2  0  0  0  0
 10  2  2  0  0  0  0
 14  7  1  0  0  0  0
 15 16  1  0  0  0  0
 16 17  2  0  0  0  0
 16 10  1  0  0  0  0
 17 18  1  0  0  0  0
 19 20  1  0  0  0  0
 19 17  1  0  0  0  0
 21 19  2  0  0  0  0
 22 21  1  0  0  0  0
 22 15  2  0  0  0  0
 23 24  3  0  0  0  0
 24 15  1  0  0  0  0
 25 26  1  0  0  0  0
 26 35  1  0  0  0  0
 26 27  2  0  0  0  0
 27 31  1  0  0  0  0
 28 27  1  0  0  0  0
 28 32  1  0  0  0  0
 29 28  2  0  0  0  0
 30 25  2  0  0  0  0
 30 29  1  0  0  0  0
 33 29  1  0  0  0  0
 34 39  2  0  0  0  0
 34 35  1  0  0  0  0
 35 36  2  0  0  0  0
 36 37  1  0  0  0  0
 36 42  1  0  0  0  0
 38 41  1  0  0  0  0
 38 37  2  0  0  0  0
 39 38  1  0  0  0  0
 40 34  1  0  0  0  0
 42 45  1  0  0  0  0
 43 42  1  0  0  0  0
 44 42  1  0  0  0  0
 46 25  1  0  0  0  0
 47 46  1  0  0  0  0
M  END
>  <minimizedAffinity>
-7.05676365

>  <minimizedRMSD>
1.7702105

$$$$
