
 OpenBabel03262523233D

 34 36  0  0  1  0  0  0  0  0999 V2000
   37.2220   21.5470   32.5130 C   0  0  0  0  0  0  0  0  0  0  0  0
   38.4490   20.8640   32.4420 C   0  0  0  0  0  0  0  0  0  0  0  0
   39.5820   21.5090   32.9090 C   0  0  0  0  0  0  0  0  0  0  0  0
   39.4170   22.7560   33.4000 N   0  0  0  0  0  0  0  0  0  0  0  0
   38.2550   23.4060   33.4680 C   0  0  0  0  0  0  0  0  0  0  0  0
   37.1520   22.7980   33.0210 N   0  0  0  0  0  0  0  0  0  0  0  0
   38.2000   24.7250   34.0100 N   0  0  0  0  0  0  0  0  0  0  0  0
   37.3990   25.7500   33.3190 C   0  0  0  0  0  0  0  0  0  0  0  0
   37.9340   27.1340   33.4790 C   0  0  0  0  0  0  0  0  0  0  0  0
   39.4100   27.0250   33.8220 C   0  0  0  0  0  0  0  0  0  0  0  0
   39.4560   26.4590   35.2270 C   0  0  0  0  0  0  0  0  0  0  0  0
   38.8870   25.0750   35.2070 C   0  0  2  0  0  0  0  0  0  0  0  0
   36.3050   21.0870   32.1600 H   0  0  0  0  0  0  0  0  0  0  0  0
   38.3950   19.8870   32.0260 H   0  0  0  0  0  0  0  0  0  0  0  0
   40.5020   20.9820   32.8510 H   0  0  0  0  0  0  0  0  0  0  0  0
   37.2560   25.4570   32.2570 H   0  0  0  0  0  0  0  0  0  0  0  0
   36.3950   25.7060   33.7930 H   0  0  0  0  0  0  0  0  0  0  0  0
   37.3920   27.7590   34.1890 H   0  0  0  0  0  0  0  0  0  0  0  0
   37.8620   27.6360   32.4710 H   0  0  0  0  0  0  0  0  0  0  0  0
   39.8180   28.0400   33.8610 H   0  0  0  0  0  0  0  0  0  0  0  0
   39.8660   26.3810   33.0690 H   0  0  0  0  0  0  0  0  0  0  0  0
   40.5390   26.4870   35.5130 H   0  0  0  0  0  0  0  0  0  0  0  0
   38.9200   27.1830   35.8630 H   0  0  0  0  0  0  0  0  0  0  0  0
   38.0500   25.1170   35.9900 H   0  0  0  0  0  0  0  0  0  0  0  0
   39.6490   23.2190   36.6730 C   0  0  0  0  0  0  0  0  0  0  0  0
   39.9350   24.1690   35.6810 C   0  0  0  0  0  0  0  0  0  0  0  0
   41.2570   24.1410   35.2950 C   0  0  0  0  0  0  0  0  0  0  0  0
   41.5610   24.8530   34.5410 H   0  0  0  0  0  0  0  0  0  0  0  0
   42.1910   23.2740   35.8250 C   0  0  0  0  0  0  0  0  0  0  0  0
   43.2040   23.3400   35.4460 H   0  0  0  0  0  0  0  0  0  0  0  0
   41.8420   22.3660   36.7950 C   0  0  0  0  0  3  0  0  0  0  0  0
   40.5400   22.3290   37.2370 C   0  0  0  0  0  3  0  0  0  0  0  0
   37.1700   23.1110   37.5450 N   0  0  0  0  0  0  0  0  0  0  0  0
   38.2770   23.1630   37.1550 C   0  0  0  0  0  0  0  0  0  0  0  0
  1  6  1  0  0  0  0
  2  1  2  0  0  0  0
  2  3  1  0  0  0  0
  3  4  2  0  0  0  0
  4  5  1  0  0  0  0
  5  7  1  0  0  0  0
  6  5  2  0  0  0  0
  7 12  1  0  0  0  0
  8  9  1  0  0  0  0
  8 17  1  0  0  0  0
  8  7  1  0  0  0  0
  9 10  1  0  0  0  0
  9 18  1  0  0  0  0
 10 20  1  0  0  0  0
 10 11  1  0  0  0  0
 11 22  1  0  0  0  0
 11 23  1  0  0  0  0
 12 11  1  0  0  0  0
 12 26  1  0  0  0  0
 12 24  1  1  0  0  0
 13  1  1  0  0  0  0
 14  2  1  0  0  0  0
 15  3  1  0  0  0  0
 16  8  1  0  0  0  0
 19  9  1  0  0  0  0
 21 10  1  0  0  0  0
 25 34  1  0  0  0  0
 25 32  1  0  0  0  0
 26 25  2  0  0  0  0
 27 26  1  0  0  0  0
 27 29  2  0  0  0  0
 28 27  1  0  0  0  0
 29 31  1  0  0  0  0
 30 29  1  0  0  0  0
 31 32  2  0  0  0  0
 34 33  3  0  0  0  0
M  END
>  <minimizedAffinity>
-4.93336582

$$$$

 OpenBabel03262523233D

 34 36  0  0  1  0  0  0  0  0999 V2000
   36.5690   22.5350   31.8090 C   0  0  0  0  0  0  0  0  0  0  0  0
   35.6860   23.3260   31.0530 C   0  0  0  0  0  0  0  0  0  0  0  0
   35.6650   24.6900   31.2940 C   0  0  0  0  0  0  0  0  0  0  0  0
   36.5020   25.1560   32.2450 N   0  0  0  0  0  0  0  0  0  0  0  0
   37.3400   24.4080   32.9630 C   0  0  0  0  0  0  0  0  0  0  0  0
   37.3720   23.0900   32.7430 N   0  0  0  0  0  0  0  0  0  0  0  0
   38.1830   25.0120   33.9430 N   0  0  0  0  0  0  0  0  0  0  0  0
   38.3280   24.3650   35.2580 C   0  0  0  0  0  0  0  0  0  0  0  0
   38.5770   25.3270   36.3730 C   0  0  0  0  0  0  0  0  0  0  0  0
   38.0640   26.6880   35.9340 C   0  0  0  0  0  0  0  0  0  0  0  0
   39.0160   27.1460   34.8470 C   0  0  0  0  0  0  0  0  0  0  0  0
   38.8970   26.2150   33.6810 C   0  0  2  0  0  0  0  0  0  0  0  0
   36.6240   21.4620   31.6610 H   0  0  0  0  0  0  0  0  0  0  0  0
   35.0990   22.7930   30.3460 H   0  0  0  0  0  0  0  0  0  0  0  0
   34.9940   25.2760   30.7160 H   0  0  0  0  0  0  0  0  0  0  0  0
   37.4590   23.6980   35.4430 H   0  0  0  0  0  0  0  0  0  0  0  0
   39.2160   23.7030   35.1630 H   0  0  0  0  0  0  0  0  0  0  0  0
   39.6080   25.3690   36.7230 H   0  0  0  0  0  0  0  0  0  0  0  0
   37.9420   24.9960   37.2450 H   0  0  0  0  0  0  0  0  0  0  0  0
   38.1760   27.3730   36.7810 H   0  0  0  0  0  0  0  0  0  0  0  0
   37.0370   26.5490   35.5950 H   0  0  0  0  0  0  0  0  0  0  0  0
   38.6980   28.1930   34.6100 H   0  0  0  0  0  0  0  0  0  0  0  0
   40.0120   27.1930   35.3170 H   0  0  0  0  0  0  0  0  0  0  0  0
   39.9740   25.8530   33.5160 H   0  0  0  0  0  0  0  0  0  0  0  0
   39.1930   26.9320   31.3200 C   0  0  0  0  0  0  0  0  0  0  0  0
   38.4840   27.0160   32.5280 C   0  0  0  0  0  0  0  0  0  0  0  0
   37.4550   27.9300   32.4670 C   0  0  0  0  0  0  0  0  0  0  0  0
   36.8660   28.0630   33.3640 H   0  0  0  0  0  0  0  0  0  0  0  0
   37.1570   28.6750   31.3440 C   0  0  0  0  0  0  0  0  0  0  0  0
   36.3230   29.3640   31.4090 H   0  0  0  0  0  0  0  0  0  0  0  0
   37.8930   28.5410   30.1920 C   0  0  0  0  0  3  0  0  0  0  0  0
   38.9410   27.6490   30.1690 C   0  0  0  0  0  3  0  0  0  0  0  0
   41.2020   25.2370   31.2310 N   0  0  0  0  0  0  0  0  0  0  0  0
   40.3060   25.9940   31.2750 C   0  0  0  0  0  0  0  0  0  0  0  0
  1  6  1  0  0  0  0
  2  3  1  0  0  0  0
  2  1  2  0  0  0  0
  3  4  2  0  0  0  0
  4  5  1  0  0  0  0
  5  7  1  0  0  0  0
  6  5  2  0  0  0  0
  7  8  1  0  0  0  0
  8 16  1  0  0  0  0
  8  9  1  0  0  0  0
  9 18  1  0  0  0  0
  9 19  1  0  0  0  0
 10  9  1  0  0  0  0
 10 20  1  0  0  0  0
 11 23  1  0  0  0  0
 11 10  1  0  0  0  0
 12 24  1  6  0  0  0
 12  7  1  0  0  0  0
 12 11  1  0  0  0  0
 13  1  1  0  0  0  0
 14  2  1  0  0  0  0
 15  3  1  0  0  0  0
 17  8  1  0  0  0  0
 21 10  1  0  0  0  0
 22 11  1  0  0  0  0
 25 26  1  0  0  0  0
 26 12  1  0  0  0  0
 27 26  2  0  0  0  0
 27 28  1  0  0  0  0
 29 30  1  0  0  0  0
 29 27  1  0  0  0  0
 31 29  2  0  0  0  0
 32 31  1  0  0  0  0
 32 25  2  0  0  0  0
 33 34  3  0  0  0  0
 34 25  1  0  0  0  0
M  END
>  <minimizedAffinity>
-4.91559649

$$$$

 OpenBabel03262523233D

 34 36  0  0  1  0  0  0  0  0999 V2000
   35.2700   28.9290   32.6560 C   0  0  0  0  0  0  0  0  0  0  0  0
   35.7870   29.1570   33.9430 C   0  0  0  0  0  0  0  0  0  0  0  0
   36.6060   28.1870   34.4970 C   0  0  0  0  0  0  0  0  0  0  0  0
   36.8450   27.0880   33.7500 N   0  0  0  0  0  0  0  0  0  0  0  0
   36.3550   26.8700   32.5300 C   0  0  0  0  0  0  0  0  0  0  0  0
   35.5640   27.7960   31.9800 N   0  0  0  0  0  0  0  0  0  0  0  0
   36.6770   25.6680   31.8300 N   0  0  0  0  0  0  0  0  0  0  0  0
   35.6090   24.9470   31.1180 C   0  0  0  0  0  0  0  0  0  0  0  0
   35.8230   23.4700   31.0600 C   0  0  0  0  0  0  0  0  0  0  0  0
   36.7540   23.0900   32.1990 C   0  0  0  0  0  0  0  0  0  0  0  0
   38.1060   23.6620   31.8210 C   0  0  0  0  0  0  0  0  0  0  0  0
   38.0050   25.1550   31.7910 C   0  0  2  0  0  0  0  0  0  0  0  0
   34.6240   29.6560   32.1760 H   0  0  0  0  0  0  0  0  0  0  0  0
   35.4970   30.0780   34.3870 H   0  0  0  0  0  0  0  0  0  0  0  0
   36.9910   28.3720   35.4700 H   0  0  0  0  0  0  0  0  0  0  0  0
   34.6230   25.2290   31.5420 H   0  0  0  0  0  0  0  0  0  0  0  0
   35.6290   25.3430   30.0800 H   0  0  0  0  0  0  0  0  0  0  0  0
   36.1730   23.0920   30.0990 H   0  0  0  0  0  0  0  0  0  0  0  0
   34.8260   22.9820   31.2670 H   0  0  0  0  0  0  0  0  0  0  0  0
   36.8460   21.9990   32.2030 H   0  0  0  0  0  0  0  0  0  0  0  0
   36.3320   23.5130   33.1110 H   0  0  0  0  0  0  0  0  0  0  0  0
   38.8080   23.2830   32.6080 H   0  0  0  0  0  0  0  0  0  0  0  0
   38.3800   23.1860   30.8650 H   0  0  0  0  0  0  0  0  0  0  0  0
   38.3630   25.4260   30.7350 H   0  0  0  0  0  0  0  0  0  0  0  0
   39.8320   26.7210   32.4150 C   0  0  0  0  0  0  0  0  0  0  0  0
   38.9660   25.6740   32.7660 C   0  0  0  0  0  0  0  0  0  0  0  0
   39.1820   25.2250   34.0510 C   0  0  0  0  0  0  0  0  0  0  0  0
   38.5620   24.4080   34.3940 H   0  0  0  0  0  0  0  0  0  0  0  0
   40.1420   25.7490   34.8930 C   0  0  0  0  0  0  0  0  0  0  0  0
   40.2230   25.3180   35.8850 H   0  0  0  0  0  0  0  0  0  0  0  0
   40.9560   26.7770   34.4850 C   0  0  0  0  0  3  0  0  0  0  0  0
   40.8050   27.2830   33.2140 C   0  0  0  0  0  3  0  0  0  0  0  0
   39.5710   27.7210   29.9970 N   0  0  0  0  0  0  0  0  0  0  0  0
   39.6880   27.2710   31.0750 C   0  0  0  0  0  0  0  0  0  0  0  0
  1  2  1  0  0  0  0
  2 14  1  0  0  0  0
  2  3  2  0  0  0  0
  3 15  1  0  0  0  0
  4  3  1  0  0  0  0
  5  4  2  0  0  0  0
  6  5  1  0  0  0  0
  6  1  2  0  0  0  0
  7  5  1  0  0  0  0
  8 16  1  0  0  0  0
  8  7  1  0  0  0  0
  9  8  1  0  0  0  0
  9 19  1  0  0  0  0
  9 10  1  0  0  0  0
 10 20  1  0  0  0  0
 10 21  1  0  0  0  0
 11 10  1  0  0  0  0
 11 22  1  0  0  0  0
 12 24  1  6  0  0  0
 12 11  1  0  0  0  0
 12  7  1  0  0  0  0
 12 26  1  0  0  0  0
 13  1  1  0  0  0  0
 17  8  1  0  0  0  0
 18  9  1  0  0  0  0
 23 11  1  0  0  0  0
 25 26  2  0  0  0  0
 25 32  1  0  0  0  0
 26 27  1  0  0  0  0
 27 28  1  0  0  0  0
 27 29  2  0  0  0  0
 29 30  1  0  0  0  0
 31 29  1  0  0  0  0
 32 31  2  0  0  0  0
 33 34  3  0  0  0  0
 34 25  1  0  0  0  0
M  END
>  <minimizedAffinity>
-4.78621292

$$$$

 OpenBabel03262523233D

 34 36  0  0  1  0  0  0  0  0999 V2000
   36.7030   22.9290   31.2770 C   0  0  0  0  0  0  0  0  0  0  0  0
   36.9220   22.6030   32.6270 C   0  0  0  0  0  0  0  0  0  0  0  0
   37.8480   23.3530   33.3350 C   0  0  0  0  0  0  0  0  0  0  0  0
   38.4720   24.3450   32.6660 N   0  0  0  0  0  0  0  0  0  0  0  0
   38.2660   24.6550   31.3860 C   0  0  0  0  0  0  0  0  0  0  0  0
   37.3760   23.9420   30.6880 N   0  0  0  0  0  0  0  0  0  0  0  0
   38.9840   25.7290   30.7810 N   0  0  0  0  0  0  0  0  0  0  0  0
   39.5500   25.5440   29.4340 C   0  0  0  0  0  0  0  0  0  0  0  0
   40.7980   26.3300   29.1980 C   0  0  0  0  0  0  0  0  0  0  0  0
   41.4150   26.6400   30.5510 C   0  0  0  0  0  0  0  0  0  0  0  0
   40.4800   27.6420   31.1990 C   0  0  0  0  0  0  0  0  0  0  0  0
   39.1580   26.9800   31.4390 C   0  0  2  0  0  0  0  0  0  0  0  0
   35.9890   22.3740   30.6780 H   0  0  0  0  0  0  0  0  0  0  0  0
   36.3430   21.7920   32.9930 H   0  0  0  0  0  0  0  0  0  0  0  0
   38.0040   23.0970   34.3540 H   0  0  0  0  0  0  0  0  0  0  0  0
   39.6710   24.4600   29.2280 H   0  0  0  0  0  0  0  0  0  0  0  0
   38.7680   25.9110   28.7350 H   0  0  0  0  0  0  0  0  0  0  0  0
   40.6700   27.2240   28.5880 H   0  0  0  0  0  0  0  0  0  0  0  0
   41.5170   25.6530   28.6510 H   0  0  0  0  0  0  0  0  0  0  0  0
   42.3680   27.1470   30.3720 H   0  0  0  0  0  0  0  0  0  0  0  0
   41.4960   25.6960   31.0900 H   0  0  0  0  0  0  0  0  0  0  0  0
   40.9970   27.9490   32.1430 H   0  0  0  0  0  0  0  0  0  0  0  0
   40.4570   28.5150   30.5260 H   0  0  0  0  0  0  0  0  0  0  0  0
   38.4130   27.6680   30.9030 H   0  0  0  0  0  0  0  0  0  0  0  0
   37.6400   27.4190   33.3580 C   0  0  0  0  0  0  0  0  0  0  0  0
   38.9020   27.0350   32.8800 C   0  0  0  0  0  0  0  0  0  0  0  0
   39.7940   26.7850   33.9000 C   0  0  0  0  0  0  0  0  0  0  0  0
   40.7960   26.4960   33.6130 H   0  0  0  0  0  0  0  0  0  0  0  0
   39.4780   26.8990   35.2380 C   0  0  0  0  0  0  0  0  0  0  0  0
   40.2590   26.6770   35.9560 H   0  0  0  0  0  0  0  0  0  0  0  0
   38.2190   27.2780   35.6370 C   0  0  0  0  0  3  0  0  0  0  0  0
   37.2680   27.5470   34.6800 C   0  0  0  0  0  3  0  0  0  0  0  0
   35.7920   27.9450   31.5620 N   0  0  0  0  0  0  0  0  0  0  0  0
   36.6200   27.7080   32.3610 C   0  0  0  0  0  0  0  0  0  0  0  0
  1  2  1  0  0  0  0
  2 14  1  0  0  0  0
  2  3  2  0  0  0  0
  3 15  1  0  0  0  0
  4  3  1  0  0  0  0
  5  4  2  0  0  0  0
  6  1  2  0  0  0  0
  6  5  1  0  0  0  0
  7  5  1  0  0  0  0
  7 12  1  0  0  0  0
  8  7  1  0  0  0  0
  9  8  1  0  0  0  0
  9 10  1  0  0  0  0
 10 21  1  0  0  0  0
 10 11  1  0  0  0  0
 11 12  1  0  0  0  0
 11 22  1  0  0  0  0
 12 24  1  6  0  0  0
 12 26  1  0  0  0  0
 13  1  1  0  0  0  0
 16  8  1  0  0  0  0
 17  8  1  0  0  0  0
 18  9  1  0  0  0  0
 19  9  1  0  0  0  0
 20 10  1  0  0  0  0
 23 11  1  0  0  0  0
 25 32  1  0  0  0  0
 26 25  2  0  0  0  0
 26 27  1  0  0  0  0
 27 29  2  0  0  0  0
 28 27  1  0  0  0  0
 29 31  1  0  0  0  0
 29 30  1  0  0  0  0
 32 31  2  0  0  0  0
 33 34  3  0  0  0  0
 34 25  1  0  0  0  0
M  END
>  <minimizedAffinity>
-4.76413822

$$$$

 OpenBabel03262523233D

 34 36  0  0  1  0  0  0  0  0999 V2000
   35.4650   25.0900   30.9120 C   0  0  0  0  0  0  0  0  0  0  0  0
   35.6020   23.8370   31.5350 C   0  0  0  0  0  0  0  0  0  0  0  0
   36.7750   23.5770   32.2230 C   0  0  0  0  0  0  0  0  0  0  0  0
   37.7050   24.5560   32.2410 N   0  0  0  0  0  0  0  0  0  0  0  0
   37.5770   25.7440   31.6510 C   0  0  0  0  0  0  0  0  0  0  0  0
   36.4510   26.0120   30.9830 N   0  0  0  0  0  0  0  0  0  0  0  0
   38.6280   26.7060   31.7380 N   0  0  0  0  0  0  0  0  0  0  0  0
   39.0180   27.4510   30.5290 C   0  0  0  0  0  0  0  0  0  0  0  0
   40.4600   27.8370   30.5050 C   0  0  0  0  0  0  0  0  0  0  0  0
   41.2080   26.8930   31.4310 C   0  0  0  0  0  0  0  0  0  0  0  0
   40.7630   27.2670   32.8310 C   0  0  0  0  0  0  0  0  0  0  0  0
   39.3010   26.9740   32.9640 C   0  0  2  0  0  0  0  0  0  0  0  0
   34.5670   25.3450   30.3600 H   0  0  0  0  0  0  0  0  0  0  0  0
   34.7700   23.1860   31.4200 H   0  0  0  0  0  0  0  0  0  0  0  0
   36.8650   22.6260   32.6900 H   0  0  0  0  0  0  0  0  0  0  0  0
   38.7010   26.8880   29.6260 H   0  0  0  0  0  0  0  0  0  0  0  0
   38.4080   28.3810   30.5490 H   0  0  0  0  0  0  0  0  0  0  0  0
   40.6610   28.8830   30.7320 H   0  0  0  0  0  0  0  0  0  0  0  0
   40.8360   27.6450   29.4580 H   0  0  0  0  0  0  0  0  0  0  0  0
   42.2750   27.1260   31.3500 H   0  0  0  0  0  0  0  0  0  0  0  0
   40.9420   25.8780   31.1360 H   0  0  0  0  0  0  0  0  0  0  0  0
   41.4010   26.6450   33.5100 H   0  0  0  0  0  0  0  0  0  0  0  0
   41.0500   28.3220   32.9690 H   0  0  0  0  0  0  0  0  0  0  0  0
   38.8560   27.9780   33.2960 H   0  0  0  0  0  0  0  0  0  0  0  0
   38.1510   26.1820   35.0200 C   0  0  0  0  0  0  0  0  0  0  0  0
   39.1500   26.0050   34.0510 C   0  0  0  0  0  0  0  0  0  0  0  0
   39.9250   24.8930   34.2960 C   0  0  0  0  0  0  0  0  0  0  0  0
   40.7280   24.6930   33.6000 H   0  0  0  0  0  0  0  0  0  0  0  0
   39.7360   24.0500   35.3730 C   0  0  0  0  0  0  0  0  0  0  0  0
   40.4060   23.2030   35.4670 H   0  0  0  0  0  0  0  0  0  0  0  0
   38.7360   24.2830   36.2850 C   0  0  0  0  0  3  0  0  0  0  0  0
   37.9160   25.3740   36.1130 C   0  0  0  0  0  3  0  0  0  0  0  0
   36.5630   28.2590   34.7320 N   0  0  0  0  0  0  0  0  0  0  0  0
   37.2730   27.3320   34.8570 C   0  0  0  0  0  0  0  0  0  0  0  0
  1  6  2  0  0  0  0
  1  2  1  0  0  0  0
  2  3  2  0  0  0  0
  3  4  1  0  0  0  0
  3 15  1  0  0  0  0
  5  7  1  0  0  0  0
  5  4  2  0  0  0  0
  6  5  1  0  0  0  0
  7 12  1  0  0  0  0
  8 17  1  0  0  0  0
  8  7  1  0  0  0  0
  9  8  1  0  0  0  0
  9 18  1  0  0  0  0
  9 10  1  0  0  0  0
 10 11  1  0  0  0  0
 11 12  1  0  0  0  0
 11 23  1  0  0  0  0
 11 22  1  0  0  0  0
 12 24  1  1  0  0  0
 12 26  1  0  0  0  0
 13  1  1  0  0  0  0
 14  2  1  0  0  0  0
 16  8  1  0  0  0  0
 19  9  1  0  0  0  0
 20 10  1  0  0  0  0
 21 10  1  0  0  0  0
 25 32  1  0  0  0  0
 26 27  1  0  0  0  0
 26 25  2  0  0  0  0
 27 29  2  0  0  0  0
 28 27  1  0  0  0  0
 29 30  1  0  0  0  0
 29 31  1  0  0  0  0
 32 31  2  0  0  0  0
 33 34  3  0  0  0  0
 34 25  1  0  0  0  0
M  END
>  <minimizedAffinity>
-4.74244356

$$$$

 OpenBabel03262523233D

 34 36  0  0  1  0  0  0  0  0999 V2000
   40.9320   26.4630   33.3710 C   0  0  0  0  0  0  0  0  0  0  0  0
   40.4260   27.1110   34.5120 C   0  0  0  0  0  0  0  0  0  0  0  0
   39.4310   26.4740   35.2350 C   0  0  0  0  0  0  0  0  0  0  0  0
   39.0200   25.2700   34.7820 N   0  0  0  0  0  0  0  0  0  0  0  0
   39.4980   24.6550   33.7010 C   0  0  0  0  0  0  0  0  0  0  0  0
   40.4590   25.2550   32.9920 N   0  0  0  0  0  0  0  0  0  0  0  0
   38.9880   23.3780   33.3160 N   0  0  0  0  0  0  0  0  0  0  0  0
   38.6910   23.1250   31.8960 C   0  0  0  0  0  0  0  0  0  0  0  0
   37.5710   22.1600   31.6840 C   0  0  0  0  0  0  0  0  0  0  0  0
   36.7190   22.1530   32.9420 C   0  0  0  0  0  0  0  0  0  0  0  0
   37.5720   21.4830   34.0010 C   0  0  0  0  0  0  0  0  0  0  0  0
   38.7710   22.3390   34.2650 C   0  0  2  0  0  0  0  0  0  0  0  0
   41.7120   26.9180   32.7700 H   0  0  0  0  0  0  0  0  0  0  0  0
   40.8660   28.0550   34.7230 H   0  0  0  0  0  0  0  0  0  0  0  0
   39.0580   26.9740   36.0950 H   0  0  0  0  0  0  0  0  0  0  0  0
   38.5410   24.0900   31.3690 H   0  0  0  0  0  0  0  0  0  0  0  0
   39.6190   22.6800   31.4780 H   0  0  0  0  0  0  0  0  0  0  0  0
   37.8780   21.1560   31.3880 H   0  0  0  0  0  0  0  0  0  0  0  0
   36.9320   22.5720   30.8500 H   0  0  0  0  0  0  0  0  0  0  0  0
   35.8570   21.5060   32.7540 H   0  0  0  0  0  0  0  0  0  0  0  0
   36.4690   23.1910   33.1640 H   0  0  0  0  0  0  0  0  0  0  0  0
   36.8980   21.3820   34.8900 H   0  0  0  0  0  0  0  0  0  0  0  0
   37.7870   20.4700   33.6220 H   0  0  0  0  0  0  0  0  0  0  0  0
   39.6530   21.6280   34.0860 H   0  0  0  0  0  0  0  0  0  0  0  0
   39.8750   22.5270   36.4840 C   0  0  0  0  0  0  0  0  0  0  0  0
   38.7380   22.7060   35.6820 C   0  0  0  0  0  0  0  0  0  0  0  0
   37.6670   23.1970   36.3960 C   0  0  0  0  0  0  0  0  0  0  0  0
   36.7460   23.3520   35.8520 H   0  0  0  0  0  0  0  0  0  0  0  0
   37.7120   23.4810   37.7460 C   0  0  0  0  0  0  0  0  0  0  0  0
   36.8090   23.8650   38.2060 H   0  0  0  0  0  0  0  0  0  0  0  0
   38.8620   23.2830   38.4720 C   0  0  0  0  0  3  0  0  0  0  0  0
   39.9780   22.7940   37.8330 C   0  0  0  0  0  3  0  0  0  0  0  0
   42.0320   21.5910   35.3050 N   0  0  0  0  0  0  0  0  0  0  0  0
   41.0670   22.0100   35.8280 C   0  0  0  0  0  0  0  0  0  0  0  0
  1  2  1  0  0  0  0
  2 14  1  0  0  0  0
  2  3  2  0  0  0  0
  3 15  1  0  0  0  0
  4  3  1  0  0  0  0
  5  4  2  0  0  0  0
  6  1  2  0  0  0  0
  6  5  1  0  0  0  0
  7  5  1  0  0  0  0
  7 12  1  0  0  0  0
  8  7  1  0  0  0  0
  9  8  1  0  0  0  0
  9 10  1  0  0  0  0
 10 21  1  0  0  0  0
 10 11  1  0  0  0  0
 11 12  1  0  0  0  0
 11 22  1  0  0  0  0
 12 24  1  6  0  0  0
 12 26  1  0  0  0  0
 13  1  1  0  0  0  0
 16  8  1  0  0  0  0
 17  8  1  0  0  0  0
 18  9  1  0  0  0  0
 19  9  1  0  0  0  0
 20 10  1  0  0  0  0
 23 11  1  0  0  0  0
 25 32  1  0  0  0  0
 26 27  1  0  0  0  0
 26 25  2  0  0  0  0
 27 29  2  0  0  0  0
 28 27  1  0  0  0  0
 29 30  1  0  0  0  0
 29 31  1  0  0  0  0
 32 31  2  0  0  0  0
 33 34  3  0  0  0  0
 34 25  1  0  0  0  0
M  END
>  <minimizedAffinity>
-4.74061918

$$$$

 OpenBabel03262523233D

 34 36  0  0  1  0  0  0  0  0999 V2000
   36.4670   22.5190   32.0980 C   0  0  0  0  0  0  0  0  0  0  0  0
   36.3630   21.5370   33.0990 C   0  0  0  0  0  0  0  0  0  0  0  0
   37.3340   21.5090   34.0870 C   0  0  0  0  0  0  0  0  0  0  0  0
   38.3130   22.4360   34.0090 N   0  0  0  0  0  0  0  0  0  0  0  0
   38.4140   23.3670   33.0610 C   0  0  0  0  0  0  0  0  0  0  0  0
   37.4850   23.4080   32.1000 N   0  0  0  0  0  0  0  0  0  0  0  0
   39.4940   24.2990   33.0800 N   0  0  0  0  0  0  0  0  0  0  0  0
   40.1960   24.6070   31.8220 C   0  0  0  0  0  0  0  0  0  0  0  0
   41.6360   24.9550   32.0120 C   0  0  0  0  0  0  0  0  0  0  0  0
   42.0860   24.3610   33.3360 C   0  0  0  0  0  0  0  0  0  0  0  0
   41.3790   25.1740   34.4020 C   0  0  0  0  0  0  0  0  0  0  0  0
   39.9040   24.9490   34.2780 C   0  0  2  0  0  0  0  0  0  0  0  0
   35.7330   22.5850   31.3020 H   0  0  0  0  0  0  0  0  0  0  0  0
   35.5260   20.8890   33.0070 H   0  0  0  0  0  0  0  0  0  0  0  0
   37.2440   20.7630   34.8370 H   0  0  0  0  0  0  0  0  0  0  0  0
   40.0380   23.7810   31.0960 H   0  0  0  0  0  0  0  0  0  0  0  0
   39.6740   25.4950   31.4050 H   0  0  0  0  0  0  0  0  0  0  0  0
   41.8660   26.0180   31.9370 H   0  0  0  0  0  0  0  0  0  0  0  0
   42.2140   24.4300   31.1960 H   0  0  0  0  0  0  0  0  0  0  0  0
   43.1600   24.5500   33.4350 H   0  0  0  0  0  0  0  0  0  0  0  0
   41.8090   23.3070   33.3240 H   0  0  0  0  0  0  0  0  0  0  0  0
   41.8020   24.8040   35.3720 H   0  0  0  0  0  0  0  0  0  0  0  0
   41.7130   26.2150   34.2620 H   0  0  0  0  0  0  0  0  0  0  0  0
   39.4800   26.0080   34.1640 H   0  0  0  0  0  0  0  0  0  0  0  0
   38.3000   24.9080   36.1760 C   0  0  0  0  0  0  0  0  0  0  0  0
   39.4430   24.3880   35.5500 C   0  0  0  0  0  0  0  0  0  0  0  0
   40.0330   23.3850   36.2870 C   0  0  0  0  0  0  0  0  0  0  0  0
   40.9290   22.9400   35.8770 H   0  0  0  0  0  0  0  0  0  0  0  0
   39.5500   22.9420   37.5020 C   0  0  0  0  0  0  0  0  0  0  0  0
   40.0950   22.1450   37.9940 H   0  0  0  0  0  0  0  0  0  0  0  0
   38.4230   23.4950   38.0580 C   0  0  0  0  0  3  0  0  0  0  0  0
   37.7730   24.5040   37.3860 C   0  0  0  0  0  3  0  0  0  0  0  0
   37.0260   26.8350   34.9200 N   0  0  0  0  0  0  0  0  0  0  0  0
   37.5980   25.9770   35.4820 C   0  0  0  0  0  0  0  0  0  0  0  0
  1  6  2  0  0  0  0
  1  2  1  0  0  0  0
  2  3  2  0  0  0  0
  3 15  1  0  0  0  0
  4  3  1  0  0  0  0
  5  7  1  0  0  0  0
  5  4  2  0  0  0  0
  6  5  1  0  0  0  0
  7 12  1  0  0  0  0
  8  9  1  0  0  0  0
  8  7  1  0  0  0  0
  9 10  1  0  0  0  0
 10 20  1  0  0  0  0
 10 11  1  0  0  0  0
 11 22  1  0  0  0  0
 12 24  1  6  0  0  0
 12 11  1  0  0  0  0
 12 26  1  0  0  0  0
 13  1  1  0  0  0  0
 14  2  1  0  0  0  0
 16  8  1  0  0  0  0
 17  8  1  0  0  0  0
 18  9  1  0  0  0  0
 19  9  1  0  0  0  0
 21 10  1  0  0  0  0
 23 11  1  0  0  0  0
 25 32  1  0  0  0  0
 26 25  2  0  0  0  0
 26 27  1  0  0  0  0
 27 29  2  0  0  0  0
 28 27  1  0  0  0  0
 29 30  1  0  0  0  0
 29 31  1  0  0  0  0
 32 31  2  0  0  0  0
 33 34  3  0  0  0  0
 34 25  1  0  0  0  0
M  END
>  <minimizedAffinity>
-4.67393827

$$$$

 OpenBabel03262523233D

 34 36  0  0  1  0  0  0  0  0999 V2000
   37.9630   22.4120   35.7950 C   0  0  0  0  0  0  0  0  0  0  0  0
   39.3050   22.5740   35.4080 C   0  0  0  0  0  0  0  0  0  0  0  0
   39.6790   22.1240   34.1520 C   0  0  0  0  0  0  0  0  0  0  0  0
   38.7160   21.5590   33.3930 N   0  0  0  0  0  0  0  0  0  0  0  0
   37.4440   21.4040   33.7580 C   0  0  0  0  0  0  0  0  0  0  0  0
   37.0660   21.8330   34.9660 N   0  0  0  0  0  0  0  0  0  0  0  0
   36.5100   20.7920   32.8700 N   0  0  0  0  0  0  0  0  0  0  0  0
   35.5660   19.7940   33.4000 C   0  0  0  0  0  0  0  0  0  0  0  0
   35.1800   18.7500   32.4040 C   0  0  0  0  0  0  0  0  0  0  0  0
   36.2680   18.6930   31.3460 C   0  0  0  0  0  0  0  0  0  0  0  0
   36.1430   19.9890   30.5700 C   0  0  0  0  0  0  0  0  0  0  0  0
   36.4560   21.1300   31.4880 C   0  0  2  0  0  0  0  0  0  0  0  0
   37.6190   22.7470   36.7680 H   0  0  0  0  0  0  0  0  0  0  0  0
   39.9280   23.0410   36.1310 H   0  0  0  0  0  0  0  0  0  0  0  0
   40.6950   22.2530   33.8710 H   0  0  0  0  0  0  0  0  0  0  0  0
   35.9650   19.3700   34.3450 H   0  0  0  0  0  0  0  0  0  0  0  0
   34.6550   20.3690   33.6740 H   0  0  0  0  0  0  0  0  0  0  0  0
   34.1880   18.8720   31.9690 H   0  0  0  0  0  0  0  0  0  0  0  0
   35.1870   17.7590   32.9440 H   0  0  0  0  0  0  0  0  0  0  0  0
   36.0230   17.8740   30.6620 H   0  0  0  0  0  0  0  0  0  0  0  0
   37.2180   18.5780   31.8690 H   0  0  0  0  0  0  0  0  0  0  0  0
   36.8720   19.8900   29.7250 H   0  0  0  0  0  0  0  0  0  0  0  0
   35.1270   19.9900   30.1420 H   0  0  0  0  0  0  0  0  0  0  0  0
   35.5260   21.7970   31.4130 H   0  0  0  0  0  0  0  0  0  0  0  0
   37.5370   23.2320   30.7190 C   0  0  0  0  0  0  0  0  0  0  0  0
   37.5990   21.8450   30.9150 C   0  0  0  0  0  0  0  0  0  0  0  0
   38.7900   21.3070   30.4770 C   0  0  0  0  0  0  0  0  0  0  0  0
   38.9120   20.2380   30.5830 H   0  0  0  0  0  0  0  0  0  0  0  0
   39.8040   22.0540   29.9120 C   0  0  0  0  0  0  0  0  0  0  0  0
   40.6990   21.5260   29.6040 H   0  0  0  0  0  0  0  0  0  0  0  0
   39.6770   23.4110   29.7500 C   0  0  0  0  0  3  0  0  0  0  0  0
   38.5170   24.0270   30.1610 C   0  0  0  0  0  3  0  0  0  0  0  0
   35.3300   24.4390   31.4870 N   0  0  0  0  0  0  0  0  0  0  0  0
   36.3170   23.9030   31.1470 C   0  0  0  0  0  0  0  0  0  0  0  0
  1 13  1  0  0  0  0
  2  1  1  0  0  0  0
  2 14  1  0  0  0  0
  3  2  2  0  0  0  0
  4  5  2  0  0  0  0
  4  3  1  0  0  0  0
  5  6  1  0  0  0  0
  6  1  2  0  0  0  0
  7  8  1  0  0  0  0
  7  5  1  0  0  0  0
  8 17  1  0  0  0  0
  8 16  1  0  0  0  0
  9 19  1  0  0  0  0
  9  8  1  0  0  0  0
 10 21  1  0  0  0  0
 10  9  1  0  0  0  0
 11 10  1  0  0  0  0
 11 12  1  0  0  0  0
 12 24  1  6  0  0  0
 12  7  1  0  0  0  0
 15  3  1  0  0  0  0
 18  9  1  0  0  0  0
 20 10  1  0  0  0  0
 22 11  1  0  0  0  0
 23 11  1  0  0  0  0
 25 26  1  0  0  0  0
 25 34  1  0  0  0  0
 26 12  1  0  0  0  0
 27 28  1  0  0  0  0
 27 26  2  0  0  0  0
 29 27  1  0  0  0  0
 30 29  1  0  0  0  0
 31 29  2  0  0  0  0
 31 32  1  0  0  0  0
 32 25  2  0  0  0  0
 34 33  3  0  0  0  0
M  END
>  <minimizedAffinity>
-4.63048935

$$$$

 OpenBabel03262523233D

 34 36  0  0  1  0  0  0  0  0999 V2000
   38.8530   21.8000   33.4620 C   0  0  0  0  0  0  0  0  0  0  0  0
   37.9760   22.0870   34.5230 C   0  0  0  0  0  0  0  0  0  0  0  0
   38.1460   23.2820   35.2030 C   0  0  0  0  0  0  0  0  0  0  0  0
   39.1510   24.0840   34.7900 N   0  0  0  0  0  0  0  0  0  0  0  0
   39.9830   23.8130   33.7850 C   0  0  0  0  0  0  0  0  0  0  0  0
   39.8330   22.6650   33.1180 N   0  0  0  0  0  0  0  0  0  0  0  0
   41.0110   24.7390   33.4330 N   0  0  0  0  0  0  0  0  0  0  0  0
   42.3640   24.2320   33.1490 C   0  0  0  0  0  0  0  0  0  0  0  0
   43.4490   25.1960   33.5000 C   0  0  0  0  0  0  0  0  0  0  0  0
   42.8960   26.1590   34.5370 C   0  0  0  0  0  0  0  0  0  0  0  0
   41.8860   27.0130   33.7950 C   0  0  0  0  0  0  0  0  0  0  0  0
   40.7620   26.1370   33.3370 C   0  0  2  0  0  0  0  0  0  0  0  0
   38.7630   20.8780   32.8980 H   0  0  0  0  0  0  0  0  0  0  0  0
   37.2420   21.3430   34.7130 H   0  0  0  0  0  0  0  0  0  0  0  0
   37.4770   23.4880   36.0020 H   0  0  0  0  0  0  0  0  0  0  0  0
   42.4950   23.2360   33.6210 H   0  0  0  0  0  0  0  0  0  0  0  0
   42.3890   24.0640   32.0510 H   0  0  0  0  0  0  0  0  0  0  0  0
   43.8960   25.7150   32.6530 H   0  0  0  0  0  0  0  0  0  0  0  0
   44.2700   24.6040   33.9990 H   0  0  0  0  0  0  0  0  0  0  0  0
   43.7150   26.8150   34.8510 H   0  0  0  0  0  0  0  0  0  0  0  0
   42.4650   25.5560   35.3360 H   0  0  0  0  0  0  0  0  0  0  0  0
   41.5680   27.7900   34.5360 H   0  0  0  0  0  0  0  0  0  0  0  0
   42.4490   27.5200   32.9940 H   0  0  0  0  0  0  0  0  0  0  0  0
   40.7210   26.3230   32.2060 H   0  0  0  0  0  0  0  0  0  0  0  0
   38.4050   26.9070   33.1540 C   0  0  0  0  0  0  0  0  0  0  0  0
   39.5350   26.6550   33.9470 C   0  0  0  0  0  0  0  0  0  0  0  0
   39.3310   26.9880   35.2690 C   0  0  0  0  0  0  0  0  0  0  0  0
   40.1610   26.8350   35.9450 H   0  0  0  0  0  0  0  0  0  0  0  0
   38.1490   27.5090   35.7530 C   0  0  0  0  0  0  0  0  0  0  0  0
   38.1000   27.7340   36.8120 H   0  0  0  0  0  0  0  0  0  0  0  0
   37.0800   27.7300   34.9200 C   0  0  0  0  0  3  0  0  0  0  0  0
   37.2010   27.4240   33.5840 C   0  0  0  0  0  3  0  0  0  0  0  0
   38.5920   26.3390   30.5930 N   0  0  0  0  0  0  0  0  0  0  0  0
   38.5130   26.5910   31.7380 C   0  0  0  0  0  0  0  0  0  0  0  0
  1  2  1  0  0  0  0
  2 14  1  0  0  0  0
  2  3  2  0  0  0  0
  3 15  1  0  0  0  0
  4  3  1  0  0  0  0
  5  4  2  0  0  0  0
  6  1  2  0  0  0  0
  6  5  1  0  0  0  0
  7  5  1  0  0  0  0
  8  7  1  0  0  0  0
  8  9  1  0  0  0  0
  8 16  1  0  0  0  0
  9 19  1  0  0  0  0
  9 10  1  0  0  0  0
 10 20  1  0  0  0  0
 10 21  1  0  0  0  0
 11 22  1  0  0  0  0
 11 10  1  0  0  0  0
 12 24  1  6  0  0  0
 12  7  1  0  0  0  0
 12 11  1  0  0  0  0
 12 26  1  0  0  0  0
 13  1  1  0  0  0  0
 17  8  1  0  0  0  0
 18  9  1  0  0  0  0
 23 11  1  0  0  0  0
 25 32  2  0  0  0  0
 25 26  1  0  0  0  0
 26 27  2  0  0  0  0
 27 29  1  0  0  0  0
 27 28  1  0  0  0  0
 29 30  1  0  0  0  0
 31 29  2  0  0  0  0
 32 31  1  0  0  0  0
 33 34  3  0  0  0  0
 34 25  1  0  0  0  0
M  END
>  <minimizedAffinity>
-4.60731173

$$$$
