
 OpenBabel03272503233D

 31 33  0  0  1  0  0  0  0  0999 V2000
   33.1890   29.3320   45.0340 N   0  0  0  0  0  0  0  0  0  0  0  0
   33.4280   28.3960   46.0930 C   0  0  1  0  0  0  0  0  0  0  0  0
   34.2200   27.2930   45.4300 C   0  0  0  0  0  0  0  0  0  0  0  0
   34.2010   27.6310   43.9370 C   0  0  0  0  0  0  0  0  0  0  0  0
   34.2470   29.1470   44.0630 C   0  0  0  0  0  0  0  0  0  0  0  0
   32.4180   27.9340   46.3030 H   0  0  0  0  0  0  0  0  0  0  0  0
   35.2450   27.3230   45.8280 H   0  0  0  0  0  0  0  0  0  0  0  0
   33.7700   26.2920   45.5560 H   0  0  0  0  0  0  0  0  0  0  0  0
   35.1280   27.2690   43.4490 H   0  0  0  0  0  0  0  0  0  0  0  0
   33.2840   27.2880   43.4610 H   0  0  0  0  0  0  0  0  0  0  0  0
   35.2310   29.4890   44.3680 H   0  0  0  0  0  0  0  0  0  0  0  0
   33.9680   29.6430   43.1010 H   0  0  0  0  0  0  0  0  0  0  0  0
   32.1280   30.2640   44.9370 C   0  0  0  0  0  0  0  0  0  0  0  0
   30.8480   29.7480   45.1270 C   0  0  0  0  0  0  0  0  0  0  0  0
   29.7480   30.6310   45.0390 C   0  0  0  0  0  0  0  0  0  0  0  0
   30.0370   31.9580   44.7660 N   0  0  0  0  0  0  0  0  0  0  0  0
   31.3010   32.4020   44.5920 C   0  0  0  0  0  0  0  0  0  0  0  0
   32.3450   31.5530   44.6790 N   0  0  0  0  0  0  0  0  0  0  0  0
   30.5860   28.7210   45.3400 H   0  0  0  0  0  0  0  0  0  0  0  0
   28.7160   30.3220   45.1710 H   0  0  0  0  0  0  0  0  0  0  0  0
   31.4090   33.4590   44.3850 H   0  0  0  0  0  0  0  0  0  0  0  0
   35.0920   29.7750   47.2280 C   0  0  0  0  0  0  0  0  0  0  0  0
   33.9860   28.9200   47.3230 C   0  0  0  0  0  0  0  0  0  0  0  0
   33.5570   28.6790   48.5990 C   0  0  0  0  0  0  0  0  0  0  0  0
   32.7120   28.0270   48.7190 H   0  0  0  0  0  0  0  0  0  0  0  0
   34.1320   29.2070   49.7290 C   0  0  0  0  0  0  0  0  0  0  0  0
   33.7650   28.9940   50.7280 H   0  0  0  0  0  0  0  0  0  0  0  0
   35.2150   30.0420   49.5970 C   0  0  0  0  0  3  0  0  0  0  0  0
   35.7120   30.3370   48.3230 C   0  0  0  0  0  3  0  0  0  0  0  0
   36.0980   30.3910   44.8960 N   0  0  0  0  0  0  0  0  0  0  0  0
   35.6450   30.1130   45.9360 C   0  0  0  0  0  0  0  0  0  0  0  0
  1  2  1  0  0  0  0
  2  6  1  1  0  0  0
  2 23  1  0  0  0  0
  3  8  1  0  0  0  0
  3  7  1  0  0  0  0
  3  2  1  0  0  0  0
  4  5  1  0  0  0  0
  4  3  1  0  0  0  0
  5 11  1  0  0  0  0
  5  1  1  0  0  0  0
  9  4  1  0  0  0  0
 10  4  1  0  0  0  0
 12  5  1  0  0  0  0
 13  1  1  0  0  0  0
 13 14  1  0  0  0  0
 14 19  1  0  0  0  0
 15 14  2  0  0  0  0
 15 20  1  0  0  0  0
 16 15  1  0  0  0  0
 17 18  1  0  0  0  0
 17 16  2  0  0  0  0
 18 13  2  0  0  0  0
 21 17  1  0  0  0  0
 22 23  2  0  0  0  0
 22 29  1  0  0  0  0
 23 24  1  0  0  0  0
 24 25  1  0  0  0  0
 24 26  2  0  0  0  0
 26 27  1  0  0  0  0
 28 26  1  0  0  0  0
 29 28  2  0  0  0  0
 30 31  3  0  0  0  0
 31 22  1  0  0  0  0
M  END
>  <minimizedAffinity>
-3.52350616

>  <minimizedRMSD>
5.73589993

$$$$
