
 OpenBabel03272503273D

 31 33  0  0  1  0  0  0  0  0999 V2000
   39.0710   25.0430   34.8770 N   0  0  0  0  0  0  0  0  0  0  0  0
   37.9370   25.3240   34.0320 C   0  0  0  0  0  0  0  0  0  0  0  0
   38.3630   26.5740   33.2880 C   0  0  2  0  0  0  0  0  0  0  0  0
   39.6860   26.9900   33.8990 C   0  0  0  0  0  0  0  0  0  0  0  0
   40.2460   25.6000   34.2130 C   0  0  0  0  0  0  0  0  0  0  0  0
   37.7790   24.4690   33.3440 H   0  0  0  0  0  0  0  0  0  0  0  0
   37.0730   25.6020   34.6390 H   0  0  0  0  0  0  0  0  0  0  0  0
   38.6040   26.3530   32.2090 H   0  0  0  0  0  0  0  0  0  0  0  0
   39.5930   27.4880   34.8750 H   0  0  0  0  0  0  0  0  0  0  0  0
   40.3220   27.5050   33.1750 H   0  0  0  0  0  0  0  0  0  0  0  0
   41.1040   25.6890   34.9090 H   0  0  0  0  0  0  0  0  0  0  0  0
   40.4500   25.0500   33.2880 H   0  0  0  0  0  0  0  0  0  0  0  0
   39.0650   24.3570   36.1180 C   0  0  0  0  0  0  0  0  0  0  0  0
   38.0680   24.7350   37.0390 C   0  0  0  0  0  0  0  0  0  0  0  0
   38.0310   24.0800   38.2760 C   0  0  0  0  0  0  0  0  0  0  0  0
   38.9730   23.1080   38.5090 N   0  0  0  0  0  0  0  0  0  0  0  0
   39.9120   22.7770   37.5950 C   0  0  0  0  0  0  0  0  0  0  0  0
   39.9540   23.4110   36.3890 N   0  0  0  0  0  0  0  0  0  0  0  0
   37.3160   25.4950   36.8840 H   0  0  0  0  0  0  0  0  0  0  0  0
   37.2920   24.3170   39.0380 H   0  0  0  0  0  0  0  0  0  0  0  0
   40.6290   22.0000   37.8370 H   0  0  0  0  0  0  0  0  0  0  0  0
   37.0490   28.2710   32.1040 C   0  0  0  0  0  0  0  0  0  0  0  0
   37.3430   27.6260   33.3030 C   0  0  0  0  0  0  0  0  0  0  0  0
   36.6180   28.0690   34.3940 C   0  0  0  0  0  0  0  0  0  0  0  0
   36.8330   27.5810   35.3340 H   0  0  0  0  0  0  0  0  0  0  0  0
   35.6740   29.0730   34.3080 C   0  0  0  0  0  0  0  0  0  0  0  0
   35.1270   29.3840   35.2100 H   0  0  0  0  0  0  0  0  0  0  0  0
   35.4270   29.6730   33.0970 C   0  0  0  0  0  3  0  0  0  0  0  0
   36.1180   29.2800   31.9520 C   0  0  0  0  0  3  0  0  0  0  0  0
   38.3230   27.5650   29.9370 N   0  0  0  0  0  0  0  0  0  0  0  0
   37.7640   27.8700   30.9030 C   0  0  0  0  0  0  0  0  0  0  0  0
  1 13  1  0  0  0  0
  2  7  1  0  0  0  0
  2  1  1  0  0  0  0
  3  8  1  6  0  0  0
  3 23  1  0  0  0  0
  3  4  1  0  0  0  0
  3  2  1  0  0  0  0
  4  5  1  0  0  0  0
  4  9  1  0  0  0  0
  5  1  1  0  0  0  0
  5 11  1  0  0  0  0
  6  2  1  0  0  0  0
 10  4  1  0  0  0  0
 12  5  1  0  0  0  0
 13 18  2  0  0  0  0
 13 14  1  0  0  0  0
 14 15  2  0  0  0  0
 15 16  1  0  0  0  0
 15 20  1  0  0  0  0
 17 21  1  0  0  0  0
 17 16  2  0  0  0  0
 18 17  1  0  0  0  0
 19 14  1  0  0  0  0
 22 23  1  0  0  0  0
 23 24  2  0  0  0  0
 24 25  1  0  0  0  0
 26 24  1  0  0  0  0
 26 27  1  0  0  0  0
 28 26  2  0  0  0  0
 29 22  2  0  0  0  0
 29 28  1  0  0  0  0
 30 31  3  0  0  0  0
 31 22  1  0  0  0  0
M  END
>  <minimizedAffinity>
-5.13778353

$$$$

 OpenBabel03272503273D

 31 33  0  0  1  0  0  0  0  0999 V2000
   37.7060   23.6840   32.8010 N   0  0  0  0  0  0  0  0  0  0  0  0
   38.7670   23.8760   33.7590 C   0  0  0  0  0  0  0  0  0  0  0  0
   38.6860   22.6300   34.6170 C   0  0  2  0  0  0  0  0  0  0  0  0
   37.4540   21.8820   34.1470 C   0  0  0  0  0  0  0  0  0  0  0  0
   37.5140   22.2440   32.6600 C   0  0  0  0  0  0  0  0  0  0  0  0
   39.7330   23.9430   33.2180 H   0  0  0  0  0  0  0  0  0  0  0  0
   38.5370   24.7200   34.4120 H   0  0  0  0  0  0  0  0  0  0  0  0
   39.5430   21.9270   34.4100 H   0  0  0  0  0  0  0  0  0  0  0  0
   36.5060   22.3060   34.5070 H   0  0  0  0  0  0  0  0  0  0  0  0
   37.5600   20.8020   34.2830 H   0  0  0  0  0  0  0  0  0  0  0  0
   36.5450   22.0070   32.1770 H   0  0  0  0  0  0  0  0  0  0  0  0
   38.3940   21.7920   32.1890 H   0  0  0  0  0  0  0  0  0  0  0  0
   36.9780   24.6910   32.1160 C   0  0  0  0  0  0  0  0  0  0  0  0
   35.7600   24.2950   31.5300 C   0  0  0  0  0  0  0  0  0  0  0  0
   35.0130   25.2600   30.8450 C   0  0  0  0  0  0  0  0  0  0  0  0
   35.5210   26.5360   30.7910 N   0  0  0  0  0  0  0  0  0  0  0  0
   36.6960   26.8710   31.3690 C   0  0  0  0  0  0  0  0  0  0  0  0
   37.4280   25.9350   32.0370 N   0  0  0  0  0  0  0  0  0  0  0  0
   35.3360   23.3010   31.5550 H   0  0  0  0  0  0  0  0  0  0  0  0
   34.0640   25.0310   30.3660 H   0  0  0  0  0  0  0  0  0  0  0  0
   37.0440   27.8960   31.2920 H   0  0  0  0  0  0  0  0  0  0  0  0
   39.8410   22.6090   36.7790 C   0  0  0  0  0  0  0  0  0  0  0  0
   38.6930   22.9200   36.0530 C   0  0  0  0  0  0  0  0  0  0  0  0
   37.6710   23.4810   36.7960 C   0  0  0  0  0  0  0  0  0  0  0  0
   36.7720   23.7310   36.2500 H   0  0  0  0  0  0  0  0  0  0  0  0
   37.7740   23.7170   38.1520 C   0  0  0  0  0  0  0  0  0  0  0  0
   36.9270   24.1670   38.6920 H   0  0  0  0  0  0  0  0  0  0  0  0
   38.9310   23.3880   38.8150 C   0  0  0  0  0  3  0  0  0  0  0  0
   40.0050   22.8180   38.1340 C   0  0  0  0  0  3  0  0  0  0  0  0
   41.8770   21.5470   35.5370 N   0  0  0  0  0  0  0  0  0  0  0  0
   40.9690   22.0130   36.0790 C   0  0  0  0  0  0  0  0  0  0  0  0
  1  2  1  0  0  0  0
  2  7  1  0  0  0  0
  2  3  1  0  0  0  0
  3  8  1  6  0  0  0
  3 23  1  0  0  0  0
  4 10  1  0  0  0  0
  4  9  1  0  0  0  0
  4  3  1  0  0  0  0
  5  1  1  0  0  0  0
  5  4  1  0  0  0  0
  6  2  1  0  0  0  0
 11  5  1  0  0  0  0
 12  5  1  0  0  0  0
 13  1  1  0  0  0  0
 14 19  1  0  0  0  0
 14 13  2  0  0  0  0
 15 14  1  0  0  0  0
 16 15  2  0  0  0  0
 16 17  1  0  0  0  0
 17 18  2  0  0  0  0
 18 13  1  0  0  0  0
 20 15  1  0  0  0  0
 21 17  1  0  0  0  0
 22 29  1  0  0  0  0
 23 22  2  0  0  0  0
 23 24  1  0  0  0  0
 24 26  2  0  0  0  0
 25 24  1  0  0  0  0
 26 27  1  0  0  0  0
 26 28  1  0  0  0  0
 29 28  2  0  0  0  0
 30 31  3  0  0  0  0
 31 22  1  0  0  0  0
M  END
>  <minimizedAffinity>
-4.96945333

$$$$

 OpenBabel03272503273D

 31 33  0  0  1  0  0  0  0  0999 V2000
   38.1920   26.2970   33.2840 N   0  0  0  0  0  0  0  0  0  0  0  0
   39.1310   26.1120   34.3620 C   0  0  0  0  0  0  0  0  0  0  0  0
   39.1240   24.6110   34.5710 C   0  0  2  0  0  0  0  0  0  0  0  0
   38.0380   24.0700   33.6630 C   0  0  0  0  0  0  0  0  0  0  0  0
   38.1870   25.0620   32.5050 C   0  0  0  0  0  0  0  0  0  0  0  0
   40.1270   26.4780   34.0390 H   0  0  0  0  0  0  0  0  0  0  0  0
   38.7440   26.5570   35.2800 H   0  0  0  0  0  0  0  0  0  0  0  0
   40.0740   24.1350   34.1960 H   0  0  0  0  0  0  0  0  0  0  0  0
   37.0170   24.2240   34.0420 H   0  0  0  0  0  0  0  0  0  0  0  0
   38.2590   23.0540   33.3270 H   0  0  0  0  0  0  0  0  0  0  0  0
   37.3010   25.0010   31.8430 H   0  0  0  0  0  0  0  0  0  0  0  0
   39.1530   24.9290   32.0060 H   0  0  0  0  0  0  0  0  0  0  0  0
   37.4130   27.4520   33.0150 C   0  0  0  0  0  0  0  0  0  0  0  0
   36.6130   27.9280   34.0720 C   0  0  0  0  0  0  0  0  0  0  0  0
   35.8290   29.0660   33.8450 C   0  0  0  0  0  0  0  0  0  0  0  0
   35.8950   29.6440   32.6000 N   0  0  0  0  0  0  0  0  0  0  0  0
   36.6790   29.1520   31.6140 C   0  0  0  0  0  0  0  0  0  0  0  0
   37.4430   28.0450   31.8300 N   0  0  0  0  0  0  0  0  0  0  0  0
   36.5410   27.4950   35.0590 H   0  0  0  0  0  0  0  0  0  0  0  0
   35.1860   29.4930   34.6110 H   0  0  0  0  0  0  0  0  0  0  0  0
   36.6880   29.6530   30.6530 H   0  0  0  0  0  0  0  0  0  0  0  0
   39.8300   23.2660   36.4950 C   0  0  0  0  0  0  0  0  0  0  0  0
   38.9670   24.2290   35.9770 C   0  0  0  0  0  0  0  0  0  0  0  0
   38.0410   24.7220   36.8780 C   0  0  0  0  0  0  0  0  0  0  0  0
   37.3620   25.4710   36.4950 H   0  0  0  0  0  0  0  0  0  0  0  0
   37.9720   24.2970   38.1890 C   0  0  0  0  0  0  0  0  0  0  0  0
   37.2140   24.7260   38.8610 H   0  0  0  0  0  0  0  0  0  0  0  0
   38.8500   23.3430   38.6430 C   0  0  0  0  0  3  0  0  0  0  0  0
   39.8120   22.7980   37.7940 C   0  0  0  0  0  3  0  0  0  0  0  0
   41.6540   22.2360   34.9350 N   0  0  0  0  0  0  0  0  0  0  0  0
   40.8380   22.6890   35.6190 C   0  0  0  0  0  0  0  0  0  0  0  0
  1  2  1  0  0  0  0
  2  3  1  0  0  0  0
  2  7  1  0  0  0  0
  3  8  1  6  0  0  0
  3 23  1  0  0  0  0
  4  9  1  0  0  0  0
  4  3  1  0  0  0  0
  5  1  1  0  0  0  0
  5  4  1  0  0  0  0
  6  2  1  0  0  0  0
 10  4  1  0  0  0  0
 11  5  1  0  0  0  0
 12  5  1  0  0  0  0
 13  1  1  0  0  0  0
 13 14  1  0  0  0  0
 14 19  1  0  0  0  0
 15 14  2  0  0  0  0
 15 20  1  0  0  0  0
 16 15  1  0  0  0  0
 17 18  1  0  0  0  0
 17 16  2  0  0  0  0
 18 13  2  0  0  0  0
 21 17  1  0  0  0  0
 22 29  1  0  0  0  0
 23 22  2  0  0  0  0
 23 24  1  0  0  0  0
 24 26  2  0  0  0  0
 25 24  1  0  0  0  0
 26 28  1  0  0  0  0
 26 27  1  0  0  0  0
 29 28  2  0  0  0  0
 30 31  3  0  0  0  0
 31 22  1  0  0  0  0
M  END
>  <minimizedAffinity>
-4.9390831

$$$$

 OpenBabel03272503273D

 31 33  0  0  1  0  0  0  0  0999 V2000
   37.2150   27.2440   33.5540 N   0  0  0  0  0  0  0  0  0  0  0  0
   37.5740   25.8680   33.7920 C   0  0  0  0  0  0  0  0  0  0  0  0
   38.1580   25.9010   35.1900 C   0  0  2  0  0  0  0  0  0  0  0  0
   38.2150   27.3640   35.5820 C   0  0  0  0  0  0  0  0  0  0  0  0
   36.9560   27.8480   34.8580 C   0  0  0  0  0  0  0  0  0  0  0  0
   36.6600   25.2430   33.7420 H   0  0  0  0  0  0  0  0  0  0  0  0
   38.3830   25.5680   33.1230 H   0  0  0  0  0  0  0  0  0  0  0  0
   37.4620   25.4310   35.9420 H   0  0  0  0  0  0  0  0  0  0  0  0
   39.0430   27.9210   35.1210 H   0  0  0  0  0  0  0  0  0  0  0  0
   38.1120   27.4980   36.6620 H   0  0  0  0  0  0  0  0  0  0  0  0
   36.9580   28.9550   34.8020 H   0  0  0  0  0  0  0  0  0  0  0  0
   36.0600   27.4050   35.3050 H   0  0  0  0  0  0  0  0  0  0  0  0
   37.1250   27.9020   32.3010 C   0  0  0  0  0  0  0  0  0  0  0  0
   38.1120   27.5780   31.3500 C   0  0  0  0  0  0  0  0  0  0  0  0
   38.0570   28.2070   30.1010 C   0  0  0  0  0  0  0  0  0  0  0  0
   37.0380   29.1030   29.8860 N   0  0  0  0  0  0  0  0  0  0  0  0
   36.1100   29.3830   30.8280 C   0  0  0  0  0  0  0  0  0  0  0  0
   36.1600   28.7740   32.0460 N   0  0  0  0  0  0  0  0  0  0  0  0
   38.9250   26.8790   31.4910 H   0  0  0  0  0  0  0  0  0  0  0  0
   38.7840   28.0090   29.3160 H   0  0  0  0  0  0  0  0  0  0  0  0
   35.3290   30.0990   30.5980 H   0  0  0  0  0  0  0  0  0  0  0  0
   39.4890   24.0030   35.9880 C   0  0  0  0  0  0  0  0  0  0  0  0
   39.4460   25.2080   35.2900 C   0  0  0  0  0  0  0  0  0  0  0  0
   40.6560   25.6160   34.7620 C   0  0  0  0  0  0  0  0  0  0  0  0
   40.6430   26.5490   34.2160 H   0  0  0  0  0  0  0  0  0  0  0  0
   41.8210   24.8910   34.9110 C   0  0  0  0  0  0  0  0  0  0  0  0
   42.7560   25.2650   34.4670 H   0  0  0  0  0  0  0  0  0  0  0  0
   41.8020   23.7090   35.6110 C   0  0  0  0  0  3  0  0  0  0  0  0
   40.6200   23.2320   36.1730 C   0  0  0  0  0  3  0  0  0  0  0  0
   37.2890   23.0740   37.0430 N   0  0  0  0  0  0  0  0  0  0  0  0
   38.2610   23.4950   36.5800 C   0  0  0  0  0  0  0  0  0  0  0  0
  1  2  1  0  0  0  0
  1  5  1  0  0  0  0
  2  3  1  0  0  0  0
  3 23  1  0  0  0  0
  3  4  1  0  0  0  0
  3  8  1  1  0  0  0
  4 10  1  0  0  0  0
  5 12  1  0  0  0  0
  5  4  1  0  0  0  0
  6  2  1  0  0  0  0
  7  2  1  0  0  0  0
  9  4  1  0  0  0  0
 11  5  1  0  0  0  0
 13  1  1  0  0  0  0
 14 19  1  0  0  0  0
 14 13  2  0  0  0  0
 15 14  1  0  0  0  0
 16 15  2  0  0  0  0
 16 17  1  0  0  0  0
 17 18  2  0  0  0  0
 18 13  1  0  0  0  0
 20 15  1  0  0  0  0
 21 17  1  0  0  0  0
 22 29  1  0  0  0  0
 22 31  1  0  0  0  0
 23 22  2  0  0  0  0
 24 26  2  0  0  0  0
 24 23  1  0  0  0  0
 25 24  1  0  0  0  0
 26 28  1  0  0  0  0
 27 26  1  0  0  0  0
 28 29  2  0  0  0  0
 31 30  3  0  0  0  0
M  END
>  <minimizedAffinity>
-4.82203293

$$$$

 OpenBabel03272503273D

 31 33  0  0  1  0  0  0  0  0999 V2000
   37.4150   24.8280   32.5920 N   0  0  0  0  0  0  0  0  0  0  0  0
   37.8420   23.5040   32.2140 C   0  0  0  0  0  0  0  0  0  0  0  0
   36.7950   23.0790   31.2050 C   0  0  2  0  0  0  0  0  0  0  0  0
   35.7480   24.1750   31.2050 C   0  0  0  0  0  0  0  0  0  0  0  0
   36.6670   25.3740   31.4630 C   0  0  0  0  0  0  0  0  0  0  0  0
   38.8510   23.5680   31.7580 H   0  0  0  0  0  0  0  0  0  0  0  0
   37.7540   22.8220   33.0620 H   0  0  0  0  0  0  0  0  0  0  0  0
   37.2060   23.0770   30.1560 H   0  0  0  0  0  0  0  0  0  0  0  0
   35.0670   24.1460   32.0680 H   0  0  0  0  0  0  0  0  0  0  0  0
   35.2600   24.2700   30.2320 H   0  0  0  0  0  0  0  0  0  0  0  0
   36.0610   26.2530   31.7620 H   0  0  0  0  0  0  0  0  0  0  0  0
   37.3370   25.5360   30.6120 H   0  0  0  0  0  0  0  0  0  0  0  0
   37.6640   25.4910   33.8220 C   0  0  0  0  0  0  0  0  0  0  0  0
   37.3140   26.8540   33.8820 C   0  0  0  0  0  0  0  0  0  0  0  0
   37.5450   27.5420   35.0790 C   0  0  0  0  0  0  0  0  0  0  0  0
   38.1010   26.8360   36.1200 N   0  0  0  0  0  0  0  0  0  0  0  0
   38.4200   25.5270   36.0170 C   0  0  0  0  0  0  0  0  0  0  0  0
   38.1980   24.8530   34.8540 N   0  0  0  0  0  0  0  0  0  0  0  0
   36.8770   27.4340   33.0820 H   0  0  0  0  0  0  0  0  0  0  0  0
   37.3020   28.5950   35.2020 H   0  0  0  0  0  0  0  0  0  0  0  0
   38.8560   25.0250   36.8740 H   0  0  0  0  0  0  0  0  0  0  0  0
   36.9080   20.6490   30.9020 C   0  0  0  0  0  0  0  0  0  0  0  0
   36.2550   21.7420   31.4680 C   0  0  0  0  0  0  0  0  0  0  0  0
   35.1460   21.4250   32.2290 C   0  0  0  0  0  0  0  0  0  0  0  0
   34.6250   22.2600   32.6770 H   0  0  0  0  0  0  0  0  0  0  0  0
   34.7130   20.1280   32.4180 C   0  0  0  0  0  0  0  0  0  0  0  0
   33.8230   19.9360   33.0360 H   0  0  0  0  0  0  0  0  0  0  0  0
   35.3980   19.0900   31.8350 C   0  0  0  0  0  3  0  0  0  0  0  0
   36.5260   19.3310   31.0530 C   0  0  0  0  0  3  0  0  0  0  0  0
   39.0270   21.0570   29.4320 N   0  0  0  0  0  0  0  0  0  0  0  0
   38.0860   20.8870   30.0840 C   0  0  0  0  0  0  0  0  0  0  0  0
  1 13  1  0  0  0  0
  2  1  1  0  0  0  0
  2  7  1  0  0  0  0
  3  8  1  6  0  0  0
  3  4  1  0  0  0  0
  3 23  1  0  0  0  0
  3  2  1  0  0  0  0
  4  5  1  0  0  0  0
  4  9  1  0  0  0  0
  5 11  1  0  0  0  0
  5  1  1  0  0  0  0
  6  2  1  0  0  0  0
 10  4  1  0  0  0  0
 12  5  1  0  0  0  0
 13 14  2  0  0  0  0
 13 18  1  0  0  0  0
 14 15  1  0  0  0  0
 15 20  1  0  0  0  0
 15 16  2  0  0  0  0
 17 16  1  0  0  0  0
 17 21  1  0  0  0  0
 18 17  2  0  0  0  0
 19 14  1  0  0  0  0
 22 29  2  0  0  0  0
 22 23  1  0  0  0  0
 23 24  2  0  0  0  0
 24 26  1  0  0  0  0
 24 25  1  0  0  0  0
 26 27  1  0  0  0  0
 28 26  2  0  0  0  0
 29 28  1  0  0  0  0
 30 31  3  0  0  0  0
 31 22  1  0  0  0  0
M  END
>  <minimizedAffinity>
-4.81013155

$$$$

 OpenBabel03272503273D

 31 33  0  0  1  0  0  0  0  0999 V2000
   36.8740   23.2730   31.2940 N   0  0  0  0  0  0  0  0  0  0  0  0
   36.3690   24.3690   32.0840 C   0  0  0  0  0  0  0  0  0  0  0  0
   37.5610   25.2990   32.1840 C   0  0  2  0  0  0  0  0  0  0  0  0
   38.7200   24.5610   31.5440 C   0  0  0  0  0  0  0  0  0  0  0  0
   37.9440   23.8080   30.4580 C   0  0  0  0  0  0  0  0  0  0  0  0
   35.5220   24.8400   31.5470 H   0  0  0  0  0  0  0  0  0  0  0  0
   36.1500   24.0320   33.1000 H   0  0  0  0  0  0  0  0  0  0  0  0
   37.4230   26.2200   31.5480 H   0  0  0  0  0  0  0  0  0  0  0  0
   39.1580   23.7770   32.1780 H   0  0  0  0  0  0  0  0  0  0  0  0
   39.4390   25.2490   31.0930 H   0  0  0  0  0  0  0  0  0  0  0  0
   38.5770   23.0000   30.0380 H   0  0  0  0  0  0  0  0  0  0  0  0
   37.5330   24.5080   29.7240 H   0  0  0  0  0  0  0  0  0  0  0  0
   36.4280   21.9270   31.3120 C   0  0  0  0  0  0  0  0  0  0  0  0
   35.2740   21.6590   32.0740 C   0  0  0  0  0  0  0  0  0  0  0  0
   34.8030   20.3410   32.1170 C   0  0  0  0  0  0  0  0  0  0  0  0
   35.5020   19.3940   31.4070 N   0  0  0  0  0  0  0  0  0  0  0  0
   36.6050   19.6970   30.6880 C   0  0  0  0  0  0  0  0  0  0  0  0
   37.0680   20.9780   30.6430 N   0  0  0  0  0  0  0  0  0  0  0  0
   34.7050   22.3810   32.6420 H   0  0  0  0  0  0  0  0  0  0  0  0
   33.9200   20.0560   32.6840 H   0  0  0  0  0  0  0  0  0  0  0  0
   37.1130   18.9050   30.1480 H   0  0  0  0  0  0  0  0  0  0  0  0
   37.5240   27.0670   33.8820 C   0  0  0  0  0  0  0  0  0  0  0  0
   37.8250   25.7480   33.5540 C   0  0  0  0  0  0  0  0  0  0  0  0
   38.3540   24.9990   34.5890 C   0  0  0  0  0  0  0  0  0  0  0  0
   38.5950   23.9720   34.3540 H   0  0  0  0  0  0  0  0  0  0  0  0
   38.5680   25.5140   35.8520 C   0  0  0  0  0  0  0  0  0  0  0  0
   38.9910   24.8700   36.6370 H   0  0  0  0  0  0  0  0  0  0  0  0
   38.2500   26.8240   36.1160 C   0  0  0  0  0  3  0  0  0  0  0  0
   37.7140   27.6410   35.1230 C   0  0  0  0  0  3  0  0  0  0  0  0
   36.5130   28.6310   32.0500 N   0  0  0  0  0  0  0  0  0  0  0  0
   36.9630   27.9310   32.8540 C   0  0  0  0  0  0  0  0  0  0  0  0
  1 13  1  0  0  0  0
  1  2  1  0  0  0  0
  2  3  1  0  0  0  0
  2  7  1  0  0  0  0
  3  8  1  6  0  0  0
  3 23  1  0  0  0  0
  4  9  1  0  0  0  0
  4  3  1  0  0  0  0
  5  1  1  0  0  0  0
  5  4  1  0  0  0  0
  6  2  1  0  0  0  0
 10  4  1  0  0  0  0
 11  5  1  0  0  0  0
 12  5  1  0  0  0  0
 13 14  1  0  0  0  0
 14 15  2  0  0  0  0
 14 19  1  0  0  0  0
 15 20  1  0  0  0  0
 16 15  1  0  0  0  0
 17 16  2  0  0  0  0
 18 17  1  0  0  0  0
 18 13  2  0  0  0  0
 21 17  1  0  0  0  0
 22 29  1  0  0  0  0
 23 22  2  0  0  0  0
 23 24  1  0  0  0  0
 24 26  2  0  0  0  0
 25 24  1  0  0  0  0
 26 28  1  0  0  0  0
 26 27  1  0  0  0  0
 29 28  2  0  0  0  0
 30 31  3  0  0  0  0
 31 22  1  0  0  0  0
M  END
>  <minimizedAffinity>
-4.77910185

$$$$

 OpenBabel03272503273D

 31 33  0  0  1  0  0  0  0  0999 V2000
   38.1490   25.2860   33.5380 N   0  0  0  0  0  0  0  0  0  0  0  0
   36.9760   25.8560   32.9230 C   0  0  0  0  0  0  0  0  0  0  0  0
   37.5120   27.1040   32.2500 C   0  0  2  0  0  0  0  0  0  0  0  0
   38.9620   27.2160   32.6750 C   0  0  0  0  0  0  0  0  0  0  0  0
   39.2980   25.7230   32.7500 C   0  0  0  0  0  0  0  0  0  0  0  0
   36.5680   25.1340   32.1880 H   0  0  0  0  0  0  0  0  0  0  0  0
   36.2740   26.1920   33.6890 H   0  0  0  0  0  0  0  0  0  0  0  0
   37.5510   26.9860   31.1300 H   0  0  0  0  0  0  0  0  0  0  0  0
   39.1020   27.5920   33.6980 H   0  0  0  0  0  0  0  0  0  0  0  0
   39.5710   27.7070   31.9130 H   0  0  0  0  0  0  0  0  0  0  0  0
   40.2490   25.5800   33.3020 H   0  0  0  0  0  0  0  0  0  0  0  0
   39.2640   25.2700   31.7540 H   0  0  0  0  0  0  0  0  0  0  0  0
   38.1970   24.4570   34.6880 C   0  0  0  0  0  0  0  0  0  0  0  0
   37.9290   25.0800   35.9220 C   0  0  0  0  0  0  0  0  0  0  0  0
   37.9670   24.2940   37.0800 C   0  0  0  0  0  0  0  0  0  0  0  0
   38.2640   22.9610   36.9330 N   0  0  0  0  0  0  0  0  0  0  0  0
   38.5140   22.4040   35.7270 C   0  0  0  0  0  0  0  0  0  0  0  0
   38.4790   23.1650   34.5960 N   0  0  0  0  0  0  0  0  0  0  0  0
   37.6930   26.1250   36.0680 H   0  0  0  0  0  0  0  0  0  0  0  0
   37.7710   24.7040   38.0680 H   0  0  0  0  0  0  0  0  0  0  0  0
   38.7420   21.3450   35.6750 H   0  0  0  0  0  0  0  0  0  0  0  0
   36.4330   29.1690   31.4880 C   0  0  0  0  0  0  0  0  0  0  0  0
   36.7140   28.2990   32.5390 C   0  0  0  0  0  0  0  0  0  0  0  0
   36.1920   28.6780   33.7610 C   0  0  0  0  0  0  0  0  0  0  0  0
   36.3990   28.0150   34.5900 H   0  0  0  0  0  0  0  0  0  0  0  0
   35.4490   29.8290   33.9340 C   0  0  0  0  0  0  0  0  0  0  0  0
   35.0580   30.0800   34.9310 H   0  0  0  0  0  0  0  0  0  0  0  0
   35.2050   30.6490   32.8590 C   0  0  0  0  0  3  0  0  0  0  0  0
   35.6980   30.3330   31.5950 C   0  0  0  0  0  3  0  0  0  0  0  0
   37.3420   28.6150   29.1030 N   0  0  0  0  0  0  0  0  0  0  0  0
   36.9430   28.8510   30.1630 C   0  0  0  0  0  0  0  0  0  0  0  0
  1 13  1  0  0  0  0
  2  1  1  0  0  0  0
  2  7  1  0  0  0  0
  3  8  1  6  0  0  0
  3 23  1  0  0  0  0
  3  4  1  0  0  0  0
  3  2  1  0  0  0  0
  4  5  1  0  0  0  0
  4  9  1  0  0  0  0
  5 11  1  0  0  0  0
  5  1  1  0  0  0  0
  6  2  1  0  0  0  0
 10  4  1  0  0  0  0
 12  5  1  0  0  0  0
 13 14  1  0  0  0  0
 14 19  1  0  0  0  0
 14 15  2  0  0  0  0
 15 20  1  0  0  0  0
 16 15  1  0  0  0  0
 17 16  2  0  0  0  0
 18 13  2  0  0  0  0
 18 17  1  0  0  0  0
 21 17  1  0  0  0  0
 22 29  2  0  0  0  0
 22 23  1  0  0  0  0
 23 24  2  0  0  0  0
 24 26  1  0  0  0  0
 24 25  1  0  0  0  0
 26 27  1  0  0  0  0
 28 26  2  0  0  0  0
 29 28  1  0  0  0  0
 30 31  3  0  0  0  0
 31 22  1  0  0  0  0
M  END
>  <minimizedAffinity>
-4.76606083

$$$$

 OpenBabel03272503273D

 31 33  0  0  1  0  0  0  0  0999 V2000
   40.9740   24.6060   34.7060 N   0  0  0  0  0  0  0  0  0  0  0  0
   39.9110   24.8260   33.7570 C   0  0  0  0  0  0  0  0  0  0  0  0
   40.0110   26.3090   33.4650 C   0  0  2  0  0  0  0  0  0  0  0  0
   41.0630   26.8490   34.4140 C   0  0  0  0  0  0  0  0  0  0  0  0
   41.9860   25.6280   34.4570 C   0  0  0  0  0  0  0  0  0  0  0  0
   40.1030   24.2140   32.8520 H   0  0  0  0  0  0  0  0  0  0  0  0
   38.9410   24.6660   34.2330 H   0  0  0  0  0  0  0  0  0  0  0  0
   40.4280   26.5030   32.4360 H   0  0  0  0  0  0  0  0  0  0  0  0
   40.7120   26.9790   35.4470 H   0  0  0  0  0  0  0  0  0  0  0  0
   41.5860   27.7100   33.9900 H   0  0  0  0  0  0  0  0  0  0  0  0
   42.6910   25.7200   35.3080 H   0  0  0  0  0  0  0  0  0  0  0  0
   42.4530   25.4640   33.4800 H   0  0  0  0  0  0  0  0  0  0  0  0
   41.0410   23.5940   35.6980 C   0  0  0  0  0  0  0  0  0  0  0  0
   42.2050   22.8020   35.7080 C   0  0  0  0  0  0  0  0  0  0  0  0
   42.3080   21.7920   36.6740 C   0  0  0  0  0  0  0  0  0  0  0  0
   41.2610   21.6440   37.5500 N   0  0  0  0  0  0  0  0  0  0  0  0
   40.1610   22.4290   37.5040 C   0  0  0  0  0  0  0  0  0  0  0  0
   40.0560   23.4120   36.5660 N   0  0  0  0  0  0  0  0  0  0  0  0
   43.0440   22.8950   35.0330 H   0  0  0  0  0  0  0  0  0  0  0  0
   43.1750   21.1400   36.7440 H   0  0  0  0  0  0  0  0  0  0  0  0
   39.3680   22.2630   38.2240 H   0  0  0  0  0  0  0  0  0  0  0  0
   38.1610   27.4950   32.3780 C   0  0  0  0  0  0  0  0  0  0  0  0
   38.7210   26.9990   33.5530 C   0  0  0  0  0  0  0  0  0  0  0  0
   37.9720   27.2250   34.6930 C   0  0  0  0  0  0  0  0  0  0  0  0
   38.3900   26.8480   35.6160 H   0  0  0  0  0  0  0  0  0  0  0  0
   36.7620   27.8900   34.6740 C   0  0  0  0  0  0  0  0  0  0  0  0
   36.2090   28.0390   35.6130 H   0  0  0  0  0  0  0  0  0  0  0  0
   36.2600   28.3560   33.4840 C   0  0  0  0  0  3  0  0  0  0  0  0
   36.9580   28.1670   32.2930 C   0  0  0  0  0  3  0  0  0  0  0  0
   39.4360   27.1530   30.1250 N   0  0  0  0  0  0  0  0  0  0  0  0
   38.8810   27.3040   31.1280 C   0  0  0  0  0  0  0  0  0  0  0  0
  1 13  1  0  0  0  0
  2  7  1  0  0  0  0
  2  1  1  0  0  0  0
  3  8  1  6  0  0  0
  3 23  1  0  0  0  0
  3  2  1  0  0  0  0
  3  4  1  0  0  0  0
  4  5  1  0  0  0  0
  4  9  1  0  0  0  0
  5  1  1  0  0  0  0
  5 11  1  0  0  0  0
  6  2  1  0  0  0  0
 10  4  1  0  0  0  0
 12  5  1  0  0  0  0
 13 14  2  0  0  0  0
 13 18  1  0  0  0  0
 14 15  1  0  0  0  0
 15 20  1  0  0  0  0
 15 16  2  0  0  0  0
 17 16  1  0  0  0  0
 17 21  1  0  0  0  0
 18 17  2  0  0  0  0
 19 14  1  0  0  0  0
 22 23  1  0  0  0  0
 23 24  2  0  0  0  0
 24 25  1  0  0  0  0
 26 24  1  0  0  0  0
 26 27  1  0  0  0  0
 28 26  2  0  0  0  0
 29 22  2  0  0  0  0
 29 28  1  0  0  0  0
 30 31  3  0  0  0  0
 31 22  1  0  0  0  0
M  END
>  <minimizedAffinity>
-4.64635706

$$$$

 OpenBabel03272503273D

 31 33  0  0  1  0  0  0  0  0999 V2000
   39.4720   24.2340   35.4280 N   0  0  0  0  0  0  0  0  0  0  0  0
   38.1090   23.9770   35.0340 C   0  0  0  0  0  0  0  0  0  0  0  0
   37.9150   22.5190   35.3960 C   0  0  2  0  0  0  0  0  0  0  0  0
   39.2730   22.0180   35.8460 C   0  0  0  0  0  0  0  0  0  0  0  0
   39.7880   23.3010   36.5050 C   0  0  0  0  0  0  0  0  0  0  0  0
   37.4360   24.6400   35.6140 H   0  0  0  0  0  0  0  0  0  0  0  0
   38.0110   24.0450   33.9480 H   0  0  0  0  0  0  0  0  0  0  0  0
   37.2530   22.4010   36.3010 H   0  0  0  0  0  0  0  0  0  0  0  0
   39.9730   21.8180   35.0220 H   0  0  0  0  0  0  0  0  0  0  0  0
   39.1850   21.2170   36.5840 H   0  0  0  0  0  0  0  0  0  0  0  0
   40.8810   23.2240   36.6710 H   0  0  0  0  0  0  0  0  0  0  0  0
   39.1960   23.5410   37.3950 H   0  0  0  0  0  0  0  0  0  0  0  0
   40.3530   25.2050   34.8840 C   0  0  0  0  0  0  0  0  0  0  0  0
   41.7310   24.9380   35.0040 C   0  0  0  0  0  0  0  0  0  0  0  0
   42.6320   25.8730   34.4790 C   0  0  0  0  0  0  0  0  0  0  0  0
   42.1070   26.9920   33.8800 N   0  0  0  0  0  0  0  0  0  0  0  0
   40.7760   27.2070   33.7860 C   0  0  0  0  0  0  0  0  0  0  0  0
   39.8950   26.3000   34.2960 N   0  0  0  0  0  0  0  0  0  0  0  0
   42.1720   24.0680   35.4700 H   0  0  0  0  0  0  0  0  0  0  0  0
   43.7090   25.7370   34.5340 H   0  0  0  0  0  0  0  0  0  0  0  0
   40.4230   28.1100   33.3010 H   0  0  0  0  0  0  0  0  0  0  0  0
   36.1850   20.9780   34.5960 C   0  0  0  0  0  0  0  0  0  0  0  0
   37.3200   21.7330   34.3120 C   0  0  0  0  0  0  0  0  0  0  0  0
   37.7630   21.6460   33.0050 C   0  0  0  0  0  0  0  0  0  0  0  0
   38.6440   22.2250   32.7650 H   0  0  0  0  0  0  0  0  0  0  0  0
   37.1320   20.8730   32.0510 C   0  0  0  0  0  0  0  0  0  0  0  0
   37.5290   20.8430   31.0250 H   0  0  0  0  0  0  0  0  0  0  0  0
   36.0150   20.1500   32.3910 C   0  0  0  0  0  3  0  0  0  0  0  0
   35.5090   20.1860   33.6890 C   0  0  0  0  0  3  0  0  0  0  0  0
   35.2180   21.0110   37.0220 N   0  0  0  0  0  0  0  0  0  0  0  0
   35.6480   21.0070   35.9480 C   0  0  0  0  0  0  0  0  0  0  0  0
  1  5  1  0  0  0  0
  2  3  1  0  0  0  0
  2  1  1  0  0  0  0
  2  6  1  0  0  0  0
  3  4  1  0  0  0  0
  3  8  1  1  0  0  0
  4  5  1  0  0  0  0
  4 10  1  0  0  0  0
  5 11  1  0  0  0  0
  5 12  1  0  0  0  0
  7  2  1  0  0  0  0
  9  4  1  0  0  0  0
 13 14  1  0  0  0  0
 13  1  1  0  0  0  0
 14 19  1  0  0  0  0
 15 20  1  0  0  0  0
 15 14  2  0  0  0  0
 16 15  1  0  0  0  0
 17 16  2  0  0  0  0
 17 18  1  0  0  0  0
 18 13  2  0  0  0  0
 21 17  1  0  0  0  0
 22 31  1  0  0  0  0
 23 22  1  0  0  0  0
 23  3  1  0  0  0  0
 24 23  2  0  0  0  0
 25 24  1  0  0  0  0
 26 28  2  0  0  0  0
 26 24  1  0  0  0  0
 27 26  1  0  0  0  0
 28 29  1  0  0  0  0
 29 22  2  0  0  0  0
 31 30  3  0  0  0  0
M  END
>  <minimizedAffinity>
-4.61556196

$$$$
