
 OpenBabel03272506553D

 21 22  0  0  0  0  0  0  0  0999 V2000
   36.7870   29.0010   50.2370 C   0  0  0  0  0  0  0  0  0  0  0  0
   37.2830   30.1220   50.9420 C   0  0  0  0  0  0  0  0  0  0  0  0
   37.3800   31.3040   50.1920 C   0  0  0  0  0  0  0  0  0  0  0  0
   37.0060   31.3110   48.8790 N   0  0  0  0  0  0  0  0  0  0  0  0
   36.5410   30.2050   48.2680 C   0  0  0  0  0  0  0  0  0  0  0  0
   36.4240   29.0360   48.9340 N   0  0  0  0  0  0  0  0  0  0  0  0
   36.7230   28.0910   50.8500 H   0  0  0  0  0  0  0  0  0  0  0  0
   37.7570   32.1780   50.7060 H   0  0  0  0  0  0  0  0  0  0  0  0
   34.9670   29.9150   46.3500 C   0  0  0  0  0  0  0  0  0  0  0  0
   36.1670   30.3120   46.8630 C   0  0  0  0  0  0  0  0  0  0  0  0
   37.0800   30.8480   45.9810 C   0  0  0  0  0  0  0  0  0  0  0  0
   38.0700   31.1930   46.3080 H   0  0  0  0  0  0  0  0  0  0  0  0
   36.8320   30.9950   44.6290 C   0  0  0  0  0  0  0  0  0  0  0  0
   37.5820   31.4270   43.9510 H   0  0  0  0  0  0  0  0  0  0  0  0
   35.6170   30.5940   44.1080 C   0  0  0  0  0  3  0  0  0  0  0  0
   34.6960   30.0520   45.0020 C   0  0  0  0  0  3  0  0  0  0  0  0
   33.2390   28.9000   47.9890 N   0  0  0  0  0  0  0  0  0  0  0  0
   34.0070   29.3540   47.2590 C   0  0  0  0  0  0  0  0  0  0  0  0
   37.6480   30.0220   52.3100 N   0  0  0  0  0  0  0  0  0  0  0  0
   38.6120   30.0240   52.6570 H   0  0  0  0  0  0  0  0  0  0  0  0
   36.8710   29.9410   53.0110 H   0  0  0  0  0  0  0  0  0  0  0  0
  1  7  1  0  0  0  0
  1  2  1  0  0  0  0
  2 19  1  0  0  0  0
  3  8  1  0  0  0  0
  3  2  2  0  0  0  0
  4  3  1  0  0  0  0
  5  4  2  0  0  0  0
  5  6  1  0  0  0  0
  6  1  2  0  0  0  0
  9 10  1  0  0  0  0
  9 18  1  0  0  0  0
 10  5  1  0  0  0  0
 11 12  1  0  0  0  0
 11 10  2  0  0  0  0
 13 11  1  0  0  0  0
 14 13  1  0  0  0  0
 15 13  2  0  0  0  0
 15 16  1  0  0  0  0
 16  9  2  0  0  0  0
 18 17  3  0  0  0  0
 19 20  1  0  0  0  0
 19 21  1  0  0  0  0
M  END
>  <minimizedAffinity>
-4.00688219

>  <minimizedRMSD>
4.5637517

$$$$
