
 OpenBabel03272502123D

 27 29  0  0  0  0  0  0  0  0999 V2000
   36.6690   27.8460   33.5210 C   0  0  0  0  0  0  0  0  0  0  0  0
   36.7610   28.3610   32.2450 C   0  0  0  0  0  0  0  0  0  0  0  0
   36.2630   29.6170   31.8810 C   0  0  0  0  0  0  0  0  0  0  0  0
   35.6630   30.3430   32.8530 N   0  0  0  0  0  0  0  0  0  0  0  0
   35.5720   29.8430   34.0940 C   0  0  0  0  0  0  0  0  0  0  0  0
   36.0550   28.6290   34.4420 N   0  0  0  0  0  0  0  0  0  0  0  0
   37.2420   27.7840   31.4520 H   0  0  0  0  0  0  0  0  0  0  0  0
   36.3370   30.0100   30.8910 H   0  0  0  0  0  0  0  0  0  0  0  0
   37.4500   25.5270   32.9430 C   0  0  0  0  0  0  0  0  0  0  0  0
   37.1940   26.5440   33.8620 C   0  0  0  0  0  0  0  0  0  0  0  0
   37.4690   26.2700   35.2040 C   0  0  0  0  0  0  0  0  0  0  0  0
   37.9600   25.0630   35.5490 N   0  0  0  0  0  0  0  0  0  0  0  0
   38.1960   24.0950   34.6130 C   0  0  0  0  0  0  0  0  0  0  0  0
   37.9360   24.3370   33.2980 N   0  0  0  0  0  0  0  0  0  0  0  0
   37.2040   25.8380   31.9330 H   0  0  0  0  0  0  0  0  0  0  0  0
   37.3090   26.9880   36.0120 H   0  0  0  0  0  0  0  0  0  0  0  0
   38.5880   23.1120   34.8320 H   0  0  0  0  0  0  0  0  0  0  0  0
   33.5680   30.6100   35.3250 C   0  0  0  0  0  0  0  0  0  0  0  0
   34.9230   30.6470   35.1120 C   0  0  0  0  0  0  0  0  0  0  0  0
   35.6070   31.5090   35.9420 C   0  0  0  0  0  0  0  0  0  0  0  0
   36.6780   31.6100   35.8530 H   0  0  0  0  0  0  0  0  0  0  0  0
   35.0330   32.2920   36.9210 C   0  0  0  0  0  0  0  0  0  0  0  0
   35.5820   32.9560   37.5590 H   0  0  0  0  0  0  0  0  0  0  0  0
   33.6470   32.2110   37.0930 C   0  0  0  0  0  3  0  0  0  0  0  0
   32.9200   31.3610   36.2840 C   0  0  0  0  0  3  0  0  0  0  0  0
   32.1070   29.0290   33.8280 N   0  0  0  0  0  0  0  0  0  0  0  0
   32.7690   29.7300   34.4960 C   0  0  0  0  0  0  0  0  0  0  0  0
  1 10  1  0  0  0  0
  1  6  1  0  0  0  0
  2  1  2  0  0  0  0
  3  2  1  0  0  0  0
  3  4  2  0  0  0  0
  4  5  1  0  0  0  0
  5  6  2  0  0  0  0
  5 19  1  0  0  0  0
  7  2  1  0  0  0  0
  8  3  1  0  0  0  0
  9 14  2  0  0  0  0
  9 10  1  0  0  0  0
 10 11  2  0  0  0  0
 11 12  1  0  0  0  0
 11 16  1  0  0  0  0
 13 17  1  0  0  0  0
 13 12  2  0  0  0  0
 14 13  1  0  0  0  0
 15  9  1  0  0  0  0
 18 25  1  0  0  0  0
 19 18  2  0  0  0  0
 19 20  1  0  0  0  0
 20 22  2  0  0  0  0
 21 20  1  0  0  0  0
 22 24  1  0  0  0  0
 22 23  1  0  0  0  0
 25 24  2  0  0  0  0
 26 27  3  0  0  0  0
 27 18  1  0  0  0  0
M  END
>  <minimizedAffinity>
-5.27319765

$$$$

 OpenBabel03272502123D

 27 29  0  0  0  0  0  0  0  0999 V2000
   36.0260   23.0700   31.8650 C   0  0  0  0  0  0  0  0  0  0  0  0
   35.2750   23.8250   30.9880 C   0  0  0  0  0  0  0  0  0  0  0  0
   35.3410   25.2210   30.9180 C   0  0  0  0  0  0  0  0  0  0  0  0
   36.1950   25.8380   31.7690 N   0  0  0  0  0  0  0  0  0  0  0  0
   36.9250   25.1040   32.6230 C   0  0  0  0  0  0  0  0  0  0  0  0
   36.8590   23.7550   32.6870 N   0  0  0  0  0  0  0  0  0  0  0  0
   34.5830   23.3390   30.2960 H   0  0  0  0  0  0  0  0  0  0  0  0
   34.7570   25.8000   30.2360 H   0  0  0  0  0  0  0  0  0  0  0  0
   36.1310   20.7870   30.8170 C   0  0  0  0  0  0  0  0  0  0  0  0
   35.9330   21.6300   31.9110 C   0  0  0  0  0  0  0  0  0  0  0  0
   35.6220   21.0230   33.1300 C   0  0  0  0  0  0  0  0  0  0  0  0
   35.5290   19.6810   33.2000 N   0  0  0  0  0  0  0  0  0  0  0  0
   35.7320   18.8930   32.1010 C   0  0  0  0  0  0  0  0  0  0  0  0
   36.0360   19.4600   30.9000 N   0  0  0  0  0  0  0  0  0  0  0  0
   36.3660   21.3530   29.9220 H   0  0  0  0  0  0  0  0  0  0  0  0
   35.4460   21.5790   34.0540 H   0  0  0  0  0  0  0  0  0  0  0  0
   35.6710   17.8140   32.0990 H   0  0  0  0  0  0  0  0  0  0  0  0
   39.1240   26.0890   33.1800 C   0  0  0  0  0  0  0  0  0  0  0  0
   37.8280   25.7970   33.5210 C   0  0  0  0  0  0  0  0  0  0  0  0
   37.4640   26.2150   34.7840 C   0  0  0  0  0  0  0  0  0  0  0  0
   36.4640   26.0310   35.1460 H   0  0  0  0  0  0  0  0  0  0  0  0
   38.2880   26.8750   35.6700 C   0  0  0  0  0  0  0  0  0  0  0  0
   37.9860   27.1930   36.6490 H   0  0  0  0  0  0  0  0  0  0  0  0
   39.5990   27.1470   35.2650 C   0  0  0  0  0  3  0  0  0  0  0  0
   40.0090   26.7460   34.0100 C   0  0  0  0  0  3  0  0  0  0  0  0
   39.9570   25.3620   30.8020 N   0  0  0  0  0  0  0  0  0  0  0  0
   39.5940   25.6860   31.8690 C   0  0  0  0  0  0  0  0  0  0  0  0
  1 10  1  0  0  0  0
  1  6  1  0  0  0  0
  2  1  2  0  0  0  0
  3  2  1  0  0  0  0
  3  4  2  0  0  0  0
  4  5  1  0  0  0  0
  5  6  2  0  0  0  0
  5 19  1  0  0  0  0
  7  2  1  0  0  0  0
  8  3  1  0  0  0  0
  9 14  2  0  0  0  0
  9 10  1  0  0  0  0
 10 11  2  0  0  0  0
 11 12  1  0  0  0  0
 11 16  1  0  0  0  0
 13 12  2  0  0  0  0
 14 13  1  0  0  0  0
 15  9  1  0  0  0  0
 17 13  1  0  0  0  0
 18 19  2  0  0  0  0
 18 25  1  0  0  0  0
 19 20  1  0  0  0  0
 20 21  1  0  0  0  0
 20 22  2  0  0  0  0
 22 23  1  0  0  0  0
 24 22  1  0  0  0  0
 25 24  2  0  0  0  0
 26 27  3  0  0  0  0
 27 18  1  0  0  0  0
M  END
>  <minimizedAffinity>
-5.02759743

$$$$

 OpenBabel03272502123D

 27 29  0  0  0  0  0  0  0  0999 V2000
   36.6040   29.5040   31.6630 C   0  0  0  0  0  0  0  0  0  0  0  0
   36.9450   28.2060   31.9810 C   0  0  0  0  0  0  0  0  0  0  0  0
   36.6800   27.6210   33.2250 C   0  0  0  0  0  0  0  0  0  0  0  0
   36.0570   28.3940   34.1460 N   0  0  0  0  0  0  0  0  0  0  0  0
   35.7270   29.6560   33.8370 C   0  0  0  0  0  0  0  0  0  0  0  0
   35.9840   30.2180   32.6340 N   0  0  0  0  0  0  0  0  0  0  0  0
   37.4480   27.5720   31.2470 H   0  0  0  0  0  0  0  0  0  0  0  0
   36.9460   26.6150   33.4660 H   0  0  0  0  0  0  0  0  0  0  0  0
   37.5250   29.4000   29.3260 C   0  0  0  0  0  0  0  0  0  0  0  0
   36.8930   30.0770   30.3690 C   0  0  0  0  0  0  0  0  0  0  0  0
   36.5200   31.4020   30.1310 C   0  0  0  0  0  0  0  0  0  0  0  0
   36.7780   31.9600   28.9320 N   0  0  0  0  0  0  0  0  0  0  0  0
   37.3990   31.2580   27.9370 C   0  0  0  0  0  0  0  0  0  0  0  0
   37.7740   29.9650   28.1430 N   0  0  0  0  0  0  0  0  0  0  0  0
   37.7730   28.3830   29.6090 H   0  0  0  0  0  0  0  0  0  0  0  0
   36.0200   32.0310   30.8720 H   0  0  0  0  0  0  0  0  0  0  0  0
   37.6300   31.6540   26.9590 H   0  0  0  0  0  0  0  0  0  0  0  0
   33.6960   30.4820   34.9830 C   0  0  0  0  0  0  0  0  0  0  0  0
   35.0610   30.4560   34.8470 C   0  0  0  0  0  0  0  0  0  0  0  0
   35.7380   31.2530   35.7460 C   0  0  0  0  0  0  0  0  0  0  0  0
   36.8160   31.3020   35.7190 H   0  0  0  0  0  0  0  0  0  0  0  0
   35.1490   32.0290   36.7200 C   0  0  0  0  0  0  0  0  0  0  0  0
   35.6920   32.6420   37.4120 H   0  0  0  0  0  0  0  0  0  0  0  0
   33.7530   32.0130   36.8120 C   0  0  0  0  0  3  0  0  0  0  0  0
   33.0320   31.2310   35.9330 C   0  0  0  0  0  3  0  0  0  0  0  0
   32.2460   29.0210   33.3600 N   0  0  0  0  0  0  0  0  0  0  0  0
   32.9030   29.6740   34.0790 C   0  0  0  0  0  0  0  0  0  0  0  0
  1  2  2  0  0  0  0
  1  6  1  0  0  0  0
  2  3  1  0  0  0  0
  3  8  1  0  0  0  0
  3  4  2  0  0  0  0
  5  4  1  0  0  0  0
  5 19  1  0  0  0  0
  6  5  2  0  0  0  0
  7  2  1  0  0  0  0
  9 15  1  0  0  0  0
  9 10  1  0  0  0  0
 10  1  1  0  0  0  0
 11 10  2  0  0  0  0
 11 16  1  0  0  0  0
 12 11  1  0  0  0  0
 13 14  1  0  0  0  0
 13 12  2  0  0  0  0
 14  9  2  0  0  0  0
 17 13  1  0  0  0  0
 18 25  1  0  0  0  0
 19 18  2  0  0  0  0
 19 20  1  0  0  0  0
 20 22  2  0  0  0  0
 21 20  1  0  0  0  0
 22 24  1  0  0  0  0
 22 23  1  0  0  0  0
 25 24  2  0  0  0  0
 26 27  3  0  0  0  0
 27 18  1  0  0  0  0
M  END
>  <minimizedAffinity>
-4.8936553

$$$$

 OpenBabel03272502123D

 27 29  0  0  0  0  0  0  0  0999 V2000
   36.4000   29.4990   31.1160 C   0  0  0  0  0  0  0  0  0  0  0  0
   35.1640   29.9660   31.5160 C   0  0  0  0  0  0  0  0  0  0  0  0
   34.5640   29.6200   32.7320 C   0  0  0  0  0  0  0  0  0  0  0  0
   35.2550   28.7800   33.5390 N   0  0  0  0  0  0  0  0  0  0  0  0
   36.4550   28.3260   33.1510 C   0  0  0  0  0  0  0  0  0  0  0  0
   37.0320   28.6620   31.9750 N   0  0  0  0  0  0  0  0  0  0  0  0
   34.5970   30.6430   30.8730 H   0  0  0  0  0  0  0  0  0  0  0  0
   33.6070   29.9840   33.0350 H   0  0  0  0  0  0  0  0  0  0  0  0
   37.6910   29.0100   29.0150 C   0  0  0  0  0  0  0  0  0  0  0  0
   36.9900   29.8770   29.8530 C   0  0  0  0  0  0  0  0  0  0  0  0
   36.8570   31.2010   29.4280 C   0  0  0  0  0  0  0  0  0  0  0  0
   37.3980   31.5790   28.2530 N   0  0  0  0  0  0  0  0  0  0  0  0
   38.0770   30.6950   27.4620 C   0  0  0  0  0  0  0  0  0  0  0  0
   38.2210   29.3980   27.8540 N   0  0  0  0  0  0  0  0  0  0  0  0
   37.7380   28.0100   29.4330 H   0  0  0  0  0  0  0  0  0  0  0  0
   36.3300   31.9690   29.9990 H   0  0  0  0  0  0  0  0  0  0  0  0
   38.5300   30.9420   26.5130 H   0  0  0  0  0  0  0  0  0  0  0  0
   37.3160   26.0910   33.7700 C   0  0  0  0  0  0  0  0  0  0  0  0
   37.1680   27.4280   34.0390 C   0  0  0  0  0  0  0  0  0  0  0  0
   37.7500   27.8380   35.2200 C   0  0  0  0  0  0  0  0  0  0  0  0
   37.6880   28.8740   35.5210 H   0  0  0  0  0  0  0  0  0  0  0  0
   38.4350   27.0230   36.0940 C   0  0  0  0  0  0  0  0  0  0  0  0
   38.8830   27.3610   37.0080 H   0  0  0  0  0  0  0  0  0  0  0  0
   38.5550   25.6680   35.7650 C   0  0  0  0  0  3  0  0  0  0  0  0
   37.9880   25.2100   34.5930 C   0  0  0  0  0  3  0  0  0  0  0  0
   36.2740   25.1620   31.5500 N   0  0  0  0  0  0  0  0  0  0  0  0
   36.7350   25.5700   32.5480 C   0  0  0  0  0  0  0  0  0  0  0  0
  1  2  2  0  0  0  0
  1  6  1  0  0  0  0
  2  3  1  0  0  0  0
  3  8  1  0  0  0  0
  3  4  2  0  0  0  0
  5  4  1  0  0  0  0
  5 19  1  0  0  0  0
  6  5  2  0  0  0  0
  7  2  1  0  0  0  0
  9 15  1  0  0  0  0
  9 10  1  0  0  0  0
 10  1  1  0  0  0  0
 11 10  2  0  0  0  0
 11 16  1  0  0  0  0
 12 11  1  0  0  0  0
 13 14  1  0  0  0  0
 13 12  2  0  0  0  0
 14  9  2  0  0  0  0
 17 13  1  0  0  0  0
 18 19  2  0  0  0  0
 18 25  1  0  0  0  0
 19 20  1  0  0  0  0
 20 21  1  0  0  0  0
 20 22  2  0  0  0  0
 22 23  1  0  0  0  0
 24 22  1  0  0  0  0
 25 24  2  0  0  0  0
 26 27  3  0  0  0  0
 27 18  1  0  0  0  0
M  END
>  <minimizedAffinity>
-4.83185959

$$$$

 OpenBabel03272502123D

 27 29  0  0  0  0  0  0  0  0999 V2000
   37.0230   23.2430   31.2910 C   0  0  0  0  0  0  0  0  0  0  0  0
   38.0830   23.4190   30.4250 C   0  0  0  0  0  0  0  0  0  0  0  0
   38.7300   24.6450   30.2360 C   0  0  0  0  0  0  0  0  0  0  0  0
   38.2700   25.6980   30.9530 N   0  0  0  0  0  0  0  0  0  0  0  0
   37.2390   25.5280   31.7940 C   0  0  0  0  0  0  0  0  0  0  0  0
   36.6160   24.3410   31.9740 N   0  0  0  0  0  0  0  0  0  0  0  0
   38.4630   22.5780   29.8420 H   0  0  0  0  0  0  0  0  0  0  0  0
   39.5510   24.7750   29.5650 H   0  0  0  0  0  0  0  0  0  0  0  0
   35.2380   21.7460   32.2360 C   0  0  0  0  0  0  0  0  0  0  0  0
   36.3770   21.9620   31.4610 C   0  0  0  0  0  0  0  0  0  0  0  0
   36.9210   20.8530   30.8100 C   0  0  0  0  0  0  0  0  0  0  0  0
   36.3390   19.6470   30.9520 N   0  0  0  0  0  0  0  0  0  0  0  0
   35.2210   19.4800   31.7220 C   0  0  0  0  0  0  0  0  0  0  0  0
   34.6710   20.5460   32.3670 N   0  0  0  0  0  0  0  0  0  0  0  0
   34.8940   22.6660   32.6970 H   0  0  0  0  0  0  0  0  0  0  0  0
   37.8110   20.9000   30.1770 H   0  0  0  0  0  0  0  0  0  0  0  0
   34.7130   18.5380   31.8700 H   0  0  0  0  0  0  0  0  0  0  0  0
   37.1300   26.8970   33.8510 C   0  0  0  0  0  0  0  0  0  0  0  0
   36.7710   26.6760   32.5450 C   0  0  0  0  0  0  0  0  0  0  0  0
   35.9320   27.6340   32.0160 C   0  0  0  0  0  0  0  0  0  0  0  0
   35.5930   27.5500   30.9940 H   0  0  0  0  0  0  0  0  0  0  0  0
   35.4630   28.7400   32.6910 C   0  0  0  0  0  0  0  0  0  0  0  0
   34.8120   29.4760   32.2610 H   0  0  0  0  0  0  0  0  0  0  0  0
   35.8640   28.9130   34.0200 C   0  0  0  0  0  3  0  0  0  0  0  0
   36.7030   27.9790   34.5930 C   0  0  0  0  0  3  0  0  0  0  0  0
   38.7120   25.1660   35.0230 N   0  0  0  0  0  0  0  0  0  0  0  0
   38.0110   25.9400   34.4900 C   0  0  0  0  0  0  0  0  0  0  0  0
  1 10  1  0  0  0  0
  1  6  1  0  0  0  0
  2  1  2  0  0  0  0
  3  2  1  0  0  0  0
  3  4  2  0  0  0  0
  4  5  1  0  0  0  0
  5  6  2  0  0  0  0
  5 19  1  0  0  0  0
  7  2  1  0  0  0  0
  8  3  1  0  0  0  0
  9 14  1  0  0  0  0
  9 15  1  0  0  0  0
 10  9  2  0  0  0  0
 11 12  2  0  0  0  0
 11 10  1  0  0  0  0
 12 13  1  0  0  0  0
 13 17  1  0  0  0  0
 13 14  2  0  0  0  0
 16 11  1  0  0  0  0
 18 27  1  0  0  0  0
 18 25  1  0  0  0  0
 19 18  2  0  0  0  0
 20 19  1  0  0  0  0
 20 22  2  0  0  0  0
 21 20  1  0  0  0  0
 22 24  1  0  0  0  0
 23 22  1  0  0  0  0
 24 25  2  0  0  0  0
 27 26  3  0  0  0  0
M  END
>  <minimizedAffinity>
-4.79463005

$$$$

 OpenBabel03272502123D

 27 29  0  0  0  0  0  0  0  0999 V2000
   36.5550   28.1740   33.6360 C   0  0  0  0  0  0  0  0  0  0  0  0
   36.5060   28.6850   32.3550 C   0  0  0  0  0  0  0  0  0  0  0  0
   35.6290   29.7020   31.9620 C   0  0  0  0  0  0  0  0  0  0  0  0
   34.7950   30.1910   32.9100 N   0  0  0  0  0  0  0  0  0  0  0  0
   34.8410   29.6950   34.1550 C   0  0  0  0  0  0  0  0  0  0  0  0
   35.6910   28.7120   34.5310 N   0  0  0  0  0  0  0  0  0  0  0  0
   37.1740   28.2990   31.5820 H   0  0  0  0  0  0  0  0  0  0  0  0
   35.5960   30.0940   30.9690 H   0  0  0  0  0  0  0  0  0  0  0  0
   38.5020   27.2610   34.9390 C   0  0  0  0  0  0  0  0  0  0  0  0
   37.4740   27.1230   34.0060 C   0  0  0  0  0  0  0  0  0  0  0  0
   37.3350   25.8740   33.3960 C   0  0  0  0  0  0  0  0  0  0  0  0
   38.1790   24.8760   33.7230 N   0  0  0  0  0  0  0  0  0  0  0  0
   39.1730   25.0560   34.6450 C   0  0  0  0  0  0  0  0  0  0  0  0
   39.3300   26.2640   35.2540 N   0  0  0  0  0  0  0  0  0  0  0  0
   38.5250   28.2630   35.3540 H   0  0  0  0  0  0  0  0  0  0  0  0
   36.5680   25.6480   32.6510 H   0  0  0  0  0  0  0  0  0  0  0  0
   39.8760   24.2930   34.9450 H   0  0  0  0  0  0  0  0  0  0  0  0
   34.2490   31.3360   35.9080 C   0  0  0  0  0  0  0  0  0  0  0  0
   33.9340   30.2410   35.1450 C   0  0  0  0  0  0  0  0  0  0  0  0
   32.6870   29.7090   35.4020 C   0  0  0  0  0  0  0  0  0  0  0  0
   32.3460   28.8440   34.8530 H   0  0  0  0  0  0  0  0  0  0  0  0
   31.7930   30.1930   36.3310 C   0  0  0  0  0  0  0  0  0  0  0  0
   30.8270   29.7660   36.5160 H   0  0  0  0  0  0  0  0  0  0  0  0
   32.1700   31.3140   37.0790 C   0  0  0  0  0  3  0  0  0  0  0  0
   33.4090   31.8810   36.8570 C   0  0  0  0  0  3  0  0  0  0  0  0
   36.5790   32.4840   35.5490 N   0  0  0  0  0  0  0  0  0  0  0  0
   35.5410   31.9620   35.7060 C   0  0  0  0  0  0  0  0  0  0  0  0
  1 10  1  0  0  0  0
  1  6  1  0  0  0  0
  2  1  2  0  0  0  0
  3  2  1  0  0  0  0
  3  4  2  0  0  0  0
  4  5  1  0  0  0  0
  5  6  2  0  0  0  0
  5 19  1  0  0  0  0
  7  2  1  0  0  0  0
  8  3  1  0  0  0  0
  9 14  1  0  0  0  0
  9 15  1  0  0  0  0
 10  9  2  0  0  0  0
 11 12  2  0  0  0  0
 11 10  1  0  0  0  0
 12 13  1  0  0  0  0
 13 17  1  0  0  0  0
 13 14  2  0  0  0  0
 16 11  1  0  0  0  0
 18 25  1  0  0  0  0
 19 20  1  0  0  0  0
 19 18  2  0  0  0  0
 20 22  2  0  0  0  0
 21 20  1  0  0  0  0
 22 23  1  0  0  0  0
 22 24  1  0  0  0  0
 25 24  2  0  0  0  0
 26 27  3  0  0  0  0
 27 18  1  0  0  0  0
M  END
>  <minimizedAffinity>
-4.78525209

$$$$

 OpenBabel03272502123D

 27 29  0  0  0  0  0  0  0  0999 V2000
   37.4260   24.3650   32.5640 C   0  0  0  0  0  0  0  0  0  0  0  0
   37.0250   23.1570   32.0320 C   0  0  0  0  0  0  0  0  0  0  0  0
   37.0420   21.9540   32.7480 C   0  0  0  0  0  0  0  0  0  0  0  0
   37.4820   22.0080   34.0270 N   0  0  0  0  0  0  0  0  0  0  0  0
   37.8740   23.1820   34.5440 C   0  0  0  0  0  0  0  0  0  0  0  0
   37.8550   24.3420   33.8500 N   0  0  0  0  0  0  0  0  0  0  0  0
   36.6680   23.1000   31.0020 H   0  0  0  0  0  0  0  0  0  0  0  0
   36.7300   21.0210   32.3310 H   0  0  0  0  0  0  0  0  0  0  0  0
   36.2410   26.3150   31.5100 C   0  0  0  0  0  0  0  0  0  0  0  0
   37.3960   25.5880   31.7970 C   0  0  0  0  0  0  0  0  0  0  0  0
   38.6010   26.0890   31.2980 C   0  0  0  0  0  0  0  0  0  0  0  0
   38.6010   27.2280   30.5790 N   0  0  0  0  0  0  0  0  0  0  0  0
   37.4430   27.9100   30.3230 C   0  0  0  0  0  0  0  0  0  0  0  0
   36.2550   27.4420   30.7970 N   0  0  0  0  0  0  0  0  0  0  0  0
   35.3630   25.8450   31.9400 H   0  0  0  0  0  0  0  0  0  0  0  0
   39.5680   25.6060   31.4580 H   0  0  0  0  0  0  0  0  0  0  0  0
   37.3840   28.8260   29.7540 H   0  0  0  0  0  0  0  0  0  0  0  0
   39.5880   22.7630   36.2780 C   0  0  0  0  0  0  0  0  0  0  0  0
   38.3400   23.2040   35.9170 C   0  0  0  0  0  0  0  0  0  0  0  0
   37.5740   23.6660   36.9670 C   0  0  0  0  0  0  0  0  0  0  0  0
   36.5750   24.0350   36.7860 H   0  0  0  0  0  0  0  0  0  0  0  0
   37.9740   23.7060   38.2850 C   0  0  0  0  0  0  0  0  0  0  0  0
   37.3640   24.0700   39.0890 H   0  0  0  0  0  0  0  0  0  0  0  0
   39.2590   23.2440   38.5920 C   0  0  0  0  0  3  0  0  0  0  0  0
   40.0620   22.7710   37.5730 C   0  0  0  0  0  3  0  0  0  0  0  0
   41.1800   21.8420   34.4090 N   0  0  0  0  0  0  0  0  0  0  0  0
   40.4630   22.2600   35.2380 C   0  0  0  0  0  0  0  0  0  0  0  0
  1  6  1  0  0  0  0
  2  1  2  0  0  0  0
  2  3  1  0  0  0  0
  3  4  2  0  0  0  0
  4  5  1  0  0  0  0
  5 19  1  0  0  0  0
  6  5  2  0  0  0  0
  7  2  1  0  0  0  0
  8  3  1  0  0  0  0
  9 10  1  0  0  0  0
  9 15  1  0  0  0  0
 10  1  1  0  0  0  0
 11 16  1  0  0  0  0
 11 10  2  0  0  0  0
 12 11  1  0  0  0  0
 13 12  2  0  0  0  0
 13 14  1  0  0  0  0
 14  9  2  0  0  0  0
 17 13  1  0  0  0  0
 18 25  1  0  0  0  0
 19 18  2  0  0  0  0
 19 20  1  0  0  0  0
 20 22  2  0  0  0  0
 21 20  1  0  0  0  0
 22 24  1  0  0  0  0
 22 23  1  0  0  0  0
 25 24  2  0  0  0  0
 26 27  3  0  0  0  0
 27 18  1  0  0  0  0
M  END
>  <minimizedAffinity>
-4.73590326

$$$$

 OpenBabel03272502123D

 27 29  0  0  0  0  0  0  0  0999 V2000
   36.2420   28.8700   32.6270 C   0  0  0  0  0  0  0  0  0  0  0  0
   35.9960   29.6670   31.5280 C   0  0  0  0  0  0  0  0  0  0  0  0
   35.1000   30.7420   31.5380 C   0  0  0  0  0  0  0  0  0  0  0  0
   34.4540   30.9900   32.7020 N   0  0  0  0  0  0  0  0  0  0  0  0
   34.6910   30.2150   33.7700 C   0  0  0  0  0  0  0  0  0  0  0  0
   35.5580   29.1770   33.7570 N   0  0  0  0  0  0  0  0  0  0  0  0
   36.5110   29.4770   30.5840 H   0  0  0  0  0  0  0  0  0  0  0  0
   34.9140   31.3550   30.6840 H   0  0  0  0  0  0  0  0  0  0  0  0
   38.2240   27.6540   31.6710 C   0  0  0  0  0  0  0  0  0  0  0  0
   37.1730   27.7670   32.5810 C   0  0  0  0  0  0  0  0  0  0  0  0
   37.0230   26.7330   33.5080 C   0  0  0  0  0  0  0  0  0  0  0  0
   37.8790   25.6920   33.4870 N   0  0  0  0  0  0  0  0  0  0  0  0
   38.8960   25.6220   32.5760 C   0  0  0  0  0  0  0  0  0  0  0  0
   39.0630   26.6180   31.6610 N   0  0  0  0  0  0  0  0  0  0  0  0
   38.2540   28.5040   30.9970 H   0  0  0  0  0  0  0  0  0  0  0  0
   36.2380   26.7120   34.2680 H   0  0  0  0  0  0  0  0  0  0  0  0
   39.6100   24.8140   32.5140 H   0  0  0  0  0  0  0  0  0  0  0  0
   34.4190   31.4490   35.8970 C   0  0  0  0  0  0  0  0  0  0  0  0
   33.9810   30.5080   35.0000 C   0  0  0  0  0  0  0  0  0  0  0  0
   32.8160   29.8690   35.3700 C   0  0  0  0  0  0  0  0  0  0  0  0
   32.3900   29.1110   34.7300 H   0  0  0  0  0  0  0  0  0  0  0  0
   32.1080   30.1140   36.5260 C   0  0  0  0  0  0  0  0  0  0  0  0
   31.2020   29.6070   36.7960 H   0  0  0  0  0  0  0  0  0  0  0  0
   32.6040   31.0870   37.4020 C   0  0  0  0  0  3  0  0  0  0  0  0
   33.7680   31.7520   37.0740 C   0  0  0  0  0  3  0  0  0  0  0  0
   36.6350   32.7420   35.3520 N   0  0  0  0  0  0  0  0  0  0  0  0
   35.6390   32.1710   35.5900 C   0  0  0  0  0  0  0  0  0  0  0  0
  1  6  1  0  0  0  0
  2  3  1  0  0  0  0
  2  1  2  0  0  0  0
  3  4  2  0  0  0  0
  4  5  1  0  0  0  0
  5 19  1  0  0  0  0
  6  5  2  0  0  0  0
  7  2  1  0  0  0  0
  8  3  1  0  0  0  0
  9 10  1  0  0  0  0
 10  1  1  0  0  0  0
 10 11  2  0  0  0  0
 11 16  1  0  0  0  0
 12 11  1  0  0  0  0
 13 12  2  0  0  0  0
 14  9  2  0  0  0  0
 14 13  1  0  0  0  0
 15  9  1  0  0  0  0
 17 13  1  0  0  0  0
 18 25  1  0  0  0  0
 19 20  1  0  0  0  0
 19 18  2  0  0  0  0
 20 22  2  0  0  0  0
 21 20  1  0  0  0  0
 22 23  1  0  0  0  0
 22 24  1  0  0  0  0
 25 24  2  0  0  0  0
 26 27  3  0  0  0  0
 27 18  1  0  0  0  0
M  END
>  <minimizedAffinity>
-4.71522236

$$$$

 OpenBabel03272502123D

 27 29  0  0  0  0  0  0  0  0999 V2000
   38.2280   25.7120   33.2350 C   0  0  0  0  0  0  0  0  0  0  0  0
   38.9510   26.8860   33.2060 C   0  0  0  0  0  0  0  0  0  0  0  0
   40.0760   27.1200   34.0050 C   0  0  0  0  0  0  0  0  0  0  0  0
   40.4510   26.1250   34.8420 N   0  0  0  0  0  0  0  0  0  0  0  0
   39.7480   24.9830   34.8710 C   0  0  0  0  0  0  0  0  0  0  0  0
   38.6620   24.7600   34.0970 N   0  0  0  0  0  0  0  0  0  0  0  0
   38.6590   27.6970   32.5350 H   0  0  0  0  0  0  0  0  0  0  0  0
   40.6330   28.0320   33.9780 H   0  0  0  0  0  0  0  0  0  0  0  0
   36.6060   24.2560   31.9810 C   0  0  0  0  0  0  0  0  0  0  0  0
   37.0710   25.5040   32.3960 C   0  0  0  0  0  0  0  0  0  0  0  0
   36.3560   26.6230   31.9620 C   0  0  0  0  0  0  0  0  0  0  0  0
   35.2730   26.4570   31.1790 N   0  0  0  0  0  0  0  0  0  0  0  0
   34.8520   25.2130   30.7960 C   0  0  0  0  0  0  0  0  0  0  0  0
   35.5320   24.1060   31.2050 N   0  0  0  0  0  0  0  0  0  0  0  0
   37.2270   23.4560   32.3700 H   0  0  0  0  0  0  0  0  0  0  0  0
   36.6250   27.6500   32.2230 H   0  0  0  0  0  0  0  0  0  0  0  0
   33.9920   25.0220   30.1710 H   0  0  0  0  0  0  0  0  0  0  0  0
   41.2970   23.1780   35.5520 C   0  0  0  0  0  0  0  0  0  0  0  0
   40.1770   23.9370   35.7790 C   0  0  0  0  0  0  0  0  0  0  0  0
   39.5000   23.6190   36.9390 C   0  0  0  0  0  0  0  0  0  0  0  0
   38.6050   24.1610   37.2070 H   0  0  0  0  0  0  0  0  0  0  0  0
   39.8700   22.6360   37.8300 C   0  0  0  0  0  0  0  0  0  0  0  0
   39.3310   22.4040   38.7270 H   0  0  0  0  0  0  0  0  0  0  0  0
   41.0220   21.8950   37.5450 C   0  0  0  0  0  3  0  0  0  0  0  0
   41.7320   22.1770   36.3950 C   0  0  0  0  0  3  0  0  0  0  0  0
   42.7070   23.6400   33.3900 N   0  0  0  0  0  0  0  0  0  0  0  0
   42.0710   23.4430   34.3550 C   0  0  0  0  0  0  0  0  0  0  0  0
  1  6  1  0  0  0  0
  2  1  2  0  0  0  0
  2  3  1  0  0  0  0
  3  4  2  0  0  0  0
  4  5  1  0  0  0  0
  5 19  1  0  0  0  0
  6  5  2  0  0  0  0
  7  2  1  0  0  0  0
  8  3  1  0  0  0  0
  9 15  1  0  0  0  0
  9 10  1  0  0  0  0
 10  1  1  0  0  0  0
 11 16  1  0  0  0  0
 11 10  2  0  0  0  0
 12 11  1  0  0  0  0
 13 12  2  0  0  0  0
 13 14  1  0  0  0  0
 14  9  2  0  0  0  0
 17 13  1  0  0  0  0
 18 19  2  0  0  0  0
 18 25  1  0  0  0  0
 19 20  1  0  0  0  0
 20 21  1  0  0  0  0
 20 22  2  0  0  0  0
 22 23  1  0  0  0  0
 24 22  1  0  0  0  0
 25 24  2  0  0  0  0
 26 27  3  0  0  0  0
 27 18  1  0  0  0  0
M  END
>  <minimizedAffinity>
-4.7104125

$$$$
