
 OpenBabel03272504463D

 31 33  0  0  0  0  0  0  0  0999 V2000
   36.2270   30.1960   30.8120 C   0  0  0  0  0  0  0  0  0  0  0  0
   36.3180   28.8150   30.7470 C   0  0  0  0  0  0  0  0  0  0  0  0
   36.0020   27.9610   31.7920 C   0  0  0  0  0  0  0  0  0  0  0  0
   35.5840   28.5980   32.9070 N   0  0  0  0  0  0  0  0  0  0  0  0
   35.4870   29.9360   32.9950 C   0  0  0  0  0  0  0  0  0  0  0  0
   35.7950   30.7210   31.9850 N   0  0  0  0  0  0  0  0  0  0  0  0
   36.4920   30.7920   29.9560 H   0  0  0  0  0  0  0  0  0  0  0  0
   38.4970   26.9150   32.9750 Cl  0  0  0  0  0  0  0  0  0  0  0  0
   37.2460   25.9410   32.2390 C   0  0  0  0  0  0  0  0  0  0  0  0
   36.1030   26.5200   31.7070 C   0  0  0  0  0  0  0  0  0  0  0  0
   35.1770   25.6820   31.1520 C   0  0  0  0  0  0  0  0  0  0  0  0
   35.3390   24.3090   31.1050 C   0  0  0  0  0  0  0  0  0  0  0  0
   36.5120   23.7670   31.6560 C   0  0  0  0  0  0  0  0  0  0  0  0
   36.6660   22.0400   31.5720 Cl  0  0  0  0  0  0  0  0  0  0  0  0
   37.4710   24.5750   32.2250 C   0  0  0  0  0  0  0  0  0  0  0  0
   34.2910   26.1570   30.7420 H   0  0  0  0  0  0  0  0  0  0  0  0
   34.5850   23.6680   30.6570 H   0  0  0  0  0  0  0  0  0  0  0  0
   38.3700   24.1410   32.6460 H   0  0  0  0  0  0  0  0  0  0  0  0
   33.6740   30.4710   34.6120 C   0  0  0  0  0  0  0  0  0  0  0  0
   35.0230   30.5200   34.2530 C   0  0  0  0  0  0  0  0  0  0  0  0
   35.8860   31.1400   35.1330 C   0  0  0  0  0  0  0  0  0  0  0  0
   36.9280   31.1510   34.8030 H   0  0  0  0  0  0  0  0  0  0  0  0
   35.4070   31.6770   36.3060 C   0  0  0  0  0  0  0  0  0  0  0  0
   36.1530   32.1510   36.9500 H   0  0  0  0  0  0  0  0  0  0  0  0
   34.0840   31.6160   36.6330 C   0  0  0  0  0  3  0  0  0  0  0  0
   33.1760   31.0080   35.7920 C   0  0  0  0  0  3  0  0  0  0  0  0
   31.9530   29.3190   33.0540 N   0  0  0  0  0  0  0  0  0  0  0  0
   32.7300   29.8450   33.7480 C   0  0  0  0  0  0  0  0  0  0  0  0
   36.7730   28.2490   29.5130 N   0  0  0  0  0  0  0  0  0  0  0  0
   36.3880   28.3900   28.5320 H   0  0  0  0  0  0  0  0  0  0  0  0
   37.5960   27.6250   29.6710 H   0  0  0  0  0  0  0  0  0  0  0  0
  1  6  1  0  0  0  0
  2  1  2  0  0  0  0
  2  3  1  0  0  0  0
  3  4  2  0  0  0  0
  4  5  1  0  0  0  0
  5 20  1  0  0  0  0
  6  5  2  0  0  0  0
  7  1  1  0  0  0  0
  9  8  1  0  0  0  0
 10  3  1  0  0  0  0
 10  9  2  0  0  0  0
 11 10  1  0  0  0  0
 12 11  2  0  0  0  0
 12 13  1  0  0  0  0
 13 15  2  0  0  0  0
 14 13  1  0  0  0  0
 15  9  1  0  0  0  0
 15 18  1  0  0  0  0
 16 11  1  0  0  0  0
 17 12  1  0  0  0  0
 19 26  1  0  0  0  0
 20 19  2  0  0  0  0
 20 21  1  0  0  0  0
 21 23  2  0  0  0  0
 22 21  1  0  0  0  0
 23 25  1  0  0  0  0
 23 24  1  0  0  0  0
 26 25  2  0  0  0  0
 27 28  3  0  0  0  0
 28 19  1  0  0  0  0
 29 31  1  0  0  0  0
 29  2  1  0  0  0  0
 30 29  1  0  0  0  0
M  END
>  <minimizedAffinity>
-6.20263147

$$$$

 OpenBabel03272504463D

 31 33  0  0  0  0  0  0  0  0999 V2000
   37.8230   25.4190   32.6630 C   0  0  0  0  0  0  0  0  0  0  0  0
   37.6710   24.3080   31.8480 C   0  0  0  0  0  0  0  0  0  0  0  0
   37.7770   22.9970   32.2860 C   0  0  0  0  0  0  0  0  0  0  0  0
   38.0430   22.8860   33.6050 N   0  0  0  0  0  0  0  0  0  0  0  0
   38.1950   23.9470   34.4170 C   0  0  0  0  0  0  0  0  0  0  0  0
   38.0890   25.1800   33.9700 N   0  0  0  0  0  0  0  0  0  0  0  0
   37.7260   26.4070   32.2470 H   0  0  0  0  0  0  0  0  0  0  0  0
   35.0610   21.8440   32.4040 Cl  0  0  0  0  0  0  0  0  0  0  0  0
   36.3690   21.2410   31.4130 C   0  0  0  0  0  0  0  0  0  0  0  0
   37.6160   21.8480   31.4220 C   0  0  0  0  0  0  0  0  0  0  0  0
   38.5800   21.3100   30.6150 C   0  0  0  0  0  0  0  0  0  0  0  0
   38.3570   20.2080   29.8110 C   0  0  0  0  0  0  0  0  0  0  0  0
   37.0790   19.6250   29.8350 C   0  0  0  0  0  0  0  0  0  0  0  0
   36.8510   18.2450   28.8080 Cl  0  0  0  0  0  0  0  0  0  0  0  0
   36.0780   20.1350   30.6330 C   0  0  0  0  0  0  0  0  0  0  0  0
   39.5480   21.8020   30.6380 H   0  0  0  0  0  0  0  0  0  0  0  0
   39.1430   19.8020   29.1810 H   0  0  0  0  0  0  0  0  0  0  0  0
   35.0980   19.6750   30.6390 H   0  0  0  0  0  0  0  0  0  0  0  0
   39.6920   23.1330   36.2280 C   0  0  0  0  0  0  0  0  0  0  0  0
   38.4830   23.7090   35.8300 C   0  0  0  0  0  0  0  0  0  0  0  0
   37.5850   24.0380   36.8250 C   0  0  0  0  0  0  0  0  0  0  0  0
   36.6570   24.4840   36.4590 H   0  0  0  0  0  0  0  0  0  0  0  0
   37.8970   23.7970   38.1430 C   0  0  0  0  0  0  0  0  0  0  0  0
   37.1340   24.0850   38.8710 H   0  0  0  0  0  0  0  0  0  0  0  0
   39.0860   23.2330   38.5060 C   0  0  0  0  0  3  0  0  0  0  0  0
   40.0200   22.8840   37.5540 C   0  0  0  0  0  3  0  0  0  0  0  0
   41.4650   22.4600   34.4630 N   0  0  0  0  0  0  0  0  0  0  0  0
   40.6630   22.7700   35.2510 C   0  0  0  0  0  0  0  0  0  0  0  0
   37.3900   24.5480   30.4650 N   0  0  0  0  0  0  0  0  0  0  0  0
   36.6050   25.1210   30.0330 H   0  0  0  0  0  0  0  0  0  0  0  0
   38.0870   24.0660   29.8540 H   0  0  0  0  0  0  0  0  0  0  0  0
  1  6  1  0  0  0  0
  2  3  1  0  0  0  0
  2  1  2  0  0  0  0
  3  4  2  0  0  0  0
  4  5  1  0  0  0  0
  5 20  1  0  0  0  0
  6  5  2  0  0  0  0
  7  1  1  0  0  0  0
  9 10  1  0  0  0  0
  9  8  1  0  0  0  0
 10  3  1  0  0  0  0
 11 16  1  0  0  0  0
 11 10  2  0  0  0  0
 12 13  2  0  0  0  0
 12 11  1  0  0  0  0
 13 15  1  0  0  0  0
 14 13  1  0  0  0  0
 15 18  1  0  0  0  0
 15  9  2  0  0  0  0
 17 12  1  0  0  0  0
 19 26  1  0  0  0  0
 20 19  2  0  0  0  0
 20 21  1  0  0  0  0
 21 23  2  0  0  0  0
 22 21  1  0  0  0  0
 23 25  1  0  0  0  0
 23 24  1  0  0  0  0
 26 25  2  0  0  0  0
 27 28  3  0  0  0  0
 28 19  1  0  0  0  0
 29  2  1  0  0  0  0
 30 29  1  0  0  0  0
 31 29  1  0  0  0  0
M  END
>  <minimizedAffinity>
-5.64191294

$$$$

 OpenBabel03272504463D

 31 33  0  0  0  0  0  0  0  0999 V2000
   35.8940   29.8120   30.7800 C   0  0  0  0  0  0  0  0  0  0  0  0
   36.3790   28.5170   30.8750 C   0  0  0  0  0  0  0  0  0  0  0  0
   36.4360   27.7880   32.0530 C   0  0  0  0  0  0  0  0  0  0  0  0
   35.9680   28.4580   33.1280 N   0  0  0  0  0  0  0  0  0  0  0  0
   35.4920   29.7130   33.0630 C   0  0  0  0  0  0  0  0  0  0  0  0
   35.4510   30.3790   31.9290 N   0  0  0  0  0  0  0  0  0  0  0  0
   35.8820   30.3120   29.8270 H   0  0  0  0  0  0  0  0  0  0  0  0
   34.4790   25.7680   31.1570 Cl  0  0  0  0  0  0  0  0  0  0  0  0
   36.0930   25.4210   31.7330 C   0  0  0  0  0  0  0  0  0  0  0  0
   36.9470   26.4370   32.1350 C   0  0  0  0  0  0  0  0  0  0  0  0
   38.1900   26.0740   32.5710 C   0  0  0  0  0  0  0  0  0  0  0  0
   38.6140   24.7590   32.6220 C   0  0  0  0  0  0  0  0  0  0  0  0
   37.7150   23.7630   32.2050 C   0  0  0  0  0  0  0  0  0  0  0  0
   38.2960   22.1290   32.2900 Cl  0  0  0  0  0  0  0  0  0  0  0  0
   36.4530   24.0840   31.7590 C   0  0  0  0  0  0  0  0  0  0  0  0
   38.8410   26.8860   32.8800 H   0  0  0  0  0  0  0  0  0  0  0  0
   39.6090   24.5010   32.9740 H   0  0  0  0  0  0  0  0  0  0  0  0
   35.7720   23.3040   31.4410 H   0  0  0  0  0  0  0  0  0  0  0  0
   33.6720   30.2360   34.6740 C   0  0  0  0  0  0  0  0  0  0  0  0
   35.0110   30.3420   34.2920 C   0  0  0  0  0  0  0  0  0  0  0  0
   35.8470   31.0620   35.1210 C   0  0  0  0  0  0  0  0  0  0  0  0
   36.8820   31.1140   34.7750 H   0  0  0  0  0  0  0  0  0  0  0  0
   35.3520   31.6380   36.2680 C   0  0  0  0  0  0  0  0  0  0  0  0
   36.0760   32.1910   36.8720 H   0  0  0  0  0  0  0  0  0  0  0  0
   34.0380   31.5190   36.6190 C   0  0  0  0  0  3  0  0  0  0  0  0
   33.1580   30.8120   35.8290 C   0  0  0  0  0  3  0  0  0  0  0  0
   32.0140   28.9160   33.1830 N   0  0  0  0  0  0  0  0  0  0  0  0
   32.7550   29.5060   33.8630 C   0  0  0  0  0  0  0  0  0  0  0  0
   36.8490   27.9070   29.6680 N   0  0  0  0  0  0  0  0  0  0  0  0
   36.3400   27.7760   28.7440 H   0  0  0  0  0  0  0  0  0  0  0  0
   37.8300   27.5660   29.7810 H   0  0  0  0  0  0  0  0  0  0  0  0
  1  2  2  0  0  0  0
  1  6  1  0  0  0  0
  2  3  1  0  0  0  0
  3 10  1  0  0  0  0
  3  4  2  0  0  0  0
  5  4  1  0  0  0  0
  5 20  1  0  0  0  0
  6  5  2  0  0  0  0
  7  1  1  0  0  0  0
  8  9  1  0  0  0  0
  9 15  2  0  0  0  0
  9 10  1  0  0  0  0
 10 11  2  0  0  0  0
 11 12  1  0  0  0  0
 11 16  1  0  0  0  0
 12 17  1  0  0  0  0
 13 14  1  0  0  0  0
 13 12  2  0  0  0  0
 15 13  1  0  0  0  0
 18 15  1  0  0  0  0
 19 26  1  0  0  0  0
 20 19  2  0  0  0  0
 20 21  1  0  0  0  0
 21 23  2  0  0  0  0
 22 21  1  0  0  0  0
 23 25  1  0  0  0  0
 23 24  1  0  0  0  0
 26 25  2  0  0  0  0
 27 28  3  0  0  0  0
 28 19  1  0  0  0  0
 29 31  1  0  0  0  0
 29  2  1  0  0  0  0
 30 29  1  0  0  0  0
M  END
>  <minimizedAffinity>
-5.64089727

$$$$

 OpenBabel03272504463D

 31 33  0  0  0  0  0  0  0  0999 V2000
   36.5420   29.3920   30.4650 C   0  0  0  0  0  0  0  0  0  0  0  0
   36.0550   30.0510   31.5830 C   0  0  0  0  0  0  0  0  0  0  0  0
   35.6400   29.4180   32.7440 C   0  0  0  0  0  0  0  0  0  0  0  0
   35.7550   28.0740   32.7000 N   0  0  0  0  0  0  0  0  0  0  0  0
   36.2240   27.4110   31.6290 C   0  0  0  0  0  0  0  0  0  0  0  0
   36.6100   28.0410   30.5400 N   0  0  0  0  0  0  0  0  0  0  0  0
   36.8450   29.9550   29.5990 H   0  0  0  0  0  0  0  0  0  0  0  0
   32.6900   29.4970   32.8380 Cl  0  0  0  0  0  0  0  0  0  0  0  0
   33.7550   30.2080   34.0280 C   0  0  0  0  0  0  0  0  0  0  0  0
   35.1330   30.1220   33.9020 C   0  0  0  0  0  0  0  0  0  0  0  0
   35.8890   30.7070   34.8790 C   0  0  0  0  0  0  0  0  0  0  0  0
   35.3360   31.3660   35.9630 C   0  0  0  0  0  0  0  0  0  0  0  0
   33.9350   31.4280   36.0490 C   0  0  0  0  0  0  0  0  0  0  0  0
   33.2930   32.2660   37.4270 Cl  0  0  0  0  0  0  0  0  0  0  0  0
   33.1370   30.8520   35.0860 C   0  0  0  0  0  0  0  0  0  0  0  0
   36.9650   30.6270   34.7610 H   0  0  0  0  0  0  0  0  0  0  0  0
   35.9630   31.8210   36.7240 H   0  0  0  0  0  0  0  0  0  0  0  0
   32.0580   30.9090   35.1670 H   0  0  0  0  0  0  0  0  0  0  0  0
   37.3880   25.3190   32.3020 C   0  0  0  0  0  0  0  0  0  0  0  0
   36.3040   25.9520   31.6910 C   0  0  0  0  0  0  0  0  0  0  0  0
   35.3240   25.1430   31.1530 C   0  0  0  0  0  0  0  0  0  0  0  0
   34.5000   25.6890   30.6870 H   0  0  0  0  0  0  0  0  0  0  0  0
   35.4390   23.7740   31.2330 C   0  0  0  0  0  0  0  0  0  0  0  0
   34.6230   23.2030   30.7840 H   0  0  0  0  0  0  0  0  0  0  0  0
   36.5090   23.1800   31.8370 C   0  0  0  0  0  3  0  0  0  0  0  0
   37.5180   23.9390   32.3910 C   0  0  0  0  0  3  0  0  0  0  0  0
   39.2930   26.7430   33.3320 N   0  0  0  0  0  0  0  0  0  0  0  0
   38.4350   26.0960   32.8780 C   0  0  0  0  0  0  0  0  0  0  0  0
   35.9790   31.4800   31.5160 N   0  0  0  0  0  0  0  0  0  0  0  0
   36.7480   32.1790   31.2900 H   0  0  0  0  0  0  0  0  0  0  0  0
   35.0120   31.8110   31.7280 H   0  0  0  0  0  0  0  0  0  0  0  0
  1  6  2  0  0  0  0
  1  2  1  0  0  0  0
  2  3  2  0  0  0  0
  3 10  1  0  0  0  0
  4  3  1  0  0  0  0
  5 20  1  0  0  0  0
  5  4  2  0  0  0  0
  6  5  1  0  0  0  0
  7  1  1  0  0  0  0
  8  9  1  0  0  0  0
  9 15  1  0  0  0  0
 10  9  2  0  0  0  0
 10 11  1  0  0  0  0
 11 12  2  0  0  0  0
 12 13  1  0  0  0  0
 12 17  1  0  0  0  0
 13 14  1  0  0  0  0
 15 18  1  0  0  0  0
 15 13  2  0  0  0  0
 16 11  1  0  0  0  0
 19 26  1  0  0  0  0
 19 28  1  0  0  0  0
 20 19  2  0  0  0  0
 21 23  2  0  0  0  0
 21 20  1  0  0  0  0
 22 21  1  0  0  0  0
 23 25  1  0  0  0  0
 24 23  1  0  0  0  0
 25 26  2  0  0  0  0
 28 27  3  0  0  0  0
 29  2  1  0  0  0  0
 29 31  1  0  0  0  0
 30 29  1  0  0  0  0
M  END
>  <minimizedAffinity>
-5.53532982

$$$$

 OpenBabel03272504463D

 31 33  0  0  0  0  0  0  0  0999 V2000
   35.5360   28.4070   32.0560 C   0  0  0  0  0  0  0  0  0  0  0  0
   35.1710   29.4540   32.8890 C   0  0  0  0  0  0  0  0  0  0  0  0
   35.6150   29.6050   34.1930 C   0  0  0  0  0  0  0  0  0  0  0  0
   36.4530   28.6280   34.5980 N   0  0  0  0  0  0  0  0  0  0  0  0
   36.8220   27.6030   33.8110 C   0  0  0  0  0  0  0  0  0  0  0  0
   36.3840   27.4860   32.5760 N   0  0  0  0  0  0  0  0  0  0  0  0
   35.1490   28.3590   31.0530 H   0  0  0  0  0  0  0  0  0  0  0  0
   32.9230   29.2530   35.3550 Cl  0  0  0  0  0  0  0  0  0  0  0  0
   33.9710   30.6230   35.6390 C   0  0  0  0  0  0  0  0  0  0  0  0
   35.2230   30.7050   35.0490 C   0  0  0  0  0  0  0  0  0  0  0  0
   35.9750   31.8110   35.3270 C   0  0  0  0  0  0  0  0  0  0  0  0
   35.5380   32.8280   36.1570 C   0  0  0  0  0  0  0  0  0  0  0  0
   34.2630   32.7030   36.7320 C   0  0  0  0  0  0  0  0  0  0  0  0
   33.7620   34.0040   37.7650 Cl  0  0  0  0  0  0  0  0  0  0  0  0
   33.4720   31.6040   36.4790 C   0  0  0  0  0  0  0  0  0  0  0  0
   36.9520   31.8540   34.8540 H   0  0  0  0  0  0  0  0  0  0  0  0
   36.1590   33.6960   36.3590 H   0  0  0  0  0  0  0  0  0  0  0  0
   32.4910   31.5220   36.9310 H   0  0  0  0  0  0  0  0  0  0  0  0
   38.9470   26.3140   33.7200 C   0  0  0  0  0  0  0  0  0  0  0  0
   37.7360   26.5990   34.3550 C   0  0  0  0  0  0  0  0  0  0  0  0
   37.4470   25.8950   35.5050 C   0  0  0  0  0  0  0  0  0  0  0  0
   36.4890   26.1560   35.9600 H   0  0  0  0  0  0  0  0  0  0  0  0
   38.3360   24.9580   35.9820 C   0  0  0  0  0  0  0  0  0  0  0  0
   38.0360   24.4420   36.8980 H   0  0  0  0  0  0  0  0  0  0  0  0
   39.5140   24.6990   35.3430 C   0  0  0  0  0  3  0  0  0  0  0  0
   39.8540   25.3730   34.1890 C   0  0  0  0  0  3  0  0  0  0  0  0
   39.5910   27.5600   31.5410 N   0  0  0  0  0  0  0  0  0  0  0  0
   39.3060   27.0070   32.5280 C   0  0  0  0  0  0  0  0  0  0  0  0
   34.2760   30.4330   32.3500 N   0  0  0  0  0  0  0  0  0  0  0  0
   34.3760   31.0140   31.4650 H   0  0  0  0  0  0  0  0  0  0  0  0
   33.4340   30.5420   32.9590 H   0  0  0  0  0  0  0  0  0  0  0  0
  1  6  2  0  0  0  0
  1  2  1  0  0  0  0
  2  3  2  0  0  0  0
  3  4  1  0  0  0  0
  3 10  1  0  0  0  0
  5 20  1  0  0  0  0
  5  4  2  0  0  0  0
  6  5  1  0  0  0  0
  7  1  1  0  0  0  0
  8  9  1  0  0  0  0
  9 15  1  0  0  0  0
 10 11  1  0  0  0  0
 10  9  2  0  0  0  0
 11 12  2  0  0  0  0
 12 17  1  0  0  0  0
 12 13  1  0  0  0  0
 13 14  1  0  0  0  0
 15 13  2  0  0  0  0
 15 18  1  0  0  0  0
 16 11  1  0  0  0  0
 19 26  2  0  0  0  0
 19 20  1  0  0  0  0
 20 21  2  0  0  0  0
 21 22  1  0  0  0  0
 21 23  1  0  0  0  0
 23 24  1  0  0  0  0
 25 23  2  0  0  0  0
 26 25  1  0  0  0  0
 27 28  3  0  0  0  0
 28 19  1  0  0  0  0
 29  2  1  0  0  0  0
 29 31  1  0  0  0  0
 30 29  1  0  0  0  0
M  END
>  <minimizedAffinity>
-5.47693443

$$$$

 OpenBabel03272504463D

 31 33  0  0  0  0  0  0  0  0999 V2000
   39.4300   24.5080   31.7840 C   0  0  0  0  0  0  0  0  0  0  0  0
   38.8060   25.7150   32.0620 C   0  0  0  0  0  0  0  0  0  0  0  0
   37.4760   25.8400   32.4310 C   0  0  0  0  0  0  0  0  0  0  0  0
   36.8210   24.6610   32.5030 N   0  0  0  0  0  0  0  0  0  0  0  0
   37.4020   23.4790   32.2390 C   0  0  0  0  0  0  0  0  0  0  0  0
   38.6680   23.3930   31.8900 N   0  0  0  0  0  0  0  0  0  0  0  0
   40.4690   24.4940   31.5030 H   0  0  0  0  0  0  0  0  0  0  0  0
   37.5300   26.5270   35.3020 Cl  0  0  0  0  0  0  0  0  0  0  0  0
   36.8190   27.5110   34.0440 C   0  0  0  0  0  0  0  0  0  0  0  0
   36.8400   27.1070   32.7170 C   0  0  0  0  0  0  0  0  0  0  0  0
   36.2610   27.9390   31.8000 C   0  0  0  0  0  0  0  0  0  0  0  0
   35.6700   29.1410   32.1440 C   0  0  0  0  0  0  0  0  0  0  0  0
   35.6720   29.5090   33.5000 C   0  0  0  0  0  0  0  0  0  0  0  0
   34.9170   31.0260   33.8790 Cl  0  0  0  0  0  0  0  0  0  0  0  0
   36.2440   28.7010   34.4570 C   0  0  0  0  0  0  0  0  0  0  0  0
   36.2900   27.6030   30.7680 H   0  0  0  0  0  0  0  0  0  0  0  0
   35.2170   29.7810   31.3920 H   0  0  0  0  0  0  0  0  0  0  0  0
   36.2370   28.9990   35.4980 H   0  0  0  0  0  0  0  0  0  0  0  0
   36.6160   21.4920   33.5110 C   0  0  0  0  0  0  0  0  0  0  0  0
   36.5950   22.2640   32.3470 C   0  0  0  0  0  0  0  0  0  0  0  0
   35.7860   21.8300   31.3170 C   0  0  0  0  0  0  0  0  0  0  0  0
   35.8080   22.4700   30.4320 H   0  0  0  0  0  0  0  0  0  0  0  0
   35.0430   20.6810   31.4620 C   0  0  0  0  0  0  0  0  0  0  0  0
   34.4280   20.4030   30.6020 H   0  0  0  0  0  0  0  0  0  0  0  0
   35.0810   19.9440   32.6100 C   0  0  0  0  0  3  0  0  0  0  0  0
   35.8720   20.3300   33.6710 C   0  0  0  0  0  3  0  0  0  0  0  0
   38.0810   22.2100   35.5240 N   0  0  0  0  0  0  0  0  0  0  0  0
   37.4300   21.8850   34.6120 C   0  0  0  0  0  0  0  0  0  0  0  0
   39.6020   26.9000   31.9530 N   0  0  0  0  0  0  0  0  0  0  0  0
   40.5250   27.1310   32.4290 H   0  0  0  0  0  0  0  0  0  0  0  0
   39.1580   27.5890   31.3060 H   0  0  0  0  0  0  0  0  0  0  0  0
  1  6  2  0  0  0  0
  1  2  1  0  0  0  0
  2  3  2  0  0  0  0
  3  4  1  0  0  0  0
  3 10  1  0  0  0  0
  5 20  1  0  0  0  0
  5  4  2  0  0  0  0
  6  5  1  0  0  0  0
  7  1  1  0  0  0  0
  9 15  1  0  0  0  0
  9  8  1  0  0  0  0
 10  9  2  0  0  0  0
 11 12  2  0  0  0  0
 11 10  1  0  0  0  0
 12 13  1  0  0  0  0
 13 14  1  0  0  0  0
 13 15  2  0  0  0  0
 15 18  1  0  0  0  0
 16 11  1  0  0  0  0
 17 12  1  0  0  0  0
 19 26  1  0  0  0  0
 19 28  1  0  0  0  0
 20 19  2  0  0  0  0
 21 23  2  0  0  0  0
 21 20  1  0  0  0  0
 22 21  1  0  0  0  0
 23 25  1  0  0  0  0
 24 23  1  0  0  0  0
 25 26  2  0  0  0  0
 28 27  3  0  0  0  0
 29  2  1  0  0  0  0
 29 30  1  0  0  0  0
 31 29  1  0  0  0  0
M  END
>  <minimizedAffinity>
-5.45979881

$$$$

 OpenBabel03272504463D

 31 33  0  0  0  0  0  0  0  0999 V2000
   37.2940   22.4370   32.7410 C   0  0  0  0  0  0  0  0  0  0  0  0
   37.2590   23.6780   32.1250 C   0  0  0  0  0  0  0  0  0  0  0  0
   37.5590   24.8740   32.7580 C   0  0  0  0  0  0  0  0  0  0  0  0
   37.9000   24.7290   34.0570 N   0  0  0  0  0  0  0  0  0  0  0  0
   37.9420   23.5380   34.6780 C   0  0  0  0  0  0  0  0  0  0  0  0
   37.6500   22.4190   34.0480 N   0  0  0  0  0  0  0  0  0  0  0  0
   37.0460   21.5530   32.1800 H   0  0  0  0  0  0  0  0  0  0  0  0
   40.1410   25.6220   31.5370 Cl  0  0  0  0  0  0  0  0  0  0  0  0
   38.6890   26.5950   31.4970 C   0  0  0  0  0  0  0  0  0  0  0  0
   37.5170   26.1620   32.1000 C   0  0  0  0  0  0  0  0  0  0  0  0
   36.4300   26.9860   32.0190 C   0  0  0  0  0  0  0  0  0  0  0  0
   36.4600   28.2080   31.3710 C   0  0  0  0  0  0  0  0  0  0  0  0
   37.6680   28.6050   30.7750 C   0  0  0  0  0  0  0  0  0  0  0  0
   37.6530   30.1460   29.9750 Cl  0  0  0  0  0  0  0  0  0  0  0  0
   38.7880   27.8050   30.8330 C   0  0  0  0  0  0  0  0  0  0  0  0
   35.5240   26.6270   32.4980 H   0  0  0  0  0  0  0  0  0  0  0  0
   35.5790   28.8410   31.3240 H   0  0  0  0  0  0  0  0  0  0  0  0
   39.7120   28.1260   30.3680 H   0  0  0  0  0  0  0  0  0  0  0  0
   39.5380   22.9350   36.4860 C   0  0  0  0  0  0  0  0  0  0  0  0
   38.3240   23.4990   36.0880 C   0  0  0  0  0  0  0  0  0  0  0  0
   37.5120   24.0100   37.0800 C   0  0  0  0  0  0  0  0  0  0  0  0
   36.5760   24.4380   36.7140 H   0  0  0  0  0  0  0  0  0  0  0  0
   37.9110   23.9520   38.3960 C   0  0  0  0  0  0  0  0  0  0  0  0
   37.2140   24.3780   39.1220 H   0  0  0  0  0  0  0  0  0  0  0  0
   39.1030   23.3960   38.7580 C   0  0  0  0  0  3  0  0  0  0  0  0
   39.9540   22.8690   37.8100 C   0  0  0  0  0  3  0  0  0  0  0  0
   41.1330   21.9370   34.7040 N   0  0  0  0  0  0  0  0  0  0  0  0
   40.4230   22.3890   35.5120 C   0  0  0  0  0  0  0  0  0  0  0  0
   36.8830   23.7100   30.7430 N   0  0  0  0  0  0  0  0  0  0  0  0
   37.3080   23.1810   29.9240 H   0  0  0  0  0  0  0  0  0  0  0  0
   36.0790   24.3590   30.5910 H   0  0  0  0  0  0  0  0  0  0  0  0
  1  6  1  0  0  0  0
  2  1  2  0  0  0  0
  2  3  1  0  0  0  0
  3  4  2  0  0  0  0
  4  5  1  0  0  0  0
  5 20  1  0  0  0  0
  6  5  2  0  0  0  0
  7  1  1  0  0  0  0
  9  8  1  0  0  0  0
  9 10  1  0  0  0  0
 10  3  1  0  0  0  0
 11 10  2  0  0  0  0
 11 16  1  0  0  0  0
 12 11  1  0  0  0  0
 13 15  1  0  0  0  0
 13 12  2  0  0  0  0
 14 13  1  0  0  0  0
 15  9  2  0  0  0  0
 17 12  1  0  0  0  0
 18 15  1  0  0  0  0
 19 26  1  0  0  0  0
 20 19  2  0  0  0  0
 20 21  1  0  0  0  0
 21 23  2  0  0  0  0
 22 21  1  0  0  0  0
 23 25  1  0  0  0  0
 23 24  1  0  0  0  0
 26 25  2  0  0  0  0
 27 28  3  0  0  0  0
 28 19  1  0  0  0  0
 29  2  1  0  0  0  0
 30 29  1  0  0  0  0
 31 29  1  0  0  0  0
M  END
>  <minimizedAffinity>
-5.43141747

$$$$

 OpenBabel03272504463D

 31 33  0  0  0  0  0  0  0  0999 V2000
   35.8280   28.0760   32.1000 C   0  0  0  0  0  0  0  0  0  0  0  0
   36.6150   27.1170   32.7170 C   0  0  0  0  0  0  0  0  0  0  0  0
   36.9950   27.1570   34.0500 C   0  0  0  0  0  0  0  0  0  0  0  0
   36.5210   28.2320   34.7160 N   0  0  0  0  0  0  0  0  0  0  0  0
   35.7560   29.1750   34.1410 C   0  0  0  0  0  0  0  0  0  0  0  0
   35.4130   29.1090   32.8720 N   0  0  0  0  0  0  0  0  0  0  0  0
   35.5750   27.9740   31.0580 H   0  0  0  0  0  0  0  0  0  0  0  0
   39.8490   27.3940   33.3310 Cl  0  0  0  0  0  0  0  0  0  0  0  0
   39.1760   26.1820   34.3970 C   0  0  0  0  0  0  0  0  0  0  0  0
   37.8180   26.1470   34.6790 C   0  0  0  0  0  0  0  0  0  0  0  0
   37.3790   25.1660   35.5220 C   0  0  0  0  0  0  0  0  0  0  0  0
   38.2250   24.2300   36.0900 C   0  0  0  0  0  0  0  0  0  0  0  0
   39.5920   24.3040   35.7760 C   0  0  0  0  0  0  0  0  0  0  0  0
   40.6090   23.1070   36.5150 Cl  0  0  0  0  0  0  0  0  0  0  0  0
   40.0770   25.2770   34.9310 C   0  0  0  0  0  0  0  0  0  0  0  0
   36.3130   25.1570   35.7290 H   0  0  0  0  0  0  0  0  0  0  0  0
   37.8460   23.4610   36.7580 H   0  0  0  0  0  0  0  0  0  0  0  0
   41.1340   25.3200   34.6990 H   0  0  0  0  0  0  0  0  0  0  0  0
   33.9390   30.5030   35.1990 C   0  0  0  0  0  0  0  0  0  0  0  0
   35.3000   30.2980   34.9590 C   0  0  0  0  0  0  0  0  0  0  0  0
   36.1810   31.1960   35.5240 C   0  0  0  0  0  0  0  0  0  0  0  0
   37.2310   30.9900   35.3040 H   0  0  0  0  0  0  0  0  0  0  0  0
   35.7080   32.2400   36.2870 C   0  0  0  0  0  0  0  0  0  0  0  0
   36.4680   32.9080   36.7000 H   0  0  0  0  0  0  0  0  0  0  0  0
   34.3730   32.4180   36.5060 C   0  0  0  0  0  3  0  0  0  0  0  0
   33.4470   31.5510   35.9660 C   0  0  0  0  0  3  0  0  0  0  0  0
   32.1740   28.8940   34.1950 N   0  0  0  0  0  0  0  0  0  0  0  0
   32.9760   29.6110   34.6450 C   0  0  0  0  0  0  0  0  0  0  0  0
   37.0590   26.0200   31.9110 N   0  0  0  0  0  0  0  0  0  0  0  0
   36.4820   25.3430   31.3280 H   0  0  0  0  0  0  0  0  0  0  0  0
   38.0990   25.9290   31.9450 H   0  0  0  0  0  0  0  0  0  0  0  0
  1  2  2  0  0  0  0
  1  6  1  0  0  0  0
  2  3  1  0  0  0  0
  3 10  1  0  0  0  0
  3  4  2  0  0  0  0
  5  4  1  0  0  0  0
  5 20  1  0  0  0  0
  6  5  2  0  0  0  0
  7  1  1  0  0  0  0
  8  9  1  0  0  0  0
  9 10  2  0  0  0  0
  9 15  1  0  0  0  0
 10 11  1  0  0  0  0
 11 16  1  0  0  0  0
 11 12  2  0  0  0  0
 12 17  1  0  0  0  0
 13 12  1  0  0  0  0
 13 14  1  0  0  0  0
 15 13  2  0  0  0  0
 18 15  1  0  0  0  0
 19 26  1  0  0  0  0
 20 19  2  0  0  0  0
 20 21  1  0  0  0  0
 21 23  2  0  0  0  0
 22 21  1  0  0  0  0
 23 25  1  0  0  0  0
 23 24  1  0  0  0  0
 26 25  2  0  0  0  0
 27 28  3  0  0  0  0
 28 19  1  0  0  0  0
 29 31  1  0  0  0  0
 29  2  1  0  0  0  0
 30 29  1  0  0  0  0
M  END
>  <minimizedAffinity>
-5.39529943

$$$$

 OpenBabel03272504463D

 31 33  0  0  0  0  0  0  0  0999 V2000
   39.7440   24.8740   33.0090 C   0  0  0  0  0  0  0  0  0  0  0  0
   39.0660   26.0750   33.1480 C   0  0  0  0  0  0  0  0  0  0  0  0
   37.6890   26.2090   33.0690 C   0  0  0  0  0  0  0  0  0  0  0  0
   37.0430   25.0450   32.8430 N   0  0  0  0  0  0  0  0  0  0  0  0
   37.6760   23.8680   32.7060 C   0  0  0  0  0  0  0  0  0  0  0  0
   38.9860   23.7730   32.7850 N   0  0  0  0  0  0  0  0  0  0  0  0
   40.8170   24.8520   33.0840 H   0  0  0  0  0  0  0  0  0  0  0  0
   37.2380   27.5760   30.4910 Cl  0  0  0  0  0  0  0  0  0  0  0  0
   36.7420   28.1840   32.0530 C   0  0  0  0  0  0  0  0  0  0  0  0
   36.9970   27.4720   33.2150 C   0  0  0  0  0  0  0  0  0  0  0  0
   36.5750   28.0230   34.3930 C   0  0  0  0  0  0  0  0  0  0  0  0
   35.9170   29.2380   34.4600 C   0  0  0  0  0  0  0  0  0  0  0  0
   35.6800   29.9240   33.2570 C   0  0  0  0  0  0  0  0  0  0  0  0
   34.8520   31.4430   33.3970 Cl  0  0  0  0  0  0  0  0  0  0  0  0
   36.0900   29.4050   32.0490 C   0  0  0  0  0  0  0  0  0  0  0  0
   36.7850   27.4480   35.2890 H   0  0  0  0  0  0  0  0  0  0  0  0
   35.5930   29.6500   35.4110 H   0  0  0  0  0  0  0  0  0  0  0  0
   35.8990   29.9460   31.1300 H   0  0  0  0  0  0  0  0  0  0  0  0
   36.7290   21.6920   33.4500 C   0  0  0  0  0  0  0  0  0  0  0  0
   36.8750   22.6690   32.4620 C   0  0  0  0  0  0  0  0  0  0  0  0
   36.2350   22.4490   31.2600 C   0  0  0  0  0  0  0  0  0  0  0  0
   36.3830   23.2420   30.5240 H   0  0  0  0  0  0  0  0  0  0  0  0
   35.4910   21.3060   31.0740 C   0  0  0  0  0  0  0  0  0  0  0  0
   35.0150   21.2040   30.0950 H   0  0  0  0  0  0  0  0  0  0  0  0
   35.3640   20.3670   32.0560 C   0  0  0  0  0  3  0  0  0  0  0  0
   35.9820   20.5340   33.2770 C   0  0  0  0  0  3  0  0  0  0  0  0
   37.8860   22.0130   35.7470 N   0  0  0  0  0  0  0  0  0  0  0  0
   37.3640   21.8580   34.7150 C   0  0  0  0  0  0  0  0  0  0  0  0
   39.8560   27.2460   33.3850 N   0  0  0  0  0  0  0  0  0  0  0  0
   40.5730   27.4240   34.1510 H   0  0  0  0  0  0  0  0  0  0  0  0
   39.6510   27.9840   32.6750 H   0  0  0  0  0  0  0  0  0  0  0  0
  1  7  1  0  0  0  0
  1  2  1  0  0  0  0
  2 29  1  0  0  0  0
  3  2  2  0  0  0  0
  3 10  1  0  0  0  0
  4  3  1  0  0  0  0
  5  6  1  0  0  0  0
  5  4  2  0  0  0  0
  6  1  2  0  0  0  0
  8  9  1  0  0  0  0
  9 10  1  0  0  0  0
 10 11  2  0  0  0  0
 11 12  1  0  0  0  0
 11 16  1  0  0  0  0
 12 17  1  0  0  0  0
 13 14  1  0  0  0  0
 13 12  2  0  0  0  0
 15  9  2  0  0  0  0
 15 13  1  0  0  0  0
 18 15  1  0  0  0  0
 19 28  1  0  0  0  0
 20  5  1  0  0  0  0
 20 19  2  0  0  0  0
 21 20  1  0  0  0  0
 22 21  1  0  0  0  0
 23 21  2  0  0  0  0
 23 25  1  0  0  0  0
 24 23  1  0  0  0  0
 25 26  2  0  0  0  0
 26 19  1  0  0  0  0
 28 27  3  0  0  0  0
 29 30  1  0  0  0  0
 31 29  1  0  0  0  0
M  END
>  <minimizedAffinity>
-5.38099909

$$$$
