
 OpenBabel03272502393D

 41 44  0  0  1  0  0  0  0  0999 V2000
   28.5900   29.3030   42.2340 N   0  0  0  0  0  0  0  0  0  0  0  0
   28.6220   28.1830   41.3130 C   0  0  0  0  0  0  0  0  0  0  0  0
   30.0470   27.7150   41.3890 C   0  0  0  0  0  0  0  0  0  0  0  0
   30.7900   28.8220   42.2700 C   0  0  1  0  0  0  0  0  0  0  0  0
   29.7040   29.1510   43.1920 C   0  0  0  0  0  0  0  0  0  0  0  0
   27.9010   27.3880   41.5960 H   0  0  0  0  0  0  0  0  0  0  0  0
   28.4560   28.5600   40.2870 H   0  0  0  0  0  0  0  0  0  0  0  0
   30.5760   27.6790   40.4190 H   0  0  0  0  0  0  0  0  0  0  0  0
   30.1340   26.8030   41.9800 H   0  0  0  0  0  0  0  0  0  0  0  0
   31.0390   29.5650   41.5040 H   0  0  0  0  0  0  0  0  0  0  0  0
   29.4020   28.2880   43.8150 H   0  0  0  0  0  0  0  0  0  0  0  0
   29.8310   30.0780   43.7830 H   0  0  0  0  0  0  0  0  0  0  0  0
   31.9320   29.8010   44.6810 F   0  0  0  0  0  0  0  0  0  0  0  0
   32.4210   28.7240   44.0440 C   0  0  0  0  0  0  0  0  0  0  0  0
   31.9790   28.2050   42.8590 C   0  0  0  0  0  0  0  0  0  0  0  0
   32.6270   27.0630   42.3550 C   0  0  0  0  0  0  0  0  0  0  0  0
   33.6710   26.4640   43.0110 C   0  0  0  0  0  0  0  0  0  0  0  0
   34.1060   27.0150   44.2210 C   0  0  0  0  0  0  0  0  0  0  0  0
   33.4650   28.1590   44.7320 C   0  0  0  0  0  0  0  0  0  0  0  0
   32.2190   26.7160   41.4150 H   0  0  0  0  0  0  0  0  0  0  0  0
   34.1110   25.5880   42.5550 H   0  0  0  0  0  0  0  0  0  0  0  0
   34.9280   26.5370   44.7280 H   0  0  0  0  0  0  0  0  0  0  0  0
   34.9180   29.7010   45.9030 C   0  0  0  0  0  0  0  0  0  0  0  0
   33.9950   28.6520   45.9980 C   0  0  0  0  0  0  0  0  0  0  0  0
   33.6380   28.1450   47.2410 C   0  0  0  0  0  0  0  0  0  0  0  0
   32.9190   27.3300   47.2590 H   0  0  0  0  0  0  0  0  0  0  0  0
   34.2230   28.7120   48.3570 C   0  0  0  0  0  0  0  0  0  0  0  0
   33.9270   28.2980   49.3100 H   0  0  0  0  0  0  0  0  0  0  0  0
   35.1290   29.7420   48.2600 C   0  0  0  0  0  3  0  0  0  0  0  0
   35.4960   30.2590   47.0300 C   0  0  0  0  0  3  0  0  0  0  0  0
   35.5950   30.6520   43.5660 N   0  0  0  0  0  0  0  0  0  0  0  0
   35.2910   30.2320   44.6100 C   0  0  0  0  0  0  0  0  0  0  0  0
   27.6740   30.3740   42.2440 C   0  0  0  0  0  0  0  0  0  0  0  0
   27.5800   31.1100   41.0550 C   0  0  0  0  0  0  0  0  0  0  0  0
   26.6920   32.1960   41.0030 C   0  0  0  0  0  0  0  0  0  0  0  0
   25.9670   32.4570   42.1510 N   0  0  0  0  0  0  0  0  0  0  0  0
   26.0870   31.7280   43.2700 C   0  0  0  0  0  0  0  0  0  0  0  0
   26.9460   30.6790   43.3200 N   0  0  0  0  0  0  0  0  0  0  0  0
   28.1120   30.9520   40.1470 H   0  0  0  0  0  0  0  0  0  0  0  0
   26.5660   32.8060   40.1220 H   0  0  0  0  0  0  0  0  0  0  0  0
   25.4710   32.0270   44.0990 H   0  0  0  0  0  0  0  0  0  0  0  0
  1 33  1  0  0  0  0
  1  5  1  0  0  0  0
  2  3  1  0  0  0  0
  2  6  1  0  0  0  0
  2  1  1  0  0  0  0
  3  9  1  0  0  0  0
  3  4  1  0  0  0  0
  4 10  1  6  0  0  0
  4 15  1  0  0  0  0
  4  5  1  0  0  0  0
  5 12  1  0  0  0  0
  5 11  1  0  0  0  0
  7  2  1  0  0  0  0
  8  3  1  0  0  0  0
 14 13  1  0  0  0  0
 14 19  1  0  0  0  0
 15 14  2  0  0  0  0
 16 15  1  0  0  0  0
 16 17  2  0  0  0  0
 17 18  1  0  0  0  0
 18 22  1  0  0  0  0
 18 19  2  0  0  0  0
 19 24  1  0  0  0  0
 20 16  1  0  0  0  0
 21 17  1  0  0  0  0
 23 24  2  0  0  0  0
 23 30  1  0  0  0  0
 24 25  1  0  0  0  0
 25 26  1  0  0  0  0
 25 27  2  0  0  0  0
 27 28  1  0  0  0  0
 29 27  1  0  0  0  0
 30 29  2  0  0  0  0
 31 32  3  0  0  0  0
 32 23  1  0  0  0  0
 33 38  1  0  0  0  0
 34 33  2  0  0  0  0
 35 34  1  0  0  0  0
 35 36  2  0  0  0  0
 36 37  1  0  0  0  0
 37 38  2  0  0  0  0
 37 41  1  0  0  0  0
 39 34  1  0  0  0  0
 40 35  1  0  0  0  0
M  END
>  <minimizedAffinity>
-3.03643274

>  <minimizedRMSD>
7.53293896

$$$$
