
 OpenBabel03272504453D

 31 33  0  0  0  0  0  0  0  0999 V2000
   35.1920   28.2980   49.3840 C   0  0  0  0  0  0  0  0  0  0  0  0
   36.2020   29.2380   49.2450 C   0  0  0  0  0  0  0  0  0  0  0  0
   36.2390   30.2030   48.2510 C   0  0  0  0  0  0  0  0  0  0  0  0
   35.1850   30.1550   47.4080 N   0  0  0  0  0  0  0  0  0  0  0  0
   34.1940   29.2540   47.5210 C   0  0  0  0  0  0  0  0  0  0  0  0
   34.1870   28.3490   48.4770 N   0  0  0  0  0  0  0  0  0  0  0  0
   35.2350   27.5790   50.1840 H   0  0  0  0  0  0  0  0  0  0  0  0
   36.1330   32.3010   50.3260 Cl  0  0  0  0  0  0  0  0  0  0  0  0
   37.3290   32.2020   49.0550 C   0  0  0  0  0  0  0  0  0  0  0  0
   37.3010   31.1770   48.1200 C   0  0  0  0  0  0  0  0  0  0  0  0
   38.2750   31.1780   47.1610 C   0  0  0  0  0  0  0  0  0  0  0  0
   39.2630   32.1430   47.0950 C   0  0  0  0  0  0  0  0  0  0  0  0
   39.2520   33.1610   48.0630 C   0  0  0  0  0  0  0  0  0  0  0  0
   40.5130   34.3470   47.9350 Cl  0  0  0  0  0  0  0  0  0  0  0  0
   38.2890   33.1990   49.0460 C   0  0  0  0  0  0  0  0  0  0  0  0
   38.2330   30.3670   46.4410 H   0  0  0  0  0  0  0  0  0  0  0  0
   40.0250   32.1170   46.3210 H   0  0  0  0  0  0  0  0  0  0  0  0
   38.2940   33.9910   49.7850 H   0  0  0  0  0  0  0  0  0  0  0  0
   32.7700   28.1640   45.7980 C   0  0  0  0  0  0  0  0  0  0  0  0
   33.1010   29.2940   46.5510 C   0  0  0  0  0  0  0  0  0  0  0  0
   32.3540   30.4340   46.3360 C   0  0  0  0  0  0  0  0  0  0  0  0
   32.6550   31.2860   46.9500 H   0  0  0  0  0  0  0  0  0  0  0  0
   31.3340   30.4270   45.4130 C   0  0  0  0  0  0  0  0  0  0  0  0
   30.7900   31.3680   45.3000 H   0  0  0  0  0  0  0  0  0  0  0  0
   31.0310   29.3100   44.6900 C   0  0  0  0  0  0  0  0  0  0  0  0
   31.7440   28.1420   44.8630 C   0  0  0  0  0  0  0  0  0  0  0  0
   34.0900   25.9590   46.1290 N   0  0  0  0  0  0  0  0  0  0  0  0
   33.5010   26.9540   45.9710 C   0  0  0  0  0  0  0  0  0  0  0  0
   37.2690   29.1940   50.1980 N   0  0  0  0  0  0  0  0  0  0  0  0
   37.2180   29.2290   51.2600 H   0  0  0  0  0  0  0  0  0  0  0  0
   38.1940   29.1170   49.7180 H   0  0  0  0  0  0  0  0  0  0  0  0
  1  7  1  0  0  0  0
  2  1  1  0  0  0  0
  2 29  1  0  0  0  0
  3  2  2  0  0  0  0
  4  5  2  0  0  0  0
  4  3  1  0  0  0  0
  5  6  1  0  0  0  0
  6  1  2  0  0  0  0
  9  8  1  0  0  0  0
 10  3  1  0  0  0  0
 10  9  2  0  0  0  0
 11 10  1  0  0  0  0
 12 11  2  0  0  0  0
 12 13  1  0  0  0  0
 13 15  2  0  0  0  0
 14 13  1  0  0  0  0
 15  9  1  0  0  0  0
 15 18  1  0  0  0  0
 16 11  1  0  0  0  0
 17 12  1  0  0  0  0
 19 28  1  0  0  0  0
 19 20  1  0  0  0  0
 20  5  1  0  0  0  0
 21 20  2  0  0  0  0
 21 22  1  0  0  0  0
 23 21  1  0  0  0  0
 24 23  1  0  0  0  0
 25 26  1  0  0  0  0
 25 23  2  0  0  0  0
 26 19  2  0  0  0  0
 28 27  3  0  0  0  0
 29 30  1  0  0  0  0
 31 29  1  0  0  0  0
M  END
>  <minimizedAffinity>
-5.35234261

>  <minimizedRMSD>
2.63657045

$$$$
