
 OpenBabel03272503233D

 31 33  0  0  1  0  0  0  0  0999 V2000
   38.4710   25.4110   33.7340 N   0  0  0  0  0  0  0  0  0  0  0  0
   39.5450   24.9970   34.5880 C   0  0  1  0  0  0  0  0  0  0  0  0
   40.4900   26.1760   34.5810 C   0  0  0  0  0  0  0  0  0  0  0  0
   39.9270   27.1310   33.5240 C   0  0  0  0  0  0  0  0  0  0  0  0
   38.4480   26.8590   33.7600 C   0  0  0  0  0  0  0  0  0  0  0  0
   40.0870   24.1960   34.0020 H   0  0  0  0  0  0  0  0  0  0  0  0
   40.4680   26.6370   35.5800 H   0  0  0  0  0  0  0  0  0  0  0  0
   41.5210   25.9130   34.2840 H   0  0  0  0  0  0  0  0  0  0  0  0
   40.1600   28.1810   33.7920 H   0  0  0  0  0  0  0  0  0  0  0  0
   40.2400   26.8480   32.5210 H   0  0  0  0  0  0  0  0  0  0  0  0
   38.1060   27.3070   34.6870 H   0  0  0  0  0  0  0  0  0  0  0  0
   37.8250   27.2420   32.9150 H   0  0  0  0  0  0  0  0  0  0  0  0
   37.5930   24.5810   32.9970 C   0  0  0  0  0  0  0  0  0  0  0  0
   36.6430   25.2400   32.2210 C   0  0  0  0  0  0  0  0  0  0  0  0
   35.7360   24.4630   31.4660 C   0  0  0  0  0  0  0  0  0  0  0  0
   35.8680   23.0860   31.5600 N   0  0  0  0  0  0  0  0  0  0  0  0
   36.8120   22.5020   32.3310 C   0  0  0  0  0  0  0  0  0  0  0  0
   37.6730   23.2510   33.0480 N   0  0  0  0  0  0  0  0  0  0  0  0
   36.5100   26.3080   32.1240 H   0  0  0  0  0  0  0  0  0  0  0  0
   34.9620   24.8850   30.8330 H   0  0  0  0  0  0  0  0  0  0  0  0
   36.8240   21.4200   32.3280 H   0  0  0  0  0  0  0  0  0  0  0  0
   39.9130   23.3930   36.3900 C   0  0  0  0  0  0  0  0  0  0  0  0
   39.1890   24.4840   35.8950 C   0  0  0  0  0  0  0  0  0  0  0  0
   38.2060   24.9440   36.7270 C   0  0  0  0  0  0  0  0  0  0  0  0
   37.6240   25.7810   36.3870 H   0  0  0  0  0  0  0  0  0  0  0  0
   37.9130   24.4130   37.9590 C   0  0  0  0  0  0  0  0  0  0  0  0
   37.1250   24.8040   38.5940 H   0  0  0  0  0  0  0  0  0  0  0  0
   38.6450   23.3430   38.4120 C   0  0  0  0  0  3  0  0  0  0  0  0
   39.6680   22.8160   37.6180 C   0  0  0  0  0  3  0  0  0  0  0  0
   41.8450   22.3320   34.9870 N   0  0  0  0  0  0  0  0  0  0  0  0
   40.9800   22.8090   35.6110 C   0  0  0  0  0  0  0  0  0  0  0  0
  1  5  1  0  0  0  0
  1  2  1  0  0  0  0
  2  6  1  6  0  0  0
  2 23  1  0  0  0  0
  3  2  1  0  0  0  0
  3  7  1  0  0  0  0
  4  5  1  0  0  0  0
  4  9  1  0  0  0  0
  4  3  1  0  0  0  0
  5 11  1  0  0  0  0
  8  3  1  0  0  0  0
 10  4  1  0  0  0  0
 12  5  1  0  0  0  0
 13 18  1  0  0  0  0
 13  1  1  0  0  0  0
 14 13  2  0  0  0  0
 15 16  2  0  0  0  0
 15 14  1  0  0  0  0
 16 17  1  0  0  0  0
 17 18  2  0  0  0  0
 19 14  1  0  0  0  0
 20 15  1  0  0  0  0
 21 17  1  0  0  0  0
 22 29  1  0  0  0  0
 23 22  2  0  0  0  0
 23 24  1  0  0  0  0
 24 26  2  0  0  0  0
 25 24  1  0  0  0  0
 26 28  1  0  0  0  0
 26 27  1  0  0  0  0
 29 28  2  0  0  0  0
 30 31  3  0  0  0  0
 31 22  1  0  0  0  0
M  END
>  <minimizedAffinity>
-5.03926468

$$$$

 OpenBabel03272503233D

 31 33  0  0  1  0  0  0  0  0999 V2000
   37.0280   26.2230   31.2640 N   0  0  0  0  0  0  0  0  0  0  0  0
   38.1030   27.0540   31.7200 C   0  0  1  0  0  0  0  0  0  0  0  0
   37.8430   28.3840   31.0510 C   0  0  0  0  0  0  0  0  0  0  0  0
   36.6880   28.1220   30.0800 C   0  0  0  0  0  0  0  0  0  0  0  0
   35.9310   27.1050   30.9220 C   0  0  0  0  0  0  0  0  0  0  0  0
   39.0220   26.6490   31.2010 H   0  0  0  0  0  0  0  0  0  0  0  0
   37.5490   29.1050   31.8270 H   0  0  0  0  0  0  0  0  0  0  0  0
   38.7010   28.7560   30.4630 H   0  0  0  0  0  0  0  0  0  0  0  0
   36.0730   29.0360   29.9580 H   0  0  0  0  0  0  0  0  0  0  0  0
   37.0420   27.6950   29.1430 H   0  0  0  0  0  0  0  0  0  0  0  0
   35.4300   27.5780   31.7600 H   0  0  0  0  0  0  0  0  0  0  0  0
   35.1780   26.5510   30.3090 H   0  0  0  0  0  0  0  0  0  0  0  0
   37.0220   24.8120   31.1580 C   0  0  0  0  0  0  0  0  0  0  0  0
   35.8190   24.1840   31.4750 C   0  0  0  0  0  0  0  0  0  0  0  0
   35.7540   22.7750   31.3910 C   0  0  0  0  0  0  0  0  0  0  0  0
   36.9100   22.1220   30.9940 N   0  0  0  0  0  0  0  0  0  0  0  0
   38.0500   22.7850   30.6990 C   0  0  0  0  0  0  0  0  0  0  0  0
   38.1030   24.1300   30.7810 N   0  0  0  0  0  0  0  0  0  0  0  0
   34.9010   24.6600   31.7870 H   0  0  0  0  0  0  0  0  0  0  0  0
   34.8630   22.1990   31.6170 H   0  0  0  0  0  0  0  0  0  0  0  0
   38.8910   22.1730   30.3990 H   0  0  0  0  0  0  0  0  0  0  0  0
   39.6110   26.7640   33.6170 C   0  0  0  0  0  0  0  0  0  0  0  0
   38.3370   27.1050   33.1490 C   0  0  0  0  0  0  0  0  0  0  0  0
   37.4430   27.4520   34.1240 C   0  0  0  0  0  0  0  0  0  0  0  0
   36.4510   27.7210   33.8110 H   0  0  0  0  0  0  0  0  0  0  0  0
   37.7250   27.4800   35.4690 C   0  0  0  0  0  0  0  0  0  0  0  0
   36.9900   27.7610   36.2160 H   0  0  0  0  0  0  0  0  0  0  0  0
   38.9870   27.1390   35.8900 C   0  0  0  0  0  3  0  0  0  0  0  0
   39.9570   26.7730   34.9520 C   0  0  0  0  0  3  0  0  0  0  0  0
   41.4970   26.0700   31.9460 N   0  0  0  0  0  0  0  0  0  0  0  0
   40.6510   26.3780   32.6910 C   0  0  0  0  0  0  0  0  0  0  0  0
  1  2  1  0  0  0  0
  2  6  1  6  0  0  0
  2 23  1  0  0  0  0
  3  2  1  0  0  0  0
  3  7  1  0  0  0  0
  4  5  1  0  0  0  0
  4  3  1  0  0  0  0
  5  1  1  0  0  0  0
  5 11  1  0  0  0  0
  8  3  1  0  0  0  0
  9  4  1  0  0  0  0
 10  4  1  0  0  0  0
 12  5  1  0  0  0  0
 13  1  1  0  0  0  0
 13 14  1  0  0  0  0
 14 19  1  0  0  0  0
 15 14  2  0  0  0  0
 15 20  1  0  0  0  0
 16 15  1  0  0  0  0
 17 18  1  0  0  0  0
 17 16  2  0  0  0  0
 18 13  2  0  0  0  0
 21 17  1  0  0  0  0
 22 29  1  0  0  0  0
 23 22  2  0  0  0  0
 23 24  1  0  0  0  0
 24 26  2  0  0  0  0
 25 24  1  0  0  0  0
 26 28  1  0  0  0  0
 26 27  1  0  0  0  0
 29 28  2  0  0  0  0
 30 31  3  0  0  0  0
 31 22  1  0  0  0  0
M  END
>  <minimizedAffinity>
-4.81375408

$$$$

 OpenBabel03272503233D

 31 33  0  0  1  0  0  0  0  0999 V2000
   38.5060   23.9330   36.0210 N   0  0  0  0  0  0  0  0  0  0  0  0
   38.8110   22.6820   35.3930 C   0  0  1  0  0  0  0  0  0  0  0  0
   39.6990   21.9790   36.3940 C   0  0  0  0  0  0  0  0  0  0  0  0
   39.9820   23.0240   37.4770 C   0  0  0  0  0  0  0  0  0  0  0  0
   38.6320   23.7270   37.4500 C   0  0  0  0  0  0  0  0  0  0  0  0
   39.5020   22.9490   34.5380 H   0  0  0  0  0  0  0  0  0  0  0  0
   39.1400   21.1260   36.8050 H   0  0  0  0  0  0  0  0  0  0  0  0
   40.6680   21.6570   35.9730 H   0  0  0  0  0  0  0  0  0  0  0  0
   40.1250   22.5310   38.4590 H   0  0  0  0  0  0  0  0  0  0  0  0
   40.7950   23.6880   37.1900 H   0  0  0  0  0  0  0  0  0  0  0  0
   37.8590   23.1180   37.9070 H   0  0  0  0  0  0  0  0  0  0  0  0
   38.6790   24.7150   37.9710 H   0  0  0  0  0  0  0  0  0  0  0  0
   38.1500   25.1470   35.3860 C   0  0  0  0  0  0  0  0  0  0  0  0
   38.2780   26.2970   36.1610 C   0  0  0  0  0  0  0  0  0  0  0  0
   37.9340   27.5390   35.5820 C   0  0  0  0  0  0  0  0  0  0  0  0
   37.4910   27.5110   34.2690 N   0  0  0  0  0  0  0  0  0  0  0  0
   37.3880   26.3620   33.5650 C   0  0  0  0  0  0  0  0  0  0  0  0
   37.7190   25.1810   34.1260 N   0  0  0  0  0  0  0  0  0  0  0  0
   38.6180   26.3570   37.1860 H   0  0  0  0  0  0  0  0  0  0  0  0
   38.0000   28.4880   36.1060 H   0  0  0  0  0  0  0  0  0  0  0  0
   37.0320   26.4590   32.5480 H   0  0  0  0  0  0  0  0  0  0  0  0
   37.6680   21.6100   33.5210 C   0  0  0  0  0  0  0  0  0  0  0  0
   37.6950   21.9070   34.8890 C   0  0  0  0  0  0  0  0  0  0  0  0
   36.6360   21.4170   35.6030 C   0  0  0  0  0  0  0  0  0  0  0  0
   36.6150   21.6210   36.6570 H   0  0  0  0  0  0  0  0  0  0  0  0
   35.6030   20.6870   35.0660 C   0  0  0  0  0  0  0  0  0  0  0  0
   34.7780   20.3130   35.6630 H   0  0  0  0  0  0  0  0  0  0  0  0
   35.6110   20.4150   33.7200 C   0  0  0  0  0  3  0  0  0  0  0  0
   36.6610   20.8820   32.9230 C   0  0  0  0  0  3  0  0  0  0  0  0
   39.5890   22.4410   31.9570 N   0  0  0  0  0  0  0  0  0  0  0  0
   38.7270   22.0680   32.6530 C   0  0  0  0  0  0  0  0  0  0  0  0
  1  5  1  0  0  0  0
  2  6  1  6  0  0  0
  2  1  1  0  0  0  0
  2  3  1  0  0  0  0
  3  7  1  0  0  0  0
  3  4  1  0  0  0  0
  4  9  1  0  0  0  0
  5  4  1  0  0  0  0
  5 11  1  0  0  0  0
  5 12  1  0  0  0  0
  8  3  1  0  0  0  0
 10  4  1  0  0  0  0
 13  1  1  0  0  0  0
 13 14  1  0  0  0  0
 14 19  1  0  0  0  0
 15 20  1  0  0  0  0
 15 14  2  0  0  0  0
 16 15  1  0  0  0  0
 17 18  1  0  0  0  0
 17 16  2  0  0  0  0
 18 13  2  0  0  0  0
 21 17  1  0  0  0  0
 22 23  1  0  0  0  0
 23  2  1  0  0  0  0
 23 24  2  0  0  0  0
 24 25  1  0  0  0  0
 26 24  1  0  0  0  0
 26 27  1  0  0  0  0
 28 26  2  0  0  0  0
 29 22  2  0  0  0  0
 29 28  1  0  0  0  0
 30 31  3  0  0  0  0
 31 22  1  0  0  0  0
M  END
>  <minimizedAffinity>
-4.79265547

$$$$

 OpenBabel03272503233D

 31 33  0  0  1  0  0  0  0  0999 V2000
   35.0870   29.5020   32.9470 N   0  0  0  0  0  0  0  0  0  0  0  0
   35.9230   28.4300   32.4960 C   0  0  1  0  0  0  0  0  0  0  0  0
   36.7260   29.0440   31.3730 C   0  0  0  0  0  0  0  0  0  0  0  0
   36.1120   30.4300   31.1550 C   0  0  0  0  0  0  0  0  0  0  0  0
   35.7640   30.7360   32.6050 C   0  0  0  0  0  0  0  0  0  0  0  0
   35.2180   27.7110   31.9810 H   0  0  0  0  0  0  0  0  0  0  0  0
   37.7720   29.1240   31.7050 H   0  0  0  0  0  0  0  0  0  0  0  0
   36.6510   28.4870   30.4210 H   0  0  0  0  0  0  0  0  0  0  0  0
   36.8840   31.1410   30.7990 H   0  0  0  0  0  0  0  0  0  0  0  0
   35.2270   30.3810   30.5230 H   0  0  0  0  0  0  0  0  0  0  0  0
   36.6520   30.9620   33.1860 H   0  0  0  0  0  0  0  0  0  0  0  0
   35.0490   31.5920   32.6780 H   0  0  0  0  0  0  0  0  0  0  0  0
   33.8360   29.3970   33.6010 C   0  0  0  0  0  0  0  0  0  0  0  0
   32.7500   29.0850   32.7870 C   0  0  0  0  0  0  0  0  0  0  0  0
   31.4740   28.9700   33.3830 C   0  0  0  0  0  0  0  0  0  0  0  0
   31.4060   29.1790   34.7510 N   0  0  0  0  0  0  0  0  0  0  0  0
   32.4970   29.4780   35.4920 C   0  0  0  0  0  0  0  0  0  0  0  0
   33.7100   29.5860   34.9140 N   0  0  0  0  0  0  0  0  0  0  0  0
   32.7650   28.9160   31.7190 H   0  0  0  0  0  0  0  0  0  0  0  0
   30.5700   28.7310   32.8320 H   0  0  0  0  0  0  0  0  0  0  0  0
   32.3270   29.6200   36.5510 H   0  0  0  0  0  0  0  0  0  0  0  0
   36.9790   26.3710   33.2730 C   0  0  0  0  0  0  0  0  0  0  0  0
   36.6880   27.7210   33.5020 C   0  0  0  0  0  0  0  0  0  0  0  0
   37.1730   28.2200   34.6790 C   0  0  0  0  0  0  0  0  0  0  0  0
   36.9730   29.2530   34.8970 H   0  0  0  0  0  0  0  0  0  0  0  0
   37.8930   27.4950   35.5970 C   0  0  0  0  0  0  0  0  0  0  0  0
   38.2640   27.9240   36.5220 H   0  0  0  0  0  0  0  0  0  0  0  0
   38.1600   26.1730   35.3380 C   0  0  0  0  0  3  0  0  0  0  0  0
   37.6970   25.5910   34.1540 C   0  0  0  0  0  3  0  0  0  0  0  0
   36.1650   25.1950   31.0860 N   0  0  0  0  0  0  0  0  0  0  0  0
   36.5250   25.7200   32.0660 C   0  0  0  0  0  0  0  0  0  0  0  0
  1 13  1  0  0  0  0
  2  6  1  6  0  0  0
  2  1  1  0  0  0  0
  2 23  1  0  0  0  0
  3  7  1  0  0  0  0
  3  2  1  0  0  0  0
  4  3  1  0  0  0  0
  4  5  1  0  0  0  0
  5 12  1  0  0  0  0
  5  1  1  0  0  0  0
  5 11  1  0  0  0  0
  8  3  1  0  0  0  0
  9  4  1  0  0  0  0
 10  4  1  0  0  0  0
 13 18  1  0  0  0  0
 14 15  1  0  0  0  0
 14 13  2  0  0  0  0
 15 16  2  0  0  0  0
 16 17  1  0  0  0  0
 17 21  1  0  0  0  0
 18 17  2  0  0  0  0
 19 14  1  0  0  0  0
 20 15  1  0  0  0  0
 22 23  2  0  0  0  0
 22 29  1  0  0  0  0
 23 24  1  0  0  0  0
 24 25  1  0  0  0  0
 24 26  2  0  0  0  0
 26 27  1  0  0  0  0
 28 26  1  0  0  0  0
 29 28  2  0  0  0  0
 30 31  3  0  0  0  0
 31 22  1  0  0  0  0
M  END
>  <minimizedAffinity>
-4.58983564

$$$$

 OpenBabel03272503233D

 31 33  0  0  1  0  0  0  0  0999 V2000
   36.6490   27.3280   32.3010 N   0  0  0  0  0  0  0  0  0  0  0  0
   37.5560   26.3910   32.8960 C   0  0  1  0  0  0  0  0  0  0  0  0
   37.1400   25.0620   32.3110 C   0  0  0  0  0  0  0  0  0  0  0  0
   35.8510   25.3530   31.5380 C   0  0  0  0  0  0  0  0  0  0  0  0
   36.2090   26.7490   31.0480 C   0  0  0  0  0  0  0  0  0  0  0  0
   37.2420   26.3350   33.9810 H   0  0  0  0  0  0  0  0  0  0  0  0
   37.9380   24.7220   31.6340 H   0  0  0  0  0  0  0  0  0  0  0  0
   36.9110   24.2970   33.0750 H   0  0  0  0  0  0  0  0  0  0  0  0
   35.7580   24.6670   30.6720 H   0  0  0  0  0  0  0  0  0  0  0  0
   34.9830   25.3590   32.1940 H   0  0  0  0  0  0  0  0  0  0  0  0
   36.9530   26.7140   30.2600 H   0  0  0  0  0  0  0  0  0  0  0  0
   35.3050   27.2930   30.6780 H   0  0  0  0  0  0  0  0  0  0  0  0
   36.2480   28.5810   32.8220 C   0  0  0  0  0  0  0  0  0  0  0  0
   36.2280   29.6380   31.9150 C   0  0  0  0  0  0  0  0  0  0  0  0
   35.8390   30.9150   32.3790 C   0  0  0  0  0  0  0  0  0  0  0  0
   35.5020   31.0130   33.7200 N   0  0  0  0  0  0  0  0  0  0  0  0
   35.5390   29.9500   34.5540 C   0  0  0  0  0  0  0  0  0  0  0  0
   35.9120   28.7360   34.1030 N   0  0  0  0  0  0  0  0  0  0  0  0
   36.4840   29.5990   30.8660 H   0  0  0  0  0  0  0  0  0  0  0  0
   35.7930   31.7970   31.7480 H   0  0  0  0  0  0  0  0  0  0  0  0
   35.2540   30.1430   35.5800 H   0  0  0  0  0  0  0  0  0  0  0  0
   39.6430   27.0000   34.0060 C   0  0  0  0  0  0  0  0  0  0  0  0
   38.9700   26.7000   32.8160 C   0  0  0  0  0  0  0  0  0  0  0  0
   39.7480   26.7350   31.6930 C   0  0  0  0  0  0  0  0  0  0  0  0
   39.2730   26.5120   30.7550 H   0  0  0  0  0  0  0  0  0  0  0  0
   41.0890   27.0370   31.6800 C   0  0  0  0  0  0  0  0  0  0  0  0
   41.6770   27.0550   30.7690 H   0  0  0  0  0  0  0  0  0  0  0  0
   41.7160   27.3250   32.8670 C   0  0  0  0  0  3  0  0  0  0  0  0
   40.9860   27.3090   34.0600 C   0  0  0  0  0  3  0  0  0  0  0  0
   38.3700   26.9870   36.2880 N   0  0  0  0  0  0  0  0  0  0  0  0
   38.9370   26.9970   35.2660 C   0  0  0  0  0  0  0  0  0  0  0  0
  1 13  1  0  0  0  0
  1  2  1  0  0  0  0
  2  6  1  1  0  0  0
  3  2  1  0  0  0  0
  3  8  1  0  0  0  0
  4 10  1  0  0  0  0
  4  3  1  0  0  0  0
  5  4  1  0  0  0  0
  5  1  1  0  0  0  0
  7  3  1  0  0  0  0
  9  4  1  0  0  0  0
 11  5  1  0  0  0  0
 12  5  1  0  0  0  0
 13 18  1  0  0  0  0
 14 15  1  0  0  0  0
 14 13  2  0  0  0  0
 15 16  2  0  0  0  0
 16 17  1  0  0  0  0
 17 21  1  0  0  0  0
 18 17  2  0  0  0  0
 19 14  1  0  0  0  0
 20 15  1  0  0  0  0
 22 29  1  0  0  0  0
 22 31  1  0  0  0  0
 23  2  1  0  0  0  0
 23 22  2  0  0  0  0
 24 23  1  0  0  0  0
 25 24  1  0  0  0  0
 26 24  2  0  0  0  0
 26 28  1  0  0  0  0
 27 26  1  0  0  0  0
 28 29  2  0  0  0  0
 31 30  3  0  0  0  0
M  END
>  <minimizedAffinity>
-4.58047819

$$$$

 OpenBabel03272503233D

 31 33  0  0  1  0  0  0  0  0999 V2000
   38.0350   25.8370   34.0720 N   0  0  0  0  0  0  0  0  0  0  0  0
   39.2150   25.8900   34.8830 C   0  0  1  0  0  0  0  0  0  0  0  0
   39.0100   27.1140   35.7450 C   0  0  0  0  0  0  0  0  0  0  0  0
   37.7500   27.7850   35.1900 C   0  0  0  0  0  0  0  0  0  0  0  0
   36.9900   26.5230   34.8060 C   0  0  0  0  0  0  0  0  0  0  0  0
   40.0430   26.1810   34.1700 H   0  0  0  0  0  0  0  0  0  0  0  0
   38.8540   26.7790   36.7820 H   0  0  0  0  0  0  0  0  0  0  0  0
   39.8380   27.8420   35.6800 H   0  0  0  0  0  0  0  0  0  0  0  0
   37.2080   28.3140   35.9990 H   0  0  0  0  0  0  0  0  0  0  0  0
   37.9760   28.4060   34.3250 H   0  0  0  0  0  0  0  0  0  0  0  0
   36.6140   26.0050   35.6820 H   0  0  0  0  0  0  0  0  0  0  0  0
   36.1380   26.7550   34.1210 H   0  0  0  0  0  0  0  0  0  0  0  0
   37.8970   25.2380   32.7980 C   0  0  0  0  0  0  0  0  0  0  0  0
   39.0580   25.1650   32.0320 C   0  0  0  0  0  0  0  0  0  0  0  0
   38.9810   24.5800   30.7480 C   0  0  0  0  0  0  0  0  0  0  0  0
   37.7370   24.1180   30.3490 N   0  0  0  0  0  0  0  0  0  0  0  0
   36.6430   24.2160   31.1370 C   0  0  0  0  0  0  0  0  0  0  0  0
   36.7260   24.7760   32.3610 N   0  0  0  0  0  0  0  0  0  0  0  0
   40.0430   25.5140   32.3100 H   0  0  0  0  0  0  0  0  0  0  0  0
   39.8310   24.4790   30.0800 H   0  0  0  0  0  0  0  0  0  0  0  0
   35.7240   23.8220   30.7230 H   0  0  0  0  0  0  0  0  0  0  0  0
   40.8670   24.1590   35.3660 C   0  0  0  0  0  0  0  0  0  0  0  0
   39.5860   24.6790   35.5870 C   0  0  0  0  0  0  0  0  0  0  0  0
   38.8200   23.9620   36.4640 C   0  0  0  0  0  0  0  0  0  0  0  0
   37.8290   24.3240   36.6640 H   0  0  0  0  0  0  0  0  0  0  0  0
   39.2290   22.8160   37.1020 C   0  0  0  0  0  0  0  0  0  0  0  0
   38.5940   22.2710   37.7930 H   0  0  0  0  0  0  0  0  0  0  0  0
   40.4930   22.3360   36.8610 C   0  0  0  0  0  3  0  0  0  0  0  0
   41.3360   23.0150   35.9760 C   0  0  0  0  0  3  0  0  0  0  0  0
   42.5140   25.3510   33.7260 N   0  0  0  0  0  0  0  0  0  0  0  0
   41.7790   24.8210   34.4620 C   0  0  0  0  0  0  0  0  0  0  0  0
  1  5  1  0  0  0  0
  1  2  1  0  0  0  0
  2  6  1  6  0  0  0
  2 23  1  0  0  0  0
  2  3  1  0  0  0  0
  3  7  1  0  0  0  0
  4  3  1  0  0  0  0
  4  9  1  0  0  0  0
  5  4  1  0  0  0  0
  5 11  1  0  0  0  0
  8  3  1  0  0  0  0
 10  4  1  0  0  0  0
 12  5  1  0  0  0  0
 13  1  1  0  0  0  0
 14 19  1  0  0  0  0
 14 13  2  0  0  0  0
 15 14  1  0  0  0  0
 16 15  2  0  0  0  0
 16 17  1  0  0  0  0
 17 18  2  0  0  0  0
 18 13  1  0  0  0  0
 20 15  1  0  0  0  0
 21 17  1  0  0  0  0
 22 23  2  0  0  0  0
 22 29  1  0  0  0  0
 23 24  1  0  0  0  0
 24 25  1  0  0  0  0
 24 26  2  0  0  0  0
 26 27  1  0  0  0  0
 28 26  1  0  0  0  0
 29 28  2  0  0  0  0
 30 31  3  0  0  0  0
 31 22  1  0  0  0  0
M  END
>  <minimizedAffinity>
-4.51371288

$$$$

 OpenBabel03272503233D

 31 33  0  0  1  0  0  0  0  0999 V2000
   38.2280   22.7250   34.5510 N   0  0  0  0  0  0  0  0  0  0  0  0
   38.8070   23.4470   33.4570 C   0  0  1  0  0  0  0  0  0  0  0  0
   38.7050   22.4880   32.2940 C   0  0  0  0  0  0  0  0  0  0  0  0
   38.2200   21.1700   32.9060 C   0  0  0  0  0  0  0  0  0  0  0  0
   37.3140   21.7570   33.9800 C   0  0  0  0  0  0  0  0  0  0  0  0
   39.9120   23.4920   33.6930 H   0  0  0  0  0  0  0  0  0  0  0  0
   37.9660   22.8880   31.5850 H   0  0  0  0  0  0  0  0  0  0  0  0
   39.6730   22.2930   31.7970 H   0  0  0  0  0  0  0  0  0  0  0  0
   37.6100   20.6070   32.1720 H   0  0  0  0  0  0  0  0  0  0  0  0
   39.0430   20.6000   33.3330 H   0  0  0  0  0  0  0  0  0  0  0  0
   36.4050   22.1660   33.5510 H   0  0  0  0  0  0  0  0  0  0  0  0
   37.0460   20.9910   34.7480 H   0  0  0  0  0  0  0  0  0  0  0  0
   38.4890   22.9060   35.9310 C   0  0  0  0  0  0  0  0  0  0  0  0
   39.7600   22.5330   36.3620 C   0  0  0  0  0  0  0  0  0  0  0  0
   40.0770   22.6880   37.7310 C   0  0  0  0  0  0  0  0  0  0  0  0
   39.0820   23.2050   38.5450 N   0  0  0  0  0  0  0  0  0  0  0  0
   37.8650   23.5500   38.0690 C   0  0  0  0  0  0  0  0  0  0  0  0
   37.5710   23.3990   36.7610 N   0  0  0  0  0  0  0  0  0  0  0  0
   40.5590   22.1270   35.7580 H   0  0  0  0  0  0  0  0  0  0  0  0
   41.0390   22.4260   38.1600 H   0  0  0  0  0  0  0  0  0  0  0  0
   37.1660   23.9440   38.7940 H   0  0  0  0  0  0  0  0  0  0  0  0
   39.0930   25.8640   33.6390 C   0  0  0  0  0  0  0  0  0  0  0  0
   38.3090   24.7860   33.2140 C   0  0  0  0  0  0  0  0  0  0  0  0
   37.1360   25.1360   32.6040 C   0  0  0  0  0  0  0  0  0  0  0  0
   36.5010   24.3400   32.2610 H   0  0  0  0  0  0  0  0  0  0  0  0
   36.7160   26.4290   32.4030 C   0  0  0  0  0  0  0  0  0  0  0  0
   35.7780   26.6710   31.9140 H   0  0  0  0  0  0  0  0  0  0  0  0
   37.5130   27.4610   32.8330 C   0  0  0  0  0  3  0  0  0  0  0  0
   38.7280   27.1820   33.4660 C   0  0  0  0  0  3  0  0  0  0  0  0
   41.3850   25.4460   34.8230 N   0  0  0  0  0  0  0  0  0  0  0  0
   40.3580   25.6330   34.2980 C   0  0  0  0  0  0  0  0  0  0  0  0
  1 13  1  0  0  0  0
  2  6  1  1  0  0  0
  2  1  1  0  0  0  0
  3  4  1  0  0  0  0
  3  2  1  0  0  0  0
  4 10  1  0  0  0  0
  4  5  1  0  0  0  0
  5  1  1  0  0  0  0
  5 12  1  0  0  0  0
  7  3  1  0  0  0  0
  8  3  1  0  0  0  0
  9  4  1  0  0  0  0
 11  5  1  0  0  0  0
 13 14  2  0  0  0  0
 13 18  1  0  0  0  0
 14 15  1  0  0  0  0
 15 20  1  0  0  0  0
 15 16  2  0  0  0  0
 17 16  1  0  0  0  0
 17 21  1  0  0  0  0
 18 17  2  0  0  0  0
 19 14  1  0  0  0  0
 22 31  1  0  0  0  0
 23  2  1  0  0  0  0
 23 22  2  0  0  0  0
 24 23  1  0  0  0  0
 25 24  1  0  0  0  0
 26 24  2  0  0  0  0
 26 28  1  0  0  0  0
 27 26  1  0  0  0  0
 28 29  2  0  0  0  0
 29 22  1  0  0  0  0
 31 30  3  0  0  0  0
M  END
>  <minimizedAffinity>
-4.50557995

$$$$

 OpenBabel03272503233D

 31 33  0  0  1  0  0  0  0  0999 V2000
   39.2320   22.6760   33.4400 N   0  0  0  0  0  0  0  0  0  0  0  0
   39.6870   23.1720   34.7050 C   0  0  1  0  0  0  0  0  0  0  0  0
   41.1250   22.7130   34.7790 C   0  0  0  0  0  0  0  0  0  0  0  0
   41.3120   21.7930   33.5690 C   0  0  0  0  0  0  0  0  0  0  0  0
   40.4030   22.5330   32.5980 C   0  0  0  0  0  0  0  0  0  0  0  0
   39.1480   22.5410   35.4730 H   0  0  0  0  0  0  0  0  0  0  0  0
   41.7710   23.6000   34.7030 H   0  0  0  0  0  0  0  0  0  0  0  0
   41.3540   22.1270   35.6870 H   0  0  0  0  0  0  0  0  0  0  0  0
   42.3590   21.8400   33.2080 H   0  0  0  0  0  0  0  0  0  0  0  0
   40.9570   20.7840   33.7740 H   0  0  0  0  0  0  0  0  0  0  0  0
   40.8540   23.4600   32.2610 H   0  0  0  0  0  0  0  0  0  0  0  0
   40.1550   21.9000   31.7110 H   0  0  0  0  0  0  0  0  0  0  0  0
   37.9000   22.3750   33.0660 C   0  0  0  0  0  0  0  0  0  0  0  0
   37.3290   23.2220   32.1190 C   0  0  0  0  0  0  0  0  0  0  0  0
   36.0000   22.9730   31.7090 C   0  0  0  0  0  0  0  0  0  0  0  0
   35.3630   21.8890   32.2920 N   0  0  0  0  0  0  0  0  0  0  0  0
   35.9690   21.1000   33.2070 C   0  0  0  0  0  0  0  0  0  0  0  0
   37.2380   21.3450   33.5920 N   0  0  0  0  0  0  0  0  0  0  0  0
   37.7940   24.0750   31.6450 H   0  0  0  0  0  0  0  0  0  0  0  0
   35.4710   23.5770   30.9790 H   0  0  0  0  0  0  0  0  0  0  0  0
   35.3770   20.2810   33.5940 H   0  0  0  0  0  0  0  0  0  0  0  0
   38.5100   24.9040   35.9580 C   0  0  0  0  0  0  0  0  0  0  0  0
   39.4600   24.5750   34.9830 C   0  0  0  0  0  0  0  0  0  0  0  0
   40.0730   25.6470   34.3970 C   0  0  0  0  0  0  0  0  0  0  0  0
   40.8100   25.4420   33.6420 H   0  0  0  0  0  0  0  0  0  0  0  0
   39.8130   26.9610   34.7040 C   0  0  0  0  0  0  0  0  0  0  0  0
   40.3200   27.7880   34.2180 H   0  0  0  0  0  0  0  0  0  0  0  0
   38.8740   27.2450   35.6660 C   0  0  0  0  0  3  0  0  0  0  0  0
   38.2040   26.2010   36.3120 C   0  0  0  0  0  3  0  0  0  0  0  0
   37.2000   23.0240   37.2140 N   0  0  0  0  0  0  0  0  0  0  0  0
   37.7880   23.8640   36.6560 C   0  0  0  0  0  0  0  0  0  0  0  0
  1  2  1  0  0  0  0
  2  3  1  0  0  0  0
  2 23  1  0  0  0  0
  2  6  1  1  0  0  0
  3  8  1  0  0  0  0
  4 10  1  0  0  0  0
  4  3  1  0  0  0  0
  5  1  1  0  0  0  0
  5  4  1  0  0  0  0
  7  3  1  0  0  0  0
  9  4  1  0  0  0  0
 11  5  1  0  0  0  0
 12  5  1  0  0  0  0
 13  1  1  0  0  0  0
 13 18  1  0  0  0  0
 14 13  2  0  0  0  0
 15 14  1  0  0  0  0
 15 16  2  0  0  0  0
 16 17  1  0  0  0  0
 17 18  2  0  0  0  0
 17 21  1  0  0  0  0
 19 14  1  0  0  0  0
 20 15  1  0  0  0  0
 22 29  1  0  0  0  0
 22 31  1  0  0  0  0
 23 22  2  0  0  0  0
 24 26  2  0  0  0  0
 24 23  1  0  0  0  0
 25 24  1  0  0  0  0
 26 28  1  0  0  0  0
 27 26  1  0  0  0  0
 28 29  2  0  0  0  0
 31 30  3  0  0  0  0
M  END
>  <minimizedAffinity>
-4.49595404

$$$$

 OpenBabel03272503233D

 31 33  0  0  1  0  0  0  0  0999 V2000
   38.5630   23.2710   35.3100 N   0  0  0  0  0  0  0  0  0  0  0  0
   38.2230   24.6630   35.2720 C   0  0  1  0  0  0  0  0  0  0  0  0
   37.9920   25.0200   36.7220 C   0  0  0  0  0  0  0  0  0  0  0  0
   38.0450   23.6870   37.4740 C   0  0  0  0  0  0  0  0  0  0  0  0
   39.1110   23.0080   36.6250 C   0  0  0  0  0  0  0  0  0  0  0  0
   37.1940   24.6960   34.8040 H   0  0  0  0  0  0  0  0  0  0  0  0
   38.8060   25.6870   37.0440 H   0  0  0  0  0  0  0  0  0  0  0  0
   37.0030   25.4760   36.9120 H   0  0  0  0  0  0  0  0  0  0  0  0
   38.4300   23.8400   38.5020 H   0  0  0  0  0  0  0  0  0  0  0  0
   37.0920   23.1630   37.4290 H   0  0  0  0  0  0  0  0  0  0  0  0
   40.0940   23.4250   36.8160 H   0  0  0  0  0  0  0  0  0  0  0  0
   39.1360   21.9070   36.8100 H   0  0  0  0  0  0  0  0  0  0  0  0
   38.4000   22.3210   34.2740 C   0  0  0  0  0  0  0  0  0  0  0  0
   39.5690   21.9110   33.6370 C   0  0  0  0  0  0  0  0  0  0  0  0
   39.4690   20.9660   32.5920 C   0  0  0  0  0  0  0  0  0  0  0  0
   38.1960   20.5160   32.2810 N   0  0  0  0  0  0  0  0  0  0  0  0
   37.0960   20.9490   32.9360 C   0  0  0  0  0  0  0  0  0  0  0  0
   37.2010   21.8520   33.9320 N   0  0  0  0  0  0  0  0  0  0  0  0
   40.5770   22.2400   33.8520 H   0  0  0  0  0  0  0  0  0  0  0  0
   40.3220   20.5870   32.0370 H   0  0  0  0  0  0  0  0  0  0  0  0
   36.1530   20.5290   32.6100 H   0  0  0  0  0  0  0  0  0  0  0  0
   38.7300   25.9480   33.2600 C   0  0  0  0  0  0  0  0  0  0  0  0
   39.1160   25.5410   34.5430 C   0  0  0  0  0  0  0  0  0  0  0  0
   40.3200   26.0330   34.9620 C   0  0  0  0  0  0  0  0  0  0  0  0
   40.6570   25.7460   35.9410 H   0  0  0  0  0  0  0  0  0  0  0  0
   41.1250   26.8640   34.2210 C   0  0  0  0  0  0  0  0  0  0  0  0
   42.0770   27.2370   34.5860 H   0  0  0  0  0  0  0  0  0  0  0  0
   40.7140   27.2430   32.9670 C   0  0  0  0  0  3  0  0  0  0  0  0
   39.4920   26.7800   32.4680 C   0  0  0  0  0  3  0  0  0  0  0  0
   36.4660   25.1420   32.2350 N   0  0  0  0  0  0  0  0  0  0  0  0
   37.4780   25.4990   32.6960 C   0  0  0  0  0  0  0  0  0  0  0  0
  1  5  1  0  0  0  0
  2  6  1  6  0  0  0
  2  1  1  0  0  0  0
  2  3  1  0  0  0  0
  3  8  1  0  0  0  0
  3  7  1  0  0  0  0
  3  4  1  0  0  0  0
  4  9  1  0  0  0  0
  5 12  1  0  0  0  0
  5 11  1  0  0  0  0
  5  4  1  0  0  0  0
 10  4  1  0  0  0  0
 13  1  1  0  0  0  0
 14 19  1  0  0  0  0
 14 13  2  0  0  0  0
 15 14  1  0  0  0  0
 16 15  2  0  0  0  0
 16 17  1  0  0  0  0
 17 18  2  0  0  0  0
 18 13  1  0  0  0  0
 20 15  1  0  0  0  0
 21 17  1  0  0  0  0
 22 23  1  0  0  0  0
 23 24  2  0  0  0  0
 23  2  1  0  0  0  0
 24 25  1  0  0  0  0
 26 27  1  0  0  0  0
 26 24  1  0  0  0  0
 28 26  2  0  0  0  0
 29 28  1  0  0  0  0
 29 22  2  0  0  0  0
 30 31  3  0  0  0  0
 31 22  1  0  0  0  0
M  END
>  <minimizedAffinity>
-4.43222237

$$$$
