
 OpenBabel03272502183D

 34 36  0  0  1  0  0  0  0  0999 V2000
   37.0310   30.4200   48.9680 C   0  0  0  0  0  0  0  0  0  0  0  0
   37.0470   31.6080   49.7400 C   0  0  0  0  0  0  0  0  0  0  0  0
   37.7770   32.6990   49.2670 C   0  0  0  0  0  0  0  0  0  0  0  0
   38.4470   32.5510   48.0620 N   0  0  0  0  0  0  0  0  0  0  0  0
   38.3990   31.4080   47.3730 C   0  0  0  0  0  0  0  0  0  0  0  0
   37.7030   30.3650   47.8220 N   0  0  0  0  0  0  0  0  0  0  0  0
   36.5390   31.7630   50.6840 H   0  0  0  0  0  0  0  0  0  0  0  0
   37.8110   33.6220   49.8300 H   0  0  0  0  0  0  0  0  0  0  0  0
   38.4040   30.9230   44.9540 C   0  0  0  0  0  0  0  0  0  0  0  0
   39.1070   31.2600   46.1040 C   0  0  0  0  0  0  0  0  0  0  0  0
   40.4730   31.4570   46.0630 C   0  0  0  0  0  0  0  0  0  0  0  0
   41.0390   31.7230   46.9640 H   0  0  0  0  0  0  0  0  0  0  0  0
   41.1470   31.3200   44.8710 C   0  0  0  0  0  0  0  0  0  0  0  0
   42.2330   31.4700   44.8060 H   0  0  0  0  0  0  0  0  0  0  0  0
   40.4880   30.9820   43.6890 C   0  0  0  0  0  3  0  0  0  0  0  0
   39.1120   30.7890   43.7570 C   0  0  0  0  0  3  0  0  0  0  0  0
   35.8290   30.5330   44.9540 N   0  0  0  0  0  0  0  0  0  0  0  0
   36.9770   30.7100   44.9640 C   0  0  0  0  0  0  0  0  0  0  0  0
   36.0600   29.1460   49.7180 S   0  0  0  0  0  0  0  0  0  0  0  0
   33.6640   28.0450   49.1340 N   0  0  0  0  0  0  0  0  0  0  0  0
   34.2840   29.3410   49.3000 C   0  0  2  0  0  0  0  0  0  0  0  0
   34.1650   30.1050   48.0090 C   0  0  0  0  0  0  0  0  0  0  0  0
   33.1740   29.5300   47.1770 O   0  0  0  0  0  0  0  0  0  0  0  0
   33.7080   28.3020   46.7740 C   0  0  0  0  0  0  0  0  0  0  0  0
   34.1710   27.4570   47.9250 C   0  0  2  0  0  0  0  0  0  0  0  0
   32.6460   28.1490   49.1890 H   0  0  0  0  0  0  0  0  0  0  0  0
   33.7980   29.9540   50.0890 H   0  0  0  0  0  0  0  0  0  0  0  0
   35.1460   30.1590   47.4900 H   0  0  0  0  0  0  0  0  0  0  0  0
   33.8440   31.1610   48.1810 H   0  0  0  0  0  0  0  0  0  0  0  0
   33.0290   27.7370   46.1100 H   0  0  0  0  0  0  0  0  0  0  0  0
   34.6080   28.5640   46.1650 H   0  0  0  0  0  0  0  0  0  0  0  0
   35.2590   27.3800   48.0010 H   0  0  0  0  0  0  0  0  0  0  0  0
   33.6480   26.1500   47.8070 O   0  0  0  0  0  0  0  0  0  0  0  0
   32.6610   26.2160   47.7570 H   0  0  0  0  0  0  0  0  0  0  0  0
  1 19  1  0  0  0  0
  1  2  1  0  0  0  0
  2  7  1  0  0  0  0
  3  2  2  0  0  0  0
  3  8  1  0  0  0  0
  4  3  1  0  0  0  0
  5  6  1  0  0  0  0
  5  4  2  0  0  0  0
  6  1  2  0  0  0  0
  9 18  1  0  0  0  0
  9 10  1  0  0  0  0
 10  5  1  0  0  0  0
 11 10  2  0  0  0  0
 11 12  1  0  0  0  0
 13 11  1  0  0  0  0
 14 13  1  0  0  0  0
 15 16  1  0  0  0  0
 15 13  2  0  0  0  0
 16  9  2  0  0  0  0
 17 18  3  0  0  0  0
 20 26  1  0  0  0  0
 20 21  1  0  0  0  0
 21 19  1  0  0  0  0
 21 27  1  1  0  0  0
 22 29  1  0  0  0  0
 22 21  1  0  0  0  0
 23 22  1  0  0  0  0
 24 23  1  0  0  0  0
 24 25  1  0  0  0  0
 25 32  1  1  0  0  0
 25 20  1  0  0  0  0
 28 22  1  0  0  0  0
 30 24  1  0  0  0  0
 31 24  1  0  0  0  0
 33 25  1  0  0  0  0
 34 33  1  0  0  0  0
M  END
>  <minimizedAffinity>
-5.50585747

>  <minimizedRMSD>
1.01316321

$$$$
