
 OpenBabel03272500263D

 35 37  0  0  0  0  0  0  0  0999 V2000
   39.8100   31.8600   45.1300 C   0  0  0  0  0  0  0  0  0  0  0  0
   39.5160   33.0670   44.5830 C   0  0  0  0  0  0  0  0  0  0  0  0
   39.4320   33.2690   43.2020 C   0  0  0  0  0  0  0  0  0  0  0  0
   39.6750   32.1350   42.4440 N   0  0  0  0  0  0  0  0  0  0  0  0
   39.9650   30.9460   42.9930 C   0  0  0  0  0  0  0  0  0  0  0  0
   40.0260   30.8380   44.3370 N   0  0  0  0  0  0  0  0  0  0  0  0
   39.3180   33.9920   45.1080 H   0  0  0  0  0  0  0  0  0  0  0  0
   39.2070   34.1850   42.7180 H   0  0  0  0  0  0  0  0  0  0  0  0
   39.2350   28.8090   42.0410 C   0  0  0  0  0  0  0  0  0  0  0  0
   40.2140   29.7760   42.1530 C   0  0  0  0  0  0  0  0  0  0  0  0
   41.4080   29.6300   41.4750 C   0  0  0  0  0  0  0  0  0  0  0  0
   42.1950   30.3580   41.5350 H   0  0  0  0  0  0  0  0  0  0  0  0
   41.6200   28.5000   40.6770 C   0  0  0  0  0  0  0  0  0  0  0  0
   42.5470   28.3830   40.1490 H   0  0  0  0  0  0  0  0  0  0  0  0
   40.6020   27.5690   40.6090 C   0  0  0  0  0  0  0  0  0  0  0  0
   39.3900   27.6630   41.2620 C   0  0  0  0  0  0  0  0  0  0  0  0
   36.9670   29.0830   43.3070 N   0  0  0  0  0  0  0  0  0  0  0  0
   37.9830   28.9500   42.7440 C   0  0  0  0  0  0  0  0  0  0  0  0
   39.8810   31.7060   46.5480 C   0  0  0  0  0  0  0  0  0  0  0  0
   40.9130   32.0340   46.8730 H   0  0  0  0  0  0  0  0  0  0  0  0
   39.9000   30.6050   46.8070 H   0  0  0  0  0  0  0  0  0  0  0  0
   38.8880   32.3190   47.4300 C   0  0  0  0  0  0  0  0  0  0  0  0
   39.3640   33.0230   48.1760 H   0  0  0  0  0  0  0  0  0  0  0  0
   38.1990   32.9720   46.8570 H   0  0  0  0  0  0  0  0  0  0  0  0
   38.1070   31.3760   48.2630 C   0  0  0  0  0  0  0  0  0  0  0  0
   37.0320   30.6790   47.7170 C   0  0  0  0  0  0  0  0  0  0  0  0
   36.4990   29.8910   48.7040 C   0  0  0  0  0  0  0  0  0  0  0  0
   37.2350   30.1100   49.8080 N   0  0  0  0  0  0  0  0  0  0  0  0
   38.1620   30.9800   49.5180 N   0  0  0  0  0  0  0  0  0  0  0  0
   36.5600   30.6360   46.7310 H   0  0  0  0  0  0  0  0  0  0  0  0
   35.6580   29.1810   48.7450 H   0  0  0  0  0  0  0  0  0  0  0  0
   37.0650   29.5030   51.1330 C   0  0  0  0  0  0  0  0  0  0  0  0
   37.8440   28.3850   51.2560 F   0  0  0  0  0  0  0  0  0  0  0  0
   35.7490   29.1780   51.3850 F   0  0  0  0  0  0  0  0  0  0  0  0
   37.4630   30.3980   52.1280 F   0  0  0  0  0  0  0  0  0  0  0  0
  1 19  1  0  0  0  0
  2  7  1  0  0  0  0
  2  1  1  0  0  0  0
  3  2  2  0  0  0  0
  4  5  2  0  0  0  0
  4  3  1  0  0  0  0
  5  6  1  0  0  0  0
  6  1  2  0  0  0  0
  8  3  1  0  0  0  0
  9 10  1  0  0  0  0
  9 18  1  0  0  0  0
 10  5  1  0  0  0  0
 11 12  1  0  0  0  0
 11 10  2  0  0  0  0
 13 11  1  0  0  0  0
 14 13  1  0  0  0  0
 15 13  2  0  0  0  0
 15 16  1  0  0  0  0
 16  9  2  0  0  0  0
 18 17  3  0  0  0  0
 19 21  1  0  0  0  0
 19 20  1  0  0  0  0
 19 22  1  0  0  0  0
 22 23  1  0  0  0  0
 22 25  1  0  0  0  0
 24 22  1  0  0  0  0
 25 29  2  0  0  0  0
 26 25  1  0  0  0  0
 26 27  2  0  0  0  0
 27 31  1  0  0  0  0
 27 28  1  0  0  0  0
 28 32  1  0  0  0  0
 29 28  1  0  0  0  0
 30 26  1  0  0  0  0
 32 33  1  0  0  0  0
 32 34  1  0  0  0  0
 32 35  1  0  0  0  0
M  END
>  <minimizedAffinity>
-5.99489212

>  <minimizedRMSD>
0.65819782

$$$$
