
 OpenBabel03272509213D

 47 51  0  0  0  0  0  0  0  0999 V2000
   39.8590   31.9800   46.2620 O   0  0  0  0  0  0  0  0  0  0  0  0
   40.0650   30.9160   44.0060 C   0  0  0  0  0  0  0  0  0  0  0  0
   39.5380   31.7800   44.9450 C   0  0  0  0  0  0  0  0  0  0  0  0
   38.4950   32.6320   44.5660 C   0  0  0  0  0  0  0  0  0  0  0  0
   37.9960   32.6040   43.2580 C   0  0  0  0  0  0  0  0  0  0  0  0
   37.0370   33.2650   42.5900 N   0  0  0  0  0  0  0  0  0  0  0  0
   36.9640   32.8440   41.3140 C   0  0  0  0  0  0  0  0  0  0  0  0
   37.9120   31.8830   41.1720 N   0  0  0  0  0  0  0  0  0  0  0  0
   38.5540   31.7230   42.3510 C   0  0  0  0  0  0  0  0  0  0  0  0
   39.5820   30.8820   42.7180 C   0  0  0  0  0  0  0  0  0  0  0  0
   40.8550   30.3160   44.4090 H   0  0  0  0  0  0  0  0  0  0  0  0
   37.9820   33.3590   45.1830 H   0  0  0  0  0  0  0  0  0  0  0  0
   36.4390   33.9910   42.9920 H   0  0  0  0  0  0  0  0  0  0  0  0
   36.2900   33.1990   40.5660 H   0  0  0  0  0  0  0  0  0  0  0  0
   39.8360   28.6200   41.6000 C   0  0  0  0  0  0  0  0  0  0  0  0
   40.1980   29.9370   41.7920 C   0  0  0  0  0  0  0  0  0  0  0  0
   41.2410   30.5000   41.0740 C   0  0  0  0  0  0  0  0  0  0  0  0
   41.5820   31.5410   41.1770 H   0  0  0  0  0  0  0  0  0  0  0  0
   41.9520   29.7530   40.1400 C   0  0  0  0  0  0  0  0  0  0  0  0
   42.7720   30.2010   39.5780 H   0  0  0  0  0  0  0  0  0  0  0  0
   41.5730   28.4190   39.9580 C   0  0  0  0  0  3  0  0  0  0  0  0
   40.5300   27.8630   40.6780 C   0  0  0  0  0  3  0  0  0  0  0  0
   37.8610   27.7420   43.0190 N   0  0  0  0  0  0  0  0  0  0  0  0
   38.7430   28.1390   42.3960 C   0  0  0  0  0  0  0  0  0  0  0  0
   38.0070   31.1980   47.6230 C   0  0  0  0  0  0  0  0  0  0  0  0
   37.1250   31.2630   48.6840 C   0  0  0  0  0  0  0  0  0  0  0  0
   37.3150   32.3710   49.5150 C   0  0  0  0  0  0  0  0  0  0  0  0
   38.3230   33.3230   49.2730 C   0  0  0  0  0  0  0  0  0  0  0  0
   39.1620   33.1540   48.1600 C   0  0  0  0  0  0  0  0  0  0  0  0
   38.9860   32.0610   47.3280 C   0  0  0  0  0  0  0  0  0  0  0  0
   36.6590   32.4790   50.3600 H   0  0  0  0  0  0  0  0  0  0  0  0
   38.4250   34.1620   49.9490 H   0  0  0  0  0  0  0  0  0  0  0  0
   39.9260   33.9140   48.0120 H   0  0  0  0  0  0  0  0  0  0  0  0
   34.9300   30.3130   48.1880 C   0  0  0  0  0  0  0  0  0  0  0  0
   36.1030   30.3000   48.9340 C   0  0  0  0  0  0  0  0  0  0  0  0
   36.2370   29.3150   49.9290 C   0  0  0  0  0  0  0  0  0  0  0  0
   35.2230   28.4350   50.1080 N   0  0  0  0  0  0  0  0  0  0  0  0
   34.0870   28.4890   49.3470 C   0  0  0  0  0  0  0  0  0  0  0  0
   33.9490   29.4190   48.4010 N   0  0  0  0  0  0  0  0  0  0  0  0
   34.7500   31.0320   47.4090 H   0  0  0  0  0  0  0  0  0  0  0  0
   33.4060   27.7090   49.6420 H   0  0  0  0  0  0  0  0  0  0  0  0
   37.4690   29.2530   50.7570 C   0  0  0  0  0  0  0  0  0  0  0  0
   38.0020   30.2100   50.6530 H   0  0  0  0  0  0  0  0  0  0  0  0
   38.1180   28.4710   50.3090 H   0  0  0  0  0  0  0  0  0  0  0  0
   37.2260   28.9740   51.7890 H   0  0  0  0  0  0  0  0  0  0  0  0
   37.9000   30.1250   46.7320 O   0  0  0  0  0  0  0  0  0  0  0  0
   37.0440   30.0620   46.2030 H   0  0  0  0  0  0  0  0  0  0  0  0
  1 30  1  0  0  0  0
  2 11  1  0  0  0  0
  2  3  1  0  0  0  0
  3  1  1  0  0  0  0
  4  3  2  0  0  0  0
  4 12  1  0  0  0  0
  5  4  1  0  0  0  0
  6 13  1  0  0  0  0
  6  5  1  0  0  0  0
  7  6  1  0  0  0  0
  8  7  2  0  0  0  0
  8  9  1  0  0  0  0
  9 10  1  0  0  0  0
  9  5  2  0  0  0  0
 10  2  2  0  0  0  0
 14  7  1  0  0  0  0
 15 16  1  0  0  0  0
 15 24  1  0  0  0  0
 16 10  1  0  0  0  0
 17 18  1  0  0  0  0
 17 16  2  0  0  0  0
 19 17  1  0  0  0  0
 20 19  1  0  0  0  0
 21 19  2  0  0  0  0
 21 22  1  0  0  0  0
 22 15  2  0  0  0  0
 24 23  3  0  0  0  0
 25 26  1  0  0  0  0
 26 35  1  0  0  0  0
 26 27  2  0  0  0  0
 27 31  1  0  0  0  0
 28 27  1  0  0  0  0
 28 32  1  0  0  0  0
 29 28  2  0  0  0  0
 30 25  2  0  0  0  0
 30 29  1  0  0  0  0
 33 29  1  0  0  0  0
 34 39  2  0  0  0  0
 34 35  1  0  0  0  0
 35 36  2  0  0  0  0
 36 37  1  0  0  0  0
 36 42  1  0  0  0  0
 38 41  1  0  0  0  0
 38 37  2  0  0  0  0
 39 38  1  0  0  0  0
 40 34  1  0  0  0  0
 42 45  1  0  0  0  0
 43 42  1  0  0  0  0
 44 42  1  0  0  0  0
 46 25  1  0  0  0  0
 47 46  1  0  0  0  0
M  END
>  <minimizedAffinity>
-7.18454695

>  <minimizedRMSD>
0.734318972

$$$$
