
 OpenBabel03272505123D

 40 43  0  0  0  0  0  0  0  0999 V2000
   34.0740   29.9610   47.5240 S   0  0  0  0  0  0  0  0  0  0  0  0
   36.4150   30.9050   45.7050 Cl  0  0  0  0  0  0  0  0  0  0  0  0
   36.7020   30.7920   47.4210 C   0  0  0  0  0  0  0  0  0  0  0  0
   37.9590   31.1300   47.8820 C   0  0  0  0  0  0  0  0  0  0  0  0
   38.1950   31.0430   49.2510 C   0  0  0  0  0  0  0  0  0  0  0  0
   37.1900   30.6300   50.0910 C   0  0  0  0  0  0  0  0  0  0  0  0
   35.9540   30.3080   49.5620 C   0  0  0  0  0  0  0  0  0  0  0  0
   35.6470   30.3690   48.2250 C   0  0  0  0  0  0  0  0  0  0  0  0
   39.1570   31.2960   49.6490 H   0  0  0  0  0  0  0  0  0  0  0  0
   37.3680   30.5610   51.1570 H   0  0  0  0  0  0  0  0  0  0  0  0
   35.1740   29.9840   50.2430 H   0  0  0  0  0  0  0  0  0  0  0  0
   40.2230   33.3270   46.0680 C   0  0  0  0  0  0  0  0  0  0  0  0
   40.9390   32.4650   45.2100 C   0  0  0  0  0  0  0  0  0  0  0  0
   40.6160   31.1050   45.2790 C   0  0  0  0  0  0  0  0  0  0  0  0
   39.6460   30.6940   46.1510 N   0  0  0  0  0  0  0  0  0  0  0  0
   38.9990   31.5640   46.9430 C   0  0  0  0  0  0  0  0  0  0  0  0
   39.2900   32.8650   46.8960 N   0  0  0  0  0  0  0  0  0  0  0  0
   40.3970   34.4080   46.0940 H   0  0  0  0  0  0  0  0  0  0  0  0
   41.6810   32.9030   44.5640 H   0  0  0  0  0  0  0  0  0  0  0  0
   41.1530   30.4400   44.6310 H   0  0  0  0  0  0  0  0  0  0  0  0
   33.8260   29.1500   44.4970 Cl  0  0  0  0  0  0  0  0  0  0  0  0
   33.8420   27.9490   45.7800 C   0  0  0  0  0  0  0  0  0  0  0  0
   33.9490   28.2130   47.1350 C   0  0  0  0  0  0  0  0  0  0  0  0
   33.9500   27.1820   48.0450 C   0  0  0  0  0  0  0  0  0  0  0  0
   33.8480   25.8910   47.6230 C   0  0  0  0  0  0  0  0  0  0  0  0
   33.7380   25.5660   46.2660 C   0  0  0  0  0  0  0  0  0  0  0  0
   33.7390   26.6140   45.3820 C   0  0  0  0  0  0  0  0  0  0  0  0
   34.0380   27.4900   49.0860 H   0  0  0  0  0  0  0  0  0  0  0  0
   33.8540   25.1260   48.3720 H   0  0  0  0  0  0  0  0  0  0  0  0
   33.6600   24.5330   45.9740 H   0  0  0  0  0  0  0  0  0  0  0  0
   32.3020   26.1140   43.5320 C   0  0  0  0  0  0  0  0  0  0  0  0
   33.6230   26.2140   43.9790 C   0  0  0  0  0  0  0  0  0  0  0  0
   34.6840   25.9460   43.1210 C   0  0  0  0  0  0  0  0  0  0  0  0
   35.6670   26.0450   43.5360 H   0  0  0  0  0  0  0  0  0  0  0  0
   34.3790   25.5820   41.8270 C   0  0  0  0  0  0  0  0  0  0  0  0
   35.2370   25.3820   41.1940 H   0  0  0  0  0  0  0  0  0  0  0  0
   33.0930   25.4690   41.3450 C   0  0  0  0  0  3  0  0  0  0  0  0
   32.0660   25.7440   42.2240 C   0  0  0  0  0  3  0  0  0  0  0  0
   30.2710   26.6120   45.0630 N   0  0  0  0  0  0  0  0  0  0  0  0
   31.1680   26.3830   44.3870 C   0  0  0  0  0  0  0  0  0  0  0  0
  1  8  1  0  0  0  0
  2  3  1  0  0  0  0
  3  4  2  0  0  0  0
  3  8  1  0  0  0  0
  4  5  1  0  0  0  0
  5  9  1  0  0  0  0
  5  6  2  0  0  0  0
  6 10  1  0  0  0  0
  7  6  1  0  0  0  0
  7 11  1  0  0  0  0
  8  7  2  0  0  0  0
 12 18  1  0  0  0  0
 12 17  1  0  0  0  0
 13 14  1  0  0  0  0
 13 12  2  0  0  0  0
 14 15  2  0  0  0  0
 15 16  1  0  0  0  0
 16  4  1  0  0  0  0
 17 16  2  0  0  0  0
 19 13  1  0  0  0  0
 20 14  1  0  0  0  0
 21 22  1  0  0  0  0
 22 23  1  0  0  0  0
 23  1  1  0  0  0  0
 23 24  2  0  0  0  0
 24 28  1  0  0  0  0
 25 24  1  0  0  0  0
 25 29  1  0  0  0  0
 26 25  2  0  0  0  0
 27 22  2  0  0  0  0
 27 26  1  0  0  0  0
 30 26  1  0  0  0  0
 31 32  1  0  0  0  0
 31 40  1  0  0  0  0
 32 27  1  0  0  0  0
 33 34  1  0  0  0  0
 33 32  2  0  0  0  0
 35 33  1  0  0  0  0
 36 35  1  0  0  0  0
 37 35  2  0  0  0  0
 37 38  1  0  0  0  0
 38 31  2  0  0  0  0
 40 39  3  0  0  0  0
M  END
>  <minimizedAffinity>
-5.50379419

>  <minimizedRMSD>
0.228695154

$$$$
