
 OpenBabel03272505123D

 40 43  0  0  0  0  0  0  0  0999 V2000
   33.9330   29.7820   47.2970 S   0  0  0  0  0  0  0  0  0  0  0  0
   36.2850   30.8830   45.5840 Cl  0  0  0  0  0  0  0  0  0  0  0  0
   36.5730   30.5800   47.2760 C   0  0  0  0  0  0  0  0  0  0  0  0
   37.8360   30.8470   47.7670 C   0  0  0  0  0  0  0  0  0  0  0  0
   38.0720   30.6080   49.1170 C   0  0  0  0  0  0  0  0  0  0  0  0
   37.0630   30.1210   49.9110 C   0  0  0  0  0  0  0  0  0  0  0  0
   35.8210   29.8770   49.3540 C   0  0  0  0  0  0  0  0  0  0  0  0
   35.5130   30.0870   48.0320 C   0  0  0  0  0  0  0  0  0  0  0  0
   39.0390   30.8010   49.5360 H   0  0  0  0  0  0  0  0  0  0  0  0
   37.2420   29.9340   50.9620 H   0  0  0  0  0  0  0  0  0  0  0  0
   35.0380   29.4930   49.9980 H   0  0  0  0  0  0  0  0  0  0  0  0
   40.1110   33.2000   46.1760 C   0  0  0  0  0  0  0  0  0  0  0  0
   40.8290   32.4200   45.2440 C   0  0  0  0  0  0  0  0  0  0  0  0
   40.5050   31.0610   45.1840 C   0  0  0  0  0  0  0  0  0  0  0  0
   39.5300   30.5720   46.0100 N   0  0  0  0  0  0  0  0  0  0  0  0
   38.8810   31.3650   46.8770 C   0  0  0  0  0  0  0  0  0  0  0  0
   39.1740   32.6640   46.9540 N   0  0  0  0  0  0  0  0  0  0  0  0
   40.2870   34.2730   46.3040 H   0  0  0  0  0  0  0  0  0  0  0  0
   41.5750   32.9160   44.6460 H   0  0  0  0  0  0  0  0  0  0  0  0
   41.0430   30.4590   44.4790 H   0  0  0  0  0  0  0  0  0  0  0  0
   32.6940   29.0040   44.5140 Cl  0  0  0  0  0  0  0  0  0  0  0  0
   33.1320   27.7890   45.7060 C   0  0  0  0  0  0  0  0  0  0  0  0
   33.6820   28.0380   46.9520 C   0  0  0  0  0  0  0  0  0  0  0  0
   33.9830   26.9970   47.7990 C   0  0  0  0  0  0  0  0  0  0  0  0
   33.7430   25.7110   47.4200 C   0  0  0  0  0  0  0  0  0  0  0  0
   33.1900   25.4010   46.1730 C   0  0  0  0  0  0  0  0  0  0  0  0
   32.9000   26.4590   45.3500 C   0  0  0  0  0  0  0  0  0  0  0  0
   34.4110   27.2940   48.7560 H   0  0  0  0  0  0  0  0  0  0  0  0
   33.9960   24.9370   48.1170 H   0  0  0  0  0  0  0  0  0  0  0  0
   33.0170   24.3710   45.9120 H   0  0  0  0  0  0  0  0  0  0  0  0
   33.2770   25.8700   43.0600 C   0  0  0  0  0  0  0  0  0  0  0  0
   32.3240   26.0730   44.0600 C   0  0  0  0  0  0  0  0  0  0  0  0
   30.9680   25.9090   43.7940 C   0  0  0  0  0  0  0  0  0  0  0  0
   30.3000   26.0830   44.6140 H   0  0  0  0  0  0  0  0  0  0  0  0
   30.6130   25.5410   42.5150 C   0  0  0  0  0  0  0  0  0  0  0  0
   29.5450   25.4250   42.3530 H   0  0  0  0  0  0  0  0  0  0  0  0
   31.5170   25.3310   41.4980 C   0  0  0  0  0  3  0  0  0  0  0  0
   32.8520   25.5030   41.7980 C   0  0  0  0  0  3  0  0  0  0  0  0
   35.8200   26.1400   43.4780 N   0  0  0  0  0  0  0  0  0  0  0  0
   34.6950   26.0280   43.2890 C   0  0  0  0  0  0  0  0  0  0  0  0
  1  8  1  0  0  0  0
  2  3  1  0  0  0  0
  3  4  2  0  0  0  0
  3  8  1  0  0  0  0
  4  5  1  0  0  0  0
  5  9  1  0  0  0  0
  5  6  2  0  0  0  0
  6 10  1  0  0  0  0
  7  6  1  0  0  0  0
  7 11  1  0  0  0  0
  8  7  2  0  0  0  0
 12 18  1  0  0  0  0
 12 17  1  0  0  0  0
 13 12  2  0  0  0  0
 14 13  1  0  0  0  0
 14 15  2  0  0  0  0
 15 16  1  0  0  0  0
 16 17  2  0  0  0  0
 16  4  1  0  0  0  0
 19 13  1  0  0  0  0
 20 14  1  0  0  0  0
 21 22  1  0  0  0  0
 22 23  1  0  0  0  0
 23  1  1  0  0  0  0
 23 24  2  0  0  0  0
 24 28  1  0  0  0  0
 25 24  1  0  0  0  0
 25 29  1  0  0  0  0
 26 25  2  0  0  0  0
 27 22  2  0  0  0  0
 27 26  1  0  0  0  0
 30 26  1  0  0  0  0
 31 40  1  0  0  0  0
 31 32  1  0  0  0  0
 32 27  1  0  0  0  0
 33 32  2  0  0  0  0
 33 34  1  0  0  0  0
 35 33  1  0  0  0  0
 36 35  1  0  0  0  0
 37 38  1  0  0  0  0
 37 35  2  0  0  0  0
 38 31  2  0  0  0  0
 40 39  3  0  0  0  0
M  END
>  <minimizedAffinity>
-5.22860861

>  <minimizedRMSD>
1.02203584

$$$$
