
 OpenBabel03272505123D

 40 43  0  0  0  0  0  0  0  0999 V2000
   33.9750   30.0660   47.5090 S   0  0  0  0  0  0  0  0  0  0  0  0
   36.3110   30.9990   45.6790 Cl  0  0  0  0  0  0  0  0  0  0  0  0
   36.6360   30.7790   47.3770 C   0  0  0  0  0  0  0  0  0  0  0  0
   37.9190   31.0320   47.8200 C   0  0  0  0  0  0  0  0  0  0  0  0
   38.1850   30.8590   49.1750 C   0  0  0  0  0  0  0  0  0  0  0  0
   37.1830   30.4470   50.0200 C   0  0  0  0  0  0  0  0  0  0  0  0
   35.9210   30.2120   49.5080 C   0  0  0  0  0  0  0  0  0  0  0  0
   35.5830   30.3610   48.1860 C   0  0  0  0  0  0  0  0  0  0  0  0
   39.1680   31.0450   49.5580 H   0  0  0  0  0  0  0  0  0  0  0  0
   37.3860   30.3110   51.0740 H   0  0  0  0  0  0  0  0  0  0  0  0
   35.1440   29.8870   50.1930 H   0  0  0  0  0  0  0  0  0  0  0  0
   40.1960   33.2310   46.0240 C   0  0  0  0  0  0  0  0  0  0  0  0
   40.8870   32.3750   45.1390 C   0  0  0  0  0  0  0  0  0  0  0  0
   40.5430   31.0200   45.1830 C   0  0  0  0  0  0  0  0  0  0  0  0
   39.5770   30.6060   46.0590 N   0  0  0  0  0  0  0  0  0  0  0  0
   38.9540   31.4700   46.8770 C   0  0  0  0  0  0  0  0  0  0  0  0
   39.2660   32.7660   46.8540 N   0  0  0  0  0  0  0  0  0  0  0  0
   40.3880   34.3080   46.0700 H   0  0  0  0  0  0  0  0  0  0  0  0
   41.6280   32.8150   44.4920 H   0  0  0  0  0  0  0  0  0  0  0  0
   41.0600   30.3600   44.5150 H   0  0  0  0  0  0  0  0  0  0  0  0
   32.4820   29.3140   44.8460 Cl  0  0  0  0  0  0  0  0  0  0  0  0
   33.0390   28.0870   45.9750 C   0  0  0  0  0  0  0  0  0  0  0  0
   33.7030   28.3240   47.1660 C   0  0  0  0  0  0  0  0  0  0  0  0
   34.0890   27.2750   47.9670 C   0  0  0  0  0  0  0  0  0  0  0  0
   33.8230   25.9920   47.5960 C   0  0  0  0  0  0  0  0  0  0  0  0
   33.1560   25.6930   46.4030 C   0  0  0  0  0  0  0  0  0  0  0  0
   32.7830   26.7590   45.6250 C   0  0  0  0  0  0  0  0  0  0  0  0
   34.6050   27.5630   48.8830 H   0  0  0  0  0  0  0  0  0  0  0  0
   34.1460   25.2120   48.2550 H   0  0  0  0  0  0  0  0  0  0  0  0
   32.9650   24.6660   46.1450 H   0  0  0  0  0  0  0  0  0  0  0  0
   32.9400   26.2350   43.2930 C   0  0  0  0  0  0  0  0  0  0  0  0
   32.0900   26.3860   44.3910 C   0  0  0  0  0  0  0  0  0  0  0  0
   30.7190   26.1870   44.2590 C   0  0  0  0  0  0  0  0  0  0  0  0
   30.1320   26.3210   45.1460 H   0  0  0  0  0  0  0  0  0  0  0  0
   30.2450   25.8380   43.0140 C   0  0  0  0  0  0  0  0  0  0  0  0
   29.1700   25.6920   42.9570 H   0  0  0  0  0  0  0  0  0  0  0  0
   31.0470   25.6780   41.9040 C   0  0  0  0  0  3  0  0  0  0  0  0
   32.4010   25.8840   42.0720 C   0  0  0  0  0  3  0  0  0  0  0  0
   35.5040   26.5720   43.4570 N   0  0  0  0  0  0  0  0  0  0  0  0
   34.3690   26.4320   43.3820 C   0  0  0  0  0  0  0  0  0  0  0  0
  1  8  1  0  0  0  0
  2  3  1  0  0  0  0
  3  4  2  0  0  0  0
  3  8  1  0  0  0  0
  4  5  1  0  0  0  0
  5  9  1  0  0  0  0
  5  6  2  0  0  0  0
  6 10  1  0  0  0  0
  7  6  1  0  0  0  0
  7 11  1  0  0  0  0
  8  7  2  0  0  0  0
 12 18  1  0  0  0  0
 12 17  1  0  0  0  0
 13 14  1  0  0  0  0
 13 12  2  0  0  0  0
 14 15  2  0  0  0  0
 15 16  1  0  0  0  0
 16  4  1  0  0  0  0
 17 16  2  0  0  0  0
 19 13  1  0  0  0  0
 20 14  1  0  0  0  0
 21 22  1  0  0  0  0
 22 23  1  0  0  0  0
 23  1  1  0  0  0  0
 23 24  2  0  0  0  0
 24 28  1  0  0  0  0
 25 24  1  0  0  0  0
 25 29  1  0  0  0  0
 26 25  2  0  0  0  0
 27 22  2  0  0  0  0
 27 26  1  0  0  0  0
 30 26  1  0  0  0  0
 31 40  1  0  0  0  0
 31 32  1  0  0  0  0
 32 27  1  0  0  0  0
 33 32  2  0  0  0  0
 33 34  1  0  0  0  0
 35 33  1  0  0  0  0
 36 35  1  0  0  0  0
 37 38  1  0  0  0  0
 37 35  2  0  0  0  0
 38 31  2  0  0  0  0
 40 39  3  0  0  0  0
M  END
>  <minimizedAffinity>
-5.22628307

>  <minimizedRMSD>
1.14184427

$$$$
