
 OpenBabel03272505123D

 40 43  0  0  0  0  0  0  0  0999 V2000
   34.0750   29.9600   47.5250 S   0  0  0  0  0  0  0  0  0  0  0  0
   36.4150   30.9040   45.7060 Cl  0  0  0  0  0  0  0  0  0  0  0  0
   36.7020   30.7910   47.4220 C   0  0  0  0  0  0  0  0  0  0  0  0
   37.9590   31.1290   47.8830 C   0  0  0  0  0  0  0  0  0  0  0  0
   38.1950   31.0420   49.2510 C   0  0  0  0  0  0  0  0  0  0  0  0
   37.1900   30.6290   50.0920 C   0  0  0  0  0  0  0  0  0  0  0  0
   35.9550   30.3070   49.5620 C   0  0  0  0  0  0  0  0  0  0  0  0
   35.6480   30.3680   48.2260 C   0  0  0  0  0  0  0  0  0  0  0  0
   39.1580   31.2950   49.6490 H   0  0  0  0  0  0  0  0  0  0  0  0
   37.3690   30.5600   51.1570 H   0  0  0  0  0  0  0  0  0  0  0  0
   35.1750   29.9830   50.2440 H   0  0  0  0  0  0  0  0  0  0  0  0
   40.2230   33.3270   46.0690 C   0  0  0  0  0  0  0  0  0  0  0  0
   40.9380   32.4650   45.2100 C   0  0  0  0  0  0  0  0  0  0  0  0
   40.6150   31.1060   45.2780 C   0  0  0  0  0  0  0  0  0  0  0  0
   39.6450   30.6940   46.1510 N   0  0  0  0  0  0  0  0  0  0  0  0
   38.9990   31.5640   46.9440 C   0  0  0  0  0  0  0  0  0  0  0  0
   39.2910   32.8650   46.8980 N   0  0  0  0  0  0  0  0  0  0  0  0
   40.3980   34.4080   46.0960 H   0  0  0  0  0  0  0  0  0  0  0  0
   41.6800   32.9030   44.5640 H   0  0  0  0  0  0  0  0  0  0  0  0
   41.1510   30.4410   44.6300 H   0  0  0  0  0  0  0  0  0  0  0  0
   33.8260   29.1490   44.4980 Cl  0  0  0  0  0  0  0  0  0  0  0  0
   33.8430   27.9470   45.7810 C   0  0  0  0  0  0  0  0  0  0  0  0
   33.9490   28.2110   47.1360 C   0  0  0  0  0  0  0  0  0  0  0  0
   33.9510   27.1800   48.0460 C   0  0  0  0  0  0  0  0  0  0  0  0
   33.8480   25.8900   47.6240 C   0  0  0  0  0  0  0  0  0  0  0  0
   33.7390   25.5650   46.2670 C   0  0  0  0  0  0  0  0  0  0  0  0
   33.7400   26.6130   45.3830 C   0  0  0  0  0  0  0  0  0  0  0  0
   34.0380   27.4890   49.0870 H   0  0  0  0  0  0  0  0  0  0  0  0
   33.8550   25.1240   48.3730 H   0  0  0  0  0  0  0  0  0  0  0  0
   33.6610   24.5320   45.9750 H   0  0  0  0  0  0  0  0  0  0  0  0
   32.3040   26.1120   43.5330 C   0  0  0  0  0  0  0  0  0  0  0  0
   33.6240   26.2120   43.9800 C   0  0  0  0  0  0  0  0  0  0  0  0
   34.6860   25.9450   43.1220 C   0  0  0  0  0  0  0  0  0  0  0  0
   35.6680   26.0440   43.5380 H   0  0  0  0  0  0  0  0  0  0  0  0
   34.3800   25.5800   41.8280 C   0  0  0  0  0  0  0  0  0  0  0  0
   35.2390   25.3810   41.1950 H   0  0  0  0  0  0  0  0  0  0  0  0
   33.0950   25.4690   41.3460 C   0  0  0  0  0  3  0  0  0  0  0  0
   32.0680   25.7420   42.2250 C   0  0  0  0  0  3  0  0  0  0  0  0
   30.2720   26.6100   45.0630 N   0  0  0  0  0  0  0  0  0  0  0  0
   31.1700   26.3810   44.3870 C   0  0  0  0  0  0  0  0  0  0  0  0
  1  8  1  0  0  0  0
  2  3  1  0  0  0  0
  3  4  2  0  0  0  0
  3  8  1  0  0  0  0
  4  5  1  0  0  0  0
  5  9  1  0  0  0  0
  5  6  2  0  0  0  0
  6 10  1  0  0  0  0
  7  6  1  0  0  0  0
  7 11  1  0  0  0  0
  8  7  2  0  0  0  0
 12 18  1  0  0  0  0
 12 17  1  0  0  0  0
 13 14  1  0  0  0  0
 13 12  2  0  0  0  0
 14 15  2  0  0  0  0
 15 16  1  0  0  0  0
 16  4  1  0  0  0  0
 17 16  2  0  0  0  0
 19 13  1  0  0  0  0
 20 14  1  0  0  0  0
 21 22  1  0  0  0  0
 22 23  1  0  0  0  0
 23  1  1  0  0  0  0
 23 24  2  0  0  0  0
 24 28  1  0  0  0  0
 25 24  1  0  0  0  0
 25 29  1  0  0  0  0
 26 25  2  0  0  0  0
 27 22  2  0  0  0  0
 27 26  1  0  0  0  0
 30 26  1  0  0  0  0
 31 32  1  0  0  0  0
 31 40  1  0  0  0  0
 32 27  1  0  0  0  0
 33 34  1  0  0  0  0
 33 32  2  0  0  0  0
 35 33  1  0  0  0  0
 36 35  1  0  0  0  0
 37 35  2  0  0  0  0
 37 38  1  0  0  0  0
 38 31  2  0  0  0  0
 40 39  3  0  0  0  0
M  END
>  <minimizedAffinity>
-5.50690699

>  <minimizedRMSD>
0.667197287

$$$$
