
 OpenBabel03272509213D

 47 51  0  0  0  0  0  0  0  0999 V2000
   39.6920   31.8440   46.4460 O   0  0  0  0  0  0  0  0  0  0  0  0
   39.4340   30.3050   44.4900 C   0  0  0  0  0  0  0  0  0  0  0  0
   39.2290   31.4620   45.2140 C   0  0  0  0  0  0  0  0  0  0  0  0
   38.4230   32.4670   44.6670 C   0  0  0  0  0  0  0  0  0  0  0  0
   37.8350   32.2970   43.4080 C   0  0  0  0  0  0  0  0  0  0  0  0
   37.0380   33.0370   42.6220 N   0  0  0  0  0  0  0  0  0  0  0  0
   36.7570   32.3890   41.4760 C   0  0  0  0  0  0  0  0  0  0  0  0
   37.4030   31.1950   41.5430 N   0  0  0  0  0  0  0  0  0  0  0  0
   38.0680   31.1230   42.7180 C   0  0  0  0  0  0  0  0  0  0  0  0
   38.8610   30.1300   43.2510 C   0  0  0  0  0  0  0  0  0  0  0  0
   40.0650   29.6120   45.0070 H   0  0  0  0  0  0  0  0  0  0  0  0
   38.1700   33.4220   45.1100 H   0  0  0  0  0  0  0  0  0  0  0  0
   36.6860   33.9680   42.8560 H   0  0  0  0  0  0  0  0  0  0  0  0
   36.1470   32.7460   40.6770 H   0  0  0  0  0  0  0  0  0  0  0  0
   39.9710   28.6990   41.4750 C   0  0  0  0  0  0  0  0  0  0  0  0
   39.1310   28.8760   42.5560 C   0  0  0  0  0  0  0  0  0  0  0  0
   38.4350   27.8070   43.0980 C   0  0  0  0  0  0  0  0  0  0  0  0
   37.7520   27.8750   43.9560 H   0  0  0  0  0  0  0  0  0  0  0  0
   38.5640   26.5270   42.5680 C   0  0  0  0  0  0  0  0  0  0  0  0
   38.0140   25.6890   42.9980 H   0  0  0  0  0  0  0  0  0  0  0  0
   39.4190   26.3650   41.4730 C   0  0  0  0  0  3  0  0  0  0  0  0
   40.1110   27.4370   40.9360 C   0  0  0  0  0  3  0  0  0  0  0  0
   41.1950   30.8030   40.6030 N   0  0  0  0  0  0  0  0  0  0  0  0
   40.6410   29.8720   40.9940 C   0  0  0  0  0  0  0  0  0  0  0  0
   37.9830   31.3570   48.1000 C   0  0  0  0  0  0  0  0  0  0  0  0
   37.2190   31.6230   49.2200 C   0  0  0  0  0  0  0  0  0  0  0  0
   37.5120   32.8460   49.8310 C   0  0  0  0  0  0  0  0  0  0  0  0
   38.5030   33.7120   49.3320 C   0  0  0  0  0  0  0  0  0  0  0  0
   39.2180   33.3360   48.1840 C   0  0  0  0  0  0  0  0  0  0  0  0
   38.9380   32.1270   47.5680 C   0  0  0  0  0  0  0  0  0  0  0  0
   36.9510   33.1130   50.7090 H   0  0  0  0  0  0  0  0  0  0  0  0
   38.6880   34.6470   49.8450 H   0  0  0  0  0  0  0  0  0  0  0  0
   39.9730   34.0360   47.8340 H   0  0  0  0  0  0  0  0  0  0  0  0
   34.9830   30.6480   49.0920 C   0  0  0  0  0  0  0  0  0  0  0  0
   36.2150   30.7480   49.7300 C   0  0  0  0  0  0  0  0  0  0  0  0
   36.4250   29.9650   50.8780 C   0  0  0  0  0  0  0  0  0  0  0  0
   35.4230   29.1580   51.3030 N   0  0  0  0  0  0  0  0  0  0  0  0
   34.2280   29.0940   50.6410 C   0  0  0  0  0  0  0  0  0  0  0  0
   34.0170   29.8320   49.5500 N   0  0  0  0  0  0  0  0  0  0  0  0
   34.7430   31.2120   48.2090 H   0  0  0  0  0  0  0  0  0  0  0  0
   33.5680   28.3990   51.1310 H   0  0  0  0  0  0  0  0  0  0  0  0
   37.7220   30.0310   51.6000 C   0  0  0  0  0  0  0  0  0  0  0  0
   38.2510   30.9390   51.2740 H   0  0  0  0  0  0  0  0  0  0  0  0
   38.3250   29.1630   51.2570 H   0  0  0  0  0  0  0  0  0  0  0  0
   37.5650   29.9560   52.6820 H   0  0  0  0  0  0  0  0  0  0  0  0
   37.7650   30.1560   47.4160 O   0  0  0  0  0  0  0  0  0  0  0  0
   36.8570   30.0350   46.9950 H   0  0  0  0  0  0  0  0  0  0  0  0
  1 30  1  0  0  0  0
  2 11  1  0  0  0  0
  2  3  1  0  0  0  0
  3  1  1  0  0  0  0
  4 12  1  0  0  0  0
  4  3  2  0  0  0  0
  5  4  1  0  0  0  0
  6 13  1  0  0  0  0
  6  5  1  0  0  0  0
  7  8  2  0  0  0  0
  7  6  1  0  0  0  0
  8  9  1  0  0  0  0
  9 10  1  0  0  0  0
  9  5  2  0  0  0  0
 10  2  2  0  0  0  0
 14  7  1  0  0  0  0
 15 16  1  0  0  0  0
 16 17  2  0  0  0  0
 16 10  1  0  0  0  0
 17 18  1  0  0  0  0
 19 20  1  0  0  0  0
 19 17  1  0  0  0  0
 21 19  2  0  0  0  0
 22 21  1  0  0  0  0
 22 15  2  0  0  0  0
 23 24  3  0  0  0  0
 24 15  1  0  0  0  0
 25 26  1  0  0  0  0
 26 35  1  0  0  0  0
 26 27  2  0  0  0  0
 27 31  1  0  0  0  0
 28 27  1  0  0  0  0
 28 32  1  0  0  0  0
 29 28  2  0  0  0  0
 30 25  2  0  0  0  0
 30 29  1  0  0  0  0
 33 29  1  0  0  0  0
 34 39  2  0  0  0  0
 34 35  1  0  0  0  0
 35 36  2  0  0  0  0
 36 37  1  0  0  0  0
 36 42  1  0  0  0  0
 38 41  1  0  0  0  0
 38 37  2  0  0  0  0
 39 38  1  0  0  0  0
 40 34  1  0  0  0  0
 42 45  1  0  0  0  0
 43 42  1  0  0  0  0
 44 42  1  0  0  0  0
 46 25  1  0  0  0  0
 47 46  1  0  0  0  0
M  END
>  <minimizedAffinity>
-7.05619764

>  <minimizedRMSD>
1.72280049

$$$$
