
 OpenBabel03262523493D

 39 42  0  0  0  0  0  0  0  0999 V2000
   38.8530   26.7480   35.0410 Cl  0  0  0  0  0  0  0  0  0  0  0  0
   38.1300   25.5040   34.0270 C   0  0  0  0  0  0  0  0  0  0  0  0
   37.2840   25.9640   33.0310 C   0  0  0  0  0  0  0  0  0  0  0  0
   36.6560   25.0590   32.1680 C   0  0  0  0  0  0  0  0  0  0  0  0
   36.8830   23.6910   32.3120 C   0  0  0  0  0  0  0  0  0  0  0  0
   37.7260   23.2660   33.3080 C   0  0  0  0  0  0  0  0  0  0  0  0
   38.3500   24.1610   34.1660 C   0  0  0  0  0  0  0  0  0  0  0  0
   35.9930   25.3600   31.3830 H   0  0  0  0  0  0  0  0  0  0  0  0
   36.4140   22.9630   31.6630 H   0  0  0  0  0  0  0  0  0  0  0  0
   37.9600   22.2210   33.4930 H   0  0  0  0  0  0  0  0  0  0  0  0
   35.7860   31.6750   32.1810 Cl  0  0  0  0  0  0  0  0  0  0  0  0
   36.2180   30.0030   32.4460 C   0  0  0  0  0  0  0  0  0  0  0  0
   35.8990   29.3560   33.6110 C   0  0  0  0  0  0  0  0  0  0  0  0
   36.2730   28.0420   33.7410 C   0  0  0  0  0  0  0  0  0  0  0  0
   36.9480   27.3630   32.7560 C   0  0  0  0  0  0  0  0  0  0  0  0
   37.2620   28.0480   31.5760 C   0  0  0  0  0  0  0  0  0  0  0  0
   38.1180   27.1480   30.3550 Cl  0  0  0  0  0  0  0  0  0  0  0  0
   36.8990   29.3640   31.4190 C   0  0  0  0  0  0  0  0  0  0  0  0
   35.9990   27.5610   34.6900 H   0  0  0  0  0  0  0  0  0  0  0  0
   37.1490   29.8850   30.4950 H   0  0  0  0  0  0  0  0  0  0  0  0
   35.1280   31.7290   36.4690 C   0  0  0  0  0  0  0  0  0  0  0  0
   35.8460   30.9930   35.5090 C   0  0  0  0  0  0  0  0  0  0  0  0
   35.1720   30.1420   34.6310 C   0  0  0  0  0  0  0  0  0  0  0  0
   33.8110   30.0610   34.7490 N   0  0  0  0  0  0  0  0  0  0  0  0
   33.1700   30.7880   35.6870 C   0  0  0  0  0  0  0  0  0  0  0  0
   33.8070   31.6020   36.5280 N   0  0  0  0  0  0  0  0  0  0  0  0
   35.6180   32.3860   37.1520 H   0  0  0  0  0  0  0  0  0  0  0  0
   36.9350   31.0860   35.4470 H   0  0  0  0  0  0  0  0  0  0  0  0
   32.0960   30.5640   35.5960 H   0  0  0  0  0  0  0  0  0  0  0  0
   40.6160   23.5730   35.0930 C   0  0  0  0  0  0  0  0  0  0  0  0
   39.2390   23.7240   35.2170 C   0  0  0  0  0  0  0  0  0  0  0  0
   38.6120   23.4460   36.4300 C   0  0  0  0  0  0  0  0  0  0  0  0
   37.5450   23.5390   36.6110 H   0  0  0  0  0  0  0  0  0  0  0  0
   39.3770   23.0220   37.4940 C   0  0  0  0  0  0  0  0  0  0  0  0
   38.9450   22.7870   38.4790 H   0  0  0  0  0  0  0  0  0  0  0  0
   40.7410   22.8760   37.3580 C   0  0  0  0  0  3  0  0  0  0  0  0
   41.3990   23.1450   36.1620 C   0  0  0  0  0  3  0  0  0  0  0  0
   41.6310   24.1250   32.7740 N   0  0  0  0  0  0  0  0  0  0  0  0
   41.1730   23.8850   33.7950 C   0  0  0  0  0  0  0  0  0  0  0  0
  2  7  1  0  0  0  0
  2  1  1  0  0  0  0
  3  2  2  0  0  0  0
  4  5  2  0  0  0  0
  4  3  1  0  0  0  0
  5  6  1  0  0  0  0
  6 10  1  0  0  0  0
  6  7  2  0  0  0  0
  7 31  1  0  0  0  0
  8  4  1  0  0  0  0
  9  5  1  0  0  0  0
 11 12  1  0  0  0  0
 12 13  1  0  0  0  0
 13 14  2  0  0  0  0
 13 23  1  0  0  0  0
 14 19  1  0  0  0  0
 15  3  1  0  0  0  0
 15 14  1  0  0  0  0
 16 15  2  0  0  0  0
 17 16  1  0  0  0  0
 18 16  1  0  0  0  0
 18 12  2  0  0  0  0
 20 18  1  0  0  0  0
 21 26  1  0  0  0  0
 21 27  1  0  0  0  0
 22 21  2  0  0  0  0
 23 24  2  0  0  0  0
 23 22  1  0  0  0  0
 24 25  1  0  0  0  0
 25 26  2  0  0  0  0
 28 22  1  0  0  0  0
 29 25  1  0  0  0  0
 30 31  2  0  0  0  0
 30 37  1  0  0  0  0
 31 32  1  0  0  0  0
 32 33  1  0  0  0  0
 32 34  2  0  0  0  0
 34 35  1  0  0  0  0
 36 34  1  0  0  0  0
 37 36  2  0  0  0  0
 38 39  3  0  0  0  0
 39 30  1  0  0  0  0
M  END
>  <minimizedAffinity>
-6.46801472

$$$$

 OpenBabel03262523493D

 39 42  0  0  0  0  0  0  0  0999 V2000
   39.3640   27.1350   34.2620 Cl  0  0  0  0  0  0  0  0  0  0  0  0
   38.3940   25.8830   33.4950 C   0  0  0  0  0  0  0  0  0  0  0  0
   37.3030   26.3350   32.7710 C   0  0  0  0  0  0  0  0  0  0  0  0
   36.4640   25.4230   32.1210 C   0  0  0  0  0  0  0  0  0  0  0  0
   36.7280   24.0570   32.2030 C   0  0  0  0  0  0  0  0  0  0  0  0
   37.8160   23.6400   32.9280 C   0  0  0  0  0  0  0  0  0  0  0  0
   38.6500   24.5420   33.5740 C   0  0  0  0  0  0  0  0  0  0  0  0
   35.6080   25.7170   31.5480 H   0  0  0  0  0  0  0  0  0  0  0  0
   36.1000   23.3230   31.7130 H   0  0  0  0  0  0  0  0  0  0  0  0
   38.0960   22.5970   33.0460 H   0  0  0  0  0  0  0  0  0  0  0  0
   35.5390   32.0160   32.3230 Cl  0  0  0  0  0  0  0  0  0  0  0  0
   36.0490   30.3510   32.4700 C   0  0  0  0  0  0  0  0  0  0  0  0
   35.8210   29.6300   33.6120 C   0  0  0  0  0  0  0  0  0  0  0  0
   36.2540   28.3280   33.6490 C   0  0  0  0  0  0  0  0  0  0  0  0
   36.8970   27.7310   32.5930 C   0  0  0  0  0  0  0  0  0  0  0  0
   37.1180   28.4910   31.4370 C   0  0  0  0  0  0  0  0  0  0  0  0
   37.9380   27.6940   30.1240 Cl  0  0  0  0  0  0  0  0  0  0  0  0
   36.6960   29.7970   31.3730 C   0  0  0  0  0  0  0  0  0  0  0  0
   36.0510   27.7850   34.5830 H   0  0  0  0  0  0  0  0  0  0  0  0
   36.8730   30.3770   30.4670 H   0  0  0  0  0  0  0  0  0  0  0  0
   35.1190   31.8190   36.6310 C   0  0  0  0  0  0  0  0  0  0  0  0
   35.8100   31.1660   35.5940 C   0  0  0  0  0  0  0  0  0  0  0  0
   35.1230   30.3290   34.7120 C   0  0  0  0  0  0  0  0  0  0  0  0
   33.7760   30.1780   34.9050 N   0  0  0  0  0  0  0  0  0  0  0  0
   33.1610   30.8260   35.9140 C   0  0  0  0  0  0  0  0  0  0  0  0
   33.8100   31.6260   36.7590 N   0  0  0  0  0  0  0  0  0  0  0  0
   35.6200   32.4640   37.3180 H   0  0  0  0  0  0  0  0  0  0  0  0
   36.8880   31.3140   35.4740 H   0  0  0  0  0  0  0  0  0  0  0  0
   32.0940   30.5570   35.8740 H   0  0  0  0  0  0  0  0  0  0  0  0
   39.7920   23.8300   35.7020 C   0  0  0  0  0  0  0  0  0  0  0  0
   39.7970   24.1140   34.3400 C   0  0  0  0  0  0  0  0  0  0  0  0
   40.9730   23.9910   33.6050 C   0  0  0  0  0  0  0  0  0  0  0  0
   41.0630   24.1920   32.5410 H   0  0  0  0  0  0  0  0  0  0  0  0
   42.1230   23.5870   34.2490 C   0  0  0  0  0  0  0  0  0  0  0  0
   43.0860   23.4690   33.7270 H   0  0  0  0  0  0  0  0  0  0  0  0
   42.1050   23.3090   35.5990 C   0  0  0  0  0  3  0  0  0  0  0  0
   40.9470   23.4210   36.3630 C   0  0  0  0  0  3  0  0  0  0  0  0
   37.5160   24.1290   36.9020 N   0  0  0  0  0  0  0  0  0  0  0  0
   38.5220   23.9870   36.3770 C   0  0  0  0  0  0  0  0  0  0  0  0
  2  7  1  0  0  0  0
  2  1  1  0  0  0  0
  3  2  2  0  0  0  0
  4  5  2  0  0  0  0
  4  3  1  0  0  0  0
  5  6  1  0  0  0  0
  6 10  1  0  0  0  0
  6  7  2  0  0  0  0
  7 31  1  0  0  0  0
  8  4  1  0  0  0  0
  9  5  1  0  0  0  0
 11 12  1  0  0  0  0
 12 13  1  0  0  0  0
 13 14  2  0  0  0  0
 13 23  1  0  0  0  0
 14 19  1  0  0  0  0
 15  3  1  0  0  0  0
 15 14  1  0  0  0  0
 16 15  2  0  0  0  0
 17 16  1  0  0  0  0
 18 16  1  0  0  0  0
 18 12  2  0  0  0  0
 20 18  1  0  0  0  0
 21 26  1  0  0  0  0
 21 27  1  0  0  0  0
 22 21  2  0  0  0  0
 23 24  2  0  0  0  0
 23 22  1  0  0  0  0
 24 25  1  0  0  0  0
 25 26  2  0  0  0  0
 28 22  1  0  0  0  0
 29 25  1  0  0  0  0
 30 37  1  0  0  0  0
 30 39  1  0  0  0  0
 31 30  2  0  0  0  0
 32 34  2  0  0  0  0
 32 31  1  0  0  0  0
 33 32  1  0  0  0  0
 34 36  1  0  0  0  0
 35 34  1  0  0  0  0
 36 37  2  0  0  0  0
 39 38  3  0  0  0  0
M  END
>  <minimizedAffinity>
-6.29288244

$$$$

 OpenBabel03262523493D

 39 42  0  0  0  0  0  0  0  0999 V2000
   36.6310   27.4180   34.9450 Cl  0  0  0  0  0  0  0  0  0  0  0  0
   36.4650   28.1100   33.3360 C   0  0  0  0  0  0  0  0  0  0  0  0
   37.0170   27.3640   32.3070 C   0  0  0  0  0  0  0  0  0  0  0  0
   36.9410   27.8230   30.9870 C   0  0  0  0  0  0  0  0  0  0  0  0
   36.3080   29.0330   30.7080 C   0  0  0  0  0  0  0  0  0  0  0  0
   35.7710   29.7490   31.7480 C   0  0  0  0  0  0  0  0  0  0  0  0
   35.8450   29.2970   33.0580 C   0  0  0  0  0  0  0  0  0  0  0  0
   37.3510   27.2880   30.1550 H   0  0  0  0  0  0  0  0  0  0  0  0
   36.2310   29.4190   29.6990 H   0  0  0  0  0  0  0  0  0  0  0  0
   35.2610   30.7000   31.6240 H   0  0  0  0  0  0  0  0  0  0  0  0
   39.5780   22.0010   32.8200 Cl  0  0  0  0  0  0  0  0  0  0  0  0
   38.8120   23.5650   32.6680 C   0  0  0  0  0  0  0  0  0  0  0  0
   37.4590   23.6860   32.4910 C   0  0  0  0  0  0  0  0  0  0  0  0
   36.9350   24.9490   32.3800 C   0  0  0  0  0  0  0  0  0  0  0  0
   37.7100   26.0810   32.4400 C   0  0  0  0  0  0  0  0  0  0  0  0
   39.0910   25.9280   32.6220 C   0  0  0  0  0  0  0  0  0  0  0  0
   40.0350   27.3900   32.6920 Cl  0  0  0  0  0  0  0  0  0  0  0  0
   39.6420   24.6760   32.7360 C   0  0  0  0  0  0  0  0  0  0  0  0
   35.8460   25.0020   32.2390 H   0  0  0  0  0  0  0  0  0  0  0  0
   40.7180   24.5710   32.8770 H   0  0  0  0  0  0  0  0  0  0  0  0
   35.4430   20.7400   31.2050 C   0  0  0  0  0  0  0  0  0  0  0  0
   36.1800   21.9380   31.2280 C   0  0  0  0  0  0  0  0  0  0  0  0
   36.6800   22.4300   32.4360 C   0  0  0  0  0  0  0  0  0  0  0  0
   36.4220   21.7070   33.5680 N   0  0  0  0  0  0  0  0  0  0  0  0
   35.7090   20.5640   33.4930 C   0  0  0  0  0  0  0  0  0  0  0  0
   35.2300   20.0890   32.3440 N   0  0  0  0  0  0  0  0  0  0  0  0
   35.0500   20.3420   30.2970 H   0  0  0  0  0  0  0  0  0  0  0  0
   36.3650   22.4870   30.3000 H   0  0  0  0  0  0  0  0  0  0  0  0
   35.6290   20.1610   34.5140 H   0  0  0  0  0  0  0  0  0  0  0  0
   33.9300   30.1130   34.4750 C   0  0  0  0  0  0  0  0  0  0  0  0
   35.2830   30.0430   34.1610 C   0  0  0  0  0  0  0  0  0  0  0  0
   36.2170   30.7260   34.9360 C   0  0  0  0  0  0  0  0  0  0  0  0
   37.2890   30.7230   34.7600 H   0  0  0  0  0  0  0  0  0  0  0  0
   35.7770   31.4670   36.0110 C   0  0  0  0  0  0  0  0  0  0  0  0
   36.4620   32.0290   36.6650 H   0  0  0  0  0  0  0  0  0  0  0  0
   34.4330   31.5280   36.3120 C   0  0  0  0  0  3  0  0  0  0  0  0
   33.4740   30.8580   35.5590 C   0  0  0  0  0  3  0  0  0  0  0  0
   32.3260   28.7990   32.9220 N   0  0  0  0  0  0  0  0  0  0  0  0
   33.0390   29.3700   33.6100 C   0  0  0  0  0  0  0  0  0  0  0  0
  2  1  1  0  0  0  0
  3 15  1  0  0  0  0
  3  2  2  0  0  0  0
  4  3  1  0  0  0  0
  5  4  2  0  0  0  0
  5  6  1  0  0  0  0
  6  7  2  0  0  0  0
  7  2  1  0  0  0  0
  7 31  1  0  0  0  0
  8  4  1  0  0  0  0
  9  5  1  0  0  0  0
 10  6  1  0  0  0  0
 12 18  1  0  0  0  0
 12 11  1  0  0  0  0
 13 12  2  0  0  0  0
 14 15  2  0  0  0  0
 14 13  1  0  0  0  0
 15 16  1  0  0  0  0
 16 17  1  0  0  0  0
 16 18  2  0  0  0  0
 18 20  1  0  0  0  0
 19 14  1  0  0  0  0
 21 22  2  0  0  0  0
 21 26  1  0  0  0  0
 22 23  1  0  0  0  0
 23 13  1  0  0  0  0
 23 24  2  0  0  0  0
 25 24  1  0  0  0  0
 25 29  1  0  0  0  0
 26 25  2  0  0  0  0
 27 21  1  0  0  0  0
 28 22  1  0  0  0  0
 30 37  1  0  0  0  0
 31 30  2  0  0  0  0
 31 32  1  0  0  0  0
 32 34  2  0  0  0  0
 33 32  1  0  0  0  0
 34 36  1  0  0  0  0
 34 35  1  0  0  0  0
 37 36  2  0  0  0  0
 38 39  3  0  0  0  0
 39 30  1  0  0  0  0
M  END
>  <minimizedAffinity>
-6.26251793

$$$$

 OpenBabel03262523493D

 39 42  0  0  0  0  0  0  0  0999 V2000
   35.9690   23.6110   31.2230 Cl  0  0  0  0  0  0  0  0  0  0  0  0
   37.1770   23.3920   32.4840 C   0  0  0  0  0  0  0  0  0  0  0  0
   37.8470   24.5400   32.8730 C   0  0  0  0  0  0  0  0  0  0  0  0
   38.8290   24.4790   33.8680 C   0  0  0  0  0  0  0  0  0  0  0  0
   39.1310   23.2580   34.4700 C   0  0  0  0  0  0  0  0  0  0  0  0
   38.4510   22.1380   34.0630 C   0  0  0  0  0  0  0  0  0  0  0  0
   37.4770   22.1960   33.0760 C   0  0  0  0  0  0  0  0  0  0  0  0
   39.3770   25.3340   34.2060 H   0  0  0  0  0  0  0  0  0  0  0  0
   39.8850   23.1730   35.2430 H   0  0  0  0  0  0  0  0  0  0  0  0
   38.6210   21.1470   34.4760 H   0  0  0  0  0  0  0  0  0  0  0  0
   36.8110   30.0760   30.9070 Cl  0  0  0  0  0  0  0  0  0  0  0  0
   37.1020   28.4560   31.4960 C   0  0  0  0  0  0  0  0  0  0  0  0
   36.4350   27.9580   32.5830 C   0  0  0  0  0  0  0  0  0  0  0  0
   36.7210   26.6770   32.9820 C   0  0  0  0  0  0  0  0  0  0  0  0
   37.6420   25.8880   32.3370 C   0  0  0  0  0  0  0  0  0  0  0  0
   38.3110   26.4230   31.2290 C   0  0  0  0  0  0  0  0  0  0  0  0
   39.4700   25.3880   30.4430 Cl  0  0  0  0  0  0  0  0  0  0  0  0
   38.0430   27.7030   30.8070 C   0  0  0  0  0  0  0  0  0  0  0  0
   36.1640   26.3150   33.8580 H   0  0  0  0  0  0  0  0  0  0  0  0
   38.5710   28.1060   29.9430 H   0  0  0  0  0  0  0  0  0  0  0  0
   34.8380   30.4400   34.9670 C   0  0  0  0  0  0  0  0  0  0  0  0
   35.7890   29.5930   34.3700 C   0  0  0  0  0  0  0  0  0  0  0  0
   35.4560   28.8560   33.2320 C   0  0  0  0  0  0  0  0  0  0  0  0
   34.1870   28.9950   32.7390 N   0  0  0  0  0  0  0  0  0  0  0  0
   33.3120   29.8210   33.3480 C   0  0  0  0  0  0  0  0  0  0  0  0
   33.6230   30.5270   34.4340 N   0  0  0  0  0  0  0  0  0  0  0  0
   35.0660   31.0140   35.8360 H   0  0  0  0  0  0  0  0  0  0  0  0
   36.7940   29.5100   34.7960 H   0  0  0  0  0  0  0  0  0  0  0  0
   32.3680   29.7710   32.7830 H   0  0  0  0  0  0  0  0  0  0  0  0
   35.8860   20.2760   33.4300 C   0  0  0  0  0  0  0  0  0  0  0  0
   36.7550   21.0230   32.6400 C   0  0  0  0  0  0  0  0  0  0  0  0
   36.9840   20.6580   31.3160 C   0  0  0  0  0  0  0  0  0  0  0  0
   37.6440   21.1850   30.6330 H   0  0  0  0  0  0  0  0  0  0  0  0
   36.3390   19.5510   30.8090 C   0  0  0  0  0  0  0  0  0  0  0  0
   36.4750   19.2080   29.7710 H   0  0  0  0  0  0  0  0  0  0  0  0
   35.4810   18.8190   31.6010 C   0  0  0  0  0  3  0  0  0  0  0  0
   35.2300   19.1560   32.9280 C   0  0  0  0  0  3  0  0  0  0  0  0
   35.5650   21.0840   35.8700 N   0  0  0  0  0  0  0  0  0  0  0  0
   35.7150   20.7350   34.7910 C   0  0  0  0  0  0  0  0  0  0  0  0
  1  2  1  0  0  0  0
  2  3  2  0  0  0  0
  2  7  1  0  0  0  0
  3  4  1  0  0  0  0
  4  8  1  0  0  0  0
  4  5  2  0  0  0  0
  5  9  1  0  0  0  0
  6  5  1  0  0  0  0
  6 10  1  0  0  0  0
  7  6  2  0  0  0  0
 11 12  1  0  0  0  0
 12 13  1  0  0  0  0
 13 14  2  0  0  0  0
 13 23  1  0  0  0  0
 14 19  1  0  0  0  0
 15  3  1  0  0  0  0
 15 14  1  0  0  0  0
 16 15  2  0  0  0  0
 17 16  1  0  0  0  0
 18 16  1  0  0  0  0
 18 12  2  0  0  0  0
 20 18  1  0  0  0  0
 21 27  1  0  0  0  0
 22 28  1  0  0  0  0
 22 21  2  0  0  0  0
 23 22  1  0  0  0  0
 24 23  2  0  0  0  0
 24 25  1  0  0  0  0
 25 26  2  0  0  0  0
 26 21  1  0  0  0  0
 29 25  1  0  0  0  0
 30 39  1  0  0  0  0
 31  7  1  0  0  0  0
 31 30  2  0  0  0  0
 32 31  1  0  0  0  0
 33 32  1  0  0  0  0
 34 32  2  0  0  0  0
 34 36  1  0  0  0  0
 35 34  1  0  0  0  0
 36 37  2  0  0  0  0
 37 30  1  0  0  0  0
 39 38  3  0  0  0  0
M  END
>  <minimizedAffinity>
-6.25937939

$$$$

 OpenBabel03262523493D

 39 42  0  0  0  0  0  0  0  0999 V2000
   35.6430   24.8960   31.3500 Cl  0  0  0  0  0  0  0  0  0  0  0  0
   36.9980   24.6830   32.4520 C   0  0  0  0  0  0  0  0  0  0  0  0
   37.5550   25.8520   32.9450 C   0  0  0  0  0  0  0  0  0  0  0  0
   38.6380   25.7980   33.8290 C   0  0  0  0  0  0  0  0  0  0  0  0
   39.1570   24.5630   34.2160 C   0  0  0  0  0  0  0  0  0  0  0  0
   38.5840   23.4220   33.7110 C   0  0  0  0  0  0  0  0  0  0  0  0
   37.5100   23.4730   32.8330 C   0  0  0  0  0  0  0  0  0  0  0  0
   39.1060   26.6690   34.2390 H   0  0  0  0  0  0  0  0  0  0  0  0
   39.9940   24.4830   34.8980 H   0  0  0  0  0  0  0  0  0  0  0  0
   38.9230   22.4190   33.9570 H   0  0  0  0  0  0  0  0  0  0  0  0
   35.6740   31.4240   31.9470 Cl  0  0  0  0  0  0  0  0  0  0  0  0
   36.2180   29.7920   32.2550 C   0  0  0  0  0  0  0  0  0  0  0  0
   35.9580   29.1630   33.4440 C   0  0  0  0  0  0  0  0  0  0  0  0
   36.4190   27.8810   33.6070 C   0  0  0  0  0  0  0  0  0  0  0  0
   37.1230   27.2170   32.6330 C   0  0  0  0  0  0  0  0  0  0  0  0
   37.3760   27.8840   31.4280 C   0  0  0  0  0  0  0  0  0  0  0  0
   38.2720   27.0040   30.2220 Cl  0  0  0  0  0  0  0  0  0  0  0  0
   36.9250   29.1680   31.2370 C   0  0  0  0  0  0  0  0  0  0  0  0
   36.1900   27.4120   34.5740 H   0  0  0  0  0  0  0  0  0  0  0  0
   37.1290   29.6760   30.2940 H   0  0  0  0  0  0  0  0  0  0  0  0
   35.0770   31.5410   36.2660 C   0  0  0  0  0  0  0  0  0  0  0  0
   35.8290   30.8230   35.3180 C   0  0  0  0  0  0  0  0  0  0  0  0
   35.1950   29.9310   34.4510 C   0  0  0  0  0  0  0  0  0  0  0  0
   33.8380   29.7920   34.5680 N   0  0  0  0  0  0  0  0  0  0  0  0
   33.1640   30.5040   35.4940 C   0  0  0  0  0  0  0  0  0  0  0  0
   33.7620   31.3570   36.3240 N   0  0  0  0  0  0  0  0  0  0  0  0
   35.5360   32.2290   36.9400 H   0  0  0  0  0  0  0  0  0  0  0  0
   36.9120   30.9630   35.2560 H   0  0  0  0  0  0  0  0  0  0  0  0
   32.1010   30.2320   35.4040 H   0  0  0  0  0  0  0  0  0  0  0  0
   37.2690   21.6540   31.1100 C   0  0  0  0  0  0  0  0  0  0  0  0
   36.9000   22.2790   32.2970 C   0  0  0  0  0  0  0  0  0  0  0  0
   35.8680   21.7550   33.0710 C   0  0  0  0  0  0  0  0  0  0  0  0
   35.5200   22.1800   34.0090 H   0  0  0  0  0  0  0  0  0  0  0  0
   35.2240   20.6150   32.6410 C   0  0  0  0  0  0  0  0  0  0  0  0
   34.4020   20.1490   33.2060 H   0  0  0  0  0  0  0  0  0  0  0  0
   35.5980   20.0050   31.4630 C   0  0  0  0  0  3  0  0  0  0  0  0
   36.6250   20.5020   30.6660 C   0  0  0  0  0  3  0  0  0  0  0  0
   39.1960   22.7810   29.7960 N   0  0  0  0  0  0  0  0  0  0  0  0
   38.3510   22.2740   30.3770 C   0  0  0  0  0  0  0  0  0  0  0  0
  1  2  1  0  0  0  0
  2  7  2  0  0  0  0
  2  3  1  0  0  0  0
  3  4  2  0  0  0  0
  4  5  1  0  0  0  0
  4  8  1  0  0  0  0
  5  9  1  0  0  0  0
  6 10  1  0  0  0  0
  6  5  2  0  0  0  0
  7  6  1  0  0  0  0
 11 12  1  0  0  0  0
 12 13  1  0  0  0  0
 13 14  2  0  0  0  0
 13 23  1  0  0  0  0
 14 19  1  0  0  0  0
 15  3  1  0  0  0  0
 15 14  1  0  0  0  0
 16 15  2  0  0  0  0
 17 16  1  0  0  0  0
 18 16  1  0  0  0  0
 18 12  2  0  0  0  0
 20 18  1  0  0  0  0
 21 26  1  0  0  0  0
 21 27  1  0  0  0  0
 22 21  2  0  0  0  0
 23 24  2  0  0  0  0
 23 22  1  0  0  0  0
 24 25  1  0  0  0  0
 25 26  2  0  0  0  0
 28 22  1  0  0  0  0
 29 25  1  0  0  0  0
 30 31  1  0  0  0  0
 31  7  1  0  0  0  0
 31 32  2  0  0  0  0
 32 33  1  0  0  0  0
 34 32  1  0  0  0  0
 34 35  1  0  0  0  0
 36 34  2  0  0  0  0
 37 30  2  0  0  0  0
 37 36  1  0  0  0  0
 38 39  3  0  0  0  0
 39 30  1  0  0  0  0
M  END
>  <minimizedAffinity>
-6.22732544

$$$$

 OpenBabel03262523493D

 39 42  0  0  0  0  0  0  0  0999 V2000
   39.7880   25.6770   34.5000 Cl  0  0  0  0  0  0  0  0  0  0  0  0
   38.7920   24.3810   33.8470 C   0  0  0  0  0  0  0  0  0  0  0  0
   37.8760   24.7630   32.8810 C   0  0  0  0  0  0  0  0  0  0  0  0
   37.0330   23.8110   32.2950 C   0  0  0  0  0  0  0  0  0  0  0  0
   37.1180   22.4750   32.6860 C   0  0  0  0  0  0  0  0  0  0  0  0
   38.0360   22.1280   33.6450 C   0  0  0  0  0  0  0  0  0  0  0  0
   38.8730   23.0700   34.2280 C   0  0  0  0  0  0  0  0  0  0  0  0
   36.3080   24.0510   31.5450 H   0  0  0  0  0  0  0  0  0  0  0  0
   36.4820   21.7130   32.2540 H   0  0  0  0  0  0  0  0  0  0  0  0
   38.1710   21.1130   34.0090 H   0  0  0  0  0  0  0  0  0  0  0  0
   36.8180   30.3240   31.0000 Cl  0  0  0  0  0  0  0  0  0  0  0  0
   37.1160   28.6970   31.5630 C   0  0  0  0  0  0  0  0  0  0  0  0
   36.3980   28.1530   32.5960 C   0  0  0  0  0  0  0  0  0  0  0  0
   36.6930   26.8690   32.9790 C   0  0  0  0  0  0  0  0  0  0  0  0
   37.6690   26.1200   32.3690 C   0  0  0  0  0  0  0  0  0  0  0  0
   38.3880   26.7000   31.3160 C   0  0  0  0  0  0  0  0  0  0  0  0
   39.6160   25.7140   30.5730 Cl  0  0  0  0  0  0  0  0  0  0  0  0
   38.1140   27.9840   30.9120 C   0  0  0  0  0  0  0  0  0  0  0  0
   36.0950   26.4710   33.8100 H   0  0  0  0  0  0  0  0  0  0  0  0
   38.6810   28.4230   30.0910 H   0  0  0  0  0  0  0  0  0  0  0  0
   34.6210   30.5750   34.9130 C   0  0  0  0  0  0  0  0  0  0  0  0
   35.6270   29.7690   34.3510 C   0  0  0  0  0  0  0  0  0  0  0  0
   35.3610   29.0100   33.2090 C   0  0  0  0  0  0  0  0  0  0  0  0
   34.1020   29.0890   32.6780 N   0  0  0  0  0  0  0  0  0  0  0  0
   33.1730   29.8770   33.2540 C   0  0  0  0  0  0  0  0  0  0  0  0
   33.4200   30.6040   34.3430 N   0  0  0  0  0  0  0  0  0  0  0  0
   34.7970   31.1650   35.7840 H   0  0  0  0  0  0  0  0  0  0  0  0
   36.6210   29.7340   34.8060 H   0  0  0  0  0  0  0  0  0  0  0  0
   32.2500   29.7820   32.6620 H   0  0  0  0  0  0  0  0  0  0  0  0
   39.6450   22.8220   36.6110 C   0  0  0  0  0  0  0  0  0  0  0  0
   39.8420   22.7140   35.2390 C   0  0  0  0  0  0  0  0  0  0  0  0
   41.0500   22.2310   34.7410 C   0  0  0  0  0  0  0  0  0  0  0  0
   41.2830   22.1160   33.6860 H   0  0  0  0  0  0  0  0  0  0  0  0
   42.0380   21.8650   35.6290 C   0  0  0  0  0  0  0  0  0  0  0  0
   43.0150   21.4750   35.3020 H   0  0  0  0  0  0  0  0  0  0  0  0
   41.8310   21.9760   36.9870 C   0  0  0  0  0  3  0  0  0  0  0  0
   40.6360   22.4550   37.5180 C   0  0  0  0  0  3  0  0  0  0  0  0
   37.3500   23.7480   37.3750 N   0  0  0  0  0  0  0  0  0  0  0  0
   38.3590   23.3340   37.0290 C   0  0  0  0  0  0  0  0  0  0  0  0
  2  7  1  0  0  0  0
  2  1  1  0  0  0  0
  3  2  2  0  0  0  0
  4  5  2  0  0  0  0
  4  3  1  0  0  0  0
  5  6  1  0  0  0  0
  6 10  1  0  0  0  0
  6  7  2  0  0  0  0
  7 31  1  0  0  0  0
  8  4  1  0  0  0  0
  9  5  1  0  0  0  0
 11 12  1  0  0  0  0
 12 13  1  0  0  0  0
 13 14  2  0  0  0  0
 13 23  1  0  0  0  0
 14 19  1  0  0  0  0
 15  3  1  0  0  0  0
 15 14  1  0  0  0  0
 16 15  2  0  0  0  0
 17 16  1  0  0  0  0
 18 16  1  0  0  0  0
 18 12  2  0  0  0  0
 20 18  1  0  0  0  0
 21 27  1  0  0  0  0
 22 28  1  0  0  0  0
 22 21  1  0  0  0  0
 23 22  2  0  0  0  0
 24 23  1  0  0  0  0
 24 25  2  0  0  0  0
 25 26  1  0  0  0  0
 26 21  2  0  0  0  0
 29 25  1  0  0  0  0
 30 39  1  0  0  0  0
 30 37  1  0  0  0  0
 31 30  2  0  0  0  0
 32 31  1  0  0  0  0
 32 34  2  0  0  0  0
 33 32  1  0  0  0  0
 34 36  1  0  0  0  0
 35 34  1  0  0  0  0
 36 37  2  0  0  0  0
 39 38  3  0  0  0  0
M  END
>  <minimizedAffinity>
-6.10662746

$$$$

 OpenBabel03262523493D

 39 42  0  0  0  0  0  0  0  0999 V2000
   36.6350   28.0240   34.3220 Cl  0  0  0  0  0  0  0  0  0  0  0  0
   36.2360   28.9920   32.9070 C   0  0  0  0  0  0  0  0  0  0  0  0
   36.6930   28.4950   31.6970 C   0  0  0  0  0  0  0  0  0  0  0  0
   36.4310   29.1860   30.5090 C   0  0  0  0  0  0  0  0  0  0  0  0
   35.7090   30.3790   30.5450 C   0  0  0  0  0  0  0  0  0  0  0  0
   35.2700   30.8450   31.7580 C   0  0  0  0  0  0  0  0  0  0  0  0
   35.5290   30.1620   32.9380 C   0  0  0  0  0  0  0  0  0  0  0  0
   36.7600   28.8480   29.5480 H   0  0  0  0  0  0  0  0  0  0  0  0
   35.4880   30.9400   29.6450 H   0  0  0  0  0  0  0  0  0  0  0  0
   34.7020   31.7640   31.8800 H   0  0  0  0  0  0  0  0  0  0  0  0
   39.5950   23.3280   31.0160 Cl  0  0  0  0  0  0  0  0  0  0  0  0
   38.7310   24.8330   31.2230 C   0  0  0  0  0  0  0  0  0  0  0  0
   37.4910   24.8740   31.8040 C   0  0  0  0  0  0  0  0  0  0  0  0
   36.8790   26.0960   31.9300 C   0  0  0  0  0  0  0  0  0  0  0  0
   37.4610   27.2630   31.4990 C   0  0  0  0  0  0  0  0  0  0  0  0
   38.7290   27.1930   30.9080 C   0  0  0  0  0  0  0  0  0  0  0  0
   39.4260   28.6970   30.3770 Cl  0  0  0  0  0  0  0  0  0  0  0  0
   39.3640   25.9830   30.7700 C   0  0  0  0  0  0  0  0  0  0  0  0
   35.8870   26.0850   32.4010 H   0  0  0  0  0  0  0  0  0  0  0  0
   40.3510   25.9420   30.3080 H   0  0  0  0  0  0  0  0  0  0  0  0
   35.2930   21.7920   32.0510 C   0  0  0  0  0  0  0  0  0  0  0  0
   35.8150   23.0200   31.6080 C   0  0  0  0  0  0  0  0  0  0  0  0
   36.9210   23.5840   32.2470 C   0  0  0  0  0  0  0  0  0  0  0  0
   37.4590   22.8960   33.3010 N   0  0  0  0  0  0  0  0  0  0  0  0
   36.9220   21.7210   33.6870 C   0  0  0  0  0  0  0  0  0  0  0  0
   35.8670   21.1780   33.0820 N   0  0  0  0  0  0  0  0  0  0  0  0
   34.4490   21.3390   31.5810 H   0  0  0  0  0  0  0  0  0  0  0  0
   35.3550   23.5390   30.7600 H   0  0  0  0  0  0  0  0  0  0  0  0
   37.5120   21.3570   34.5420 H   0  0  0  0  0  0  0  0  0  0  0  0
   33.8120   30.4120   34.7640 C   0  0  0  0  0  0  0  0  0  0  0  0
   35.0720   30.6450   34.2210 C   0  0  0  0  0  0  0  0  0  0  0  0
   36.0080   31.3970   34.9250 C   0  0  0  0  0  0  0  0  0  0  0  0
   37.0110   31.6250   34.5740 H   0  0  0  0  0  0  0  0  0  0  0  0
   35.6640   31.9020   36.1600 C   0  0  0  0  0  0  0  0  0  0  0  0
   36.3570   32.5040   36.7700 H   0  0  0  0  0  0  0  0  0  0  0  0
   34.4130   31.6640   36.6880 C   0  0  0  0  0  3  0  0  0  0  0  0
   33.4540   30.9160   36.0110 C   0  0  0  0  0  3  0  0  0  0  0  0
   32.2090   28.9980   33.3010 N   0  0  0  0  0  0  0  0  0  0  0  0
   32.9110   29.6200   33.9560 C   0  0  0  0  0  0  0  0  0  0  0  0
  2  7  1  0  0  0  0
  2  1  1  0  0  0  0
  3  2  2  0  0  0  0
  4  5  2  0  0  0  0
  4  3  1  0  0  0  0
  5  6  1  0  0  0  0
  6 10  1  0  0  0  0
  6  7  2  0  0  0  0
  7 31  1  0  0  0  0
  8  4  1  0  0  0  0
  9  5  1  0  0  0  0
 11 12  1  0  0  0  0
 12 13  1  0  0  0  0
 13 14  2  0  0  0  0
 13 23  1  0  0  0  0
 14 19  1  0  0  0  0
 15  3  1  0  0  0  0
 15 14  1  0  0  0  0
 16 15  2  0  0  0  0
 17 16  1  0  0  0  0
 18 16  1  0  0  0  0
 18 12  2  0  0  0  0
 20 18  1  0  0  0  0
 21 26  1  0  0  0  0
 22 21  2  0  0  0  0
 22 23  1  0  0  0  0
 23 24  2  0  0  0  0
 24 25  1  0  0  0  0
 25 29  1  0  0  0  0
 26 25  2  0  0  0  0
 27 21  1  0  0  0  0
 28 22  1  0  0  0  0
 30 37  1  0  0  0  0
 31 30  2  0  0  0  0
 31 32  1  0  0  0  0
 32 34  2  0  0  0  0
 33 32  1  0  0  0  0
 34 36  1  0  0  0  0
 34 35  1  0  0  0  0
 37 36  2  0  0  0  0
 38 39  3  0  0  0  0
 39 30  1  0  0  0  0
M  END
>  <minimizedAffinity>
-6.05420732

$$$$

 OpenBabel03262523493D

 39 42  0  0  0  0  0  0  0  0999 V2000
   36.3710   27.8900   34.7800 Cl  0  0  0  0  0  0  0  0  0  0  0  0
   36.2640   28.8860   33.3330 C   0  0  0  0  0  0  0  0  0  0  0  0
   36.8930   28.3740   32.2100 C   0  0  0  0  0  0  0  0  0  0  0  0
   36.8690   29.0860   31.0050 C   0  0  0  0  0  0  0  0  0  0  0  0
   36.2110   30.3130   30.9370 C   0  0  0  0  0  0  0  0  0  0  0  0
   35.5980   30.7940   32.0660 C   0  0  0  0  0  0  0  0  0  0  0  0
   35.6200   30.0900   33.2630 C   0  0  0  0  0  0  0  0  0  0  0  0
   37.3380   28.7380   30.1080 H   0  0  0  0  0  0  0  0  0  0  0  0
   36.1720   30.8910   30.0220 H   0  0  0  0  0  0  0  0  0  0  0  0
   35.0630   31.7390   32.1050 H   0  0  0  0  0  0  0  0  0  0  0  0
   40.1010   23.3510   31.9710 Cl  0  0  0  0  0  0  0  0  0  0  0  0
   39.1750   24.8310   32.0480 C   0  0  0  0  0  0  0  0  0  0  0  0
   39.7280   26.0000   32.5010 C   0  0  0  0  0  0  0  0  0  0  0  0
   38.9340   27.1190   32.5300 C   0  0  0  0  0  0  0  0  0  0  0  0
   37.6220   27.1070   32.1240 C   0  0  0  0  0  0  0  0  0  0  0  0
   37.0810   25.8980   31.6660 C   0  0  0  0  0  0  0  0  0  0  0  0
   35.4140   25.9300   31.1630 Cl  0  0  0  0  0  0  0  0  0  0  0  0
   37.8530   24.7630   31.6260 C   0  0  0  0  0  0  0  0  0  0  0  0
   39.4150   28.0350   32.9000 H   0  0  0  0  0  0  0  0  0  0  0  0
   37.4210   23.8290   31.2670 H   0  0  0  0  0  0  0  0  0  0  0  0
   42.8550   25.6930   34.6270 C   0  0  0  0  0  0  0  0  0  0  0  0
   41.4990   25.7390   34.2550 C   0  0  0  0  0  0  0  0  0  0  0  0
   41.1440   25.9470   32.9210 C   0  0  0  0  0  0  0  0  0  0  0  0
   42.1580   26.1000   32.0150 N   0  0  0  0  0  0  0  0  0  0  0  0
   43.4420   26.0480   32.4220 C   0  0  0  0  0  0  0  0  0  0  0  0
   43.7880   25.8500   33.6930 N   0  0  0  0  0  0  0  0  0  0  0  0
   43.1540   25.5350   35.6390 H   0  0  0  0  0  0  0  0  0  0  0  0
   40.7180   25.6110   35.0120 H   0  0  0  0  0  0  0  0  0  0  0  0
   44.0730   26.1960   31.5320 H   0  0  0  0  0  0  0  0  0  0  0  0
   33.6500   30.3630   34.8080 C   0  0  0  0  0  0  0  0  0  0  0  0
   34.9780   30.5880   34.4580 C   0  0  0  0  0  0  0  0  0  0  0  0
   35.8010   31.3450   35.2870 C   0  0  0  0  0  0  0  0  0  0  0  0
   36.8460   31.5660   35.0880 H   0  0  0  0  0  0  0  0  0  0  0  0
   35.2780   31.8630   36.4520 C   0  0  0  0  0  0  0  0  0  0  0  0
   35.8750   32.4690   37.1520 H   0  0  0  0  0  0  0  0  0  0  0  0
   33.9610   31.6340   36.7880 C   0  0  0  0  0  3  0  0  0  0  0  0
   33.1120   30.8810   35.9820 C   0  0  0  0  0  3  0  0  0  0  0  0
   32.2540   28.9500   33.1450 N   0  0  0  0  0  0  0  0  0  0  0  0
   32.8770   29.5650   33.8810 C   0  0  0  0  0  0  0  0  0  0  0  0
  2  1  1  0  0  0  0
  3  2  2  0  0  0  0
  4  3  1  0  0  0  0
  5  4  2  0  0  0  0
  5  6  1  0  0  0  0
  6 10  1  0  0  0  0
  6  7  2  0  0  0  0
  7  2  1  0  0  0  0
  7 31  1  0  0  0  0
  8  4  1  0  0  0  0
  9  5  1  0  0  0  0
 11 12  1  0  0  0  0
 12 13  1  0  0  0  0
 13 14  2  0  0  0  0
 13 23  1  0  0  0  0
 14 19  1  0  0  0  0
 15  3  1  0  0  0  0
 15 14  1  0  0  0  0
 16 15  2  0  0  0  0
 17 16  1  0  0  0  0
 18 16  1  0  0  0  0
 18 12  2  0  0  0  0
 20 18  1  0  0  0  0
 21 27  1  0  0  0  0
 22 21  1  0  0  0  0
 22 28  1  0  0  0  0
 23 22  2  0  0  0  0
 24 25  2  0  0  0  0
 24 23  1  0  0  0  0
 25 26  1  0  0  0  0
 26 21  2  0  0  0  0
 29 25  1  0  0  0  0
 30 37  1  0  0  0  0
 31 30  2  0  0  0  0
 31 32  1  0  0  0  0
 32 34  2  0  0  0  0
 33 32  1  0  0  0  0
 34 36  1  0  0  0  0
 34 35  1  0  0  0  0
 37 36  2  0  0  0  0
 38 39  3  0  0  0  0
 39 30  1  0  0  0  0
M  END
>  <minimizedAffinity>
-6.01972628

$$$$

 OpenBabel03262523493D

 39 42  0  0  0  0  0  0  0  0999 V2000
   35.9240   28.9320   34.3770 Cl  0  0  0  0  0  0  0  0  0  0  0  0
   35.1670   30.0040   33.2050 C   0  0  0  0  0  0  0  0  0  0  0  0
   35.5340   29.7960   31.8850 C   0  0  0  0  0  0  0  0  0  0  0  0
   34.9920   30.5940   30.8710 C   0  0  0  0  0  0  0  0  0  0  0  0
   34.0800   31.5990   31.1910 C   0  0  0  0  0  0  0  0  0  0  0  0
   33.7360   31.7800   32.5070 C   0  0  0  0  0  0  0  0  0  0  0  0
   34.2730   30.9900   33.5150 C   0  0  0  0  0  0  0  0  0  0  0  0
   35.2400   30.4780   29.8360 H   0  0  0  0  0  0  0  0  0  0  0  0
   33.6400   32.2350   30.4330 H   0  0  0  0  0  0  0  0  0  0  0  0
   33.0350   32.5370   32.8470 H   0  0  0  0  0  0  0  0  0  0  0  0
   39.2030   25.4770   30.0230 Cl  0  0  0  0  0  0  0  0  0  0  0  0
   38.1180   26.7310   30.5770 C   0  0  0  0  0  0  0  0  0  0  0  0
   37.0270   26.4430   31.3540 C   0  0  0  0  0  0  0  0  0  0  0  0
   36.2240   27.4840   31.7470 C   0  0  0  0  0  0  0  0  0  0  0  0
   36.4750   28.7870   31.3940 C   0  0  0  0  0  0  0  0  0  0  0  0
   37.5970   29.0530   30.5990 C   0  0  0  0  0  0  0  0  0  0  0  0
   37.8740   30.7190   30.1750 Cl  0  0  0  0  0  0  0  0  0  0  0  0
   38.4180   28.0300   30.1910 C   0  0  0  0  0  0  0  0  0  0  0  0
   35.3600   27.2100   32.3690 H   0  0  0  0  0  0  0  0  0  0  0  0
   39.2880   28.2520   29.5720 H   0  0  0  0  0  0  0  0  0  0  0  0
   35.6690   22.9010   31.3980 C   0  0  0  0  0  0  0  0  0  0  0  0
   35.8500   24.2510   31.0470 C   0  0  0  0  0  0  0  0  0  0  0  0
   36.8140   25.0220   31.7010 C   0  0  0  0  0  0  0  0  0  0  0  0
   37.5550   24.4110   32.6760 N   0  0  0  0  0  0  0  0  0  0  0  0
   37.3420   23.1140   32.9750 C   0  0  0  0  0  0  0  0  0  0  0  0
   36.4240   22.3730   32.3550 N   0  0  0  0  0  0  0  0  0  0  0  0
   34.9400   22.2900   30.9150 H   0  0  0  0  0  0  0  0  0  0  0  0
   35.2360   24.7010   30.2610 H   0  0  0  0  0  0  0  0  0  0  0  0
   38.0450   22.8440   33.7780 H   0  0  0  0  0  0  0  0  0  0  0  0
   34.6270   31.9440   35.8190 C   0  0  0  0  0  0  0  0  0  0  0  0
   33.9170   31.1730   34.9040 C   0  0  0  0  0  0  0  0  0  0  0  0
   32.7640   30.5010   35.3020 C   0  0  0  0  0  0  0  0  0  0  0  0
   32.1530   29.8800   34.6520 H   0  0  0  0  0  0  0  0  0  0  0  0
   32.3440   30.6140   36.6090 C   0  0  0  0  0  0  0  0  0  0  0  0
   31.4410   30.1100   36.9880 H   0  0  0  0  0  0  0  0  0  0  0  0
   33.0560   31.3810   37.5060 C   0  0  0  0  0  3  0  0  0  0  0  0
   34.2120   32.0650   37.1420 C   0  0  0  0  0  3  0  0  0  0  0  0
   36.7460   33.1340   34.9230 N   0  0  0  0  0  0  0  0  0  0  0  0
   35.8110   32.6020   35.3100 C   0  0  0  0  0  0  0  0  0  0  0  0
  2  7  1  0  0  0  0
  2  1  1  0  0  0  0
  3  2  2  0  0  0  0
  4  5  2  0  0  0  0
  4  3  1  0  0  0  0
  5  6  1  0  0  0  0
  6 10  1  0  0  0  0
  6  7  2  0  0  0  0
  7 31  1  0  0  0  0
  8  4  1  0  0  0  0
  9  5  1  0  0  0  0
 11 12  1  0  0  0  0
 12 13  1  0  0  0  0
 13 23  1  0  0  0  0
 13 14  2  0  0  0  0
 14 19  1  0  0  0  0
 15 14  1  0  0  0  0
 15  3  1  0  0  0  0
 16 15  2  0  0  0  0
 17 16  1  0  0  0  0
 18 12  2  0  0  0  0
 18 16  1  0  0  0  0
 20 18  1  0  0  0  0
 21 26  1  0  0  0  0
 22 21  2  0  0  0  0
 22 23  1  0  0  0  0
 23 24  2  0  0  0  0
 24 25  1  0  0  0  0
 25 29  1  0  0  0  0
 26 25  2  0  0  0  0
 27 21  1  0  0  0  0
 28 22  1  0  0  0  0
 30 37  1  0  0  0  0
 31 32  1  0  0  0  0
 31 30  2  0  0  0  0
 32 34  2  0  0  0  0
 33 32  1  0  0  0  0
 34 35  1  0  0  0  0
 34 36  1  0  0  0  0
 37 36  2  0  0  0  0
 38 39  3  0  0  0  0
 39 30  1  0  0  0  0
M  END
>  <minimizedAffinity>
-5.95467234

$$$$
