
 OpenBabel03262522083D

 41 44  0  0  1  0  0  0  0  0999 V2000
   41.4790   25.5350   33.5320 C   0  0  2  0  0  0  0  0  0  0  0  0
   41.2150   24.9940   34.8940 C   0  0  0  0  0  0  0  0  0  0  0  0
   39.8280   25.2770   35.2630 N   0  0  0  0  0  0  0  0  0  0  0  0
   38.4530   25.2160   35.6740 C   0  0  0  0  0  0  0  0  0  0  0  0
   37.7040   24.3680   36.1910 O   0  0  0  0  0  0  0  0  0  0  0  0
   38.1440   26.5600   35.2780 C   0  0  1  0  0  0  0  0  0  0  0  0
   39.6530   26.6910   35.1200 C   0  0  2  0  0  0  0  0  0  0  0  0
   40.2500   26.9090   33.4290 S   0  0  0  0  0  0  0  0  0  0  0  0
   41.2870   23.8790   34.8430 H   0  0  0  0  0  0  0  0  0  0  0  0
   41.9300   25.3300   35.6680 H   0  0  0  0  0  0  0  0  0  0  0  0
   37.8660   27.2660   36.0980 H   0  0  0  0  0  0  0  0  0  0  0  0
   40.1620   27.3150   35.8780 H   0  0  0  0  0  0  0  0  0  0  0  0
   41.3940   24.5730   32.3980 C   0  0  0  0  0  0  0  0  0  0  0  0
   42.3510   24.5400   31.8600 H   0  0  0  0  0  0  0  0  0  0  0  0
   40.6230   24.8990   31.6430 H   0  0  0  0  0  0  0  0  0  0  0  0
   41.0880   23.5560   32.7320 H   0  0  0  0  0  0  0  0  0  0  0  0
   42.8400   26.2620   33.5610 C   0  0  0  0  0  0  0  0  0  0  0  0
   43.1410   26.3650   32.4990 H   0  0  0  0  0  0  0  0  0  0  0  0
   43.5420   25.6020   34.0910 H   0  0  0  0  0  0  0  0  0  0  0  0
   42.6710   27.4880   34.2020 O   0  0  0  0  0  0  0  0  0  0  0  0
   41.8500   27.9260   33.8910 H   0  0  0  0  0  0  0  0  0  0  0  0
   37.3520   26.7310   34.0390 C   0  0  0  0  0  0  0  0  0  0  0  0
   37.2590   25.6620   33.3510 O   0  0  0  0  0  0  0  0  0  0  0  0
   36.7410   27.9610   33.6400 C   0  0  0  0  0  0  0  0  0  0  0  0
   36.8000   28.3170   32.3130 C   0  0  0  0  0  0  0  0  0  0  0  0
   36.1970   29.5340   31.9240 C   0  0  0  0  0  0  0  0  0  0  0  0
   35.5910   30.2850   32.8940 N   0  0  0  0  0  0  0  0  0  0  0  0
   35.5490   29.9140   34.1690 C   0  0  0  0  0  0  0  0  0  0  0  0
   36.1250   28.7500   34.5510 N   0  0  0  0  0  0  0  0  0  0  0  0
   37.2780   27.7290   31.5380 H   0  0  0  0  0  0  0  0  0  0  0  0
   36.2220   29.8500   30.8860 H   0  0  0  0  0  0  0  0  0  0  0  0
   33.5100   30.6210   35.3340 C   0  0  0  0  0  0  0  0  0  0  0  0
   34.8990   30.7270   35.1920 C   0  0  0  0  0  0  0  0  0  0  0  0
   35.6130   31.5860   36.0120 C   0  0  0  0  0  0  0  0  0  0  0  0
   36.6840   31.6630   35.8990 H   0  0  0  0  0  0  0  0  0  0  0  0
   34.9500   32.3440   36.9780 C   0  0  0  0  0  0  0  0  0  0  0  0
   35.4790   33.0290   37.6400 H   0  0  0  0  0  0  0  0  0  0  0  0
   33.5800   32.2090   37.0830 C   0  0  0  0  0  3  0  0  0  0  0  0
   32.8140   31.3640   36.2870 C   0  0  0  0  0  3  0  0  0  0  0  0
   32.0710   29.0390   33.8590 N   0  0  0  0  0  0  0  0  0  0  0  0
   32.7140   29.7460   34.5100 C   0  0  0  0  0  0  0  0  0  0  0  0
  1 13  1  6  0  0  0
  1 17  1  0  0  0  0
  1  2  1  0  0  0  0
  2  3  1  0  0  0  0
  2 10  1  0  0  0  0
  3  4  1  0  0  0  0
  4  5  2  0  0  0  0
  6  4  1  0  0  0  0
  6 11  1  1  0  0  0
  7  3  1  0  0  0  0
  7  6  1  0  0  0  0
  7 12  1  1  0  0  0
  8  1  1  0  0  0  0
  8  7  1  0  0  0  0
  9  2  1  0  0  0  0
 13 16  1  0  0  0  0
 14 13  1  0  0  0  0
 15 13  1  0  0  0  0
 17 19  1  0  0  0  0
 17 20  1  0  0  0  0
 18 17  1  0  0  0  0
 21 20  1  0  0  0  0
 22  6  1  0  0  0  0
 23 22  2  0  0  0  0
 24 22  1  0  0  0  0
 24 29  1  0  0  0  0
 25 24  2  0  0  0  0
 26 25  1  0  0  0  0
 26 27  2  0  0  0  0
 27 28  1  0  0  0  0
 28 29  2  0  0  0  0
 28 33  1  0  0  0  0
 30 25  1  0  0  0  0
 31 26  1  0  0  0  0
 32 39  1  0  0  0  0
 33 32  2  0  0  0  0
 33 34  1  0  0  0  0
 34 36  2  0  0  0  0
 35 34  1  0  0  0  0
 36 38  1  0  0  0  0
 36 37  1  0  0  0  0
 39 38  2  0  0  0  0
 40 41  3  0  0  0  0
 41 32  1  0  0  0  0
M  END
>  <minimizedAffinity>
-6.22266483

$$$$

 OpenBabel03262522083D

 41 44  0  0  1  0  0  0  0  0999 V2000
   38.7480   23.1680   36.1200 C   0  0  2  0  0  0  0  0  0  0  0  0
   38.1070   24.3360   36.7850 C   0  0  0  0  0  0  0  0  0  0  0  0
   37.9710   25.4250   35.8180 N   0  0  0  0  0  0  0  0  0  0  0  0
   37.5080   26.4790   34.9590 C   0  0  0  0  0  0  0  0  0  0  0  0
   36.4650   27.1440   34.8310 O   0  0  0  0  0  0  0  0  0  0  0  0
   38.7220   26.5630   34.1980 C   0  0  1  0  0  0  0  0  0  0  0  0
   39.2810   25.6620   35.2920 C   0  0  2  0  0  0  0  0  0  0  0  0
   39.7190   23.9860   34.7790 S   0  0  0  0  0  0  0  0  0  0  0  0
   37.0600   24.0480   37.0560 H   0  0  0  0  0  0  0  0  0  0  0  0
   38.6040   24.6640   37.7160 H   0  0  0  0  0  0  0  0  0  0  0  0
   39.2900   27.5210   34.2800 H   0  0  0  0  0  0  0  0  0  0  0  0
   39.9970   26.1390   35.9860 H   0  0  0  0  0  0  0  0  0  0  0  0
   37.8410   22.0930   35.6280 C   0  0  0  0  0  0  0  0  0  0  0  0
   38.1000   21.1370   36.1020 H   0  0  0  0  0  0  0  0  0  0  0  0
   37.9610   21.9330   34.5190 H   0  0  0  0  0  0  0  0  0  0  0  0
   36.7680   22.3410   35.7900 H   0  0  0  0  0  0  0  0  0  0  0  0
   39.8300   22.6110   37.0690 C   0  0  0  0  0  0  0  0  0  0  0  0
   40.7040   23.2810   36.9420 H   0  0  0  0  0  0  0  0  0  0  0  0
   40.0730   21.5990   36.7140 H   0  0  0  0  0  0  0  0  0  0  0  0
   39.3230   22.6160   38.3670 O   0  0  0  0  0  0  0  0  0  0  0  0
   38.8520   23.4580   38.5470 H   0  0  0  0  0  0  0  0  0  0  0  0
   38.7040   25.9850   32.8360 C   0  0  0  0  0  0  0  0  0  0  0  0
   39.7950   26.1610   32.2010 O   0  0  0  0  0  0  0  0  0  0  0  0
   37.5860   25.2920   32.2730 C   0  0  0  0  0  0  0  0  0  0  0  0
   36.6430   26.0230   31.5900 C   0  0  0  0  0  0  0  0  0  0  0  0
   35.5410   25.3340   31.0380 C   0  0  0  0  0  0  0  0  0  0  0  0
   35.4790   23.9780   31.2180 N   0  0  0  0  0  0  0  0  0  0  0  0
   36.4070   23.2990   31.8820 C   0  0  0  0  0  0  0  0  0  0  0  0
   37.4670   23.9510   32.4150 N   0  0  0  0  0  0  0  0  0  0  0  0
   36.6830   27.0960   31.4440 H   0  0  0  0  0  0  0  0  0  0  0  0
   34.7750   25.8750   30.4920 H   0  0  0  0  0  0  0  0  0  0  0  0
   37.2190   21.0480   31.3460 C   0  0  0  0  0  0  0  0  0  0  0  0
   36.3280   21.8530   32.0650 C   0  0  0  0  0  0  0  0  0  0  0  0
   35.4050   21.2700   32.9190 C   0  0  0  0  0  0  0  0  0  0  0  0
   34.7200   21.8970   33.4710 H   0  0  0  0  0  0  0  0  0  0  0  0
   35.3640   19.8830   33.0630 C   0  0  0  0  0  0  0  0  0  0  0  0
   34.6530   19.3900   33.7260 H   0  0  0  0  0  0  0  0  0  0  0  0
   36.2610   19.1260   32.3360 C   0  0  0  0  0  3  0  0  0  0  0  0
   37.2060   19.6570   31.4650 C   0  0  0  0  0  3  0  0  0  0  0  0
   38.9940   22.0280   29.7230 N   0  0  0  0  0  0  0  0  0  0  0  0
   38.2000   21.5950   30.4430 C   0  0  0  0  0  0  0  0  0  0  0  0
  1 13  1  6  0  0  0
  1  2  1  0  0  0  0
  1 17  1  0  0  0  0
  2  9  1  0  0  0  0
  2 10  1  0  0  0  0
  3  2  1  0  0  0  0
  4  3  1  0  0  0  0
  5  4  2  0  0  0  0
  6 11  1  1  0  0  0
  6  4  1  0  0  0  0
  6  7  1  0  0  0  0
  7  3  1  0  0  0  0
  7 12  1  1  0  0  0
  8  7  1  0  0  0  0
  8  1  1  0  0  0  0
 13 16  1  0  0  0  0
 13 14  1  0  0  0  0
 15 13  1  0  0  0  0
 17 20  1  0  0  0  0
 18 17  1  0  0  0  0
 19 17  1  0  0  0  0
 20 21  1  0  0  0  0
 22  6  1  0  0  0  0
 23 22  2  0  0  0  0
 24 29  1  0  0  0  0
 24 22  1  0  0  0  0
 25 24  2  0  0  0  0
 26 27  2  0  0  0  0
 26 25  1  0  0  0  0
 27 28  1  0  0  0  0
 28 33  1  0  0  0  0
 28 29  2  0  0  0  0
 30 25  1  0  0  0  0
 31 26  1  0  0  0  0
 32 39  2  0  0  0  0
 32 33  1  0  0  0  0
 33 34  2  0  0  0  0
 34 36  1  0  0  0  0
 34 35  1  0  0  0  0
 36 37  1  0  0  0  0
 38 36  2  0  0  0  0
 39 38  1  0  0  0  0
 40 41  3  0  0  0  0
 41 32  1  0  0  0  0
M  END
>  <minimizedAffinity>
-6.17648697

$$$$

 OpenBabel03262522083D

 41 44  0  0  1  0  0  0  0  0999 V2000
   37.0040   26.4620   31.5840 C   0  0  2  0  0  0  0  0  0  0  0  0
   38.4340   26.6400   31.2100 C   0  0  0  0  0  0  0  0  0  0  0  0
   39.2690   26.4330   32.3920 N   0  0  0  0  0  0  0  0  0  0  0  0
   40.2440   25.9990   33.3540 C   0  0  0  0  0  0  0  0  0  0  0  0
   41.2780   25.3070   33.3390 O   0  0  0  0  0  0  0  0  0  0  0  0
   39.6250   26.6580   34.4680 C   0  0  1  0  0  0  0  0  0  0  0  0
   38.7810   27.3330   33.3930 C   0  0  2  0  0  0  0  0  0  0  0  0
   37.0290   26.8920   33.3800 S   0  0  0  0  0  0  0  0  0  0  0  0
   38.7110   25.8180   30.5030 H   0  0  0  0  0  0  0  0  0  0  0  0
   38.6600   27.5950   30.7010 H   0  0  0  0  0  0  0  0  0  0  0  0
   40.2130   27.4780   34.9460 H   0  0  0  0  0  0  0  0  0  0  0  0
   38.9930   28.4040   33.2200 H   0  0  0  0  0  0  0  0  0  0  0  0
   36.3940   25.1320   31.2980 C   0  0  0  0  0  0  0  0  0  0  0  0
   35.5290   25.2500   30.6330 H   0  0  0  0  0  0  0  0  0  0  0  0
   36.0000   24.6530   32.2400 H   0  0  0  0  0  0  0  0  0  0  0  0
   37.1310   24.4150   30.8720 H   0  0  0  0  0  0  0  0  0  0  0  0
   36.1950   27.6090   30.9440 C   0  0  0  0  0  0  0  0  0  0  0  0
   36.5230   28.5280   31.4690 H   0  0  0  0  0  0  0  0  0  0  0  0
   35.1340   27.4090   31.1580 H   0  0  0  0  0  0  0  0  0  0  0  0
   36.4690   27.6330   29.5780 O   0  0  0  0  0  0  0  0  0  0  0  0
   37.4310   27.5200   29.4200 H   0  0  0  0  0  0  0  0  0  0  0  0
   38.8840   25.8080   35.4260 C   0  0  0  0  0  0  0  0  0  0  0  0
   38.2410   26.4770   36.2990 O   0  0  0  0  0  0  0  0  0  0  0  0
   38.8750   24.3770   35.3890 C   0  0  0  0  0  0  0  0  0  0  0  0
   39.6730   23.6980   36.2800 C   0  0  0  0  0  0  0  0  0  0  0  0
   39.6620   22.2870   36.2390 C   0  0  0  0  0  0  0  0  0  0  0  0
   38.8570   21.6810   35.3130 N   0  0  0  0  0  0  0  0  0  0  0  0
   38.0960   22.3640   34.4650 C   0  0  0  0  0  0  0  0  0  0  0  0
   38.1000   23.7170   34.4970 N   0  0  0  0  0  0  0  0  0  0  0  0
   40.3140   24.1700   37.0170 H   0  0  0  0  0  0  0  0  0  0  0  0
   40.2780   21.7140   36.9250 H   0  0  0  0  0  0  0  0  0  0  0  0
   36.1060   21.0300   33.9450 C   0  0  0  0  0  0  0  0  0  0  0  0
   37.2420   21.7030   33.4830 C   0  0  0  0  0  0  0  0  0  0  0  0
   37.5280   21.7270   32.1270 C   0  0  0  0  0  0  0  0  0  0  0  0
   38.4060   22.2490   31.7770 H   0  0  0  0  0  0  0  0  0  0  0  0
   36.6830   21.0810   31.2230 C   0  0  0  0  0  0  0  0  0  0  0  0
   36.8760   21.0800   30.1510 H   0  0  0  0  0  0  0  0  0  0  0  0
   35.5730   20.4290   31.7220 C   0  0  0  0  0  3  0  0  0  0  0  0
   35.2400   20.3730   33.0710 C   0  0  0  0  0  3  0  0  0  0  0  0
   35.4750   20.9320   36.4630 N   0  0  0  0  0  0  0  0  0  0  0  0
   35.7570   20.9700   35.3430 C   0  0  0  0  0  0  0  0  0  0  0  0
  1 17  1  6  0  0  0
  1  8  1  0  0  0  0
  2  1  1  0  0  0  0
  2  3  1  0  0  0  0
  3  4  1  0  0  0  0
  3  7  1  0  0  0  0
  4  6  1  0  0  0  0
  5  4  2  0  0  0  0
  6 11  1  1  0  0  0
  6 22  1  0  0  0  0
  7 12  1  6  0  0  0
  7  6  1  0  0  0  0
  8  7  1  0  0  0  0
  9  2  1  0  0  0  0
 10  2  1  0  0  0  0
 13  1  1  0  0  0  0
 13 15  1  0  0  0  0
 14 13  1  0  0  0  0
 16 13  1  0  0  0  0
 17 19  1  0  0  0  0
 17 18  1  0  0  0  0
 20 17  1  0  0  0  0
 21 20  1  0  0  0  0
 22 23  2  0  0  0  0
 24 22  1  0  0  0  0
 24 25  1  0  0  0  0
 25 30  1  0  0  0  0
 26 25  2  0  0  0  0
 26 31  1  0  0  0  0
 27 26  1  0  0  0  0
 28 29  1  0  0  0  0
 28 27  2  0  0  0  0
 29 24  2  0  0  0  0
 32 41  1  0  0  0  0
 33 32  1  0  0  0  0
 33 28  1  0  0  0  0
 34 33  2  0  0  0  0
 35 34  1  0  0  0  0
 36 38  2  0  0  0  0
 36 34  1  0  0  0  0
 37 36  1  0  0  0  0
 38 39  1  0  0  0  0
 39 32  2  0  0  0  0
 41 40  3  0  0  0  0
M  END
>  <minimizedAffinity>
-5.8724184

$$$$

 OpenBabel03262522083D

 41 44  0  0  1  0  0  0  0  0999 V2000
   32.8920   31.8450   36.3310 C   0  0  2  0  0  0  0  0  0  0  0  0
   32.1150   32.7110   35.4000 C   0  0  0  0  0  0  0  0  0  0  0  0
   32.2510   32.1940   34.0380 N   0  0  0  0  0  0  0  0  0  0  0  0
   32.0420   31.6850   32.7120 C   0  0  0  0  0  0  0  0  0  0  0  0
   31.0760   31.5590   31.9380 O   0  0  0  0  0  0  0  0  0  0  0  0
   33.4130   31.3190   32.5000 C   0  0  1  0  0  0  0  0  0  0  0  0
   33.6560   32.1170   33.7740 C   0  0  2  0  0  0  0  0  0  0  0  0
   34.1900   31.1590   35.2100 S   0  0  0  0  0  0  0  0  0  0  0  0
   31.0310   32.6020   35.6520 H   0  0  0  0  0  0  0  0  0  0  0  0
   32.3570   33.7870   35.4650 H   0  0  0  0  0  0  0  0  0  0  0  0
   33.9530   31.8710   31.6930 H   0  0  0  0  0  0  0  0  0  0  0  0
   34.1720   33.0850   33.6420 H   0  0  0  0  0  0  0  0  0  0  0  0
   32.1320   30.8000   37.0710 C   0  0  0  0  0  0  0  0  0  0  0  0
   32.2450   30.9480   38.1530 H   0  0  0  0  0  0  0  0  0  0  0  0
   32.5340   29.7700   36.8530 H   0  0  0  0  0  0  0  0  0  0  0  0
   31.0570   30.7790   36.7830 H   0  0  0  0  0  0  0  0  0  0  0  0
   33.6820   32.7610   37.2890 C   0  0  0  0  0  0  0  0  0  0  0  0
   33.0690   32.8210   38.2110 H   0  0  0  0  0  0  0  0  0  0  0  0
   33.7410   33.7490   36.8090 H   0  0  0  0  0  0  0  0  0  0  0  0
   34.9370   32.1950   37.5050 O   0  0  0  0  0  0  0  0  0  0  0  0
   34.8560   31.2280   37.6540 H   0  0  0  0  0  0  0  0  0  0  0  0
   33.7430   29.8780   32.5720 C   0  0  0  0  0  0  0  0  0  0  0  0
   32.7410   29.1470   32.8660 O   0  0  0  0  0  0  0  0  0  0  0  0
   35.0470   29.3400   32.3350 C   0  0  0  0  0  0  0  0  0  0  0  0
   35.6830   29.6670   31.1600 C   0  0  0  0  0  0  0  0  0  0  0  0
   36.9690   29.1320   30.9300 C   0  0  0  0  0  0  0  0  0  0  0  0
   37.5050   28.3200   31.8930 N   0  0  0  0  0  0  0  0  0  0  0  0
   36.8670   28.0230   33.0190 C   0  0  0  0  0  0  0  0  0  0  0  0
   35.6330   28.5310   33.2480 N   0  0  0  0  0  0  0  0  0  0  0  0
   35.2650   30.3080   30.3920 H   0  0  0  0  0  0  0  0  0  0  0  0
   37.5040   29.3660   30.0140 H   0  0  0  0  0  0  0  0  0  0  0  0
   37.4970   25.7800   33.7840 C   0  0  0  0  0  0  0  0  0  0  0  0
   37.4520   27.1560   34.0370 C   0  0  0  0  0  0  0  0  0  0  0  0
   37.9560   27.6570   35.2270 C   0  0  0  0  0  0  0  0  0  0  0  0
   37.9180   28.7190   35.4160 H   0  0  0  0  0  0  0  0  0  0  0  0
   38.5070   26.7910   36.1730 C   0  0  0  0  0  0  0  0  0  0  0  0
   38.9120   27.1490   37.1190 H   0  0  0  0  0  0  0  0  0  0  0  0
   38.5310   25.4410   35.8830 C   0  0  0  0  0  3  0  0  0  0  0  0
   38.0400   24.8850   34.7060 C   0  0  0  0  0  3  0  0  0  0  0  0
   36.5730   24.7340   31.5930 N   0  0  0  0  0  0  0  0  0  0  0  0
   36.9890   25.2010   32.5660 C   0  0  0  0  0  0  0  0  0  0  0  0
  1 13  1  1  0  0  0
  1 17  1  0  0  0  0
  2 10  1  0  0  0  0
  2  9  1  0  0  0  0
  2  1  1  0  0  0  0
  3  2  1  0  0  0  0
  4  3  1  0  0  0  0
  5  4  2  0  0  0  0
  6 11  1  6  0  0  0
  6 22  1  0  0  0  0
  6  4  1  0  0  0  0
  6  7  1  0  0  0  0
  7 12  1  6  0  0  0
  7  3  1  0  0  0  0
  7  8  1  0  0  0  0
  8  1  1  0  0  0  0
 13 14  1  0  0  0  0
 15 13  1  0  0  0  0
 16 13  1  0  0  0  0
 17 20  1  0  0  0  0
 17 18  1  0  0  0  0
 19 17  1  0  0  0  0
 20 21  1  0  0  0  0
 22 23  2  0  0  0  0
 24 22  1  0  0  0  0
 24 29  1  0  0  0  0
 25 24  2  0  0  0  0
 26 25  1  0  0  0  0
 26 27  2  0  0  0  0
 27 28  1  0  0  0  0
 28 29  2  0  0  0  0
 28 33  1  0  0  0  0
 30 25  1  0  0  0  0
 31 26  1  0  0  0  0
 32 33  2  0  0  0  0
 32 39  1  0  0  0  0
 33 34  1  0  0  0  0
 34 35  1  0  0  0  0
 34 36  2  0  0  0  0
 36 37  1  0  0  0  0
 38 36  1  0  0  0  0
 39 38  2  0  0  0  0
 40 41  3  0  0  0  0
 41 32  1  0  0  0  0
M  END
>  <minimizedAffinity>
-5.80990028

$$$$

 OpenBabel03262522083D

 41 44  0  0  1  0  0  0  0  0999 V2000
   38.3230   23.0600   32.7780 C   0  0  2  0  0  0  0  0  0  0  0  0
   39.7070   23.5810   32.9530 C   0  0  0  0  0  0  0  0  0  0  0  0
   39.6440   24.9730   33.3990 N   0  0  0  0  0  0  0  0  0  0  0  0
   39.7760   26.2230   34.0920 C   0  0  0  0  0  0  0  0  0  0  0  0
   40.4750   26.6690   35.0210 O   0  0  0  0  0  0  0  0  0  0  0  0
   38.7630   26.8970   33.3320 C   0  0  1  0  0  0  0  0  0  0  0  0
   38.8440   25.6680   32.4360 C   0  0  2  0  0  0  0  0  0  0  0  0
   37.3810   24.6090   32.4220 S   0  0  0  0  0  0  0  0  0  0  0  0
   40.1820   23.0210   33.7970 H   0  0  0  0  0  0  0  0  0  0  0  0
   40.3600   23.4540   32.0710 H   0  0  0  0  0  0  0  0  0  0  0  0
   39.1050   27.7520   32.7010 H   0  0  0  0  0  0  0  0  0  0  0  0
   39.3140   25.8260   31.4480 H   0  0  0  0  0  0  0  0  0  0  0  0
   37.7560   22.2640   33.9030 C   0  0  0  0  0  0  0  0  0  0  0  0
   37.4780   21.2610   33.5510 H   0  0  0  0  0  0  0  0  0  0  0  0
   36.8080   22.7300   34.2960 H   0  0  0  0  0  0  0  0  0  0  0  0
   38.4530   22.2040   34.7690 H   0  0  0  0  0  0  0  0  0  0  0  0
   38.2680   22.2840   31.4460 C   0  0  0  0  0  0  0  0  0  0  0  0
   37.7160   21.3490   31.6730 H   0  0  0  0  0  0  0  0  0  0  0  0
   39.3070   22.0510   31.1710 H   0  0  0  0  0  0  0  0  0  0  0  0
   37.6280   23.0790   30.4980 O   0  0  0  0  0  0  0  0  0  0  0  0
   36.8340   23.5050   30.8890 H   0  0  0  0  0  0  0  0  0  0  0  0
   37.4600   27.1210   33.9980 C   0  0  0  0  0  0  0  0  0  0  0  0
   37.2280   26.2930   34.9380 O   0  0  0  0  0  0  0  0  0  0  0  0
   36.5430   28.1590   33.6390 C   0  0  0  0  0  0  0  0  0  0  0  0
   36.2330   28.3220   32.3090 C   0  0  0  0  0  0  0  0  0  0  0  0
   35.3280   29.3490   31.9600 C   0  0  0  0  0  0  0  0  0  0  0  0
   34.8160   30.1200   32.9680 N   0  0  0  0  0  0  0  0  0  0  0  0
   35.1350   29.9380   34.2450 C   0  0  0  0  0  0  0  0  0  0  0  0
   36.0010   28.9560   34.5890 N   0  0  0  0  0  0  0  0  0  0  0  0
   36.6330   27.7170   31.5040 H   0  0  0  0  0  0  0  0  0  0  0  0
   35.0580   29.5100   30.9210 H   0  0  0  0  0  0  0  0  0  0  0  0
   33.2270   30.6090   35.6320 C   0  0  0  0  0  0  0  0  0  0  0  0
   34.5800   30.7680   35.3090 C   0  0  0  0  0  0  0  0  0  0  0  0
   35.3490   31.6950   35.9940 C   0  0  0  0  0  0  0  0  0  0  0  0
   36.3920   31.8130   35.7400 H   0  0  0  0  0  0  0  0  0  0  0  0
   34.7770   32.4690   37.0040 C   0  0  0  0  0  0  0  0  0  0  0  0
   35.3520   33.2060   37.5650 H   0  0  0  0  0  0  0  0  0  0  0  0
   33.4400   32.2790   37.2910 C   0  0  0  0  0  3  0  0  0  0  0  0
   32.6220   31.3650   36.6360 C   0  0  0  0  0  3  0  0  0  0  0  0
   31.7020   28.8950   34.4140 N   0  0  0  0  0  0  0  0  0  0  0  0
   32.3770   29.6620   34.9540 C   0  0  0  0  0  0  0  0  0  0  0  0
  1 17  1  6  0  0  0
  1  2  1  0  0  0  0
  1 13  1  0  0  0  0
  2  3  1  0  0  0  0
  2  9  1  0  0  0  0
  3  4  1  0  0  0  0
  4  5  2  0  0  0  0
  6 11  1  6  0  0  0
  6 22  1  0  0  0  0
  6  4  1  0  0  0  0
  7 12  1  6  0  0  0
  7  6  1  0  0  0  0
  7  3  1  0  0  0  0
  8  7  1  0  0  0  0
  8  1  1  0  0  0  0
 10  2  1  0  0  0  0
 13 15  1  0  0  0  0
 13 16  1  0  0  0  0
 14 13  1  0  0  0  0
 17 18  1  0  0  0  0
 19 17  1  0  0  0  0
 20 21  1  0  0  0  0
 20 17  1  0  0  0  0
 22 23  2  0  0  0  0
 24 22  1  0  0  0  0
 24 29  1  0  0  0  0
 25 24  2  0  0  0  0
 26 25  1  0  0  0  0
 26 27  2  0  0  0  0
 27 28  1  0  0  0  0
 28 29  2  0  0  0  0
 28 33  1  0  0  0  0
 30 25  1  0  0  0  0
 31 26  1  0  0  0  0
 32 39  1  0  0  0  0
 33 32  2  0  0  0  0
 33 34  1  0  0  0  0
 34 36  2  0  0  0  0
 35 34  1  0  0  0  0
 36 38  1  0  0  0  0
 36 37  1  0  0  0  0
 39 38  2  0  0  0  0
 40 41  3  0  0  0  0
 41 32  1  0  0  0  0
M  END
>  <minimizedAffinity>
-5.53427172

$$$$

 OpenBabel03262522083D

 41 44  0  0  1  0  0  0  0  0999 V2000
   38.5210   23.6460   36.2350 C   0  0  2  0  0  0  0  0  0  0  0  0
   37.8050   24.9490   36.1530 C   0  0  0  0  0  0  0  0  0  0  0  0
   38.3470   25.7250   35.0380 N   0  0  0  0  0  0  0  0  0  0  0  0
   38.5500   26.4960   33.8430 C   0  0  0  0  0  0  0  0  0  0  0  0
   37.8310   27.0930   33.0230 O   0  0  0  0  0  0  0  0  0  0  0  0
   39.9800   26.3730   33.8570 C   0  0  1  0  0  0  0  0  0  0  0  0
   39.7580   25.8150   35.2560 C   0  0  2  0  0  0  0  0  0  0  0  0
   40.1510   24.0650   35.4740 S   0  0  0  0  0  0  0  0  0  0  0  0
   36.7400   24.7410   35.8800 H   0  0  0  0  0  0  0  0  0  0  0  0
   37.7920   25.5260   37.0960 H   0  0  0  0  0  0  0  0  0  0  0  0
   40.5560   27.3190   34.0000 H   0  0  0  0  0  0  0  0  0  0  0  0
   40.0740   26.4700   36.0890 H   0  0  0  0  0  0  0  0  0  0  0  0
   37.8550   22.4710   35.6060 C   0  0  0  0  0  0  0  0  0  0  0  0
   37.6910   21.6850   36.3560 H   0  0  0  0  0  0  0  0  0  0  0  0
   38.5050   22.0100   34.8090 H   0  0  0  0  0  0  0  0  0  0  0  0
   36.9010   22.7480   35.1040 H   0  0  0  0  0  0  0  0  0  0  0  0
   38.8650   23.3810   37.7150 C   0  0  0  0  0  0  0  0  0  0  0  0
   37.8900   23.2330   38.2220 H   0  0  0  0  0  0  0  0  0  0  0  0
   39.3550   24.2890   38.0960 H   0  0  0  0  0  0  0  0  0  0  0  0
   39.6900   22.2600   37.7830 O   0  0  0  0  0  0  0  0  0  0  0  0
   39.3570   21.5540   37.1880 H   0  0  0  0  0  0  0  0  0  0  0  0
   40.5840   25.4390   32.8810 C   0  0  0  0  0  0  0  0  0  0  0  0
   41.8400   25.2920   33.0380 O   0  0  0  0  0  0  0  0  0  0  0  0
   39.8490   24.7580   31.8600 C   0  0  0  0  0  0  0  0  0  0  0  0
   40.0590   25.1250   30.5510 C   0  0  0  0  0  0  0  0  0  0  0  0
   39.3290   24.4510   29.5480 C   0  0  0  0  0  0  0  0  0  0  0  0
   38.4550   23.4730   29.9400 N   0  0  0  0  0  0  0  0  0  0  0  0
   38.2740   23.1400   31.2130 C   0  0  0  0  0  0  0  0  0  0  0  0
   38.9690   23.7810   32.1820 N   0  0  0  0  0  0  0  0  0  0  0  0
   40.7480   25.8980   30.2310 H   0  0  0  0  0  0  0  0  0  0  0  0
   39.4670   24.7110   28.5030 H   0  0  0  0  0  0  0  0  0  0  0  0
   35.9850   22.4300   31.7330 C   0  0  0  0  0  0  0  0  0  0  0  0
   37.3390   22.0950   31.6160 C   0  0  0  0  0  0  0  0  0  0  0  0
   37.7550   20.8000   31.8820 C   0  0  0  0  0  0  0  0  0  0  0  0
   38.8010   20.5470   31.7900 H   0  0  0  0  0  0  0  0  0  0  0  0
   36.8260   19.8320   32.2650 C   0  0  0  0  0  0  0  0  0  0  0  0
   37.1170   18.8040   32.4810 H   0  0  0  0  0  0  0  0  0  0  0  0
   35.5010   20.2050   32.3670 C   0  0  0  0  0  3  0  0  0  0  0  0
   35.0290   21.4880   32.1130 C   0  0  0  0  0  3  0  0  0  0  0  0
   35.1000   24.8240   31.2490 N   0  0  0  0  0  0  0  0  0  0  0  0
   35.4930   23.7600   31.4700 C   0  0  0  0  0  0  0  0  0  0  0  0
  1 13  1  6  0  0  0
  1 17  1  0  0  0  0
  2  1  1  0  0  0  0
  2 10  1  0  0  0  0
  3  7  1  0  0  0  0
  3  2  1  0  0  0  0
  4  6  1  0  0  0  0
  4  3  1  0  0  0  0
  5  4  2  0  0  0  0
  6 11  1  1  0  0  0
  6  7  1  0  0  0  0
  7  8  1  0  0  0  0
  7 12  1  1  0  0  0
  8  1  1  0  0  0  0
  9  2  1  0  0  0  0
 13 14  1  0  0  0  0
 15 13  1  0  0  0  0
 16 13  1  0  0  0  0
 17 20  1  0  0  0  0
 17 19  1  0  0  0  0
 17 18  1  0  0  0  0
 21 20  1  0  0  0  0
 22 23  2  0  0  0  0
 22  6  1  0  0  0  0
 24 29  1  0  0  0  0
 24 22  1  0  0  0  0
 25 24  2  0  0  0  0
 26 27  2  0  0  0  0
 26 25  1  0  0  0  0
 27 28  1  0  0  0  0
 28 33  1  0  0  0  0
 28 29  2  0  0  0  0
 30 25  1  0  0  0  0
 31 26  1  0  0  0  0
 32 39  1  0  0  0  0
 33 32  2  0  0  0  0
 33 34  1  0  0  0  0
 34 36  2  0  0  0  0
 35 34  1  0  0  0  0
 36 38  1  0  0  0  0
 36 37  1  0  0  0  0
 39 38  2  0  0  0  0
 40 41  3  0  0  0  0
 41 32  1  0  0  0  0
M  END
>  <minimizedAffinity>
-5.44480133

$$$$

 OpenBabel03262522083D

 41 44  0  0  1  0  0  0  0  0999 V2000
   38.5740   23.5320   36.1440 C   0  0  2  0  0  0  0  0  0  0  0  0
   39.8730   23.6950   35.4340 C   0  0  0  0  0  0  0  0  0  0  0  0
   39.9160   25.0160   34.8080 N   0  0  0  0  0  0  0  0  0  0  0  0
   40.2480   26.3430   34.3730 C   0  0  0  0  0  0  0  0  0  0  0  0
   41.2400   27.0920   34.4410 O   0  0  0  0  0  0  0  0  0  0  0  0
   38.9730   26.6010   33.7670 C   0  0  1  0  0  0  0  0  0  0  0  0
   38.7500   25.1090   33.9820 C   0  0  2  0  0  0  0  0  0  0  0  0
   37.4780   24.6710   35.1890 S   0  0  0  0  0  0  0  0  0  0  0  0
   40.6870   23.7030   36.2010 H   0  0  0  0  0  0  0  0  0  0  0  0
   40.1100   22.8850   34.7190 H   0  0  0  0  0  0  0  0  0  0  0  0
   38.9720   26.7470   32.6610 H   0  0  0  0  0  0  0  0  0  0  0  0
   38.7590   24.4860   33.0690 H   0  0  0  0  0  0  0  0  0  0  0  0
   38.5710   23.7940   37.6110 C   0  0  0  0  0  0  0  0  0  0  0  0
   38.2340   22.9010   38.1520 H   0  0  0  0  0  0  0  0  0  0  0  0
   37.8440   24.6140   37.8780 H   0  0  0  0  0  0  0  0  0  0  0  0
   39.5660   24.1320   37.9790 H   0  0  0  0  0  0  0  0  0  0  0  0
   38.0210   22.1300   35.8160 C   0  0  0  0  0  0  0  0  0  0  0  0
   38.8600   21.4310   36.0060 H   0  0  0  0  0  0  0  0  0  0  0  0
   37.7660   22.1310   34.7460 H   0  0  0  0  0  0  0  0  0  0  0  0
   36.9160   21.8900   36.6290 O   0  0  0  0  0  0  0  0  0  0  0  0
   37.0990   22.1770   37.5500 H   0  0  0  0  0  0  0  0  0  0  0  0
   38.0510   27.4990   34.4970 C   0  0  0  0  0  0  0  0  0  0  0  0
   38.3750   27.6670   35.7180 O   0  0  0  0  0  0  0  0  0  0  0  0
   36.9080   28.1270   33.9080 C   0  0  0  0  0  0  0  0  0  0  0  0
   36.8190   28.1610   32.5360 C   0  0  0  0  0  0  0  0  0  0  0  0
   35.6900   28.7830   31.9600 C   0  0  0  0  0  0  0  0  0  0  0  0
   34.7530   29.3160   32.8040 N   0  0  0  0  0  0  0  0  0  0  0  0
   34.8670   29.2670   34.1260 C   0  0  0  0  0  0  0  0  0  0  0  0
   35.9460   28.6730   34.6880 N   0  0  0  0  0  0  0  0  0  0  0  0
   37.5560   27.7420   31.8600 H   0  0  0  0  0  0  0  0  0  0  0  0
   35.5820   28.8310   30.8810 H   0  0  0  0  0  0  0  0  0  0  0  0
   34.1520   31.0520   35.6490 C   0  0  0  0  0  0  0  0  0  0  0  0
   33.8590   29.8400   35.0130 C   0  0  0  0  0  0  0  0  0  0  0  0
   32.6400   29.2200   35.2360 C   0  0  0  0  0  0  0  0  0  0  0  0
   32.4200   28.2850   34.7430 H   0  0  0  0  0  0  0  0  0  0  0  0
   31.7050   29.8030   36.0930 C   0  0  0  0  0  0  0  0  0  0  0  0
   30.7370   29.3440   36.2910 H   0  0  0  0  0  0  0  0  0  0  0  0
   32.0350   30.9990   36.6990 C   0  0  0  0  0  3  0  0  0  0  0  0
   33.2420   31.6630   36.5120 C   0  0  0  0  0  3  0  0  0  0  0  0
   36.4080   32.2900   35.2950 N   0  0  0  0  0  0  0  0  0  0  0  0
   35.4030   31.7430   35.4560 C   0  0  0  0  0  0  0  0  0  0  0  0
  1 17  1  6  0  0  0
  1 13  1  0  0  0  0
  2  1  1  0  0  0  0
  2  9  1  0  0  0  0
  3  2  1  0  0  0  0
  4  5  2  0  0  0  0
  4  3  1  0  0  0  0
  6 11  1  6  0  0  0
  6  7  1  0  0  0  0
  6  4  1  0  0  0  0
  6 22  1  0  0  0  0
  7 12  1  6  0  0  0
  7  3  1  0  0  0  0
  7  8  1  0  0  0  0
  8  1  1  0  0  0  0
 10  2  1  0  0  0  0
 13 15  1  0  0  0  0
 13 16  1  0  0  0  0
 13 14  1  0  0  0  0
 17 18  1  0  0  0  0
 17 20  1  0  0  0  0
 19 17  1  0  0  0  0
 20 21  1  0  0  0  0
 22 23  2  0  0  0  0
 24 22  1  0  0  0  0
 24 29  1  0  0  0  0
 25 24  2  0  0  0  0
 26 25  1  0  0  0  0
 26 27  2  0  0  0  0
 27 28  1  0  0  0  0
 28 29  2  0  0  0  0
 28 33  1  0  0  0  0
 30 25  1  0  0  0  0
 31 26  1  0  0  0  0
 32 39  1  0  0  0  0
 33 34  1  0  0  0  0
 33 32  2  0  0  0  0
 34 36  2  0  0  0  0
 35 34  1  0  0  0  0
 36 37  1  0  0  0  0
 36 38  1  0  0  0  0
 39 38  2  0  0  0  0
 40 41  3  0  0  0  0
 41 32  1  0  0  0  0
M  END
>  <minimizedAffinity>
-5.44126129

$$$$

 OpenBabel03262522083D

 41 44  0  0  1  0  0  0  0  0999 V2000
   40.2440   26.5160   33.4820 C   0  0  2  0  0  0  0  0  0  0  0  0
   39.0040   27.2230   33.0590 C   0  0  0  0  0  0  0  0  0  0  0  0
   38.1950   26.3230   32.2370 N   0  0  0  0  0  0  0  0  0  0  0  0
   37.1590   25.5120   31.6610 C   0  0  0  0  0  0  0  0  0  0  0  0
   35.9320   25.3760   31.8140 O   0  0  0  0  0  0  0  0  0  0  0  0
   38.0300   24.8210   30.7540 C   0  0  1  0  0  0  0  0  0  0  0  0
   39.0420   25.8800   31.1710 C   0  0  2  0  0  0  0  0  0  0  0  0
   40.4550   25.2810   32.1250 S   0  0  0  0  0  0  0  0  0  0  0  0
   38.3900   27.4210   33.9730 H   0  0  0  0  0  0  0  0  0  0  0  0
   39.1760   28.1970   32.5660 H   0  0  0  0  0  0  0  0  0  0  0  0
   37.8480   24.9930   29.6660 H   0  0  0  0  0  0  0  0  0  0  0  0
   39.2850   26.6390   30.4050 H   0  0  0  0  0  0  0  0  0  0  0  0
   40.2430   25.9100   34.8430 C   0  0  0  0  0  0  0  0  0  0  0  0
   41.0580   26.3330   35.4450 H   0  0  0  0  0  0  0  0  0  0  0  0
   40.4330   24.7990   34.7960 H   0  0  0  0  0  0  0  0  0  0  0  0
   39.2630   26.0330   35.3570 H   0  0  0  0  0  0  0  0  0  0  0  0
   41.4340   27.4790   33.2900 C   0  0  0  0  0  0  0  0  0  0  0  0
   40.9870   28.4930   33.2450 H   0  0  0  0  0  0  0  0  0  0  0  0
   41.8950   27.2260   32.3240 H   0  0  0  0  0  0  0  0  0  0  0  0
   42.3110   27.3180   34.3600 O   0  0  0  0  0  0  0  0  0  0  0  0
   41.8140   27.2620   35.2050 H   0  0  0  0  0  0  0  0  0  0  0  0
   38.3840   23.4240   31.0940 C   0  0  0  0  0  0  0  0  0  0  0  0
   39.2160   22.9050   30.2800 O   0  0  0  0  0  0  0  0  0  0  0  0
   37.8590   22.7150   32.2200 C   0  0  0  0  0  0  0  0  0  0  0  0
   36.9030   21.7520   31.9950 C   0  0  0  0  0  0  0  0  0  0  0  0
   36.3870   21.0560   33.1100 C   0  0  0  0  0  0  0  0  0  0  0  0
   36.8710   21.3830   34.3480 N   0  0  0  0  0  0  0  0  0  0  0  0
   37.7970   22.3180   34.5330 C   0  0  0  0  0  0  0  0  0  0  0  0
   38.2970   22.9910   33.4710 N   0  0  0  0  0  0  0  0  0  0  0  0
   36.5140   21.4870   31.0190 H   0  0  0  0  0  0  0  0  0  0  0  0
   35.6310   20.2890   32.9750 H   0  0  0  0  0  0  0  0  0  0  0  0
   39.6660   22.4660   36.1130 C   0  0  0  0  0  0  0  0  0  0  0  0
   38.3030   22.6560   35.8600 C   0  0  0  0  0  0  0  0  0  0  0  0
   37.4770   23.1510   36.8570 C   0  0  0  0  0  0  0  0  0  0  0  0
   36.4270   23.2950   36.6560 H   0  0  0  0  0  0  0  0  0  0  0  0
   38.0050   23.4600   38.1120 C   0  0  0  0  0  0  0  0  0  0  0  0
   37.3860   23.8520   38.9190 H   0  0  0  0  0  0  0  0  0  0  0  0
   39.3550   23.2580   38.3180 C   0  0  0  0  0  3  0  0  0  0  0  0
   40.2280   22.7640   37.3550 C   0  0  0  0  0  3  0  0  0  0  0  0
   41.2960   21.5350   34.3170 N   0  0  0  0  0  0  0  0  0  0  0  0
   40.5740   21.9540   35.1170 C   0  0  0  0  0  0  0  0  0  0  0  0
  1 17  1  6  0  0  0
  1 13  1  0  0  0  0
  2  1  1  0  0  0  0
  2  9  1  0  0  0  0
  3  2  1  0  0  0  0
  4  5  2  0  0  0  0
  4  3  1  0  0  0  0
  6 11  1  6  0  0  0
  6 22  1  0  0  0  0
  6  7  1  0  0  0  0
  6  4  1  0  0  0  0
  7 12  1  6  0  0  0
  7  8  1  0  0  0  0
  7  3  1  0  0  0  0
  8  1  1  0  0  0  0
 10  2  1  0  0  0  0
 13 16  1  0  0  0  0
 13 14  1  0  0  0  0
 15 13  1  0  0  0  0
 17 20  1  0  0  0  0
 18 17  1  0  0  0  0
 19 17  1  0  0  0  0
 20 21  1  0  0  0  0
 22 24  1  0  0  0  0
 23 22  2  0  0  0  0
 24 29  1  0  0  0  0
 25 24  2  0  0  0  0
 25 26  1  0  0  0  0
 26 27  2  0  0  0  0
 27 28  1  0  0  0  0
 28 33  1  0  0  0  0
 29 28  2  0  0  0  0
 30 25  1  0  0  0  0
 31 26  1  0  0  0  0
 32 39  1  0  0  0  0
 33 32  2  0  0  0  0
 33 34  1  0  0  0  0
 34 36  2  0  0  0  0
 35 34  1  0  0  0  0
 36 38  1  0  0  0  0
 36 37  1  0  0  0  0
 39 38  2  0  0  0  0
 40 41  3  0  0  0  0
 41 32  1  0  0  0  0
M  END
>  <minimizedAffinity>
-5.43581676

$$$$

 OpenBabel03262522083D

 41 44  0  0  1  0  0  0  0  0999 V2000
   36.4180   27.7930   31.4820 C   0  0  2  0  0  0  0  0  0  0  0  0
   36.0100   26.5360   30.7950 C   0  0  0  0  0  0  0  0  0  0  0  0
   36.6690   25.4010   31.4410 N   0  0  0  0  0  0  0  0  0  0  0  0
   36.9950   24.1710   32.1060 C   0  0  0  0  0  0  0  0  0  0  0  0
   36.3970   23.1210   32.4020 O   0  0  0  0  0  0  0  0  0  0  0  0
   38.3600   24.5280   32.3690 C   0  0  1  0  0  0  0  0  0  0  0  0
   38.0720   25.6840   31.4200 C   0  0  2  0  0  0  0  0  0  0  0  0
   38.0700   27.3290   32.1660 S   0  0  0  0  0  0  0  0  0  0  0  0
   34.9160   26.3850   30.9730 H   0  0  0  0  0  0  0  0  0  0  0  0
   36.1630   26.5410   29.7010 H   0  0  0  0  0  0  0  0  0  0  0  0
   39.1380   23.9090   31.8610 H   0  0  0  0  0  0  0  0  0  0  0  0
   38.5580   25.6220   30.4290 H   0  0  0  0  0  0  0  0  0  0  0  0
   35.4810   28.3360   32.5060 C   0  0  0  0  0  0  0  0  0  0  0  0
   35.1740   29.3540   32.2330 H   0  0  0  0  0  0  0  0  0  0  0  0
   35.9800   28.4200   33.5130 H   0  0  0  0  0  0  0  0  0  0  0  0
   34.5950   27.6780   32.6540 H   0  0  0  0  0  0  0  0  0  0  0  0
   36.7500   28.8430   30.4010 C   0  0  0  0  0  0  0  0  0  0  0  0
   37.7120   29.2950   30.7170 H   0  0  0  0  0  0  0  0  0  0  0  0
   35.9500   29.5970   30.4330 H   0  0  0  0  0  0  0  0  0  0  0  0
   36.8290   28.1980   29.1690 O   0  0  0  0  0  0  0  0  0  0  0  0
   37.3290   27.3580   29.2540 H   0  0  0  0  0  0  0  0  0  0  0  0
   38.7010   24.9070   33.7580 C   0  0  0  0  0  0  0  0  0  0  0  0
   37.6860   25.2530   34.4470 O   0  0  0  0  0  0  0  0  0  0  0  0
   40.0280   24.8900   34.2930 C   0  0  0  0  0  0  0  0  0  0  0  0
   40.7480   26.0610   34.2850 C   0  0  0  0  0  0  0  0  0  0  0  0
   42.0580   26.0380   34.8120 C   0  0  0  0  0  0  0  0  0  0  0  0
   42.5310   24.8490   35.2980 N   0  0  0  0  0  0  0  0  0  0  0  0
   41.8100   23.7330   35.2930 C   0  0  0  0  0  0  0  0  0  0  0  0
   40.5530   23.7460   34.7900 N   0  0  0  0  0  0  0  0  0  0  0  0
   40.3820   27.0070   33.9010 H   0  0  0  0  0  0  0  0  0  0  0  0
   42.6590   26.9420   34.8240 H   0  0  0  0  0  0  0  0  0  0  0  0
   41.6920   21.9100   36.9290 C   0  0  0  0  0  0  0  0  0  0  0  0
   42.3270   22.4730   35.8160 C   0  0  0  0  0  0  0  0  0  0  0  0
   43.4160   21.8330   35.2450 C   0  0  0  0  0  0  0  0  0  0  0  0
   43.9020   22.2720   34.3860 H   0  0  0  0  0  0  0  0  0  0  0  0
   43.8780   20.6290   35.7780 C   0  0  0  0  0  0  0  0  0  0  0  0
   44.7300   20.0970   35.3550 H   0  0  0  0  0  0  0  0  0  0  0  0
   43.2220   20.1090   36.8760 C   0  0  0  0  0  3  0  0  0  0  0  0
   42.1270   20.7090   37.4890 C   0  0  0  0  0  3  0  0  0  0  0  0
   39.6500   23.0230   38.0870 N   0  0  0  0  0  0  0  0  0  0  0  0
   40.5570   22.5300   37.5670 C   0  0  0  0  0  0  0  0  0  0  0  0
  1 17  1  6  0  0  0
  1  8  1  0  0  0  0
  1 13  1  0  0  0  0
  2  9  1  0  0  0  0
  2  3  1  0  0  0  0
  2  1  1  0  0  0  0
  3  4  1  0  0  0  0
  4  6  1  0  0  0  0
  4  5  2  0  0  0  0
  6 11  1  6  0  0  0
  6 22  1  0  0  0  0
  7 12  1  6  0  0  0
  7  3  1  0  0  0  0
  7  8  1  0  0  0  0
  7  6  1  0  0  0  0
 10  2  1  0  0  0  0
 13 16  1  0  0  0  0
 13 15  1  0  0  0  0
 14 13  1  0  0  0  0
 17 19  1  0  0  0  0
 17 18  1  0  0  0  0
 20 21  1  0  0  0  0
 20 17  1  0  0  0  0
 22 24  1  0  0  0  0
 22 23  2  0  0  0  0
 24 29  1  0  0  0  0
 25 24  2  0  0  0  0
 25 26  1  0  0  0  0
 26 31  1  0  0  0  0
 26 27  2  0  0  0  0
 28 27  1  0  0  0  0
 28 33  1  0  0  0  0
 29 28  2  0  0  0  0
 30 25  1  0  0  0  0
 32 39  1  0  0  0  0
 32 41  1  0  0  0  0
 33 32  2  0  0  0  0
 34 36  2  0  0  0  0
 34 33  1  0  0  0  0
 35 34  1  0  0  0  0
 36 38  1  0  0  0  0
 37 36  1  0  0  0  0
 38 39  2  0  0  0  0
 41 40  3  0  0  0  0
M  END
>  <minimizedAffinity>
-5.42434549

$$$$
