
 OpenBabel03272501083D

 41 44  0  0  1  0  0  0  0  0999 V2000
   38.3120   32.1810   46.0510 O   0  0  0  0  0  0  0  0  0  0  0  0
   38.9650   32.2780   47.2300 C   0  0  2  0  0  0  0  0  0  0  0  0
   37.9900   32.4940   48.4320 C   0  0  2  0  0  0  0  0  0  0  0  0
   38.8560   33.1950   49.3660 C   0  0  0  0  0  0  0  0  0  0  0  0
   39.6970   34.0260   48.6380 O   0  0  0  0  0  0  0  0  0  0  0  0
   39.6190   33.6840   47.3320 C   0  0  0  0  0  0  0  0  0  0  0  0
   39.7110   31.5200   47.4410 H   0  0  0  0  0  0  0  0  0  0  0  0
   37.2100   33.1670   48.0160 H   0  0  0  0  0  0  0  0  0  0  0  0
   39.4980   32.5930   50.0070 H   0  0  0  0  0  0  0  0  0  0  0  0
   38.2230   33.8510   50.0320 H   0  0  0  0  0  0  0  0  0  0  0  0
   40.6340   33.5610   46.8890 H   0  0  0  0  0  0  0  0  0  0  0  0
   39.0020   34.4130   46.7850 H   0  0  0  0  0  0  0  0  0  0  0  0
   37.2290   29.3210   50.3030 C   0  0  0  0  0  0  0  0  0  0  0  0
   37.8880   30.5290   49.9430 C   0  0  0  0  0  0  0  0  0  0  0  0
   37.3600   31.2660   48.8490 C   0  0  0  0  0  0  0  0  0  0  0  0
   36.2510   30.7870   48.1920 N   0  0  0  0  0  0  0  0  0  0  0  0
   35.6660   29.6450   48.5680 C   0  0  0  0  0  0  0  0  0  0  0  0
   36.1320   28.9060   49.6060 N   0  0  0  0  0  0  0  0  0  0  0  0
   37.6570   28.7930   51.1340 H   0  0  0  0  0  0  0  0  0  0  0  0
   38.7560   30.8550   50.4970 H   0  0  0  0  0  0  0  0  0  0  0  0
   34.7940   29.2380   48.0750 H   0  0  0  0  0  0  0  0  0  0  0  0
   36.7730   32.8520   43.4660 Cl  0  0  0  0  0  0  0  0  0  0  0  0
   37.7390   31.4170   43.7310 C   0  0  0  0  0  0  0  0  0  0  0  0
   38.3250   31.3600   44.9810 C   0  0  0  0  0  0  0  0  0  0  0  0
   39.0920   30.2240   45.1980 C   0  0  0  0  0  0  0  0  0  0  0  0
   39.2630   29.2340   44.2620 C   0  0  0  0  0  0  0  0  0  0  0  0
   38.6410   29.3680   43.0330 C   0  0  0  0  0  0  0  0  0  0  0  0
   37.8570   30.4750   42.7380 C   0  0  0  0  0  0  0  0  0  0  0  0
   39.6260   30.0050   46.1140 H   0  0  0  0  0  0  0  0  0  0  0  0
   39.8560   28.3410   44.4040 H   0  0  0  0  0  0  0  0  0  0  0  0
   38.7330   28.6280   42.2490 H   0  0  0  0  0  0  0  0  0  0  0  0
   35.8400   30.3130   41.2880 C   0  0  0  0  0  0  0  0  0  0  0  0
   37.1590   30.7150   41.4800 C   0  0  0  0  0  0  0  0  0  0  0  0
   37.7730   31.3500   40.4230 C   0  0  0  0  0  0  0  0  0  0  0  0
   38.8060   31.6590   40.5870 H   0  0  0  0  0  0  0  0  0  0  0  0
   37.1900   31.6170   39.2010 C   0  0  0  0  0  0  0  0  0  0  0  0
   37.7460   32.1220   38.4220 H   0  0  0  0  0  0  0  0  0  0  0  0
   35.8870   31.2080   39.0440 C   0  0  0  0  0  3  0  0  0  0  0  0
   35.2330   30.5690   40.0740 C   0  0  0  0  0  3  0  0  0  0  0  0
   34.6420   29.0960   43.2520 N   0  0  0  0  0  0  0  0  0  0  0  0
   35.1780   29.6460   42.3860 C   0  0  0  0  0  0  0  0  0  0  0  0
  1  2  1  0  0  0  0
  2  6  1  0  0  0  0
  2  7  1  1  0  0  0
  2  3  1  0  0  0  0
  3  8  1  6  0  0  0
  3 15  1  0  0  0  0
  3  4  1  0  0  0  0
  4  9  1  0  0  0  0
  4 10  1  0  0  0  0
  5  4  1  0  0  0  0
  6  5  1  0  0  0  0
 11  6  1  0  0  0  0
 12  6  1  0  0  0  0
 13 19  1  0  0  0  0
 14 13  1  0  0  0  0
 14 20  1  0  0  0  0
 15 14  2  0  0  0  0
 16 17  2  0  0  0  0
 16 15  1  0  0  0  0
 17 18  1  0  0  0  0
 18 13  2  0  0  0  0
 21 17  1  0  0  0  0
 22 23  1  0  0  0  0
 23 24  1  0  0  0  0
 24 25  2  0  0  0  0
 24  1  1  0  0  0  0
 25 29  1  0  0  0  0
 26 30  1  0  0  0  0
 26 25  1  0  0  0  0
 27 26  2  0  0  0  0
 28 27  1  0  0  0  0
 28 23  2  0  0  0  0
 31 27  1  0  0  0  0
 32 33  1  0  0  0  0
 32 41  1  0  0  0  0
 33 28  1  0  0  0  0
 34 35  1  0  0  0  0
 34 33  2  0  0  0  0
 36 34  1  0  0  0  0
 37 36  1  0  0  0  0
 38 36  2  0  0  0  0
 38 39  1  0  0  0  0
 39 32  2  0  0  0  0
 41 40  3  0  0  0  0
M  END
>  <minimizedAffinity>
-4.97222185

>  <minimizedRMSD>
3.85425711

$$$$
