
 OpenBabel03262523103D

 21 22  0  0  0  0  0  0  0  0999 V2000
   37.9470   30.7060   50.2840 C   0  0  0  0  0  0  0  0  0  0  0  0
   38.7020   31.8840   50.0440 C   0  0  0  0  0  0  0  0  0  0  0  0
   38.5110   32.5260   48.8230 C   0  0  0  0  0  0  0  0  0  0  0  0
   37.6260   31.9850   47.9610 N   0  0  0  0  0  0  0  0  0  0  0  0
   36.9200   30.8740   48.1970 C   0  0  0  0  0  0  0  0  0  0  0  0
   37.0940   30.2520   49.3600 N   0  0  0  0  0  0  0  0  0  0  0  0
   39.3680   32.2140   50.7980 H   0  0  0  0  0  0  0  0  0  0  0  0
   39.0760   33.4310   48.6150 H   0  0  0  0  0  0  0  0  0  0  0  0
   34.7710   29.8360   47.6160 C   0  0  0  0  0  0  0  0  0  0  0  0
   35.9820   30.3540   47.2080 C   0  0  0  0  0  0  0  0  0  0  0  0
   36.2930   30.3740   45.8630 C   0  0  0  0  0  0  0  0  0  0  0  0
   37.2490   30.7800   45.5120 H   0  0  0  0  0  0  0  0  0  0  0  0
   35.4300   29.8880   44.8770 C   0  0  0  0  0  0  0  0  0  0  0  0
   35.6460   29.8920   43.8330 H   0  0  0  0  0  0  0  0  0  0  0  0
   34.2240   29.3800   45.3700 C   0  0  0  0  0  0  0  0  0  0  0  0
   33.8660   29.3380   46.7030 C   0  0  0  0  0  0  0  0  0  0  0  0
   34.1250   29.7530   50.1370 N   0  0  0  0  0  0  0  0  0  0  0  0
   34.4150   29.8000   49.0150 C   0  0  0  0  0  0  0  0  0  0  0  0
   38.0670   29.9690   51.5060 N   0  0  0  0  0  0  0  0  0  0  0  0
   37.6330   30.4730   52.3150 H   0  0  0  0  0  0  0  0  0  0  0  0
   38.5130   29.0280   51.6990 H   0  0  0  0  0  0  0  0  0  0  0  0
  1 19  1  0  0  0  0
  2  1  1  0  0  0  0
  2  7  1  0  0  0  0
  3  2  2  0  0  0  0
  4  5  2  0  0  0  0
  4  3  1  0  0  0  0
  5  6  1  0  0  0  0
  6  1  2  0  0  0  0
  8  3  1  0  0  0  0
  9 18  1  0  0  0  0
 10  9  1  0  0  0  0
 10  5  1  0  0  0  0
 11 10  2  0  0  0  0
 12 11  1  0  0  0  0
 13 15  2  0  0  0  0
 13 11  1  0  0  0  0
 14 13  1  0  0  0  0
 15 16  1  0  0  0  0
 16  9  2  0  0  0  0
 18 17  3  0  0  0  0
 19 21  1  0  0  0  0
 19 20  1  0  0  0  0
M  END
>  <minimizedAffinity>
-4.69525385

>  <minimizedRMSD>
2.7950542

$$$$
