
 OpenBabel03272505143D

 40 43  0  0  0  0  0  0  0  0999 V2000
   37.3600   26.1460   32.3530 S   0  0  0  0  0  0  0  0  0  0  0  0
   38.1150   23.7200   34.1480 Cl  0  0  0  0  0  0  0  0  0  0  0  0
   39.2370   25.0510   34.0510 C   0  0  0  0  0  0  0  0  0  0  0  0
   40.4060   24.9550   34.7790 C   0  0  0  0  0  0  0  0  0  0  0  0
   41.3060   26.0120   34.7060 C   0  0  0  0  0  0  0  0  0  0  0  0
   41.0140   27.1040   33.9260 C   0  0  0  0  0  0  0  0  0  0  0  0
   39.8250   27.1340   33.2210 C   0  0  0  0  0  0  0  0  0  0  0  0
   38.8880   26.1310   33.2440 C   0  0  0  0  0  0  0  0  0  0  0  0
   42.2250   25.9770   35.2560 H   0  0  0  0  0  0  0  0  0  0  0  0
   41.7120   27.9300   33.8650 H   0  0  0  0  0  0  0  0  0  0  0  0
   39.6130   28.0060   32.6110 H   0  0  0  0  0  0  0  0  0  0  0  0
   41.8230   21.7670   35.8170 C   0  0  0  0  0  0  0  0  0  0  0  0
   41.2280   21.5090   37.0710 C   0  0  0  0  0  0  0  0  0  0  0  0
   40.3270   22.4680   37.5450 C   0  0  0  0  0  0  0  0  0  0  0  0
   40.0730   23.5770   36.7850 N   0  0  0  0  0  0  0  0  0  0  0  0
   40.6720   23.7670   35.5980 C   0  0  0  0  0  0  0  0  0  0  0  0
   41.5360   22.8670   35.1270 N   0  0  0  0  0  0  0  0  0  0  0  0
   42.5420   21.0820   35.3560 H   0  0  0  0  0  0  0  0  0  0  0  0
   41.5040   20.6000   37.5800 H   0  0  0  0  0  0  0  0  0  0  0  0
   39.8680   22.2830   38.4960 H   0  0  0  0  0  0  0  0  0  0  0  0
   36.3090   27.6250   34.9200 Cl  0  0  0  0  0  0  0  0  0  0  0  0
   36.2780   28.3850   33.3350 C   0  0  0  0  0  0  0  0  0  0  0  0
   36.7190   27.8120   32.1540 C   0  0  0  0  0  0  0  0  0  0  0  0
   36.6420   28.5110   30.9720 C   0  0  0  0  0  0  0  0  0  0  0  0
   36.1330   29.7740   30.9520 C   0  0  0  0  0  0  0  0  0  0  0  0
   35.6730   30.4020   32.1140 C   0  0  0  0  0  0  0  0  0  0  0  0
   35.7620   29.6810   33.2780 C   0  0  0  0  0  0  0  0  0  0  0  0
   37.0130   27.9760   30.0990 H   0  0  0  0  0  0  0  0  0  0  0  0
   36.0960   30.2740   30.0060 H   0  0  0  0  0  0  0  0  0  0  0  0
   35.2790   31.4010   32.0560 H   0  0  0  0  0  0  0  0  0  0  0  0
   33.8890   30.2720   34.6480 C   0  0  0  0  0  0  0  0  0  0  0  0
   35.2680   30.3890   34.4600 C   0  0  0  0  0  0  0  0  0  0  0  0
   36.0450   31.1230   35.3500 C   0  0  0  0  0  0  0  0  0  0  0  0
   37.0950   31.1660   35.1390 H   0  0  0  0  0  0  0  0  0  0  0  0
   35.4010   31.7220   36.4100 C   0  0  0  0  0  0  0  0  0  0  0  0
   36.0480   32.2850   37.0770 H   0  0  0  0  0  0  0  0  0  0  0  0
   34.0450   31.6340   36.6340 C   0  0  0  0  0  3  0  0  0  0  0  0
   33.3060   30.8970   35.7310 C   0  0  0  0  0  3  0  0  0  0  0  0
   32.3550   28.9310   33.0450 N   0  0  0  0  0  0  0  0  0  0  0  0
   33.0420   29.5200   33.7510 C   0  0  0  0  0  0  0  0  0  0  0  0
  1  8  1  0  0  0  0
  3  2  1  0  0  0  0
  3  4  1  0  0  0  0
  4 16  1  0  0  0  0
  5  4  2  0  0  0  0
  5  9  1  0  0  0  0
  6  5  1  0  0  0  0
  7  8  1  0  0  0  0
  7  6  2  0  0  0  0
  8  3  2  0  0  0  0
 10  6  1  0  0  0  0
 11  7  1  0  0  0  0
 12 13  1  0  0  0  0
 13 14  2  0  0  0  0
 13 19  1  0  0  0  0
 14 20  1  0  0  0  0
 15 14  1  0  0  0  0
 16 15  2  0  0  0  0
 17 16  1  0  0  0  0
 17 12  2  0  0  0  0
 18 12  1  0  0  0  0
 22 21  1  0  0  0  0
 23  1  1  0  0  0  0
 23 22  2  0  0  0  0
 24 23  1  0  0  0  0
 25 24  2  0  0  0  0
 25 26  1  0  0  0  0
 26 27  2  0  0  0  0
 27 22  1  0  0  0  0
 27 32  1  0  0  0  0
 28 24  1  0  0  0  0
 29 25  1  0  0  0  0
 30 26  1  0  0  0  0
 31 38  1  0  0  0  0
 32 31  2  0  0  0  0
 32 33  1  0  0  0  0
 33 35  2  0  0  0  0
 34 33  1  0  0  0  0
 35 37  1  0  0  0  0
 35 36  1  0  0  0  0
 38 37  2  0  0  0  0
 39 40  3  0  0  0  0
 40 31  1  0  0  0  0
M  END
>  <minimizedAffinity>
-6.44378233

$$$$

 OpenBabel03272505143D

 40 43  0  0  0  0  0  0  0  0999 V2000
   38.2630   23.2010   30.6760 S   0  0  0  0  0  0  0  0  0  0  0  0
   39.5360   23.7160   33.4680 Cl  0  0  0  0  0  0  0  0  0  0  0  0
   38.1390   22.6770   33.3810 C   0  0  0  0  0  0  0  0  0  0  0  0
   37.6700   22.1370   34.5620 C   0  0  0  0  0  0  0  0  0  0  0  0
   36.5560   21.3070   34.5000 C   0  0  0  0  0  0  0  0  0  0  0  0
   35.9610   21.0520   33.2880 C   0  0  0  0  0  0  0  0  0  0  0  0
   36.4820   21.6270   32.1440 C   0  0  0  0  0  0  0  0  0  0  0  0
   37.5780   22.4540   32.1260 C   0  0  0  0  0  0  0  0  0  0  0  0
   36.1610   20.8680   35.3940 H   0  0  0  0  0  0  0  0  0  0  0  0
   35.0930   20.4070   33.2350 H   0  0  0  0  0  0  0  0  0  0  0  0
   35.9980   21.4120   31.1970 H   0  0  0  0  0  0  0  0  0  0  0  0
   40.2250   22.1720   37.1530 C   0  0  0  0  0  0  0  0  0  0  0  0
   39.6700   22.9600   38.1850 C   0  0  0  0  0  0  0  0  0  0  0  0
   38.3910   23.4780   37.9560 C   0  0  0  0  0  0  0  0  0  0  0  0
   37.7600   23.1980   36.7750 N   0  0  0  0  0  0  0  0  0  0  0  0
   38.3410   22.4400   35.8310 C   0  0  0  0  0  0  0  0  0  0  0  0
   39.5600   21.9360   36.0260 N   0  0  0  0  0  0  0  0  0  0  0  0
   41.2190   21.7190   37.2300 H   0  0  0  0  0  0  0  0  0  0  0  0
   40.2610   23.1120   39.0720 H   0  0  0  0  0  0  0  0  0  0  0  0
   37.9590   24.0780   38.7330 H   0  0  0  0  0  0  0  0  0  0  0  0
   36.0800   25.2690   31.5940 Cl  0  0  0  0  0  0  0  0  0  0  0  0
   37.7620   25.7320   31.3780 C   0  0  0  0  0  0  0  0  0  0  0  0
   38.7880   24.8920   30.9790 C   0  0  0  0  0  0  0  0  0  0  0  0
   40.0680   25.3750   30.8460 C   0  0  0  0  0  0  0  0  0  0  0  0
   40.3400   26.6840   31.1060 C   0  0  0  0  0  0  0  0  0  0  0  0
   39.3430   27.5770   31.5130 C   0  0  0  0  0  0  0  0  0  0  0  0
   38.0760   27.0670   31.6370 C   0  0  0  0  0  0  0  0  0  0  0  0
   40.8050   24.6380   30.5270 H   0  0  0  0  0  0  0  0  0  0  0  0
   41.3540   27.0090   30.9880 H   0  0  0  0  0  0  0  0  0  0  0  0
   39.6000   28.6040   31.7100 H   0  0  0  0  0  0  0  0  0  0  0  0
   36.6280   28.8780   31.0360 C   0  0  0  0  0  0  0  0  0  0  0  0
   37.0760   28.0470   32.0660 C   0  0  0  0  0  0  0  0  0  0  0  0
   36.5780   28.1860   33.3570 C   0  0  0  0  0  0  0  0  0  0  0  0
   36.9710   27.5110   34.0920 H   0  0  0  0  0  0  0  0  0  0  0  0
   35.6370   29.1680   33.5720 C   0  0  0  0  0  0  0  0  0  0  0  0
   35.2780   29.2410   34.5950 H   0  0  0  0  0  0  0  0  0  0  0  0
   35.1670   30.0100   32.5890 C   0  0  0  0  0  3  0  0  0  0  0  0
   35.6830   29.8420   31.3200 C   0  0  0  0  0  3  0  0  0  0  0  0
   37.5180   28.6790   28.6100 N   0  0  0  0  0  0  0  0  0  0  0  0
   37.1160   28.7710   29.6800 C   0  0  0  0  0  0  0  0  0  0  0  0
  1 23  1  0  0  0  0
  1  8  1  0  0  0  0
  3  2  1  0  0  0  0
  3  4  1  0  0  0  0
  4 16  1  0  0  0  0
  5  4  2  0  0  0  0
  5  9  1  0  0  0  0
  6  5  1  0  0  0  0
  7  6  2  0  0  0  0
  8  7  1  0  0  0  0
  8  3  2  0  0  0  0
 10  6  1  0  0  0  0
 11  7  1  0  0  0  0
 12 18  1  0  0  0  0
 12 13  1  0  0  0  0
 13 19  1  0  0  0  0
 14 13  2  0  0  0  0
 14 20  1  0  0  0  0
 15 14  1  0  0  0  0
 16 17  1  0  0  0  0
 16 15  2  0  0  0  0
 17 12  2  0  0  0  0
 22 21  1  0  0  0  0
 22 27  1  0  0  0  0
 23 22  2  0  0  0  0
 24 23  1  0  0  0  0
 24 25  2  0  0  0  0
 25 26  1  0  0  0  0
 26 27  2  0  0  0  0
 26 30  1  0  0  0  0
 27 32  1  0  0  0  0
 28 24  1  0  0  0  0
 29 25  1  0  0  0  0
 31 38  2  0  0  0  0
 31 32  1  0  0  0  0
 32 33  2  0  0  0  0
 33 35  1  0  0  0  0
 33 34  1  0  0  0  0
 35 36  1  0  0  0  0
 37 35  2  0  0  0  0
 38 37  1  0  0  0  0
 39 40  3  0  0  0  0
 40 31  1  0  0  0  0
M  END
>  <minimizedAffinity>
-6.18716478

$$$$

 OpenBabel03272505143D

 40 43  0  0  0  0  0  0  0  0999 V2000
   38.0760   23.4220   30.5580 S   0  0  0  0  0  0  0  0  0  0  0  0
   39.5470   23.7850   33.2750 Cl  0  0  0  0  0  0  0  0  0  0  0  0
   38.1350   22.7640   33.2360 C   0  0  0  0  0  0  0  0  0  0  0  0
   37.7440   22.1680   34.4190 C   0  0  0  0  0  0  0  0  0  0  0  0
   36.6180   21.3520   34.3950 C   0  0  0  0  0  0  0  0  0  0  0  0
   35.9370   21.1630   33.2170 C   0  0  0  0  0  0  0  0  0  0  0  0
   36.3840   21.7900   32.0690 C   0  0  0  0  0  0  0  0  0  0  0  0
   37.4850   22.6080   32.0150 C   0  0  0  0  0  0  0  0  0  0  0  0
   36.2820   20.8710   35.2920 H   0  0  0  0  0  0  0  0  0  0  0  0
   35.0600   20.5290   33.1930 H   0  0  0  0  0  0  0  0  0  0  0  0
   35.8320   21.6270   31.1490 H   0  0  0  0  0  0  0  0  0  0  0  0
   38.5910   23.4360   37.7240 C   0  0  0  0  0  0  0  0  0  0  0  0
   39.8650   22.8910   37.9940 C   0  0  0  0  0  0  0  0  0  0  0  0
   40.4190   22.0760   37.0020 C   0  0  0  0  0  0  0  0  0  0  0  0
   39.7150   21.8550   35.8500 N   0  0  0  0  0  0  0  0  0  0  0  0
   38.5050   22.4020   35.6510 C   0  0  0  0  0  0  0  0  0  0  0  0
   37.9560   23.1820   36.5830 N   0  0  0  0  0  0  0  0  0  0  0  0
   38.0680   24.0860   38.4320 H   0  0  0  0  0  0  0  0  0  0  0  0
   40.3250   23.1350   38.9370 H   0  0  0  0  0  0  0  0  0  0  0  0
   41.3870   21.6570   37.1950 H   0  0  0  0  0  0  0  0  0  0  0  0
   35.8310   25.3550   31.6100 Cl  0  0  0  0  0  0  0  0  0  0  0  0
   37.4780   25.9070   31.3410 C   0  0  0  0  0  0  0  0  0  0  0  0
   38.5280   25.1290   30.8830 C   0  0  0  0  0  0  0  0  0  0  0  0
   39.7770   25.6780   30.7130 C   0  0  0  0  0  0  0  0  0  0  0  0
   39.9940   26.9930   30.9950 C   0  0  0  0  0  0  0  0  0  0  0  0
   38.9710   27.8260   31.4620 C   0  0  0  0  0  0  0  0  0  0  0  0
   37.7370   27.2500   31.6210 C   0  0  0  0  0  0  0  0  0  0  0  0
   40.5360   24.9870   30.3480 H   0  0  0  0  0  0  0  0  0  0  0  0
   40.9850   27.3710   30.8460 H   0  0  0  0  0  0  0  0  0  0  0  0
   39.1850   28.8590   31.6740 H   0  0  0  0  0  0  0  0  0  0  0  0
   36.5270   28.1200   33.4960 C   0  0  0  0  0  0  0  0  0  0  0  0
   36.7070   28.1690   32.1120 C   0  0  0  0  0  0  0  0  0  0  0  0
   35.9500   29.0320   31.3270 C   0  0  0  0  0  0  0  0  0  0  0  0
   36.1470   29.0120   30.2740 H   0  0  0  0  0  0  0  0  0  0  0  0
   35.0250   29.8260   31.9690 C   0  0  0  0  0  0  0  0  0  0  0  0
   34.4570   30.4830   31.3170 H   0  0  0  0  0  0  0  0  0  0  0  0
   34.8120   29.8110   33.3300 C   0  0  0  0  0  3  0  0  0  0  0  0
   35.5820   28.9420   34.0760 C   0  0  0  0  0  3  0  0  0  0  0  0
   37.8900   26.5490   35.0430 N   0  0  0  0  0  0  0  0  0  0  0  0
   37.2900   27.2400   34.3510 C   0  0  0  0  0  0  0  0  0  0  0  0
  1 23  1  0  0  0  0
  1  8  1  0  0  0  0
  3  2  1  0  0  0  0
  3  4  1  0  0  0  0
  4 16  1  0  0  0  0
  5  4  2  0  0  0  0
  5  9  1  0  0  0  0
  6  5  1  0  0  0  0
  7  6  2  0  0  0  0
  8  7  1  0  0  0  0
  8  3  2  0  0  0  0
 10  6  1  0  0  0  0
 11  7  1  0  0  0  0
 12 13  1  0  0  0  0
 12 18  1  0  0  0  0
 13 19  1  0  0  0  0
 14 20  1  0  0  0  0
 14 13  2  0  0  0  0
 15 14  1  0  0  0  0
 16 15  2  0  0  0  0
 16 17  1  0  0  0  0
 17 12  2  0  0  0  0
 22 21  1  0  0  0  0
 22 27  1  0  0  0  0
 23 22  2  0  0  0  0
 24 23  1  0  0  0  0
 24 25  2  0  0  0  0
 25 26  1  0  0  0  0
 26 27  2  0  0  0  0
 26 30  1  0  0  0  0
 27 32  1  0  0  0  0
 28 24  1  0  0  0  0
 29 25  1  0  0  0  0
 31 38  1  0  0  0  0
 31 40  1  0  0  0  0
 32 31  2  0  0  0  0
 33 35  2  0  0  0  0
 33 32  1  0  0  0  0
 34 33  1  0  0  0  0
 35 37  1  0  0  0  0
 36 35  1  0  0  0  0
 37 38  2  0  0  0  0
 40 39  3  0  0  0  0
M  END
>  <minimizedAffinity>
-6.06865692

$$$$

 OpenBabel03272505143D

 40 43  0  0  0  0  0  0  0  0999 V2000
   39.7060   26.5980   31.8730 S   0  0  0  0  0  0  0  0  0  0  0  0
   37.4460   27.8960   33.5700 Cl  0  0  0  0  0  0  0  0  0  0  0  0
   37.5050   28.2600   31.8670 C   0  0  0  0  0  0  0  0  0  0  0  0
   36.5410   29.1080   31.3610 C   0  0  0  0  0  0  0  0  0  0  0  0
   36.5820   29.4030   30.0020 C   0  0  0  0  0  0  0  0  0  0  0  0
   37.5630   28.8520   29.2140 C   0  0  0  0  0  0  0  0  0  0  0  0
   38.4980   28.0100   29.7870 C   0  0  0  0  0  0  0  0  0  0  0  0
   38.5210   27.6730   31.1170 C   0  0  0  0  0  0  0  0  0  0  0  0
   35.8520   30.0580   29.5700 H   0  0  0  0  0  0  0  0  0  0  0  0
   37.6000   29.0790   28.1560 H   0  0  0  0  0  0  0  0  0  0  0  0
   39.2650   27.5860   29.1460 H   0  0  0  0  0  0  0  0  0  0  0  0
   33.4200   29.4210   33.2070 C   0  0  0  0  0  0  0  0  0  0  0  0
   33.5350   30.6540   33.8860 C   0  0  0  0  0  0  0  0  0  0  0  0
   34.7200   31.3690   33.6870 C   0  0  0  0  0  0  0  0  0  0  0  0
   35.6810   30.8510   32.8630 N   0  0  0  0  0  0  0  0  0  0  0  0
   35.5140   29.6710   32.2440 C   0  0  0  0  0  0  0  0  0  0  0  0
   34.3930   28.9700   32.4200 N   0  0  0  0  0  0  0  0  0  0  0  0
   32.5350   28.7820   33.2940 H   0  0  0  0  0  0  0  0  0  0  0  0
   32.7110   30.9610   34.5090 H   0  0  0  0  0  0  0  0  0  0  0  0
   34.8180   32.3070   34.1970 H   0  0  0  0  0  0  0  0  0  0  0  0
   39.9720   26.2220   34.9820 Cl  0  0  0  0  0  0  0  0  0  0  0  0
   39.0970   25.0720   33.9810 C   0  0  0  0  0  0  0  0  0  0  0  0
   38.9290   25.1570   32.6090 C   0  0  0  0  0  0  0  0  0  0  0  0
   38.2200   24.1900   31.9350 C   0  0  0  0  0  0  0  0  0  0  0  0
   37.6760   23.1400   32.6100 C   0  0  0  0  0  0  0  0  0  0  0  0
   37.8140   23.0040   33.9960 C   0  0  0  0  0  0  0  0  0  0  0  0
   38.5250   23.9820   34.6410 C   0  0  0  0  0  0  0  0  0  0  0  0
   38.1430   24.3450   30.8590 H   0  0  0  0  0  0  0  0  0  0  0  0
   37.1330   22.4150   32.0380 H   0  0  0  0  0  0  0  0  0  0  0  0
   37.3670   22.1590   34.4920 H   0  0  0  0  0  0  0  0  0  0  0  0
   39.7320   23.0090   36.4670 C   0  0  0  0  0  0  0  0  0  0  0  0
   38.6360   23.7870   36.0880 C   0  0  0  0  0  0  0  0  0  0  0  0
   37.7660   24.3010   37.0440 C   0  0  0  0  0  0  0  0  0  0  0  0
   36.9490   24.8890   36.6760 H   0  0  0  0  0  0  0  0  0  0  0  0
   38.0320   24.0120   38.3640 C   0  0  0  0  0  0  0  0  0  0  0  0
   37.3270   24.4330   39.0750 H   0  0  0  0  0  0  0  0  0  0  0  0
   39.0990   23.2490   38.7840 C   0  0  0  0  0  3  0  0  0  0  0  0
   39.9410   22.7560   37.8070 C   0  0  0  0  0  3  0  0  0  0  0  0
   41.4010   22.0290   34.7420 N   0  0  0  0  0  0  0  0  0  0  0  0
   40.6610   22.4540   35.5090 C   0  0  0  0  0  0  0  0  0  0  0  0
  1 23  1  0  0  0  0
  3  2  1  0  0  0  0
  4  3  1  0  0  0  0
  4 16  1  0  0  0  0
  5  4  2  0  0  0  0
  6  7  2  0  0  0  0
  6  5  1  0  0  0  0
  7  8  1  0  0  0  0
  8  3  2  0  0  0  0
  8  1  1  0  0  0  0
  9  5  1  0  0  0  0
 10  6  1  0  0  0  0
 11  7  1  0  0  0  0
 12 18  1  0  0  0  0
 12 13  1  0  0  0  0
 13 19  1  0  0  0  0
 14 13  2  0  0  0  0
 14 20  1  0  0  0  0
 15 14  1  0  0  0  0
 16 17  1  0  0  0  0
 16 15  2  0  0  0  0
 17 12  2  0  0  0  0
 22 27  1  0  0  0  0
 22 21  1  0  0  0  0
 23 22  2  0  0  0  0
 24 23  1  0  0  0  0
 24 25  2  0  0  0  0
 25 26  1  0  0  0  0
 26 30  1  0  0  0  0
 26 27  2  0  0  0  0
 27 32  1  0  0  0  0
 28 24  1  0  0  0  0
 29 25  1  0  0  0  0
 31 38  1  0  0  0  0
 32 31  2  0  0  0  0
 32 33  1  0  0  0  0
 33 35  2  0  0  0  0
 34 33  1  0  0  0  0
 35 37  1  0  0  0  0
 35 36  1  0  0  0  0
 38 37  2  0  0  0  0
 39 40  3  0  0  0  0
 40 31  1  0  0  0  0
M  END
>  <minimizedAffinity>
-5.98640203

$$$$

 OpenBabel03272505143D

 40 43  0  0  0  0  0  0  0  0999 V2000
   37.5040   28.0470   31.7050 S   0  0  0  0  0  0  0  0  0  0  0  0
   38.9410   25.3040   32.0080 Cl  0  0  0  0  0  0  0  0  0  0  0  0
   37.2430   25.3030   31.6130 C   0  0  0  0  0  0  0  0  0  0  0  0
   36.6240   24.0790   31.4560 C   0  0  0  0  0  0  0  0  0  0  0  0
   35.2700   24.0700   31.1400 C   0  0  0  0  0  0  0  0  0  0  0  0
   34.5950   25.2580   30.9970 C   0  0  0  0  0  0  0  0  0  0  0  0
   35.2760   26.4480   31.1690 C   0  0  0  0  0  0  0  0  0  0  0  0
   36.6110   26.5360   31.4800 C   0  0  0  0  0  0  0  0  0  0  0  0
   34.7530   23.1400   31.0090 H   0  0  0  0  0  0  0  0  0  0  0  0
   33.5410   25.2560   30.7520 H   0  0  0  0  0  0  0  0  0  0  0  0
   34.7250   27.3750   31.0510 H   0  0  0  0  0  0  0  0  0  0  0  0
   38.0610   21.1340   33.0400 C   0  0  0  0  0  0  0  0  0  0  0  0
   38.7980   20.5060   32.0130 C   0  0  0  0  0  0  0  0  0  0  0  0
   38.7820   21.1280   30.7610 C   0  0  0  0  0  0  0  0  0  0  0  0
   38.0710   22.2870   30.6020 N   0  0  0  0  0  0  0  0  0  0  0  0
   37.3890   22.8370   31.6190 C   0  0  0  0  0  0  0  0  0  0  0  0
   37.3890   22.2610   32.8220 N   0  0  0  0  0  0  0  0  0  0  0  0
   38.0080   20.7300   34.0570 H   0  0  0  0  0  0  0  0  0  0  0  0
   39.3200   19.5950   32.2560 H   0  0  0  0  0  0  0  0  0  0  0  0
   39.3380   20.6610   29.9730 H   0  0  0  0  0  0  0  0  0  0  0  0
   36.2520   28.5650   34.5420 Cl  0  0  0  0  0  0  0  0  0  0  0  0
   35.8980   29.6040   33.1690 C   0  0  0  0  0  0  0  0  0  0  0  0
   36.4030   29.4540   31.8890 C   0  0  0  0  0  0  0  0  0  0  0  0
   36.0500   30.3370   30.8950 C   0  0  0  0  0  0  0  0  0  0  0  0
   35.2020   31.3680   31.1610 C   0  0  0  0  0  0  0  0  0  0  0  0
   34.6630   31.5690   32.4360 C   0  0  0  0  0  0  0  0  0  0  0  0
   35.0320   30.6730   33.4070 C   0  0  0  0  0  0  0  0  0  0  0  0
   36.4980   30.1340   29.9230 H   0  0  0  0  0  0  0  0  0  0  0  0
   34.9600   32.0280   30.3520 H   0  0  0  0  0  0  0  0  0  0  0  0
   33.9970   32.3980   32.6050 H   0  0  0  0  0  0  0  0  0  0  0  0
   33.1860   30.3410   34.8960 C   0  0  0  0  0  0  0  0  0  0  0  0
   34.4380   30.9340   34.7190 C   0  0  0  0  0  0  0  0  0  0  0  0
   35.0150   31.6890   35.7350 C   0  0  0  0  0  0  0  0  0  0  0  0
   35.9780   32.1110   35.5240 H   0  0  0  0  0  0  0  0  0  0  0  0
   34.3040   31.8240   36.9070 C   0  0  0  0  0  0  0  0  0  0  0  0
   34.7920   32.4230   37.6710 H   0  0  0  0  0  0  0  0  0  0  0  0
   33.0670   31.2590   37.1250 C   0  0  0  0  0  3  0  0  0  0  0  0
   32.5260   30.5160   36.0950 C   0  0  0  0  0  3  0  0  0  0  0  0
   32.0490   28.9050   33.0610 N   0  0  0  0  0  0  0  0  0  0  0  0
   32.5480   29.5490   33.8700 C   0  0  0  0  0  0  0  0  0  0  0  0
  1 23  1  0  0  0  0
  3  2  1  0  0  0  0
  4  3  2  0  0  0  0
  4 16  1  0  0  0  0
  5  4  1  0  0  0  0
  6  5  2  0  0  0  0
  6  7  1  0  0  0  0
  7  8  2  0  0  0  0
  8  3  1  0  0  0  0
  8  1  1  0  0  0  0
  9  5  1  0  0  0  0
 10  6  1  0  0  0  0
 11  7  1  0  0  0  0
 12 18  1  0  0  0  0
 13 19  1  0  0  0  0
 13 12  2  0  0  0  0
 14 13  1  0  0  0  0
 15 14  2  0  0  0  0
 15 16  1  0  0  0  0
 16 17  2  0  0  0  0
 17 12  1  0  0  0  0
 20 14  1  0  0  0  0
 22 27  1  0  0  0  0
 22 21  1  0  0  0  0
 23 22  2  0  0  0  0
 24 25  2  0  0  0  0
 24 23  1  0  0  0  0
 25 26  1  0  0  0  0
 26 30  1  0  0  0  0
 26 27  2  0  0  0  0
 27 32  1  0  0  0  0
 28 24  1  0  0  0  0
 29 25  1  0  0  0  0
 31 38  1  0  0  0  0
 32 31  2  0  0  0  0
 32 33  1  0  0  0  0
 33 35  2  0  0  0  0
 34 33  1  0  0  0  0
 35 37  1  0  0  0  0
 35 36  1  0  0  0  0
 38 37  2  0  0  0  0
 39 40  3  0  0  0  0
 40 31  1  0  0  0  0
M  END
>  <minimizedAffinity>
-5.94375753

$$$$

 OpenBabel03272505143D

 40 43  0  0  0  0  0  0  0  0999 V2000
   37.4450   26.0690   32.4130 S   0  0  0  0  0  0  0  0  0  0  0  0
   36.3070   27.6840   34.8160 Cl  0  0  0  0  0  0  0  0  0  0  0  0
   36.2900   28.4320   33.2420 C   0  0  0  0  0  0  0  0  0  0  0  0
   35.7700   29.7080   33.1460 C   0  0  0  0  0  0  0  0  0  0  0  0
   35.7540   30.3110   31.8930 C   0  0  0  0  0  0  0  0  0  0  0  0
   36.2460   29.6350   30.8040 C   0  0  0  0  0  0  0  0  0  0  0  0
   36.7530   28.3600   30.9710 C   0  0  0  0  0  0  0  0  0  0  0  0
   36.8020   27.7000   32.1740 C   0  0  0  0  0  0  0  0  0  0  0  0
   35.3580   31.3010   31.7770 H   0  0  0  0  0  0  0  0  0  0  0  0
   36.2360   30.1010   29.8270 H   0  0  0  0  0  0  0  0  0  0  0  0
   37.1370   27.8430   30.0970 H   0  0  0  0  0  0  0  0  0  0  0  0
   33.4250   30.8470   35.6860 C   0  0  0  0  0  0  0  0  0  0  0  0
   34.2080   31.6300   36.5620 C   0  0  0  0  0  0  0  0  0  0  0  0
   35.5660   31.7510   36.2490 C   0  0  0  0  0  0  0  0  0  0  0  0
   36.0520   31.1200   35.1360 N   0  0  0  0  0  0  0  0  0  0  0  0
   35.2550   30.3880   34.3400 C   0  0  0  0  0  0  0  0  0  0  0  0
   33.9580   30.2580   34.6190 N   0  0  0  0  0  0  0  0  0  0  0  0
   32.3530   30.6880   35.8390 H   0  0  0  0  0  0  0  0  0  0  0  0
   33.7150   32.0800   37.4080 H   0  0  0  0  0  0  0  0  0  0  0  0
   36.1700   32.3430   36.9070 H   0  0  0  0  0  0  0  0  0  0  0  0
   38.1520   23.5170   34.1070 Cl  0  0  0  0  0  0  0  0  0  0  0  0
   39.2070   24.9230   34.0650 C   0  0  0  0  0  0  0  0  0  0  0  0
   38.9780   26.0860   33.3480 C   0  0  0  0  0  0  0  0  0  0  0  0
   39.8830   27.1200   33.3960 C   0  0  0  0  0  0  0  0  0  0  0  0
   41.0140   27.0110   34.1470 C   0  0  0  0  0  0  0  0  0  0  0  0
   41.2970   25.8590   34.8900 C   0  0  0  0  0  0  0  0  0  0  0  0
   40.3770   24.8450   34.8230 C   0  0  0  0  0  0  0  0  0  0  0  0
   39.6140   27.9910   32.8000 H   0  0  0  0  0  0  0  0  0  0  0  0
   41.6860   27.8450   34.1490 H   0  0  0  0  0  0  0  0  0  0  0  0
   42.2020   25.8120   35.4700 H   0  0  0  0  0  0  0  0  0  0  0  0
   41.6240   22.8060   34.9830 C   0  0  0  0  0  0  0  0  0  0  0  0
   40.7260   23.6660   35.6190 C   0  0  0  0  0  0  0  0  0  0  0  0
   40.2470   23.3760   36.8920 C   0  0  0  0  0  0  0  0  0  0  0  0
   39.5620   24.0850   37.3150 H   0  0  0  0  0  0  0  0  0  0  0  0
   40.6910   22.2170   37.4880 C   0  0  0  0  0  0  0  0  0  0  0  0
   40.2900   22.0310   38.4810 H   0  0  0  0  0  0  0  0  0  0  0  0
   41.5740   21.3390   36.8990 C   0  0  0  0  0  3  0  0  0  0  0  0
   42.0290   21.6600   35.6360 C   0  0  0  0  0  3  0  0  0  0  0  0
   42.5550   23.2870   32.6120 N   0  0  0  0  0  0  0  0  0  0  0  0
   42.1490   23.0660   33.6620 C   0  0  0  0  0  0  0  0  0  0  0  0
  1 23  1  0  0  0  0
  3  2  1  0  0  0  0
  4  3  1  0  0  0  0
  4 16  1  0  0  0  0
  5  4  2  0  0  0  0
  6  7  2  0  0  0  0
  6  5  1  0  0  0  0
  7  8  1  0  0  0  0
  8  1  1  0  0  0  0
  8  3  2  0  0  0  0
  9  5  1  0  0  0  0
 10  6  1  0  0  0  0
 11  7  1  0  0  0  0
 12 18  1  0  0  0  0
 12 13  1  0  0  0  0
 13 19  1  0  0  0  0
 14 13  2  0  0  0  0
 14 20  1  0  0  0  0
 15 14  1  0  0  0  0
 16 17  1  0  0  0  0
 16 15  2  0  0  0  0
 17 12  2  0  0  0  0
 22 21  1  0  0  0  0
 22 27  1  0  0  0  0
 23 24  1  0  0  0  0
 23 22  2  0  0  0  0
 24 25  2  0  0  0  0
 25 29  1  0  0  0  0
 25 26  1  0  0  0  0
 26 30  1  0  0  0  0
 27 26  2  0  0  0  0
 27 32  1  0  0  0  0
 28 24  1  0  0  0  0
 31 32  2  0  0  0  0
 31 38  1  0  0  0  0
 32 33  1  0  0  0  0
 33 34  1  0  0  0  0
 33 35  2  0  0  0  0
 35 36  1  0  0  0  0
 37 35  1  0  0  0  0
 38 37  2  0  0  0  0
 39 40  3  0  0  0  0
 40 31  1  0  0  0  0
M  END
>  <minimizedAffinity>
-5.88248301

$$$$

 OpenBabel03272505143D

 40 43  0  0  0  0  0  0  0  0999 V2000
   38.7020   25.9100   31.1470 S   0  0  0  0  0  0  0  0  0  0  0  0
   36.6810   26.9340   33.2800 Cl  0  0  0  0  0  0  0  0  0  0  0  0
   36.8890   27.8740   31.8270 C   0  0  0  0  0  0  0  0  0  0  0  0
   36.1420   29.0290   31.7010 C   0  0  0  0  0  0  0  0  0  0  0  0
   36.3030   29.7850   30.5440 C   0  0  0  0  0  0  0  0  0  0  0  0
   37.1840   29.3700   29.5750 C   0  0  0  0  0  0  0  0  0  0  0  0
   37.9010   28.2040   29.7670 C   0  0  0  0  0  0  0  0  0  0  0  0
   37.7960   27.4070   30.8800 C   0  0  0  0  0  0  0  0  0  0  0  0
   35.7410   30.6870   30.4080 H   0  0  0  0  0  0  0  0  0  0  0  0
   37.3130   29.9550   28.6740 H   0  0  0  0  0  0  0  0  0  0  0  0
   38.5920   27.8940   28.9890 H   0  0  0  0  0  0  0  0  0  0  0  0
   34.9120   30.5500   34.7700 C   0  0  0  0  0  0  0  0  0  0  0  0
   33.5400   30.2210   34.8010 C   0  0  0  0  0  0  0  0  0  0  0  0
   33.0550   29.4610   33.7310 C   0  0  0  0  0  0  0  0  0  0  0  0
   33.9160   29.0840   32.7370 N   0  0  0  0  0  0  0  0  0  0  0  0
   35.2140   29.4290   32.7640 C   0  0  0  0  0  0  0  0  0  0  0  0
   35.6990   30.1540   33.7730 N   0  0  0  0  0  0  0  0  0  0  0  0
   35.3930   31.1410   35.5570 H   0  0  0  0  0  0  0  0  0  0  0  0
   32.9590   30.5730   35.6360 H   0  0  0  0  0  0  0  0  0  0  0  0
   32.0140   29.2050   33.7440 H   0  0  0  0  0  0  0  0  0  0  0  0
   39.0520   23.3980   33.0040 Cl  0  0  0  0  0  0  0  0  0  0  0  0
   39.9190   24.8980   33.3010 C   0  0  0  0  0  0  0  0  0  0  0  0
   39.8280   26.0500   32.5380 C   0  0  0  0  0  0  0  0  0  0  0  0
   40.5610   27.1640   32.8740 C   0  0  0  0  0  0  0  0  0  0  0  0
   41.3830   27.1460   33.9590 C   0  0  0  0  0  0  0  0  0  0  0  0
   41.5150   26.0090   34.7650 C   0  0  0  0  0  0  0  0  0  0  0  0
   40.7720   24.9130   34.4060 C   0  0  0  0  0  0  0  0  0  0  0  0
   40.4210   28.0200   32.2150 H   0  0  0  0  0  0  0  0  0  0  0  0
   41.9320   28.0390   34.1770 H   0  0  0  0  0  0  0  0  0  0  0  0
   42.1770   26.0350   35.6130 H   0  0  0  0  0  0  0  0  0  0  0  0
   39.9330   23.6040   36.2270 C   0  0  0  0  0  0  0  0  0  0  0  0
   40.9520   23.7550   35.2840 C   0  0  0  0  0  0  0  0  0  0  0  0
   42.0100   22.8550   35.2330 C   0  0  0  0  0  0  0  0  0  0  0  0
   42.7530   23.0370   34.4810 H   0  0  0  0  0  0  0  0  0  0  0  0
   42.0090   21.8210   36.1430 C   0  0  0  0  0  0  0  0  0  0  0  0
   42.8550   21.1440   36.0670 H   0  0  0  0  0  0  0  0  0  0  0  0
   41.0270   21.6340   37.0910 C   0  0  0  0  0  3  0  0  0  0  0  0
   39.9920   22.5470   37.1110 C   0  0  0  0  0  3  0  0  0  0  0  0
   37.9370   25.2500   36.3910 N   0  0  0  0  0  0  0  0  0  0  0  0
   38.8140   24.5140   36.3180 C   0  0  0  0  0  0  0  0  0  0  0  0
  1 23  1  0  0  0  0
  3  2  1  0  0  0  0
  4  3  1  0  0  0  0
  4 16  1  0  0  0  0
  5  4  2  0  0  0  0
  6  7  2  0  0  0  0
  6  5  1  0  0  0  0
  7  8  1  0  0  0  0
  8  1  1  0  0  0  0
  8  3  2  0  0  0  0
  9  5  1  0  0  0  0
 10  6  1  0  0  0  0
 11  7  1  0  0  0  0
 12 13  1  0  0  0  0
 12 18  1  0  0  0  0
 13 19  1  0  0  0  0
 14 20  1  0  0  0  0
 14 13  2  0  0  0  0
 15 16  2  0  0  0  0
 15 14  1  0  0  0  0
 16 17  1  0  0  0  0
 17 12  2  0  0  0  0
 21 22  1  0  0  0  0
 22 27  1  0  0  0  0
 23 24  1  0  0  0  0
 23 22  2  0  0  0  0
 24 25  2  0  0  0  0
 25 29  1  0  0  0  0
 25 26  1  0  0  0  0
 26 30  1  0  0  0  0
 27 26  2  0  0  0  0
 27 32  1  0  0  0  0
 28 24  1  0  0  0  0
 31 40  1  0  0  0  0
 31 38  1  0  0  0  0
 32 31  2  0  0  0  0
 33 32  1  0  0  0  0
 33 35  2  0  0  0  0
 34 33  1  0  0  0  0
 35 37  1  0  0  0  0
 36 35  1  0  0  0  0
 37 38  2  0  0  0  0
 40 39  3  0  0  0  0
M  END
>  <minimizedAffinity>
-5.82452106

$$$$

 OpenBabel03272505143D

 40 43  0  0  0  0  0  0  0  0999 V2000
   38.3710   26.4050   30.8890 S   0  0  0  0  0  0  0  0  0  0  0  0
   36.3030   28.0410   32.5390 Cl  0  0  0  0  0  0  0  0  0  0  0  0
   36.9310   28.7490   31.0740 C   0  0  0  0  0  0  0  0  0  0  0  0
   36.4740   30.0040   30.7250 C   0  0  0  0  0  0  0  0  0  0  0  0
   36.9710   30.5750   29.5580 C   0  0  0  0  0  0  0  0  0  0  0  0
   37.8860   29.8880   28.7980 C   0  0  0  0  0  0  0  0  0  0  0  0
   38.3010   28.6350   29.2080 C   0  0  0  0  0  0  0  0  0  0  0  0
   37.8560   28.0070   30.3450 C   0  0  0  0  0  0  0  0  0  0  0  0
   36.6410   31.5480   29.2510 H   0  0  0  0  0  0  0  0  0  0  0  0
   38.2750   30.3290   27.8890 H   0  0  0  0  0  0  0  0  0  0  0  0
   39.0240   28.1090   28.5930 H   0  0  0  0  0  0  0  0  0  0  0  0
   35.1280   32.1190   33.3630 C   0  0  0  0  0  0  0  0  0  0  0  0
   33.7280   32.0330   33.2030 C   0  0  0  0  0  0  0  0  0  0  0  0
   33.2660   31.2260   32.1590 C   0  0  0  0  0  0  0  0  0  0  0  0
   34.1730   30.5760   31.3680 N   0  0  0  0  0  0  0  0  0  0  0  0
   35.4950   30.6970   31.5700 C   0  0  0  0  0  0  0  0  0  0  0  0
   35.9590   31.4620   32.5590 N   0  0  0  0  0  0  0  0  0  0  0  0
   35.5940   32.7230   34.1490 H   0  0  0  0  0  0  0  0  0  0  0  0
   33.1100   32.5900   33.8880 H   0  0  0  0  0  0  0  0  0  0  0  0
   32.2040   31.1520   32.0280 H   0  0  0  0  0  0  0  0  0  0  0  0
   37.4760   24.6360   33.3290 Cl  0  0  0  0  0  0  0  0  0  0  0  0
   38.8860   25.6820   33.4110 C   0  0  0  0  0  0  0  0  0  0  0  0
   39.3540   26.4920   32.3890 C   0  0  0  0  0  0  0  0  0  0  0  0
   40.4730   27.2690   32.5760 C   0  0  0  0  0  0  0  0  0  0  0  0
   41.1340   27.2480   33.7670 C   0  0  0  0  0  0  0  0  0  0  0  0
   40.7070   26.4480   34.8330 C   0  0  0  0  0  0  0  0  0  0  0  0
   39.5880   25.6850   34.6180 C   0  0  0  0  0  0  0  0  0  0  0  0
   40.7620   27.8710   31.7160 H   0  0  0  0  0  0  0  0  0  0  0  0
   42.0000   27.8710   33.8600 H   0  0  0  0  0  0  0  0  0  0  0  0
   41.2580   26.4600   35.7570 H   0  0  0  0  0  0  0  0  0  0  0  0
   39.8870   23.6630   35.8670 C   0  0  0  0  0  0  0  0  0  0  0  0
   39.1900   24.8700   35.7670 C   0  0  0  0  0  0  0  0  0  0  0  0
   38.2200   25.2080   36.7050 C   0  0  0  0  0  0  0  0  0  0  0  0
   37.7290   26.1510   36.5610 H   0  0  0  0  0  0  0  0  0  0  0  0
   37.9810   24.3110   37.7220 C   0  0  0  0  0  0  0  0  0  0  0  0
   37.2160   24.6170   38.4300 H   0  0  0  0  0  0  0  0  0  0  0  0
   38.6430   23.1110   37.8600 C   0  0  0  0  0  3  0  0  0  0  0  0
   39.5990   22.8090   36.9110 C   0  0  0  0  0  3  0  0  0  0  0  0
   41.7060   22.9410   34.1670 N   0  0  0  0  0  0  0  0  0  0  0  0
   40.9020   23.2700   34.9170 C   0  0  0  0  0  0  0  0  0  0  0  0
  1 23  1  0  0  0  0
  3  2  1  0  0  0  0
  4  3  1  0  0  0  0
  4 16  1  0  0  0  0
  5  4  2  0  0  0  0
  6  7  2  0  0  0  0
  6  5  1  0  0  0  0
  7  8  1  0  0  0  0
  8  1  1  0  0  0  0
  8  3  2  0  0  0  0
  9  5  1  0  0  0  0
 10  6  1  0  0  0  0
 11  7  1  0  0  0  0
 12 18  1  0  0  0  0
 13 12  1  0  0  0  0
 13 19  1  0  0  0  0
 14 13  2  0  0  0  0
 15 16  2  0  0  0  0
 15 14  1  0  0  0  0
 16 17  1  0  0  0  0
 17 12  2  0  0  0  0
 20 14  1  0  0  0  0
 21 22  1  0  0  0  0
 22 27  1  0  0  0  0
 23 24  1  0  0  0  0
 23 22  2  0  0  0  0
 24 25  2  0  0  0  0
 25 29  1  0  0  0  0
 25 26  1  0  0  0  0
 26 30  1  0  0  0  0
 27 26  2  0  0  0  0
 27 32  1  0  0  0  0
 28 24  1  0  0  0  0
 31 38  1  0  0  0  0
 32 31  2  0  0  0  0
 32 33  1  0  0  0  0
 33 35  2  0  0  0  0
 34 33  1  0  0  0  0
 35 37  1  0  0  0  0
 35 36  1  0  0  0  0
 38 37  2  0  0  0  0
 39 40  3  0  0  0  0
 40 31  1  0  0  0  0
M  END
>  <minimizedAffinity>
-5.79752159

$$$$

 OpenBabel03272505143D

 40 43  0  0  0  0  0  0  0  0999 V2000
   37.2090   26.9230   32.2070 S   0  0  0  0  0  0  0  0  0  0  0  0
   39.4990   27.6600   30.2350 Cl  0  0  0  0  0  0  0  0  0  0  0  0
   39.9200   27.3180   31.8910 C   0  0  0  0  0  0  0  0  0  0  0  0
   41.2540   27.3930   32.2400 C   0  0  0  0  0  0  0  0  0  0  0  0
   41.5970   27.1220   33.5600 C   0  0  0  0  0  0  0  0  0  0  0  0
   40.6180   26.7920   34.4660 C   0  0  0  0  0  0  0  0  0  0  0  0
   39.3020   26.7360   34.0480 C   0  0  0  0  0  0  0  0  0  0  0  0
   38.8870   26.9890   32.7650 C   0  0  0  0  0  0  0  0  0  0  0  0
   42.6220   27.1690   33.8710 H   0  0  0  0  0  0  0  0  0  0  0  0
   40.8810   26.5800   35.4940 H   0  0  0  0  0  0  0  0  0  0  0  0
   38.5440   26.4730   34.7790 H   0  0  0  0  0  0  0  0  0  0  0  0
   43.5400   29.4210   30.2630 C   0  0  0  0  0  0  0  0  0  0  0  0
   44.1480   28.5050   29.3780 C   0  0  0  0  0  0  0  0  0  0  0  0
   43.7460   27.1700   29.4870 C   0  0  0  0  0  0  0  0  0  0  0  0
   42.8050   26.8310   30.4210 N   0  0  0  0  0  0  0  0  0  0  0  0
   42.2620   27.7500   31.2350 C   0  0  0  0  0  0  0  0  0  0  0  0
   42.6310   29.0280   31.1520 N   0  0  0  0  0  0  0  0  0  0  0  0
   43.7840   30.4890   30.2630 H   0  0  0  0  0  0  0  0  0  0  0  0
   44.8770   28.8870   28.6840 H   0  0  0  0  0  0  0  0  0  0  0  0
   44.2000   26.4640   28.8190 H   0  0  0  0  0  0  0  0  0  0  0  0
   36.2130   28.1450   34.9270 Cl  0  0  0  0  0  0  0  0  0  0  0  0
   36.0450   29.0100   33.4060 C   0  0  0  0  0  0  0  0  0  0  0  0
   36.4540   28.5520   32.1650 C   0  0  0  0  0  0  0  0  0  0  0  0
   36.2670   29.3250   31.0430 C   0  0  0  0  0  0  0  0  0  0  0  0
   35.6780   30.5500   31.1420 C   0  0  0  0  0  0  0  0  0  0  0  0
   35.2460   31.0630   32.3700 C   0  0  0  0  0  0  0  0  0  0  0  0
   35.4460   30.2700   33.4710 C   0  0  0  0  0  0  0  0  0  0  0  0
   36.6210   28.8790   30.1150 H   0  0  0  0  0  0  0  0  0  0  0  0
   35.5570   31.1120   30.2390 H   0  0  0  0  0  0  0  0  0  0  0  0
   34.7870   32.0350   32.4060 H   0  0  0  0  0  0  0  0  0  0  0  0
   33.6420   30.5630   35.0180 C   0  0  0  0  0  0  0  0  0  0  0  0
   34.9750   30.8580   34.7260 C   0  0  0  0  0  0  0  0  0  0  0  0
   35.7340   31.6430   35.5890 C   0  0  0  0  0  0  0  0  0  0  0  0
   36.7490   31.8240   35.2960 H   0  0  0  0  0  0  0  0  0  0  0  0
   35.1180   32.1100   36.7290 C   0  0  0  0  0  0  0  0  0  0  0  0
   35.7480   32.7180   37.3720 H   0  0  0  0  0  0  0  0  0  0  0  0
   33.8070   31.8460   37.0570 C   0  0  0  0  0  3  0  0  0  0  0  0
   33.0850   31.0640   36.1780 C   0  0  0  0  0  3  0  0  0  0  0  0
   32.1450   29.1160   33.4740 N   0  0  0  0  0  0  0  0  0  0  0  0
   32.8150   29.7540   34.1530 C   0  0  0  0  0  0  0  0  0  0  0  0
  1  8  1  0  0  0  0
  2  3  1  0  0  0  0
  3  4  2  0  0  0  0
  3  8  1  0  0  0  0
  4  5  1  0  0  0  0
  5  9  1  0  0  0  0
  5  6  2  0  0  0  0
  6 10  1  0  0  0  0
  7  6  1  0  0  0  0
  7 11  1  0  0  0  0
  8  7  2  0  0  0  0
 12 18  1  0  0  0  0
 12 17  1  0  0  0  0
 13 14  1  0  0  0  0
 13 12  2  0  0  0  0
 14 15  2  0  0  0  0
 15 16  1  0  0  0  0
 16  4  1  0  0  0  0
 17 16  2  0  0  0  0
 19 13  1  0  0  0  0
 20 14  1  0  0  0  0
 22 27  1  0  0  0  0
 22 21  1  0  0  0  0
 23  1  1  0  0  0  0
 23 22  2  0  0  0  0
 24 25  2  0  0  0  0
 24 23  1  0  0  0  0
 25 26  1  0  0  0  0
 26 30  1  0  0  0  0
 26 27  2  0  0  0  0
 27 32  1  0  0  0  0
 28 24  1  0  0  0  0
 29 25  1  0  0  0  0
 31 38  1  0  0  0  0
 32 31  2  0  0  0  0
 32 33  1  0  0  0  0
 33 35  2  0  0  0  0
 34 33  1  0  0  0  0
 35 37  1  0  0  0  0
 35 36  1  0  0  0  0
 38 37  2  0  0  0  0
 39 40  3  0  0  0  0
 40 31  1  0  0  0  0
M  END
>  <minimizedAffinity>
-5.75832129

$$$$
