
 OpenBabel03272509213D

 47 51  0  0  0  0  0  0  0  0999 V2000
   39.8990   31.8180   46.6620 O   0  0  0  0  0  0  0  0  0  0  0  0
   39.2630   30.3150   44.7660 C   0  0  0  0  0  0  0  0  0  0  0  0
   39.5680   31.5200   45.3670 C   0  0  0  0  0  0  0  0  0  0  0  0
   39.5600   32.6820   44.5880 C   0  0  0  0  0  0  0  0  0  0  0  0
   39.2460   32.6210   43.2250 C   0  0  0  0  0  0  0  0  0  0  0  0
   39.1510   33.5150   42.2290 N   0  0  0  0  0  0  0  0  0  0  0  0
   38.8090   32.9140   41.0750 C   0  0  0  0  0  0  0  0  0  0  0  0
   38.6830   31.5900   41.3550 N   0  0  0  0  0  0  0  0  0  0  0  0
   38.9470   31.3930   42.6660 C   0  0  0  0  0  0  0  0  0  0  0  0
   38.9540   30.2450   43.4260 C   0  0  0  0  0  0  0  0  0  0  0  0
   39.3020   29.4980   45.4570 H   0  0  0  0  0  0  0  0  0  0  0  0
   39.7750   33.6930   44.9120 H   0  0  0  0  0  0  0  0  0  0  0  0
   39.3150   34.5200   42.3270 H   0  0  0  0  0  0  0  0  0  0  0  0
   38.6640   33.3880   40.1300 H   0  0  0  0  0  0  0  0  0  0  0  0
   39.5100   28.1010   42.1890 C   0  0  0  0  0  0  0  0  0  0  0  0
   38.6450   28.9300   42.8750 C   0  0  0  0  0  0  0  0  0  0  0  0
   37.3330   28.5510   43.1080 C   0  0  0  0  0  0  0  0  0  0  0  0
   36.5910   29.1590   43.6460 H   0  0  0  0  0  0  0  0  0  0  0  0
   36.8500   27.3260   42.6580 C   0  0  0  0  0  0  0  0  0  0  0  0
   35.8160   27.0330   42.8430 H   0  0  0  0  0  0  0  0  0  0  0  0
   37.7400   26.4980   41.9630 C   0  0  0  0  0  3  0  0  0  0  0  0
   39.0500   26.8830   41.7330 C   0  0  0  0  0  3  0  0  0  0  0  0
   41.9230   28.9680   41.8570 N   0  0  0  0  0  0  0  0  0  0  0  0
   40.8450   28.5910   42.0030 C   0  0  0  0  0  0  0  0  0  0  0  0
   38.0640   31.3320   48.1750 C   0  0  0  0  0  0  0  0  0  0  0  0
   37.1880   31.6160   49.2060 C   0  0  0  0  0  0  0  0  0  0  0  0
   37.3740   32.8780   49.7790 C   0  0  0  0  0  0  0  0  0  0  0  0
   38.3710   33.7630   49.3300 C   0  0  0  0  0  0  0  0  0  0  0  0
   39.2050   33.3660   48.2720 C   0  0  0  0  0  0  0  0  0  0  0  0
   39.0320   32.1190   47.6950 C   0  0  0  0  0  0  0  0  0  0  0  0
   36.7230   33.1590   50.5870 H   0  0  0  0  0  0  0  0  0  0  0  0
   38.4700   34.7280   49.8100 H   0  0  0  0  0  0  0  0  0  0  0  0
   39.9600   34.0830   47.9580 H   0  0  0  0  0  0  0  0  0  0  0  0
   34.9870   30.5860   48.9580 C   0  0  0  0  0  0  0  0  0  0  0  0
   36.1770   30.7210   49.6650 C   0  0  0  0  0  0  0  0  0  0  0  0
   36.3380   29.9520   50.8310 C   0  0  0  0  0  0  0  0  0  0  0  0
   35.3330   29.1250   51.2050 N   0  0  0  0  0  0  0  0  0  0  0  0
   34.1790   29.0270   50.4750 C   0  0  0  0  0  0  0  0  0  0  0  0
   34.0160   29.7520   49.3670 N   0  0  0  0  0  0  0  0  0  0  0  0
   34.7860   31.1370   48.0570 H   0  0  0  0  0  0  0  0  0  0  0  0
   33.5090   28.3210   50.9330 H   0  0  0  0  0  0  0  0  0  0  0  0
   37.5890   30.0560   51.6270 C   0  0  0  0  0  0  0  0  0  0  0  0
   38.1140   30.9740   51.3230 H   0  0  0  0  0  0  0  0  0  0  0  0
   38.2310   29.2000   51.3270 H   0  0  0  0  0  0  0  0  0  0  0  0
   37.3710   29.9860   52.6980 H   0  0  0  0  0  0  0  0  0  0  0  0
   37.9600   30.0920   47.5350 O   0  0  0  0  0  0  0  0  0  0  0  0
   37.1000   29.9120   47.0400 H   0  0  0  0  0  0  0  0  0  0  0  0
  1 30  1  0  0  0  0
  2  3  1  0  0  0  0
  2 11  1  0  0  0  0
  3  1  1  0  0  0  0
  4 12  1  0  0  0  0
  4  3  2  0  0  0  0
  5  4  1  0  0  0  0
  6 13  1  0  0  0  0
  6  5  1  0  0  0  0
  7  8  2  0  0  0  0
  7  6  1  0  0  0  0
  8  9  1  0  0  0  0
  9  5  2  0  0  0  0
  9 10  1  0  0  0  0
 10  2  2  0  0  0  0
 14  7  1  0  0  0  0
 15 16  1  0  0  0  0
 16 17  2  0  0  0  0
 16 10  1  0  0  0  0
 17 18  1  0  0  0  0
 19 20  1  0  0  0  0
 19 17  1  0  0  0  0
 21 19  2  0  0  0  0
 22 21  1  0  0  0  0
 22 15  2  0  0  0  0
 23 24  3  0  0  0  0
 24 15  1  0  0  0  0
 25 26  1  0  0  0  0
 26 35  1  0  0  0  0
 26 27  2  0  0  0  0
 27 31  1  0  0  0  0
 28 27  1  0  0  0  0
 28 32  1  0  0  0  0
 29 28  2  0  0  0  0
 30 25  2  0  0  0  0
 30 29  1  0  0  0  0
 33 29  1  0  0  0  0
 34 39  2  0  0  0  0
 34 35  1  0  0  0  0
 35 36  2  0  0  0  0
 36 37  1  0  0  0  0
 36 42  1  0  0  0  0
 38 41  1  0  0  0  0
 38 37  2  0  0  0  0
 39 38  1  0  0  0  0
 40 34  1  0  0  0  0
 42 45  1  0  0  0  0
 43 42  1  0  0  0  0
 44 42  1  0  0  0  0
 46 25  1  0  0  0  0
 47 46  1  0  0  0  0
M  END
>  <minimizedAffinity>
-7.33538628

>  <minimizedRMSD>
2.19364095

$$$$
