
 OpenBabel03272509083D

 41 44  0  0  0  0  0  0  0  0999 V2000
   33.2140   28.0110   47.7550 C   0  0  0  0  0  0  0  0  0  0  0  0
   32.5040   28.6820   47.2520 H   0  0  0  0  0  0  0  0  0  0  0  0
   32.6180   27.5400   48.5910 H   0  0  0  0  0  0  0  0  0  0  0  0
   33.6410   26.8700   46.9110 C   0  0  0  0  0  0  0  0  0  0  0  0
   33.8710   25.5940   47.3930 C   0  0  0  0  0  0  0  0  0  0  0  0
   34.2650   24.5900   46.5410 C   0  0  0  0  0  0  0  0  0  0  0  0
   34.4470   24.8120   45.1840 C   0  0  0  0  0  0  0  0  0  0  0  0
   34.2200   26.0690   44.7080 C   0  0  0  0  0  0  0  0  0  0  0  0
   33.8220   27.0950   45.5480 C   0  0  0  0  0  0  0  0  0  0  0  0
   33.7130   25.4840   48.4580 H   0  0  0  0  0  0  0  0  0  0  0  0
   34.4170   23.6410   47.0120 H   0  0  0  0  0  0  0  0  0  0  0  0
   34.7610   23.9370   44.6150 H   0  0  0  0  0  0  0  0  0  0  0  0
   34.3740   26.1940   43.6480 H   0  0  0  0  0  0  0  0  0  0  0  0
   32.4000   28.8960   44.5200 C   0  0  0  0  0  0  0  0  0  0  0  0
   33.6060   28.4090   44.9380 C   0  0  0  0  0  0  0  0  0  0  0  0
   34.7650   29.1720   44.8050 C   0  0  0  0  0  0  0  0  0  0  0  0
   35.7500   28.8230   45.1250 H   0  0  0  0  0  0  0  0  0  0  0  0
   34.7260   30.4370   44.2470 C   0  0  0  0  0  0  0  0  0  0  0  0
   35.6280   31.0250   44.1450 H   0  0  0  0  0  0  0  0  0  0  0  0
   33.4790   30.8970   43.8340 C   0  0  0  0  0  3  0  0  0  0  0  0
   32.3180   30.1600   43.9560 C   0  0  0  0  0  3  0  0  0  0  0  0
   30.3140   27.3640   44.8270 N   0  0  0  0  0  0  0  0  0  0  0  0
   31.2530   28.0570   44.6890 C   0  0  0  0  0  0  0  0  0  0  0  0
   34.9690   28.3960   49.4730 C   0  0  0  0  0  3  0  0  0  0  0  0
   34.3260   28.7230   48.3920 C   0  0  0  0  0  3  0  0  0  0  0  0
   37.3940   30.1470   51.5720 C   0  0  0  0  0  0  0  0  0  0  0  0
   38.0950   30.9170   50.6230 C   0  0  0  0  0  0  0  0  0  0  0  0
   37.7030   30.8070   49.2650 C   0  0  0  0  0  0  0  0  0  0  0  0
   36.6680   29.9610   48.9510 N   0  0  0  0  0  0  0  0  0  0  0  0
   36.0440   29.2530   49.9290 C   0  0  0  0  0  0  0  0  0  0  0  0
   36.3970   29.3420   51.2040 N   0  0  0  0  0  0  0  0  0  0  0  0
   37.7340   30.2680   52.5880 H   0  0  0  0  0  0  0  0  0  0  0  0
   38.9130   31.5920   50.8260 H   0  0  0  0  0  0  0  0  0  0  0  0
   38.3620   31.5600   48.2030 C   0  0  0  0  0  0  0  0  0  0  0  0
   38.5630   31.0180   46.9440 C   0  0  0  0  0  0  0  0  0  0  0  0
   39.2110   31.9880   46.1770 C   0  0  0  0  0  0  0  0  0  0  0  0
   39.3790   33.0740   46.9940 N   0  0  0  0  0  0  0  0  0  0  0  0
   38.8690   32.8040   48.1930 N   0  0  0  0  0  0  0  0  0  0  0  0
   38.3130   30.0490   46.5160 H   0  0  0  0  0  0  0  0  0  0  0  0
   39.5370   31.9410   45.1460 H   0  0  0  0  0  0  0  0  0  0  0  0
   39.8220   34.0020   46.7910 H   0  0  0  0  0  0  0  0  0  0  0  0
  1 25  1  0  0  0  0
  1  3  1  0  0  0  0
  2  1  1  0  0  0  0
  4  5  1  0  0  0  0
  4  1  1  0  0  0  0
  5 10  1  0  0  0  0
  6 11  1  0  0  0  0
  6  5  2  0  0  0  0
  7  6  1  0  0  0  0
  8  7  2  0  0  0  0
  8  9  1  0  0  0  0
  9  4  2  0  0  0  0
 12  7  1  0  0  0  0
 13  8  1  0  0  0  0
 14 23  1  0  0  0  0
 14 15  1  0  0  0  0
 15  9  1  0  0  0  0
 16 15  2  0  0  0  0
 16 17  1  0  0  0  0
 18 16  1  0  0  0  0
 19 18  1  0  0  0  0
 20 21  1  0  0  0  0
 20 18  2  0  0  0  0
 21 14  2  0  0  0  0
 23 22  3  0  0  0  0
 24 30  1  0  0  0  0
 25 24  2  0  0  0  0
 26 32  1  0  0  0  0
 27 33  1  0  0  0  0
 27 26  2  0  0  0  0
 28 27  1  0  0  0  0
 29 28  2  0  0  0  0
 29 30  1  0  0  0  0
 30 31  2  0  0  0  0
 31 26  1  0  0  0  0
 34 28  1  0  0  0  0
 35 34  1  0  0  0  0
 36 35  2  0  0  0  0
 36 37  1  0  0  0  0
 37 38  1  0  0  0  0
 38 34  2  0  0  0  0
 39 35  1  0  0  0  0
 40 36  1  0  0  0  0
 41 37  1  0  0  0  0
M  END
>  <minimizedAffinity>
-6.1928277

>  <minimizedRMSD>
1.02602565

$$$$
