
 OpenBabel03272508133D

 35 37  0  0  0  0  0  0  0  0999 V2000
   36.6130   28.0140   34.9200 Cl  0  0  0  0  0  0  0  0  0  0  0  0
   36.3830   28.7030   33.2950 C   0  0  0  0  0  0  0  0  0  0  0  0
   36.8990   28.1230   32.1270 C   0  0  0  0  0  0  0  0  0  0  0  0
   36.6350   28.7770   30.9380 C   0  0  0  0  0  0  0  0  0  0  0  0
   35.8990   29.9450   30.9050 C   0  0  0  0  0  0  0  0  0  0  0  0
   35.3950   30.5120   32.0370 C   0  0  0  0  0  0  0  0  0  0  0  0
   35.6430   29.8820   33.2210 C   0  0  0  0  0  0  0  0  0  0  0  0
   37.0710   28.2610   30.0840 H   0  0  0  0  0  0  0  0  0  0  0  0
   35.7580   30.3640   29.9160 H   0  0  0  0  0  0  0  0  0  0  0  0
   34.8310   31.4200   31.9370 H   0  0  0  0  0  0  0  0  0  0  0  0
   33.7400   30.3010   34.7080 C   0  0  0  0  0  0  0  0  0  0  0  0
   35.0950   30.5040   34.4400 C   0  0  0  0  0  0  0  0  0  0  0  0
   35.8980   31.2520   35.2740 C   0  0  0  0  0  0  0  0  0  0  0  0
   36.9500   31.4110   35.0660 H   0  0  0  0  0  0  0  0  0  0  0  0
   35.3720   31.8270   36.4100 C   0  0  0  0  0  0  0  0  0  0  0  0
   35.9530   32.4260   37.1050 H   0  0  0  0  0  0  0  0  0  0  0  0
   34.0330   31.6340   36.6850 C   0  0  0  0  0  3  0  0  0  0  0  0
   33.2330   30.8960   35.8670 C   0  0  0  0  0  3  0  0  0  0  0  0
   32.2510   28.8930   33.1020 N   0  0  0  0  0  0  0  0  0  0  0  0
   32.9150   29.5060   33.8110 C   0  0  0  0  0  0  0  0  0  0  0  0
   37.5920   26.9800   32.3700 O   0  0  0  0  0  0  0  0  0  0  0  0
   35.8240   25.1460   31.9200 O   0  0  0  0  0  0  0  0  0  0  0  0
   37.2820   25.4130   31.8490 P   0  0  1  0  0  0  0  0  0  0  0  0
   37.8130   25.3760   30.2240 O   0  0  0  0  0  0  0  0  0  0  0  0
   37.1170   25.7350   29.6170 H   0  0  0  0  0  0  0  0  0  0  0  0
   38.2210   24.3320   32.7680 O   0  0  0  0  0  0  0  0  0  0  0  0
   38.1780   24.3680   36.4640 C   0  0  0  0  0  0  0  0  0  0  0  0
   38.2970   24.9010   35.1650 C   0  0  0  0  0  0  0  0  0  0  0  0
   38.1490   24.0460   34.0780 C   0  0  0  0  0  0  0  0  0  0  0  0
   37.8920   22.7240   34.3320 N   0  0  0  0  0  0  0  0  0  0  0  0
   37.7860   22.2590   35.5850 C   0  0  0  0  0  0  0  0  0  0  0  0
   37.9280   23.0760   36.6450 N   0  0  0  0  0  0  0  0  0  0  0  0
   38.3170   25.1470   37.2220 H   0  0  0  0  0  0  0  0  0  0  0  0
   38.4950   25.9140   34.8680 H   0  0  0  0  0  0  0  0  0  0  0  0
   37.5820   21.2090   35.7910 H   0  0  0  0  0  0  0  0  0  0  0  0
  2  1  1  0  0  0  0
  3 21  1  0  0  0  0
  3  2  2  0  0  0  0
  4  3  1  0  0  0  0
  5  4  2  0  0  0  0
  5  6  1  0  0  0  0
  6  7  2  0  0  0  0
  7  2  1  0  0  0  0
  7 12  1  0  0  0  0
  8  4  1  0  0  0  0
  9  5  1  0  0  0  0
 10  6  1  0  0  0  0
 11 18  1  0  0  0  0
 12 11  2  0  0  0  0
 12 13  1  0  0  0  0
 13 15  2  0  0  0  0
 14 13  1  0  0  0  0
 15 17  1  0  0  0  0
 15 16  1  0  0  0  0
 18 17  2  0  0  0  0
 19 20  3  0  0  0  0
 20 11  1  0  0  0  0
 23 22  2  1  0  0  0
 23 21  1  0  0  0  0
 23 26  1  0  0  0  0
 24 23  1  0  0  0  0
 25 24  1  0  0  0  0
 26 29  1  0  0  0  0
 27 32  1  0  0  0  0
 27 33  1  0  0  0  0
 28 27  2  0  0  0  0
 29 30  2  0  0  0  0
 29 28  1  0  0  0  0
 30 31  1  0  0  0  0
 31 35  1  0  0  0  0
 31 32  2  0  0  0  0
 34 28  1  0  0  0  0
M  END
>  <minimizedAffinity>
-5.84497547

$$$$

 OpenBabel03272508133D

 35 37  0  0  0  0  0  0  0  0999 V2000
   35.8630   30.3030   35.1180 Cl  0  0  0  0  0  0  0  0  0  0  0  0
   36.0620   29.5850   33.5010 C   0  0  0  0  0  0  0  0  0  0  0  0
   36.4470   28.2550   33.2860 C   0  0  0  0  0  0  0  0  0  0  0  0
   36.5580   27.8430   31.9710 C   0  0  0  0  0  0  0  0  0  0  0  0
   36.3020   28.7030   30.9220 C   0  0  0  0  0  0  0  0  0  0  0  0
   35.9270   29.9980   31.1250 C   0  0  0  0  0  0  0  0  0  0  0  0
   35.8110   30.4240   32.4160 C   0  0  0  0  0  0  0  0  0  0  0  0
   36.8600   26.7990   31.8950 H   0  0  0  0  0  0  0  0  0  0  0  0
   36.4220   28.2660   29.9370 H   0  0  0  0  0  0  0  0  0  0  0  0
   35.7430   30.6100   30.2630 H   0  0  0  0  0  0  0  0  0  0  0  0
   34.0380   32.0920   32.6960 C   0  0  0  0  0  0  0  0  0  0  0  0
   35.4060   31.8260   32.6260 C   0  0  0  0  0  0  0  0  0  0  0  0
   36.3500   32.8230   32.7470 C   0  0  0  0  0  0  0  0  0  0  0  0
   37.4120   32.6160   32.6920 H   0  0  0  0  0  0  0  0  0  0  0  0
   35.9570   34.1280   32.9440 C   0  0  0  0  0  0  0  0  0  0  0  0
   36.6510   34.9570   33.0460 H   0  0  0  0  0  0  0  0  0  0  0  0
   34.6070   34.4060   33.0140 C   0  0  0  0  0  3  0  0  0  0  0  0
   33.6670   33.4260   32.8950 C   0  0  0  0  0  3  0  0  0  0  0  0
   32.2810   30.1840   32.4730 N   0  0  0  0  0  0  0  0  0  0  0  0
   33.0620   31.0210   32.5640 C   0  0  0  0  0  0  0  0  0  0  0  0
   36.6510   27.5730   34.4430 O   0  0  0  0  0  0  0  0  0  0  0  0
   39.1210   26.9470   33.9960 O   0  0  0  0  0  0  0  0  0  0  0  0
   38.0540   26.8510   35.0220 P   0  0  1  0  0  0  0  0  0  0  0  0
   38.4780   27.7610   36.4060 O   0  0  0  0  0  0  0  0  0  0  0  0
   38.9810   28.5760   36.1520 H   0  0  0  0  0  0  0  0  0  0  0  0
   37.6980   25.2540   35.4900 O   0  0  0  0  0  0  0  0  0  0  0  0
   38.7620   23.4080   38.5100 C   0  0  0  0  0  0  0  0  0  0  0  0
   37.9670   24.2760   37.7360 C   0  0  0  0  0  0  0  0  0  0  0  0
   38.3060   24.4800   36.4030 C   0  0  0  0  0  0  0  0  0  0  0  0
   39.4020   23.8210   35.9120 N   0  0  0  0  0  0  0  0  0  0  0  0
   40.1310   23.0030   36.6840 C   0  0  0  0  0  0  0  0  0  0  0  0
   39.8140   22.7970   37.9760 N   0  0  0  0  0  0  0  0  0  0  0  0
   38.3840   23.3400   39.5370 H   0  0  0  0  0  0  0  0  0  0  0  0
   37.0960   24.8330   38.0290 H   0  0  0  0  0  0  0  0  0  0  0  0
   41.0030   22.4760   36.2980 H   0  0  0  0  0  0  0  0  0  0  0  0
  2  1  1  0  0  0  0
  3  2  1  0  0  0  0
  3 21  1  0  0  0  0
  4  3  2  0  0  0  0
  5  6  2  0  0  0  0
  5  4  1  0  0  0  0
  6  7  1  0  0  0  0
  7 12  1  0  0  0  0
  7  2  2  0  0  0  0
  8  4  1  0  0  0  0
  9  5  1  0  0  0  0
 10  6  1  0  0  0  0
 11 18  1  0  0  0  0
 12 11  2  0  0  0  0
 12 13  1  0  0  0  0
 13 15  2  0  0  0  0
 14 13  1  0  0  0  0
 15 17  1  0  0  0  0
 15 16  1  0  0  0  0
 18 17  2  0  0  0  0
 19 20  3  0  0  0  0
 20 11  1  0  0  0  0
 21 23  1  0  0  0  0
 23 22  2  6  0  0  0
 23 26  1  0  0  0  0
 23 24  1  0  0  0  0
 25 24  1  0  0  0  0
 26 29  1  0  0  0  0
 27 33  1  0  0  0  0
 28 34  1  0  0  0  0
 28 27  2  0  0  0  0
 29 28  1  0  0  0  0
 30 29  2  0  0  0  0
 30 31  1  0  0  0  0
 31 32  2  0  0  0  0
 32 27  1  0  0  0  0
 35 31  1  0  0  0  0
M  END
>  <minimizedAffinity>
-5.57995939

$$$$

 OpenBabel03272508133D

 35 37  0  0  0  0  0  0  0  0999 V2000
   37.9030   22.6250   34.2080 Cl  0  0  0  0  0  0  0  0  0  0  0  0
   38.4530   24.3180   34.1770 C   0  0  0  0  0  0  0  0  0  0  0  0
   37.7700   25.3430   33.5070 C   0  0  0  0  0  0  0  0  0  0  0  0
   38.3230   26.6070   33.5740 C   0  0  0  0  0  0  0  0  0  0  0  0
   39.4910   26.8480   34.2700 C   0  0  0  0  0  0  0  0  0  0  0  0
   40.1590   25.8560   34.9230 C   0  0  0  0  0  0  0  0  0  0  0  0
   39.6300   24.6000   34.8690 C   0  0  0  0  0  0  0  0  0  0  0  0
   37.7300   27.3410   33.0290 H   0  0  0  0  0  0  0  0  0  0  0  0
   39.8260   27.8790   34.2510 H   0  0  0  0  0  0  0  0  0  0  0  0
   41.0620   26.1140   35.4440 H   0  0  0  0  0  0  0  0  0  0  0  0
   39.8950   23.1720   36.8430 C   0  0  0  0  0  0  0  0  0  0  0  0
   40.3600   23.5330   35.5780 C   0  0  0  0  0  0  0  0  0  0  0  0
   41.4560   22.9250   35.0040 C   0  0  0  0  0  0  0  0  0  0  0  0
   41.8180   23.2050   34.0220 H   0  0  0  0  0  0  0  0  0  0  0  0
   42.1270   21.9290   35.6780 C   0  0  0  0  0  0  0  0  0  0  0  0
   42.9960   21.4130   35.2790 H   0  0  0  0  0  0  0  0  0  0  0  0
   41.6780   21.5630   36.9300 C   0  0  0  0  0  3  0  0  0  0  0  0
   40.5960   22.1590   37.5050 C   0  0  0  0  0  3  0  0  0  0  0  0
   37.8110   24.3340   37.8860 N   0  0  0  0  0  0  0  0  0  0  0  0
   38.7350   23.8310   37.4260 C   0  0  0  0  0  0  0  0  0  0  0  0
   36.6450   24.9040   32.8850 O   0  0  0  0  0  0  0  0  0  0  0  0
   35.5140   26.0040   30.8340 O   0  0  0  0  0  0  0  0  0  0  0  0
   36.3000   24.8140   31.2420 P   0  0  1  0  0  0  0  0  0  0  0  0
   37.8260   24.8180   30.4720 O   0  0  0  0  0  0  0  0  0  0  0  0
   38.1670   25.7420   30.3680 H   0  0  0  0  0  0  0  0  0  0  0  0
   35.5170   23.3360   30.9250 O   0  0  0  0  0  0  0  0  0  0  0  0
   35.6300   19.9650   32.4380 C   0  0  0  0  0  0  0  0  0  0  0  0
   35.0860   21.2270   32.1240 C   0  0  0  0  0  0  0  0  0  0  0  0
   35.8340   22.1000   31.3420 C   0  0  0  0  0  0  0  0  0  0  0  0
   37.0680   21.6830   30.9170 N   0  0  0  0  0  0  0  0  0  0  0  0
   37.5480   20.4740   31.2390 C   0  0  0  0  0  0  0  0  0  0  0  0
   36.8340   19.6190   31.9950 N   0  0  0  0  0  0  0  0  0  0  0  0
   34.9380   19.3820   33.0570 H   0  0  0  0  0  0  0  0  0  0  0  0
   34.1350   21.6400   32.4080 H   0  0  0  0  0  0  0  0  0  0  0  0
   38.5290   20.1380   30.9030 H   0  0  0  0  0  0  0  0  0  0  0  0
  2  1  1  0  0  0  0
  2  7  1  0  0  0  0
  3  4  1  0  0  0  0
  3  2  2  0  0  0  0
  4  5  2  0  0  0  0
  5  6  1  0  0  0  0
  6 10  1  0  0  0  0
  7  6  2  0  0  0  0
  7 12  1  0  0  0  0
  8  4  1  0  0  0  0
  9  5  1  0  0  0  0
 11 20  1  0  0  0  0
 11 18  1  0  0  0  0
 12 11  2  0  0  0  0
 13 12  1  0  0  0  0
 13 15  2  0  0  0  0
 14 13  1  0  0  0  0
 15 17  1  0  0  0  0
 16 15  1  0  0  0  0
 17 18  2  0  0  0  0
 20 19  3  0  0  0  0
 21  3  1  0  0  0  0
 23 22  2  6  0  0  0
 23 21  1  0  0  0  0
 24 23  1  0  0  0  0
 25 24  1  0  0  0  0
 26 23  1  0  0  0  0
 26 29  1  0  0  0  0
 27 33  1  0  0  0  0
 28 34  1  0  0  0  0
 28 27  1  0  0  0  0
 29 28  2  0  0  0  0
 30 31  2  0  0  0  0
 30 29  1  0  0  0  0
 31 32  1  0  0  0  0
 32 27  2  0  0  0  0
 35 31  1  0  0  0  0
M  END
>  <minimizedAffinity>
-5.57045126

$$$$

 OpenBabel03272508133D

 35 37  0  0  0  0  0  0  0  0999 V2000
   38.5350   22.0100   33.7720 Cl  0  0  0  0  0  0  0  0  0  0  0  0
   37.4600   23.0580   32.8160 C   0  0  0  0  0  0  0  0  0  0  0  0
   37.5770   24.4540   32.7720 C   0  0  0  0  0  0  0  0  0  0  0  0
   36.6670   25.1320   31.9830 C   0  0  0  0  0  0  0  0  0  0  0  0
   35.6900   24.4630   31.2730 C   0  0  0  0  0  0  0  0  0  0  0  0
   35.5710   23.1050   31.3110 C   0  0  0  0  0  0  0  0  0  0  0  0
   36.4600   22.4180   32.0850 C   0  0  0  0  0  0  0  0  0  0  0  0
   36.8300   26.2080   32.0060 H   0  0  0  0  0  0  0  0  0  0  0  0
   35.0350   25.1010   30.6900 H   0  0  0  0  0  0  0  0  0  0  0  0
   34.7880   22.6510   30.7340 H   0  0  0  0  0  0  0  0  0  0  0  0
   37.1270   20.2120   31.2520 C   0  0  0  0  0  0  0  0  0  0  0  0
   36.3240   20.9500   32.1210 C   0  0  0  0  0  0  0  0  0  0  0  0
   35.4350   20.3460   32.9840 C   0  0  0  0  0  0  0  0  0  0  0  0
   34.8100   20.9190   33.6590 H   0  0  0  0  0  0  0  0  0  0  0  0
   35.3180   18.9740   33.0080 C   0  0  0  0  0  0  0  0  0  0  0  0
   34.6380   18.4390   33.6640 H   0  0  0  0  0  0  0  0  0  0  0  0
   36.1060   18.2310   32.1520 C   0  0  0  0  0  3  0  0  0  0  0  0
   36.9870   18.8200   31.2970 C   0  0  0  0  0  3  0  0  0  0  0  0
   38.7940   21.4140   29.6540 N   0  0  0  0  0  0  0  0  0  0  0  0
   38.0560   20.8760   30.3510 C   0  0  0  0  0  0  0  0  0  0  0  0
   38.5990   24.9200   33.5370 O   0  0  0  0  0  0  0  0  0  0  0  0
   39.5840   26.7400   35.0890 O   0  0  0  0  0  0  0  0  0  0  0  0
   38.5500   25.6780   35.0360 P   0  0  1  0  0  0  0  0  0  0  0  0
   36.9880   26.3670   35.1300 O   0  0  0  0  0  0  0  0  0  0  0  0
   36.9590   27.2420   34.6660 H   0  0  0  0  0  0  0  0  0  0  0  0
   38.7160   24.5000   36.2530 O   0  0  0  0  0  0  0  0  0  0  0  0
   41.0240   21.9060   37.5200 C   0  0  0  0  0  0  0  0  0  0  0  0
   39.8390   22.6660   37.4560 C   0  0  0  0  0  0  0  0  0  0  0  0
   39.7390   23.6640   36.4930 C   0  0  0  0  0  0  0  0  0  0  0  0
   40.8050   23.8550   35.6540 N   0  0  0  0  0  0  0  0  0  0  0  0
   41.9140   23.1090   35.7490 C   0  0  0  0  0  0  0  0  0  0  0  0
   42.0230   22.1390   36.6770 N   0  0  0  0  0  0  0  0  0  0  0  0
   40.9680   21.1590   38.3200 H   0  0  0  0  0  0  0  0  0  0  0  0
   38.9570   22.5910   38.0650 H   0  0  0  0  0  0  0  0  0  0  0  0
   42.7640   23.2570   35.0840 H   0  0  0  0  0  0  0  0  0  0  0  0
  2  1  1  0  0  0  0
  3  2  1  0  0  0  0
  3 21  1  0  0  0  0
  4  8  1  0  0  0  0
  4  3  2  0  0  0  0
  5  6  2  0  0  0  0
  5  4  1  0  0  0  0
  6  7  1  0  0  0  0
  7 12  1  0  0  0  0
  7  2  2  0  0  0  0
  9  5  1  0  0  0  0
 10  6  1  0  0  0  0
 11 18  2  0  0  0  0
 11 12  1  0  0  0  0
 12 13  2  0  0  0  0
 13 15  1  0  0  0  0
 13 14  1  0  0  0  0
 15 16  1  0  0  0  0
 17 15  2  0  0  0  0
 18 17  1  0  0  0  0
 19 20  3  0  0  0  0
 20 11  1  0  0  0  0
 21 23  1  0  0  0  0
 23 22  2  1  0  0  0
 23 24  1  0  0  0  0
 23 26  1  0  0  0  0
 25 24  1  0  0  0  0
 26 29  1  0  0  0  0
 27 33  1  0  0  0  0
 28 27  1  0  0  0  0
 28 34  1  0  0  0  0
 29 28  2  0  0  0  0
 30 31  2  0  0  0  0
 30 29  1  0  0  0  0
 31 32  1  0  0  0  0
 32 27  2  0  0  0  0
 35 31  1  0  0  0  0
M  END
>  <minimizedAffinity>
-5.55856705

$$$$

 OpenBabel03272508133D

 35 37  0  0  0  0  0  0  0  0999 V2000
   36.3390   28.1480   34.5680 Cl  0  0  0  0  0  0  0  0  0  0  0  0
   36.1910   29.0740   33.0550 C   0  0  0  0  0  0  0  0  0  0  0  0
   36.6910   28.6300   31.8230 C   0  0  0  0  0  0  0  0  0  0  0  0
   36.4990   29.4620   30.7360 C   0  0  0  0  0  0  0  0  0  0  0  0
   35.8450   30.6720   30.8610 C   0  0  0  0  0  0  0  0  0  0  0  0
   35.3570   31.1090   32.0560 C   0  0  0  0  0  0  0  0  0  0  0  0
   35.5360   30.3020   33.1410 C   0  0  0  0  0  0  0  0  0  0  0  0
   36.9160   29.0410   29.8220 H   0  0  0  0  0  0  0  0  0  0  0  0
   35.7550   31.2360   29.9390 H   0  0  0  0  0  0  0  0  0  0  0  0
   34.8590   32.0590   32.0800 H   0  0  0  0  0  0  0  0  0  0  0  0
   33.6800   30.4700   34.7320 C   0  0  0  0  0  0  0  0  0  0  0  0
   35.0050   30.7830   34.4300 C   0  0  0  0  0  0  0  0  0  0  0  0
   35.7980   31.5110   35.2920 C   0  0  0  0  0  0  0  0  0  0  0  0
   36.8270   31.7550   35.0570 H   0  0  0  0  0  0  0  0  0  0  0  0
   35.2890   31.9530   36.4930 C   0  0  0  0  0  0  0  0  0  0  0  0
   35.8620   32.5300   37.2130 H   0  0  0  0  0  0  0  0  0  0  0  0
   33.9780   31.6510   36.8040 C   0  0  0  0  0  3  0  0  0  0  0  0
   33.1890   30.9320   35.9580 C   0  0  0  0  0  3  0  0  0  0  0  0
   32.2190   29.0800   33.0860 N   0  0  0  0  0  0  0  0  0  0  0  0
   32.8660   29.7000   33.8040 C   0  0  0  0  0  0  0  0  0  0  0  0
   37.2990   27.4180   31.9080 O   0  0  0  0  0  0  0  0  0  0  0  0
   35.3730   26.0310   30.8770 O   0  0  0  0  0  0  0  0  0  0  0  0
   36.7700   25.9180   31.3640 P   0  0  1  0  0  0  0  0  0  0  0  0
   37.8180   25.5250   30.0730 O   0  0  0  0  0  0  0  0  0  0  0  0
   37.5200   25.9550   29.2320 H   0  0  0  0  0  0  0  0  0  0  0  0
   36.9690   24.7790   32.6130 O   0  0  0  0  0  0  0  0  0  0  0  0
   37.9010   21.2460   33.1670 C   0  0  0  0  0  0  0  0  0  0  0  0
   37.7610   22.6120   33.4790 C   0  0  0  0  0  0  0  0  0  0  0  0
   37.1970   23.4590   32.5310 C   0  0  0  0  0  0  0  0  0  0  0  0
   36.8060   22.9130   31.3360 N   0  0  0  0  0  0  0  0  0  0  0  0
   36.9580   21.6070   31.0800 C   0  0  0  0  0  0  0  0  0  0  0  0
   37.5020   20.7770   31.9890 N   0  0  0  0  0  0  0  0  0  0  0  0
   38.3580   20.6970   33.9990 H   0  0  0  0  0  0  0  0  0  0  0  0
   38.0340   23.1280   34.3810 H   0  0  0  0  0  0  0  0  0  0  0  0
   36.6480   21.1690   30.1310 H   0  0  0  0  0  0  0  0  0  0  0  0
  2  7  1  0  0  0  0
  2  1  1  0  0  0  0
  3 21  1  0  0  0  0
  3  2  2  0  0  0  0
  4  5  2  0  0  0  0
  4  3  1  0  0  0  0
  5  6  1  0  0  0  0
  6 10  1  0  0  0  0
  6  7  2  0  0  0  0
  7 12  1  0  0  0  0
  8  4  1  0  0  0  0
  9  5  1  0  0  0  0
 11 18  1  0  0  0  0
 12 11  2  0  0  0  0
 12 13  1  0  0  0  0
 13 15  2  0  0  0  0
 14 13  1  0  0  0  0
 15 17  1  0  0  0  0
 15 16  1  0  0  0  0
 18 17  2  0  0  0  0
 19 20  3  0  0  0  0
 20 11  1  0  0  0  0
 23 22  2  6  0  0  0
 23 21  1  0  0  0  0
 23 26  1  0  0  0  0
 24 23  1  0  0  0  0
 25 24  1  0  0  0  0
 27 28  1  0  0  0  0
 27 33  1  0  0  0  0
 28 34  1  0  0  0  0
 29 26  1  0  0  0  0
 29 28  2  0  0  0  0
 30 29  1  0  0  0  0
 31 30  2  0  0  0  0
 31 32  1  0  0  0  0
 32 27  2  0  0  0  0
 35 31  1  0  0  0  0
M  END
>  <minimizedAffinity>
-5.55592728

$$$$

 OpenBabel03272508133D

 35 37  0  0  0  0  0  0  0  0999 V2000
   38.4860   23.0610   33.5590 Cl  0  0  0  0  0  0  0  0  0  0  0  0
   38.3200   24.7090   34.2110 C   0  0  0  0  0  0  0  0  0  0  0  0
   37.3990   25.6470   33.7210 C   0  0  0  0  0  0  0  0  0  0  0  0
   37.3900   26.8870   34.3310 C   0  0  0  0  0  0  0  0  0  0  0  0
   38.2460   27.1860   35.3710 C   0  0  0  0  0  0  0  0  0  0  0  0
   39.1430   26.2780   35.8520 C   0  0  0  0  0  0  0  0  0  0  0  0
   39.1690   25.0480   35.2630 C   0  0  0  0  0  0  0  0  0  0  0  0
   36.6470   27.5510   33.8910 H   0  0  0  0  0  0  0  0  0  0  0  0
   38.1450   28.1890   35.7680 H   0  0  0  0  0  0  0  0  0  0  0  0
   39.7780   26.5790   36.6630 H   0  0  0  0  0  0  0  0  0  0  0  0
   39.7280   23.2620   36.8450 C   0  0  0  0  0  0  0  0  0  0  0  0
   40.1420   24.0730   35.7890 C   0  0  0  0  0  0  0  0  0  0  0  0
   41.4070   23.9780   35.2480 C   0  0  0  0  0  0  0  0  0  0  0  0
   41.7290   24.6080   34.4280 H   0  0  0  0  0  0  0  0  0  0  0  0
   42.3060   23.0620   35.7480 C   0  0  0  0  0  0  0  0  0  0  0  0
   43.3150   22.9390   35.3660 H   0  0  0  0  0  0  0  0  0  0  0  0
   41.9090   22.2540   36.7950 C   0  0  0  0  0  3  0  0  0  0  0  0
   40.6620   22.3420   37.3340 C   0  0  0  0  0  3  0  0  0  0  0  0
   37.3350   23.4940   37.8440 N   0  0  0  0  0  0  0  0  0  0  0  0
   38.3870   23.3840   37.3970 C   0  0  0  0  0  0  0  0  0  0  0  0
   36.6490   25.1610   32.6980 O   0  0  0  0  0  0  0  0  0  0  0  0
   37.4390   24.2210   30.4210 O   0  0  0  0  0  0  0  0  0  0  0  0
   36.8110   25.4120   31.0440 P   0  0  1  0  0  0  0  0  0  0  0  0
   35.2130   25.6080   30.4700 O   0  0  0  0  0  0  0  0  0  0  0  0
   34.7830   24.7290   30.3130 H   0  0  0  0  0  0  0  0  0  0  0  0
   37.6770   26.8540   30.7890 O   0  0  0  0  0  0  0  0  0  0  0  0
   37.0250   30.3160   29.6710 C   0  0  0  0  0  0  0  0  0  0  0  0
   37.6740   29.0660   29.7020 C   0  0  0  0  0  0  0  0  0  0  0  0
   37.2160   28.1000   30.5910 C   0  0  0  0  0  0  0  0  0  0  0  0
   36.1520   28.4180   31.3940 N   0  0  0  0  0  0  0  0  0  0  0  0
   35.5640   29.6210   31.3310 C   0  0  0  0  0  0  0  0  0  0  0  0
   35.9970   30.5650   30.4750 N   0  0  0  0  0  0  0  0  0  0  0  0
   37.4850   30.9790   28.9290 H   0  0  0  0  0  0  0  0  0  0  0  0
   38.5080   28.7250   29.1170 H   0  0  0  0  0  0  0  0  0  0  0  0
   34.7180   29.8790   31.9670 H   0  0  0  0  0  0  0  0  0  0  0  0
  1  2  1  0  0  0  0
  2  7  1  0  0  0  0
  3  2  2  0  0  0  0
  3  4  1  0  0  0  0
  4  5  2  0  0  0  0
  5  9  1  0  0  0  0
  5  6  1  0  0  0  0
  6 10  1  0  0  0  0
  7 12  1  0  0  0  0
  7  6  2  0  0  0  0
  8  4  1  0  0  0  0
 11 18  1  0  0  0  0
 11 20  1  0  0  0  0
 12 11  2  0  0  0  0
 13 15  2  0  0  0  0
 13 12  1  0  0  0  0
 14 13  1  0  0  0  0
 15 17  1  0  0  0  0
 16 15  1  0  0  0  0
 17 18  2  0  0  0  0
 20 19  3  0  0  0  0
 21  3  1  0  0  0  0
 23 22  2  6  0  0  0
 23 21  1  0  0  0  0
 24 23  1  0  0  0  0
 25 24  1  0  0  0  0
 26 23  1  0  0  0  0
 27 28  2  0  0  0  0
 27 32  1  0  0  0  0
 28 29  1  0  0  0  0
 29 26  1  0  0  0  0
 29 30  2  0  0  0  0
 31 30  1  0  0  0  0
 31 35  1  0  0  0  0
 32 31  2  0  0  0  0
 33 27  1  0  0  0  0
 34 28  1  0  0  0  0
M  END
>  <minimizedAffinity>
-5.5121603

$$$$

 OpenBabel03272508133D

 35 37  0  0  0  0  0  0  0  0999 V2000
   39.5490   26.2320   31.7770 Cl  0  0  0  0  0  0  0  0  0  0  0  0
   38.7830   26.8140   33.2750 C   0  0  0  0  0  0  0  0  0  0  0  0
   37.4620   27.2790   33.3390 C   0  0  0  0  0  0  0  0  0  0  0  0
   37.0090   27.6990   34.5750 C   0  0  0  0  0  0  0  0  0  0  0  0
   37.8200   27.6610   35.6920 C   0  0  0  0  0  0  0  0  0  0  0  0
   39.1050   27.2100   35.6350 C   0  0  0  0  0  0  0  0  0  0  0  0
   39.5720   26.7910   34.4240 C   0  0  0  0  0  0  0  0  0  0  0  0
   35.9760   28.0430   34.5360 H   0  0  0  0  0  0  0  0  0  0  0  0
   37.3540   28.0150   36.6040 H   0  0  0  0  0  0  0  0  0  0  0  0
   39.6790   27.2080   36.5420 H   0  0  0  0  0  0  0  0  0  0  0  0
   41.1920   24.9820   34.7500 C   0  0  0  0  0  0  0  0  0  0  0  0
   40.9630   26.3050   34.3720 C   0  0  0  0  0  0  0  0  0  0  0  0
   41.9850   27.1350   33.9640 C   0  0  0  0  0  0  0  0  0  0  0  0
   41.8070   28.1630   33.6710 H   0  0  0  0  0  0  0  0  0  0  0  0
   43.2800   26.6680   33.9200 C   0  0  0  0  0  0  0  0  0  0  0  0
   44.1270   27.2710   33.6080 H   0  0  0  0  0  0  0  0  0  0  0  0
   43.5210   25.3600   34.2920 C   0  0  0  0  0  3  0  0  0  0  0  0
   42.5170   24.5340   34.6960 C   0  0  0  0  0  3  0  0  0  0  0  0
   39.2400   23.4410   35.5200 N   0  0  0  0  0  0  0  0  0  0  0  0
   40.0940   24.1270   35.1760 C   0  0  0  0  0  0  0  0  0  0  0  0
   36.8300   27.2370   32.1370 O   0  0  0  0  0  0  0  0  0  0  0  0
   37.8940   29.2310   30.8790 O   0  0  0  0  0  0  0  0  0  0  0  0
   36.6380   28.4500   30.9900 P   0  0  1  0  0  0  0  0  0  0  0  0
   36.3210   27.6250   29.5260 O   0  0  0  0  0  0  0  0  0  0  0  0
   37.1640   27.3290   29.0980 H   0  0  0  0  0  0  0  0  0  0  0  0
   35.2820   29.3910   31.4060 O   0  0  0  0  0  0  0  0  0  0  0  0
   34.9810   31.2440   34.5910 C   0  0  0  0  0  0  0  0  0  0  0  0
   35.5420   30.8860   33.3480 C   0  0  0  0  0  0  0  0  0  0  0  0
   34.9270   29.8860   32.6030 C   0  0  0  0  0  0  0  0  0  0  0  0
   33.8020   29.2990   33.1210 N   0  0  0  0  0  0  0  0  0  0  0  0
   33.3030   29.6690   34.3080 C   0  0  0  0  0  0  0  0  0  0  0  0
   33.8880   30.6360   35.0390 N   0  0  0  0  0  0  0  0  0  0  0  0
   35.5630   32.0400   35.0690 H   0  0  0  0  0  0  0  0  0  0  0  0
   36.4120   31.2860   32.8620 H   0  0  0  0  0  0  0  0  0  0  0  0
   32.4090   29.2060   34.7240 H   0  0  0  0  0  0  0  0  0  0  0  0
  1  2  1  0  0  0  0
  2  3  2  0  0  0  0
  2  7  1  0  0  0  0
  3  4  1  0  0  0  0
  4  5  2  0  0  0  0
  5  9  1  0  0  0  0
  6  5  1  0  0  0  0
  6 10  1  0  0  0  0
  7  6  2  0  0  0  0
  8  4  1  0  0  0  0
 11 20  1  0  0  0  0
 12  7  1  0  0  0  0
 12 11  2  0  0  0  0
 13 12  1  0  0  0  0
 14 13  1  0  0  0  0
 15 13  2  0  0  0  0
 15 17  1  0  0  0  0
 16 15  1  0  0  0  0
 17 18  2  0  0  0  0
 18 11  1  0  0  0  0
 20 19  3  0  0  0  0
 21  3  1  0  0  0  0
 23 22  2  6  0  0  0
 23 26  1  0  0  0  0
 23 21  1  0  0  0  0
 24 23  1  0  0  0  0
 25 24  1  0  0  0  0
 26 29  1  0  0  0  0
 27 32  1  0  0  0  0
 27 33  1  0  0  0  0
 28 27  2  0  0  0  0
 29 30  2  0  0  0  0
 29 28  1  0  0  0  0
 30 31  1  0  0  0  0
 31 35  1  0  0  0  0
 31 32  2  0  0  0  0
 34 28  1  0  0  0  0
M  END
>  <minimizedAffinity>
-5.43436909

$$$$

 OpenBabel03272508133D

 35 37  0  0  0  0  0  0  0  0999 V2000
   35.9060   29.1360   34.5060 Cl  0  0  0  0  0  0  0  0  0  0  0  0
   35.3030   30.1880   33.2020 C   0  0  0  0  0  0  0  0  0  0  0  0
   35.7840   30.1440   31.8860 C   0  0  0  0  0  0  0  0  0  0  0  0
   35.2160   31.0250   30.9850 C   0  0  0  0  0  0  0  0  0  0  0  0
   34.2220   31.9040   31.3650 C   0  0  0  0  0  0  0  0  0  0  0  0
   33.7490   31.9500   32.6430 C   0  0  0  0  0  0  0  0  0  0  0  0
   34.2970   31.0890   33.5480 C   0  0  0  0  0  0  0  0  0  0  0  0
   35.6470   30.9240   29.9890 H   0  0  0  0  0  0  0  0  0  0  0  0
   33.8540   32.5440   30.5710 H   0  0  0  0  0  0  0  0  0  0  0  0
   32.9750   32.6580   32.8680 H   0  0  0  0  0  0  0  0  0  0  0  0
   32.6960   30.3270   35.2390 C   0  0  0  0  0  0  0  0  0  0  0  0
   33.7800   31.1470   34.9270 C   0  0  0  0  0  0  0  0  0  0  0  0
   34.3550   31.9820   35.8620 C   0  0  0  0  0  0  0  0  0  0  0  0
   35.1970   32.6200   35.6200 H   0  0  0  0  0  0  0  0  0  0  0  0
   33.8630   32.0250   37.1470 C   0  0  0  0  0  0  0  0  0  0  0  0
   34.2710   32.6610   37.9270 H   0  0  0  0  0  0  0  0  0  0  0  0
   32.7890   31.2190   37.4680 C   0  0  0  0  0  3  0  0  0  0  0  0
   32.2160   30.3910   36.5510 C   0  0  0  0  0  3  0  0  0  0  0  0
   31.6300   28.7790   33.4370 N   0  0  0  0  0  0  0  0  0  0  0  0
   32.1080   29.4550   34.2330 C   0  0  0  0  0  0  0  0  0  0  0  0
   36.7600   29.2140   31.7140 O   0  0  0  0  0  0  0  0  0  0  0  0
   35.3130   27.0860   31.4450 O   0  0  0  0  0  0  0  0  0  0  0  0
   36.6460   27.6470   31.1160 P   0  0  1  0  0  0  0  0  0  0  0  0
   36.8210   27.8090   29.4230 O   0  0  0  0  0  0  0  0  0  0  0  0
   35.9580   28.0510   29.0000 H   0  0  0  0  0  0  0  0  0  0  0  0
   37.9430   26.7310   31.7270 O   0  0  0  0  0  0  0  0  0  0  0  0
   39.8470   26.8090   34.8940 C   0  0  0  0  0  0  0  0  0  0  0  0
   39.6020   27.0320   33.5250 C   0  0  0  0  0  0  0  0  0  0  0  0
   38.3860   26.6210   32.9900 C   0  0  0  0  0  0  0  0  0  0  0  0
   37.4860   26.0180   33.8300 N   0  0  0  0  0  0  0  0  0  0  0  0
   37.7610   25.8250   35.1270 C   0  0  0  0  0  0  0  0  0  0  0  0
   38.9340   26.2180   35.6570 N   0  0  0  0  0  0  0  0  0  0  0  0
   40.8380   27.1790   35.1810 H   0  0  0  0  0  0  0  0  0  0  0  0
   40.2390   27.4930   32.7930 H   0  0  0  0  0  0  0  0  0  0  0  0
   37.0490   25.3460   35.7990 H   0  0  0  0  0  0  0  0  0  0  0  0
  2  7  1  0  0  0  0
  2  1  1  0  0  0  0
  3  2  2  0  0  0  0
  4  5  2  0  0  0  0
  4  3  1  0  0  0  0
  5  6  1  0  0  0  0
  6 10  1  0  0  0  0
  6  7  2  0  0  0  0
  7 12  1  0  0  0  0
  8  4  1  0  0  0  0
  9  5  1  0  0  0  0
 11 18  1  0  0  0  0
 12 11  2  0  0  0  0
 12 13  1  0  0  0  0
 13 15  2  0  0  0  0
 14 13  1  0  0  0  0
 15 17  1  0  0  0  0
 15 16  1  0  0  0  0
 18 17  2  0  0  0  0
 19 20  3  0  0  0  0
 20 11  1  0  0  0  0
 21  3  1  0  0  0  0
 23 22  2  1  0  0  0
 23 21  1  0  0  0  0
 23 26  1  0  0  0  0
 24 23  1  0  0  0  0
 25 24  1  0  0  0  0
 26 29  1  0  0  0  0
 27 33  1  0  0  0  0
 27 32  1  0  0  0  0
 28 27  2  0  0  0  0
 29 28  1  0  0  0  0
 29 30  2  0  0  0  0
 30 31  1  0  0  0  0
 31 32  2  0  0  0  0
 31 35  1  0  0  0  0
 34 28  1  0  0  0  0
M  END
>  <minimizedAffinity>
-5.39632082

$$$$

 OpenBabel03272508133D

 35 37  0  0  0  0  0  0  0  0999 V2000
   36.4730   28.2510   34.5370 Cl  0  0  0  0  0  0  0  0  0  0  0  0
   36.2550   29.1700   33.0270 C   0  0  0  0  0  0  0  0  0  0  0  0
   36.7590   28.7540   31.7870 C   0  0  0  0  0  0  0  0  0  0  0  0
   36.5080   29.5760   30.7050 C   0  0  0  0  0  0  0  0  0  0  0  0
   35.7940   30.7500   30.8420 C   0  0  0  0  0  0  0  0  0  0  0  0
   35.3010   31.1590   32.0450 C   0  0  0  0  0  0  0  0  0  0  0  0
   35.5380   30.3620   33.1260 C   0  0  0  0  0  0  0  0  0  0  0  0
   36.9330   29.1790   29.7840 H   0  0  0  0  0  0  0  0  0  0  0  0
   35.6610   31.3090   29.9230 H   0  0  0  0  0  0  0  0  0  0  0  0
   34.7550   32.0830   32.0780 H   0  0  0  0  0  0  0  0  0  0  0  0
   33.6940   30.4450   34.7370 C   0  0  0  0  0  0  0  0  0  0  0  0
   35.0020   30.8130   34.4230 C   0  0  0  0  0  0  0  0  0  0  0  0
   35.7730   31.5670   35.2810 C   0  0  0  0  0  0  0  0  0  0  0  0
   36.7890   31.8540   35.0370 H   0  0  0  0  0  0  0  0  0  0  0  0
   35.2600   31.9820   36.4900 C   0  0  0  0  0  0  0  0  0  0  0  0
   35.8160   32.5770   37.2080 H   0  0  0  0  0  0  0  0  0  0  0  0
   33.9660   31.6250   36.8130 C   0  0  0  0  0  3  0  0  0  0  0  0
   33.1980   30.8790   35.9710 C   0  0  0  0  0  3  0  0  0  0  0  0
   32.2660   29.0130   33.0970 N   0  0  0  0  0  0  0  0  0  0  0  0
   32.9020   29.6480   33.8120 C   0  0  0  0  0  0  0  0  0  0  0  0
   37.4310   27.5750   31.8620 O   0  0  0  0  0  0  0  0  0  0  0  0
   36.5070   25.2350   32.4630 O   0  0  0  0  0  0  0  0  0  0  0  0
   36.9760   26.0520   31.3170 P   0  0  1  0  0  0  0  0  0  0  0  0
   35.6900   26.3400   30.2280 O   0  0  0  0  0  0  0  0  0  0  0  0
   34.8330   26.4420   30.7130 H   0  0  0  0  0  0  0  0  0  0  0  0
   38.2800   25.3580   30.4720 O   0  0  0  0  0  0  0  0  0  0  0  0
   38.4450   21.6680   30.3390 C   0  0  0  0  0  0  0  0  0  0  0  0
   38.0710   22.9310   30.8410 C   0  0  0  0  0  0  0  0  0  0  0  0
   38.5120   24.0690   30.1750 C   0  0  0  0  0  0  0  0  0  0  0  0
   39.2920   23.9000   29.0610 N   0  0  0  0  0  0  0  0  0  0  0  0
   39.6240   22.6800   28.6180 C   0  0  0  0  0  0  0  0  0  0  0  0
   39.2030   21.5700   29.2530 N   0  0  0  0  0  0  0  0  0  0  0  0
   38.0310   20.8620   30.9560 H   0  0  0  0  0  0  0  0  0  0  0  0
   37.4670   23.1620   31.6990 H   0  0  0  0  0  0  0  0  0  0  0  0
   40.2430   22.5410   27.7330 H   0  0  0  0  0  0  0  0  0  0  0  0
  2  7  1  0  0  0  0
  2  1  1  0  0  0  0
  3 21  1  0  0  0  0
  3  2  2  0  0  0  0
  4  5  2  0  0  0  0
  4  3  1  0  0  0  0
  5  6  1  0  0  0  0
  6 10  1  0  0  0  0
  6  7  2  0  0  0  0
  7 12  1  0  0  0  0
  8  4  1  0  0  0  0
  9  5  1  0  0  0  0
 11 18  1  0  0  0  0
 12 11  2  0  0  0  0
 12 13  1  0  0  0  0
 13 15  2  0  0  0  0
 14 13  1  0  0  0  0
 15 17  1  0  0  0  0
 15 16  1  0  0  0  0
 18 17  2  0  0  0  0
 19 20  3  0  0  0  0
 20 11  1  0  0  0  0
 23 21  1  0  0  0  0
 23 22  2  1  0  0  0
 24 25  1  0  0  0  0
 24 23  1  0  0  0  0
 26 23  1  0  0  0  0
 27 28  1  0  0  0  0
 27 33  1  0  0  0  0
 28 34  1  0  0  0  0
 29 26  1  0  0  0  0
 29 28  2  0  0  0  0
 30 29  1  0  0  0  0
 31 30  2  0  0  0  0
 31 32  1  0  0  0  0
 32 27  2  0  0  0  0
 35 31  1  0  0  0  0
M  END
>  <minimizedAffinity>
-5.3737154

$$$$
