
 OpenBabel03272502393D

 41 44  0  0  1  0  0  0  0  0999 V2000
   32.2220   26.2030   44.4910 N   0  0  0  0  0  0  0  0  0  0  0  0
   31.2690   25.1400   44.7440 C   0  0  0  0  0  0  0  0  0  0  0  0
   30.2220   25.8090   45.5880 C   0  0  0  0  0  0  0  0  0  0  0  0
   30.8300   27.2490   45.9200 C   0  0  1  0  0  0  0  0  0  0  0  0
   31.5320   27.4980   44.6620 C   0  0  0  0  0  0  0  0  0  0  0  0
   30.8490   24.7230   43.8050 H   0  0  0  0  0  0  0  0  0  0  0  0
   31.7520   24.3690   45.3710 H   0  0  0  0  0  0  0  0  0  0  0  0
   30.0280   25.3190   46.5610 H   0  0  0  0  0  0  0  0  0  0  0  0
   29.3240   26.0260   45.0100 H   0  0  0  0  0  0  0  0  0  0  0  0
   31.4430   27.0190   46.7990 H   0  0  0  0  0  0  0  0  0  0  0  0
   30.8460   27.5480   43.7960 H   0  0  0  0  0  0  0  0  0  0  0  0
   32.2680   28.3250   44.6710 H   0  0  0  0  0  0  0  0  0  0  0  0
   29.0480   28.1620   43.9040 F   0  0  0  0  0  0  0  0  0  0  0  0
   28.8920   28.4890   45.1970 C   0  0  0  0  0  0  0  0  0  0  0  0
   29.7170   28.1460   46.2320 C   0  0  0  0  0  0  0  0  0  0  0  0
   29.3760   28.5880   47.5240 C   0  0  0  0  0  0  0  0  0  0  0  0
   28.2570   29.3390   47.7690 C   0  0  0  0  0  0  0  0  0  0  0  0
   27.4290   29.6790   46.6930 C   0  0  0  0  0  0  0  0  0  0  0  0
   27.7620   29.2420   45.3970 C   0  0  0  0  0  0  0  0  0  0  0  0
   30.0790   28.2760   48.2840 H   0  0  0  0  0  0  0  0  0  0  0  0
   28.0680   29.6350   48.7910 H   0  0  0  0  0  0  0  0  0  0  0  0
   26.5520   30.2710   46.8970 H   0  0  0  0  0  0  0  0  0  0  0  0
   27.1000   30.8880   43.7490 C   0  0  0  0  0  0  0  0  0  0  0  0
   26.8340   29.6510   44.3490 C   0  0  0  0  0  0  0  0  0  0  0  0
   25.7430   28.8940   43.9390 C   0  0  0  0  0  0  0  0  0  0  0  0
   25.5810   27.9420   44.4380 H   0  0  0  0  0  0  0  0  0  0  0  0
   24.9490   29.4090   42.9320 C   0  0  0  0  0  0  0  0  0  0  0  0
   24.1080   28.8000   42.6340 H   0  0  0  0  0  0  0  0  0  0  0  0
   25.2130   30.6250   42.3450 C   0  0  0  0  0  3  0  0  0  0  0  0
   26.2960   31.3900   42.7410 C   0  0  0  0  0  3  0  0  0  0  0  0
   29.1490   32.3150   44.5220 N   0  0  0  0  0  0  0  0  0  0  0  0
   28.2360   31.6770   44.1740 C   0  0  0  0  0  0  0  0  0  0  0  0
   33.5820   26.0660   44.1460 C   0  0  0  0  0  0  0  0  0  0  0  0
   34.2500   24.9710   44.7110 C   0  0  0  0  0  0  0  0  0  0  0  0
   35.6080   24.7840   44.4130 C   0  0  0  0  0  0  0  0  0  0  0  0
   36.1900   25.7130   43.5700 N   0  0  0  0  0  0  0  0  0  0  0  0
   35.5150   26.7470   43.0500 C   0  0  0  0  0  0  0  0  0  0  0  0
   34.2010   26.9280   43.3380 N   0  0  0  0  0  0  0  0  0  0  0  0
   33.8510   24.2300   45.3630 H   0  0  0  0  0  0  0  0  0  0  0  0
   36.1860   23.9640   44.8110 H   0  0  0  0  0  0  0  0  0  0  0  0
   36.0740   27.4030   42.4060 H   0  0  0  0  0  0  0  0  0  0  0  0
  1  5  1  0  0  0  0
  1  2  1  0  0  0  0
  2  7  1  0  0  0  0
  2  3  1  0  0  0  0
  3  4  1  0  0  0  0
  3  8  1  0  0  0  0
  4 15  1  0  0  0  0
  4 10  1  1  0  0  0
  5 12  1  0  0  0  0
  5  4  1  0  0  0  0
  6  2  1  0  0  0  0
  9  3  1  0  0  0  0
 11  5  1  0  0  0  0
 13 14  1  0  0  0  0
 14 19  2  0  0  0  0
 14 15  1  0  0  0  0
 15 16  2  0  0  0  0
 16 17  1  0  0  0  0
 16 20  1  0  0  0  0
 17 21  1  0  0  0  0
 18 22  1  0  0  0  0
 18 17  2  0  0  0  0
 19 18  1  0  0  0  0
 23 32  1  0  0  0  0
 23 24  1  0  0  0  0
 24 19  1  0  0  0  0
 25 24  2  0  0  0  0
 25 26  1  0  0  0  0
 27 25  1  0  0  0  0
 28 27  1  0  0  0  0
 29 30  1  0  0  0  0
 29 27  2  0  0  0  0
 30 23  2  0  0  0  0
 32 31  3  0  0  0  0
 33  1  1  0  0  0  0
 33 34  1  0  0  0  0
 34 39  1  0  0  0  0
 35 34  2  0  0  0  0
 35 40  1  0  0  0  0
 36 35  1  0  0  0  0
 37 38  1  0  0  0  0
 37 36  2  0  0  0  0
 38 33  2  0  0  0  0
 41 37  1  0  0  0  0
M  END
>  <minimizedAffinity>
-2.85580635

>  <minimizedRMSD>
10.4458561

$$$$
