
 OpenBabel03272505123D

 40 43  0  0  0  0  0  0  0  0999 V2000
   33.9790   30.0660   47.5230 S   0  0  0  0  0  0  0  0  0  0  0  0
   36.3090   30.9970   45.6840 Cl  0  0  0  0  0  0  0  0  0  0  0  0
   36.6400   30.7760   47.3810 C   0  0  0  0  0  0  0  0  0  0  0  0
   37.9250   31.0280   47.8190 C   0  0  0  0  0  0  0  0  0  0  0  0
   38.1970   30.8550   49.1730 C   0  0  0  0  0  0  0  0  0  0  0  0
   37.1980   30.4450   50.0220 C   0  0  0  0  0  0  0  0  0  0  0  0
   35.9330   30.2110   49.5150 C   0  0  0  0  0  0  0  0  0  0  0  0
   35.5900   30.3600   48.1940 C   0  0  0  0  0  0  0  0  0  0  0  0
   39.1820   31.0400   49.5530 H   0  0  0  0  0  0  0  0  0  0  0  0
   37.4040   30.3090   51.0750 H   0  0  0  0  0  0  0  0  0  0  0  0
   35.1580   29.8870   50.2030 H   0  0  0  0  0  0  0  0  0  0  0  0
   40.1940   33.2240   46.0100 C   0  0  0  0  0  0  0  0  0  0  0  0
   40.8840   32.3670   45.1250 C   0  0  0  0  0  0  0  0  0  0  0  0
   40.5420   31.0120   45.1750 C   0  0  0  0  0  0  0  0  0  0  0  0
   39.5790   30.5990   46.0550 N   0  0  0  0  0  0  0  0  0  0  0  0
   38.9580   31.4640   46.8720 C   0  0  0  0  0  0  0  0  0  0  0  0
   39.2670   32.7610   46.8440 N   0  0  0  0  0  0  0  0  0  0  0  0
   40.3850   34.3020   46.0520 H   0  0  0  0  0  0  0  0  0  0  0  0
   41.6230   32.8060   44.4760 H   0  0  0  0  0  0  0  0  0  0  0  0
   41.0590   30.3500   44.5080 H   0  0  0  0  0  0  0  0  0  0  0  0
   32.5630   29.3670   44.8050 Cl  0  0  0  0  0  0  0  0  0  0  0  0
   33.0910   28.1180   45.9230 C   0  0  0  0  0  0  0  0  0  0  0  0
   33.7220   28.3320   47.1370 C   0  0  0  0  0  0  0  0  0  0  0  0
   34.0880   27.2670   47.9260 C   0  0  0  0  0  0  0  0  0  0  0  0
   33.8360   25.9910   47.5210 C   0  0  0  0  0  0  0  0  0  0  0  0
   33.2030   25.7160   46.3040 C   0  0  0  0  0  0  0  0  0  0  0  0
   32.8490   26.7980   45.5380 C   0  0  0  0  0  0  0  0  0  0  0  0
   34.5770   27.5370   48.8620 H   0  0  0  0  0  0  0  0  0  0  0  0
   34.1420   25.1980   48.1720 H   0  0  0  0  0  0  0  0  0  0  0  0
   33.0220   24.6940   46.0200 H   0  0  0  0  0  0  0  0  0  0  0  0
   33.0740   26.3240   43.2010 C   0  0  0  0  0  0  0  0  0  0  0  0
   32.1910   26.4490   44.2770 C   0  0  0  0  0  0  0  0  0  0  0  0
   30.8260   26.2500   44.1020 C   0  0  0  0  0  0  0  0  0  0  0  0
   30.2140   26.3630   44.9750 H   0  0  0  0  0  0  0  0  0  0  0  0
   30.3890   25.9260   42.8370 C   0  0  0  0  0  0  0  0  0  0  0  0
   29.3160   25.7800   42.7480 H   0  0  0  0  0  0  0  0  0  0  0  0
   31.2220   25.7930   41.7480 C   0  0  0  0  0  3  0  0  0  0  0  0
   32.5690   25.9970   41.9590 C   0  0  0  0  0  3  0  0  0  0  0  0
   35.6310   26.6640   43.4470 N   0  0  0  0  0  0  0  0  0  0  0  0
   34.4990   26.5210   43.3360 C   0  0  0  0  0  0  0  0  0  0  0  0
  1  8  1  0  0  0  0
  2  3  1  0  0  0  0
  3  4  2  0  0  0  0
  3  8  1  0  0  0  0
  4  5  1  0  0  0  0
  5  9  1  0  0  0  0
  5  6  2  0  0  0  0
  6 10  1  0  0  0  0
  7  6  1  0  0  0  0
  7 11  1  0  0  0  0
  8  7  2  0  0  0  0
 12 18  1  0  0  0  0
 12 17  1  0  0  0  0
 13 14  1  0  0  0  0
 13 12  2  0  0  0  0
 14 15  2  0  0  0  0
 15 16  1  0  0  0  0
 16  4  1  0  0  0  0
 17 16  2  0  0  0  0
 19 13  1  0  0  0  0
 20 14  1  0  0  0  0
 21 22  1  0  0  0  0
 22 23  1  0  0  0  0
 23  1  1  0  0  0  0
 23 24  2  0  0  0  0
 24 28  1  0  0  0  0
 25 24  1  0  0  0  0
 25 29  1  0  0  0  0
 26 25  2  0  0  0  0
 27 22  2  0  0  0  0
 27 26  1  0  0  0  0
 30 26  1  0  0  0  0
 31 40  1  0  0  0  0
 31 32  1  0  0  0  0
 32 27  1  0  0  0  0
 33 32  2  0  0  0  0
 33 34  1  0  0  0  0
 35 33  1  0  0  0  0
 36 35  1  0  0  0  0
 37 38  1  0  0  0  0
 37 35  2  0  0  0  0
 38 31  2  0  0  0  0
 40 39  3  0  0  0  0
M  END
>  <minimizedAffinity>
-5.21641684

>  <minimizedRMSD>
1.09217405

$$$$
