
 OpenBabel03272509053D

 34 36  0  0  0  0  0  0  0  0999 V2000
   37.5030   30.4700   51.0480 C   0  0  0  0  0  0  0  0  0  0  0  0
   37.9820   31.0890   49.8750 C   0  0  0  0  0  0  0  0  0  0  0  0
   37.4040   30.7560   48.6120 C   0  0  0  0  0  0  0  0  0  0  0  0
   36.4080   29.8400   48.6380 N   0  0  0  0  0  0  0  0  0  0  0  0
   35.9820   29.2750   49.7760 C   0  0  0  0  0  0  0  0  0  0  0  0
   36.5090   29.5730   50.9690 N   0  0  0  0  0  0  0  0  0  0  0  0
   37.8610   30.6450   52.0340 H   0  0  0  0  0  0  0  0  0  0  0  0
   38.7630   31.7560   50.1230 H   0  0  0  0  0  0  0  0  0  0  0  0
   37.5700   31.3740   46.1920 C   0  0  0  0  0  0  0  0  0  0  0  0
   37.9990   31.4340   47.4790 C   0  0  0  0  0  0  0  0  0  0  0  0
   39.1190   32.2200   47.6410 C   0  0  0  0  0  0  0  0  0  0  0  0
   39.6150   32.4040   48.5760 H   0  0  0  0  0  0  0  0  0  0  0  0
   39.7470   32.8770   46.6180 C   0  0  0  0  0  0  0  0  0  0  0  0
   40.6240   33.4920   46.7450 H   0  0  0  0  0  0  0  0  0  0  0  0
   39.2820   32.7920   45.3250 C   0  0  0  0  0  3  0  0  0  0  0  0
   38.1640   32.0190   45.1160 C   0  0  0  0  0  3  0  0  0  0  0  0
   35.5380   29.9300   45.5710 N   0  0  0  0  0  0  0  0  0  0  0  0
   36.4440   30.5820   45.8570 C   0  0  0  0  0  0  0  0  0  0  0  0
   34.9020   28.3200   49.6520 C   0  0  0  0  0  3  0  0  0  0  0  0
   34.3640   28.1150   48.4970 C   0  0  0  0  0  3  0  0  0  0  0  0
   33.2780   27.2090   48.1230 C   0  0  0  0  0  0  0  0  0  0  0  0
   32.9100   26.6460   49.0040 H   0  0  0  0  0  0  0  0  0  0  0  0
   32.4260   27.8160   47.7360 H   0  0  0  0  0  0  0  0  0  0  0  0
   33.6810   26.1810   47.1130 C   0  0  0  0  0  0  0  0  0  0  0  0
   33.8830   24.8520   47.3700 C   0  0  0  0  0  0  0  0  0  0  0  0
   34.2550   24.0020   46.3570 C   0  0  0  0  0  0  0  0  0  0  0  0
   34.4370   24.4610   45.0480 C   0  0  0  0  0  0  0  0  0  0  0  0
   34.2360   25.7950   44.7800 C   0  0  0  0  0  0  0  0  0  0  0  0
   33.8610   26.6550   45.8000 C   0  0  0  0  0  0  0  0  0  0  0  0
   33.7370   24.5180   48.3890 H   0  0  0  0  0  0  0  0  0  0  0  0
   34.4000   22.9620   46.6230 H   0  0  0  0  0  0  0  0  0  0  0  0
   34.7340   23.7100   44.3050 H   0  0  0  0  0  0  0  0  0  0  0  0
   34.3820   26.1320   43.7600 H   0  0  0  0  0  0  0  0  0  0  0  0
   33.7290   27.6810   45.4850 H   0  0  0  0  0  0  0  0  0  0  0  0
  1  7  1  0  0  0  0
  2  8  1  0  0  0  0
  2  1  2  0  0  0  0
  3  4  2  0  0  0  0
  3  2  1  0  0  0  0
  4  5  1  0  0  0  0
  5  6  2  0  0  0  0
  6  1  1  0  0  0  0
  9 10  1  0  0  0  0
 10 11  2  0  0  0  0
 10  3  1  0  0  0  0
 11 12  1  0  0  0  0
 13 14  1  0  0  0  0
 13 11  1  0  0  0  0
 15 13  2  0  0  0  0
 16 15  1  0  0  0  0
 16  9  2  0  0  0  0
 17 18  3  0  0  0  0
 18  9  1  0  0  0  0
 19  5  1  0  0  0  0
 20 19  2  0  0  0  0
 21 20  1  0  0  0  0
 21 22  1  0  0  0  0
 23 21  1  0  0  0  0
 24 25  1  0  0  0  0
 24 21  1  0  0  0  0
 25 30  1  0  0  0  0
 26 31  1  0  0  0  0
 26 25  2  0  0  0  0
 27 26  1  0  0  0  0
 28 27  2  0  0  0  0
 28 29  1  0  0  0  0
 29 24  2  0  0  0  0
 32 27  1  0  0  0  0
 33 28  1  0  0  0  0
 34 29  1  0  0  0  0
M  END
>  <minimizedAffinity>
-6.08830786

>  <minimizedRMSD>
0.95075047

$$$$
