
 OpenBabel03272505123D

 40 43  0  0  0  0  0  0  0  0999 V2000
   34.0720   29.9560   47.5150 S   0  0  0  0  0  0  0  0  0  0  0  0
   36.4150   30.9040   45.7020 Cl  0  0  0  0  0  0  0  0  0  0  0  0
   36.7000   30.7880   47.4180 C   0  0  0  0  0  0  0  0  0  0  0  0
   37.9560   31.1250   47.8810 C   0  0  0  0  0  0  0  0  0  0  0  0
   38.1900   31.0350   49.2490 C   0  0  0  0  0  0  0  0  0  0  0  0
   37.1840   30.6200   50.0880 C   0  0  0  0  0  0  0  0  0  0  0  0
   35.9490   30.2990   49.5560 C   0  0  0  0  0  0  0  0  0  0  0  0
   35.6440   30.3620   48.2190 C   0  0  0  0  0  0  0  0  0  0  0  0
   39.1510   31.2870   49.6490 H   0  0  0  0  0  0  0  0  0  0  0  0
   37.3610   30.5490   51.1530 H   0  0  0  0  0  0  0  0  0  0  0  0
   35.1680   29.9730   50.2350 H   0  0  0  0  0  0  0  0  0  0  0  0
   40.2220   33.3270   46.0760 C   0  0  0  0  0  0  0  0  0  0  0  0
   40.9390   32.4670   45.2160 C   0  0  0  0  0  0  0  0  0  0  0  0
   40.6150   31.1080   45.2800 C   0  0  0  0  0  0  0  0  0  0  0  0
   39.6440   30.6940   46.1500 N   0  0  0  0  0  0  0  0  0  0  0  0
   38.9970   31.5620   46.9450 C   0  0  0  0  0  0  0  0  0  0  0  0
   39.2890   32.8630   46.9020 N   0  0  0  0  0  0  0  0  0  0  0  0
   40.3970   34.4080   46.1060 H   0  0  0  0  0  0  0  0  0  0  0  0
   41.6820   32.9070   44.5720 H   0  0  0  0  0  0  0  0  0  0  0  0
   41.1520   30.4440   44.6310 H   0  0  0  0  0  0  0  0  0  0  0  0
   33.8730   29.1600   44.4800 Cl  0  0  0  0  0  0  0  0  0  0  0  0
   33.8660   27.9520   45.7570 C   0  0  0  0  0  0  0  0  0  0  0  0
   33.9500   28.2100   47.1150 C   0  0  0  0  0  0  0  0  0  0  0  0
   33.9340   27.1740   48.0200 C   0  0  0  0  0  0  0  0  0  0  0  0
   33.8360   25.8860   47.5900 C   0  0  0  0  0  0  0  0  0  0  0  0
   33.7500   25.5680   46.2300 C   0  0  0  0  0  0  0  0  0  0  0  0
   33.7680   26.6200   45.3510 C   0  0  0  0  0  0  0  0  0  0  0  0
   34.0040   27.4770   49.0640 H   0  0  0  0  0  0  0  0  0  0  0  0
   33.8290   25.1170   48.3350 H   0  0  0  0  0  0  0  0  0  0  0  0
   33.6750   24.5360   45.9310 H   0  0  0  0  0  0  0  0  0  0  0  0
   32.3640   26.1600   43.4660 C   0  0  0  0  0  0  0  0  0  0  0  0
   33.6750   26.2260   43.9440 C   0  0  0  0  0  0  0  0  0  0  0  0
   34.7490   25.9360   43.1100 C   0  0  0  0  0  0  0  0  0  0  0  0
   35.7250   26.0090   43.5500 H   0  0  0  0  0  0  0  0  0  0  0  0
   34.4660   25.5830   41.8090 C   0  0  0  0  0  0  0  0  0  0  0  0
   35.3360   25.3640   41.1960 H   0  0  0  0  0  0  0  0  0  0  0  0
   33.1910   25.5030   41.2950 C   0  0  0  0  0  3  0  0  0  0  0  0
   32.1500   25.8000   42.1510 C   0  0  0  0  0  3  0  0  0  0  0  0
   30.3090   26.7030   44.9490 N   0  0  0  0  0  0  0  0  0  0  0  0
   31.2170   26.4540   44.2940 C   0  0  0  0  0  0  0  0  0  0  0  0
  1  8  1  0  0  0  0
  2  3  1  0  0  0  0
  3  4  2  0  0  0  0
  3  8  1  0  0  0  0
  4  5  1  0  0  0  0
  5  9  1  0  0  0  0
  5  6  2  0  0  0  0
  6 10  1  0  0  0  0
  7  6  1  0  0  0  0
  7 11  1  0  0  0  0
  8  7  2  0  0  0  0
 12 18  1  0  0  0  0
 12 17  1  0  0  0  0
 13 14  1  0  0  0  0
 13 12  2  0  0  0  0
 14 15  2  0  0  0  0
 15 16  1  0  0  0  0
 16  4  1  0  0  0  0
 17 16  2  0  0  0  0
 19 13  1  0  0  0  0
 20 14  1  0  0  0  0
 21 22  1  0  0  0  0
 22 23  1  0  0  0  0
 23  1  1  0  0  0  0
 23 24  2  0  0  0  0
 24 28  1  0  0  0  0
 25 24  1  0  0  0  0
 25 29  1  0  0  0  0
 26 25  2  0  0  0  0
 27 22  2  0  0  0  0
 27 26  1  0  0  0  0
 30 26  1  0  0  0  0
 31 32  1  0  0  0  0
 31 40  1  0  0  0  0
 32 27  1  0  0  0  0
 33 34  1  0  0  0  0
 33 32  2  0  0  0  0
 35 33  1  0  0  0  0
 36 35  1  0  0  0  0
 37 35  2  0  0  0  0
 37 38  1  0  0  0  0
 38 31  2  0  0  0  0
 40 39  3  0  0  0  0
M  END
>  <minimizedAffinity>
-5.51732922

>  <minimizedRMSD>
1.09250391

$$$$
