
 OpenBabel03272508113D

 35 37  0  0  0  0  0  0  0  0999 V2000
   36.6700   29.5200   44.0580 Cl  0  0  0  0  0  0  0  0  0  0  0  0
   38.3380   29.8600   43.5350 C   0  0  0  0  0  0  0  0  0  0  0  0
   39.3410   30.3250   44.3980 C   0  0  0  0  0  0  0  0  0  0  0  0
   40.5870   30.5430   43.8430 C   0  0  0  0  0  0  0  0  0  0  0  0
   40.8320   30.3130   42.5040 C   0  0  0  0  0  0  0  0  0  0  0  0
   39.8610   29.8600   41.6610 C   0  0  0  0  0  0  0  0  0  0  0  0
   38.6230   29.6390   42.1890 C   0  0  0  0  0  0  0  0  0  0  0  0
   41.3040   30.9020   44.5810 H   0  0  0  0  0  0  0  0  0  0  0  0
   41.8470   30.5200   42.1860 H   0  0  0  0  0  0  0  0  0  0  0  0
   40.1210   29.7030   40.6320 H   0  0  0  0  0  0  0  0  0  0  0  0
   36.7940   30.1070   40.6240 C   0  0  0  0  0  0  0  0  0  0  0  0
   37.5790   29.1500   41.2690 C   0  0  0  0  0  0  0  0  0  0  0  0
   37.3970   27.7980   41.0640 C   0  0  0  0  0  0  0  0  0  0  0  0
   38.0060   27.0550   41.5650 H   0  0  0  0  0  0  0  0  0  0  0  0
   36.4190   27.3560   40.2020 C   0  0  0  0  0  0  0  0  0  0  0  0
   36.2260   26.3060   39.9990 H   0  0  0  0  0  0  0  0  0  0  0  0
   35.6350   28.2910   39.5570 C   0  0  0  0  0  3  0  0  0  0  0  0
   35.8090   29.6280   39.7540 C   0  0  0  0  0  3  0  0  0  0  0  0
   37.1670   32.6510   41.0290 N   0  0  0  0  0  0  0  0  0  0  0  0
   37.0080   31.5260   40.8590 C   0  0  0  0  0  0  0  0  0  0  0  0
   38.9020   30.4880   45.6740 O   0  0  0  0  0  0  0  0  0  0  0  0
   39.4550   32.5490   47.1350 O   0  0  0  0  0  0  0  0  0  0  0  0
   38.3340   31.8720   46.4380 P   0  0  1  0  0  0  0  0  0  0  0  0
   37.7390   32.8590   45.1760 O   0  0  0  0  0  0  0  0  0  0  0  0
   38.4730   33.3720   44.7520 H   0  0  0  0  0  0  0  0  0  0  0  0
   37.0480   31.4440   47.4670 O   0  0  0  0  0  0  0  0  0  0  0  0
   37.6070   30.5170   51.0020 C   0  0  0  0  0  0  0  0  0  0  0  0
   37.7050   31.3060   49.8380 C   0  0  0  0  0  0  0  0  0  0  0  0
   37.0850   30.8610   48.6760 C   0  0  0  0  0  0  0  0  0  0  0  0
   36.4080   29.6710   48.7260 N   0  0  0  0  0  0  0  0  0  0  0  0
   36.3400   28.9510   49.8550 C   0  0  0  0  0  0  0  0  0  0  0  0
   36.9350   29.3710   50.9860 N   0  0  0  0  0  0  0  0  0  0  0  0
   38.1390   30.9830   51.8380 H   0  0  0  0  0  0  0  0  0  0  0  0
   38.2090   32.2450   49.7030 H   0  0  0  0  0  0  0  0  0  0  0  0
   35.8020   28.0040   49.8990 H   0  0  0  0  0  0  0  0  0  0  0  0
  2  1  1  0  0  0  0
  2  3  1  0  0  0  0
  3 21  1  0  0  0  0
  4  3  2  0  0  0  0
  4  8  1  0  0  0  0
  5  4  1  0  0  0  0
  6  7  1  0  0  0  0
  6  5  2  0  0  0  0
  7  2  2  0  0  0  0
  9  5  1  0  0  0  0
 10  6  1  0  0  0  0
 11 20  1  0  0  0  0
 11 12  1  0  0  0  0
 12  7  1  0  0  0  0
 13 12  2  0  0  0  0
 13 14  1  0  0  0  0
 15 13  1  0  0  0  0
 16 15  1  0  0  0  0
 17 18  1  0  0  0  0
 17 15  2  0  0  0  0
 18 11  2  0  0  0  0
 20 19  3  0  0  0  0
 21 23  1  0  0  0  0
 23 22  2  1  0  0  0
 23 26  1  0  0  0  0
 24 23  1  0  0  0  0
 25 24  1  0  0  0  0
 26 29  1  0  0  0  0
 27 33  1  0  0  0  0
 28 27  2  0  0  0  0
 29 30  2  0  0  0  0
 29 28  1  0  0  0  0
 30 31  1  0  0  0  0
 31 35  1  0  0  0  0
 31 32  2  0  0  0  0
 32 27  1  0  0  0  0
 34 28  1  0  0  0  0
M  END
>  <minimizedAffinity>
-4.76925087

>  <minimizedRMSD>
1.15491998

$$$$
