
 OpenBabel03272509213D

 47 51  0  0  0  0  0  0  0  0999 V2000
   39.8850   31.9910   46.3540 O   0  0  0  0  0  0  0  0  0  0  0  0
   39.9260   30.7810   44.1640 C   0  0  0  0  0  0  0  0  0  0  0  0
   39.4930   31.7310   45.0670 C   0  0  0  0  0  0  0  0  0  0  0  0
   38.4830   32.6180   44.6790 C   0  0  0  0  0  0  0  0  0  0  0  0
   37.9240   32.5410   43.3980 C   0  0  0  0  0  0  0  0  0  0  0  0
   36.9750   33.2150   42.7300 N   0  0  0  0  0  0  0  0  0  0  0  0
   36.8190   32.7220   41.4880 C   0  0  0  0  0  0  0  0  0  0  0  0
   37.7040   31.6990   41.3680 N   0  0  0  0  0  0  0  0  0  0  0  0
   38.3890   31.5740   42.5270 C   0  0  0  0  0  0  0  0  0  0  0  0
   39.3830   30.6970   42.9020 C   0  0  0  0  0  0  0  0  0  0  0  0
   40.6990   30.1610   44.5710 H   0  0  0  0  0  0  0  0  0  0  0  0
   38.0410   33.4110   45.2690 H   0  0  0  0  0  0  0  0  0  0  0  0
   36.4380   33.9980   43.1100 H   0  0  0  0  0  0  0  0  0  0  0  0
   36.1330   33.0700   40.7480 H   0  0  0  0  0  0  0  0  0  0  0  0
   39.3280   28.4340   41.7600 C   0  0  0  0  0  0  0  0  0  0  0  0
   39.9010   29.6620   42.0140 C   0  0  0  0  0  0  0  0  0  0  0  0
   41.0900   30.0320   41.4050 C   0  0  0  0  0  0  0  0  0  0  0  0
   41.6020   30.9920   41.5610 H   0  0  0  0  0  0  0  0  0  0  0  0
   41.7380   29.1740   40.5210 C   0  0  0  0  0  0  0  0  0  0  0  0
   42.6740   29.4690   40.0450 H   0  0  0  0  0  0  0  0  0  0  0  0
   41.1440   27.9320   40.2750 C   0  0  0  0  0  3  0  0  0  0  0  0
   39.9560   27.5690   40.8870 C   0  0  0  0  0  3  0  0  0  0  0  0
   37.1040   27.9200   42.9750 N   0  0  0  0  0  0  0  0  0  0  0  0
   38.0980   28.1530   42.4430 C   0  0  0  0  0  0  0  0  0  0  0  0
   38.1020   31.3880   47.8870 C   0  0  0  0  0  0  0  0  0  0  0  0
   37.2750   31.5820   48.9760 C   0  0  0  0  0  0  0  0  0  0  0  0
   37.5110   32.7760   49.6650 C   0  0  0  0  0  0  0  0  0  0  0  0
   38.5090   33.6840   49.2650 C   0  0  0  0  0  0  0  0  0  0  0  0
   39.2900   33.3810   48.1380 C   0  0  0  0  0  0  0  0  0  0  0  0
   39.0670   32.2020   47.4470 C   0  0  0  0  0  0  0  0  0  0  0  0
   36.8990   32.9860   50.5240 H   0  0  0  0  0  0  0  0  0  0  0  0
   38.6490   34.5940   49.8340 H   0  0  0  0  0  0  0  0  0  0  0  0
   40.0490   34.1120   47.8660 H   0  0  0  0  0  0  0  0  0  0  0  0
   35.1410   30.4570   48.5910 C   0  0  0  0  0  0  0  0  0  0  0  0
   36.2630   30.6640   49.3860 C   0  0  0  0  0  0  0  0  0  0  0  0
   36.3570   29.9430   50.5900 C   0  0  0  0  0  0  0  0  0  0  0  0
   35.3560   29.0900   50.9120 N   0  0  0  0  0  0  0  0  0  0  0  0
   34.2700   28.9200   50.0960 C   0  0  0  0  0  0  0  0  0  0  0  0
   34.1710   29.5990   48.9510 N   0  0  0  0  0  0  0  0  0  0  0  0
   34.9940   30.9680   47.6570 H   0  0  0  0  0  0  0  0  0  0  0  0
   33.5910   28.2040   50.5250 H   0  0  0  0  0  0  0  0  0  0  0  0
   37.5330   30.1240   51.4790 C   0  0  0  0  0  0  0  0  0  0  0  0
   38.0470   31.0510   51.1840 H   0  0  0  0  0  0  0  0  0  0  0  0
   38.2290   29.2850   51.2640 H   0  0  0  0  0  0  0  0  0  0  0  0
   37.2310   30.0820   52.5310 H   0  0  0  0  0  0  0  0  0  0  0  0
   37.9450   30.2210   47.1310 O   0  0  0  0  0  0  0  0  0  0  0  0
   37.0620   30.1070   46.6570 H   0  0  0  0  0  0  0  0  0  0  0  0
  1 30  1  0  0  0  0
  2 11  1  0  0  0  0
  2  3  1  0  0  0  0
  3  1  1  0  0  0  0
  4  3  2  0  0  0  0
  4 12  1  0  0  0  0
  5  4  1  0  0  0  0
  6 13  1  0  0  0  0
  6  5  1  0  0  0  0
  7  6  1  0  0  0  0
  8  7  2  0  0  0  0
  8  9  1  0  0  0  0
  9 10  1  0  0  0  0
  9  5  2  0  0  0  0
 10  2  2  0  0  0  0
 14  7  1  0  0  0  0
 15 16  1  0  0  0  0
 15 24  1  0  0  0  0
 16 10  1  0  0  0  0
 17 18  1  0  0  0  0
 17 16  2  0  0  0  0
 19 17  1  0  0  0  0
 20 19  1  0  0  0  0
 21 19  2  0  0  0  0
 21 22  1  0  0  0  0
 22 15  2  0  0  0  0
 24 23  3  0  0  0  0
 25 26  1  0  0  0  0
 26 35  1  0  0  0  0
 26 27  2  0  0  0  0
 27 31  1  0  0  0  0
 28 27  1  0  0  0  0
 28 32  1  0  0  0  0
 29 28  2  0  0  0  0
 30 25  2  0  0  0  0
 30 29  1  0  0  0  0
 33 29  1  0  0  0  0
 34 39  2  0  0  0  0
 34 35  1  0  0  0  0
 35 36  2  0  0  0  0
 36 37  1  0  0  0  0
 36 42  1  0  0  0  0
 38 41  1  0  0  0  0
 38 37  2  0  0  0  0
 39 38  1  0  0  0  0
 40 34  1  0  0  0  0
 42 45  1  0  0  0  0
 43 42  1  0  0  0  0
 44 42  1  0  0  0  0
 46 25  1  0  0  0  0
 47 46  1  0  0  0  0
M  END
>  <minimizedAffinity>
-7.39363194

>  <minimizedRMSD>
1.26822054

$$$$
