
 OpenBabel03272509083D

 41 44  0  0  0  0  0  0  0  0999 V2000
   32.8560   27.8490   48.5750 C   0  0  0  0  0  0  0  0  0  0  0  0
   31.9650   28.4630   48.3860 H   0  0  0  0  0  0  0  0  0  0  0  0
   32.5420   27.1350   49.3920 H   0  0  0  0  0  0  0  0  0  0  0  0
   33.2200   26.9770   47.4340 C   0  0  0  0  0  0  0  0  0  0  0  0
   33.8310   25.7430   47.5680 C   0  0  0  0  0  0  0  0  0  0  0  0
   34.1360   24.9950   46.4550 C   0  0  0  0  0  0  0  0  0  0  0  0
   33.8480   25.4400   45.1740 C   0  0  0  0  0  0  0  0  0  0  0  0
   33.2450   26.6550   45.0410 C   0  0  0  0  0  0  0  0  0  0  0  0
   32.9290   27.4250   46.1470 C   0  0  0  0  0  0  0  0  0  0  0  0
   34.0310   25.4520   48.5910 H   0  0  0  0  0  0  0  0  0  0  0  0
   34.6070   24.0570   46.6650 H   0  0  0  0  0  0  0  0  0  0  0  0
   34.1380   24.7560   44.3760 H   0  0  0  0  0  0  0  0  0  0  0  0
   33.0390   26.9590   44.0270 H   0  0  0  0  0  0  0  0  0  0  0  0
   32.9350   29.8940   45.6660 C   0  0  0  0  0  0  0  0  0  0  0  0
   32.2840   28.7160   45.8980 C   0  0  0  0  0  0  0  0  0  0  0  0
   30.8890   28.6660   45.9120 C   0  0  0  0  0  0  0  0  0  0  0  0
   30.3270   27.7470   46.0930 H   0  0  0  0  0  0  0  0  0  0  0  0
   30.1330   29.8030   45.6940 C   0  0  0  0  0  0  0  0  0  0  0  0
   29.0520   29.7590   45.7050 H   0  0  0  0  0  0  0  0  0  0  0  0
   30.8350   30.9820   45.4610 C   0  0  0  0  0  3  0  0  0  0  0  0
   32.2140   31.0550   45.4430 C   0  0  0  0  0  3  0  0  0  0  0  0
   35.5410   29.8450   45.6700 N   0  0  0  0  0  0  0  0  0  0  0  0
   34.3650   29.8690   45.6670 C   0  0  0  0  0  0  0  0  0  0  0  0
   35.2450   28.3150   49.0810 C   0  0  0  0  0  3  0  0  0  0  0  0
   33.9820   28.6200   49.1120 C   0  0  0  0  0  3  0  0  0  0  0  0
   37.3040   30.1400   51.4850 C   0  0  0  0  0  0  0  0  0  0  0  0
   38.0230   31.0150   50.6460 C   0  0  0  0  0  0  0  0  0  0  0  0
   37.7700   30.9480   49.2530 C   0  0  0  0  0  0  0  0  0  0  0  0
   36.8450   30.0380   48.8010 N   0  0  0  0  0  0  0  0  0  0  0  0
   36.1960   29.2300   49.6790 C   0  0  0  0  0  0  0  0  0  0  0  0
   36.4180   29.2790   50.9850 N   0  0  0  0  0  0  0  0  0  0  0  0
   37.5360   30.2330   52.5350 H   0  0  0  0  0  0  0  0  0  0  0  0
   38.7560   31.7420   50.9590 H   0  0  0  0  0  0  0  0  0  0  0  0
   38.4590   31.8080   48.2970 C   0  0  0  0  0  0  0  0  0  0  0  0
   38.7900   31.3640   47.0260 C   0  0  0  0  0  0  0  0  0  0  0  0
   39.4310   32.4210   46.3760 C   0  0  0  0  0  0  0  0  0  0  0  0
   39.4650   33.4570   47.2700 N   0  0  0  0  0  0  0  0  0  0  0  0
   38.8840   33.0770   48.4040 N   0  0  0  0  0  0  0  0  0  0  0  0
   38.6370   30.4130   46.5210 H   0  0  0  0  0  0  0  0  0  0  0  0
   39.8370   32.4620   45.3740 H   0  0  0  0  0  0  0  0  0  0  0  0
   39.8620   34.4220   47.1620 H   0  0  0  0  0  0  0  0  0  0  0  0
  1 25  1  0  0  0  0
  1  3  1  0  0  0  0
  2  1  1  0  0  0  0
  4  5  1  0  0  0  0
  4  1  1  0  0  0  0
  5 10  1  0  0  0  0
  6 11  1  0  0  0  0
  6  5  2  0  0  0  0
  7  6  1  0  0  0  0
  8  7  2  0  0  0  0
  8  9  1  0  0  0  0
  9  4  2  0  0  0  0
 12  7  1  0  0  0  0
 13  8  1  0  0  0  0
 14 23  1  0  0  0  0
 14 15  1  0  0  0  0
 15 16  2  0  0  0  0
 15  9  1  0  0  0  0
 16 17  1  0  0  0  0
 18 19  1  0  0  0  0
 18 16  1  0  0  0  0
 20 18  2  0  0  0  0
 21 20  1  0  0  0  0
 21 14  2  0  0  0  0
 23 22  3  0  0  0  0
 24 25  2  0  0  0  0
 24 30  1  0  0  0  0
 26 32  1  0  0  0  0
 27 33  1  0  0  0  0
 27 26  2  0  0  0  0
 28 27  1  0  0  0  0
 29 28  2  0  0  0  0
 29 30  1  0  0  0  0
 30 31  2  0  0  0  0
 31 26  1  0  0  0  0
 34 38  2  0  0  0  0
 34 28  1  0  0  0  0
 35 34  1  0  0  0  0
 36 35  2  0  0  0  0
 36 37  1  0  0  0  0
 37 38  1  0  0  0  0
 39 35  1  0  0  0  0
 40 36  1  0  0  0  0
 41 37  1  0  0  0  0
M  END
>  <minimizedAffinity>
-6.29970121

>  <minimizedRMSD>
1.2572329

$$$$
