
 OpenBabel03262523203D

 31 33  0  0  1  0  0  0  0  0999 V2000
   31.1260   28.8220   33.8270 C   0  0  0  0  0  0  0  0  0  0  0  0
   30.7340   27.9160   34.8300 C   0  0  0  0  0  0  0  0  0  0  0  0
   31.3930   27.9580   36.0590 C   0  0  0  0  0  0  0  0  0  0  0  0
   32.3780   28.8700   36.2260 N   0  0  0  0  0  0  0  0  0  0  0  0
   32.7400   29.7240   35.2680 C   0  0  0  0  0  0  0  0  0  0  0  0
   32.1180   29.7030   34.0670 N   0  0  0  0  0  0  0  0  0  0  0  0
   33.7870   30.6660   35.4970 N   0  0  0  0  0  0  0  0  0  0  0  0
   33.7240   31.6580   36.5730 C   0  0  0  0  0  0  0  0  0  0  0  0
   35.0920   32.1940   36.7080 C   0  0  0  0  0  0  0  0  0  0  0  0
   35.9580   31.4040   35.7490 C   0  0  0  0  0  0  0  0  0  0  0  0
   35.0030   30.8280   34.7720 C   0  0  1  0  0  0  0  0  0  0  0  0
   30.6510   28.8280   32.8680 H   0  0  0  0  0  0  0  0  0  0  0  0
   29.9290   27.1970   34.6390 H   0  0  0  0  0  0  0  0  0  0  0  0
   31.1180   27.2760   36.8520 H   0  0  0  0  0  0  0  0  0  0  0  0
   33.4440   31.1110   37.5020 H   0  0  0  0  0  0  0  0  0  0  0  0
   32.9650   32.4460   36.3170 H   0  0  0  0  0  0  0  0  0  0  0  0
   35.5220   32.0130   37.7280 H   0  0  0  0  0  0  0  0  0  0  0  0
   35.1400   33.2860   36.5030 H   0  0  0  0  0  0  0  0  0  0  0  0
   36.6160   30.6870   36.2530 H   0  0  0  0  0  0  0  0  0  0  0  0
   36.6100   32.1350   35.2280 H   0  0  0  0  0  0  0  0  0  0  0  0
   34.7770   31.6550   34.0110 H   0  0  0  0  0  0  0  0  0  0  0  0
   35.3890   29.4920   32.6470 C   0  0  0  0  0  0  0  0  0  0  0  0
   35.5000   29.6980   34.0060 C   0  0  0  0  0  0  0  0  0  0  0  0
   36.2050   28.6470   34.6140 C   0  0  0  0  0  0  0  0  0  0  0  0
   36.3520   28.7100   35.7050 H   0  0  0  0  0  0  0  0  0  0  0  0
   36.7360   27.5390   33.9870 C   0  0  0  0  0  0  0  0  0  0  0  0
   37.2580   26.8000   34.5750 H   0  0  0  0  0  0  0  0  0  0  0  0
   36.5640   27.4400   32.6220 C   0  0  0  0  0  3  0  0  0  0  0  0
   35.8900   28.4180   31.9470 C   0  0  0  0  0  3  0  0  0  0  0  0
   34.1020   31.2450   31.2600 N   0  0  0  0  0  0  0  0  0  0  0  0
   34.6720   30.4670   31.8880 C   0  0  0  0  0  0  0  0  0  0  0  0
  1  6  2  0  0  0  0
  1  2  1  0  0  0  0
  2  3  2  0  0  0  0
  3  4  1  0  0  0  0
  3 14  1  0  0  0  0
  5  7  1  0  0  0  0
  5  4  2  0  0  0  0
  6  5  1  0  0  0  0
  7  8  1  0  0  0  0
  8  9  1  0  0  0  0
  8 15  1  0  0  0  0
  9 17  1  0  0  0  0
 10 19  1  0  0  0  0
 10  9  1  0  0  0  0
 11 21  1  6  0  0  0
 11  7  1  0  0  0  0
 11 10  1  0  0  0  0
 12  1  1  0  0  0  0
 13  2  1  0  0  0  0
 16  8  1  0  0  0  0
 18  9  1  0  0  0  0
 20 10  1  0  0  0  0
 22 23  1  0  0  0  0
 23 24  2  0  0  0  0
 23 11  1  0  0  0  0
 24 25  1  0  0  0  0
 26 27  1  0  0  0  0
 26 24  1  0  0  0  0
 28 26  2  0  0  0  0
 29 28  1  0  0  0  0
 29 22  2  0  0  0  0
 30 31  3  0  0  0  0
 31 22  1  0  0  0  0
M  END
>  <minimizedAffinity>
-5.16692066

$$$$

 OpenBabel03262523203D

 31 33  0  0  1  0  0  0  0  0999 V2000
   40.1380   27.1440   33.5420 C   0  0  0  0  0  0  0  0  0  0  0  0
   39.9810   26.8460   34.9090 C   0  0  0  0  0  0  0  0  0  0  0  0
   38.8280   26.1730   35.3140 C   0  0  0  0  0  0  0  0  0  0  0  0
   37.9170   25.8390   34.3710 N   0  0  0  0  0  0  0  0  0  0  0  0
   38.0790   26.1250   33.0800 C   0  0  0  0  0  0  0  0  0  0  0  0
   39.1870   26.7780   32.6600 N   0  0  0  0  0  0  0  0  0  0  0  0
   37.0860   25.7500   32.1260 N   0  0  0  0  0  0  0  0  0  0  0  0
   36.6820   24.3550   31.9260 C   0  0  0  0  0  0  0  0  0  0  0  0
   35.4320   24.4060   31.1440 C   0  0  0  0  0  0  0  0  0  0  0  0
   35.0800   25.8710   30.9930 C   0  0  0  0  0  0  0  0  0  0  0  0
   36.3540   26.5880   31.2350 C   0  0  1  0  0  0  0  0  0  0  0  0
   41.0050   27.6590   33.1830 H   0  0  0  0  0  0  0  0  0  0  0  0
   40.7520   27.1420   35.6300 H   0  0  0  0  0  0  0  0  0  0  0  0
   38.6730   25.9290   36.3570 H   0  0  0  0  0  0  0  0  0  0  0  0
   36.4740   23.9310   32.9350 H   0  0  0  0  0  0  0  0  0  0  0  0
   37.5050   23.7950   31.4060 H   0  0  0  0  0  0  0  0  0  0  0  0
   34.5690   23.9390   31.6880 H   0  0  0  0  0  0  0  0  0  0  0  0
   35.5300   23.9020   30.1580 H   0  0  0  0  0  0  0  0  0  0  0  0
   34.2340   26.1770   31.6190 H   0  0  0  0  0  0  0  0  0  0  0  0
   34.7770   26.0220   29.9370 H   0  0  0  0  0  0  0  0  0  0  0  0
   36.9430   26.5470   30.2530 H   0  0  0  0  0  0  0  0  0  0  0  0
   36.6100   29.0790   30.8100 C   0  0  0  0  0  0  0  0  0  0  0  0
   36.2250   27.9950   31.5710 C   0  0  0  0  0  0  0  0  0  0  0  0
   35.6360   28.4160   32.7750 C   0  0  0  0  0  0  0  0  0  0  0  0
   35.2910   27.6270   33.4640 H   0  0  0  0  0  0  0  0  0  0  0  0
   35.4450   29.7180   33.1880 C   0  0  0  0  0  0  0  0  0  0  0  0
   34.9770   29.9040   34.1430 H   0  0  0  0  0  0  0  0  0  0  0  0
   35.8700   30.7210   32.3430 C   0  0  0  0  0  3  0  0  0  0  0  0
   36.4550   30.4040   31.1490 C   0  0  0  0  0  3  0  0  0  0  0  0
   37.7710   28.6190   28.5540 N   0  0  0  0  0  0  0  0  0  0  0  0
   37.2510   28.8130   29.5620 C   0  0  0  0  0  0  0  0  0  0  0  0
  1  2  1  0  0  0  0
  2  3  2  0  0  0  0
  2 13  1  0  0  0  0
  3 14  1  0  0  0  0
  4  3  1  0  0  0  0
  5  4  2  0  0  0  0
  6  5  1  0  0  0  0
  6  1  2  0  0  0  0
  7  5  1  0  0  0  0
  8  7  1  0  0  0  0
  8 15  1  0  0  0  0
  9 17  1  0  0  0  0
  9  8  1  0  0  0  0
 10  9  1  0  0  0  0
 10 11  1  0  0  0  0
 10 19  1  0  0  0  0
 11 21  1  6  0  0  0
 11 23  1  0  0  0  0
 11  7  1  0  0  0  0
 12  1  1  0  0  0  0
 16  8  1  0  0  0  0
 18  9  1  0  0  0  0
 20 10  1  0  0  0  0
 22 29  2  0  0  0  0
 22 23  1  0  0  0  0
 23 24  2  0  0  0  0
 24 26  1  0  0  0  0
 24 25  1  0  0  0  0
 26 27  1  0  0  0  0
 28 26  2  0  0  0  0
 29 28  1  0  0  0  0
 30 31  3  0  0  0  0
 31 22  1  0  0  0  0
M  END
>  <minimizedAffinity>
-4.98320723

$$$$

 OpenBabel03262523203D

 31 33  0  0  1  0  0  0  0  0999 V2000
   37.0120   23.6080   31.6420 C   0  0  0  0  0  0  0  0  0  0  0  0
   35.9130   24.4720   31.4770 C   0  0  0  0  0  0  0  0  0  0  0  0
   36.0670   25.8160   31.8190 C   0  0  0  0  0  0  0  0  0  0  0  0
   37.2670   26.2220   32.2920 N   0  0  0  0  0  0  0  0  0  0  0  0
   38.3010   25.3940   32.4430 C   0  0  0  0  0  0  0  0  0  0  0  0
   38.1780   24.0860   32.1200 N   0  0  0  0  0  0  0  0  0  0  0  0
   39.5450   25.8750   32.9480 N   0  0  0  0  0  0  0  0  0  0  0  0
   40.2980   26.9420   32.2840 C   0  0  0  0  0  0  0  0  0  0  0  0
   41.3100   27.3890   33.2600 C   0  0  0  0  0  0  0  0  0  0  0  0
   41.0450   26.6180   34.5360 C   0  0  0  0  0  0  0  0  0  0  0  0
   40.2590   25.4380   34.1020 C   0  0  1  0  0  0  0  0  0  0  0  0
   36.9420   22.5690   31.3930 H   0  0  0  0  0  0  0  0  0  0  0  0
   34.9630   24.0870   31.0880 H   0  0  0  0  0  0  0  0  0  0  0  0
   35.2430   26.5080   31.7060 H   0  0  0  0  0  0  0  0  0  0  0  0
   39.5790   27.7700   32.0860 H   0  0  0  0  0  0  0  0  0  0  0  0
   40.7460   26.5520   31.3310 H   0  0  0  0  0  0  0  0  0  0  0  0
   41.1950   28.4720   33.5280 H   0  0  0  0  0  0  0  0  0  0  0  0
   42.3480   27.2340   32.8920 H   0  0  0  0  0  0  0  0  0  0  0  0
   40.5920   27.2300   35.3230 H   0  0  0  0  0  0  0  0  0  0  0  0
   42.0300   26.2740   34.9140 H   0  0  0  0  0  0  0  0  0  0  0  0
   41.0120   24.6730   33.7020 H   0  0  0  0  0  0  0  0  0  0  0  0
   38.5240   25.2930   35.9510 C   0  0  0  0  0  0  0  0  0  0  0  0
   39.5150   24.7640   35.1520 C   0  0  0  0  0  0  0  0  0  0  0  0
   39.7350   23.4110   35.4610 C   0  0  0  0  0  0  0  0  0  0  0  0
   40.5110   22.8870   34.8790 H   0  0  0  0  0  0  0  0  0  0  0  0
   39.0790   22.6680   36.4190 C   0  0  0  0  0  0  0  0  0  0  0  0
   39.3460   21.6310   36.5550 H   0  0  0  0  0  0  0  0  0  0  0  0
   38.1040   23.3030   37.1580 C   0  0  0  0  0  3  0  0  0  0  0  0
   37.8220   24.6200   36.9260 C   0  0  0  0  0  3  0  0  0  0  0  0
   37.9230   27.7820   35.6370 N   0  0  0  0  0  0  0  0  0  0  0  0
   38.2010   26.6740   35.7740 C   0  0  0  0  0  0  0  0  0  0  0  0
  1  6  1  0  0  0  0
  2  1  2  0  0  0  0
  2  3  1  0  0  0  0
  3  4  2  0  0  0  0
  4  5  1  0  0  0  0
  5  7  1  0  0  0  0
  6  5  2  0  0  0  0
  7 11  1  0  0  0  0
  8  7  1  0  0  0  0
  8  9  1  0  0  0  0
  9 17  1  0  0  0  0
  9 10  1  0  0  0  0
 10 20  1  0  0  0  0
 10 19  1  0  0  0  0
 11 21  1  6  0  0  0
 11 10  1  0  0  0  0
 11 23  1  0  0  0  0
 12  1  1  0  0  0  0
 13  2  1  0  0  0  0
 14  3  1  0  0  0  0
 15  8  1  0  0  0  0
 16  8  1  0  0  0  0
 18  9  1  0  0  0  0
 22 29  1  0  0  0  0
 23 24  1  0  0  0  0
 23 22  2  0  0  0  0
 24 26  2  0  0  0  0
 25 24  1  0  0  0  0
 26 27  1  0  0  0  0
 26 28  1  0  0  0  0
 29 28  2  0  0  0  0
 30 31  3  0  0  0  0
 31 22  1  0  0  0  0
M  END
>  <minimizedAffinity>
-4.92496538

$$$$

 OpenBabel03262523203D

 31 33  0  0  1  0  0  0  0  0999 V2000
   37.9990   23.0450   36.3610 C   0  0  0  0  0  0  0  0  0  0  0  0
   37.8510   22.0310   35.3960 C   0  0  0  0  0  0  0  0  0  0  0  0
   38.6990   22.0380   34.2880 C   0  0  0  0  0  0  0  0  0  0  0  0
   39.6230   23.0210   34.1960 N   0  0  0  0  0  0  0  0  0  0  0  0
   39.7540   23.9760   35.1170 C   0  0  0  0  0  0  0  0  0  0  0  0
   38.9450   23.9920   36.2000 N   0  0  0  0  0  0  0  0  0  0  0  0
   40.7470   24.9900   34.9710 N   0  0  0  0  0  0  0  0  0  0  0  0
   42.1750   24.6780   34.8670 C   0  0  0  0  0  0  0  0  0  0  0  0
   42.8240   25.9130   34.3870 C   0  0  0  0  0  0  0  0  0  0  0  0
   41.7120   26.9060   34.1220 C   0  0  0  0  0  0  0  0  0  0  0  0
   40.5650   26.4030   34.9140 C   0  0  1  0  0  0  0  0  0  0  0  0
   37.3730   23.0810   37.2280 H   0  0  0  0  0  0  0  0  0  0  0  0
   37.0830   21.2580   35.5230 H   0  0  0  0  0  0  0  0  0  0  0  0
   38.6120   21.2740   33.5270 H   0  0  0  0  0  0  0  0  0  0  0  0
   42.2760   23.8800   34.0960 H   0  0  0  0  0  0  0  0  0  0  0  0
   42.5600   24.3360   35.8640 H   0  0  0  0  0  0  0  0  0  0  0  0
   43.3440   25.7680   33.4040 H   0  0  0  0  0  0  0  0  0  0  0  0
   43.5650   26.3100   35.1140 H   0  0  0  0  0  0  0  0  0  0  0  0
   41.5210   27.0640   33.0540 H   0  0  0  0  0  0  0  0  0  0  0  0
   42.0410   27.8780   34.5420 H   0  0  0  0  0  0  0  0  0  0  0  0
   40.7310   26.7580   35.9910 H   0  0  0  0  0  0  0  0  0  0  0  0
   38.6770   26.8370   33.2720 C   0  0  0  0  0  0  0  0  0  0  0  0
   39.2620   26.9100   34.5180 C   0  0  0  0  0  0  0  0  0  0  0  0
   38.4080   27.5470   35.4330 C   0  0  0  0  0  0  0  0  0  0  0  0
   38.7790   27.6600   36.4660 H   0  0  0  0  0  0  0  0  0  0  0  0
   37.1500   28.0480   35.1750 C   0  0  0  0  0  0  0  0  0  0  0  0
   36.5950   28.5170   35.9740 H   0  0  0  0  0  0  0  0  0  0  0  0
   36.6660   27.9170   33.8900 C   0  0  0  0  0  3  0  0  0  0  0  0
   37.4290   27.3100   32.9330 C   0  0  0  0  0  3  0  0  0  0  0  0
   40.0530   25.7370   31.3880 N   0  0  0  0  0  0  0  0  0  0  0  0
   39.4360   26.2360   32.2210 C   0  0  0  0  0  0  0  0  0  0  0  0
  1 12  1  0  0  0  0
  2 13  1  0  0  0  0
  2  1  2  0  0  0  0
  3  2  1  0  0  0  0
  4  3  2  0  0  0  0
  4  5  1  0  0  0  0
  5  6  2  0  0  0  0
  6  1  1  0  0  0  0
  7  5  1  0  0  0  0
  8  7  1  0  0  0  0
  8 16  1  0  0  0  0
  9  8  1  0  0  0  0
  9 18  1  0  0  0  0
 10  9  1  0  0  0  0
 10 20  1  0  0  0  0
 10 11  1  0  0  0  0
 11  7  1  0  0  0  0
 11 21  1  1  0  0  0
 14  3  1  0  0  0  0
 15  8  1  0  0  0  0
 17  9  1  0  0  0  0
 19 10  1  0  0  0  0
 22 23  1  0  0  0  0
 23 11  1  0  0  0  0
 23 24  2  0  0  0  0
 24 25  1  0  0  0  0
 26 24  1  0  0  0  0
 26 27  1  0  0  0  0
 28 26  2  0  0  0  0
 29 22  2  0  0  0  0
 29 28  1  0  0  0  0
 30 31  3  0  0  0  0
 31 22  1  0  0  0  0
M  END
>  <minimizedAffinity>
-4.85178995

$$$$

 OpenBabel03262523203D

 31 33  0  0  1  0  0  0  0  0999 V2000
   35.8700   29.5920   33.2330 C   0  0  0  0  0  0  0  0  0  0  0  0
   35.8950   30.3610   32.0550 C   0  0  0  0  0  0  0  0  0  0  0  0
   36.0750   29.7060   30.8360 C   0  0  0  0  0  0  0  0  0  0  0  0
   36.2150   28.3610   30.8480 N   0  0  0  0  0  0  0  0  0  0  0  0
   36.1890   27.6430   31.9710 C   0  0  0  0  0  0  0  0  0  0  0  0
   36.0180   28.2540   33.1660 N   0  0  0  0  0  0  0  0  0  0  0  0
   36.3430   26.2250   31.9270 N   0  0  0  0  0  0  0  0  0  0  0  0
   35.4310   25.3620   31.1710 C   0  0  0  0  0  0  0  0  0  0  0  0
   36.0990   24.0500   31.0800 C   0  0  0  0  0  0  0  0  0  0  0  0
   37.4630   24.2190   31.7170 C   0  0  0  0  0  0  0  0  0  0  0  0
   37.3300   25.4230   32.5710 C   0  0  1  0  0  0  0  0  0  0  0  0
   35.7350   30.0500   34.1910 H   0  0  0  0  0  0  0  0  0  0  0  0
   35.7760   31.4500   32.1050 H   0  0  0  0  0  0  0  0  0  0  0  0
   36.1000   30.2650   29.9110 H   0  0  0  0  0  0  0  0  0  0  0  0
   35.3380   25.8050   30.1530 H   0  0  0  0  0  0  0  0  0  0  0  0
   34.4370   25.3170   31.6910 H   0  0  0  0  0  0  0  0  0  0  0  0
   36.2930   23.7420   30.0190 H   0  0  0  0  0  0  0  0  0  0  0  0
   35.5120   23.2430   31.5710 H   0  0  0  0  0  0  0  0  0  0  0  0
   38.2800   24.2400   30.9870 H   0  0  0  0  0  0  0  0  0  0  0  0
   37.6270   23.3340   32.3650 H   0  0  0  0  0  0  0  0  0  0  0  0
   36.8310   25.0790   33.5440 H   0  0  0  0  0  0  0  0  0  0  0  0
   39.0900   26.1930   34.2320 C   0  0  0  0  0  0  0  0  0  0  0  0
   38.5790   26.0550   32.9590 C   0  0  0  0  0  0  0  0  0  0  0  0
   39.4550   26.6040   32.0080 C   0  0  0  0  0  0  0  0  0  0  0  0
   39.1430   26.5470   30.9520 H   0  0  0  0  0  0  0  0  0  0  0  0
   40.6690   27.2070   32.2580 C   0  0  0  0  0  0  0  0  0  0  0  0
   41.2480   27.5900   31.4300 H   0  0  0  0  0  0  0  0  0  0  0  0
   41.0790   27.2890   33.5720 C   0  0  0  0  0  3  0  0  0  0  0  0
   40.2900   26.7810   34.5650 C   0  0  0  0  0  3  0  0  0  0  0  0
   37.6770   25.2990   36.1960 N   0  0  0  0  0  0  0  0  0  0  0  0
   38.2990   25.7050   35.3170 C   0  0  0  0  0  0  0  0  0  0  0  0
  1 12  1  0  0  0  0
  2 13  1  0  0  0  0
  2  1  2  0  0  0  0
  3  4  2  0  0  0  0
  3  2  1  0  0  0  0
  4  5  1  0  0  0  0
  5  6  2  0  0  0  0
  6  1  1  0  0  0  0
  7  5  1  0  0  0  0
  7 11  1  0  0  0  0
  8 16  1  0  0  0  0
  8  7  1  0  0  0  0
  9  8  1  0  0  0  0
  9 18  1  0  0  0  0
  9 10  1  0  0  0  0
 10 20  1  0  0  0  0
 10 11  1  0  0  0  0
 11 23  1  0  0  0  0
 11 21  1  1  0  0  0
 14  3  1  0  0  0  0
 15  8  1  0  0  0  0
 17  9  1  0  0  0  0
 19 10  1  0  0  0  0
 22 29  1  0  0  0  0
 22 31  1  0  0  0  0
 23 22  2  0  0  0  0
 24 26  2  0  0  0  0
 24 23  1  0  0  0  0
 25 24  1  0  0  0  0
 26 28  1  0  0  0  0
 27 26  1  0  0  0  0
 28 29  2  0  0  0  0
 31 30  3  0  0  0  0
M  END
>  <minimizedAffinity>
-4.79185915

$$$$

 OpenBabel03262523203D

 31 33  0  0  1  0  0  0  0  0999 V2000
   37.6040   22.6390   32.8260 C   0  0  0  0  0  0  0  0  0  0  0  0
   36.3150   22.5040   32.2770 C   0  0  0  0  0  0  0  0  0  0  0  0
   35.9180   23.3980   31.2810 C   0  0  0  0  0  0  0  0  0  0  0  0
   36.7950   24.3510   30.8920 N   0  0  0  0  0  0  0  0  0  0  0  0
   38.0140   24.4680   31.4180 C   0  0  0  0  0  0  0  0  0  0  0  0
   38.4230   23.6160   32.3860 N   0  0  0  0  0  0  0  0  0  0  0  0
   38.9000   25.4930   30.9700 N   0  0  0  0  0  0  0  0  0  0  0  0
   39.3250   25.6040   29.5720 C   0  0  0  0  0  0  0  0  0  0  0  0
   39.9280   26.9430   29.4390 C   0  0  0  0  0  0  0  0  0  0  0  0
   39.7430   27.6320   30.7750 C   0  0  0  0  0  0  0  0  0  0  0  0
   39.5140   26.5270   31.7360 C   0  0  1  0  0  0  0  0  0  0  0  0
   37.9520   21.9780   33.5920 H   0  0  0  0  0  0  0  0  0  0  0  0
   35.6450   21.7120   32.6320 H   0  0  0  0  0  0  0  0  0  0  0  0
   34.9340   23.3240   30.8380 H   0  0  0  0  0  0  0  0  0  0  0  0
   38.4030   25.5460   28.9490 H   0  0  0  0  0  0  0  0  0  0  0  0
   40.0380   24.7720   29.3270 H   0  0  0  0  0  0  0  0  0  0  0  0
   39.3910   27.5810   28.6890 H   0  0  0  0  0  0  0  0  0  0  0  0
   41.0000   26.8960   29.1450 H   0  0  0  0  0  0  0  0  0  0  0  0
   38.9730   28.4120   30.7540 H   0  0  0  0  0  0  0  0  0  0  0  0
   40.7040   28.1280   31.0180 H   0  0  0  0  0  0  0  0  0  0  0  0
   40.5470   26.1100   32.0050 H   0  0  0  0  0  0  0  0  0  0  0  0
   37.6420   27.4610   33.1750 C   0  0  0  0  0  0  0  0  0  0  0  0
   38.8930   26.9100   32.9920 C   0  0  0  0  0  0  0  0  0  0  0  0
   39.5410   26.7240   34.2240 C   0  0  0  0  0  0  0  0  0  0  0  0
   40.5530   26.2880   34.1940 H   0  0  0  0  0  0  0  0  0  0  0  0
   39.0420   27.0320   35.4720 C   0  0  0  0  0  0  0  0  0  0  0  0
   39.6470   26.8370   36.3440 H   0  0  0  0  0  0  0  0  0  0  0  0
   37.7770   27.5780   35.5330 C   0  0  0  0  0  3  0  0  0  0  0  0
   37.0720   27.7950   34.3830 C   0  0  0  0  0  3  0  0  0  0  0  0
   36.2220   27.9550   31.0790 N   0  0  0  0  0  0  0  0  0  0  0  0
   36.8650   27.7350   32.0080 C   0  0  0  0  0  0  0  0  0  0  0  0
  1 12  1  0  0  0  0
  2 13  1  0  0  0  0
  2  1  2  0  0  0  0
  3  2  1  0  0  0  0
  4  3  2  0  0  0  0
  4  5  1  0  0  0  0
  5  6  2  0  0  0  0
  6  1  1  0  0  0  0
  7  5  1  0  0  0  0
  7 11  1  0  0  0  0
  8  7  1  0  0  0  0
  9  8  1  0  0  0  0
  9 10  1  0  0  0  0
 10 20  1  0  0  0  0
 10 11  1  0  0  0  0
 11 21  1  1  0  0  0
 11 23  1  0  0  0  0
 14  3  1  0  0  0  0
 15  8  1  0  0  0  0
 16  8  1  0  0  0  0
 17  9  1  0  0  0  0
 18  9  1  0  0  0  0
 19 10  1  0  0  0  0
 22 29  1  0  0  0  0
 23 22  2  0  0  0  0
 23 24  1  0  0  0  0
 24 26  2  0  0  0  0
 25 24  1  0  0  0  0
 26 28  1  0  0  0  0
 26 27  1  0  0  0  0
 29 28  2  0  0  0  0
 30 31  3  0  0  0  0
 31 22  1  0  0  0  0
M  END
>  <minimizedAffinity>
-4.74949169

$$$$

 OpenBabel03262523203D

 31 33  0  0  1  0  0  0  0  0999 V2000
   38.6100   21.2320   32.8310 C   0  0  0  0  0  0  0  0  0  0  0  0
   37.2590   21.2460   32.4370 C   0  0  0  0  0  0  0  0  0  0  0  0
   36.6020   22.4750   32.3590 C   0  0  0  0  0  0  0  0  0  0  0  0
   37.2980   23.5930   32.6640 N   0  0  0  0  0  0  0  0  0  0  0  0
   38.5780   23.5670   33.0350 C   0  0  0  0  0  0  0  0  0  0  0  0
   39.2380   22.3900   33.1200 N   0  0  0  0  0  0  0  0  0  0  0  0
   39.2660   24.7780   33.3470 N   0  0  0  0  0  0  0  0  0  0  0  0
   39.4070   25.8690   32.3790 C   0  0  0  0  0  0  0  0  0  0  0  0
   39.8490   27.0420   33.1560 C   0  0  0  0  0  0  0  0  0  0  0  0
   39.8550   26.6170   34.6090 C   0  0  0  0  0  0  0  0  0  0  0  0
   39.9150   25.1370   34.5640 C   0  0  1  0  0  0  0  0  0  0  0  0
   39.1570   20.3150   32.9060 H   0  0  0  0  0  0  0  0  0  0  0  0
   36.7450   20.3080   32.2010 H   0  0  0  0  0  0  0  0  0  0  0  0
   35.5630   22.5230   32.0610 H   0  0  0  0  0  0  0  0  0  0  0  0
   38.3940   26.0600   31.9570 H   0  0  0  0  0  0  0  0  0  0  0  0
   40.1350   25.5700   31.5780 H   0  0  0  0  0  0  0  0  0  0  0  0
   39.1230   27.8950   33.0900 H   0  0  0  0  0  0  0  0  0  0  0  0
   40.8450   27.4130   32.8300 H   0  0  0  0  0  0  0  0  0  0  0  0
   39.0270   27.0440   35.1870 H   0  0  0  0  0  0  0  0  0  0  0  0
   40.7960   27.0020   35.0530 H   0  0  0  0  0  0  0  0  0  0  0  0
   41.0140   24.8600   34.3960 H   0  0  0  0  0  0  0  0  0  0  0  0
   40.1780   23.4520   36.4460 C   0  0  0  0  0  0  0  0  0  0  0  0
   39.5080   24.4580   35.7830 C   0  0  0  0  0  0  0  0  0  0  0  0
   38.3250   24.8000   36.4590 C   0  0  0  0  0  0  0  0  0  0  0  0
   37.7090   25.5970   36.0120 H   0  0  0  0  0  0  0  0  0  0  0  0
   37.8520   24.2390   37.6260 C   0  0  0  0  0  0  0  0  0  0  0  0
   36.9220   24.5960   38.0430 H   0  0  0  0  0  0  0  0  0  0  0  0
   38.6070   23.2400   38.2020 C   0  0  0  0  0  3  0  0  0  0  0  0
   39.7750   22.8420   37.6130 C   0  0  0  0  0  3  0  0  0  0  0  0
   42.3650   22.5700   35.4010 N   0  0  0  0  0  0  0  0  0  0  0  0
   41.3930   22.9740   35.8660 C   0  0  0  0  0  0  0  0  0  0  0  0
  1 12  1  0  0  0  0
  1  6  1  0  0  0  0
  2  1  2  0  0  0  0
  3  2  1  0  0  0  0
  3  4  2  0  0  0  0
  4  5  1  0  0  0  0
  5  6  2  0  0  0  0
  5  7  1  0  0  0  0
  7 11  1  0  0  0  0
  8  9  1  0  0  0  0
  8  7  1  0  0  0  0
  9 10  1  0  0  0  0
 10 20  1  0  0  0  0
 10 19  1  0  0  0  0
 11 21  1  6  0  0  0
 11 10  1  0  0  0  0
 11 23  1  0  0  0  0
 13  2  1  0  0  0  0
 14  3  1  0  0  0  0
 15  8  1  0  0  0  0
 16  8  1  0  0  0  0
 17  9  1  0  0  0  0
 18  9  1  0  0  0  0
 22 29  1  0  0  0  0
 23 22  2  0  0  0  0
 23 24  1  0  0  0  0
 24 26  2  0  0  0  0
 25 24  1  0  0  0  0
 26 27  1  0  0  0  0
 26 28  1  0  0  0  0
 29 28  2  0  0  0  0
 30 31  3  0  0  0  0
 31 22  1  0  0  0  0
M  END
>  <minimizedAffinity>
-4.68706656

$$$$

 OpenBabel03262523203D

 31 33  0  0  1  0  0  0  0  0999 V2000
   38.8820   23.3100   38.5660 C   0  0  0  0  0  0  0  0  0  0  0  0
   38.0390   24.4310   38.4550 C   0  0  0  0  0  0  0  0  0  0  0  0
   37.6830   24.8720   37.1800 C   0  0  0  0  0  0  0  0  0  0  0  0
   38.1660   24.1970   36.1120 N   0  0  0  0  0  0  0  0  0  0  0  0
   38.9640   23.1360   36.2300 C   0  0  0  0  0  0  0  0  0  0  0  0
   39.3250   22.6890   37.4550 N   0  0  0  0  0  0  0  0  0  0  0  0
   39.4470   22.4600   35.0700 N   0  0  0  0  0  0  0  0  0  0  0  0
   38.5460   21.8670   34.0790 C   0  0  0  0  0  0  0  0  0  0  0  0
   39.3780   21.5850   32.8940 C   0  0  0  0  0  0  0  0  0  0  0  0
   40.7580   22.1300   33.2000 C   0  0  0  0  0  0  0  0  0  0  0  0
   40.7990   22.2330   34.6780 C   0  0  1  0  0  0  0  0  0  0  0  0
   39.1830   22.9360   39.5230 H   0  0  0  0  0  0  0  0  0  0  0  0
   37.6760   24.9400   39.3560 H   0  0  0  0  0  0  0  0  0  0  0  0
   37.0370   25.7310   37.0570 H   0  0  0  0  0  0  0  0  0  0  0  0
   37.7870   22.6420   33.8260 H   0  0  0  0  0  0  0  0  0  0  0  0
   38.0650   20.9480   34.5090 H   0  0  0  0  0  0  0  0  0  0  0  0
   39.0260   22.1380   31.9840 H   0  0  0  0  0  0  0  0  0  0  0  0
   39.4090   20.5010   32.6480 H   0  0  0  0  0  0  0  0  0  0  0  0
   40.9890   23.0500   32.6510 H   0  0  0  0  0  0  0  0  0  0  0  0
   41.4870   21.3620   32.8730 H   0  0  0  0  0  0  0  0  0  0  0  0
   41.0400   21.1850   35.0720 H   0  0  0  0  0  0  0  0  0  0  0  0
   42.7370   22.8280   36.2080 C   0  0  0  0  0  0  0  0  0  0  0  0
   41.8230   23.1120   35.2140 C   0  0  0  0  0  0  0  0  0  0  0  0
   42.0090   24.4160   34.7260 C   0  0  0  0  0  0  0  0  0  0  0  0
   41.3280   24.7490   33.9250 H   0  0  0  0  0  0  0  0  0  0  0  0
   42.9560   25.3260   35.1440 C   0  0  0  0  0  0  0  0  0  0  0  0
   42.9900   26.3010   34.6810 H   0  0  0  0  0  0  0  0  0  0  0  0
   43.8180   24.9310   36.1450 C   0  0  0  0  0  3  0  0  0  0  0  0
   43.7110   23.6780   36.6810 C   0  0  0  0  0  3  0  0  0  0  0  0
   42.5980   20.5160   37.3430 N   0  0  0  0  0  0  0  0  0  0  0  0
   42.6600   21.5420   36.8260 C   0  0  0  0  0  0  0  0  0  0  0  0
  1 12  1  0  0  0  0
  2  1  1  0  0  0  0
  2 13  1  0  0  0  0
  3  2  2  0  0  0  0
  4  5  2  0  0  0  0
  4  3  1  0  0  0  0
  5  6  1  0  0  0  0
  6  1  2  0  0  0  0
  7  5  1  0  0  0  0
  8 16  1  0  0  0  0
  8  7  1  0  0  0  0
  9 10  1  0  0  0  0
  9  8  1  0  0  0  0
 10 11  1  0  0  0  0
 11  7  1  0  0  0  0
 11 21  1  1  0  0  0
 11 23  1  0  0  0  0
 14  3  1  0  0  0  0
 15  8  1  0  0  0  0
 17  9  1  0  0  0  0
 18  9  1  0  0  0  0
 19 10  1  0  0  0  0
 20 10  1  0  0  0  0
 22 29  1  0  0  0  0
 22 31  1  0  0  0  0
 23 22  2  0  0  0  0
 24 26  2  0  0  0  0
 24 23  1  0  0  0  0
 25 24  1  0  0  0  0
 26 28  1  0  0  0  0
 27 26  1  0  0  0  0
 28 29  2  0  0  0  0
 31 30  3  0  0  0  0
M  END
>  <minimizedAffinity>
-4.65474081

$$$$

 OpenBabel03262523203D

 31 33  0  0  1  0  0  0  0  0999 V2000
   37.3880   21.6920   32.9150 C   0  0  0  0  0  0  0  0  0  0  0  0
   36.6110   22.6070   32.1800 C   0  0  0  0  0  0  0  0  0  0  0  0
   37.1460   23.8680   31.9110 C   0  0  0  0  0  0  0  0  0  0  0  0
   38.3870   24.1470   32.3700 N   0  0  0  0  0  0  0  0  0  0  0  0
   39.1140   23.2710   33.0640 C   0  0  0  0  0  0  0  0  0  0  0  0
   38.6190   22.0430   33.3390 N   0  0  0  0  0  0  0  0  0  0  0  0
   40.4190   23.6180   33.5250 N   0  0  0  0  0  0  0  0  0  0  0  0
   41.4910   24.0170   32.6100 C   0  0  0  0  0  0  0  0  0  0  0  0
   42.5400   24.6180   33.4560 C   0  0  0  0  0  0  0  0  0  0  0  0
   41.9910   24.6430   34.8670 C   0  0  0  0  0  0  0  0  0  0  0  0
   40.9080   23.6310   34.8640 C   0  0  1  0  0  0  0  0  0  0  0  0
   37.0210   20.7130   33.1460 H   0  0  0  0  0  0  0  0  0  0  0  0
   35.6100   22.3260   31.8330 H   0  0  0  0  0  0  0  0  0  0  0  0
   36.5770   24.5970   31.3500 H   0  0  0  0  0  0  0  0  0  0  0  0
   41.0660   24.7940   31.9340 H   0  0  0  0  0  0  0  0  0  0  0  0
   41.8480   23.1220   32.0330 H   0  0  0  0  0  0  0  0  0  0  0  0
   42.7440   25.6880   33.1880 H   0  0  0  0  0  0  0  0  0  0  0  0
   43.5000   24.0600   33.3970 H   0  0  0  0  0  0  0  0  0  0  0  0
   41.7040   25.6480   35.2000 H   0  0  0  0  0  0  0  0  0  0  0  0
   42.8050   24.2970   35.5360 H   0  0  0  0  0  0  0  0  0  0  0  0
   41.4150   22.6120   34.9950 H   0  0  0  0  0  0  0  0  0  0  0  0
   39.9100   23.0250   37.1190 C   0  0  0  0  0  0  0  0  0  0  0  0
   39.9440   23.7460   35.9440 C   0  0  0  0  0  0  0  0  0  0  0  0
   38.8940   24.6780   35.9020 C   0  0  0  0  0  0  0  0  0  0  0  0
   38.8260   25.3100   35.0010 H   0  0  0  0  0  0  0  0  0  0  0  0
   37.9370   24.8870   36.8720 C   0  0  0  0  0  0  0  0  0  0  0  0
   37.1800   25.6400   36.7130 H   0  0  0  0  0  0  0  0  0  0  0  0
   38.0040   24.1070   38.0070 C   0  0  0  0  0  3  0  0  0  0  0  0
   38.9920   23.1720   38.1350 C   0  0  0  0  0  3  0  0  0  0  0  0
   41.6930   21.1940   37.4650 N   0  0  0  0  0  0  0  0  0  0  0  0
   40.9030   22.0140   37.3020 C   0  0  0  0  0  0  0  0  0  0  0  0
  1 12  1  0  0  0  0
  1  6  1  0  0  0  0
  2  1  2  0  0  0  0
  3  2  1  0  0  0  0
  3  4  2  0  0  0  0
  4  5  1  0  0  0  0
  5  6  2  0  0  0  0
  5  7  1  0  0  0  0
  7 11  1  0  0  0  0
  8  9  1  0  0  0  0
  8  7  1  0  0  0  0
  9 10  1  0  0  0  0
 10 19  1  0  0  0  0
 10 20  1  0  0  0  0
 11 10  1  0  0  0  0
 11 21  1  1  0  0  0
 11 23  1  0  0  0  0
 13  2  1  0  0  0  0
 14  3  1  0  0  0  0
 15  8  1  0  0  0  0
 16  8  1  0  0  0  0
 17  9  1  0  0  0  0
 18  9  1  0  0  0  0
 22 31  1  0  0  0  0
 22 29  1  0  0  0  0
 23 22  2  0  0  0  0
 24 23  1  0  0  0  0
 24 26  2  0  0  0  0
 25 24  1  0  0  0  0
 26 28  1  0  0  0  0
 27 26  1  0  0  0  0
 28 29  2  0  0  0  0
 31 30  3  0  0  0  0
M  END
>  <minimizedAffinity>
-4.65458441

$$$$
