
 OpenBabel03262522063D

 41 44  0  0  1  0  0  0  0  0999 V2000
   34.4620   29.0540   48.7400 C   0  0  2  0  0  0  0  0  0  0  0  0
   35.0380   28.3770   49.9350 C   0  0  0  0  0  0  0  0  0  0  0  0
   36.1810   29.1500   50.4210 N   0  0  0  0  0  0  0  0  0  0  0  0
   37.1280   29.9050   51.1920 C   0  0  0  0  0  0  0  0  0  0  0  0
   37.3040   30.1680   52.3960 O   0  0  0  0  0  0  0  0  0  0  0  0
   37.9070   30.3230   50.0620 C   0  0  1  0  0  0  0  0  0  0  0  0
   37.0720   29.2940   49.3090 C   0  0  2  0  0  0  0  0  0  0  0  0
   35.9290   29.9610   48.0790 S   0  0  0  0  0  0  0  0  0  0  0  0
   34.2790   28.4210   50.7560 H   0  0  0  0  0  0  0  0  0  0  0  0
   35.2890   27.3110   49.7820 H   0  0  0  0  0  0  0  0  0  0  0  0
   38.9570   29.9450   50.0180 H   0  0  0  0  0  0  0  0  0  0  0  0
   37.6050   28.3770   49.0010 H   0  0  0  0  0  0  0  0  0  0  0  0
   33.2760   29.9260   48.9670 C   0  0  0  0  0  0  0  0  0  0  0  0
   32.4280   29.5720   48.3650 H   0  0  0  0  0  0  0  0  0  0  0  0
   33.4760   30.9840   48.6320 H   0  0  0  0  0  0  0  0  0  0  0  0
   33.0010   29.9900   50.0440 H   0  0  0  0  0  0  0  0  0  0  0  0
   34.1830   27.9790   47.6690 C   0  0  0  0  0  0  0  0  0  0  0  0
   33.1960   27.5480   47.9350 H   0  0  0  0  0  0  0  0  0  0  0  0
   34.9690   27.2160   47.7710 H   0  0  0  0  0  0  0  0  0  0  0  0
   34.1910   28.5910   46.4170 O   0  0  0  0  0  0  0  0  0  0  0  0
   33.6990   29.4400   46.4480 H   0  0  0  0  0  0  0  0  0  0  0  0
   37.7510   31.7260   49.6180 C   0  0  0  0  0  0  0  0  0  0  0  0
   36.8300   32.3500   50.2410 O   0  0  0  0  0  0  0  0  0  0  0  0
   38.5450   32.3390   48.5980 C   0  0  0  0  0  0  0  0  0  0  0  0
   39.1470   33.5440   48.8770 C   0  0  0  0  0  0  0  0  0  0  0  0
   39.9280   34.1450   47.8660 C   0  0  0  0  0  0  0  0  0  0  0  0
   40.0380   33.4910   46.6690 N   0  0  0  0  0  0  0  0  0  0  0  0
   39.4450   32.3260   46.4290 C   0  0  0  0  0  0  0  0  0  0  0  0
   38.6940   31.7430   47.3920 N   0  0  0  0  0  0  0  0  0  0  0  0
   39.0650   34.0690   49.8220 H   0  0  0  0  0  0  0  0  0  0  0  0
   40.4190   35.0960   48.0470 H   0  0  0  0  0  0  0  0  0  0  0  0
   39.8640   32.4090   44.0150 C   0  0  0  0  0  0  0  0  0  0  0  0
   39.5720   31.6410   45.1470 C   0  0  0  0  0  0  0  0  0  0  0  0
   39.4110   30.2690   45.0290 C   0  0  0  0  0  0  0  0  0  0  0  0
   39.1850   29.6820   45.9060 H   0  0  0  0  0  0  0  0  0  0  0  0
   39.5410   29.6550   43.7830 C   0  0  0  0  0  0  0  0  0  0  0  0
   39.4220   28.5800   43.6520 H   0  0  0  0  0  0  0  0  0  0  0  0
   39.8300   30.4510   42.6920 C   0  0  0  0  0  0  0  0  0  0  0  0
   40.0010   31.8290   42.7530 C   0  0  0  0  0  0  0  0  0  0  0  0
   40.1900   34.9840   44.1330 N   0  0  0  0  0  0  0  0  0  0  0  0
   40.0420   33.8390   44.0750 C   0  0  0  0  0  0  0  0  0  0  0  0
  1 17  1  6  0  0  0
  1 13  1  0  0  0  0
  1  2  1  0  0  0  0
  2  3  1  0  0  0  0
  2  9  1  0  0  0  0
  3  4  1  0  0  0  0
  4  5  2  0  0  0  0
  6 11  1  1  0  0  0
  6  4  1  0  0  0  0
  7 12  1  6  0  0  0
  7  6  1  0  0  0  0
  7  3  1  0  0  0  0
  8  1  1  0  0  0  0
  8  7  1  0  0  0  0
 10  2  1  0  0  0  0
 13 16  1  0  0  0  0
 14 13  1  0  0  0  0
 15 13  1  0  0  0  0
 17 19  1  0  0  0  0
 17 18  1  0  0  0  0
 20 21  1  0  0  0  0
 20 17  1  0  0  0  0
 22  6  1  0  0  0  0
 22 23  2  0  0  0  0
 24 25  1  0  0  0  0
 24 22  1  0  0  0  0
 25 30  1  0  0  0  0
 26 31  1  0  0  0  0
 26 25  2  0  0  0  0
 27 26  1  0  0  0  0
 28 27  2  0  0  0  0
 28 29  1  0  0  0  0
 29 24  2  0  0  0  0
 32 41  1  0  0  0  0
 32 33  1  0  0  0  0
 33 28  1  0  0  0  0
 34 33  2  0  0  0  0
 34 35  1  0  0  0  0
 36 34  1  0  0  0  0
 37 36  1  0  0  0  0
 38 39  1  0  0  0  0
 38 36  2  0  0  0  0
 39 32  2  0  0  0  0
 41 40  3  0  0  0  0
M  END
>  <minimizedAffinity>
-5.12254047

>  <minimizedRMSD>
0.642166257

$$$$
