
 OpenBabel03272503563D

 35 38  0  0  0  0  0  0  0  0999 V2000
   37.3070   29.9410   50.4760 C   0  0  0  0  0  0  0  0  0  0  0  0
   38.2560   30.5760   49.6770 C   0  0  0  0  0  0  0  0  0  0  0  0
   37.9410   30.7100   48.3470 C   0  0  0  0  0  0  0  0  0  0  0  0
   36.7660   30.2310   47.9300 N   0  0  0  0  0  0  0  0  0  0  0  0
   35.8450   29.6270   48.6580 C   0  0  0  0  0  0  0  0  0  0  0  0
   36.1840   29.5130   49.9350 N   0  0  0  0  0  0  0  0  0  0  0  0
   39.1510   30.9540   50.0690 H   0  0  0  0  0  0  0  0  0  0  0  0
   34.5340   29.0720   48.3510 C   0  0  0  0  0  0  0  0  0  0  0  0
   33.7890   28.4060   49.2710 N   0  0  0  0  0  0  0  0  0  0  0  0
   32.5850   27.9200   48.9720 C   0  0  0  0  0  0  0  0  0  0  0  0
   31.9980   28.0310   47.7750 N   0  0  0  0  0  0  0  0  0  0  0  0
   32.6810   28.6820   46.8100 C   0  0  0  0  0  0  0  0  0  0  0  0
   32.0840   28.7980   45.5850 C   0  0  0  0  0  0  0  0  0  0  0  0
   32.7390   29.4540   44.5650 C   0  0  0  0  0  0  0  0  0  0  0  0
   33.9960   29.9690   44.8540 C   0  0  0  0  0  0  0  0  0  0  0  0
   34.5470   29.8220   46.1020 C   0  0  0  0  0  0  0  0  0  0  0  0
   33.9170   29.1760   47.1320 C   0  0  0  0  0  0  0  0  0  0  0  0
   31.9850   27.3780   49.7310 H   0  0  0  0  0  0  0  0  0  0  0  0
   31.0920   28.3760   45.4110 H   0  0  0  0  0  0  0  0  0  0  0  0
   32.2490   29.5310   43.6190 H   0  0  0  0  0  0  0  0  0  0  0  0
   34.4690   30.4760   44.0140 H   0  0  0  0  0  0  0  0  0  0  0  0
   35.5250   30.2690   46.1680 H   0  0  0  0  0  0  0  0  0  0  0  0
   39.2760   32.5940   47.3160 C   0  0  0  0  0  0  0  0  0  0  0  0
   38.7150   31.3540   47.3200 C   0  0  0  0  0  0  0  0  0  0  0  0
   39.0040   30.6690   46.1420 C   0  0  0  0  0  0  0  0  0  0  0  0
   38.6290   29.6620   45.9910 H   0  0  0  0  0  0  0  0  0  0  0  0
   39.7520   31.1600   45.1000 C   0  0  0  0  0  0  0  0  0  0  0  0
   39.9360   30.5720   44.2130 H   0  0  0  0  0  0  0  0  0  0  0  0
   40.2820   32.4160   45.1660 C   0  0  0  0  0  0  0  0  0  0  0  0
   40.0330   33.1440   46.3060 C   0  0  0  0  0  0  0  0  0  0  0  0
   39.0640   34.1140   49.4130 N   0  0  0  0  0  0  0  0  0  0  0  0
   39.1480   33.4280   48.4690 C   0  0  0  0  0  0  0  0  0  0  0  0
   37.5300   29.7410   51.8940 N   0  0  0  0  0  0  0  0  0  0  0  0
   38.5240   29.6950   52.1900 H   0  0  0  0  0  0  0  0  0  0  0  0
   36.7190   29.6570   52.5070 H   0  0  0  0  0  0  0  0  0  0  0  0
  1 33  1  0  0  0  0
  2  7  1  0  0  0  0
  2  1  2  0  0  0  0
  3  2  1  0  0  0  0
  4  3  2  0  0  0  0
  4  5  1  0  0  0  0
  5  6  2  0  0  0  0
  6  1  1  0  0  0  0
  8  5  1  0  0  0  0
  8  9  1  0  0  0  0
 10  9  2  0  0  0  0
 10 18  1  0  0  0  0
 11 10  1  0  0  0  0
 12 17  1  0  0  0  0
 12 11  2  0  0  0  0
 13 12  1  0  0  0  0
 14 15  1  0  0  0  0
 14 13  2  0  0  0  0
 15 16  2  0  0  0  0
 16 22  1  0  0  0  0
 16 17  1  0  0  0  0
 17  8  2  0  0  0  0
 19 13  1  0  0  0  0
 20 14  1  0  0  0  0
 21 15  1  0  0  0  0
 23 24  1  0  0  0  0
 23 32  1  0  0  0  0
 24  3  1  0  0  0  0
 25 24  2  0  0  0  0
 26 25  1  0  0  0  0
 27 29  2  0  0  0  0
 27 25  1  0  0  0  0
 28 27  1  0  0  0  0
 29 30  1  0  0  0  0
 30 23  2  0  0  0  0
 32 31  3  0  0  0  0
 33 34  1  0  0  0  0
 33 35  1  0  0  0  0
M  END
>  <minimizedAffinity>
-7.1607914

>  <minimizedRMSD>
1.50592244

$$$$
