
 OpenBabel03272502183D

 34 36  0  0  1  0  0  0  0  0999 V2000
   36.8710   30.3890   49.1200 C   0  0  0  0  0  0  0  0  0  0  0  0
   36.8130   31.5010   49.9960 C   0  0  0  0  0  0  0  0  0  0  0  0
   37.5340   32.6490   49.6640 C   0  0  0  0  0  0  0  0  0  0  0  0
   38.2680   32.6300   48.4880 N   0  0  0  0  0  0  0  0  0  0  0  0
   38.2880   31.5540   47.6960 C   0  0  0  0  0  0  0  0  0  0  0  0
   37.6020   30.4580   48.0110 N   0  0  0  0  0  0  0  0  0  0  0  0
   36.2540   31.5570   50.9220 H   0  0  0  0  0  0  0  0  0  0  0  0
   37.5120   33.5170   50.3100 H   0  0  0  0  0  0  0  0  0  0  0  0
   39.9510   32.5750   46.1860 C   0  0  0  0  0  0  0  0  0  0  0  0
   39.0640   31.5410   46.4580 C   0  0  0  0  0  0  0  0  0  0  0  0
   38.9050   30.4970   45.5690 C   0  0  0  0  0  0  0  0  0  0  0  0
   38.2080   29.6750   45.7720 H   0  0  0  0  0  0  0  0  0  0  0  0
   39.6330   30.4790   44.4010 C   0  0  0  0  0  0  0  0  0  0  0  0
   39.5290   29.6620   43.6740 H   0  0  0  0  0  0  0  0  0  0  0  0
   40.5370   31.4940   44.0820 C   0  0  0  0  0  3  0  0  0  0  0  0
   40.6770   32.5330   44.9940 C   0  0  0  0  0  3  0  0  0  0  0  0
   40.3030   34.5600   47.8360 N   0  0  0  0  0  0  0  0  0  0  0  0
   40.1390   33.6810   47.0960 C   0  0  0  0  0  0  0  0  0  0  0  0
   35.9010   29.0280   49.6990 S   0  0  0  0  0  0  0  0  0  0  0  0
   33.5430   27.9140   48.9970 N   0  0  0  0  0  0  0  0  0  0  0  0
   34.1450   29.2130   49.1990 C   0  0  2  0  0  0  0  0  0  0  0  0
   34.0800   29.9840   47.9080 C   0  0  0  0  0  0  0  0  0  0  0  0
   33.1340   29.4070   47.0280 O   0  0  0  0  0  0  0  0  0  0  0  0
   33.6950   28.1860   46.6430 C   0  0  0  0  0  0  0  0  0  0  0  0
   34.1100   27.3370   47.8090 C   0  0  2  0  0  0  0  0  0  0  0  0
   32.5230   28.0110   49.0050 H   0  0  0  0  0  0  0  0  0  0  0  0
   33.6180   29.8180   49.9680 H   0  0  0  0  0  0  0  0  0  0  0  0
   35.0840   30.0490   47.4360 H   0  0  0  0  0  0  0  0  0  0  0  0
   33.7440   31.0370   48.0710 H   0  0  0  0  0  0  0  0  0  0  0  0
   33.0520   27.6200   45.9450 H   0  0  0  0  0  0  0  0  0  0  0  0
   34.6200   28.4580   46.0780 H   0  0  0  0  0  0  0  0  0  0  0  0
   35.1930   27.2670   47.9360 H   0  0  0  0  0  0  0  0  0  0  0  0
   33.6030   26.0270   47.6600 O   0  0  0  0  0  0  0  0  0  0  0  0
   32.6190   26.0860   47.5640 H   0  0  0  0  0  0  0  0  0  0  0  0
  1 19  1  0  0  0  0
  1  2  1  0  0  0  0
  2  7  1  0  0  0  0
  3  2  2  0  0  0  0
  3  8  1  0  0  0  0
  4  3  1  0  0  0  0
  5  6  1  0  0  0  0
  5  4  2  0  0  0  0
  6  1  2  0  0  0  0
  9 10  1  0  0  0  0
  9 18  1  0  0  0  0
 10  5  1  0  0  0  0
 11 12  1  0  0  0  0
 11 10  2  0  0  0  0
 13 11  1  0  0  0  0
 14 13  1  0  0  0  0
 15 13  2  0  0  0  0
 15 16  1  0  0  0  0
 16  9  2  0  0  0  0
 18 17  3  0  0  0  0
 20 26  1  0  0  0  0
 20 21  1  0  0  0  0
 21 19  1  0  0  0  0
 21 27  1  1  0  0  0
 22 29  1  0  0  0  0
 22 21  1  0  0  0  0
 23 22  1  0  0  0  0
 24 23  1  0  0  0  0
 24 25  1  0  0  0  0
 25 32  1  1  0  0  0
 25 20  1  0  0  0  0
 28 22  1  0  0  0  0
 30 24  1  0  0  0  0
 31 24  1  0  0  0  0
 33 25  1  0  0  0  0
 34 33  1  0  0  0  0
M  END
>  <minimizedAffinity>
-5.75425291

>  <minimizedRMSD>
0.708176136

$$$$
