
 OpenBabel03272508573D

 41 44  0  0  1  0  0  0  0  0999 V2000
   39.1170   31.5070   43.2900 C   0  0  0  0  0  0  0  0  0  0  0  0
   40.1170   30.5760   43.4400 C   0  0  0  0  0  0  0  0  0  0  0  0
   40.8370   30.2310   42.3050 C   0  0  0  0  0  0  0  0  0  0  0  0
   40.5150   30.8250   41.1170 C   0  0  0  0  0  0  0  0  0  0  0  0
   39.5110   31.7560   40.9700 C   0  0  0  0  0  0  0  0  0  0  0  0
   38.8270   32.0740   42.0960 N   0  0  0  0  0  0  0  0  0  0  0  0
   40.3770   30.0980   44.3860 H   0  0  0  0  0  0  0  0  0  0  0  0
   41.6240   29.4990   42.4210 H   0  0  0  0  0  0  0  0  0  0  0  0
   41.1290   30.4970   40.2980 H   0  0  0  0  0  0  0  0  0  0  0  0
   38.3400   31.9110   44.4910 C   0  0  0  0  0  0  0  0  0  0  0  0
   37.2410   32.4640   44.3960 O   0  0  0  0  0  0  0  0  0  0  0  0
   38.9320   31.6230   45.7870 N   0  0  0  0  0  0  0  0  0  0  0  0
   39.9210   31.3490   45.9300 H   0  0  0  0  0  0  0  0  0  0  0  0
   38.4330   31.0970   48.1680 C   0  0  2  0  0  0  0  0  0  0  0  0
   38.7020   32.5560   48.0970 C   0  0  0  0  0  0  0  0  0  0  0  0
   38.0690   31.7340   46.9440 C   0  0  1  0  0  0  0  0  0  0  0  0
   39.3620   30.4810   48.2390 H   0  0  0  0  0  0  0  0  0  0  0  0
   38.0290   33.2720   48.6170 H   0  0  0  0  0  0  0  0  0  0  0  0
   39.7240   32.9120   47.9660 H   0  0  0  0  0  0  0  0  0  0  0  0
   36.9910   31.9930   46.7580 H   0  0  0  0  0  0  0  0  0  0  0  0
   35.0790   30.2340   49.4930 C   0  0  0  0  0  0  0  0  0  0  0  0
   35.4120   29.5510   50.6980 C   0  0  0  0  0  0  0  0  0  0  0  0
   36.7920   29.4090   51.0430 C   0  0  0  0  0  0  0  0  0  0  0  0
   37.7530   29.9290   50.2100 N   0  0  0  0  0  0  0  0  0  0  0  0
   37.3580   30.5660   49.0770 C   0  0  0  0  0  0  0  0  0  0  0  0
   36.0350   30.7390   48.6850 N   0  0  0  0  0  0  0  0  0  0  0  0
   34.0260   30.3090   49.2860 H   0  0  0  0  0  0  0  0  0  0  0  0
   34.6880   29.1420   51.3550 H   0  0  0  0  0  0  0  0  0  0  0  0
   37.0540   28.8930   51.9560 H   0  0  0  0  0  0  0  0  0  0  0  0
   39.1450   32.3640   39.6860 C   0  0  0  0  0  0  0  0  0  0  0  0
   38.8760   33.6140   39.6690 O   0  0  0  0  0  0  0  0  0  0  0  0
   37.7710   31.2520   38.0340 C   0  0  0  0  0  0  0  0  0  0  0  0
   38.9990   31.8600   38.3350 C   0  0  0  0  0  0  0  0  0  0  0  0
   39.8630   31.8670   37.2740 C   0  0  0  0  0  0  0  0  0  0  0  0
   40.8220   32.3270   37.4470 H   0  0  0  0  0  0  0  0  0  0  0  0
   39.6210   31.3540   36.0230 C   0  0  0  0  0  0  0  0  0  0  0  0
   40.3940   31.4250   35.2710 H   0  0  0  0  0  0  0  0  0  0  0  0
   38.3980   30.7820   35.8220 C   0  0  0  0  0  3  0  0  0  0  0  0
   37.4260   30.7010   36.7940 C   0  0  0  0  0  3  0  0  0  0  0  0
   35.9170   31.1090   39.8900 N   0  0  0  0  0  0  0  0  0  0  0  0
   36.7400   31.1650   39.0580 C   0  0  0  0  0  0  0  0  0  0  0  0
  1  2  1  0  0  0  0
  1 10  1  0  0  0  0
  2  7  1  0  0  0  0
  3  8  1  0  0  0  0
  3  2  2  0  0  0  0
  4  3  1  0  0  0  0
  5  4  2  0  0  0  0
  5  6  1  0  0  0  0
  6  1  2  0  0  0  0
  9  4  1  0  0  0  0
 10 12  1  0  0  0  0
 11 10  2  0  0  0  0
 12 13  1  0  0  0  0
 12 16  1  0  0  0  0
 14 17  1  6  0  0  0
 14 25  1  0  0  0  0
 15 14  1  0  0  0  0
 15 18  1  0  0  0  0
 16 20  1  6  0  0  0
 16 15  1  0  0  0  0
 16 14  1  0  0  0  0
 19 15  1  0  0  0  0
 21 22  1  0  0  0  0
 22 23  2  0  0  0  0
 22 28  1  0  0  0  0
 23 29  1  0  0  0  0
 24 23  1  0  0  0  0
 25 24  2  0  0  0  0
 26 25  1  0  0  0  0
 26 21  2  0  0  0  0
 27 21  1  0  0  0  0
 30  5  1  0  0  0  0
 31 30  2  0  0  0  0
 32 33  1  0  0  0  0
 32 41  1  0  0  0  0
 33 30  1  0  0  0  0
 34 35  1  0  0  0  0
 34 33  2  0  0  0  0
 36 34  1  0  0  0  0
 37 36  1  0  0  0  0
 38 36  2  0  0  0  0
 38 39  1  0  0  0  0
 39 32  2  0  0  0  0
 41 40  3  0  0  0  0
M  END
>  <minimizedAffinity>
-4.72738028

>  <minimizedRMSD>
0.754976988

$$$$
