
 OpenBabel03272508573D

 41 44  0  0  1  0  0  0  0  0999 V2000
   39.0610   31.5280   43.1710 C   0  0  0  0  0  0  0  0  0  0  0  0
   40.1390   30.6860   43.3100 C   0  0  0  0  0  0  0  0  0  0  0  0
   40.8230   30.3380   42.1530 C   0  0  0  0  0  0  0  0  0  0  0  0
   40.3920   30.8420   40.9580 C   0  0  0  0  0  0  0  0  0  0  0  0
   39.3100   31.6840   40.8240 C   0  0  0  0  0  0  0  0  0  0  0  0
   38.6640   32.0070   41.9700 N   0  0  0  0  0  0  0  0  0  0  0  0
   40.4860   30.2800   44.2610 H   0  0  0  0  0  0  0  0  0  0  0  0
   41.6710   29.6770   42.2600 H   0  0  0  0  0  0  0  0  0  0  0  0
   40.9860   30.5200   40.1230 H   0  0  0  0  0  0  0  0  0  0  0  0
   38.3180   31.9320   44.3940 C   0  0  0  0  0  0  0  0  0  0  0  0
   37.2340   32.5190   44.3300 O   0  0  0  0  0  0  0  0  0  0  0  0
   38.9260   31.6050   45.6730 N   0  0  0  0  0  0  0  0  0  0  0  0
   39.9090   31.2990   45.7930 H   0  0  0  0  0  0  0  0  0  0  0  0
   38.4570   31.0550   48.0550 C   0  0  2  0  0  0  0  0  0  0  0  0
   38.7650   32.5070   48.0010 C   0  0  0  0  0  0  0  0  0  0  0  0
   38.0880   31.7210   46.8490 C   0  0  1  0  0  0  0  0  0  0  0  0
   39.3700   30.4120   48.0990 H   0  0  0  0  0  0  0  0  0  0  0  0
   38.1220   33.2320   48.5460 H   0  0  0  0  0  0  0  0  0  0  0  0
   39.7940   32.8370   47.8570 H   0  0  0  0  0  0  0  0  0  0  0  0
   37.0150   32.0120   46.6880 H   0  0  0  0  0  0  0  0  0  0  0  0
   35.1090   30.2070   49.4020 C   0  0  0  0  0  0  0  0  0  0  0  0
   35.4460   29.5490   50.6200 C   0  0  0  0  0  0  0  0  0  0  0  0
   36.8270   29.4200   50.9670 C   0  0  0  0  0  0  0  0  0  0  0  0
   37.7850   29.9260   50.1220 N   0  0  0  0  0  0  0  0  0  0  0  0
   37.3860   30.5390   48.9770 C   0  0  0  0  0  0  0  0  0  0  0  0
   36.0620   30.6990   48.5820 N   0  0  0  0  0  0  0  0  0  0  0  0
   34.0550   30.2740   49.1950 H   0  0  0  0  0  0  0  0  0  0  0  0
   34.7240   29.1510   51.2870 H   0  0  0  0  0  0  0  0  0  0  0  0
   37.0910   28.9230   51.8900 H   0  0  0  0  0  0  0  0  0  0  0  0
   38.8290   32.1930   39.5350 C   0  0  0  0  0  0  0  0  0  0  0  0
   39.4170   33.2120   39.0350 O   0  0  0  0  0  0  0  0  0  0  0  0
   36.5420   32.4540   38.7880 C   0  0  0  0  0  0  0  0  0  0  0  0
   37.7720   31.7990   38.6250 C   0  0  0  0  0  0  0  0  0  0  0  0
   37.7550   30.8820   37.6090 C   0  0  0  0  0  0  0  0  0  0  0  0
   38.6760   30.3540   37.4330 H   0  0  0  0  0  0  0  0  0  0  0  0
   36.6860   30.5840   36.7990 C   0  0  0  0  0  0  0  0  0  0  0  0
   36.8080   29.8340   36.0290 H   0  0  0  0  0  0  0  0  0  0  0  0
   35.5300   31.2710   37.0320 C   0  0  0  0  0  3  0  0  0  0  0  0
   35.3960   32.2230   38.0180 C   0  0  0  0  0  3  0  0  0  0  0  0
   36.2950   34.2760   40.6650 N   0  0  0  0  0  0  0  0  0  0  0  0
   36.3960   33.4620   39.8290 C   0  0  0  0  0  0  0  0  0  0  0  0
  1  2  1  0  0  0  0
  1 10  1  0  0  0  0
  2  7  1  0  0  0  0
  3  8  1  0  0  0  0
  3  2  2  0  0  0  0
  4  3  1  0  0  0  0
  5  4  2  0  0  0  0
  5  6  1  0  0  0  0
  6  1  2  0  0  0  0
  9  4  1  0  0  0  0
 10 12  1  0  0  0  0
 11 10  2  0  0  0  0
 12 13  1  0  0  0  0
 12 16  1  0  0  0  0
 14 17  1  6  0  0  0
 14 25  1  0  0  0  0
 15 14  1  0  0  0  0
 15 18  1  0  0  0  0
 16 20  1  6  0  0  0
 16 15  1  0  0  0  0
 16 14  1  0  0  0  0
 19 15  1  0  0  0  0
 21 22  1  0  0  0  0
 22 23  2  0  0  0  0
 22 28  1  0  0  0  0
 23 29  1  0  0  0  0
 24 23  1  0  0  0  0
 25 24  2  0  0  0  0
 26 25  1  0  0  0  0
 26 21  2  0  0  0  0
 27 21  1  0  0  0  0
 30  5  1  0  0  0  0
 31 30  2  0  0  0  0
 32 41  1  0  0  0  0
 33 32  1  0  0  0  0
 33 30  1  0  0  0  0
 34 33  2  0  0  0  0
 35 34  1  0  0  0  0
 36 38  2  0  0  0  0
 36 34  1  0  0  0  0
 37 36  1  0  0  0  0
 38 39  1  0  0  0  0
 39 32  2  0  0  0  0
 41 40  3  0  0  0  0
M  END
>  <minimizedAffinity>
-4.78010654

>  <minimizedRMSD>
2.01457334

$$$$
