
 OpenBabel03272508573D

 41 44  0  0  1  0  0  0  0  0999 V2000
   39.1570   31.3500   43.3550 C   0  0  0  0  0  0  0  0  0  0  0  0
   40.2130   30.4950   43.5610 C   0  0  0  0  0  0  0  0  0  0  0  0
   40.9410   30.1080   42.4440 C   0  0  0  0  0  0  0  0  0  0  0  0
   40.5720   30.5900   41.2200 C   0  0  0  0  0  0  0  0  0  0  0  0
   39.5130   31.4450   41.0180 C   0  0  0  0  0  0  0  0  0  0  0  0
   38.8220   31.8060   42.1260 N   0  0  0  0  0  0  0  0  0  0  0  0
   40.5100   30.1060   44.5360 H   0  0  0  0  0  0  0  0  0  0  0  0
   41.7720   29.4350   42.6040 H   0  0  0  0  0  0  0  0  0  0  0  0
   41.1970   30.2380   40.4190 H   0  0  0  0  0  0  0  0  0  0  0  0
   38.3680   31.7970   44.5330 C   0  0  0  0  0  0  0  0  0  0  0  0
   37.3540   32.4900   44.4100 O   0  0  0  0  0  0  0  0  0  0  0  0
   38.8430   31.3790   45.8410 N   0  0  0  0  0  0  0  0  0  0  0  0
   39.7810   30.9740   46.0210 H   0  0  0  0  0  0  0  0  0  0  0  0
   38.2080   30.9060   48.2010 C   0  0  2  0  0  0  0  0  0  0  0  0
   38.5590   32.3480   48.1310 C   0  0  0  0  0  0  0  0  0  0  0  0
   37.9350   31.5490   46.9570 C   0  0  1  0  0  0  0  0  0  0  0  0
   39.0980   30.2410   48.3200 H   0  0  0  0  0  0  0  0  0  0  0  0
   37.9030   33.1040   48.6140 H   0  0  0  0  0  0  0  0  0  0  0  0
   39.6040   32.6460   48.0450 H   0  0  0  0  0  0  0  0  0  0  0  0
   36.8840   31.8640   46.7190 H   0  0  0  0  0  0  0  0  0  0  0  0
   34.7630   30.1150   49.3190 C   0  0  0  0  0  0  0  0  0  0  0  0
   34.9990   29.5500   50.6050 C   0  0  0  0  0  0  0  0  0  0  0  0
   36.3470   29.4610   51.0750 C   0  0  0  0  0  0  0  0  0  0  0  0
   37.3700   29.9180   50.2790 N   0  0  0  0  0  0  0  0  0  0  0  0
   37.0660   30.4440   49.0640 C   0  0  0  0  0  0  0  0  0  0  0  0
   35.7790   30.5600   48.5500 N   0  0  0  0  0  0  0  0  0  0  0  0
   33.7300   30.1550   49.0210 H   0  0  0  0  0  0  0  0  0  0  0  0
   34.2260   29.1910   51.2360 H   0  0  0  0  0  0  0  0  0  0  0  0
   36.5350   29.0340   52.0500 H   0  0  0  0  0  0  0  0  0  0  0  0
   39.0980   31.9310   39.6970 C   0  0  0  0  0  0  0  0  0  0  0  0
   39.1270   33.1910   39.4850 O   0  0  0  0  0  0  0  0  0  0  0  0
   39.6030   30.9840   37.5280 C   0  0  0  0  0  0  0  0  0  0  0  0
   38.6260   31.2870   38.4870 C   0  0  0  0  0  0  0  0  0  0  0  0
   37.3660   30.9120   38.1010 C   0  0  0  0  0  0  0  0  0  0  0  0
   36.5760   31.1150   38.8030 H   0  0  0  0  0  0  0  0  0  0  0  0
   37.0250   30.3010   36.9200 C   0  0  0  0  0  0  0  0  0  0  0  0
   35.9880   30.0570   36.7390 H   0  0  0  0  0  0  0  0  0  0  0  0
   38.0430   30.0460   36.0460 C   0  0  0  0  0  3  0  0  0  0  0  0
   39.3580   30.3650   36.2960 C   0  0  0  0  0  3  0  0  0  0  0  0
   42.1120   31.5860   38.0140 N   0  0  0  0  0  0  0  0  0  0  0  0
   40.9950   31.3190   37.7880 C   0  0  0  0  0  0  0  0  0  0  0  0
  1  2  1  0  0  0  0
  1 10  1  0  0  0  0
  2  7  1  0  0  0  0
  3  8  1  0  0  0  0
  3  2  2  0  0  0  0
  4  3  1  0  0  0  0
  5  4  2  0  0  0  0
  5  6  1  0  0  0  0
  6  1  2  0  0  0  0
  9  4  1  0  0  0  0
 10 12  1  0  0  0  0
 11 10  2  0  0  0  0
 12 13  1  0  0  0  0
 12 16  1  0  0  0  0
 14 17  1  6  0  0  0
 14 25  1  0  0  0  0
 15 14  1  0  0  0  0
 15 18  1  0  0  0  0
 16 20  1  6  0  0  0
 16 15  1  0  0  0  0
 16 14  1  0  0  0  0
 19 15  1  0  0  0  0
 21 22  1  0  0  0  0
 22 23  2  0  0  0  0
 22 28  1  0  0  0  0
 23 29  1  0  0  0  0
 24 23  1  0  0  0  0
 25 24  2  0  0  0  0
 26 25  1  0  0  0  0
 26 21  2  0  0  0  0
 27 21  1  0  0  0  0
 30  5  1  0  0  0  0
 31 30  2  0  0  0  0
 32 41  1  0  0  0  0
 32 33  1  0  0  0  0
 33 30  1  0  0  0  0
 34 33  2  0  0  0  0
 34 35  1  0  0  0  0
 36 34  1  0  0  0  0
 37 36  1  0  0  0  0
 38 39  1  0  0  0  0
 38 36  2  0  0  0  0
 39 32  2  0  0  0  0
 41 40  3  0  0  0  0
M  END
>  <minimizedAffinity>
-4.75265741

>  <minimizedRMSD>
0.774915695

$$$$
