
 OpenBabel03272508573D

 41 44  0  0  1  0  0  0  0  0999 V2000
   39.1180   31.5060   43.2900 C   0  0  0  0  0  0  0  0  0  0  0  0
   40.1180   30.5750   43.4410 C   0  0  0  0  0  0  0  0  0  0  0  0
   40.8370   30.2300   42.3050 C   0  0  0  0  0  0  0  0  0  0  0  0
   40.5150   30.8240   41.1170 C   0  0  0  0  0  0  0  0  0  0  0  0
   39.5120   31.7550   40.9700 C   0  0  0  0  0  0  0  0  0  0  0  0
   38.8290   32.0730   42.0970 N   0  0  0  0  0  0  0  0  0  0  0  0
   40.3780   30.0960   44.3860 H   0  0  0  0  0  0  0  0  0  0  0  0
   41.6240   29.4970   42.4210 H   0  0  0  0  0  0  0  0  0  0  0  0
   41.1290   30.4960   40.2980 H   0  0  0  0  0  0  0  0  0  0  0  0
   38.3410   31.9100   44.4910 C   0  0  0  0  0  0  0  0  0  0  0  0
   37.2440   32.4670   44.3970 O   0  0  0  0  0  0  0  0  0  0  0  0
   38.9310   31.6190   45.7870 N   0  0  0  0  0  0  0  0  0  0  0  0
   39.9200   31.3410   45.9310 H   0  0  0  0  0  0  0  0  0  0  0  0
   38.4320   31.0950   48.1690 C   0  0  2  0  0  0  0  0  0  0  0  0
   38.7000   32.5550   48.0960 C   0  0  0  0  0  0  0  0  0  0  0  0
   38.0680   31.7300   46.9440 C   0  0  1  0  0  0  0  0  0  0  0  0
   39.3610   30.4800   48.2410 H   0  0  0  0  0  0  0  0  0  0  0  0
   38.0260   33.2700   48.6150 H   0  0  0  0  0  0  0  0  0  0  0  0
   39.7220   32.9110   47.9650 H   0  0  0  0  0  0  0  0  0  0  0  0
   36.9900   31.9880   46.7570 H   0  0  0  0  0  0  0  0  0  0  0  0
   35.0790   30.2320   49.4940 C   0  0  0  0  0  0  0  0  0  0  0  0
   35.4120   29.5490   50.6990 C   0  0  0  0  0  0  0  0  0  0  0  0
   36.7920   29.4080   51.0450 C   0  0  0  0  0  0  0  0  0  0  0  0
   37.7530   29.9280   50.2120 N   0  0  0  0  0  0  0  0  0  0  0  0
   37.3580   30.5640   49.0780 C   0  0  0  0  0  0  0  0  0  0  0  0
   36.0350   30.7370   48.6860 N   0  0  0  0  0  0  0  0  0  0  0  0
   34.0250   30.3060   49.2870 H   0  0  0  0  0  0  0  0  0  0  0  0
   34.6880   29.1400   51.3570 H   0  0  0  0  0  0  0  0  0  0  0  0
   37.0530   28.8920   51.9580 H   0  0  0  0  0  0  0  0  0  0  0  0
   39.1460   32.3640   39.6860 C   0  0  0  0  0  0  0  0  0  0  0  0
   38.8760   33.6130   39.6700 O   0  0  0  0  0  0  0  0  0  0  0  0
   37.7720   31.2520   38.0340 C   0  0  0  0  0  0  0  0  0  0  0  0
   39.0000   31.8590   38.3360 C   0  0  0  0  0  0  0  0  0  0  0  0
   39.8650   31.8660   37.2740 C   0  0  0  0  0  0  0  0  0  0  0  0
   40.8230   32.3260   37.4480 H   0  0  0  0  0  0  0  0  0  0  0  0
   39.6240   31.3540   36.0240 C   0  0  0  0  0  0  0  0  0  0  0  0
   40.3960   31.4260   35.2720 H   0  0  0  0  0  0  0  0  0  0  0  0
   38.4000   30.7820   35.8220 C   0  0  0  0  0  3  0  0  0  0  0  0
   37.4280   30.7020   36.7930 C   0  0  0  0  0  3  0  0  0  0  0  0
   35.9180   31.1090   39.8880 N   0  0  0  0  0  0  0  0  0  0  0  0
   36.7410   31.1650   39.0580 C   0  0  0  0  0  0  0  0  0  0  0  0
  1  2  1  0  0  0  0
  1 10  1  0  0  0  0
  2  7  1  0  0  0  0
  3  8  1  0  0  0  0
  3  2  2  0  0  0  0
  4  3  1  0  0  0  0
  5  4  2  0  0  0  0
  5  6  1  0  0  0  0
  6  1  2  0  0  0  0
  9  4  1  0  0  0  0
 10 12  1  0  0  0  0
 11 10  2  0  0  0  0
 12 13  1  0  0  0  0
 12 16  1  0  0  0  0
 14 17  1  6  0  0  0
 14 25  1  0  0  0  0
 15 14  1  0  0  0  0
 15 18  1  0  0  0  0
 16 20  1  6  0  0  0
 16 15  1  0  0  0  0
 16 14  1  0  0  0  0
 19 15  1  0  0  0  0
 21 22  1  0  0  0  0
 22 23  2  0  0  0  0
 22 28  1  0  0  0  0
 23 29  1  0  0  0  0
 24 23  1  0  0  0  0
 25 24  2  0  0  0  0
 26 25  1  0  0  0  0
 26 21  2  0  0  0  0
 27 21  1  0  0  0  0
 30  5  1  0  0  0  0
 31 30  2  0  0  0  0
 32 33  1  0  0  0  0
 32 41  1  0  0  0  0
 33 30  1  0  0  0  0
 34 35  1  0  0  0  0
 34 33  2  0  0  0  0
 36 34  1  0  0  0  0
 37 36  1  0  0  0  0
 38 36  2  0  0  0  0
 38 39  1  0  0  0  0
 39 32  2  0  0  0  0
 41 40  3  0  0  0  0
M  END
>  <minimizedAffinity>
-4.72703838

>  <minimizedRMSD>
0.0812217742

$$$$
