
 OpenBabel03262523553D

 39 41  0  0  1  0  0  0  0  0999 V2000
   36.7970   32.4370   40.2280 C   0  0  1  0  0  0  0  0  0  0  0  0
   37.9710   32.7080   41.0440 C   0  0  0  0  0  0  0  0  0  0  0  0
   39.1590   32.0560   40.4060 C   0  0  0  0  0  0  0  0  0  0  0  0
   38.8300   30.6870   39.9330 C   0  0  0  0  0  0  0  0  0  0  0  0
   37.6110   30.0810   40.4880 C   0  0  0  0  0  0  0  0  0  0  0  0
   36.3820   30.9890   40.4720 C   0  0  1  0  0  0  0  0  0  0  0  0
   37.0540   32.4730   39.1310 H   0  0  0  0  0  0  0  0  0  0  0  0
   38.1490   33.7950   41.2150 H   0  0  0  0  0  0  0  0  0  0  0  0
   37.8830   32.2770   42.0670 H   0  0  0  0  0  0  0  0  0  0  0  0
   40.0340   32.1120   41.0860 H   0  0  0  0  0  0  0  0  0  0  0  0
   39.4290   32.7070   39.5230 H   0  0  0  0  0  0  0  0  0  0  0  0
   38.7740   30.6510   38.8130 H   0  0  0  0  0  0  0  0  0  0  0  0
   39.6840   30.0330   40.2060 H   0  0  0  0  0  0  0  0  0  0  0  0
   37.7360   29.7120   41.5490 H   0  0  0  0  0  0  0  0  0  0  0  0
   37.3400   29.1830   39.8990 H   0  0  0  0  0  0  0  0  0  0  0  0
   35.7240   30.7060   39.6110 H   0  0  0  0  0  0  0  0  0  0  0  0
   34.6160   35.1320   41.5610 C   0  0  0  0  0  0  0  0  0  0  0  0
   35.7850   34.3660   41.2980 C   0  0  0  0  0  0  0  0  0  0  0  0
   35.6030   33.2520   40.4890 C   0  0  0  0  0  0  0  0  0  0  0  0
   34.3460   32.9430   39.9890 N   0  0  0  0  0  0  0  0  0  0  0  0
   33.2750   33.6970   40.2660 C   0  0  0  0  0  0  0  0  0  0  0  0
   33.3990   34.7980   41.0540 N   0  0  0  0  0  0  0  0  0  0  0  0
   34.6650   36.0100   42.1780 H   0  0  0  0  0  0  0  0  0  0  0  0
   36.7380   34.6530   41.7140 H   0  0  0  0  0  0  0  0  0  0  0  0
   32.3630   33.3370   39.8100 H   0  0  0  0  0  0  0  0  0  0  0  0
   34.5850   29.8850   42.0800 C   0  0  0  0  0  0  0  0  0  0  0  0
   34.3960   29.0150   41.1780 O   0  0  0  0  0  0  0  0  0  0  0  0
   35.6090   30.7940   41.6690 N   0  0  0  0  0  0  0  0  0  0  0  0
   35.9370   31.5420   42.3590 H   0  0  0  0  0  0  0  0  0  0  0  0
   34.8570   30.0720   44.4580 C   0  0  0  0  0  0  0  0  0  0  0  0
   33.9720   30.1000   43.3840 C   0  0  0  0  0  0  0  0  0  0  0  0
   32.6350   30.3200   43.6230 C   0  0  0  0  0  0  0  0  0  0  0  0
   31.9890   30.3330   42.7660 H   0  0  0  0  0  0  0  0  0  0  0  0
   32.1970   30.5080   44.9270 C   0  0  0  0  0  0  0  0  0  0  0  0
   31.1470   30.6810   45.1120 H   0  0  0  0  0  0  0  0  0  0  0  0
   33.0580   30.4860   46.0130 C   0  0  0  0  0  3  0  0  0  0  0  0
   34.3860   30.2630   45.7290 C   0  0  0  0  0  3  0  0  0  0  0  0
   37.3950   29.6640   44.1600 N   0  0  0  0  0  0  0  0  0  0  0  0
   36.2680   29.8490   44.3020 C   0  0  0  0  0  0  0  0  0  0  0  0
  1  7  1  6  0  0  0
  1  6  1  0  0  0  0
  1 19  1  0  0  0  0
  1  2  1  0  0  0  0
  2  8  1  0  0  0  0
  2  9  1  0  0  0  0
  3  2  1  0  0  0  0
  3 10  1  0  0  0  0
  4 13  1  0  0  0  0
  4  3  1  0  0  0  0
  4  5  1  0  0  0  0
  5 14  1  0  0  0  0
  6 16  1  6  0  0  0
  6  5  1  0  0  0  0
  6 28  1  0  0  0  0
 11  3  1  0  0  0  0
 12  4  1  0  0  0  0
 15  5  1  0  0  0  0
 17 23  1  0  0  0  0
 18 17  1  0  0  0  0
 18 24  1  0  0  0  0
 19 18  2  0  0  0  0
 20 21  2  0  0  0  0
 20 19  1  0  0  0  0
 21 22  1  0  0  0  0
 22 17  2  0  0  0  0
 25 21  1  0  0  0  0
 26 31  1  0  0  0  0
 27 26  2  0  0  0  0
 28 26  1  0  0  0  0
 28 29  1  0  0  0  0
 30 37  1  0  0  0  0
 31 32  1  0  0  0  0
 31 30  2  0  0  0  0
 32 34  2  0  0  0  0
 33 32  1  0  0  0  0
 34 35  1  0  0  0  0
 34 36  1  0  0  0  0
 37 36  2  0  0  0  0
 38 39  3  0  0  0  0
 39 30  1  0  0  0  0
M  END
>  <minimizedAffinity>
-2.31010747

>  <minimizedRMSD>
8.25653362

$$$$
