
 OpenBabel03272500543D

 33 35  0  0  0  0  0  0  0  0999 V2000
   36.3600   29.9480   44.2550 C   0  0  0  0  0  0  0  0  0  0  0  0
   36.4960   28.8590   43.3810 C   0  0  0  0  0  0  0  0  0  0  0  0
   37.6440   28.6270   42.6440 C   0  0  0  0  0  0  0  0  0  0  0  0
   38.7260   29.5320   42.7760 C   0  0  0  0  0  0  0  0  0  0  0  0
   38.5620   30.5820   43.6340 C   0  0  0  0  0  0  0  0  0  0  0  0
   37.4360   30.8090   44.3630 C   0  0  0  0  0  0  0  0  0  0  0  0
   35.6790   28.1530   43.2680 H   0  0  0  0  0  0  0  0  0  0  0  0
   37.6600   27.7460   41.9850 H   0  0  0  0  0  0  0  0  0  0  0  0
   39.5440   29.2520   42.1630 H   0  0  0  0  0  0  0  0  0  0  0  0
   39.4610   31.1570   43.5450 H   0  0  0  0  0  0  0  0  0  0  0  0
   34.0240   30.5660   44.1170 C   0  0  0  0  0  0  0  0  0  0  0  0
   35.0750   30.0680   44.9060 C   0  0  0  0  0  0  0  0  0  0  0  0
   34.7710   29.7480   46.2390 C   0  0  0  0  0  0  0  0  0  0  0  0
   33.5290   29.9190   46.7060 N   0  0  0  0  0  0  0  0  0  0  0  0
   32.5340   30.3970   45.9350 C   0  0  0  0  0  0  0  0  0  0  0  0
   32.7930   30.7150   44.6510 N   0  0  0  0  0  0  0  0  0  0  0  0
   34.1870   30.8310   43.0850 H   0  0  0  0  0  0  0  0  0  0  0  0
   35.6030   29.3760   46.8160 H   0  0  0  0  0  0  0  0  0  0  0  0
   31.5190   30.5450   46.2930 H   0  0  0  0  0  0  0  0  0  0  0  0
   38.0410   31.6700   46.4450 C   0  0  0  0  0  0  0  0  0  0  0  0
   38.4460   30.4630   46.6970 O   0  0  0  0  0  0  0  0  0  0  0  0
   37.2930   31.8730   45.2590 N   0  0  0  0  0  0  0  0  0  0  0  0
   36.8050   32.7720   45.2980 H   0  0  0  0  0  0  0  0  0  0  0  0
   38.1170   32.6100   48.8210 C   0  0  0  0  0  0  0  0  0  0  0  0
   38.5050   32.5290   47.5290 C   0  0  0  0  0  0  0  0  0  0  0  0
   39.5340   33.3350   47.0390 C   0  0  0  0  0  0  0  0  0  0  0  0
   39.9470   33.3740   46.0160 H   0  0  0  0  0  0  0  0  0  0  0  0
   40.2130   34.2570   47.8460 C   0  0  0  0  0  0  0  0  0  0  0  0
   41.0030   34.8950   47.5230 H   0  0  0  0  0  0  0  0  0  0  0  0
   39.7890   34.3150   49.1780 C   0  0  0  0  0  3  0  0  0  0  0  0
   38.7630   33.5070   49.6490 C   0  0  0  0  0  3  0  0  0  0  0  0
   36.2090   31.0300   49.5200 N   0  0  0  0  0  0  0  0  0  0  0  0
   37.0650   31.7410   49.2040 C   0  0  0  0  0  0  0  0  0  0  0  0
  1  6  1  0  0  0  0
  1 12  1  0  0  0  0
  2  1  2  0  0  0  0
  3  4  2  0  0  0  0
  3  2  1  0  0  0  0
  4  5  1  0  0  0  0
  5  6  2  0  0  0  0
  6 22  1  0  0  0  0
  7  2  1  0  0  0  0
  8  3  1  0  0  0  0
  9  4  1  0  0  0  0
 10  5  1  0  0  0  0
 11 16  2  0  0  0  0
 11 12  1  0  0  0  0
 12 13  2  0  0  0  0
 13 14  1  0  0  0  0
 13 18  1  0  0  0  0
 15 19  1  0  0  0  0
 15 14  2  0  0  0  0
 16 15  1  0  0  0  0
 17 11  1  0  0  0  0
 20 21  2  0  0  0  0
 20 25  1  0  0  0  0
 22 23  1  0  0  0  0
 22 20  1  0  0  0  0
 24 33  1  0  0  0  0
 24 31  1  0  0  0  0
 25 24  2  0  0  0  0
 26 25  1  0  0  0  0
 26 28  2  0  0  0  0
 27 26  1  0  0  0  0
 28 30  1  0  0  0  0
 29 28  1  0  0  0  0
 30 31  2  0  0  0  0
 33 32  3  0  0  0  0
M  END
>  <minimizedAffinity>
-5.40253925

>  <minimizedRMSD>
4.67047215

$$$$
