
 OpenBabel03272500553D

 33 35  0  0  0  0  0  0  0  0999 V2000
   36.3120   23.3970   31.9670 C   0  0  0  0  0  0  0  0  0  0  0  0
   35.3500   23.9570   31.1110 C   0  0  0  0  0  0  0  0  0  0  0  0
   35.2830   25.3130   30.8450 C   0  0  0  0  0  0  0  0  0  0  0  0
   36.2220   26.1730   31.4670 C   0  0  0  0  0  0  0  0  0  0  0  0
   37.1430   25.5960   32.2950 C   0  0  0  0  0  0  0  0  0  0  0  0
   37.2150   24.2630   32.5540 C   0  0  0  0  0  0  0  0  0  0  0  0
   34.6250   23.3150   30.6220 H   0  0  0  0  0  0  0  0  0  0  0  0
   34.4950   25.6620   30.1590 H   0  0  0  0  0  0  0  0  0  0  0  0
   36.0680   27.1840   31.1900 H   0  0  0  0  0  0  0  0  0  0  0  0
   37.7110   26.4140   32.6920 H   0  0  0  0  0  0  0  0  0  0  0  0
   36.7810   21.1570   31.1790 C   0  0  0  0  0  0  0  0  0  0  0  0
   36.2060   21.9700   32.1720 C   0  0  0  0  0  0  0  0  0  0  0  0
   35.5860   21.3150   33.2480 C   0  0  0  0  0  0  0  0  0  0  0  0
   35.5620   19.9790   33.2980 N   0  0  0  0  0  0  0  0  0  0  0  0
   36.1180   19.2150   32.3380 C   0  0  0  0  0  0  0  0  0  0  0  0
   36.7200   19.8130   31.2910 N   0  0  0  0  0  0  0  0  0  0  0  0
   37.2740   21.5940   30.3260 H   0  0  0  0  0  0  0  0  0  0  0  0
   35.1500   21.9700   33.9850 H   0  0  0  0  0  0  0  0  0  0  0  0
   36.1090   18.1290   32.3590 H   0  0  0  0  0  0  0  0  0  0  0  0
   38.1120   24.1820   34.7060 C   0  0  0  0  0  0  0  0  0  0  0  0
   37.4570   25.2870   34.8950 O   0  0  0  0  0  0  0  0  0  0  0  0
   38.1820   23.6840   33.3820 N   0  0  0  0  0  0  0  0  0  0  0  0
   38.9270   22.9870   33.3050 H   0  0  0  0  0  0  0  0  0  0  0  0
   39.6810   22.9650   36.3150 C   0  0  0  0  0  0  0  0  0  0  0  0
   38.6220   23.7410   36.0000 C   0  0  0  0  0  0  0  0  0  0  0  0
   37.8200   24.2970   36.9990 C   0  0  0  0  0  0  0  0  0  0  0  0
   36.9310   24.9420   36.8850 H   0  0  0  0  0  0  0  0  0  0  0  0
   38.0660   24.0850   38.3620 C   0  0  0  0  0  0  0  0  0  0  0  0
   37.4860   24.4840   39.1620 H   0  0  0  0  0  0  0  0  0  0  0  0
   39.1700   23.2790   38.6540 C   0  0  0  0  0  3  0  0  0  0  0  0
   39.9570   22.7330   37.6490 C   0  0  0  0  0  3  0  0  0  0  0  0
   41.0320   22.0480   34.3240 N   0  0  0  0  0  0  0  0  0  0  0  0
   40.4230   22.4590   35.2180 C   0  0  0  0  0  0  0  0  0  0  0  0
  1 12  1  0  0  0  0
  1  6  1  0  0  0  0
  2  1  2  0  0  0  0
  3  2  1  0  0  0  0
  3  4  2  0  0  0  0
  4  5  1  0  0  0  0
  5  6  2  0  0  0  0
  5 10  1  0  0  0  0
  6 22  1  0  0  0  0
  7  2  1  0  0  0  0
  8  3  1  0  0  0  0
  9  4  1  0  0  0  0
 11 16  2  0  0  0  0
 11 12  1  0  0  0  0
 12 13  2  0  0  0  0
 13 14  1  0  0  0  0
 13 18  1  0  0  0  0
 15 19  1  0  0  0  0
 15 14  2  0  0  0  0
 16 15  1  0  0  0  0
 17 11  1  0  0  0  0
 20 21  2  0  0  0  0
 20 25  1  0  0  0  0
 22 20  1  0  0  0  0
 23 22  1  0  0  0  0
 24 31  1  0  0  0  0
 25 24  2  0  0  0  0
 25 26  1  0  0  0  0
 26 28  2  0  0  0  0
 27 26  1  0  0  0  0
 28 30  1  0  0  0  0
 28 29  1  0  0  0  0
 31 30  2  0  0  0  0
 32 33  3  0  0  0  0
 33 24  1  0  0  0  0
M  END
>  <minimizedAffinity>
-5.78045654

$$$$

 OpenBabel03272500553D

 33 35  0  0  0  0  0  0  0  0999 V2000
   37.0300   28.0050   32.9620 C   0  0  0  0  0  0  0  0  0  0  0  0
   37.8200   27.9030   31.8060 C   0  0  0  0  0  0  0  0  0  0  0  0
   37.4970   28.5370   30.6200 C   0  0  0  0  0  0  0  0  0  0  0  0
   36.3170   29.3200   30.5700 C   0  0  0  0  0  0  0  0  0  0  0  0
   35.5700   29.3980   31.7110 C   0  0  0  0  0  0  0  0  0  0  0  0
   35.8880   28.7790   32.8800 C   0  0  0  0  0  0  0  0  0  0  0  0
   38.7300   27.3110   31.8250 H   0  0  0  0  0  0  0  0  0  0  0  0
   38.1770   28.4010   29.7650 H   0  0  0  0  0  0  0  0  0  0  0  0
   36.1760   29.7510   29.6120 H   0  0  0  0  0  0  0  0  0  0  0  0
   34.7140   29.9830   31.4440 H   0  0  0  0  0  0  0  0  0  0  0  0
   37.4750   25.8390   33.9460 C   0  0  0  0  0  0  0  0  0  0  0  0
   37.4880   27.2370   34.0970 C   0  0  0  0  0  0  0  0  0  0  0  0
   37.9320   27.7370   35.3320 C   0  0  0  0  0  0  0  0  0  0  0  0
   38.3210   26.8970   36.2980 N   0  0  0  0  0  0  0  0  0  0  0  0
   38.3020   25.5610   36.1350 C   0  0  0  0  0  0  0  0  0  0  0  0
   37.8800   25.0480   34.9630 N   0  0  0  0  0  0  0  0  0  0  0  0
   37.1470   25.3880   33.0240 H   0  0  0  0  0  0  0  0  0  0  0  0
   37.9210   28.8120   35.4150 H   0  0  0  0  0  0  0  0  0  0  0  0
   38.6120   24.8610   36.9060 H   0  0  0  0  0  0  0  0  0  0  0  0
   35.1580   30.2060   34.5740 C   0  0  0  0  0  0  0  0  0  0  0  0
   36.0970   30.9970   34.1530 O   0  0  0  0  0  0  0  0  0  0  0  0
   35.1290   28.8910   34.0490 N   0  0  0  0  0  0  0  0  0  0  0  0
   34.5430   28.2900   34.6340 H   0  0  0  0  0  0  0  0  0  0  0  0
   33.0590   30.7960   35.9100 C   0  0  0  0  0  0  0  0  0  0  0  0
   34.3480   30.9500   35.5330 C   0  0  0  0  0  0  0  0  0  0  0  0
   35.1490   31.9360   36.1110 C   0  0  0  0  0  0  0  0  0  0  0  0
   36.2070   32.1720   35.8980 H   0  0  0  0  0  0  0  0  0  0  0  0
   34.6710   32.8080   37.0980 C   0  0  0  0  0  0  0  0  0  0  0  0
   35.2390   33.5770   37.5700 H   0  0  0  0  0  0  0  0  0  0  0  0
   33.3340   32.6220   37.4660 C   0  0  0  0  0  3  0  0  0  0  0  0
   32.5510   31.6360   36.8810 C   0  0  0  0  0  3  0  0  0  0  0  0
   31.7650   28.9150   34.7190 N   0  0  0  0  0  0  0  0  0  0  0  0
   32.3460   29.7600   35.2570 C   0  0  0  0  0  0  0  0  0  0  0  0
  1 12  1  0  0  0  0
  2  7  1  0  0  0  0
  2  1  2  0  0  0  0
  3  2  1  0  0  0  0
  4  3  2  0  0  0  0
  4  5  1  0  0  0  0
  5  6  2  0  0  0  0
  6  1  1  0  0  0  0
  6 22  1  0  0  0  0
  8  3  1  0  0  0  0
  9  4  1  0  0  0  0
 10  5  1  0  0  0  0
 11 12  2  0  0  0  0
 11 16  1  0  0  0  0
 12 13  1  0  0  0  0
 13 18  1  0  0  0  0
 13 14  2  0  0  0  0
 15 14  1  0  0  0  0
 15 19  1  0  0  0  0
 16 15  2  0  0  0  0
 17 11  1  0  0  0  0
 20 25  1  0  0  0  0
 21 20  2  0  0  0  0
 22 20  1  0  0  0  0
 22 23  1  0  0  0  0
 24 31  1  0  0  0  0
 25 24  2  0  0  0  0
 25 26  1  0  0  0  0
 26 28  2  0  0  0  0
 27 26  1  0  0  0  0
 28 30  1  0  0  0  0
 28 29  1  0  0  0  0
 31 30  2  0  0  0  0
 32 33  3  0  0  0  0
 33 24  1  0  0  0  0
M  END
>  <minimizedAffinity>
-5.56815624

$$$$

 OpenBabel03272500553D

 33 35  0  0  0  0  0  0  0  0999 V2000
   39.7300   25.8390   34.4830 C   0  0  0  0  0  0  0  0  0  0  0  0
   40.9920   26.4050   34.7260 C   0  0  0  0  0  0  0  0  0  0  0  0
   41.6550   27.1840   33.7950 C   0  0  0  0  0  0  0  0  0  0  0  0
   41.0350   27.4180   32.5420 C   0  0  0  0  0  0  0  0  0  0  0  0
   39.8080   26.8520   32.3380 C   0  0  0  0  0  0  0  0  0  0  0  0
   39.1520   26.0890   33.2530 C   0  0  0  0  0  0  0  0  0  0  0  0
   41.4810   26.2410   35.6800 H   0  0  0  0  0  0  0  0  0  0  0  0
   42.6410   27.5880   34.0740 H   0  0  0  0  0  0  0  0  0  0  0  0
   41.6380   28.0230   31.9160 H   0  0  0  0  0  0  0  0  0  0  0  0
   39.5490   27.1060   31.3300 H   0  0  0  0  0  0  0  0  0  0  0  0
   39.7410   23.7150   35.6440 C   0  0  0  0  0  0  0  0  0  0  0  0
   39.2050   25.0110   35.5450 C   0  0  0  0  0  0  0  0  0  0  0  0
   38.2150   25.3600   36.4770 C   0  0  0  0  0  0  0  0  0  0  0  0
   37.8240   24.4790   37.4050 N   0  0  0  0  0  0  0  0  0  0  0  0
   38.3490   23.2420   37.4850 C   0  0  0  0  0  0  0  0  0  0  0  0
   39.3010   22.8750   36.6040 N   0  0  0  0  0  0  0  0  0  0  0  0
   40.5050   23.3820   34.9600 H   0  0  0  0  0  0  0  0  0  0  0  0
   37.8220   26.3580   36.3670 H   0  0  0  0  0  0  0  0  0  0  0  0
   38.0450   22.5110   38.2290 H   0  0  0  0  0  0  0  0  0  0  0  0
   37.9550   24.2650   32.4280 C   0  0  0  0  0  0  0  0  0  0  0  0
   39.0720   23.9400   31.8530 O   0  0  0  0  0  0  0  0  0  0  0  0
   37.8840   25.5410   33.0400 N   0  0  0  0  0  0  0  0  0  0  0  0
   36.9080   25.7960   33.2120 H   0  0  0  0  0  0  0  0  0  0  0  0
   35.8180   23.0810   31.6770 C   0  0  0  0  0  0  0  0  0  0  0  0
   37.0320   23.1480   32.2670 C   0  0  0  0  0  0  0  0  0  0  0  0
   37.6170   22.0120   32.8290 C   0  0  0  0  0  0  0  0  0  0  0  0
   38.5920   21.9240   33.3400 H   0  0  0  0  0  0  0  0  0  0  0  0
   36.9900   20.7590   32.8130 C   0  0  0  0  0  0  0  0  0  0  0  0
   37.3920   19.8630   33.2270 H   0  0  0  0  0  0  0  0  0  0  0  0
   35.7370   20.7240   32.1940 C   0  0  0  0  0  3  0  0  0  0  0  0
   35.1680   21.8620   31.6390 C   0  0  0  0  0  3  0  0  0  0  0  0
   34.9220   25.2900   30.7030 N   0  0  0  0  0  0  0  0  0  0  0  0
   35.3260   24.2960   31.1390 C   0  0  0  0  0  0  0  0  0  0  0  0
  1  2  1  0  0  0  0
  1 12  1  0  0  0  0
  2  7  1  0  0  0  0
  3  8  1  0  0  0  0
  3  2  2  0  0  0  0
  4  3  1  0  0  0  0
  5  4  2  0  0  0  0
  5  6  1  0  0  0  0
  6  1  2  0  0  0  0
  9  4  1  0  0  0  0
 10  5  1  0  0  0  0
 11 16  1  0  0  0  0
 12 11  2  0  0  0  0
 12 13  1  0  0  0  0
 13 14  2  0  0  0  0
 14 15  1  0  0  0  0
 15 19  1  0  0  0  0
 16 15  2  0  0  0  0
 17 11  1  0  0  0  0
 18 13  1  0  0  0  0
 20 22  1  0  0  0  0
 21 20  2  0  0  0  0
 22 23  1  0  0  0  0
 22  6  1  0  0  0  0
 24 25  1  0  0  0  0
 25 20  1  0  0  0  0
 25 26  2  0  0  0  0
 26 27  1  0  0  0  0
 28 26  1  0  0  0  0
 28 29  1  0  0  0  0
 30 28  2  0  0  0  0
 31 24  2  0  0  0  0
 31 30  1  0  0  0  0
 32 33  3  0  0  0  0
 33 24  1  0  0  0  0
M  END
>  <minimizedAffinity>
-5.45040083

$$$$

 OpenBabel03272500553D

 33 35  0  0  0  0  0  0  0  0999 V2000
   33.6020   30.5710   35.5490 C   0  0  0  0  0  0  0  0  0  0  0  0
   33.1750   31.6390   36.3540 C   0  0  0  0  0  0  0  0  0  0  0  0
   34.0350   32.6180   36.8190 C   0  0  0  0  0  0  0  0  0  0  0  0
   35.4060   32.5360   36.4710 C   0  0  0  0  0  0  0  0  0  0  0  0
   35.7890   31.4850   35.6870 C   0  0  0  0  0  0  0  0  0  0  0  0
   34.9450   30.5230   35.2250 C   0  0  0  0  0  0  0  0  0  0  0  0
   32.1280   31.7210   36.6290 H   0  0  0  0  0  0  0  0  0  0  0  0
   33.6090   33.4180   37.4440 H   0  0  0  0  0  0  0  0  0  0  0  0
   35.9620   33.3370   36.8870 H   0  0  0  0  0  0  0  0  0  0  0  0
   36.8510   31.5840   35.5890 H   0  0  0  0  0  0  0  0  0  0  0  0
   32.1130   28.7910   36.2370 C   0  0  0  0  0  0  0  0  0  0  0  0
   32.5810   29.6110   35.1950 C   0  0  0  0  0  0  0  0  0  0  0  0
   32.0180   29.4080   33.9250 C   0  0  0  0  0  0  0  0  0  0  0  0
   31.0800   28.4700   33.7480 N   0  0  0  0  0  0  0  0  0  0  0  0
   30.6430   27.6940   34.7570 C   0  0  0  0  0  0  0  0  0  0  0  0
   31.1640   27.8630   35.9890 N   0  0  0  0  0  0  0  0  0  0  0  0
   32.5020   28.8950   37.2370 H   0  0  0  0  0  0  0  0  0  0  0  0
   32.4060   30.0480   33.1500 H   0  0  0  0  0  0  0  0  0  0  0  0
   29.8840   26.9270   34.6360 H   0  0  0  0  0  0  0  0  0  0  0  0
   35.6740   29.9120   33.0950 C   0  0  0  0  0  0  0  0  0  0  0  0
   35.2500   31.0870   32.7400 O   0  0  0  0  0  0  0  0  0  0  0  0
   35.3470   29.4680   34.4000 N   0  0  0  0  0  0  0  0  0  0  0  0
   35.4850   28.4570   34.4740 H   0  0  0  0  0  0  0  0  0  0  0  0
   37.0610   28.1710   31.8400 C   0  0  0  0  0  0  0  0  0  0  0  0
   36.4140   29.3490   31.9710 C   0  0  0  0  0  0  0  0  0  0  0  0
   36.3500   30.2530   30.9080 C   0  0  0  0  0  0  0  0  0  0  0  0
   35.8620   31.2420   30.8780 H   0  0  0  0  0  0  0  0  0  0  0  0
   36.9430   29.9920   29.6660 C   0  0  0  0  0  0  0  0  0  0  0  0
   36.9250   30.6460   28.8250 H   0  0  0  0  0  0  0  0  0  0  0  0
   37.6040   28.7640   29.5630 C   0  0  0  0  0  3  0  0  0  0  0  0
   37.6590   27.8770   30.6300 C   0  0  0  0  0  3  0  0  0  0  0  0
   37.0510   26.6550   33.9210 N   0  0  0  0  0  0  0  0  0  0  0  0
   37.0570   27.3340   32.9840 C   0  0  0  0  0  0  0  0  0  0  0  0
  1  2  1  0  0  0  0
  2  7  1  0  0  0  0
  2  3  2  0  0  0  0
  3  8  1  0  0  0  0
  4  3  1  0  0  0  0
  4  9  1  0  0  0  0
  5  4  2  0  0  0  0
  6  1  2  0  0  0  0
  6  5  1  0  0  0  0
 10  5  1  0  0  0  0
 11 17  1  0  0  0  0
 12  1  1  0  0  0  0
 12 11  2  0  0  0  0
 13 12  1  0  0  0  0
 14 13  2  0  0  0  0
 14 15  1  0  0  0  0
 15 16  2  0  0  0  0
 16 11  1  0  0  0  0
 18 13  1  0  0  0  0
 19 15  1  0  0  0  0
 20 22  1  0  0  0  0
 21 20  2  0  0  0  0
 22 23  1  0  0  0  0
 22  6  1  0  0  0  0
 24 25  1  0  0  0  0
 24 33  1  0  0  0  0
 25 20  1  0  0  0  0
 26 25  2  0  0  0  0
 27 26  1  0  0  0  0
 28 26  1  0  0  0  0
 29 28  1  0  0  0  0
 30 28  2  0  0  0  0
 30 31  1  0  0  0  0
 31 24  2  0  0  0  0
 33 32  3  0  0  0  0
M  END
>  <minimizedAffinity>
-5.36163378

$$$$

 OpenBabel03272500553D

 33 35  0  0  0  0  0  0  0  0999 V2000
   39.4300   24.6260   34.6950 C   0  0  0  0  0  0  0  0  0  0  0  0
   39.8340   25.9670   34.6070 C   0  0  0  0  0  0  0  0  0  0  0  0
   40.1430   26.5790   33.4050 C   0  0  0  0  0  0  0  0  0  0  0  0
   40.0520   25.8170   32.2140 C   0  0  0  0  0  0  0  0  0  0  0  0
   39.6580   24.5150   32.3340 C   0  0  0  0  0  0  0  0  0  0  0  0
   39.3480   23.9120   33.5140 C   0  0  0  0  0  0  0  0  0  0  0  0
   39.9060   26.5680   35.5080 H   0  0  0  0  0  0  0  0  0  0  0  0
   40.4490   27.6370   33.4330 H   0  0  0  0  0  0  0  0  0  0  0  0
   40.3160   26.3920   31.3630 H   0  0  0  0  0  0  0  0  0  0  0  0
   39.7050   24.1170   31.3410 H   0  0  0  0  0  0  0  0  0  0  0  0
   38.0330   24.6010   36.6710 C   0  0  0  0  0  0  0  0  0  0  0  0
   39.1950   24.1330   36.0330 C   0  0  0  0  0  0  0  0  0  0  0  0
   40.0060   23.2490   36.7620 C   0  0  0  0  0  0  0  0  0  0  0  0
   39.6610   22.8860   38.0030 N   0  0  0  0  0  0  0  0  0  0  0  0
   38.5430   23.3430   38.5980 C   0  0  0  0  0  0  0  0  0  0  0  0
   37.7420   24.1950   37.9260 N   0  0  0  0  0  0  0  0  0  0  0  0
   37.3650   25.2820   36.1680 H   0  0  0  0  0  0  0  0  0  0  0  0
   40.8920   22.9170   36.2450 H   0  0  0  0  0  0  0  0  0  0  0  0
   38.2440   23.0630   39.6030 H   0  0  0  0  0  0  0  0  0  0  0  0
   37.5990   22.4170   33.1310 C   0  0  0  0  0  0  0  0  0  0  0  0
   36.8720   23.4840   32.9940 O   0  0  0  0  0  0  0  0  0  0  0  0
   38.9180   22.5860   33.6180 N   0  0  0  0  0  0  0  0  0  0  0  0
   39.2930   21.6900   33.9400 H   0  0  0  0  0  0  0  0  0  0  0  0
   35.9600   20.4770   33.4190 C   0  0  0  0  0  0  0  0  0  0  0  0
   36.7930   21.2750   32.7150 C   0  0  0  0  0  0  0  0  0  0  0  0
   36.9730   21.0880   31.3430 C   0  0  0  0  0  0  0  0  0  0  0  0
   37.6180   21.6590   30.6520 H   0  0  0  0  0  0  0  0  0  0  0  0
   36.3100   20.0810   30.6310 C   0  0  0  0  0  0  0  0  0  0  0  0
   36.4120   19.8950   29.5860 H   0  0  0  0  0  0  0  0  0  0  0  0
   35.4540   19.2740   31.3880 C   0  0  0  0  0  3  0  0  0  0  0  0
   35.2870   19.4720   32.7510 C   0  0  0  0  0  3  0  0  0  0  0  0
   35.7740   21.0000   35.9330 N   0  0  0  0  0  0  0  0  0  0  0  0
   35.8550   20.7630   34.8030 C   0  0  0  0  0  0  0  0  0  0  0  0
  1 12  1  0  0  0  0
  2  1  1  0  0  0  0
  2  7  1  0  0  0  0
  3  8  1  0  0  0  0
  3  2  2  0  0  0  0
  4  5  2  0  0  0  0
  4  3  1  0  0  0  0
  5  6  1  0  0  0  0
  6 22  1  0  0  0  0
  6  1  2  0  0  0  0
  9  4  1  0  0  0  0
 10  5  1  0  0  0  0
 11 16  1  0  0  0  0
 12 11  2  0  0  0  0
 12 13  1  0  0  0  0
 13 14  2  0  0  0  0
 14 15  1  0  0  0  0
 15 19  1  0  0  0  0
 16 15  2  0  0  0  0
 17 11  1  0  0  0  0
 18 13  1  0  0  0  0
 20 22  1  0  0  0  0
 21 20  2  0  0  0  0
 22 23  1  0  0  0  0
 24 33  1  0  0  0  0
 25 20  1  0  0  0  0
 25 24  2  0  0  0  0
 26 25  1  0  0  0  0
 27 26  1  0  0  0  0
 28 26  2  0  0  0  0
 28 30  1  0  0  0  0
 29 28  1  0  0  0  0
 30 31  2  0  0  0  0
 31 24  1  0  0  0  0
 33 32  3  0  0  0  0
M  END
>  <minimizedAffinity>
-5.32278633

$$$$

 OpenBabel03272500553D

 33 35  0  0  0  0  0  0  0  0999 V2000
   39.2140   26.2950   34.0800 C   0  0  0  0  0  0  0  0  0  0  0  0
   40.4340   26.9650   34.2670 C   0  0  0  0  0  0  0  0  0  0  0  0
   41.5880   26.3210   34.6750 C   0  0  0  0  0  0  0  0  0  0  0  0
   41.5350   24.9250   34.9160 C   0  0  0  0  0  0  0  0  0  0  0  0
   40.3340   24.3030   34.7260 C   0  0  0  0  0  0  0  0  0  0  0  0
   39.1980   24.9340   34.3210 C   0  0  0  0  0  0  0  0  0  0  0  0
   40.4950   28.0330   34.0840 H   0  0  0  0  0  0  0  0  0  0  0  0
   42.4990   26.9280   34.7940 H   0  0  0  0  0  0  0  0  0  0  0  0
   42.4760   24.5470   35.2250 H   0  0  0  0  0  0  0  0  0  0  0  0
   40.5000   23.2840   35.0080 H   0  0  0  0  0  0  0  0  0  0  0  0
   37.3090   27.6260   34.7550 C   0  0  0  0  0  0  0  0  0  0  0  0
   38.0970   27.1300   33.7010 C   0  0  0  0  0  0  0  0  0  0  0  0
   37.7140   27.4890   32.3990 C   0  0  0  0  0  0  0  0  0  0  0  0
   36.6450   28.2690   32.2030 N   0  0  0  0  0  0  0  0  0  0  0  0
   35.9010   28.7350   33.2240 C   0  0  0  0  0  0  0  0  0  0  0  0
   36.2410   28.4080   34.4870 N   0  0  0  0  0  0  0  0  0  0  0  0
   37.5470   27.3900   35.7790 H   0  0  0  0  0  0  0  0  0  0  0  0
   38.3360   27.0850   31.6170 H   0  0  0  0  0  0  0  0  0  0  0  0
   35.0290   29.3680   33.0880 H   0  0  0  0  0  0  0  0  0  0  0  0
   37.9650   23.5960   32.8610 C   0  0  0  0  0  0  0  0  0  0  0  0
   38.8620   23.9290   31.9830 O   0  0  0  0  0  0  0  0  0  0  0  0
   37.9820   24.2790   34.1020 N   0  0  0  0  0  0  0  0  0  0  0  0
   37.0950   24.1410   34.5940 H   0  0  0  0  0  0  0  0  0  0  0  0
   36.0070   22.6110   31.5450 C   0  0  0  0  0  0  0  0  0  0  0  0
   37.1410   22.5440   32.2770 C   0  0  0  0  0  0  0  0  0  0  0  0
   37.7350   21.3130   32.5640 C   0  0  0  0  0  0  0  0  0  0  0  0
   38.6510   21.1130   33.1470 H   0  0  0  0  0  0  0  0  0  0  0  0
   37.1980   20.0990   32.1160 C   0  0  0  0  0  0  0  0  0  0  0  0
   37.6100   19.1350   32.3070 H   0  0  0  0  0  0  0  0  0  0  0  0
   36.0260   20.2040   31.3600 C   0  0  0  0  0  3  0  0  0  0  0  0
   35.4480   21.4360   31.0840 C   0  0  0  0  0  3  0  0  0  0  0  0
   35.0850   24.9780   31.1230 N   0  0  0  0  0  0  0  0  0  0  0  0
   35.4990   23.9140   31.3150 C   0  0  0  0  0  0  0  0  0  0  0  0
  1  2  2  0  0  0  0
  1  6  1  0  0  0  0
  2  3  1  0  0  0  0
  3  8  1  0  0  0  0
  3  4  2  0  0  0  0
  4  9  1  0  0  0  0
  5  4  1  0  0  0  0
  5 10  1  0  0  0  0
  6  5  2  0  0  0  0
  7  2  1  0  0  0  0
 11 17  1  0  0  0  0
 12  1  1  0  0  0  0
 12 11  2  0  0  0  0
 13 12  1  0  0  0  0
 14 13  2  0  0  0  0
 14 15  1  0  0  0  0
 15 16  2  0  0  0  0
 16 11  1  0  0  0  0
 18 13  1  0  0  0  0
 19 15  1  0  0  0  0
 20 22  1  0  0  0  0
 21 20  2  0  0  0  0
 22  6  1  0  0  0  0
 22 23  1  0  0  0  0
 24 25  1  0  0  0  0
 25 26  2  0  0  0  0
 25 20  1  0  0  0  0
 26 27  1  0  0  0  0
 28 29  1  0  0  0  0
 28 26  1  0  0  0  0
 30 28  2  0  0  0  0
 31 30  1  0  0  0  0
 31 24  2  0  0  0  0
 32 33  3  0  0  0  0
 33 24  1  0  0  0  0
M  END
>  <minimizedAffinity>
-5.23859215

$$$$

 OpenBabel03272500553D

 33 35  0  0  0  0  0  0  0  0999 V2000
   33.1400   31.0100   35.8930 C   0  0  0  0  0  0  0  0  0  0  0  0
   32.7540   31.7650   37.0120 C   0  0  0  0  0  0  0  0  0  0  0  0
   33.5200   32.8010   37.5160 C   0  0  0  0  0  0  0  0  0  0  0  0
   34.7460   33.1100   36.8770 C   0  0  0  0  0  0  0  0  0  0  0  0
   35.0930   32.3560   35.7920 C   0  0  0  0  0  0  0  0  0  0  0  0
   34.3400   31.3400   35.2910 C   0  0  0  0  0  0  0  0  0  0  0  0
   31.8170   31.5460   37.5120 H   0  0  0  0  0  0  0  0  0  0  0  0
   33.1370   33.3390   38.3970 H   0  0  0  0  0  0  0  0  0  0  0  0
   35.2420   33.9160   37.3540 H   0  0  0  0  0  0  0  0  0  0  0  0
   36.0590   32.7150   35.5000 H   0  0  0  0  0  0  0  0  0  0  0  0
   32.1820   28.8530   36.4300 C   0  0  0  0  0  0  0  0  0  0  0  0
   32.2470   29.9330   35.5320 C   0  0  0  0  0  0  0  0  0  0  0  0
   31.4490   29.8470   34.3800 C   0  0  0  0  0  0  0  0  0  0  0  0
   30.6720   28.7770   34.1760 N   0  0  0  0  0  0  0  0  0  0  0  0
   30.6220   27.7520   35.0490 C   0  0  0  0  0  0  0  0  0  0  0  0
   31.3770   27.8020   36.1640 N   0  0  0  0  0  0  0  0  0  0  0  0
   32.7680   28.8540   37.3350 H   0  0  0  0  0  0  0  0  0  0  0  0
   31.5290   30.6880   33.7100 H   0  0  0  0  0  0  0  0  0  0  0  0
   30.0000   26.8740   34.9030 H   0  0  0  0  0  0  0  0  0  0  0  0
   35.7450   29.6860   34.4350 C   0  0  0  0  0  0  0  0  0  0  0  0
   36.4450   29.8880   35.5100 O   0  0  0  0  0  0  0  0  0  0  0  0
   34.6940   30.5950   34.1620 N   0  0  0  0  0  0  0  0  0  0  0  0
   34.3990   30.5110   33.1860 H   0  0  0  0  0  0  0  0  0  0  0  0
   36.4320   28.2130   32.4620 C   0  0  0  0  0  0  0  0  0  0  0  0
   36.2800   28.5010   33.7740 C   0  0  0  0  0  0  0  0  0  0  0  0
   36.6950   27.6010   34.7570 C   0  0  0  0  0  0  0  0  0  0  0  0
   36.6300   27.7050   35.8540 H   0  0  0  0  0  0  0  0  0  0  0  0
   37.2830   26.3680   34.4440 C   0  0  0  0  0  0  0  0  0  0  0  0
   37.6150   25.6460   35.1540 H   0  0  0  0  0  0  0  0  0  0  0  0
   37.4260   26.1010   33.0790 C   0  0  0  0  0  3  0  0  0  0  0  0
   37.0080   27.0070   32.1140 C   0  0  0  0  0  3  0  0  0  0  0  0
   35.6010   30.0140   30.8210 N   0  0  0  0  0  0  0  0  0  0  0  0
   35.9760   29.2040   31.5570 C   0  0  0  0  0  0  0  0  0  0  0  0
  1  2  1  0  0  0  0
  2  7  1  0  0  0  0
  2  3  2  0  0  0  0
  3  8  1  0  0  0  0
  4  9  1  0  0  0  0
  4  3  1  0  0  0  0
  5  4  2  0  0  0  0
  6  5  1  0  0  0  0
  6  1  2  0  0  0  0
 10  5  1  0  0  0  0
 11 17  1  0  0  0  0
 12  1  1  0  0  0  0
 12 11  2  0  0  0  0
 13 12  1  0  0  0  0
 14 13  2  0  0  0  0
 14 15  1  0  0  0  0
 15 16  2  0  0  0  0
 16 11  1  0  0  0  0
 18 13  1  0  0  0  0
 19 15  1  0  0  0  0
 20 21  2  0  0  0  0
 22 20  1  0  0  0  0
 22  6  1  0  0  0  0
 23 22  1  0  0  0  0
 24 25  1  0  0  0  0
 25 20  1  0  0  0  0
 25 26  2  0  0  0  0
 26 27  1  0  0  0  0
 28 26  1  0  0  0  0
 28 29  1  0  0  0  0
 30 28  2  0  0  0  0
 31 24  2  0  0  0  0
 31 30  1  0  0  0  0
 32 33  3  0  0  0  0
 33 24  1  0  0  0  0
M  END
>  <minimizedAffinity>
-5.22971249

$$$$

 OpenBabel03272500553D

 33 35  0  0  0  0  0  0  0  0999 V2000
   39.4680   25.0370   34.7310 C   0  0  0  0  0  0  0  0  0  0  0  0
   39.8380   26.3900   34.7990 C   0  0  0  0  0  0  0  0  0  0  0  0
   40.1640   27.1340   33.6790 C   0  0  0  0  0  0  0  0  0  0  0  0
   40.1250   26.5030   32.4110 C   0  0  0  0  0  0  0  0  0  0  0  0
   39.7620   25.1860   32.3800 C   0  0  0  0  0  0  0  0  0  0  0  0
   39.4370   24.4530   33.4780 C   0  0  0  0  0  0  0  0  0  0  0  0
   39.8710   26.8920   35.7600 H   0  0  0  0  0  0  0  0  0  0  0  0
   40.4410   28.1900   33.8290 H   0  0  0  0  0  0  0  0  0  0  0  0
   40.3960   27.1720   31.6350 H   0  0  0  0  0  0  0  0  0  0  0  0
   39.8470   24.8990   31.3510 H   0  0  0  0  0  0  0  0  0  0  0  0
   38.0820   24.8520   36.7060 C   0  0  0  0  0  0  0  0  0  0  0  0
   39.2100   24.3990   36.0010 C   0  0  0  0  0  0  0  0  0  0  0  0
   39.9700   23.3840   36.6060 C   0  0  0  0  0  0  0  0  0  0  0  0
   39.6090   22.8920   37.7970 N   0  0  0  0  0  0  0  0  0  0  0  0
   38.5240   23.3390   38.4570 C   0  0  0  0  0  0  0  0  0  0  0  0
   37.7740   24.3130   37.9050 N   0  0  0  0  0  0  0  0  0  0  0  0
   37.4540   25.6280   36.2990 H   0  0  0  0  0  0  0  0  0  0  0  0
   40.8320   23.0670   36.0410 H   0  0  0  0  0  0  0  0  0  0  0  0
   38.2140   22.9540   39.4240 H   0  0  0  0  0  0  0  0  0  0  0  0
   37.7860   22.9580   32.7860 C   0  0  0  0  0  0  0  0  0  0  0  0
   37.0460   24.0160   32.6560 O   0  0  0  0  0  0  0  0  0  0  0  0
   39.0400   23.1140   33.4280 N   0  0  0  0  0  0  0  0  0  0  0  0
   39.4050   22.2020   33.7160 H   0  0  0  0  0  0  0  0  0  0  0  0
   37.2860   21.1470   31.0520 C   0  0  0  0  0  0  0  0  0  0  0  0
   37.0660   21.8360   32.1930 C   0  0  0  0  0  0  0  0  0  0  0  0
   36.0170   21.4890   33.0480 C   0  0  0  0  0  0  0  0  0  0  0  0
   35.7250   21.9630   34.0010 H   0  0  0  0  0  0  0  0  0  0  0  0
   35.1490   20.4250   32.7740 C   0  0  0  0  0  0  0  0  0  0  0  0
   34.3340   20.1200   33.3900 H   0  0  0  0  0  0  0  0  0  0  0  0
   35.4040   19.7320   31.5870 C   0  0  0  0  0  3  0  0  0  0  0  0
   36.4510   20.0900   30.7480 C   0  0  0  0  0  3  0  0  0  0  0  0
   39.2730   21.9530   29.6270 N   0  0  0  0  0  0  0  0  0  0  0  0
   38.3800   21.5880   30.2670 C   0  0  0  0  0  0  0  0  0  0  0  0
  1  2  1  0  0  0  0
  1 12  1  0  0  0  0
  2  7  1  0  0  0  0
  3  8  1  0  0  0  0
  3  2  2  0  0  0  0
  4  3  1  0  0  0  0
  5  4  2  0  0  0  0
  5  6  1  0  0  0  0
  6  1  2  0  0  0  0
  9  4  1  0  0  0  0
 10  5  1  0  0  0  0
 11 16  1  0  0  0  0
 12 13  1  0  0  0  0
 12 11  2  0  0  0  0
 13 14  2  0  0  0  0
 14 15  1  0  0  0  0
 15 19  1  0  0  0  0
 16 15  2  0  0  0  0
 17 11  1  0  0  0  0
 18 13  1  0  0  0  0
 20 22  1  0  0  0  0
 21 20  2  0  0  0  0
 22  6  1  0  0  0  0
 22 23  1  0  0  0  0
 24 25  1  0  0  0  0
 25 20  1  0  0  0  0
 25 26  2  0  0  0  0
 26 27  1  0  0  0  0
 28 26  1  0  0  0  0
 28 29  1  0  0  0  0
 30 28  2  0  0  0  0
 31 24  2  0  0  0  0
 31 30  1  0  0  0  0
 32 33  3  0  0  0  0
 33 24  1  0  0  0  0
M  END
>  <minimizedAffinity>
-5.21575403

$$$$

 OpenBabel03272500553D

 33 35  0  0  0  0  0  0  0  0999 V2000
   36.3290   23.4950   31.7000 C   0  0  0  0  0  0  0  0  0  0  0  0
   35.1480   24.0270   31.1590 C   0  0  0  0  0  0  0  0  0  0  0  0
   34.9390   25.3860   31.0080 C   0  0  0  0  0  0  0  0  0  0  0  0
   35.9600   26.2780   31.4210 C   0  0  0  0  0  0  0  0  0  0  0  0
   37.0960   25.7290   31.9440 C   0  0  0  0  0  0  0  0  0  0  0  0
   37.3060   24.3930   32.0890 C   0  0  0  0  0  0  0  0  0  0  0  0
   34.3560   23.3600   30.8340 H   0  0  0  0  0  0  0  0  0  0  0  0
   33.9820   25.7120   30.5720 H   0  0  0  0  0  0  0  0  0  0  0  0
   35.6830   27.2880   31.2580 H   0  0  0  0  0  0  0  0  0  0  0  0
   37.7010   26.5640   32.2320 H   0  0  0  0  0  0  0  0  0  0  0  0
   35.5110   21.5050   32.8090 C   0  0  0  0  0  0  0  0  0  0  0  0
   36.3600   22.0560   31.8330 C   0  0  0  0  0  0  0  0  0  0  0  0
   37.1500   21.1570   31.0990 C   0  0  0  0  0  0  0  0  0  0  0  0
   37.0750   19.8430   31.3410 N   0  0  0  0  0  0  0  0  0  0  0  0
   36.2560   19.3330   32.2800 C   0  0  0  0  0  0  0  0  0  0  0  0
   35.4840   20.1690   33.0020 N   0  0  0  0  0  0  0  0  0  0  0  0
   34.8770   22.1390   33.4080 H   0  0  0  0  0  0  0  0  0  0  0  0
   37.7940   21.6150   30.3660 H   0  0  0  0  0  0  0  0  0  0  0  0
   36.1800   18.2710   32.4920 H   0  0  0  0  0  0  0  0  0  0  0  0
   38.6470   24.1250   33.9790 C   0  0  0  0  0  0  0  0  0  0  0  0
   37.9300   25.0840   34.4810 O   0  0  0  0  0  0  0  0  0  0  0  0
   38.4860   23.8440   32.6000 N   0  0  0  0  0  0  0  0  0  0  0  0
   39.2700   23.2810   32.2600 H   0  0  0  0  0  0  0  0  0  0  0  0
   39.1670   22.7060   36.0400 C   0  0  0  0  0  0  0  0  0  0  0  0
   39.4680   23.5770   35.0520 C   0  0  0  0  0  0  0  0  0  0  0  0
   40.7620   24.0860   34.9170 C   0  0  0  0  0  0  0  0  0  0  0  0
   41.1430   24.7990   34.1660 H   0  0  0  0  0  0  0  0  0  0  0  0
   41.8020   23.7270   35.7840 C   0  0  0  0  0  0  0  0  0  0  0  0
   42.8040   24.0860   35.7250 H   0  0  0  0  0  0  0  0  0  0  0  0
   41.4580   22.8240   36.7940 C   0  0  0  0  0  3  0  0  0  0  0  0
   40.1670   22.3270   36.9150 C   0  0  0  0  0  3  0  0  0  0  0  0
   36.7280   21.8830   36.1070 N   0  0  0  0  0  0  0  0  0  0  0  0
   37.8240   22.2560   36.0760 C   0  0  0  0  0  0  0  0  0  0  0  0
  1 12  1  0  0  0  0
  1  6  1  0  0  0  0
  2  1  2  0  0  0  0
  3  2  1  0  0  0  0
  3  4  2  0  0  0  0
  4  5  1  0  0  0  0
  5  6  2  0  0  0  0
  5 10  1  0  0  0  0
  6 22  1  0  0  0  0
  7  2  1  0  0  0  0
  8  3  1  0  0  0  0
  9  4  1  0  0  0  0
 11 16  1  0  0  0  0
 11 17  1  0  0  0  0
 12 11  2  0  0  0  0
 13 14  2  0  0  0  0
 13 12  1  0  0  0  0
 14 15  1  0  0  0  0
 15 19  1  0  0  0  0
 15 16  2  0  0  0  0
 18 13  1  0  0  0  0
 20 21  2  0  0  0  0
 20 25  1  0  0  0  0
 22 20  1  0  0  0  0
 23 22  1  0  0  0  0
 24 33  1  0  0  0  0
 24 31  1  0  0  0  0
 25 24  2  0  0  0  0
 26 25  1  0  0  0  0
 26 28  2  0  0  0  0
 27 26  1  0  0  0  0
 28 30  1  0  0  0  0
 29 28  1  0  0  0  0
 30 31  2  0  0  0  0
 33 32  3  0  0  0  0
M  END
>  <minimizedAffinity>
-5.2088356

$$$$
