
 OpenBabel03262523553D

 39 41  0  0  1  0  0  0  0  0999 V2000
   35.0290   31.0330   42.9900 C   0  0  1  0  0  0  0  0  0  0  0  0
   34.2440   32.2560   43.0540 C   0  0  0  0  0  0  0  0  0  0  0  0
   34.5460   33.0830   41.8420 C   0  0  0  0  0  0  0  0  0  0  0  0
   36.0030   33.0990   41.5520 C   0  0  0  0  0  0  0  0  0  0  0  0
   36.8890   32.6770   42.6470 C   0  0  0  0  0  0  0  0  0  0  0  0
   36.4710   31.3830   43.3440 C   0  0  1  0  0  0  0  0  0  0  0  0
   35.0870   30.6480   41.9320 H   0  0  0  0  0  0  0  0  0  0  0  0
   33.1500   32.0750   43.1580 H   0  0  0  0  0  0  0  0  0  0  0  0
   34.5060   32.8810   43.9390 H   0  0  0  0  0  0  0  0  0  0  0  0
   34.0850   34.0880   41.9430 H   0  0  0  0  0  0  0  0  0  0  0  0
   33.9950   32.5900   40.9890 H   0  0  0  0  0  0  0  0  0  0  0  0
   36.2370   32.4880   40.6410 H   0  0  0  0  0  0  0  0  0  0  0  0
   36.2720   34.1420   41.2860 H   0  0  0  0  0  0  0  0  0  0  0  0
   37.0160   33.4610   43.4500 H   0  0  0  0  0  0  0  0  0  0  0  0
   37.9090   32.4990   42.2520 H   0  0  0  0  0  0  0  0  0  0  0  0
   37.0980   30.5370   42.9630 H   0  0  0  0  0  0  0  0  0  0  0  0
   34.4360   27.6100   44.3060 C   0  0  0  0  0  0  0  0  0  0  0  0
   34.8390   28.6530   43.4270 C   0  0  0  0  0  0  0  0  0  0  0  0
   34.6390   29.9450   43.8970 C   0  0  0  0  0  0  0  0  0  0  0  0
   34.0820   30.1600   45.1490 N   0  0  0  0  0  0  0  0  0  0  0  0
   33.7180   29.1430   45.9400 C   0  0  0  0  0  0  0  0  0  0  0  0
   33.8910   27.8590   45.5270 N   0  0  0  0  0  0  0  0  0  0  0  0
   34.5540   26.5810   44.0230 H   0  0  0  0  0  0  0  0  0  0  0  0
   35.2680   28.4280   42.4630 H   0  0  0  0  0  0  0  0  0  0  0  0
   33.2980   29.4590   46.8850 H   0  0  0  0  0  0  0  0  0  0  0  0
   37.6090   30.8470   45.6800 C   0  0  0  0  0  0  0  0  0  0  0  0
   38.3980   30.0770   45.0540 O   0  0  0  0  0  0  0  0  0  0  0  0
   36.7200   31.4820   44.7580 N   0  0  0  0  0  0  0  0  0  0  0  0
   36.0430   32.2230   45.1270 H   0  0  0  0  0  0  0  0  0  0  0  0
   38.3790   32.1050   47.5720 C   0  0  0  0  0  0  0  0  0  0  0  0
   37.4660   31.1720   47.0930 C   0  0  0  0  0  0  0  0  0  0  0  0
   36.5310   30.6440   47.9540 C   0  0  0  0  0  0  0  0  0  0  0  0
   35.8480   29.9280   47.5420 H   0  0  0  0  0  0  0  0  0  0  0  0
   36.5200   31.0540   49.2800 C   0  0  0  0  0  0  0  0  0  0  0  0
   35.7840   30.6380   49.9540 H   0  0  0  0  0  0  0  0  0  0  0  0
   37.4170   31.9820   49.7820 C   0  0  0  0  0  3  0  0  0  0  0  0
   38.3340   32.4830   48.8880 C   0  0  0  0  0  3  0  0  0  0  0  0
   40.1950   33.1760   46.0710 N   0  0  0  0  0  0  0  0  0  0  0  0
   39.3890   32.7080   46.7460 C   0  0  0  0  0  0  0  0  0  0  0  0
  1  7  1  6  0  0  0
  1  2  1  0  0  0  0
  1  6  1  0  0  0  0
  1 19  1  0  0  0  0
  2  8  1  0  0  0  0
  2  9  1  0  0  0  0
  3 10  1  0  0  0  0
  3  2  1  0  0  0  0
  4  3  1  0  0  0  0
  4  5  1  0  0  0  0
  5  6  1  0  0  0  0
  5 14  1  0  0  0  0
  6 16  1  6  0  0  0
  6 28  1  0  0  0  0
 11  3  1  0  0  0  0
 12  4  1  0  0  0  0
 13  4  1  0  0  0  0
 15  5  1  0  0  0  0
 17 22  1  0  0  0  0
 18 19  1  0  0  0  0
 18 17  2  0  0  0  0
 19 20  2  0  0  0  0
 20 21  1  0  0  0  0
 21 25  1  0  0  0  0
 22 21  2  0  0  0  0
 23 17  1  0  0  0  0
 24 18  1  0  0  0  0
 26 31  1  0  0  0  0
 27 26  2  0  0  0  0
 28 29  1  0  0  0  0
 28 26  1  0  0  0  0
 30 37  1  0  0  0  0
 31 30  2  0  0  0  0
 31 32  1  0  0  0  0
 32 34  2  0  0  0  0
 33 32  1  0  0  0  0
 34 36  1  0  0  0  0
 34 35  1  0  0  0  0
 37 36  2  0  0  0  0
 38 39  3  0  0  0  0
 39 30  1  0  0  0  0
M  END
>  <minimizedAffinity>
-5.13490009

>  <minimizedRMSD>
5.05385351

$$$$
