
 OpenBabel03262523563D

 39 41  0  0  1  0  0  0  0  0999 V2000
   38.7120   30.7230   42.1250 C   0  0  1  0  0  0  0  0  0  0  0  0
   39.5800   31.6780   41.4530 C   0  0  0  0  0  0  0  0  0  0  0  0
   40.6540   30.9230   40.7320 C   0  0  0  0  0  0  0  0  0  0  0  0
   41.1960   29.8250   41.5730 C   0  0  0  0  0  0  0  0  0  0  0  0
   40.9080   29.9040   43.0120 C   0  0  0  0  0  0  0  0  0  0  0  0
   39.4500   30.2060   43.3560 C   0  0  1  0  0  0  0  0  0  0  0  0
   38.5530   29.8060   41.4880 H   0  0  0  0  0  0  0  0  0  0  0  0
   39.0340   32.3630   40.7640 H   0  0  0  0  0  0  0  0  0  0  0  0
   40.0960   32.3580   42.1690 H   0  0  0  0  0  0  0  0  0  0  0  0
   41.4190   31.6280   40.3440 H   0  0  0  0  0  0  0  0  0  0  0  0
   40.1600   30.4880   39.8140 H   0  0  0  0  0  0  0  0  0  0  0  0
   40.8610   28.8240   41.1920 H   0  0  0  0  0  0  0  0  0  0  0  0
   42.2990   29.8330   41.4510 H   0  0  0  0  0  0  0  0  0  0  0  0
   41.5410   30.6660   43.5560 H   0  0  0  0  0  0  0  0  0  0  0  0
   41.1450   28.9350   43.4940 H   0  0  0  0  0  0  0  0  0  0  0  0
   38.9350   29.2560   43.6500 H   0  0  0  0  0  0  0  0  0  0  0  0
   35.2550   30.7670   43.4830 C   0  0  0  0  0  0  0  0  0  0  0  0
   36.5110   30.2680   43.0410 C   0  0  0  0  0  0  0  0  0  0  0  0
   37.4180   31.2260   42.6080 C   0  0  0  0  0  0  0  0  0  0  0  0
   37.0820   32.5710   42.6220 N   0  0  0  0  0  0  0  0  0  0  0  0
   35.8840   32.9920   43.0490 C   0  0  0  0  0  0  0  0  0  0  0  0
   34.9600   32.0950   43.4830 N   0  0  0  0  0  0  0  0  0  0  0  0
   34.4930   30.0960   43.8360 H   0  0  0  0  0  0  0  0  0  0  0  0
   36.7190   29.2100   43.0510 H   0  0  0  0  0  0  0  0  0  0  0  0
   35.7620   34.0650   43.0040 H   0  0  0  0  0  0  0  0  0  0  0  0
   40.2860   31.4730   45.5310 C   0  0  0  0  0  0  0  0  0  0  0  0
   41.4260   30.9600   45.3230 O   0  0  0  0  0  0  0  0  0  0  0  0
   39.3830   31.0850   44.4930 N   0  0  0  0  0  0  0  0  0  0  0  0
   38.3980   31.5020   44.4880 H   0  0  0  0  0  0  0  0  0  0  0  0
   38.6070   31.8860   47.1950 C   0  0  0  0  0  0  0  0  0  0  0  0
   39.7740   32.3380   46.5860 C   0  0  0  0  0  0  0  0  0  0  0  0
   40.3370   33.5200   47.0080 C   0  0  0  0  0  0  0  0  0  0  0  0
   41.2360   33.8290   46.5110 H   0  0  0  0  0  0  0  0  0  0  0  0
   39.7300   34.2370   48.0300 C   0  0  0  0  0  0  0  0  0  0  0  0
   40.1750   35.1650   48.3600 H   0  0  0  0  0  0  0  0  0  0  0  0
   38.5690   33.8100   48.6530 C   0  0  0  0  0  3  0  0  0  0  0  0
   38.0400   32.6230   48.2000 C   0  0  0  0  0  3  0  0  0  0  0  0
   37.4340   29.6880   46.5020 N   0  0  0  0  0  0  0  0  0  0  0  0
   37.9500   30.6650   46.8200 C   0  0  0  0  0  0  0  0  0  0  0  0
  1  7  1  6  0  0  0
  1 19  1  0  0  0  0
  1  6  1  0  0  0  0
  2  1  1  0  0  0  0
  2  9  1  0  0  0  0
  3  2  1  0  0  0  0
  3  4  1  0  0  0  0
  4  5  1  0  0  0  0
  5  6  1  0  0  0  0
  5 15  1  0  0  0  0
  5 14  1  0  0  0  0
  6 16  1  1  0  0  0
  6 28  1  0  0  0  0
  8  2  1  0  0  0  0
 10  3  1  0  0  0  0
 11  3  1  0  0  0  0
 12  4  1  0  0  0  0
 13  4  1  0  0  0  0
 17 22  1  0  0  0  0
 17 23  1  0  0  0  0
 18 24  1  0  0  0  0
 18 17  2  0  0  0  0
 19 20  2  0  0  0  0
 19 18  1  0  0  0  0
 20 21  1  0  0  0  0
 21 22  2  0  0  0  0
 25 21  1  0  0  0  0
 26 31  1  0  0  0  0
 27 26  2  0  0  0  0
 28 26  1  0  0  0  0
 29 28  1  0  0  0  0
 30 37  1  0  0  0  0
 31 32  1  0  0  0  0
 31 30  2  0  0  0  0
 32 34  2  0  0  0  0
 33 32  1  0  0  0  0
 34 35  1  0  0  0  0
 34 36  1  0  0  0  0
 37 36  2  0  0  0  0
 38 39  3  0  0  0  0
 39 30  1  0  0  0  0
M  END
>  <minimizedAffinity>
-3.2372613

>  <minimizedRMSD>
5.45374203

$$$$
