
 OpenBabel03272506463D

 42 44  0  0  1  0  0  0  0  0999 V2000
   32.1530   28.5540   47.3380 C   0  0  2  0  0  0  0  0  0  0  0  0
   33.3920   28.3630   48.1640 C   0  0  1  0  0  0  0  0  0  0  0  0
   33.8080   27.0760   48.0070 O   0  0  0  0  0  0  0  0  0  0  0  0
   33.1240   26.4950   46.9440 C   0  0  0  0  0  0  0  0  0  0  0  0
   32.5140   27.6190   46.1420 C   0  0  1  0  0  0  0  0  0  0  0  0
   31.2290   28.1820   47.7760 H   0  0  0  0  0  0  0  0  0  0  0  0
   33.1960   28.6180   49.2220 H   0  0  0  0  0  0  0  0  0  0  0  0
   33.8210   25.8940   46.2970 H   0  0  0  0  0  0  0  0  0  0  0  0
   32.4370   25.7810   47.3740 H   0  0  0  0  0  0  0  0  0  0  0  0
   33.2600   28.1380   45.5490 H   0  0  0  0  0  0  0  0  0  0  0  0
   32.0710   29.8820   46.8710 O   0  0  0  0  0  0  0  0  0  0  0  0
   32.3630   29.8930   45.9270 H   0  0  0  0  0  0  0  0  0  0  0  0
   34.6930   29.4650   47.4790 S   0  0  0  0  0  0  0  0  0  0  0  0
   37.0850   29.2300   50.6290 C   0  0  0  0  0  0  0  0  0  0  0  0
   37.5510   30.5220   50.8360 C   0  0  0  0  0  0  0  0  0  0  0  0
   37.1030   31.5190   49.9550 C   0  0  0  0  0  0  0  0  0  0  0  0
   36.2440   31.1740   48.9540 N   0  0  0  0  0  0  0  0  0  0  0  0
   35.8220   29.8970   48.8000 C   0  0  0  0  0  0  0  0  0  0  0  0
   36.2350   28.9070   49.6340 N   0  0  0  0  0  0  0  0  0  0  0  0
   37.4170   28.4450   51.2950 H   0  0  0  0  0  0  0  0  0  0  0  0
   38.2250   30.8010   51.6180 H   0  0  0  0  0  0  0  0  0  0  0  0
   37.4110   32.5530   50.0370 H   0  0  0  0  0  0  0  0  0  0  0  0
   31.3860   27.1620   45.5100 O   0  0  0  0  0  0  0  0  0  0  0  0
   29.7690   29.2920   44.2800 Cl  0  0  0  0  0 15  0  0  0  0  0  0
   29.3000   28.1410   45.5110 C   0  0  0  0  0  3  0  0  0  0  0  0
   30.1500   27.1770   46.0050 C   0  0  0  0  0  0  0  0  0  0  0  0
   29.6550   26.2990   46.9720 C   0  0  0  0  0  0  0  0  0  0  0  0
   28.3550   26.4010   47.4150 C   0  0  0  0  0  0  0  0  0  0  0  0
   27.4950   27.3660   46.9260 C   0  0  0  0  0  0  0  0  0  0  0  0
   27.9750   28.2390   45.9670 C   0  0  0  0  0  0  0  0  0  0  0  0
   30.2410   25.5130   47.4130 H   0  0  0  0  0  0  0  0  0  0  0  0
   27.9210   25.7570   48.1560 H   0  0  0  0  0  0  0  0  0  0  0  0
   26.4570   27.4800   47.2500 H   0  0  0  0  0  0  0  0  0  0  0  0
   25.3140   27.9950   44.3580 O   0  0  0  0  0  0  0  0  0  0  0  0
   26.2850   28.8130   44.2720 C   0  0  0  0  0  0  0  0  0  0  0  0
   27.0660   29.2790   45.4310 C   0  0  2  0  0  3  0  0  0  0  0  0
   27.7940   30.4810   44.8920 C   0  0  0  0  0  3  0  0  0  0  0  0
   28.8880   30.3090   44.7790 H   0  0  0  0  0  0  0  0  0  0  0  0
   27.2640   30.7570   43.5010 C   0  0  0  0  0  3  0  0  0  0  0  0
   26.4380   31.4970   43.4890 H   0  0  0  0  0  0  0  0  0  0  0  0
   26.8160   29.4380   43.0880 N   0  0  0  0  0  0  0  0  0  0  0  0
   26.8270   28.9410   42.1530 H   0  0  0  0  0  0  0  0  0  0  0  0
  1  6  1  1  0  0  0
  1  2  1  0  0  0  0
  2  7  1  1  0  0  0
  3  2  1  0  0  0  0
  4  9  1  0  0  0  0
  4  3  1  0  0  0  0
  5 10  1  6  0  0  0
  5  4  1  0  0  0  0
  5  1  1  0  0  0  0
  8  4  1  0  0  0  0
 11  1  1  0  0  0  0
 12 11  1  0  0  0  0
 13  2  1  0  0  0  0
 13 18  1  0  0  0  0
 14 15  1  0  0  0  0
 14 20  1  0  0  0  0
 15 21  1  0  0  0  0
 16 22  1  0  0  0  0
 16 15  2  0  0  0  0
 17 16  1  0  0  0  0
 18 17  2  0  0  0  0
 18 19  1  0  0  0  0
 19 14  2  0  0  0  0
 23 26  1  0  0  0  0
 23  5  1  0  0  0  0
 25 30  2  0  0  0  0
 25 26  1  0  0  0  0
 26 27  2  0  0  0  0
 27 31  1  0  0  0  0
 27 28  1  0  0  0  0
 28 32  1  0  0  0  0
 29 33  1  0  0  0  0
 29 28  2  0  0  0  0
 30 29  1  0  0  0  0
 35 34  2  0  0  0  0
 35 36  1  0  0  0  0
 36 30  1  6  0  0  0
 37 36  1  0  0  0  0
 38 37  1  0  0  0  0
 39 37  1  0  0  0  0
 40 39  1  0  0  0  0
 41 39  1  0  0  0  0
 41 35  1  0  0  0  0
 42 41  1  0  0  0  0
M  END
>  <minimizedAffinity>
-5.08551073

>  <minimizedRMSD>
0.99696523

$$$$
