
 OpenBabel03262523493D

 38 41  0  0  1  0  0  0  0  0999 V2000
   36.1960   30.7550   31.2880 Cl  0  0  0  0  0  0  0  0  0  0  0  0
   36.6660   29.1870   31.9060 C   0  0  0  0  0  0  0  0  0  0  0  0
   36.1000   28.6840   33.0480 C   0  0  0  0  0  0  0  0  0  0  0  0
   36.5160   27.4510   33.4740 C   0  0  0  0  0  0  0  0  0  0  0  0
   37.4670   26.7110   32.8050 C   0  0  0  0  0  0  0  0  0  0  0  0
   38.0230   27.2540   31.6460 C   0  0  0  0  0  0  0  0  0  0  0  0
   39.2190   26.2860   30.8350 Cl  0  0  0  0  0  0  0  0  0  0  0  0
   37.6260   28.4930   31.1900 C   0  0  0  0  0  0  0  0  0  0  0  0
   36.0380   27.0840   34.3920 H   0  0  0  0  0  0  0  0  0  0  0  0
   38.0910   28.8550   30.2930 H   0  0  0  0  0  0  0  0  0  0  0  0
   39.2360   26.6300   35.2690 Cl  0  0  0  0  0  0  0  0  0  0  0  0
   38.5960   25.1750   34.4830 C   0  0  0  0  0  0  0  0  0  0  0  0
   37.8140   25.4060   33.3780 C   0  0  0  0  0  0  0  0  0  0  0  0
   37.2600   24.3210   32.6860 C   0  0  0  0  0  0  0  0  0  0  0  0
   37.4980   23.0160   33.1080 C   0  0  0  0  0  0  0  0  0  0  0  0
   38.2910   22.8370   34.2250 C   0  0  0  0  0  0  0  0  0  0  0  0
   38.8390   23.8990   34.9110 C   0  0  0  0  0  0  0  0  0  0  0  0
   36.6370   24.4460   31.8100 H   0  0  0  0  0  0  0  0  0  0  0  0
   37.0680   22.1710   32.5710 H   0  0  0  0  0  0  0  0  0  0  0  0
   38.4930   21.8310   34.5770 H   0  0  0  0  0  0  0  0  0  0  0  0
   37.7530   23.8900   37.7200 O   0  0  0  0  0  0  0  0  0  0  0  0
   38.8980   23.4720   37.3370 C   0  0  0  0  0  0  0  0  0  0  0  0
   39.7010   23.7420   36.1190 C   0  0  1  0  0  3  0  0  0  0  0  0
   40.5240   22.4630   36.0230 C   0  0  0  0  0  3  0  0  0  0  0  0
   41.4760   22.6320   35.4800 H   0  0  0  0  0  0  0  0  0  0  0  0
   40.7620   22.1020   37.4810 C   0  0  0  0  0  3  0  0  0  0  0  0
   40.8530   21.0200   37.6290 H   0  0  0  0  0  0  0  0  0  0  0  0
   39.5830   22.5750   38.2050 N   0  0  0  0  0  0  0  0  0  0  0  0
   39.4010   22.2300   39.1750 H   0  0  0  0  0  0  0  0  0  0  0  0
   32.8020   30.2450   34.0690 C   0  0  0  0  0  0  0  0  0  0  0  0
   33.7380   29.4330   33.4100 C   0  0  0  0  0  0  0  0  0  0  0  0
   35.0900   29.5190   33.7180 C   0  0  0  0  0  0  0  0  0  0  0  0
   35.4420   30.4180   34.6760 N   0  0  0  0  0  0  0  0  0  0  0  0
   34.5260   31.1840   35.2920 C   0  0  0  0  0  0  0  0  0  0  0  0
   33.2230   31.1030   34.9980 N   0  0  0  0  0  0  0  0  0  0  0  0
   31.7640   30.1220   33.7760 H   0  0  0  0  0  0  0  0  0  0  0  0
   33.4590   28.7210   32.6520 H   0  0  0  0  0  0  0  0  0  0  0  0
   34.8870   31.8660   36.0350 H   0  0  0  0  0  0  0  0  0  0  0  0
  1  2  1  0  0  0  0
  2  3  1  0  0  0  0
  3  4  2  0  0  0  0
  3 32  1  0  0  0  0
  4  9  1  0  0  0  0
  5 13  1  0  0  0  0
  5  4  1  0  0  0  0
  6  5  2  0  0  0  0
  7  6  1  0  0  0  0
  8  6  1  0  0  0  0
  8  2  2  0  0  0  0
 10  8  1  0  0  0  0
 12 17  1  0  0  0  0
 12 11  1  0  0  0  0
 13 12  2  0  0  0  0
 14 15  2  0  0  0  0
 14 13  1  0  0  0  0
 15 16  1  0  0  0  0
 16 20  1  0  0  0  0
 16 17  2  0  0  0  0
 18 14  1  0  0  0  0
 19 15  1  0  0  0  0
 22 21  2  0  0  0  0
 22 28  1  0  0  0  0
 23 17  1  6  0  0  0
 23 22  1  0  0  0  0
 24 23  1  0  0  0  0
 24 26  1  0  0  0  0
 25 24  1  0  0  0  0
 26 27  1  0  0  0  0
 26 28  1  0  0  0  0
 28 29  1  0  0  0  0
 30 35  1  0  0  0  0
 31 32  1  0  0  0  0
 31 30  2  0  0  0  0
 32 33  2  0  0  0  0
 33 34  1  0  0  0  0
 34 38  1  0  0  0  0
 35 34  2  0  0  0  0
 36 30  1  0  0  0  0
 37 31  1  0  0  0  0
M  END
>  <minimizedAffinity>
-6.59309006

$$$$

 OpenBabel03262523493D

 38 41  0  0  1  0  0  0  0  0999 V2000
   36.5620   30.4980   30.8450 Cl  0  0  0  0  0  0  0  0  0  0  0  0
   36.9680   28.9530   31.5610 C   0  0  0  0  0  0  0  0  0  0  0  0
   36.2700   28.4730   32.6380 C   0  0  0  0  0  0  0  0  0  0  0  0
   36.6430   27.2590   33.1470 C   0  0  0  0  0  0  0  0  0  0  0  0
   37.6770   26.5130   32.6210 C   0  0  0  0  0  0  0  0  0  0  0  0
   38.3660   27.0320   31.5240 C   0  0  0  0  0  0  0  0  0  0  0  0
   39.6620   26.0590   30.8940 Cl  0  0  0  0  0  0  0  0  0  0  0  0
   38.0160   28.2530   30.9870 C   0  0  0  0  0  0  0  0  0  0  0  0
   36.0600   26.9090   34.0090 H   0  0  0  0  0  0  0  0  0  0  0  0
   38.5840   28.5970   30.1450 H   0  0  0  0  0  0  0  0  0  0  0  0
   39.4350   26.4930   35.0940 Cl  0  0  0  0  0  0  0  0  0  0  0  0
   38.7320   25.0260   34.3890 C   0  0  0  0  0  0  0  0  0  0  0  0
   37.9630   25.2290   33.2690 C   0  0  0  0  0  0  0  0  0  0  0  0
   37.3620   24.1320   32.6370 C   0  0  0  0  0  0  0  0  0  0  0  0
   37.5400   22.8440   33.1340 C   0  0  0  0  0  0  0  0  0  0  0  0
   38.3230   22.6930   34.2630 C   0  0  0  0  0  0  0  0  0  0  0  0
   38.9160   23.7670   34.8900 C   0  0  0  0  0  0  0  0  0  0  0  0
   36.7470   24.2350   31.7530 H   0  0  0  0  0  0  0  0  0  0  0  0
   37.0740   21.9900   32.6440 H   0  0  0  0  0  0  0  0  0  0  0  0
   38.4780   21.7010   34.6720 H   0  0  0  0  0  0  0  0  0  0  0  0
   37.8050   23.8230   37.6890 O   0  0  0  0  0  0  0  0  0  0  0  0
   38.9540   23.3980   37.3260 C   0  0  0  0  0  0  0  0  0  0  0  0
   39.7670   23.6410   36.1090 C   0  0  1  0  0  3  0  0  0  0  0  0
   40.5940   22.3620   36.0510 C   0  0  0  0  0  3  0  0  0  0  0  0
   41.5500   22.5200   35.5130 H   0  0  0  0  0  0  0  0  0  0  0  0
   40.8190   22.0370   37.5190 C   0  0  0  0  0  3  0  0  0  0  0  0
   40.9120   20.9590   37.6930 H   0  0  0  0  0  0  0  0  0  0  0  0
   39.6330   22.5230   38.2210 N   0  0  0  0  0  0  0  0  0  0  0  0
   39.4430   22.2020   39.1970 H   0  0  0  0  0  0  0  0  0  0  0  0
   34.3060   31.0030   34.6620 C   0  0  0  0  0  0  0  0  0  0  0  0
   35.3690   30.2170   34.1930 C   0  0  0  0  0  0  0  0  0  0  0  0
   35.1780   29.3130   33.1550 C   0  0  0  0  0  0  0  0  0  0  0  0
   33.9250   29.2390   32.6340 N   0  0  0  0  0  0  0  0  0  0  0  0
   32.9230   30.0030   33.1010 C   0  0  0  0  0  0  0  0  0  0  0  0
   33.1040   30.8750   34.1000 N   0  0  0  0  0  0  0  0  0  0  0  0
   34.5300   31.6870   35.4750 H   0  0  0  0  0  0  0  0  0  0  0  0
   36.3620   30.2760   34.6070 H   0  0  0  0  0  0  0  0  0  0  0  0
   31.9660   29.8830   32.6350 H   0  0  0  0  0  0  0  0  0  0  0  0
  1  2  1  0  0  0  0
  2  3  1  0  0  0  0
  3  4  2  0  0  0  0
  3 32  1  0  0  0  0
  4  9  1  0  0  0  0
  5  4  1  0  0  0  0
  5 13  1  0  0  0  0
  6  5  2  0  0  0  0
  7  6  1  0  0  0  0
  8  6  1  0  0  0  0
  8  2  2  0  0  0  0
 10  8  1  0  0  0  0
 12 17  1  0  0  0  0
 12 11  1  0  0  0  0
 13 12  2  0  0  0  0
 14 15  2  0  0  0  0
 14 13  1  0  0  0  0
 15 16  1  0  0  0  0
 16 20  1  0  0  0  0
 16 17  2  0  0  0  0
 18 14  1  0  0  0  0
 19 15  1  0  0  0  0
 22 21  2  0  0  0  0
 22 28  1  0  0  0  0
 23 17  1  6  0  0  0
 23 22  1  0  0  0  0
 24 23  1  0  0  0  0
 24 26  1  0  0  0  0
 25 24  1  0  0  0  0
 26 27  1  0  0  0  0
 26 28  1  0  0  0  0
 28 29  1  0  0  0  0
 30 36  1  0  0  0  0
 31 37  1  0  0  0  0
 31 30  1  0  0  0  0
 32 31  2  0  0  0  0
 33 34  2  0  0  0  0
 33 32  1  0  0  0  0
 34 35  1  0  0  0  0
 35 30  2  0  0  0  0
 38 34  1  0  0  0  0
M  END
>  <minimizedAffinity>
-6.58145285

$$$$

 OpenBabel03262523493D

 38 41  0  0  1  0  0  0  0  0999 V2000
   35.0340   32.2970   32.5660 Cl  0  0  0  0  0  0  0  0  0  0  0  0
   35.7040   30.6830   32.6540 C   0  0  0  0  0  0  0  0  0  0  0  0
   35.5950   29.9390   33.8000 C   0  0  0  0  0  0  0  0  0  0  0  0
   36.1430   28.6850   33.7980 C   0  0  0  0  0  0  0  0  0  0  0  0
   36.7890   28.1530   32.7030 C   0  0  0  0  0  0  0  0  0  0  0  0
   36.8820   28.9380   31.5530 C   0  0  0  0  0  0  0  0  0  0  0  0
   37.7050   28.2270   30.1960 Cl  0  0  0  0  0  0  0  0  0  0  0  0
   36.3410   30.2060   31.5210 C   0  0  0  0  0  0  0  0  0  0  0  0
   36.0340   28.1220   34.7350 H   0  0  0  0  0  0  0  0  0  0  0  0
   36.4460   30.7590   30.6080 H   0  0  0  0  0  0  0  0  0  0  0  0
   35.3350   25.8630   31.3440 Cl  0  0  0  0  0  0  0  0  0  0  0  0
   36.8080   25.6450   32.3060 C   0  0  0  0  0  0  0  0  0  0  0  0
   37.3260   26.7960   32.8460 C   0  0  0  0  0  0  0  0  0  0  0  0
   38.4910   26.7300   33.6240 C   0  0  0  0  0  0  0  0  0  0  0  0
   39.1210   25.5090   33.8510 C   0  0  0  0  0  0  0  0  0  0  0  0
   38.5590   24.3800   33.2860 C   0  0  0  0  0  0  0  0  0  0  0  0
   37.4150   24.4380   32.5200 C   0  0  0  0  0  0  0  0  0  0  0  0
   38.9410   27.6050   34.0720 H   0  0  0  0  0  0  0  0  0  0  0  0
   40.0260   25.4560   34.4560 H   0  0  0  0  0  0  0  0  0  0  0  0
   39.0290   23.4170   33.4470 H   0  0  0  0  0  0  0  0  0  0  0  0
   38.4300   23.1710   29.9830 O   0  0  0  0  0  0  0  0  0  0  0  0
   37.6420   22.6480   30.8420 C   0  0  0  0  0  0  0  0  0  0  0  0
   36.7820   23.2400   31.8960 C   0  0  1  0  0  3  0  0  0  0  0  0
   36.7140   22.0920   32.8960 C   0  0  0  0  0  3  0  0  0  0  0  0
   35.7930   22.1430   33.5110 H   0  0  0  0  0  0  0  0  0  0  0  0
   36.7280   20.8620   32.0020 C   0  0  0  0  0  3  0  0  0  0  0  0
   37.1980   20.0020   32.4920 H   0  0  0  0  0  0  0  0  0  0  0  0
   37.5260   21.2290   30.8340 N   0  0  0  0  0  0  0  0  0  0  0  0
   37.8820   20.4800   30.1970 H   0  0  0  0  0  0  0  0  0  0  0  0
   34.8480   31.9690   36.9100 C   0  0  0  0  0  0  0  0  0  0  0  0
   35.5460   31.3930   35.8380 C   0  0  0  0  0  0  0  0  0  0  0  0
   34.8950   30.5600   34.9360 C   0  0  0  0  0  0  0  0  0  0  0  0
   33.5700   30.3430   35.1520 N   0  0  0  0  0  0  0  0  0  0  0  0
   32.9250   30.9070   36.1870 C   0  0  0  0  0  0  0  0  0  0  0  0
   33.5480   31.7100   37.0570 N   0  0  0  0  0  0  0  0  0  0  0  0
   35.4220   32.6090   37.5740 H   0  0  0  0  0  0  0  0  0  0  0  0
   36.5950   31.5650   35.6680 H   0  0  0  0  0  0  0  0  0  0  0  0
   31.8820   30.6840   36.2850 H   0  0  0  0  0  0  0  0  0  0  0  0
  1  2  1  0  0  0  0
  2  3  1  0  0  0  0
  3 32  1  0  0  0  0
  4  3  2  0  0  0  0
  4  9  1  0  0  0  0
  5 13  1  0  0  0  0
  5  4  1  0  0  0  0
  6  5  2  0  0  0  0
  7  6  1  0  0  0  0
  8  6  1  0  0  0  0
  8  2  2  0  0  0  0
 10  8  1  0  0  0  0
 11 12  1  0  0  0  0
 12 17  2  0  0  0  0
 12 13  1  0  0  0  0
 13 14  2  0  0  0  0
 14 15  1  0  0  0  0
 14 18  1  0  0  0  0
 15 19  1  0  0  0  0
 16 20  1  0  0  0  0
 16 15  2  0  0  0  0
 17 16  1  0  0  0  0
 21 22  2  0  0  0  0
 22 23  1  0  0  0  0
 23 17  1  1  0  0  0
 23 24  1  0  0  0  0
 24 25  1  0  0  0  0
 26 27  1  0  0  0  0
 26 24  1  0  0  0  0
 28 22  1  0  0  0  0
 28 26  1  0  0  0  0
 29 28  1  0  0  0  0
 30 35  1  0  0  0  0
 30 36  1  0  0  0  0
 31 30  2  0  0  0  0
 32 33  2  0  0  0  0
 32 31  1  0  0  0  0
 33 34  1  0  0  0  0
 34 38  1  0  0  0  0
 34 35  2  0  0  0  0
 37 31  1  0  0  0  0
M  END
>  <minimizedAffinity>
-6.13877296

$$$$

 OpenBabel03262523493D

 38 41  0  0  1  0  0  0  0  0999 V2000
   35.6300   32.7490   32.5580 Cl  0  0  0  0  0  0  0  0  0  0  0  0
   35.8870   31.0220   32.4420 C   0  0  0  0  0  0  0  0  0  0  0  0
   35.5440   30.1890   33.4760 C   0  0  0  0  0  0  0  0  0  0  0  0
   35.7750   28.8500   33.3160 C   0  0  0  0  0  0  0  0  0  0  0  0
   36.3290   28.3180   32.1710 C   0  0  0  0  0  0  0  0  0  0  0  0
   36.6660   29.1940   31.1390 C   0  0  0  0  0  0  0  0  0  0  0  0
   37.3620   28.4790   29.7140 Cl  0  0  0  0  0  0  0  0  0  0  0  0
   36.4470   30.5490   31.2670 C   0  0  0  0  0  0  0  0  0  0  0  0
   35.4860   28.2170   34.1660 H   0  0  0  0  0  0  0  0  0  0  0  0
   36.7280   31.1700   30.4390 H   0  0  0  0  0  0  0  0  0  0  0  0
   38.7460   27.1350   33.5730 Cl  0  0  0  0  0  0  0  0  0  0  0  0
   37.5420   26.1550   32.7160 C   0  0  0  0  0  0  0  0  0  0  0  0
   36.5160   26.8640   32.1410 C   0  0  0  0  0  0  0  0  0  0  0  0
   35.5130   26.1790   31.4400 C   0  0  0  0  0  0  0  0  0  0  0  0
   35.5510   24.7930   31.3230 C   0  0  0  0  0  0  0  0  0  0  0  0
   36.6050   24.1260   31.9200 C   0  0  0  0  0  0  0  0  0  0  0  0
   37.5940   24.7920   32.6100 C   0  0  0  0  0  0  0  0  0  0  0  0
   34.6830   26.6880   30.9690 H   0  0  0  0  0  0  0  0  0  0  0  0
   34.7730   24.2600   30.7790 H   0  0  0  0  0  0  0  0  0  0  0  0
   36.6600   23.0460   31.8450 H   0  0  0  0  0  0  0  0  0  0  0  0
   37.7730   24.3480   35.5840 O   0  0  0  0  0  0  0  0  0  0  0  0
   38.4470   23.7530   34.6760 C   0  0  0  0  0  0  0  0  0  0  0  0
   38.7450   24.1050   33.2650 C   0  0  1  0  0  3  0  0  0  0  0  0
   38.9550   22.7230   32.6580 C   0  0  0  0  0  3  0  0  0  0  0  0
   39.6100   22.7660   31.7650 H   0  0  0  0  0  0  0  0  0  0  0  0
   39.6030   21.9480   33.7950 C   0  0  0  0  0  3  0  0  0  0  0  0
   39.3570   20.8800   33.7600 H   0  0  0  0  0  0  0  0  0  0  0  0
   39.0530   22.5140   35.0260 N   0  0  0  0  0  0  0  0  0  0  0  0
   39.1590   21.9920   35.9260 H   0  0  0  0  0  0  0  0  0  0  0  0
   35.1490   31.9770   36.7920 C   0  0  0  0  0  0  0  0  0  0  0  0
   35.7420   31.3880   35.6650 C   0  0  0  0  0  0  0  0  0  0  0  0
   34.9570   30.8150   34.6710 C   0  0  0  0  0  0  0  0  0  0  0  0
   33.6110   30.8590   34.8550 N   0  0  0  0  0  0  0  0  0  0  0  0
   33.0690   31.4290   35.9440 C   0  0  0  0  0  0  0  0  0  0  0  0
   33.8200   31.9830   36.9030 N   0  0  0  0  0  0  0  0  0  0  0  0
   35.8250   32.4050   37.5270 H   0  0  0  0  0  0  0  0  0  0  0  0
   36.8080   31.3540   35.5200 H   0  0  0  0  0  0  0  0  0  0  0  0
   31.9990   31.4220   36.0120 H   0  0  0  0  0  0  0  0  0  0  0  0
  2  1  1  0  0  0  0
  2  3  1  0  0  0  0
  3 32  1  0  0  0  0
  4  3  2  0  0  0  0
  4  9  1  0  0  0  0
  5  4  1  0  0  0  0
  6  8  1  0  0  0  0
  6  5  2  0  0  0  0
  7  6  1  0  0  0  0
  8  2  2  0  0  0  0
 10  8  1  0  0  0  0
 12 11  1  0  0  0  0
 13  5  1  0  0  0  0
 13 12  2  0  0  0  0
 14 13  1  0  0  0  0
 15 14  2  0  0  0  0
 15 16  1  0  0  0  0
 16 17  2  0  0  0  0
 17 12  1  0  0  0  0
 18 14  1  0  0  0  0
 19 15  1  0  0  0  0
 20 16  1  0  0  0  0
 22 28  1  0  0  0  0
 22 21  2  0  0  0  0
 23 17  1  6  0  0  0
 23 22  1  0  0  0  0
 24 23  1  0  0  0  0
 24 26  1  0  0  0  0
 25 24  1  0  0  0  0
 26 28  1  0  0  0  0
 27 26  1  0  0  0  0
 28 29  1  0  0  0  0
 30 35  1  0  0  0  0
 30 36  1  0  0  0  0
 31 30  2  0  0  0  0
 32 33  2  0  0  0  0
 32 31  1  0  0  0  0
 33 34  1  0  0  0  0
 34 38  1  0  0  0  0
 34 35  2  0  0  0  0
 37 31  1  0  0  0  0
M  END
>  <minimizedAffinity>
-6.11595535

$$$$

 OpenBabel03262523493D

 38 41  0  0  1  0  0  0  0  0999 V2000
   38.5350   26.4100   30.9140 Cl  0  0  0  0  0  0  0  0  0  0  0  0
   37.5720   27.4490   31.9410 C   0  0  0  0  0  0  0  0  0  0  0  0
   37.4210   27.1730   33.2750 C   0  0  0  0  0  0  0  0  0  0  0  0
   36.6530   28.0290   34.0180 C   0  0  0  0  0  0  0  0  0  0  0  0
   36.0390   29.1400   33.4800 C   0  0  0  0  0  0  0  0  0  0  0  0
   36.2130   29.3910   32.1190 C   0  0  0  0  0  0  0  0  0  0  0  0
   35.4200   30.8020   31.4840 Cl  0  0  0  0  0  0  0  0  0  0  0  0
   36.9800   28.5480   31.3420 C   0  0  0  0  0  0  0  0  0  0  0  0
   36.5570   27.7740   35.0810 H   0  0  0  0  0  0  0  0  0  0  0  0
   37.0760   28.7950   30.3020 H   0  0  0  0  0  0  0  0  0  0  0  0
   33.0120   28.9870   33.3310 Cl  0  0  0  0  0  0  0  0  0  0  0  0
   33.8780   30.0290   34.4750 C   0  0  0  0  0  0  0  0  0  0  0  0
   35.2470   29.9670   34.3970 C   0  0  0  0  0  0  0  0  0  0  0  0
   36.0230   30.7530   35.2610 C   0  0  0  0  0  0  0  0  0  0  0  0
   35.4170   31.5920   36.1910 C   0  0  0  0  0  0  0  0  0  0  0  0
   34.0350   31.6180   36.2290 C   0  0  0  0  0  0  0  0  0  0  0  0
   33.2660   30.8480   35.3840 C   0  0  0  0  0  0  0  0  0  0  0  0
   37.1050   30.7430   35.2420 H   0  0  0  0  0  0  0  0  0  0  0  0
   36.0180   32.2040   36.8620 H   0  0  0  0  0  0  0  0  0  0  0  0
   33.5360   32.2630   36.9430 H   0  0  0  0  0  0  0  0  0  0  0  0
   31.6270   28.8210   36.8920 O   0  0  0  0  0  0  0  0  0  0  0  0
   31.2300   29.9490   36.4420 C   0  0  0  0  0  0  0  0  0  0  0  0
   31.7750   30.8510   35.3970 C   0  0  1  0  0  3  0  0  0  0  0  0
   31.2500   32.2000   35.8740 C   0  0  0  0  0  3  0  0  0  0  0  0
   31.1510   32.9190   35.0360 H   0  0  0  0  0  0  0  0  0  0  0  0
   29.8990   31.8450   36.4750 C   0  0  0  0  0  3  0  0  0  0  0  0
   29.6210   32.5190   37.2940 H   0  0  0  0  0  0  0  0  0  0  0  0
   30.0450   30.4930   37.0110 N   0  0  0  0  0  0  0  0  0  0  0  0
   29.3330   30.1250   37.6830 H   0  0  0  0  0  0  0  0  0  0  0  0
   39.9410   24.8810   34.9310 C   0  0  0  0  0  0  0  0  0  0  0  0
   39.3210   26.0440   34.4510 C   0  0  0  0  0  0  0  0  0  0  0  0
   38.1000   25.9740   33.7910 C   0  0  0  0  0  0  0  0  0  0  0  0
   37.5560   24.7370   33.6420 N   0  0  0  0  0  0  0  0  0  0  0  0
   38.1710   23.6380   34.1110 C   0  0  0  0  0  0  0  0  0  0  0  0
   39.3470   23.7020   34.7480 N   0  0  0  0  0  0  0  0  0  0  0  0
   40.8930   25.0130   35.4370 H   0  0  0  0  0  0  0  0  0  0  0  0
   39.7520   27.0240   34.5700 H   0  0  0  0  0  0  0  0  0  0  0  0
   37.6760   22.7020   33.9530 H   0  0  0  0  0  0  0  0  0  0  0  0
  1  2  1  0  0  0  0
  2  3  1  0  0  0  0
  3 32  1  0  0  0  0
  3  4  2  0  0  0  0
  4  9  1  0  0  0  0
  5  4  1  0  0  0  0
  5 13  1  0  0  0  0
  6  5  2  0  0  0  0
  7  6  1  0  0  0  0
  8  2  2  0  0  0  0
  8  6  1  0  0  0  0
 10  8  1  0  0  0  0
 11 12  1  0  0  0  0
 12 17  1  0  0  0  0
 13 12  2  0  0  0  0
 13 14  1  0  0  0  0
 14 15  2  0  0  0  0
 15 16  1  0  0  0  0
 15 19  1  0  0  0  0
 16 20  1  0  0  0  0
 17 16  2  0  0  0  0
 18 14  1  0  0  0  0
 22 21  2  0  0  0  0
 22 28  1  0  0  0  0
 23 17  1  1  0  0  0
 23 24  1  0  0  0  0
 23 22  1  0  0  0  0
 24 26  1  0  0  0  0
 25 24  1  0  0  0  0
 26 28  1  0  0  0  0
 26 27  1  0  0  0  0
 28 29  1  0  0  0  0
 30 36  1  0  0  0  0
 31 37  1  0  0  0  0
 31 30  2  0  0  0  0
 32 31  1  0  0  0  0
 33 32  2  0  0  0  0
 33 34  1  0  0  0  0
 34 35  2  0  0  0  0
 35 30  1  0  0  0  0
 38 34  1  0  0  0  0
M  END
>  <minimizedAffinity>
-6.10475969

$$$$

 OpenBabel03262523493D

 38 41  0  0  1  0  0  0  0  0999 V2000
   34.4120   32.1830   32.6430 Cl  0  0  0  0  0  0  0  0  0  0  0  0
   35.1550   30.6090   32.8300 C   0  0  0  0  0  0  0  0  0  0  0  0
   34.8810   29.8290   33.9230 C   0  0  0  0  0  0  0  0  0  0  0  0
   35.4980   28.6100   34.0030 C   0  0  0  0  0  0  0  0  0  0  0  0
   36.3690   28.1480   33.0390 C   0  0  0  0  0  0  0  0  0  0  0  0
   36.6250   28.9680   31.9400 C   0  0  0  0  0  0  0  0  0  0  0  0
   37.7290   28.3450   30.7510 Cl  0  0  0  0  0  0  0  0  0  0  0  0
   36.0200   30.2020   31.8280 C   0  0  0  0  0  0  0  0  0  0  0  0
   35.2530   28.0150   34.8930 H   0  0  0  0  0  0  0  0  0  0  0  0
   36.2580   30.7850   30.9600 H   0  0  0  0  0  0  0  0  0  0  0  0
   38.1960   27.7430   35.4280 Cl  0  0  0  0  0  0  0  0  0  0  0  0
   37.7970   26.4530   34.2790 C   0  0  0  0  0  0  0  0  0  0  0  0
   36.9550   26.8210   33.2590 C   0  0  0  0  0  0  0  0  0  0  0  0
   36.5800   25.8720   32.2980 C   0  0  0  0  0  0  0  0  0  0  0  0
   37.0540   24.5660   32.3710 C   0  0  0  0  0  0  0  0  0  0  0  0
   37.8990   24.2460   33.4160 C   0  0  0  0  0  0  0  0  0  0  0  0
   38.2720   25.1730   34.3650 C   0  0  0  0  0  0  0  0  0  0  0  0
   35.9190   26.1090   31.4750 H   0  0  0  0  0  0  0  0  0  0  0  0
   36.7640   23.8270   31.6240 H   0  0  0  0  0  0  0  0  0  0  0  0
   38.2840   23.2350   33.4970 H   0  0  0  0  0  0  0  0  0  0  0  0
   37.2810   24.4000   37.1020 O   0  0  0  0  0  0  0  0  0  0  0  0
   38.4570   24.2280   36.6330 C   0  0  0  0  0  0  0  0  0  0  0  0
   39.1830   24.8630   35.5050 C   0  0  1  0  0  3  0  0  0  0  0  0
   40.1550   23.7530   35.1230 C   0  0  0  0  0  3  0  0  0  0  0  0
   41.0620   24.1590   34.6310 H   0  0  0  0  0  0  0  0  0  0  0  0
   40.4800   23.1110   36.4620 C   0  0  0  0  0  3  0  0  0  0  0  0
   40.7100   22.0430   36.3630 H   0  0  0  0  0  0  0  0  0  0  0  0
   39.2730   23.2550   37.2750 N   0  0  0  0  0  0  0  0  0  0  0  0
   39.1650   22.6830   38.1440 H   0  0  0  0  0  0  0  0  0  0  0  0
   33.4590   31.5940   36.9580 C   0  0  0  0  0  0  0  0  0  0  0  0
   34.3800   31.0850   36.0290 C   0  0  0  0  0  0  0  0  0  0  0  0
   33.9440   30.3760   34.9170 C   0  0  0  0  0  0  0  0  0  0  0  0
   32.6010   30.2080   34.7870 N   0  0  0  0  0  0  0  0  0  0  0  0
   31.7410   30.7050   35.6910 C   0  0  0  0  0  0  0  0  0  0  0  0
   32.1560   31.3900   36.7630 N   0  0  0  0  0  0  0  0  0  0  0  0
   33.8730   32.1380   37.8020 H   0  0  0  0  0  0  0  0  0  0  0  0
   35.4430   31.2190   36.1330 H   0  0  0  0  0  0  0  0  0  0  0  0
   30.6990   30.5290   35.5150 H   0  0  0  0  0  0  0  0  0  0  0  0
  1  2  1  0  0  0  0
  2  3  1  0  0  0  0
  3  4  2  0  0  0  0
  3 32  1  0  0  0  0
  4  9  1  0  0  0  0
  5 13  1  0  0  0  0
  5  4  1  0  0  0  0
  6  5  2  0  0  0  0
  7  6  1  0  0  0  0
  8  6  1  0  0  0  0
  8  2  2  0  0  0  0
 10  8  1  0  0  0  0
 12 17  1  0  0  0  0
 12 11  1  0  0  0  0
 13 12  2  0  0  0  0
 14 15  2  0  0  0  0
 14 13  1  0  0  0  0
 15 16  1  0  0  0  0
 16 20  1  0  0  0  0
 16 17  2  0  0  0  0
 18 14  1  0  0  0  0
 19 15  1  0  0  0  0
 22 21  2  0  0  0  0
 22 28  1  0  0  0  0
 23 17  1  6  0  0  0
 23 22  1  0  0  0  0
 24 23  1  0  0  0  0
 24 26  1  0  0  0  0
 25 24  1  0  0  0  0
 26 28  1  0  0  0  0
 27 26  1  0  0  0  0
 28 29  1  0  0  0  0
 30 36  1  0  0  0  0
 31 37  1  0  0  0  0
 31 30  2  0  0  0  0
 32 31  1  0  0  0  0
 33 32  2  0  0  0  0
 33 34  1  0  0  0  0
 34 35  2  0  0  0  0
 35 30  1  0  0  0  0
 38 34  1  0  0  0  0
M  END
>  <minimizedAffinity>
-6.06545067

$$$$

 OpenBabel03262523493D

 38 41  0  0  1  0  0  0  0  0999 V2000
   37.0150   30.1100   30.9120 Cl  0  0  0  0  0  0  0  0  0  0  0  0
   37.1010   28.4280   31.3880 C   0  0  0  0  0  0  0  0  0  0  0  0
   36.3380   27.9500   32.4210 C   0  0  0  0  0  0  0  0  0  0  0  0
   36.4580   26.6250   32.7390 C   0  0  0  0  0  0  0  0  0  0  0  0
   37.3020   25.7670   32.0660 C   0  0  0  0  0  0  0  0  0  0  0  0
   38.0640   26.2870   31.0190 C   0  0  0  0  0  0  0  0  0  0  0  0
   39.1150   25.1710   30.2000 Cl  0  0  0  0  0  0  0  0  0  0  0  0
   37.9690   27.6180   30.6740 C   0  0  0  0  0  0  0  0  0  0  0  0
   35.8300   26.2810   33.5720 H   0  0  0  0  0  0  0  0  0  0  0  0
   38.5810   27.9570   29.8600 H   0  0  0  0  0  0  0  0  0  0  0  0
   35.3310   23.8130   30.8410 Cl  0  0  0  0  0  0  0  0  0  0  0  0
   36.5150   23.3530   32.0790 C   0  0  0  0  0  0  0  0  0  0  0  0
   37.3250   24.3720   32.5160 C   0  0  0  0  0  0  0  0  0  0  0  0
   38.2940   24.1100   33.4940 C   0  0  0  0  0  0  0  0  0  0  0  0
   38.4400   22.8310   34.0220 C   0  0  0  0  0  0  0  0  0  0  0  0
   37.6000   21.8400   33.5480 C   0  0  0  0  0  0  0  0  0  0  0  0
   36.6450   22.0900   32.5870 C   0  0  0  0  0  0  0  0  0  0  0  0
   38.9580   24.8750   33.8740 H   0  0  0  0  0  0  0  0  0  0  0  0
   39.1930   22.6260   34.7830 H   0  0  0  0  0  0  0  0  0  0  0  0
   37.6910   20.8340   33.9420 H   0  0  0  0  0  0  0  0  0  0  0  0
   37.2460   20.4610   30.1260 O   0  0  0  0  0  0  0  0  0  0  0  0
   36.3810   20.1990   31.0300 C   0  0  0  0  0  0  0  0  0  0  0  0
   35.7220   21.0460   32.0540 C   0  0  1  0  0  3  0  0  0  0  0  0
   35.4090   20.0130   33.1300 C   0  0  0  0  0  3  0  0  0  0  0  0
   34.5470   20.3240   33.7530 H   0  0  0  0  0  0  0  0  0  0  0  0
   35.0980   18.7640   32.3200 C   0  0  0  0  0  3  0  0  0  0  0  0
   35.3610   17.8470   32.8600 H   0  0  0  0  0  0  0  0  0  0  0  0
   35.9260   18.8530   31.1180 N   0  0  0  0  0  0  0  0  0  0  0  0
   36.0700   18.0020   30.5280 H   0  0  0  0  0  0  0  0  0  0  0  0
   34.9780   30.4940   34.8770 C   0  0  0  0  0  0  0  0  0  0  0  0
   35.8450   29.5830   34.2540 C   0  0  0  0  0  0  0  0  0  0  0  0
   35.4560   28.9120   33.1010 C   0  0  0  0  0  0  0  0  0  0  0  0
   34.2130   29.1870   32.6240 N   0  0  0  0  0  0  0  0  0  0  0  0
   33.4030   30.0640   33.2400 C   0  0  0  0  0  0  0  0  0  0  0  0
   33.7730   30.7130   34.3500 N   0  0  0  0  0  0  0  0  0  0  0  0
   35.3500   30.9810   35.7730 H   0  0  0  0  0  0  0  0  0  0  0  0
   36.8290   29.3660   34.6320 H   0  0  0  0  0  0  0  0  0  0  0  0
   32.4390   30.2240   32.7990 H   0  0  0  0  0  0  0  0  0  0  0  0
  1  2  1  0  0  0  0
  2  3  1  0  0  0  0
  3  4  2  0  0  0  0
  3 32  1  0  0  0  0
  4  9  1  0  0  0  0
  5 13  1  0  0  0  0
  5  4  1  0  0  0  0
  6  5  2  0  0  0  0
  7  6  1  0  0  0  0
  8  6  1  0  0  0  0
  8  2  2  0  0  0  0
 10  8  1  0  0  0  0
 11 12  1  0  0  0  0
 12 13  2  0  0  0  0
 12 17  1  0  0  0  0
 13 14  1  0  0  0  0
 14 18  1  0  0  0  0
 14 15  2  0  0  0  0
 15 19  1  0  0  0  0
 16 20  1  0  0  0  0
 16 15  1  0  0  0  0
 17 16  2  0  0  0  0
 21 22  2  0  0  0  0
 22 28  1  0  0  0  0
 22 23  1  0  0  0  0
 23 17  1  1  0  0  0
 23 24  1  0  0  0  0
 24 25  1  0  0  0  0
 26 27  1  0  0  0  0
 26 24  1  0  0  0  0
 28 26  1  0  0  0  0
 29 28  1  0  0  0  0
 30 36  1  0  0  0  0
 31 37  1  0  0  0  0
 31 30  2  0  0  0  0
 32 31  1  0  0  0  0
 33 32  2  0  0  0  0
 33 34  1  0  0  0  0
 34 35  2  0  0  0  0
 35 30  1  0  0  0  0
 38 34  1  0  0  0  0
M  END
>  <minimizedAffinity>
-6.01937246

$$$$

 OpenBabel03262523493D

 38 41  0  0  1  0  0  0  0  0999 V2000
   34.7270   30.6240   31.6130 Cl  0  0  0  0  0  0  0  0  0  0  0  0
   35.8680   29.4300   32.1910 C   0  0  0  0  0  0  0  0  0  0  0  0
   35.9070   29.0790   33.5150 C   0  0  0  0  0  0  0  0  0  0  0  0
   36.8260   28.1390   33.8960 C   0  0  0  0  0  0  0  0  0  0  0  0
   37.6980   27.5430   33.0100 C   0  0  0  0  0  0  0  0  0  0  0  0
   37.6310   27.9240   31.6700 C   0  0  0  0  0  0  0  0  0  0  0  0
   38.7490   27.1470   30.5880 Cl  0  0  0  0  0  0  0  0  0  0  0  0
   36.7170   28.8690   31.2520 C   0  0  0  0  0  0  0  0  0  0  0  0
   36.8250   27.8840   34.9650 H   0  0  0  0  0  0  0  0  0  0  0  0
   36.7150   29.1190   30.2090 H   0  0  0  0  0  0  0  0  0  0  0  0
   37.0320   24.5980   32.7040 Cl  0  0  0  0  0  0  0  0  0  0  0  0
   38.4940   25.1850   33.5180 C   0  0  0  0  0  0  0  0  0  0  0  0
   38.6270   26.5510   33.5610 C   0  0  0  0  0  0  0  0  0  0  0  0
   39.7500   27.1150   34.1840 C   0  0  0  0  0  0  0  0  0  0  0  0
   40.7240   26.3030   34.7560 C   0  0  0  0  0  0  0  0  0  0  0  0
   40.5430   24.9350   34.6860 C   0  0  0  0  0  0  0  0  0  0  0  0
   39.4430   24.3730   34.0750 C   0  0  0  0  0  0  0  0  0  0  0  0
   39.9040   28.1840   34.2460 H   0  0  0  0  0  0  0  0  0  0  0  0
   41.5970   26.7390   35.2400 H   0  0  0  0  0  0  0  0  0  0  0  0
   41.2870   24.2780   35.1230 H   0  0  0  0  0  0  0  0  0  0  0  0
   37.5940   22.8720   35.9180 O   0  0  0  0  0  0  0  0  0  0  0  0
   38.0500   22.4720   34.7940 C   0  0  0  0  0  0  0  0  0  0  0  0
   39.2150   22.9020   33.9820 C   0  0  1  0  0  3  0  0  0  0  0  0
   38.7500   22.5230   32.5810 C   0  0  0  0  0  3  0  0  0  0  0  0
   39.6070   22.3400   31.9030 H   0  0  0  0  0  0  0  0  0  0  0  0
   37.9400   21.2590   32.8220 C   0  0  0  0  0  3  0  0  0  0  0  0
   37.1320   21.1410   32.0910 H   0  0  0  0  0  0  0  0  0  0  0  0
   37.3490   21.4130   34.1510 N   0  0  0  0  0  0  0  0  0  0  0  0
   36.5610   20.7900   34.4400 H   0  0  0  0  0  0  0  0  0  0  0  0
   34.3680   31.4800   36.0080 C   0  0  0  0  0  0  0  0  0  0  0  0
   35.3030   30.8660   35.1620 C   0  0  0  0  0  0  0  0  0  0  0  0
   34.9530   29.7490   34.4130 C   0  0  0  0  0  0  0  0  0  0  0  0
   33.6780   29.2980   34.5490 N   0  0  0  0  0  0  0  0  0  0  0  0
   32.8010   29.9050   35.3670 C   0  0  0  0  0  0  0  0  0  0  0  0
   33.1340   30.9820   36.0880 N   0  0  0  0  0  0  0  0  0  0  0  0
   34.7130   32.3490   36.5610 H   0  0  0  0  0  0  0  0  0  0  0  0
   36.3130   31.2230   35.0540 H   0  0  0  0  0  0  0  0  0  0  0  0
   31.8160   29.4870   35.4160 H   0  0  0  0  0  0  0  0  0  0  0  0
  1  2  1  0  0  0  0
  2  3  1  0  0  0  0
  3  4  2  0  0  0  0
  3 32  1  0  0  0  0
  4  9  1  0  0  0  0
  5 13  1  0  0  0  0
  5  4  1  0  0  0  0
  6  5  2  0  0  0  0
  7  6  1  0  0  0  0
  8  6  1  0  0  0  0
  8  2  2  0  0  0  0
 10  8  1  0  0  0  0
 11 12  1  0  0  0  0
 12 13  2  0  0  0  0
 12 17  1  0  0  0  0
 13 14  1  0  0  0  0
 14 18  1  0  0  0  0
 14 15  2  0  0  0  0
 15 19  1  0  0  0  0
 16 15  1  0  0  0  0
 16 20  1  0  0  0  0
 17 16  2  0  0  0  0
 22 21  2  0  0  0  0
 23 17  1  6  0  0  0
 23 22  1  0  0  0  0
 24 26  1  0  0  0  0
 24 23  1  0  0  0  0
 25 24  1  0  0  0  0
 26 28  1  0  0  0  0
 27 26  1  0  0  0  0
 28 29  1  0  0  0  0
 28 22  1  0  0  0  0
 30 35  1  0  0  0  0
 30 36  1  0  0  0  0
 31 30  2  0  0  0  0
 32 33  2  0  0  0  0
 32 31  1  0  0  0  0
 33 34  1  0  0  0  0
 34 38  1  0  0  0  0
 34 35  2  0  0  0  0
 37 31  1  0  0  0  0
M  END
>  <minimizedAffinity>
-5.86753559

$$$$

 OpenBabel03262523493D

 38 41  0  0  1  0  0  0  0  0999 V2000
   38.9800   25.4900   29.8440 Cl  0  0  0  0  0  0  0  0  0  0  0  0
   37.9340   26.6770   30.5930 C   0  0  0  0  0  0  0  0  0  0  0  0
   36.9480   26.2940   31.4630 C   0  0  0  0  0  0  0  0  0  0  0  0
   36.1670   27.2760   32.0100 C   0  0  0  0  0  0  0  0  0  0  0  0
   36.3360   28.6130   31.7220 C   0  0  0  0  0  0  0  0  0  0  0  0
   37.3500   28.9680   30.8320 C   0  0  0  0  0  0  0  0  0  0  0  0
   37.5270   30.6650   30.4970 Cl  0  0  0  0  0  0  0  0  0  0  0  0
   38.1540   28.0030   30.2620 C   0  0  0  0  0  0  0  0  0  0  0  0
   35.3890   26.9280   32.7030 H   0  0  0  0  0  0  0  0  0  0  0  0
   38.9160   28.3400   29.5850 H   0  0  0  0  0  0  0  0  0  0  0  0
   36.3810   28.7920   34.7510 Cl  0  0  0  0  0  0  0  0  0  0  0  0
   35.3070   29.7700   33.7350 C   0  0  0  0  0  0  0  0  0  0  0  0
   35.4250   29.5530   32.3840 C   0  0  0  0  0  0  0  0  0  0  0  0
   34.6190   30.2780   31.4960 C   0  0  0  0  0  0  0  0  0  0  0  0
   33.7020   31.2100   31.9720 C   0  0  0  0  0  0  0  0  0  0  0  0
   33.6210   31.3910   33.3400 C   0  0  0  0  0  0  0  0  0  0  0  0
   34.4100   30.6830   34.2190 C   0  0  0  0  0  0  0  0  0  0  0  0
   34.6720   30.1460   30.4230 H   0  0  0  0  0  0  0  0  0  0  0  0
   33.0750   31.7740   31.2830 H   0  0  0  0  0  0  0  0  0  0  0  0
   32.9150   32.1110   33.7380 H   0  0  0  0  0  0  0  0  0  0  0  0
   36.4440   32.2600   35.7840 O   0  0  0  0  0  0  0  0  0  0  0  0
   35.2810   31.9060   36.1740 C   0  0  0  0  0  0  0  0  0  0  0  0
   34.3490   30.8520   35.7000 C   0  0  1  0  0  3  0  0  0  0  0  0
   33.0060   31.4440   36.1120 C   0  0  0  0  0  3  0  0  0  0  0  0
   32.2430   30.6540   36.2640 H   0  0  0  0  0  0  0  0  0  0  0  0
   33.3370   32.1650   37.4090 C   0  0  0  0  0  3  0  0  0  0  0  0
   32.6950   33.0390   37.5710 H   0  0  0  0  0  0  0  0  0  0  0  0
   34.7190   32.6210   37.2690 N   0  0  0  0  0  0  0  0  0  0  0  0
   35.0920   33.3450   37.9240 H   0  0  0  0  0  0  0  0  0  0  0  0
   37.4070   22.8390   32.9470 C   0  0  0  0  0  0  0  0  0  0  0  0
   37.5590   24.2140   32.7170 C   0  0  0  0  0  0  0  0  0  0  0  0
   36.8150   24.8530   31.7320 C   0  0  0  0  0  0  0  0  0  0  0  0
   35.9520   24.0800   31.0210 N   0  0  0  0  0  0  0  0  0  0  0  0
   35.8260   22.7640   31.2610 C   0  0  0  0  0  0  0  0  0  0  0  0
   36.5400   22.1450   32.2090 N   0  0  0  0  0  0  0  0  0  0  0  0
   38.0210   22.4090   33.7330 H   0  0  0  0  0  0  0  0  0  0  0  0
   38.2430   24.8260   33.2800 H   0  0  0  0  0  0  0  0  0  0  0  0
   35.1230   22.2270   30.6560 H   0  0  0  0  0  0  0  0  0  0  0  0
  1  2  1  0  0  0  0
  2  3  1  0  0  0  0
  3 32  1  0  0  0  0
  3  4  2  0  0  0  0
  4  9  1  0  0  0  0
  5  4  1  0  0  0  0
  5 13  1  0  0  0  0
  6  5  2  0  0  0  0
  7  6  1  0  0  0  0
  8  2  2  0  0  0  0
  8  6  1  0  0  0  0
 10  8  1  0  0  0  0
 12 17  1  0  0  0  0
 12 11  1  0  0  0  0
 13 12  2  0  0  0  0
 14 15  2  0  0  0  0
 14 13  1  0  0  0  0
 15 16  1  0  0  0  0
 16 20  1  0  0  0  0
 16 17  2  0  0  0  0
 18 14  1  0  0  0  0
 19 15  1  0  0  0  0
 21 22  2  0  0  0  0
 22 28  1  0  0  0  0
 23 17  1  6  0  0  0
 23 24  1  0  0  0  0
 23 22  1  0  0  0  0
 24 25  1  0  0  0  0
 24 26  1  0  0  0  0
 26 27  1  0  0  0  0
 28 26  1  0  0  0  0
 28 29  1  0  0  0  0
 30 36  1  0  0  0  0
 31 30  1  0  0  0  0
 31 37  1  0  0  0  0
 32 31  2  0  0  0  0
 33 34  2  0  0  0  0
 33 32  1  0  0  0  0
 34 35  1  0  0  0  0
 35 30  2  0  0  0  0
 38 34  1  0  0  0  0
M  END
>  <minimizedAffinity>
-5.8623538

$$$$
