
 OpenBabel03272506493D

 42 45  0  0  1  0  0  0  0  0999 V2000
   36.9690   25.4450   30.8050 C   0  0  2  0  0  0  0  0  0  0  0  0
   37.1250   23.9750   31.0630 C   0  0  1  0  0  0  0  0  0  0  0  0
   37.9690   23.8200   32.1210 O   0  0  0  0  0  0  0  0  0  0  0  0
   38.1530   25.0480   32.7480 C   0  0  0  0  0  0  0  0  0  0  0  0
   37.0450   25.9580   32.2760 C   0  0  1  0  0  0  0  0  0  0  0  0
   37.7790   25.9180   30.2520 H   0  0  0  0  0  0  0  0  0  0  0  0
   37.4860   23.4560   30.1560 H   0  0  0  0  0  0  0  0  0  0  0  0
   38.1120   24.9390   33.8670 H   0  0  0  0  0  0  0  0  0  0  0  0
   39.1630   25.3600   32.5230 H   0  0  0  0  0  0  0  0  0  0  0  0
   36.0980   25.7120   32.7460 H   0  0  0  0  0  0  0  0  0  0  0  0
   35.6850   25.7230   30.2900 O   0  0  0  0  0  0  0  0  0  0  0  0
   35.1310   26.0790   31.0260 H   0  0  0  0  0  0  0  0  0  0  0  0
   35.4800   23.3180   31.5530 S   0  0  0  0  0  0  0  0  0  0  0  0
   35.4930   19.7530   33.2810 C   0  0  0  0  0  0  0  0  0  0  0  0
   35.8540   18.8590   32.2800 C   0  0  0  0  0  0  0  0  0  0  0  0
   36.1070   19.3860   31.0030 C   0  0  0  0  0  0  0  0  0  0  0  0
   35.9870   20.7300   30.8120 N   0  0  0  0  0  0  0  0  0  0  0  0
   35.6310   21.5550   31.8240 C   0  0  0  0  0  0  0  0  0  0  0  0
   35.3790   21.0790   33.0720 N   0  0  0  0  0  0  0  0  0  0  0  0
   35.2930   19.3700   34.2710 H   0  0  0  0  0  0  0  0  0  0  0  0
   35.9500   17.8030   32.4220 H   0  0  0  0  0  0  0  0  0  0  0  0
   36.3940   18.7680   30.1630 H   0  0  0  0  0  0  0  0  0  0  0  0
   37.4770   27.2590   32.3270 O   0  0  0  0  0  0  0  0  0  0  0  0
   37.0050   27.9890   35.1390 Cl  0  0  0  0  0  0  0  0  0  0  0  0
   36.4040   28.7720   33.6950 C   0  0  0  0  0  0  0  0  0  0  0  0
   36.7030   28.3380   32.4230 C   0  0  0  0  0  0  0  0  0  0  0  0
   36.1810   29.0570   31.3450 C   0  0  0  0  0  0  0  0  0  0  0  0
   35.3900   30.1650   31.5560 C   0  0  0  0  0  0  0  0  0  0  0  0
   35.0840   30.6070   32.8290 C   0  0  0  0  0  0  0  0  0  0  0  0
   35.5970   29.9020   33.9030 C   0  0  0  0  0  0  0  0  0  0  0  0
   36.3630   28.7990   30.3170 H   0  0  0  0  0  0  0  0  0  0  0  0
   34.9610   30.7550   30.7680 H   0  0  0  0  0  0  0  0  0  0  0  0
   34.4610   31.4800   33.0390 H   0  0  0  0  0  0  0  0  0  0  0  0
   32.8740   30.1020   35.4110 O   0  0  0  0  0  0  0  0  0  0  0  0
   33.8970   30.8580   35.4060 C   0  0  0  0  0  0  0  0  0  0  0  0
   35.2780   30.3620   35.2750 C   0  0  2  0  0  3  0  0  0  0  0  0
   36.1080   31.5380   35.7120 C   0  0  0  0  0  3  0  0  0  0  0  0
   36.6630   32.0110   34.8720 H   0  0  0  0  0  0  0  0  0  0  0  0
   35.1630   32.5980   36.2430 C   0  0  0  0  0  3  0  0  0  0  0  0
   35.0210   32.5400   37.3400 H   0  0  0  0  0  0  0  0  0  0  0  0
   33.9410   32.2920   35.5200 N   0  0  0  0  0  0  0  0  0  0  0  0
   33.1770   32.9070   35.1190 H   0  0  0  0  0  0  0  0  0  0  0  0
  1  6  1  6  0  0  0
  1  2  1  0  0  0  0
  1  5  1  0  0  0  0
  2  7  1  6  0  0  0
  2 13  1  0  0  0  0
  2  3  1  0  0  0  0
  3  4  1  0  0  0  0
  4  8  1  0  0  0  0
  5 23  1  0  0  0  0
  5 10  1  1  0  0  0
  5  4  1  0  0  0  0
  9  4  1  0  0  0  0
 11  1  1  0  0  0  0
 11 12  1  0  0  0  0
 13 18  1  0  0  0  0
 14 20  1  0  0  0  0
 15 21  1  0  0  0  0
 15 14  2  0  0  0  0
 16 15  1  0  0  0  0
 17 16  2  0  0  0  0
 17 18  1  0  0  0  0
 18 19  2  0  0  0  0
 19 14  1  0  0  0  0
 22 16  1  0  0  0  0
 23 26  1  0  0  0  0
 25 30  1  0  0  0  0
 25 24  1  0  0  0  0
 26 25  2  0  0  0  0
 27 28  2  0  0  0  0
 27 26  1  0  0  0  0
 28 29  1  0  0  0  0
 29 33  1  0  0  0  0
 29 30  2  0  0  0  0
 31 27  1  0  0  0  0
 32 28  1  0  0  0  0
 35 34  2  0  0  0  0
 35 41  1  0  0  0  0
 36 30  1  6  0  0  0
 36 35  1  0  0  0  0
 36 37  1  0  0  0  0
 37 39  1  0  0  0  0
 38 37  1  0  0  0  0
 39 40  1  0  0  0  0
 41 39  1  0  0  0  0
 42 41  1  0  0  0  0
M  END
>  <minimizedAffinity>
-5.81358242

$$$$

 OpenBabel03272506493D

 42 45  0  0  1  0  0  0  0  0999 V2000
   36.2720   29.0360   33.2470 C   0  0  2  0  0  0  0  0  0  0  0  0
   35.2820   29.9090   32.5320 C   0  0  1  0  0  0  0  0  0  0  0  0
   35.4440   29.7190   31.1930 O   0  0  0  0  0  0  0  0  0  0  0  0
   36.2470   28.6040   30.9780 C   0  0  0  0  0  0  0  0  0  0  0  0
   36.2730   27.8210   32.2670 C   0  0  1  0  0  0  0  0  0  0  0  0
   37.2910   29.4160   33.2970 H   0  0  0  0  0  0  0  0  0  0  0  0
   35.4120   30.9670   32.8270 H   0  0  0  0  0  0  0  0  0  0  0  0
   35.8350   27.9660   30.1480 H   0  0  0  0  0  0  0  0  0  0  0  0
   37.1960   28.9740   30.6170 H   0  0  0  0  0  0  0  0  0  0  0  0
   35.3440   27.2840   32.4290 H   0  0  0  0  0  0  0  0  0  0  0  0
   35.7550   28.6190   34.4910 O   0  0  0  0  0  0  0  0  0  0  0  0
   35.4310   27.6900   34.3920 H   0  0  0  0  0  0  0  0  0  0  0  0
   33.5990   29.3290   32.9850 S   0  0  0  0  0  0  0  0  0  0  0  0
   31.8820   29.8530   36.5170 C   0  0  0  0  0  0  0  0  0  0  0  0
   32.5460   30.9280   37.0940 C   0  0  0  0  0  0  0  0  0  0  0  0
   33.5790   31.5230   36.3530 C   0  0  0  0  0  0  0  0  0  0  0  0
   33.8760   31.0220   35.1200 N   0  0  0  0  0  0  0  0  0  0  0  0
   33.1950   29.9710   34.6070 C   0  0  0  0  0  0  0  0  0  0  0  0
   32.1890   29.3710   35.2970 N   0  0  0  0  0  0  0  0  0  0  0  0
   31.0830   29.3790   37.0700 H   0  0  0  0  0  0  0  0  0  0  0  0
   32.3200   31.3270   38.0610 H   0  0  0  0  0  0  0  0  0  0  0  0
   34.1520   32.3650   36.7190 H   0  0  0  0  0  0  0  0  0  0  0  0
   37.4500   27.1210   32.3470 O   0  0  0  0  0  0  0  0  0  0  0  0
   38.7720   27.2190   34.9750 Cl  0  0  0  0  0  0  0  0  0  0  0  0
   38.2200   25.8180   34.0850 C   0  0  0  0  0  0  0  0  0  0  0  0
   37.6030   25.9010   32.8560 C   0  0  0  0  0  0  0  0  0  0  0  0
   37.1870   24.7130   32.2500 C   0  0  0  0  0  0  0  0  0  0  0  0
   37.3920   23.4990   32.8680 C   0  0  0  0  0  0  0  0  0  0  0  0
   38.0120   23.4070   34.0990 C   0  0  0  0  0  0  0  0  0  0  0  0
   38.4270   24.5770   34.7080 C   0  0  0  0  0  0  0  0  0  0  0  0
   36.6920   24.6770   31.2960 H   0  0  0  0  0  0  0  0  0  0  0  0
   37.0960   22.5550   32.4500 H   0  0  0  0  0  0  0  0  0  0  0  0
   38.1940   22.4640   34.6220 H   0  0  0  0  0  0  0  0  0  0  0  0
   41.0080   23.0760   35.6070 O   0  0  0  0  0  0  0  0  0  0  0  0
   39.8960   23.2720   36.1910 C   0  0  0  0  0  0  0  0  0  0  0  0
   39.0930   24.4970   36.0290 C   0  0  2  0  0  3  0  0  0  0  0  0
   38.1230   24.4250   37.1770 C   0  0  0  0  0  3  0  0  0  0  0  0
   37.0800   24.2210   36.8490 H   0  0  0  0  0  0  0  0  0  0  0  0
   38.5270   23.2530   38.0500 C   0  0  0  0  0  3  0  0  0  0  0  0
   39.1920   23.5460   38.8870 H   0  0  0  0  0  0  0  0  0  0  0  0
   39.2010   22.3930   37.0950 N   0  0  0  0  0  0  0  0  0  0  0  0
   39.2440   21.3390   36.9910 H   0  0  0  0  0  0  0  0  0  0  0  0
  1  6  1  1  0  0  0
  1 11  1  0  0  0  0
  2  7  1  1  0  0  0
  2 13  1  0  0  0  0
  2  1  1  0  0  0  0
  3  2  1  0  0  0  0
  4  3  1  0  0  0  0
  4  5  1  0  0  0  0
  5 23  1  0  0  0  0
  5 10  1  1  0  0  0
  5  1  1  0  0  0  0
  8  4  1  0  0  0  0
  9  4  1  0  0  0  0
 12 11  1  0  0  0  0
 13 18  1  0  0  0  0
 14 20  1  0  0  0  0
 14 15  1  0  0  0  0
 15 21  1  0  0  0  0
 16 22  1  0  0  0  0
 16 15  2  0  0  0  0
 17 16  1  0  0  0  0
 18 17  2  0  0  0  0
 18 19  1  0  0  0  0
 19 14  2  0  0  0  0
 23 26  1  0  0  0  0
 25 30  1  0  0  0  0
 25 24  1  0  0  0  0
 26 25  2  0  0  0  0
 27 26  1  0  0  0  0
 27 28  2  0  0  0  0
 28 29  1  0  0  0  0
 29 33  1  0  0  0  0
 29 30  2  0  0  0  0
 31 27  1  0  0  0  0
 32 28  1  0  0  0  0
 34 35  2  0  0  0  0
 35 41  1  0  0  0  0
 36 30  1  6  0  0  0
 36 35  1  0  0  0  0
 36 37  1  0  0  0  0
 37 39  1  0  0  0  0
 38 37  1  0  0  0  0
 39 40  1  0  0  0  0
 41 39  1  0  0  0  0
 42 41  1  0  0  0  0
M  END
>  <minimizedAffinity>
-5.79449368

$$$$

 OpenBabel03272506493D

 42 45  0  0  1  0  0  0  0  0999 V2000
   37.1540   28.1240   33.1250 C   0  0  2  0  0  0  0  0  0  0  0  0
   36.2140   29.1100   32.4950 C   0  0  1  0  0  0  0  0  0  0  0  0
   36.0310   28.7460   31.1960 O   0  0  0  0  0  0  0  0  0  0  0  0
   36.5360   27.4650   30.9990 C   0  0  0  0  0  0  0  0  0  0  0  0
   36.7040   26.8400   32.3620 C   0  0  1  0  0  0  0  0  0  0  0  0
   38.2110   28.2760   32.9140 H   0  0  0  0  0  0  0  0  0  0  0  0
   36.6060   30.1400   32.5940 H   0  0  0  0  0  0  0  0  0  0  0  0
   35.8340   26.8470   30.3740 H   0  0  0  0  0  0  0  0  0  0  0  0
   37.4330   27.5770   30.4050 H   0  0  0  0  0  0  0  0  0  0  0  0
   35.7500   26.5400   32.7840 H   0  0  0  0  0  0  0  0  0  0  0  0
   36.8620   27.9680   34.4960 O   0  0  0  0  0  0  0  0  0  0  0  0
   36.3530   27.1280   34.6060 H   0  0  0  0  0  0  0  0  0  0  0  0
   34.5970   28.9650   33.3560 S   0  0  0  0  0  0  0  0  0  0  0  0
   33.3480   31.2650   36.3310 C   0  0  0  0  0  0  0  0  0  0  0  0
   34.4800   31.9320   36.7820 C   0  0  0  0  0  0  0  0  0  0  0  0
   35.6940   31.6560   36.1330 C   0  0  0  0  0  0  0  0  0  0  0  0
   35.7020   30.7590   35.1060 N   0  0  0  0  0  0  0  0  0  0  0  0
   34.5670   30.1390   34.7080 C   0  0  0  0  0  0  0  0  0  0  0  0
   33.3750   30.3810   35.3130 N   0  0  0  0  0  0  0  0  0  0  0  0
   32.4020   31.4620   36.8150 H   0  0  0  0  0  0  0  0  0  0  0  0
   34.4830   32.6360   37.5870 H   0  0  0  0  0  0  0  0  0  0  0  0
   36.6280   32.1260   36.4140 H   0  0  0  0  0  0  0  0  0  0  0  0
   37.7130   25.9120   32.3120 O   0  0  0  0  0  0  0  0  0  0  0  0
   37.4210   23.2330   33.4970 Cl  0  0  0  0  0  0  0  0  0  0  0  0
   38.5850   24.4780   33.8910 C   0  0  0  0  0  0  0  0  0  0  0  0
   38.6280   25.6980   33.2550 C   0  0  0  0  0  0  0  0  0  0  0  0
   39.6180   26.6050   33.6410 C   0  0  0  0  0  0  0  0  0  0  0  0
   40.5200   26.2810   34.6300 C   0  0  0  0  0  0  0  0  0  0  0  0
   40.4850   25.0590   35.2740 C   0  0  0  0  0  0  0  0  0  0  0  0
   39.5090   24.1540   34.8980 C   0  0  0  0  0  0  0  0  0  0  0  0
   39.7340   27.5790   33.2000 H   0  0  0  0  0  0  0  0  0  0  0  0
   41.3010   26.9370   34.9690 H   0  0  0  0  0  0  0  0  0  0  0  0
   41.1820   24.7640   36.0630 H   0  0  0  0  0  0  0  0  0  0  0  0
   37.4900   23.0110   36.9820 O   0  0  0  0  0  0  0  0  0  0  0  0
   38.7510   22.8920   36.8710 C   0  0  0  0  0  0  0  0  0  0  0  0
   39.4560   22.8390   35.5780 C   0  0  2  0  0  3  0  0  0  0  0  0
   40.8140   22.3100   35.9500 C   0  0  0  0  0  3  0  0  0  0  0  0
   41.6160   23.0760   35.8580 H   0  0  0  0  0  0  0  0  0  0  0  0
   40.7720   21.9150   37.4120 C   0  0  0  0  0  3  0  0  0  0  0  0
   40.5300   20.8450   37.5650 H   0  0  0  0  0  0  0  0  0  0  0  0
   39.7290   22.7870   37.9230 N   0  0  0  0  0  0  0  0  0  0  0  0
   39.6080   23.2890   38.8480 H   0  0  0  0  0  0  0  0  0  0  0  0
  1  6  1  6  0  0  0
  1 11  1  0  0  0  0
  2  7  1  1  0  0  0
  2  1  1  0  0  0  0
  2 13  1  0  0  0  0
  3  2  1  0  0  0  0
  4  3  1  0  0  0  0
  4  5  1  0  0  0  0
  5 10  1  1  0  0  0
  5  1  1  0  0  0  0
  8  4  1  0  0  0  0
  9  4  1  0  0  0  0
 11 12  1  0  0  0  0
 13 18  1  0  0  0  0
 14 15  1  0  0  0  0
 14 20  1  0  0  0  0
 15 21  1  0  0  0  0
 16 22  1  0  0  0  0
 16 15  2  0  0  0  0
 17 16  1  0  0  0  0
 18 17  2  0  0  0  0
 18 19  1  0  0  0  0
 19 14  2  0  0  0  0
 23  5  1  0  0  0  0
 23 26  1  0  0  0  0
 24 25  1  0  0  0  0
 25 30  1  0  0  0  0
 26 27  1  0  0  0  0
 26 25  2  0  0  0  0
 27 28  2  0  0  0  0
 28 32  1  0  0  0  0
 28 29  1  0  0  0  0
 29 33  1  0  0  0  0
 30 29  2  0  0  0  0
 31 27  1  0  0  0  0
 35 34  2  0  0  0  0
 35 41  1  0  0  0  0
 36 30  1  1  0  0  0
 36 37  1  0  0  0  0
 36 35  1  0  0  0  0
 37 39  1  0  0  0  0
 38 37  1  0  0  0  0
 39 40  1  0  0  0  0
 39 41  1  0  0  0  0
 41 42  1  0  0  0  0
M  END
>  <minimizedAffinity>
-5.69146776

$$$$

 OpenBabel03272506493D

 42 45  0  0  1  0  0  0  0  0999 V2000
   35.4030   31.7120   35.0440 C   0  0  2  0  0  0  0  0  0  0  0  0
   34.0560   32.3090   35.3340 C   0  0  1  0  0  0  0  0  0  0  0  0
   33.1820   31.8520   34.3950 O   0  0  0  0  0  0  0  0  0  0  0  0
   33.7650   30.8000   33.6940 C   0  0  0  0  0  0  0  0  0  0  0  0
   34.9400   30.3210   34.5100 C   0  0  1  0  0  0  0  0  0  0  0  0
   35.9740   32.1930   34.2520 H   0  0  0  0  0  0  0  0  0  0  0  0
   34.1160   33.4130   35.3540 H   0  0  0  0  0  0  0  0  0  0  0  0
   33.0310   29.9610   33.5450 H   0  0  0  0  0  0  0  0  0  0  0  0
   33.9840   31.1750   32.7050 H   0  0  0  0  0  0  0  0  0  0  0  0
   34.6200   29.7420   35.3710 H   0  0  0  0  0  0  0  0  0  0  0  0
   36.1280   31.5250   36.2400 O   0  0  0  0  0  0  0  0  0  0  0  0
   36.0690   30.5690   36.4860 H   0  0  0  0  0  0  0  0  0  0  0  0
   33.5080   31.6770   36.9700 S   0  0  0  0  0  0  0  0  0  0  0  0
   29.6390   30.9630   36.5020 C   0  0  0  0  0  0  0  0  0  0  0  0
   29.5250   29.5800   36.4330 C   0  0  0  0  0  0  0  0  0  0  0  0
   30.7060   28.8280   36.5360 C   0  0  0  0  0  0  0  0  0  0  0  0
   31.8910   29.4840   36.6960 N   0  0  0  0  0  0  0  0  0  0  0  0
   31.9430   30.8350   36.7580 C   0  0  0  0  0  0  0  0  0  0  0  0
   30.8190   31.5940   36.6610 N   0  0  0  0  0  0  0  0  0  0  0  0
   28.7430   31.5620   36.4250 H   0  0  0  0  0  0  0  0  0  0  0  0
   28.6000   29.0580   36.3060 H   0  0  0  0  0  0  0  0  0  0  0  0
   30.7160   27.7470   36.4930 H   0  0  0  0  0  0  0  0  0  0  0  0
   35.8780   29.7730   33.6730 O   0  0  0  0  0  0  0  0  0  0  0  0
   35.8920   28.5370   31.0020 Cl  0  0  0  0  0  0  0  0  0  0  0  0
   36.3830   27.8380   32.5280 C   0  0  0  0  0  0  0  0  0  0  0  0
   36.3380   28.5250   33.7210 C   0  0  0  0  0  0  0  0  0  0  0  0
   36.7770   27.8690   34.8730 C   0  0  0  0  0  0  0  0  0  0  0  0
   37.2380   26.5730   34.8110 C   0  0  0  0  0  0  0  0  0  0  0  0
   37.2860   25.8750   33.6190 C   0  0  0  0  0  0  0  0  0  0  0  0
   36.8550   26.5160   32.4720 C   0  0  0  0  0  0  0  0  0  0  0  0
   36.7840   28.3240   35.8470 H   0  0  0  0  0  0  0  0  0  0  0  0
   37.5860   26.0170   35.6620 H   0  0  0  0  0  0  0  0  0  0  0  0
   37.6440   24.8460   33.5280 H   0  0  0  0  0  0  0  0  0  0  0  0
   34.5710   25.2830   30.7440 O   0  0  0  0  0  0  0  0  0  0  0  0
   35.7490   24.8800   31.0020 C   0  0  0  0  0  0  0  0  0  0  0  0
   36.8990   25.7840   31.1860 C   0  0  2  0  0  3  0  0  0  0  0  0
   38.0810   24.8610   31.0710 C   0  0  0  0  0  3  0  0  0  0  0  0
   38.6050   24.7080   32.0400 H   0  0  0  0  0  0  0  0  0  0  0  0
   37.5650   23.4990   30.6500 C   0  0  0  0  0  3  0  0  0  0  0  0
   37.5890   23.3470   29.5530 H   0  0  0  0  0  0  0  0  0  0  0  0
   36.2080   23.5260   31.1660 N   0  0  0  0  0  0  0  0  0  0  0  0
   35.5920   22.7760   31.5910 H   0  0  0  0  0  0  0  0  0  0  0  0
  1  6  1  6  0  0  0
  1  2  1  0  0  0  0
  1 11  1  0  0  0  0
  2  7  1  6  0  0  0
  2 13  1  0  0  0  0
  3  2  1  0  0  0  0
  4  3  1  0  0  0  0
  4  5  1  0  0  0  0
  5  1  1  0  0  0  0
  5 10  1  1  0  0  0
  8  4  1  0  0  0  0
  9  4  1  0  0  0  0
 11 12  1  0  0  0  0
 14 19  1  0  0  0  0
 15 14  2  0  0  0  0
 15 16  1  0  0  0  0
 16 17  2  0  0  0  0
 17 18  1  0  0  0  0
 18 13  1  0  0  0  0
 19 18  2  0  0  0  0
 20 14  1  0  0  0  0
 21 15  1  0  0  0  0
 22 16  1  0  0  0  0
 23 26  1  0  0  0  0
 23  5  1  0  0  0  0
 24 25  1  0  0  0  0
 25 26  1  0  0  0  0
 26 27  2  0  0  0  0
 27 31  1  0  0  0  0
 28 27  1  0  0  0  0
 28 32  1  0  0  0  0
 29 28  2  0  0  0  0
 30 25  2  0  0  0  0
 30 29  1  0  0  0  0
 33 29  1  0  0  0  0
 34 35  2  0  0  0  0
 35 41  1  0  0  0  0
 35 36  1  0  0  0  0
 36 30  1  1  0  0  0
 37 36  1  0  0  0  0
 37 38  1  0  0  0  0
 39 37  1  0  0  0  0
 39 41  1  0  0  0  0
 40 39  1  0  0  0  0
 41 42  1  0  0  0  0
M  END
>  <minimizedAffinity>
-5.58587456

$$$$

 OpenBabel03272506493D

 42 45  0  0  1  0  0  0  0  0999 V2000
   36.0680   27.2320   31.4720 C   0  0  2  0  0  0  0  0  0  0  0  0
   35.3630   28.4510   31.9930 C   0  0  1  0  0  0  0  0  0  0  0  0
   35.7300   28.6260   33.2930 O   0  0  0  0  0  0  0  0  0  0  0  0
   36.8160   27.8060   33.5810 C   0  0  0  0  0  0  0  0  0  0  0  0
   37.4070   27.3730   32.2620 C   0  0  1  0  0  0  0  0  0  0  0  0
   35.6270   26.2760   31.7450 H   0  0  0  0  0  0  0  0  0  0  0  0
   34.2690   28.3480   31.8730 H   0  0  0  0  0  0  0  0  0  0  0  0
   37.5880   28.3590   34.1860 H   0  0  0  0  0  0  0  0  0  0  0  0
   36.4470   27.0220   34.2260 H   0  0  0  0  0  0  0  0  0  0  0  0
   37.9690   28.1730   31.7920 H   0  0  0  0  0  0  0  0  0  0  0  0
   36.3350   27.3670   30.0930 O   0  0  0  0  0  0  0  0  0  0  0  0
   37.2850   27.6170   29.9890 H   0  0  0  0  0  0  0  0  0  0  0  0
   35.9700   29.8970   31.0360 S   0  0  0  0  0  0  0  0  0  0  0  0
   36.4730   33.3810   32.8540 C   0  0  0  0  0  0  0  0  0  0  0  0
   35.2560   33.6590   33.4620 C   0  0  0  0  0  0  0  0  0  0  0  0
   34.2240   32.7210   33.3020 C   0  0  0  0  0  0  0  0  0  0  0  0
   34.4650   31.5980   32.5670 N   0  0  0  0  0  0  0  0  0  0  0  0
   35.6720   31.3780   31.9960 C   0  0  0  0  0  0  0  0  0  0  0  0
   36.6940   32.2650   32.1310 N   0  0  0  0  0  0  0  0  0  0  0  0
   37.2820   34.0890   32.9630 H   0  0  0  0  0  0  0  0  0  0  0  0
   35.0580   34.5370   34.0390 H   0  0  0  0  0  0  0  0  0  0  0  0
   33.2420   32.8510   33.7380 H   0  0  0  0  0  0  0  0  0  0  0  0
   38.0200   26.1560   32.4200 O   0  0  0  0  0  0  0  0  0  0  0  0
   37.6230   23.4400   33.4820 Cl  0  0  0  0  0  0  0  0  0  0  0  0
   38.8520   24.6080   33.9110 C   0  0  0  0  0  0  0  0  0  0  0  0
   38.9410   25.8550   33.3330 C   0  0  0  0  0  0  0  0  0  0  0  0
   39.9790   26.6950   33.7410 C   0  0  0  0  0  0  0  0  0  0  0  0
   40.8830   26.2830   34.6950 C   0  0  0  0  0  0  0  0  0  0  0  0
   40.8010   25.0350   35.2820 C   0  0  0  0  0  0  0  0  0  0  0  0
   39.7780   24.1950   34.8830 C   0  0  0  0  0  0  0  0  0  0  0  0
   40.1330   27.6830   33.3440 H   0  0  0  0  0  0  0  0  0  0  0  0
   41.7000   26.8850   35.0490 H   0  0  0  0  0  0  0  0  0  0  0  0
   41.4980   24.6700   36.0420 H   0  0  0  0  0  0  0  0  0  0  0  0
   37.6720   23.0080   36.8540 O   0  0  0  0  0  0  0  0  0  0  0  0
   38.9330   22.8640   36.7740 C   0  0  0  0  0  0  0  0  0  0  0  0
   39.6750   22.8520   35.5010 C   0  0  2  0  0  3  0  0  0  0  0  0
   41.0090   22.2750   35.8880 C   0  0  0  0  0  3  0  0  0  0  0  0
   41.8300   23.0260   35.8550 H   0  0  0  0  0  0  0  0  0  0  0  0
   40.9140   21.8170   37.3300 C   0  0  0  0  0  3  0  0  0  0  0  0
   40.6440   20.7460   37.4270 H   0  0  0  0  0  0  0  0  0  0  0  0
   39.8760   22.6890   37.8480 N   0  0  0  0  0  0  0  0  0  0  0  0
   39.7380   23.1520   38.7910 H   0  0  0  0  0  0  0  0  0  0  0  0
  1  6  1  1  0  0  0
  1  2  1  0  0  0  0
  1  5  1  0  0  0  0
  2  7  1  6  0  0  0
  2  3  1  0  0  0  0
  3  4  1  0  0  0  0
  4  8  1  0  0  0  0
  4  9  1  0  0  0  0
  5 10  1  6  0  0  0
  5 23  1  0  0  0  0
  5  4  1  0  0  0  0
 11  1  1  0  0  0  0
 12 11  1  0  0  0  0
 13  2  1  0  0  0  0
 13 18  1  0  0  0  0
 14 20  1  0  0  0  0
 14 15  1  0  0  0  0
 15 21  1  0  0  0  0
 16 15  2  0  0  0  0
 16 22  1  0  0  0  0
 17 16  1  0  0  0  0
 18 19  1  0  0  0  0
 18 17  2  0  0  0  0
 19 14  2  0  0  0  0
 23 26  1  0  0  0  0
 24 25  1  0  0  0  0
 25 30  1  0  0  0  0
 26 27  1  0  0  0  0
 26 25  2  0  0  0  0
 27 28  2  0  0  0  0
 28 32  1  0  0  0  0
 28 29  1  0  0  0  0
 29 33  1  0  0  0  0
 30 29  2  0  0  0  0
 31 27  1  0  0  0  0
 35 34  2  0  0  0  0
 35 41  1  0  0  0  0
 36 30  1  1  0  0  0
 36 37  1  0  0  0  0
 36 35  1  0  0  0  0
 37 39  1  0  0  0  0
 38 37  1  0  0  0  0
 39 40  1  0  0  0  0
 39 41  1  0  0  0  0
 41 42  1  0  0  0  0
M  END
>  <minimizedAffinity>
-5.56425953

$$$$

 OpenBabel03272506493D

 42 45  0  0  1  0  0  0  0  0999 V2000
   37.9330   27.0180   30.4890 C   0  0  2  0  0  0  0  0  0  0  0  0
   36.6550   27.7970   30.3840 C   0  0  1  0  0  0  0  0  0  0  0  0
   35.6680   27.0710   30.9800 O   0  0  0  0  0  0  0  0  0  0  0  0
   36.2360   26.0290   31.7060 C   0  0  0  0  0  0  0  0  0  0  0  0
   37.6980   26.3570   31.8830 C   0  0  1  0  0  0  0  0  0  0  0  0
   38.0600   26.2150   29.7650 H   0  0  0  0  0  0  0  0  0  0  0  0
   36.4270   28.0310   29.3270 H   0  0  0  0  0  0  0  0  0  0  0  0
   35.7410   25.9210   32.7100 H   0  0  0  0  0  0  0  0  0  0  0  0
   36.0070   25.1190   31.1680 H   0  0  0  0  0  0  0  0  0  0  0  0
   37.8470   27.1310   32.6290 H   0  0  0  0  0  0  0  0  0  0  0  0
   39.0380   27.8900   30.5770 O   0  0  0  0  0  0  0  0  0  0  0  0
   39.3170   27.9360   31.5240 H   0  0  0  0  0  0  0  0  0  0  0  0
   36.8700   29.3500   31.3420 S   0  0  0  0  0  0  0  0  0  0  0  0
   33.2180   30.4120   32.4530 C   0  0  0  0  0  0  0  0  0  0  0  0
   33.1200   30.0530   33.7920 C   0  0  0  0  0  0  0  0  0  0  0  0
   34.2420   29.4510   34.3820 C   0  0  0  0  0  0  0  0  0  0  0  0
   35.3570   29.2500   33.6230 N   0  0  0  0  0  0  0  0  0  0  0  0
   35.3960   29.6210   32.3220 C   0  0  0  0  0  0  0  0  0  0  0  0
   34.3280   30.2060   31.7180 N   0  0  0  0  0  0  0  0  0  0  0  0
   32.3660   30.8770   31.9770 H   0  0  0  0  0  0  0  0  0  0  0  0
   32.2500   30.2060   34.3940 H   0  0  0  0  0  0  0  0  0  0  0  0
   34.2600   29.1380   35.4180 H   0  0  0  0  0  0  0  0  0  0  0  0
   38.4110   25.1910   32.0070 O   0  0  0  0  0  0  0  0  0  0  0  0
   39.4960   26.1720   34.5610 Cl  0  0  0  0  0  0  0  0  0  0  0  0
   38.7510   24.6280   34.2150 C   0  0  0  0  0  0  0  0  0  0  0  0
   38.2700   24.2850   32.9720 C   0  0  0  0  0  0  0  0  0  0  0  0
   37.6750   23.0310   32.8210 C   0  0  0  0  0  0  0  0  0  0  0  0
   37.5770   22.1670   33.8890 C   0  0  0  0  0  0  0  0  0  0  0  0
   38.0570   22.5010   35.1410 C   0  0  0  0  0  0  0  0  0  0  0  0
   38.6470   23.7420   35.3000 C   0  0  0  0  0  0  0  0  0  0  0  0
   37.2660   22.6760   31.8920 H   0  0  0  0  0  0  0  0  0  0  0  0
   37.1310   21.1900   33.8340 H   0  0  0  0  0  0  0  0  0  0  0  0
   38.0000   21.8450   36.0130 H   0  0  0  0  0  0  0  0  0  0  0  0
   41.1520   22.7490   36.8700 O   0  0  0  0  0  0  0  0  0  0  0  0
   39.9780   23.0540   37.2540 C   0  0  0  0  0  0  0  0  0  0  0  0
   39.1680   24.1180   36.6350 C   0  0  2  0  0  3  0  0  0  0  0  0
   38.0820   24.3550   37.6490 C   0  0  0  0  0  3  0  0  0  0  0  0
   37.0860   24.0000   37.3050 H   0  0  0  0  0  0  0  0  0  0  0  0
   38.4170   23.5410   38.8830 C   0  0  0  0  0  3  0  0  0  0  0  0
   38.9800   24.1190   39.6430 H   0  0  0  0  0  0  0  0  0  0  0  0
   39.2110   22.4640   38.3200 N   0  0  0  0  0  0  0  0  0  0  0  0
   39.2900   21.4350   38.5600 H   0  0  0  0  0  0  0  0  0  0  0  0
  1  6  1  6  0  0  0
  1 11  1  0  0  0  0
  1  5  1  0  0  0  0
  2  7  1  6  0  0  0
  2  1  1  0  0  0  0
  2  3  1  0  0  0  0
  2 13  1  0  0  0  0
  3  4  1  0  0  0  0
  4  5  1  0  0  0  0
  4  8  1  0  0  0  0
  5 23  1  0  0  0  0
  5 10  1  1  0  0  0
  9  4  1  0  0  0  0
 11 12  1  0  0  0  0
 13 18  1  0  0  0  0
 14 15  1  0  0  0  0
 15 16  2  0  0  0  0
 15 21  1  0  0  0  0
 16 22  1  0  0  0  0
 17 16  1  0  0  0  0
 18 17  2  0  0  0  0
 19 18  1  0  0  0  0
 19 14  2  0  0  0  0
 20 14  1  0  0  0  0
 23 26  1  0  0  0  0
 25 24  1  0  0  0  0
 25 30  1  0  0  0  0
 26 25  2  0  0  0  0
 27 26  1  0  0  0  0
 27 28  2  0  0  0  0
 28 29  1  0  0  0  0
 29 30  2  0  0  0  0
 29 33  1  0  0  0  0
 31 27  1  0  0  0  0
 32 28  1  0  0  0  0
 34 35  2  0  0  0  0
 35 41  1  0  0  0  0
 36 30  1  6  0  0  0
 36 35  1  0  0  0  0
 36 37  1  0  0  0  0
 37 39  1  0  0  0  0
 38 37  1  0  0  0  0
 39 40  1  0  0  0  0
 41 42  1  0  0  0  0
 41 39  1  0  0  0  0
M  END
>  <minimizedAffinity>
-5.52154589

$$$$

 OpenBabel03272506493D

 42 45  0  0  1  0  0  0  0  0999 V2000
   37.2500   27.1350   30.5580 C   0  0  2  0  0  0  0  0  0  0  0  0
   37.1320   28.3430   29.6750 C   0  0  1  0  0  0  0  0  0  0  0  0
   36.3160   29.2400   30.2950 O   0  0  0  0  0  0  0  0  0  0  0  0
   36.1200   28.8500   31.6160 C   0  0  0  0  0  0  0  0  0  0  0  0
   37.1970   27.8460   31.9460 C   0  0  1  0  0  0  0  0  0  0  0  0
   36.4180   26.4350   30.5170 H   0  0  0  0  0  0  0  0  0  0  0  0
   36.7620   28.0570   28.6730 H   0  0  0  0  0  0  0  0  0  0  0  0
   36.1890   29.7320   32.3100 H   0  0  0  0  0  0  0  0  0  0  0  0
   35.0980   28.5030   31.6850 H   0  0  0  0  0  0  0  0  0  0  0  0
   38.1590   28.3250   32.0940 H   0  0  0  0  0  0  0  0  0  0  0  0
   38.5160   26.5310   30.4030 O   0  0  0  0  0  0  0  0  0  0  0  0
   39.0790   26.7990   31.1690 H   0  0  0  0  0  0  0  0  0  0  0  0
   38.8010   29.0990   29.5390 S   0  0  0  0  0  0  0  0  0  0  0  0
   40.1880   26.9470   26.5140 C   0  0  0  0  0  0  0  0  0  0  0  0
   40.5920   27.8710   25.5590 C   0  0  0  0  0  0  0  0  0  0  0  0
   40.4260   29.2320   25.8650 C   0  0  0  0  0  0  0  0  0  0  0  0
   39.8850   29.5740   27.0680 N   0  0  0  0  0  0  0  0  0  0  0  0
   39.5090   28.6300   27.9630 C   0  0  0  0  0  0  0  0  0  0  0  0
   39.6550   27.3040   27.7000 N   0  0  0  0  0  0  0  0  0  0  0  0
   40.3060   25.8950   26.3000 H   0  0  0  0  0  0  0  0  0  0  0  0
   41.0170   27.6120   24.6120 H   0  0  0  0  0  0  0  0  0  0  0  0
   40.7110   30.0230   25.1830 H   0  0  0  0  0  0  0  0  0  0  0  0
   36.7380   26.9970   32.9220 O   0  0  0  0  0  0  0  0  0  0  0  0
   37.6520   24.2000   32.8640 Cl  0  0  0  0  0  0  0  0  0  0  0  0
   37.8460   25.3830   34.1370 C   0  0  0  0  0  0  0  0  0  0  0  0
   37.3780   26.6750   34.0440 C   0  0  0  0  0  0  0  0  0  0  0  0
   37.6110   27.5370   35.1170 C   0  0  0  0  0  0  0  0  0  0  0  0
   38.2890   27.1010   36.2340 C   0  0  0  0  0  0  0  0  0  0  0  0
   38.7610   25.8060   36.3380 C   0  0  0  0  0  0  0  0  0  0  0  0
   38.5360   24.9450   35.2800 C   0  0  0  0  0  0  0  0  0  0  0  0
   37.2900   28.5620   35.1340 H   0  0  0  0  0  0  0  0  0  0  0  0
   38.4960   27.7170   37.0900 H   0  0  0  0  0  0  0  0  0  0  0  0
   39.3020   25.4210   37.2060 H   0  0  0  0  0  0  0  0  0  0  0  0
   37.1230   22.3250   36.2080 O   0  0  0  0  0  0  0  0  0  0  0  0
   38.3100   22.7510   36.3730 C   0  0  0  0  0  0  0  0  0  0  0  0
   39.0360   23.5540   35.3730 C   0  0  2  0  0  3  0  0  0  0  0  0
   40.4640   23.4680   35.8370 C   0  0  0  0  0  3  0  0  0  0  0  0
   40.8450   24.4310   36.2440 H   0  0  0  0  0  0  0  0  0  0  0  0
   40.5200   22.4750   36.9820 C   0  0  0  0  0  3  0  0  0  0  0  0
   40.7710   21.4480   36.6520 H   0  0  0  0  0  0  0  0  0  0  0  0
   39.1710   22.5610   37.5120 N   0  0  0  0  0  0  0  0  0  0  0  0
   38.7870   22.5080   38.4980 H   0  0  0  0  0  0  0  0  0  0  0  0
  1  6  1  6  0  0  0
  1  5  1  0  0  0  0
  2  7  1  6  0  0  0
  2  3  1  0  0  0  0
  2  1  1  0  0  0  0
  3  4  1  0  0  0  0
  4  9  1  0  0  0  0
  4  5  1  0  0  0  0
  4  8  1  0  0  0  0
  5 10  1  1  0  0  0
  5 23  1  0  0  0  0
 11  1  1  0  0  0  0
 11 12  1  0  0  0  0
 13  2  1  0  0  0  0
 14 19  1  0  0  0  0
 15 16  1  0  0  0  0
 15 14  2  0  0  0  0
 16 17  2  0  0  0  0
 17 18  1  0  0  0  0
 18 13  1  0  0  0  0
 19 18  2  0  0  0  0
 20 14  1  0  0  0  0
 21 15  1  0  0  0  0
 22 16  1  0  0  0  0
 23 26  1  0  0  0  0
 24 25  1  0  0  0  0
 25 30  1  0  0  0  0
 26 25  2  0  0  0  0
 26 27  1  0  0  0  0
 27 31  1  0  0  0  0
 27 28  2  0  0  0  0
 28 29  1  0  0  0  0
 28 32  1  0  0  0  0
 29 33  1  0  0  0  0
 30 29  2  0  0  0  0
 34 35  2  0  0  0  0
 35 41  1  0  0  0  0
 36 30  1  1  0  0  0
 36 37  1  0  0  0  0
 36 35  1  0  0  0  0
 37 38  1  0  0  0  0
 37 39  1  0  0  0  0
 39 41  1  0  0  0  0
 40 39  1  0  0  0  0
 41 42  1  0  0  0  0
M  END
>  <minimizedAffinity>
-5.47247028

$$$$

 OpenBabel03272506493D

 42 45  0  0  1  0  0  0  0  0999 V2000
   37.5460   27.2240   30.4250 C   0  0  2  0  0  0  0  0  0  0  0  0
   37.1450   28.5050   29.7520 C   0  0  1  0  0  0  0  0  0  0  0  0
   36.1610   29.0810   30.4960 O   0  0  0  0  0  0  0  0  0  0  0  0
   36.0810   28.4440   31.7300 C   0  0  0  0  0  0  0  0  0  0  0  0
   37.3600   27.6650   31.9100 C   0  0  1  0  0  0  0  0  0  0  0  0
   36.8910   26.3720   30.2530 H   0  0  0  0  0  0  0  0  0  0  0  0
   36.8300   28.3130   28.7090 H   0  0  0  0  0  0  0  0  0  0  0  0
   35.9640   29.1920   32.5620 H   0  0  0  0  0  0  0  0  0  0  0  0
   35.1640   27.8710   31.7210 H   0  0  0  0  0  0  0  0  0  0  0  0
   38.1940   28.3150   32.1540 H   0  0  0  0  0  0  0  0  0  0  0  0
   38.9110   26.9520   30.1970 O   0  0  0  0  0  0  0  0  0  0  0  0
   39.4140   27.2080   31.0080 H   0  0  0  0  0  0  0  0  0  0  0  0
   38.6010   29.6250   29.7760 S   0  0  0  0  0  0  0  0  0  0  0  0
   37.2180   31.9130   26.8520 C   0  0  0  0  0  0  0  0  0  0  0  0
   38.3410   32.3400   26.1540 C   0  0  0  0  0  0  0  0  0  0  0  0
   39.5920   31.8970   26.6120 C   0  0  0  0  0  0  0  0  0  0  0  0
   39.6430   31.0820   27.7030 N   0  0  0  0  0  0  0  0  0  0  0  0
   38.5140   30.6970   28.3440 C   0  0  0  0  0  0  0  0  0  0  0  0
   37.2870   31.1070   27.9290 N   0  0  0  0  0  0  0  0  0  0  0  0
   36.2440   32.2420   26.5180 H   0  0  0  0  0  0  0  0  0  0  0  0
   38.3100   32.9800   25.2980 H   0  0  0  0  0  0  0  0  0  0  0  0
   40.5220   32.1770   26.1330 H   0  0  0  0  0  0  0  0  0  0  0  0
   37.1210   26.5850   32.7220 O   0  0  0  0  0  0  0  0  0  0  0  0
   37.7580   23.7560   33.2250 Cl  0  0  0  0  0  0  0  0  0  0  0  0
   37.9260   25.1190   34.3080 C   0  0  0  0  0  0  0  0  0  0  0  0
   37.5990   26.4090   33.9520 C   0  0  0  0  0  0  0  0  0  0  0  0
   37.7950   27.4190   34.8960 C   0  0  0  0  0  0  0  0  0  0  0  0
   38.3000   27.1270   36.1440 C   0  0  0  0  0  0  0  0  0  0  0  0
   38.6290   25.8360   36.5100 C   0  0  0  0  0  0  0  0  0  0  0  0
   38.4390   24.8290   35.5820 C   0  0  0  0  0  0  0  0  0  0  0  0
   37.5750   28.4550   34.7090 H   0  0  0  0  0  0  0  0  0  0  0  0
   38.4710   27.8610   36.9100 H   0  0  0  0  0  0  0  0  0  0  0  0
   39.0310   25.5630   37.4890 H   0  0  0  0  0  0  0  0  0  0  0  0
   36.8890   22.7220   37.2800 O   0  0  0  0  0  0  0  0  0  0  0  0
   38.1270   22.9990   37.2000 C   0  0  0  0  0  0  0  0  0  0  0  0
   38.7870   23.4390   35.9580 C   0  0  2  0  0  3  0  0  0  0  0  0
   40.2490   23.2560   36.2640 C   0  0  0  0  0  3  0  0  0  0  0  0
   40.7900   24.2220   36.3760 H   0  0  0  0  0  0  0  0  0  0  0  0
   40.3570   22.5550   37.6030 C   0  0  0  0  0  3  0  0  0  0  0  0
   40.4410   21.4540   37.5090 H   0  0  0  0  0  0  0  0  0  0  0  0
   39.1170   22.9530   38.2450 N   0  0  0  0  0  0  0  0  0  0  0  0
   38.8760   23.1820   39.2510 H   0  0  0  0  0  0  0  0  0  0  0  0
  1  6  1  6  0  0  0
  1  5  1  0  0  0  0
  2  7  1  6  0  0  0
  2 13  1  0  0  0  0
  2  1  1  0  0  0  0
  2  3  1  0  0  0  0
  3  4  1  0  0  0  0
  4  5  1  0  0  0  0
  4  8  1  0  0  0  0
  5 10  1  1  0  0  0
  5 23  1  0  0  0  0
  9  4  1  0  0  0  0
 11  1  1  0  0  0  0
 11 12  1  0  0  0  0
 14 19  1  0  0  0  0
 15 16  1  0  0  0  0
 15 14  2  0  0  0  0
 16 17  2  0  0  0  0
 17 18  1  0  0  0  0
 18 13  1  0  0  0  0
 19 18  2  0  0  0  0
 20 14  1  0  0  0  0
 21 15  1  0  0  0  0
 22 16  1  0  0  0  0
 23 26  1  0  0  0  0
 24 25  1  0  0  0  0
 25 30  1  0  0  0  0
 26 25  2  0  0  0  0
 26 27  1  0  0  0  0
 27 28  2  0  0  0  0
 28 29  1  0  0  0  0
 28 32  1  0  0  0  0
 29 33  1  0  0  0  0
 30 29  2  0  0  0  0
 31 27  1  0  0  0  0
 35 34  2  0  0  0  0
 35 41  1  0  0  0  0
 36 30  1  1  0  0  0
 36 37  1  0  0  0  0
 36 35  1  0  0  0  0
 37 38  1  0  0  0  0
 37 39  1  0  0  0  0
 39 41  1  0  0  0  0
 40 39  1  0  0  0  0
 41 42  1  0  0  0  0
M  END
>  <minimizedAffinity>
-5.37372398

$$$$

 OpenBabel03272506493D

 42 45  0  0  1  0  0  0  0  0999 V2000
   35.1630   31.3370   34.4290 C   0  0  2  0  0  0  0  0  0  0  0  0
   33.6950   31.6220   34.5580 C   0  0  1  0  0  0  0  0  0  0  0  0
   33.0210   30.7040   33.8110 O   0  0  0  0  0  0  0  0  0  0  0  0
   33.8900   29.6830   33.4390 C   0  0  0  0  0  0  0  0  0  0  0  0
   35.0990   29.7810   34.3360 C   0  0  1  0  0  0  0  0  0  0  0  0
   35.6390   31.6990   33.5190 H   0  0  0  0  0  0  0  0  0  0  0  0
   33.4730   32.6610   34.2510 H   0  0  0  0  0  0  0  0  0  0  0  0
   33.4020   28.6770   33.5570 H   0  0  0  0  0  0  0  0  0  0  0  0
   34.0640   29.8000   32.3790 H   0  0  0  0  0  0  0  0  0  0  0  0
   34.8870   29.4130   35.3350 H   0  0  0  0  0  0  0  0  0  0  0  0
   35.8430   31.6960   35.6120 O   0  0  0  0  0  0  0  0  0  0  0  0
   36.0130   30.8720   36.1290 H   0  0  0  0  0  0  0  0  0  0  0  0
   33.2320   31.3700   36.3170 S   0  0  0  0  0  0  0  0  0  0  0  0
   31.7200   34.7910   37.6250 C   0  0  0  0  0  0  0  0  0  0  0  0
   32.7670   35.4340   38.2730 C   0  0  0  0  0  0  0  0  0  0  0  0
   34.0060   34.7750   38.3080 C   0  0  0  0  0  0  0  0  0  0  0  0
   34.1190   33.5540   37.7130 N   0  0  0  0  0  0  0  0  0  0  0  0
   33.0640   32.9740   37.0950 C   0  0  0  0  0  0  0  0  0  0  0  0
   31.8490   33.5830   37.0420 N   0  0  0  0  0  0  0  0  0  0  0  0
   30.7560   35.2790   37.5860 H   0  0  0  0  0  0  0  0  0  0  0  0
   32.6870   36.3910   38.7430 H   0  0  0  0  0  0  0  0  0  0  0  0
   34.8790   35.1970   38.7900 H   0  0  0  0  0  0  0  0  0  0  0  0
   36.1920   29.2770   33.6770 O   0  0  0  0  0  0  0  0  0  0  0  0
   36.1520   27.9830   31.0340 Cl  0  0  0  0  0  0  0  0  0  0  0  0
   36.6590   27.3120   32.5680 C   0  0  0  0  0  0  0  0  0  0  0  0
   36.6400   28.0250   33.7460 C   0  0  0  0  0  0  0  0  0  0  0  0
   37.0890   27.3900   34.9050 C   0  0  0  0  0  0  0  0  0  0  0  0
   37.5360   26.0870   34.8650 C   0  0  0  0  0  0  0  0  0  0  0  0
   37.5580   25.3630   33.6880 C   0  0  0  0  0  0  0  0  0  0  0  0
   37.1160   25.9840   32.5340 C   0  0  0  0  0  0  0  0  0  0  0  0
   37.1160   27.8660   35.8690 H   0  0  0  0  0  0  0  0  0  0  0  0
   37.8910   25.5470   35.7230 H   0  0  0  0  0  0  0  0  0  0  0  0
   37.9040   24.3290   33.6140 H   0  0  0  0  0  0  0  0  0  0  0  0
   34.7840   24.9090   30.7650 O   0  0  0  0  0  0  0  0  0  0  0  0
   35.9170   24.4150   31.0640 C   0  0  0  0  0  0  0  0  0  0  0  0
   37.1330   25.2230   31.2640 C   0  0  2  0  0  3  0  0  0  0  0  0
   38.2370   24.2020   31.2000 C   0  0  0  0  0  3  0  0  0  0  0  0
   38.7200   24.0270   32.1860 H   0  0  0  0  0  0  0  0  0  0  0  0
   37.6190   22.8800   30.7910 C   0  0  0  0  0  3  0  0  0  0  0  0
   37.6600   22.7030   29.6970 H   0  0  0  0  0  0  0  0  0  0  0  0
   36.2560   23.0310   31.2670 N   0  0  0  0  0  0  0  0  0  0  0  0
   35.5680   22.3440   31.6880 H   0  0  0  0  0  0  0  0  0  0  0  0
  1  6  1  6  0  0  0
  1  2  1  0  0  0  0
  1 11  1  0  0  0  0
  2  7  1  6  0  0  0
  2 13  1  0  0  0  0
  3  2  1  0  0  0  0
  4  8  1  0  0  0  0
  4  3  1  0  0  0  0
  4  5  1  0  0  0  0
  5  1  1  0  0  0  0
  5 10  1  1  0  0  0
  9  4  1  0  0  0  0
 11 12  1  0  0  0  0
 13 18  1  0  0  0  0
 14 15  1  0  0  0  0
 15 16  2  0  0  0  0
 15 21  1  0  0  0  0
 16 22  1  0  0  0  0
 17 16  1  0  0  0  0
 18 17  2  0  0  0  0
 19 18  1  0  0  0  0
 19 14  2  0  0  0  0
 20 14  1  0  0  0  0
 23 26  1  0  0  0  0
 23  5  1  0  0  0  0
 24 25  1  0  0  0  0
 25 26  1  0  0  0  0
 26 27  2  0  0  0  0
 27 31  1  0  0  0  0
 28 27  1  0  0  0  0
 28 32  1  0  0  0  0
 29 28  2  0  0  0  0
 30 25  2  0  0  0  0
 30 29  1  0  0  0  0
 33 29  1  0  0  0  0
 34 35  2  0  0  0  0
 35 36  1  0  0  0  0
 35 41  1  0  0  0  0
 36 30  1  1  0  0  0
 37 36  1  0  0  0  0
 37 38  1  0  0  0  0
 39 37  1  0  0  0  0
 39 41  1  0  0  0  0
 40 39  1  0  0  0  0
 41 42  1  0  0  0  0
M  END
>  <minimizedAffinity>
-5.36620617

$$$$
