
 OpenBabel03262521503D

 32 34  0  0  1  0  0  0  0  0999 V2000
   35.9730   29.8880   30.8840 C   0  0  0  0  0  0  0  0  0  0  0  0
   36.9120   28.9330   31.3280 C   0  0  0  0  0  0  0  0  0  0  0  0
   36.6600   28.3300   32.5600 C   0  0  0  0  0  0  0  0  0  0  0  0
   35.5400   28.7010   33.2380 N   0  0  0  0  0  0  0  0  0  0  0  0
   34.6670   29.6230   32.7720 C   0  0  0  0  0  0  0  0  0  0  0  0
   34.8890   30.2190   31.5830 N   0  0  0  0  0  0  0  0  0  0  0  0
   33.5380   29.9480   33.5330 N   0  0  0  0  0  0  0  0  0  0  0  0
   32.2910   30.3880   32.9270 C   0  0  0  0  0  0  0  0  0  0  0  0
   31.1690   29.5030   33.3680 C   0  0  0  0  0  0  0  0  0  0  0  0
   31.3790   28.7550   34.5340 N   0  0  0  0  0  0  0  0  0  0  0  0
   32.3750   29.1340   35.4650 C   0  0  0  0  0  0  0  0  0  0  0  0
   33.5490   29.8630   34.9720 C   0  0  2  0  0  0  0  0  0  0  0  0
   36.0690   30.4190   29.9380 H   0  0  0  0  0  0  0  0  0  0  0  0
   37.7570   28.7260   30.7020 H   0  0  0  0  0  0  0  0  0  0  0  0
   37.3600   27.6010   32.9210 H   0  0  0  0  0  0  0  0  0  0  0  0
   32.1190   31.4320   33.2810 H   0  0  0  0  0  0  0  0  0  0  0  0
   32.3710   30.4060   31.8280 H   0  0  0  0  0  0  0  0  0  0  0  0
   30.9150   28.8300   32.5190 H   0  0  0  0  0  0  0  0  0  0  0  0
   30.2710   30.1570   33.5000 H   0  0  0  0  0  0  0  0  0  0  0  0
   30.4840   28.5910   35.0380 H   0  0  0  0  0  0  0  0  0  0  0  0
   31.8610   29.7670   36.2370 H   0  0  0  0  0  0  0  0  0  0  0  0
   32.6630   28.2150   36.0260 H   0  0  0  0  0  0  0  0  0  0  0  0
   34.4860   29.3140   35.2840 H   0  0  0  0  0  0  0  0  0  0  0  0
   36.2800   31.1420   35.8810 O   0  0  0  0  0  0  0  0  0  0  0  0
   35.0690   31.4430   36.1180 C   0  0  0  0  0  0  0  0  0  0  0  0
   33.7120   31.2490   35.5470 C   0  0  2  0  0  3  0  0  0  0  0  0
   32.8200   31.5120   36.7110 C   0  0  0  0  0  3  0  0  0  0  0  0
   32.8070   30.6420   37.3820 H   0  0  0  0  0  0  0  0  0  0  0  0
   33.5410   32.6870   37.3820 C   0  0  0  0  0  3  0  0  0  0  0  0
   33.3580   33.5740   36.7250 H   0  0  0  0  0  0  0  0  0  0  0  0
   34.9170   32.2230   37.3220 N   0  0  0  0  0  0  0  0  0  0  0  0
   35.5620   32.5060   38.1170 H   0  0  0  0  0  0  0  0  0  0  0  0
  1  2  2  0  0  0  0
  1  6  1  0  0  0  0
  2  3  1  0  0  0  0
  3 15  1  0  0  0  0
  3  4  2  0  0  0  0
  5  4  1  0  0  0  0
  5  7  1  0  0  0  0
  6  5  2  0  0  0  0
  7 12  1  0  0  0  0
  8 16  1  0  0  0  0
  8  9  1  0  0  0  0
  8  7  1  0  0  0  0
  9 19  1  0  0  0  0
  9 10  1  0  0  0  0
 10 20  1  0  0  0  0
 10 11  1  0  0  0  0
 11 22  1  0  0  0  0
 11 21  1  0  0  0  0
 12 23  1  1  0  0  0
 12 11  1  0  0  0  0
 12 26  1  0  0  0  0
 13  1  1  0  0  0  0
 14  2  1  0  0  0  0
 17  8  1  0  0  0  0
 18  9  1  0  0  0  0
 24 25  2  0  0  0  0
 25 31  1  0  0  0  0
 26 25  1  1  0  0  0
 26 27  1  0  0  0  0
 27 28  1  0  0  0  0
 27 29  1  0  0  0  0
 30 29  1  0  0  0  0
 31 29  1  0  0  0  0
 31 32  1  0  0  0  0
M  END
>  <minimizedAffinity>
-5.17003345

$$$$

 OpenBabel03262521503D

 32 34  0  0  1  0  0  0  0  0999 V2000
   35.6670   20.6180   34.8380 C   0  0  0  0  0  0  0  0  0  0  0  0
   35.8120   20.3770   33.4550 C   0  0  0  0  0  0  0  0  0  0  0  0
   36.8290   21.0690   32.8000 C   0  0  0  0  0  0  0  0  0  0  0  0
   37.6010   21.9180   33.5310 N   0  0  0  0  0  0  0  0  0  0  0  0
   37.4250   22.1180   34.8580 C   0  0  0  0  0  0  0  0  0  0  0  0
   36.4480   21.4600   35.5140 N   0  0  0  0  0  0  0  0  0  0  0  0
   38.2640   23.0100   35.5360 N   0  0  0  0  0  0  0  0  0  0  0  0
   38.5930   22.8510   36.9440 C   0  0  0  0  0  0  0  0  0  0  0  0
   40.0770   22.7970   37.1180 C   0  0  0  0  0  0  0  0  0  0  0  0
   40.8520   23.3200   36.0740 N   0  0  0  0  0  0  0  0  0  0  0  0
   40.2920   24.2270   35.1430 C   0  0  0  0  0  0  0  0  0  0  0  0
   38.8530   24.1460   34.8710 C   0  0  2  0  0  0  0  0  0  0  0  0
   34.9080   20.1320   35.4490 H   0  0  0  0  0  0  0  0  0  0  0  0
   35.1400   19.6830   32.9910 H   0  0  0  0  0  0  0  0  0  0  0  0
   36.9600   20.9040   31.7470 H   0  0  0  0  0  0  0  0  0  0  0  0
   38.1770   23.7440   37.4680 H   0  0  0  0  0  0  0  0  0  0  0  0
   38.1140   21.9520   37.3620 H   0  0  0  0  0  0  0  0  0  0  0  0
   40.3580   21.7390   37.3130 H   0  0  0  0  0  0  0  0  0  0  0  0
   40.3140   23.3410   38.0660 H   0  0  0  0  0  0  0  0  0  0  0  0
   41.7490   23.7080   36.4330 H   0  0  0  0  0  0  0  0  0  0  0  0
   40.5250   25.2570   35.5250 H   0  0  0  0  0  0  0  0  0  0  0  0
   40.8960   24.1490   34.2090 H   0  0  0  0  0  0  0  0  0  0  0  0
   38.6900   24.0250   33.7590 H   0  0  0  0  0  0  0  0  0  0  0  0
   36.8340   25.6460   32.9740 O   0  0  0  0  0  0  0  0  0  0  0  0
   37.4280   25.9920   34.0420 C   0  0  0  0  0  0  0  0  0  0  0  0
   38.0760   25.3880   35.2340 C   0  0  2  0  0  3  0  0  0  0  0  0
   38.9370   26.4930   35.7410 C   0  0  0  0  0  3  0  0  0  0  0  0
   39.8440   26.5780   35.1260 H   0  0  0  0  0  0  0  0  0  0  0  0
   38.0290   27.7080   35.5160 C   0  0  0  0  0  3  0  0  0  0  0  0
   37.2290   27.6410   36.2940 H   0  0  0  0  0  0  0  0  0  0  0  0
   37.5330   27.4230   34.1800 N   0  0  0  0  0  0  0  0  0  0  0  0
   37.3340   28.2530   33.5470 H   0  0  0  0  0  0  0  0  0  0  0  0
  1 13  1  0  0  0  0
  1  6  1  0  0  0  0
  2  1  2  0  0  0  0
  3  2  1  0  0  0  0
  3  4  2  0  0  0  0
  4  5  1  0  0  0  0
  5  6  2  0  0  0  0
  5  7  1  0  0  0  0
  7  8  1  0  0  0  0
  8  9  1  0  0  0  0
  8 17  1  0  0  0  0
  8 16  1  0  0  0  0
  9 18  1  0  0  0  0
  9 19  1  0  0  0  0
 10 20  1  0  0  0  0
 10  9  1  0  0  0  0
 11 21  1  0  0  0  0
 11 10  1  0  0  0  0
 12 23  1  6  0  0  0
 12 11  1  0  0  0  0
 12 26  1  0  0  0  0
 12  7  1  0  0  0  0
 14  2  1  0  0  0  0
 15  3  1  0  0  0  0
 22 11  1  0  0  0  0
 24 25  2  0  0  0  0
 25 31  1  0  0  0  0
 26 25  1  6  0  0  0
 26 27  1  0  0  0  0
 28 27  1  0  0  0  0
 29 27  1  0  0  0  0
 29 30  1  0  0  0  0
 31 29  1  0  0  0  0
 32 31  1  0  0  0  0
M  END
>  <minimizedAffinity>
-4.74181557

$$$$

 OpenBabel03262521503D

 32 34  0  0  1  0  0  0  0  0999 V2000
   36.9430   27.6880   34.4720 C   0  0  0  0  0  0  0  0  0  0  0  0
   36.8170   27.4730   33.0820 C   0  0  0  0  0  0  0  0  0  0  0  0
   37.2250   26.2310   32.5990 C   0  0  0  0  0  0  0  0  0  0  0  0
   37.7120   25.3250   33.4900 N   0  0  0  0  0  0  0  0  0  0  0  0
   37.8150   25.5760   34.8150 C   0  0  0  0  0  0  0  0  0  0  0  0
   37.4260   26.7700   35.3070 N   0  0  0  0  0  0  0  0  0  0  0  0
   38.3280   24.5880   35.6640 N   0  0  0  0  0  0  0  0  0  0  0  0
   37.9260   24.4750   37.0570 C   0  0  0  0  0  0  0  0  0  0  0  0
   37.3990   23.1020   37.3270 C   0  0  0  0  0  0  0  0  0  0  0  0
   37.7630   22.0990   36.4200 N   0  0  0  0  0  0  0  0  0  0  0  0
   38.8920   22.2590   35.5810 C   0  0  0  0  0  0  0  0  0  0  0  0
   39.2890   23.6190   35.2000 C   0  0  2  0  0  0  0  0  0  0  0  0
   36.6550   28.6190   34.9560 H   0  0  0  0  0  0  0  0  0  0  0  0
   36.4180   28.2670   32.4830 H   0  0  0  0  0  0  0  0  0  0  0  0
   37.1400   26.0430   31.5450 H   0  0  0  0  0  0  0  0  0  0  0  0
   38.8440   24.6600   37.6660 H   0  0  0  0  0  0  0  0  0  0  0  0
   37.1800   25.2420   37.3170 H   0  0  0  0  0  0  0  0  0  0  0  0
   36.2910   23.1730   37.3980 H   0  0  0  0  0  0  0  0  0  0  0  0
   37.7390   22.8180   38.3540 H   0  0  0  0  0  0  0  0  0  0  0  0
   37.8150   21.1710   36.8900 H   0  0  0  0  0  0  0  0  0  0  0  0
   39.7530   21.7720   36.1130 H   0  0  0  0  0  0  0  0  0  0  0  0
   38.7310   21.6090   34.6900 H   0  0  0  0  0  0  0  0  0  0  0  0
   39.3430   23.6890   34.0730 H   0  0  0  0  0  0  0  0  0  0  0  0
   41.5600   24.8030   33.3660 O   0  0  0  0  0  0  0  0  0  0  0  0
   41.5750   24.2860   34.5260 C   0  0  0  0  0  0  0  0  0  0  0  0
   40.6650   24.0240   35.6700 C   0  0  2  0  0  3  0  0  0  0  0  0
   41.3720   22.9470   36.4180 C   0  0  0  0  0  3  0  0  0  0  0  0
   41.2310   21.9810   35.9140 H   0  0  0  0  0  0  0  0  0  0  0  0
   42.8310   23.4030   36.2930 C   0  0  0  0  0  3  0  0  0  0  0  0
   42.9350   24.2850   36.9720 H   0  0  0  0  0  0  0  0  0  0  0  0
   42.8720   23.7720   34.8880 N   0  0  0  0  0  0  0  0  0  0  0  0
   43.7890   23.6200   34.3710 H   0  0  0  0  0  0  0  0  0  0  0  0
  1 13  1  0  0  0  0
  1  6  1  0  0  0  0
  2  1  2  0  0  0  0
  3  2  1  0  0  0  0
  3  4  2  0  0  0  0
  4  5  1  0  0  0  0
  5  6  2  0  0  0  0
  5  7  1  0  0  0  0
  7  8  1  0  0  0  0
  8 17  1  0  0  0  0
  8  9  1  0  0  0  0
  8 16  1  0  0  0  0
  9 18  1  0  0  0  0
  9 19  1  0  0  0  0
 10 20  1  0  0  0  0
 10  9  1  0  0  0  0
 11 21  1  0  0  0  0
 11 10  1  0  0  0  0
 12 23  1  6  0  0  0
 12 11  1  0  0  0  0
 12  7  1  0  0  0  0
 12 26  1  0  0  0  0
 14  2  1  0  0  0  0
 15  3  1  0  0  0  0
 22 11  1  0  0  0  0
 24 25  2  0  0  0  0
 25 31  1  0  0  0  0
 26 25  1  6  0  0  0
 26 27  1  0  0  0  0
 28 27  1  0  0  0  0
 29 27  1  0  0  0  0
 29 30  1  0  0  0  0
 31 29  1  0  0  0  0
 32 31  1  0  0  0  0
M  END
>  <minimizedAffinity>
-4.72565079

$$$$

 OpenBabel03262521503D

 32 34  0  0  1  0  0  0  0  0999 V2000
   37.2850   26.1670   33.7670 C   0  0  0  0  0  0  0  0  0  0  0  0
   37.1360   27.1330   34.7850 C   0  0  0  0  0  0  0  0  0  0  0  0
   38.2030   27.2840   35.6700 C   0  0  0  0  0  0  0  0  0  0  0  0
   39.2990   26.4980   35.4910 N   0  0  0  0  0  0  0  0  0  0  0  0
   39.3980   25.5840   34.4990 C   0  0  0  0  0  0  0  0  0  0  0  0
   38.3790   25.4200   33.6310 N   0  0  0  0  0  0  0  0  0  0  0  0
   40.5620   24.8150   34.3850 N   0  0  0  0  0  0  0  0  0  0  0  0
   41.0390   24.3090   33.1070 C   0  0  0  0  0  0  0  0  0  0  0  0
   42.4440   24.7620   32.8710 C   0  0  0  0  0  0  0  0  0  0  0  0
   43.1720   25.1670   33.9970 N   0  0  0  0  0  0  0  0  0  0  0  0
   42.7790   24.7610   35.2950 C   0  0  0  0  0  0  0  0  0  0  0  0
   41.3610   24.4790   35.5380 C   0  0  2  0  0  0  0  0  0  0  0  0
   36.5170   25.9670   33.0230 H   0  0  0  0  0  0  0  0  0  0  0  0
   36.2220   27.6910   34.8220 H   0  0  0  0  0  0  0  0  0  0  0  0
   38.1140   28.0110   36.4540 H   0  0  0  0  0  0  0  0  0  0  0  0
   41.0000   23.1950   33.1750 H   0  0  0  0  0  0  0  0  0  0  0  0
   40.3780   24.6270   32.2860 H   0  0  0  0  0  0  0  0  0  0  0  0
   42.4140   25.5790   32.1170 H   0  0  0  0  0  0  0  0  0  0  0  0
   42.9770   23.9180   32.3650 H   0  0  0  0  0  0  0  0  0  0  0  0
   44.1880   24.9790   33.8730 H   0  0  0  0  0  0  0  0  0  0  0  0
   43.3710   23.8360   35.5290 H   0  0  0  0  0  0  0  0  0  0  0  0
   43.1810   25.5180   36.0080 H   0  0  0  0  0  0  0  0  0  0  0  0
   41.0000   25.1050   36.4080 H   0  0  0  0  0  0  0  0  0  0  0  0
   38.9330   23.5700   37.3270 O   0  0  0  0  0  0  0  0  0  0  0  0
   40.0190   23.0000   36.9990 C   0  0  0  0  0  0  0  0  0  0  0  0
   41.0650   23.0570   35.9460 C   0  0  2  0  0  3  0  0  0  0  0  0
   42.2230   22.3770   36.5900 C   0  0  0  0  0  3  0  0  0  0  0  0
   42.7140   23.0570   37.3010 H   0  0  0  0  0  0  0  0  0  0  0  0
   41.5230   21.2400   37.3430 C   0  0  0  0  0  3  0  0  0  0  0  0
   41.2080   20.5040   36.5620 H   0  0  0  0  0  0  0  0  0  0  0  0
   40.3990   21.9570   37.9200 N   0  0  0  0  0  0  0  0  0  0  0  0
   40.0470   21.6310   38.8680 H   0  0  0  0  0  0  0  0  0  0  0  0
  1  2  1  0  0  0  0
  2 14  1  0  0  0  0
  2  3  2  0  0  0  0
  3 15  1  0  0  0  0
  4  3  1  0  0  0  0
  5  4  2  0  0  0  0
  6  1  2  0  0  0  0
  6  5  1  0  0  0  0
  7  5  1  0  0  0  0
  7 12  1  0  0  0  0
  8 16  1  0  0  0  0
  8  7  1  0  0  0  0
  9  8  1  0  0  0  0
  9 10  1  0  0  0  0
 10 11  1  0  0  0  0
 11 21  1  0  0  0  0
 11 12  1  0  0  0  0
 11 22  1  0  0  0  0
 12 26  1  0  0  0  0
 12 23  1  1  0  0  0
 13  1  1  0  0  0  0
 17  8  1  0  0  0  0
 18  9  1  0  0  0  0
 19  9  1  0  0  0  0
 20 10  1  0  0  0  0
 25 24  2  0  0  0  0
 25 31  1  0  0  0  0
 26 27  1  1  0  0  0
 26 25  1  0  0  0  0
 27 28  1  0  0  0  0
 27 29  1  0  0  0  0
 29 31  1  0  0  0  0
 30 29  1  0  0  0  0
 31 32  1  0  0  0  0
M  END
>  <minimizedAffinity>
-4.70959711

$$$$

 OpenBabel03262521503D

 32 34  0  0  1  0  0  0  0  0999 V2000
   42.5730   26.9850   33.8630 C   0  0  0  0  0  0  0  0  0  0  0  0
   43.5950   26.0460   33.6110 C   0  0  0  0  0  0  0  0  0  0  0  0
   43.2370   24.6990   33.6550 C   0  0  0  0  0  0  0  0  0  0  0  0
   41.9420   24.3900   33.9350 N   0  0  0  0  0  0  0  0  0  0  0  0
   40.9940   25.3260   34.1710 C   0  0  0  0  0  0  0  0  0  0  0  0
   41.3170   26.6350   34.1340 N   0  0  0  0  0  0  0  0  0  0  0  0
   39.6840   24.9220   34.4530 N   0  0  0  0  0  0  0  0  0  0  0  0
   38.5280   25.7370   34.1120 C   0  0  0  0  0  0  0  0  0  0  0  0
   37.5840   24.9510   33.2600 C   0  0  0  0  0  0  0  0  0  0  0  0
   37.7110   23.5560   33.3010 N   0  0  0  0  0  0  0  0  0  0  0  0
   38.3630   22.9230   34.3860 C   0  0  0  0  0  0  0  0  0  0  0  0
   39.4050   23.6650   35.1030 C   0  0  2  0  0  0  0  0  0  0  0  0
   42.7400   28.0610   33.8530 H   0  0  0  0  0  0  0  0  0  0  0  0
   44.5790   26.4150   33.4000 H   0  0  0  0  0  0  0  0  0  0  0  0
   43.9970   23.9650   33.4670 H   0  0  0  0  0  0  0  0  0  0  0  0
   38.0380   26.0100   35.0770 H   0  0  0  0  0  0  0  0  0  0  0  0
   38.8360   26.6660   33.6070 H   0  0  0  0  0  0  0  0  0  0  0  0
   37.6870   25.3160   32.2140 H   0  0  0  0  0  0  0  0  0  0  0  0
   36.5480   25.2410   33.5690 H   0  0  0  0  0  0  0  0  0  0  0  0
   36.7940   23.0930   33.1340 H   0  0  0  0  0  0  0  0  0  0  0  0
   37.5590   22.6410   35.1170 H   0  0  0  0  0  0  0  0  0  0  0  0
   38.7350   21.9400   34.0130 H   0  0  0  0  0  0  0  0  0  0  0  0
   40.3570   23.0560   35.1120 H   0  0  0  0  0  0  0  0  0  0  0  0
   40.9580   22.3890   37.5280 O   0  0  0  0  0  0  0  0  0  0  0  0
   39.8310   22.9680   37.4380 C   0  0  0  0  0  0  0  0  0  0  0  0
   39.1040   23.9190   36.5600 C   0  0  2  0  0  3  0  0  0  0  0  0
   37.6780   23.6770   36.9160 C   0  0  0  0  0  3  0  0  0  0  0  0
   37.3190   22.7550   36.4380 H   0  0  0  0  0  0  0  0  0  0  0  0
   37.7760   23.4830   38.4340 C   0  0  0  0  0  3  0  0  0  0  0  0
   37.9690   24.4990   38.8600 H   0  0  0  0  0  0  0  0  0  0  0  0
   38.9390   22.6150   38.5140 N   0  0  0  0  0  0  0  0  0  0  0  0
   38.9580   21.8980   39.2990 H   0  0  0  0  0  0  0  0  0  0  0  0
  1  6  1  0  0  0  0
  2  3  1  0  0  0  0
  2  1  2  0  0  0  0
  3  4  2  0  0  0  0
  4  5  1  0  0  0  0
  5  7  1  0  0  0  0
  6  5  2  0  0  0  0
  7 12  1  0  0  0  0
  8  7  1  0  0  0  0
  8 16  1  0  0  0  0
  9 10  1  0  0  0  0
  9 19  1  0  0  0  0
  9  8  1  0  0  0  0
 10 11  1  0  0  0  0
 11 12  1  0  0  0  0
 11 21  1  0  0  0  0
 12 23  1  6  0  0  0
 12 26  1  0  0  0  0
 13  1  1  0  0  0  0
 14  2  1  0  0  0  0
 15  3  1  0  0  0  0
 17  8  1  0  0  0  0
 18  9  1  0  0  0  0
 20 10  1  0  0  0  0
 22 11  1  0  0  0  0
 25 24  2  0  0  0  0
 25 31  1  0  0  0  0
 26 27  1  6  0  0  0
 26 25  1  0  0  0  0
 27 29  1  0  0  0  0
 28 27  1  0  0  0  0
 29 31  1  0  0  0  0
 29 30  1  0  0  0  0
 31 32  1  0  0  0  0
M  END
>  <minimizedAffinity>
-4.68913031

$$$$

 OpenBabel03262521503D

 32 34  0  0  1  0  0  0  0  0999 V2000
   37.7740   24.3890   37.4030 C   0  0  0  0  0  0  0  0  0  0  0  0
   37.6920   23.0090   37.1200 C   0  0  0  0  0  0  0  0  0  0  0  0
   38.0350   22.6100   35.8290 C   0  0  0  0  0  0  0  0  0  0  0  0
   38.4190   23.5690   34.9430 N   0  0  0  0  0  0  0  0  0  0  0  0
   38.4820   24.8830   35.2590 C   0  0  0  0  0  0  0  0  0  0  0  0
   38.1560   25.2930   36.5020 N   0  0  0  0  0  0  0  0  0  0  0  0
   38.8870   25.8050   34.2870 N   0  0  0  0  0  0  0  0  0  0  0  0
   39.5710   27.0430   34.6270 C   0  0  0  0  0  0  0  0  0  0  0  0
   40.8720   27.1250   33.8950 C   0  0  0  0  0  0  0  0  0  0  0  0
   41.0080   26.3140   32.7610 N   0  0  0  0  0  0  0  0  0  0  0  0
   39.8660   25.8010   32.0990 C   0  0  0  0  0  0  0  0  0  0  0  0
   38.6470   25.5770   32.8840 C   0  0  2  0  0  0  0  0  0  0  0  0
   37.5310   24.8100   38.3770 H   0  0  0  0  0  0  0  0  0  0  0  0
   37.3760   22.3500   37.9050 H   0  0  0  0  0  0  0  0  0  0  0  0
   37.9800   21.5660   35.5890 H   0  0  0  0  0  0  0  0  0  0  0  0
   38.8980   27.8740   34.3080 H   0  0  0  0  0  0  0  0  0  0  0  0
   39.7250   27.1230   35.7150 H   0  0  0  0  0  0  0  0  0  0  0  0
   41.6850   26.9090   34.6220 H   0  0  0  0  0  0  0  0  0  0  0  0
   41.0160   28.1960   33.6060 H   0  0  0  0  0  0  0  0  0  0  0  0
   41.6410   26.7520   32.0610 H   0  0  0  0  0  0  0  0  0  0  0  0
   39.6300   26.5230   31.2720 H   0  0  0  0  0  0  0  0  0  0  0  0
   40.1880   24.8800   31.5610 H   0  0  0  0  0  0  0  0  0  0  0  0
   38.3130   24.5050   32.7550 H   0  0  0  0  0  0  0  0  0  0  0  0
   35.9050   24.4100   31.8670 O   0  0  0  0  0  0  0  0  0  0  0  0
   36.4350   25.5600   31.7760 C   0  0  0  0  0  0  0  0  0  0  0  0
   37.4600   26.4000   32.4460 C   0  0  2  0  0  3  0  0  0  0  0  0
   37.7970   27.4100   31.4040 C   0  0  0  0  0  3  0  0  0  0  0  0
   38.4620   26.9670   30.6490 H   0  0  0  0  0  0  0  0  0  0  0  0
   36.4160   27.6870   30.7980 C   0  0  0  0  0  3  0  0  0  0  0  0
   35.8630   28.2910   31.5580 H   0  0  0  0  0  0  0  0  0  0  0  0
   35.9020   26.3320   30.6810 N   0  0  0  0  0  0  0  0  0  0  0  0
   35.2560   26.1250   29.8630 H   0  0  0  0  0  0  0  0  0  0  0  0
  1 13  1  0  0  0  0
  2  1  1  0  0  0  0
  2 14  1  0  0  0  0
  3  2  2  0  0  0  0
  4  5  2  0  0  0  0
  4  3  1  0  0  0  0
  5  6  1  0  0  0  0
  6  1  2  0  0  0  0
  7  8  1  0  0  0  0
  7  5  1  0  0  0  0
  8 17  1  0  0  0  0
  9 18  1  0  0  0  0
  9  8  1  0  0  0  0
 10  9  1  0  0  0  0
 11 10  1  0  0  0  0
 11 12  1  0  0  0  0
 12 23  1  6  0  0  0
 12  7  1  0  0  0  0
 15  3  1  0  0  0  0
 16  8  1  0  0  0  0
 19  9  1  0  0  0  0
 20 10  1  0  0  0  0
 21 11  1  0  0  0  0
 22 11  1  0  0  0  0
 25 24  2  0  0  0  0
 25 26  1  0  0  0  0
 26 27  1  6  0  0  0
 26 12  1  0  0  0  0
 28 27  1  0  0  0  0
 29 27  1  0  0  0  0
 29 30  1  0  0  0  0
 31 29  1  0  0  0  0
 31 25  1  0  0  0  0
 32 31  1  0  0  0  0
M  END
>  <minimizedAffinity>
-4.68765402

$$$$

 OpenBabel03262521503D

 32 34  0  0  1  0  0  0  0  0999 V2000
   39.3570   22.5150   31.4420 C   0  0  0  0  0  0  0  0  0  0  0  0
   38.0300   22.4610   30.9620 C   0  0  0  0  0  0  0  0  0  0  0  0
   37.0800   23.2070   31.6570 C   0  0  0  0  0  0  0  0  0  0  0  0
   37.4930   23.9260   32.7360 N   0  0  0  0  0  0  0  0  0  0  0  0
   38.7770   23.9470   33.1600 C   0  0  0  0  0  0  0  0  0  0  0  0
   39.7150   23.2330   32.5040 N   0  0  0  0  0  0  0  0  0  0  0  0
   39.1190   24.7130   34.2810 N   0  0  0  0  0  0  0  0  0  0  0  0
   40.4380   25.3030   34.4480 C   0  0  0  0  0  0  0  0  0  0  0  0
   40.3150   26.7790   34.6490 C   0  0  0  0  0  0  0  0  0  0  0  0
   39.0660   27.2550   35.0690 N   0  0  0  0  0  0  0  0  0  0  0  0
   38.1330   26.3870   35.6850 C   0  0  0  0  0  0  0  0  0  0  0  0
   38.1740   24.9620   35.3410 C   0  0  2  0  0  0  0  0  0  0  0  0
   40.1780   21.9730   30.9770 H   0  0  0  0  0  0  0  0  0  0  0  0
   37.8290   21.8570   30.1000 H   0  0  0  0  0  0  0  0  0  0  0  0
   36.0640   23.1820   31.3120 H   0  0  0  0  0  0  0  0  0  0  0  0
   40.8840   24.8280   35.3540 H   0  0  0  0  0  0  0  0  0  0  0  0
   41.0840   25.0740   33.5850 H   0  0  0  0  0  0  0  0  0  0  0  0
   40.6180   27.2770   33.7010 H   0  0  0  0  0  0  0  0  0  0  0  0
   41.0960   27.0720   35.3940 H   0  0  0  0  0  0  0  0  0  0  0  0
   39.1680   28.1140   35.6470 H   0  0  0  0  0  0  0  0  0  0  0  0
   38.2880   26.4920   36.7920 H   0  0  0  0  0  0  0  0  0  0  0  0
   37.1210   26.8260   35.5190 H   0  0  0  0  0  0  0  0  0  0  0  0
   37.1520   24.6350   34.9840 H   0  0  0  0  0  0  0  0  0  0  0  0
   37.2020   21.9780   35.6060 O   0  0  0  0  0  0  0  0  0  0  0  0
   37.6590   22.8100   36.4490 C   0  0  0  0  0  0  0  0  0  0  0  0
   38.4810   24.0460   36.5010 C   0  0  2  0  0  3  0  0  0  0  0  0
   38.1190   24.6310   37.8230 C   0  0  0  0  0  3  0  0  0  0  0  0
   37.1390   25.1250   37.7630 H   0  0  0  0  0  0  0  0  0  0  0  0
   38.0250   23.3710   38.6920 C   0  0  0  0  0  3  0  0  0  0  0  0
   39.0770   23.0300   38.8520 H   0  0  0  0  0  0  0  0  0  0  0  0
   37.2820   22.4920   37.8040 N   0  0  0  0  0  0  0  0  0  0  0  0
   36.6180   21.7940   38.2520 H   0  0  0  0  0  0  0  0  0  0  0  0
  1  6  1  0  0  0  0
  2  1  2  0  0  0  0
  2  3  1  0  0  0  0
  3  4  2  0  0  0  0
  4  5  1  0  0  0  0
  5  7  1  0  0  0  0
  6  5  2  0  0  0  0
  7  8  1  0  0  0  0
  7 12  1  0  0  0  0
  8  9  1  0  0  0  0
  8 16  1  0  0  0  0
  9 10  1  0  0  0  0
  9 19  1  0  0  0  0
 10 20  1  0  0  0  0
 10 11  1  0  0  0  0
 11 21  1  0  0  0  0
 12 23  1  6  0  0  0
 12 11  1  0  0  0  0
 12 26  1  0  0  0  0
 13  1  1  0  0  0  0
 14  2  1  0  0  0  0
 15  3  1  0  0  0  0
 17  8  1  0  0  0  0
 18  9  1  0  0  0  0
 22 11  1  0  0  0  0
 24 25  2  0  0  0  0
 25 31  1  0  0  0  0
 26 25  1  6  0  0  0
 26 27  1  0  0  0  0
 27 29  1  0  0  0  0
 28 27  1  0  0  0  0
 29 30  1  0  0  0  0
 31 32  1  0  0  0  0
 31 29  1  0  0  0  0
M  END
>  <minimizedAffinity>
-4.63127899

$$$$

 OpenBabel03262521503D

 32 34  0  0  1  0  0  0  0  0999 V2000
   42.2580   25.8650   33.8980 C   0  0  0  0  0  0  0  0  0  0  0  0
   41.5510   27.0850   33.8420 C   0  0  0  0  0  0  0  0  0  0  0  0
   40.2710   27.0950   34.3940 C   0  0  0  0  0  0  0  0  0  0  0  0
   39.7990   25.9410   34.9400 N   0  0  0  0  0  0  0  0  0  0  0  0
   40.5140   24.7930   34.9700 C   0  0  0  0  0  0  0  0  0  0  0  0
   41.7550   24.7590   34.4440 N   0  0  0  0  0  0  0  0  0  0  0  0
   39.9540   23.6500   35.5510 N   0  0  0  0  0  0  0  0  0  0  0  0
   40.7650   22.6240   36.1880 C   0  0  0  0  0  0  0  0  0  0  0  0
   40.3090   22.4130   37.5960 C   0  0  0  0  0  0  0  0  0  0  0  0
   39.0150   22.8490   37.9100 N   0  0  0  0  0  0  0  0  0  0  0  0
   38.0560   23.0560   36.8900 C   0  0  0  0  0  0  0  0  0  0  0  0
   38.5300   23.4230   35.5510 C   0  0  2  0  0  0  0  0  0  0  0  0
   43.2640   25.7440   33.4990 H   0  0  0  0  0  0  0  0  0  0  0  0
   42.0310   27.9270   33.3850 H   0  0  0  0  0  0  0  0  0  0  0  0
   39.7120   28.0110   34.3630 H   0  0  0  0  0  0  0  0  0  0  0  0
   40.6180   21.6910   35.5930 H   0  0  0  0  0  0  0  0  0  0  0  0
   41.8340   22.8890   36.1550 H   0  0  0  0  0  0  0  0  0  0  0  0
   41.0520   22.8960   38.2690 H   0  0  0  0  0  0  0  0  0  0  0  0
   40.3950   21.3170   37.8060 H   0  0  0  0  0  0  0  0  0  0  0  0
   38.5950   22.2630   38.6610 H   0  0  0  0  0  0  0  0  0  0  0  0
   37.4680   22.1030   36.8110 H   0  0  0  0  0  0  0  0  0  0  0  0
   37.3150   23.7900   37.2840 H   0  0  0  0  0  0  0  0  0  0  0  0
   38.0230   24.3800   35.2260 H   0  0  0  0  0  0  0  0  0  0  0  0
   37.9840   24.1340   32.5320 O   0  0  0  0  0  0  0  0  0  0  0  0
   37.7300   23.1050   33.2310 C   0  0  0  0  0  0  0  0  0  0  0  0
   38.1890   22.4270   34.4710 C   0  0  2  0  0  3  0  0  0  0  0  0
   37.0330   21.5540   34.8190 C   0  0  0  0  0  3  0  0  0  0  0  0
   36.2340   22.1500   35.2830 H   0  0  0  0  0  0  0  0  0  0  0  0
   36.5950   21.0680   33.4330 C   0  0  0  0  0  3  0  0  0  0  0  0
   37.3700   20.3320   33.1070 H   0  0  0  0  0  0  0  0  0  0  0  0
   36.6570   22.3130   32.6850 N   0  0  0  0  0  0  0  0  0  0  0  0
   35.9520   22.4460   31.9010 H   0  0  0  0  0  0  0  0  0  0  0  0
  1  6  1  0  0  0  0
  2  1  2  0  0  0  0
  2  3  1  0  0  0  0
  3  4  2  0  0  0  0
  4  5  1  0  0  0  0
  5  7  1  0  0  0  0
  6  5  2  0  0  0  0
  7  8  1  0  0  0  0
  8  9  1  0  0  0  0
  9 19  1  0  0  0  0
  9 10  1  0  0  0  0
  9 18  1  0  0  0  0
 10 20  1  0  0  0  0
 11 22  1  0  0  0  0
 11 10  1  0  0  0  0
 12 23  1  6  0  0  0
 12  7  1  0  0  0  0
 12 11  1  0  0  0  0
 13  1  1  0  0  0  0
 14  2  1  0  0  0  0
 15  3  1  0  0  0  0
 16  8  1  0  0  0  0
 17  8  1  0  0  0  0
 21 11  1  0  0  0  0
 24 25  2  0  0  0  0
 26 25  1  6  0  0  0
 26 27  1  0  0  0  0
 26 12  1  0  0  0  0
 27 28  1  0  0  0  0
 29 27  1  0  0  0  0
 30 29  1  0  0  0  0
 31 25  1  0  0  0  0
 31 29  1  0  0  0  0
 32 31  1  0  0  0  0
M  END
>  <minimizedAffinity>
-4.60169506

$$$$

 OpenBabel03262521503D

 32 34  0  0  1  0  0  0  0  0999 V2000
   38.1570   23.8800   38.1710 C   0  0  0  0  0  0  0  0  0  0  0  0
   39.3020   23.0580   38.2490 C   0  0  0  0  0  0  0  0  0  0  0  0
   40.0390   22.8960   37.0760 C   0  0  0  0  0  0  0  0  0  0  0  0
   39.6070   23.5320   35.9540 N   0  0  0  0  0  0  0  0  0  0  0  0
   38.5010   24.3110   35.9270 C   0  0  0  0  0  0  0  0  0  0  0  0
   37.7720   24.4840   37.0490 N   0  0  0  0  0  0  0  0  0  0  0  0
   38.1250   24.9300   34.7290 N   0  0  0  0  0  0  0  0  0  0  0  0
   37.4100   26.1960   34.7000 C   0  0  0  0  0  0  0  0  0  0  0  0
   38.1660   27.1900   33.8780 C   0  0  0  0  0  0  0  0  0  0  0  0
   39.1060   26.6750   32.9760 N   0  0  0  0  0  0  0  0  0  0  0  0
   39.0330   25.3290   32.5470 C   0  0  0  0  0  0  0  0  0  0  0  0
   38.4280   24.3420   33.4480 C   0  0  2  0  0  0  0  0  0  0  0  0
   37.5100   24.0760   39.0240 H   0  0  0  0  0  0  0  0  0  0  0  0
   39.5400   22.6110   39.1930 H   0  0  0  0  0  0  0  0  0  0  0  0
   40.9140   22.2750   37.1090 H   0  0  0  0  0  0  0  0  0  0  0  0
   36.4180   25.9880   34.2320 H   0  0  0  0  0  0  0  0  0  0  0  0
   37.2370   26.5760   35.7190 H   0  0  0  0  0  0  0  0  0  0  0  0
   38.6550   27.9050   34.5760 H   0  0  0  0  0  0  0  0  0  0  0  0
   37.4090   27.7970   33.3220 H   0  0  0  0  0  0  0  0  0  0  0  0
   39.2050   27.2940   32.1450 H   0  0  0  0  0  0  0  0  0  0  0  0
   38.4530   25.3350   31.5850 H   0  0  0  0  0  0  0  0  0  0  0  0
   40.0600   25.0300   32.2340 H   0  0  0  0  0  0  0  0  0  0  0  0
   39.1560   23.4940   33.6150 H   0  0  0  0  0  0  0  0  0  0  0  0
   37.9880   21.2310   33.2270 O   0  0  0  0  0  0  0  0  0  0  0  0
   37.4040   22.2210   32.6890 C   0  0  0  0  0  0  0  0  0  0  0  0
   37.1880   23.6750   32.9060 C   0  0  2  0  0  3  0  0  0  0  0  0
   36.8040   24.1600   31.5510 C   0  0  0  0  0  3  0  0  0  0  0  0
   37.6960   24.2520   30.9150 H   0  0  0  0  0  0  0  0  0  0  0  0
   35.9190   23.0080   31.0590 C   0  0  0  0  0  3  0  0  0  0  0  0
   34.9620   23.0910   31.6310 H   0  0  0  0  0  0  0  0  0  0  0  0
   36.7190   21.8670   31.4700 N   0  0  0  0  0  0  0  0  0  0  0  0
   36.6840   21.0000   30.8560 H   0  0  0  0  0  0  0  0  0  0  0  0
  1  2  1  0  0  0  0
  1 13  1  0  0  0  0
  2 14  1  0  0  0  0
  3 15  1  0  0  0  0
  3  2  2  0  0  0  0
  4  3  1  0  0  0  0
  5  4  2  0  0  0  0
  5  6  1  0  0  0  0
  6  1  2  0  0  0  0
  7  5  1  0  0  0  0
  8  7  1  0  0  0  0
  8 17  1  0  0  0  0
  9 18  1  0  0  0  0
  9  8  1  0  0  0  0
 10  9  1  0  0  0  0
 11 10  1  0  0  0  0
 11 12  1  0  0  0  0
 12 23  1  1  0  0  0
 12  7  1  0  0  0  0
 16  8  1  0  0  0  0
 19  9  1  0  0  0  0
 20 10  1  0  0  0  0
 21 11  1  0  0  0  0
 22 11  1  0  0  0  0
 25 26  1  0  0  0  0
 25 24  2  0  0  0  0
 26 27  1  6  0  0  0
 26 12  1  0  0  0  0
 28 27  1  0  0  0  0
 29 31  1  0  0  0  0
 29 27  1  0  0  0  0
 29 30  1  0  0  0  0
 31 25  1  0  0  0  0
 32 31  1  0  0  0  0
M  END
>  <minimizedAffinity>
-4.50675821

$$$$
