
 OpenBabel03272506473D

 42 44  0  0  1  0  0  0  0  0999 V2000
   32.1680   28.5330   47.3520 C   0  0  2  0  0  0  0  0  0  0  0  0
   33.4070   28.3600   48.1800 C   0  0  1  0  0  0  0  0  0  0  0  0
   33.8370   27.0760   48.0320 O   0  0  0  0  0  0  0  0  0  0  0  0
   33.1610   26.4820   46.9710 C   0  0  0  0  0  0  0  0  0  0  0  0
   32.5400   27.5950   46.1620 C   0  0  1  0  0  0  0  0  0  0  0  0
   31.2470   28.1530   47.7920 H   0  0  0  0  0  0  0  0  0  0  0  0
   33.2080   28.6190   49.2370 H   0  0  0  0  0  0  0  0  0  0  0  0
   33.8650   25.8850   46.3290 H   0  0  0  0  0  0  0  0  0  0  0  0
   32.4800   25.7630   47.4050 H   0  0  0  0  0  0  0  0  0  0  0  0
   33.2810   28.1180   45.5670 H   0  0  0  0  0  0  0  0  0  0  0  0
   32.0710   29.8580   46.8770 O   0  0  0  0  0  0  0  0  0  0  0  0
   32.3650   29.8660   45.9330 H   0  0  0  0  0  0  0  0  0  0  0  0
   34.6970   29.4710   47.4910 S   0  0  0  0  0  0  0  0  0  0  0  0
   37.1000   29.2410   50.6330 C   0  0  0  0  0  0  0  0  0  0  0  0
   37.5730   30.5320   50.8310 C   0  0  0  0  0  0  0  0  0  0  0  0
   37.1260   31.5270   49.9460 C   0  0  0  0  0  0  0  0  0  0  0  0
   36.2620   31.1810   48.9500 N   0  0  0  0  0  0  0  0  0  0  0  0
   35.8330   29.9060   48.8040 C   0  0  0  0  0  0  0  0  0  0  0  0
   36.2450   28.9180   49.6420 N   0  0  0  0  0  0  0  0  0  0  0  0
   37.4300   28.4590   51.3020 H   0  0  0  0  0  0  0  0  0  0  0  0
   38.2510   30.8120   51.6090 H   0  0  0  0  0  0  0  0  0  0  0  0
   37.4400   32.5600   50.0220 H   0  0  0  0  0  0  0  0  0  0  0  0
   31.4170   27.1220   45.5320 O   0  0  0  0  0  0  0  0  0  0  0  0
   29.8380   29.2230   44.2060 Cl  0  0  0  0  0 15  0  0  0  0  0  0
   29.3400   28.1190   45.4690 C   0  0  0  0  0  3  0  0  0  0  0  0
   30.1740   27.1660   46.0080 C   0  0  0  0  0  0  0  0  0  0  0  0
   29.6580   26.3260   46.9970 C   0  0  0  0  0  0  0  0  0  0  0  0
   28.3530   26.4540   47.4170 C   0  0  0  0  0  0  0  0  0  0  0  0
   27.5080   27.4090   46.8830 C   0  0  0  0  0  0  0  0  0  0  0  0
   28.0100   28.2440   45.9020 C   0  0  0  0  0  0  0  0  0  0  0  0
   30.2300   25.5490   47.4730 H   0  0  0  0  0  0  0  0  0  0  0  0
   27.9010   25.8390   48.1740 H   0  0  0  0  0  0  0  0  0  0  0  0
   26.4670   27.5430   47.1880 H   0  0  0  0  0  0  0  0  0  0  0  0
   25.3060   27.9740   44.3710 O   0  0  0  0  0  0  0  0  0  0  0  0
   26.2970   28.7550   44.2100 C   0  0  0  0  0  0  0  0  0  0  0  0
   27.1190   29.2730   45.3170 C   0  0  2  0  0  3  0  0  0  0  0  0
   27.8680   30.4140   44.6840 C   0  0  0  0  0  3  0  0  0  0  0  0
   28.9530   30.2020   44.5580 H   0  0  0  0  0  0  0  0  0  0  0  0
   27.3120   30.6130   43.2880 C   0  0  0  0  0  3  0  0  0  0  0  0
   26.5080   31.3750   43.2450 H   0  0  0  0  0  0  0  0  0  0  0  0
   26.8170   29.2840   42.9750 N   0  0  0  0  0  0  0  0  0  0  0  0
   26.7910   28.7250   42.0750 H   0  0  0  0  0  0  0  0  0  0  0  0
  1  6  1  1  0  0  0
  1  2  1  0  0  0  0
  2  7  1  1  0  0  0
  3  2  1  0  0  0  0
  4  9  1  0  0  0  0
  4  3  1  0  0  0  0
  5 10  1  6  0  0  0
  5  4  1  0  0  0  0
  5  1  1  0  0  0  0
  8  4  1  0  0  0  0
 11  1  1  0  0  0  0
 12 11  1  0  0  0  0
 13  2  1  0  0  0  0
 13 18  1  0  0  0  0
 14 15  1  0  0  0  0
 14 20  1  0  0  0  0
 15 21  1  0  0  0  0
 16 22  1  0  0  0  0
 16 15  2  0  0  0  0
 17 16  1  0  0  0  0
 18 17  2  0  0  0  0
 18 19  1  0  0  0  0
 19 14  2  0  0  0  0
 23 26  1  0  0  0  0
 23  5  1  0  0  0  0
 25 30  2  0  0  0  0
 25 26  1  0  0  0  0
 26 27  2  0  0  0  0
 27 28  1  0  0  0  0
 27 31  1  0  0  0  0
 28 32  1  0  0  0  0
 29 33  1  0  0  0  0
 29 28  2  0  0  0  0
 30 29  1  0  0  0  0
 35 34  2  0  0  0  0
 35 36  1  0  0  0  0
 36 30  1  6  0  0  0
 37 36  1  0  0  0  0
 38 37  1  0  0  0  0
 39 37  1  0  0  0  0
 40 39  1  0  0  0  0
 41 39  1  0  0  0  0
 41 35  1  0  0  0  0
 42 41  1  0  0  0  0
M  END
>  <minimizedAffinity>
-5.08216524

>  <minimizedRMSD>
1.19134831

$$$$
