
 OpenBabel03272504333D

 40 43  0  0  1  0  0  0  0  0999 V2000
   35.4410   29.6330   47.7000 C   0  0  0  0  0  0  0  0  0  0  0  0
   35.6740   30.1130   46.4210 C   0  0  0  0  0  0  0  0  0  0  0  0
   34.6890   30.0230   45.4520 C   0  0  0  0  0  0  0  0  0  0  0  0
   33.5050   29.4510   45.8150 N   0  0  0  0  0  0  0  0  0  0  0  0
   33.3060   28.9920   47.0720 C   0  0  0  0  0  0  0  0  0  0  0  0
   34.2600   29.0770   48.0130 N   0  0  0  0  0  0  0  0  0  0  0  0
   36.6410   30.5440   46.2420 H   0  0  0  0  0  0  0  0  0  0  0  0
   34.8780   30.4000   44.4600 H   0  0  0  0  0  0  0  0  0  0  0  0
   36.4140   29.6940   48.7450 N   0  0  0  0  0  0  0  0  0  0  0  0
   36.3160   28.8870   49.9540 C   0  0  0  0  0  0  0  0  0  0  0  0
   36.6210   29.6140   51.2220 C   0  0  0  0  0  0  0  0  0  0  0  0
   37.4970   30.7120   51.1510 N   0  0  0  0  0  0  0  0  0  0  0  0
   37.3950   31.4770   49.9190 C   0  0  0  0  0  0  0  0  0  0  0  0
   37.5820   30.5030   48.7910 C   0  0  0  0  0  0  0  0  0  0  0  0
   37.0130   28.0160   49.8090 H   0  0  0  0  0  0  0  0  0  0  0  0
   35.2930   28.4380   49.9840 H   0  0  0  0  0  0  0  0  0  0  0  0
   35.6430   29.9080   51.6850 H   0  0  0  0  0  0  0  0  0  0  0  0
   37.0530   28.8610   51.9430 H   0  0  0  0  0  0  0  0  0  0  0  0
   38.4820   30.5600   51.4560 H   0  0  0  0  0  0  0  0  0  0  0  0
   36.4390   31.9990   49.8480 H   0  0  0  0  0  0  0  0  0  0  0  0
   38.2790   32.1590   49.9250 H   0  0  0  0  0  0  0  0  0  0  0  0
   38.4770   29.8720   48.9680 H   0  0  0  0  0  0  0  0  0  0  0  0
   37.7100   31.0320   47.8400 H   0  0  0  0  0  0  0  0  0  0  0  0
   32.0120   28.3900   47.3910 C   0  0  0  0  0  0  0  0  0  0  0  0
   31.8430   27.6910   48.5720 C   0  0  0  0  0  0  0  0  0  0  0  0
   30.6470   27.0980   48.9370 C   0  0  0  0  0  0  0  0  0  0  0  0
   29.6350   27.2420   48.0560 N   0  0  0  0  0  0  0  0  0  0  0  0
   29.8060   27.9240   46.9050 C   0  0  0  0  0  0  0  0  0  0  0  0
   30.9720   28.5000   46.5540 N   0  0  0  0  0  0  0  0  0  0  0  0
   32.6820   27.6010   49.2510 H   0  0  0  0  0  0  0  0  0  0  0  0
   30.5780   26.5650   49.8730 H   0  0  0  0  0  0  0  0  0  0  0  0
   28.9880   30.5190   45.5410 O   0  0  0  0  0  0  0  0  0  0  0  0
   28.2890   29.4740   45.7260 C   0  0  0  0  0  0  0  0  0  0  0  0
   28.6760   28.0690   45.9490 C   0  0  2  0  0  3  0  0  0  0  0  0
   27.3870   27.4720   46.5040 C   0  0  0  0  0  3  0  0  0  0  0  0
   27.3090   27.7700   47.5510 H   0  0  0  0  0  0  0  0  0  0  0  0
   26.3520   28.2070   45.6610 C   0  0  0  0  0  3  0  0  0  0  0  0
   26.4070   27.8160   44.6340 H   0  0  0  0  0  0  0  0  0  0  0  0
   26.8710   29.5750   45.7380 N   0  0  0  0  0  0  0  0  0  0  0  0
   26.2380   30.4230   45.7890 H   0  0  0  0  0  0  0  0  0  0  0  0
  1  6  1  0  0  0  0
  1  9  1  0  0  0  0
  2  1  2  0  0  0  0
  3  4  2  0  0  0  0
  3  2  1  0  0  0  0
  4  5  1  0  0  0  0
  5 24  1  0  0  0  0
  5  6  2  0  0  0  0
  7  2  1  0  0  0  0
  8  3  1  0  0  0  0
  9 14  1  0  0  0  0
  9 10  1  0  0  0  0
 10 16  1  0  0  0  0
 10 11  1  0  0  0  0
 11 17  1  0  0  0  0
 11 18  1  0  0  0  0
 12 11  1  0  0  0  0
 12 19  1  0  0  0  0
 13 21  1  0  0  0  0
 13 12  1  0  0  0  0
 14 22  1  0  0  0  0
 14 13  1  0  0  0  0
 15 10  1  0  0  0  0
 20 13  1  0  0  0  0
 23 14  1  0  0  0  0
 24 25  1  0  0  0  0
 25 26  2  0  0  0  0
 25 30  1  0  0  0  0
 26 31  1  0  0  0  0
 27 26  1  0  0  0  0
 28 27  2  0  0  0  0
 29 28  1  0  0  0  0
 29 24  2  0  0  0  0
 32 33  2  0  0  0  0
 33 39  1  0  0  0  0
 33 34  1  0  0  0  0
 34 35  1  0  0  0  0
 34 28  1  1  0  0  0
 35 36  1  0  0  0  0
 37 39  1  0  0  0  0
 37 35  1  0  0  0  0
 38 37  1  0  0  0  0
 39 40  1  0  0  0  0
M  END
>  <minimizedAffinity>
-5.29439926

>  <minimizedRMSD>
0.633018851

$$$$
