
 OpenBabel03272506013D

 46 49  0  0  1  0  0  0  0  0999 V2000
   35.1920   30.2520   49.8040 C   0  0  2  0  0  0  0  0  0  0  0  0
   36.1190   31.2830   49.3550 C   0  0  0  0  0  0  0  0  0  0  0  0
   37.6090   30.8380   49.4630 C   0  0  2  0  0  0  0  0  0  0  0  0
   38.0110   30.4590   50.7960 C   0  0  0  0  0  0  0  0  0  0  0  0
   36.9460   29.6710   51.5560 C   0  0  0  0  0  0  0  0  0  0  0  0
   35.8780   29.1650   50.6400 C   0  0  0  0  0  0  0  0  0  0  0  0
   34.4320   30.6740   50.5280 H   0  0  0  0  0  0  0  0  0  0  0  0
   36.0750   32.1570   50.0920 H   0  0  0  0  0  0  0  0  0  0  0  0
   36.0690   31.7410   48.3910 H   0  0  0  0  0  0  0  0  0  0  0  0
   37.7530   30.0440   48.7120 H   0  0  0  0  0  0  0  0  0  0  0  0
   38.2180   31.3430   51.4280 H   0  0  0  0  0  0  0  0  0  0  0  0
   38.9740   29.9100   50.7450 H   0  0  0  0  0  0  0  0  0  0  0  0
   36.5630   30.1970   52.4410 H   0  0  0  0  0  0  0  0  0  0  0  0
   37.4560   28.7670   51.9500 H   0  0  0  0  0  0  0  0  0  0  0  0
   35.1490   28.6140   51.2570 H   0  0  0  0  0  0  0  0  0  0  0  0
   36.3640   28.4720   49.9150 H   0  0  0  0  0  0  0  0  0  0  0  0
   38.3490   30.8520   46.6040 Cl  0  0  0  0  0  0  0  0  0  0  0  0
   38.7940   32.1420   47.6940 C   0  0  0  0  0  0  0  0  0  0  0  0
   38.3550   32.0460   48.9910 C   0  0  0  0  0  0  0  0  0  0  0  0
   38.7170   33.1240   49.7770 C   0  0  0  0  0  0  0  0  0  0  0  0
   39.4520   34.1950   49.3090 C   0  0  0  0  0  0  0  0  0  0  0  0
   39.8630   34.2160   47.9750 C   0  0  0  0  0  0  0  0  0  0  0  0
   39.5170   33.1480   47.1480 C   0  0  0  0  0  0  0  0  0  0  0  0
   38.4050   33.1280   50.8140 H   0  0  0  0  0  0  0  0  0  0  0  0
   39.6850   34.9870   49.9980 H   0  0  0  0  0  0  0  0  0  0  0  0
   40.4380   35.0500   47.6000 H   0  0  0  0  0  0  0  0  0  0  0  0
   39.9350   33.1710   45.7890 N   0  0  0  0  0  0  0  0  0  0  0  0
   39.9640   34.0860   45.2830 H   0  0  0  0  0  0  0  0  0  0  0  0
   40.2050   32.2720   45.3280 H   0  0  0  0  0  0  0  0  0  0  0  0
   34.4370   29.5610   48.7630 C   0  0  0  0  0  0  0  0  0  0  0  0
   34.7320   29.9740   47.4710 C   0  0  0  0  0  0  0  0  0  0  0  0
   34.0880   29.3570   46.4050 C   0  0  0  0  0  0  0  0  0  0  0  0
   33.1680   28.3440   46.6890 N   0  0  0  0  0  0  0  0  0  0  0  0
   32.9080   27.9710   47.9520 C   0  0  0  0  0  0  0  0  0  0  0  0
   33.5530   28.5940   48.9390 N   0  0  0  0  0  0  0  0  0  0  0  0
   35.3630   30.6970   46.9740 H   0  0  0  0  0  0  0  0  0  0  0  0
   34.1310   29.4810   45.3540 H   0  0  0  0  0  0  0  0  0  0  0  0
   31.5200   25.5420   46.2890 O   0  0  0  0  0  0  0  0  0  0  0  0
   31.2580   26.5450   47.0120 C   0  0  0  0  0  0  0  0  0  0  0  0
   31.9410   26.9050   48.2820 C   0  0  2  0  0  3  0  0  0  0  0  0
   30.8100   27.5170   49.0700 C   0  0  0  0  0  3  0  0  0  0  0  0
   31.2480   28.2990   49.7240 H   0  0  0  0  0  0  0  0  0  0  0  0
   29.8920   28.1460   48.0430 C   0  0  0  0  0  3  0  0  0  0  0  0
   28.8370   27.9200   48.3240 H   0  0  0  0  0  0  0  0  0  0  0  0
   30.2640   27.5410   46.7810 N   0  0  0  0  0  0  0  0  0  0  0  0
   29.8590   27.8080   45.8720 H   0  0  0  0  0  0  0  0  0  0  0  0
  1  7  1  1  0  0  0
  1  6  1  0  0  0  0
  2  3  1  0  0  0  0
  2  1  1  0  0  0  0
  2  8  1  0  0  0  0
  3 10  1  6  0  0  0
  3  4  1  0  0  0  0
  4 11  1  0  0  0  0
  4  5  1  0  0  0  0
  5 14  1  0  0  0  0
  5 13  1  0  0  0  0
  6 15  1  0  0  0  0
  6  5  1  0  0  0  0
  9  2  1  0  0  0  0
 12  4  1  0  0  0  0
 16  6  1  0  0  0  0
 17 18  1  0  0  0  0
 18 19  1  0  0  0  0
 19  3  1  0  0  0  0
 19 20  2  0  0  0  0
 20 24  1  0  0  0  0
 21 20  1  0  0  0  0
 21 25  1  0  0  0  0
 22 21  2  0  0  0  0
 23 18  2  0  0  0  0
 23 22  1  0  0  0  0
 26 22  1  0  0  0  0
 27 23  1  0  0  0  0
 28 27  1  0  0  0  0
 29 27  1  0  0  0  0
 30 35  1  0  0  0  0
 30  1  1  0  0  0  0
 31 30  2  0  0  0  0
 32 33  2  0  0  0  0
 32 31  1  0  0  0  0
 33 34  1  0  0  0  0
 34 35  2  0  0  0  0
 36 31  1  0  0  0  0
 37 32  1  0  0  0  0
 38 39  2  0  0  0  0
 39 40  1  0  0  0  0
 40 34  1  6  0  0  0
 40 41  1  0  0  0  0
 41 42  1  0  0  0  0
 43 44  1  0  0  0  0
 43 41  1  0  0  0  0
 45 39  1  0  0  0  0
 45 43  1  0  0  0  0
 46 45  1  0  0  0  0
M  END
>  <minimizedAffinity>
-8.04406738

>  <minimizedRMSD>
1.15370429

$$$$
