
 OpenBabel03272504333D

 40 43  0  0  1  0  0  0  0  0999 V2000
   35.3890   29.6230   47.7050 C   0  0  0  0  0  0  0  0  0  0  0  0
   35.5950   30.1320   46.4330 C   0  0  0  0  0  0  0  0  0  0  0  0
   34.5980   30.0430   45.4760 C   0  0  0  0  0  0  0  0  0  0  0  0
   33.4310   29.4430   45.8440 N   0  0  0  0  0  0  0  0  0  0  0  0
   33.2570   28.9560   47.0950 C   0  0  0  0  0  0  0  0  0  0  0  0
   34.2230   29.0400   48.0230 N   0  0  0  0  0  0  0  0  0  0  0  0
   36.5520   30.5840   46.2490 H   0  0  0  0  0  0  0  0  0  0  0  0
   34.7670   30.4420   44.4880 H   0  0  0  0  0  0  0  0  0  0  0  0
   36.3750   29.6820   48.7380 N   0  0  0  0  0  0  0  0  0  0  0  0
   36.2850   28.8840   49.9530 C   0  0  0  0  0  0  0  0  0  0  0  0
   36.6130   29.6160   51.2120 C   0  0  0  0  0  0  0  0  0  0  0  0
   37.4980   30.7050   51.1230 N   0  0  0  0  0  0  0  0  0  0  0  0
   37.3880   31.4630   49.8870 C   0  0  0  0  0  0  0  0  0  0  0  0
   37.5520   30.4800   48.7630 C   0  0  0  0  0  0  0  0  0  0  0  0
   36.9720   28.0050   49.8050 H   0  0  0  0  0  0  0  0  0  0  0  0
   35.2580   28.4450   49.9990 H   0  0  0  0  0  0  0  0  0  0  0  0
   35.6440   29.9230   51.6860 H   0  0  0  0  0  0  0  0  0  0  0  0
   37.0460   28.8640   51.9320 H   0  0  0  0  0  0  0  0  0  0  0  0
   38.4850   30.5460   51.4170 H   0  0  0  0  0  0  0  0  0  0  0  0
   36.4360   31.9940   49.8250 H   0  0  0  0  0  0  0  0  0  0  0  0
   38.2780   32.1370   49.8780 H   0  0  0  0  0  0  0  0  0  0  0  0
   38.4430   29.8420   48.9330 H   0  0  0  0  0  0  0  0  0  0  0  0
   37.6730   31.0010   47.8080 H   0  0  0  0  0  0  0  0  0  0  0  0
   31.9790   28.3250   47.4200 C   0  0  0  0  0  0  0  0  0  0  0  0
   31.9360   27.2460   48.2830 C   0  0  0  0  0  0  0  0  0  0  0  0
   30.7630   26.6030   48.6350 C   0  0  0  0  0  0  0  0  0  0  0  0
   29.6390   27.0970   48.0750 N   0  0  0  0  0  0  0  0  0  0  0  0
   29.6860   28.1490   47.2320 C   0  0  0  0  0  0  0  0  0  0  0  0
   30.8310   28.7730   46.8930 N   0  0  0  0  0  0  0  0  0  0  0  0
   32.8620   26.8820   48.7120 H   0  0  0  0  0  0  0  0  0  0  0  0
   30.7950   25.7650   49.3150 H   0  0  0  0  0  0  0  0  0  0  0  0
   27.4110   29.4640   48.7700 O   0  0  0  0  0  0  0  0  0  0  0  0
   27.3750   28.9270   47.6190 C   0  0  0  0  0  0  0  0  0  0  0  0
   28.4350   28.6770   46.6260 C   0  0  2  0  0  3  0  0  0  0  0  0
   27.7750   27.6520   45.7110 C   0  0  0  0  0  3  0  0  0  0  0  0
   27.8180   26.6850   46.2140 H   0  0  0  0  0  0  0  0  0  0  0  0
   26.3450   28.1780   45.6830 C   0  0  0  0  0  3  0  0  0  0  0  0
   26.3360   29.1070   45.0950 H   0  0  0  0  0  0  0  0  0  0  0  0
   26.1360   28.4490   47.1070 N   0  0  0  0  0  0  0  0  0  0  0  0
   25.2060   28.2910   47.5880 H   0  0  0  0  0  0  0  0  0  0  0  0
  1  6  1  0  0  0  0
  1  9  1  0  0  0  0
  2  1  2  0  0  0  0
  3  4  2  0  0  0  0
  3  2  1  0  0  0  0
  4  5  1  0  0  0  0
  5 24  1  0  0  0  0
  5  6  2  0  0  0  0
  7  2  1  0  0  0  0
  8  3  1  0  0  0  0
  9 14  1  0  0  0  0
  9 10  1  0  0  0  0
 10 16  1  0  0  0  0
 10 11  1  0  0  0  0
 11 17  1  0  0  0  0
 11 18  1  0  0  0  0
 12 11  1  0  0  0  0
 12 19  1  0  0  0  0
 13 12  1  0  0  0  0
 14 22  1  0  0  0  0
 14 13  1  0  0  0  0
 15 10  1  0  0  0  0
 20 13  1  0  0  0  0
 21 13  1  0  0  0  0
 23 14  1  0  0  0  0
 24 25  1  0  0  0  0
 25 26  2  0  0  0  0
 25 30  1  0  0  0  0
 26 31  1  0  0  0  0
 27 26  1  0  0  0  0
 28 27  2  0  0  0  0
 29 28  1  0  0  0  0
 29 24  2  0  0  0  0
 33 32  2  0  0  0  0
 34 28  1  1  0  0  0
 34 33  1  0  0  0  0
 35 36  1  0  0  0  0
 35 34  1  0  0  0  0
 37 35  1  0  0  0  0
 37 39  1  0  0  0  0
 38 37  1  0  0  0  0
 39 40  1  0  0  0  0
 39 33  1  0  0  0  0
M  END
>  <minimizedAffinity>
-5.73029041

>  <minimizedRMSD>
0.382766843

$$$$
