
 OpenBabel03272504333D

 40 43  0  0  1  0  0  0  0  0999 V2000
   35.2200   29.6900   47.5600 C   0  0  0  0  0  0  0  0  0  0  0  0
   35.3400   30.1570   46.2600 C   0  0  0  0  0  0  0  0  0  0  0  0
   34.3080   29.9740   45.3550 C   0  0  0  0  0  0  0  0  0  0  0  0
   33.1940   29.3260   45.8000 N   0  0  0  0  0  0  0  0  0  0  0  0
   33.1040   28.8820   47.0750 C   0  0  0  0  0  0  0  0  0  0  0  0
   34.1040   29.0580   47.9540 N   0  0  0  0  0  0  0  0  0  0  0  0
   36.2600   30.6530   46.0150 H   0  0  0  0  0  0  0  0  0  0  0  0
   34.4100   30.3400   44.3460 H   0  0  0  0  0  0  0  0  0  0  0  0
   36.2460   29.8460   48.5420 N   0  0  0  0  0  0  0  0  0  0  0  0
   36.3660   28.9640   49.6950 C   0  0  0  0  0  0  0  0  0  0  0  0
   36.6470   29.6550   50.9880 C   0  0  0  0  0  0  0  0  0  0  0  0
   37.3330   30.8820   50.9390 N   0  0  0  0  0  0  0  0  0  0  0  0
   37.0210   31.6910   49.7720 C   0  0  0  0  0  0  0  0  0  0  0  0
   37.2740   30.8280   48.5690 C   0  0  0  0  0  0  0  0  0  0  0  0
   37.1780   28.2260   49.4460 H   0  0  0  0  0  0  0  0  0  0  0  0
   35.4310   28.3550   49.7600 H   0  0  0  0  0  0  0  0  0  0  0  0
   35.6730   29.7600   51.5330 H   0  0  0  0  0  0  0  0  0  0  0  0
   37.2440   28.9410   51.6260 H   0  0  0  0  0  0  0  0  0  0  0  0
   38.3500   30.8730   51.1690 H   0  0  0  0  0  0  0  0  0  0  0  0
   35.9920   32.0560   49.7990 H   0  0  0  0  0  0  0  0  0  0  0  0
   37.7850   32.5050   49.7690 H   0  0  0  0  0  0  0  0  0  0  0  0
   38.2670   30.3400   48.6440 H   0  0  0  0  0  0  0  0  0  0  0  0
   37.2460   31.4250   47.6510 H   0  0  0  0  0  0  0  0  0  0  0  0
   31.8790   28.1950   47.4840 C   0  0  0  0  0  0  0  0  0  0  0  0
   31.9430   27.1080   48.3340 C   0  0  0  0  0  0  0  0  0  0  0  0
   30.8260   26.4130   48.7610 C   0  0  0  0  0  0  0  0  0  0  0  0
   29.6450   26.8660   48.2900 N   0  0  0  0  0  0  0  0  0  0  0  0
   29.5890   27.9270   47.4600 C   0  0  0  0  0  0  0  0  0  0  0  0
   30.6800   28.6010   47.0470 N   0  0  0  0  0  0  0  0  0  0  0  0
   32.9120   26.7780   48.6900 H   0  0  0  0  0  0  0  0  0  0  0  0
   30.9410   25.5700   49.4260 H   0  0  0  0  0  0  0  0  0  0  0  0
   29.1940   30.3050   45.6000 O   0  0  0  0  0  0  0  0  0  0  0  0
   28.3450   29.7640   46.3760 C   0  0  0  0  0  0  0  0  0  0  0  0
   28.2760   28.4090   46.9530 C   0  0  2  0  0  3  0  0  0  0  0  0
   27.2700   28.5980   48.0830 C   0  0  0  0  0  3  0  0  0  0  0  0
   27.7910   29.0840   48.9100 H   0  0  0  0  0  0  0  0  0  0  0  0
   26.2920   29.5670   47.4280 C   0  0  0  0  0  3  0  0  0  0  0  0
   25.7300   29.0150   46.6590 H   0  0  0  0  0  0  0  0  0  0  0  0
   27.2260   30.5190   46.8240 N   0  0  0  0  0  0  0  0  0  0  0  0
   27.0280   31.5570   46.7690 H   0  0  0  0  0  0  0  0  0  0  0  0
  1  6  1  0  0  0  0
  1  9  1  0  0  0  0
  2  1  2  0  0  0  0
  3  4  2  0  0  0  0
  3  2  1  0  0  0  0
  4  5  1  0  0  0  0
  5 24  1  0  0  0  0
  5  6  2  0  0  0  0
  7  2  1  0  0  0  0
  8  3  1  0  0  0  0
  9 14  1  0  0  0  0
  9 10  1  0  0  0  0
 10 16  1  0  0  0  0
 10 11  1  0  0  0  0
 11 17  1  0  0  0  0
 11 18  1  0  0  0  0
 12 11  1  0  0  0  0
 12 19  1  0  0  0  0
 13 20  1  0  0  0  0
 13 12  1  0  0  0  0
 14 22  1  0  0  0  0
 14 13  1  0  0  0  0
 15 10  1  0  0  0  0
 21 13  1  0  0  0  0
 23 14  1  0  0  0  0
 24 25  1  0  0  0  0
 25 30  1  0  0  0  0
 25 26  2  0  0  0  0
 26 31  1  0  0  0  0
 27 26  1  0  0  0  0
 28 27  2  0  0  0  0
 29 28  1  0  0  0  0
 29 24  2  0  0  0  0
 32 33  2  0  0  0  0
 33 39  1  0  0  0  0
 33 34  1  0  0  0  0
 34 28  1  1  0  0  0
 34 35  1  0  0  0  0
 35 36  1  0  0  0  0
 37 35  1  0  0  0  0
 38 37  1  0  0  0  0
 39 37  1  0  0  0  0
 40 39  1  0  0  0  0
M  END
>  <minimizedAffinity>
-5.20225763

>  <minimizedRMSD>
0.413877904

$$$$
