
 OpenBabel03272506013D

 46 49  0  0  1  0  0  0  0  0999 V2000
   35.2530   30.2590   49.7070 C   0  0  2  0  0  0  0  0  0  0  0  0
   36.1890   31.2640   49.2200 C   0  0  0  0  0  0  0  0  0  0  0  0
   37.6760   30.8230   49.3710 C   0  0  2  0  0  0  0  0  0  0  0  0
   38.0580   30.5100   50.7270 C   0  0  0  0  0  0  0  0  0  0  0  0
   36.9810   29.7620   51.5100 C   0  0  0  0  0  0  0  0  0  0  0  0
   35.9240   29.2140   50.6060 C   0  0  0  0  0  0  0  0  0  0  0  0
   34.4840   30.7180   50.3980 H   0  0  0  0  0  0  0  0  0  0  0  0
   36.1370   32.1740   49.9120 H   0  0  0  0  0  0  0  0  0  0  0  0
   36.1540   31.6740   48.2340 H   0  0  0  0  0  0  0  0  0  0  0  0
   37.8290   29.9910   48.6620 H   0  0  0  0  0  0  0  0  0  0  0  0
   38.2590   31.4230   51.3170 H   0  0  0  0  0  0  0  0  0  0  0  0
   39.0200   29.9560   50.7170 H   0  0  0  0  0  0  0  0  0  0  0  0
   36.5860   30.3330   52.3620 H   0  0  0  0  0  0  0  0  0  0  0  0
   37.4830   28.8780   51.9560 H   0  0  0  0  0  0  0  0  0  0  0  0
   35.1850   28.6960   51.2380 H   0  0  0  0  0  0  0  0  0  0  0  0
   36.4180   28.4850   49.9230 H   0  0  0  0  0  0  0  0  0  0  0  0
   38.6000   30.6210   46.5730 Cl  0  0  0  0  0  0  0  0  0  0  0  0
   38.9520   32.0040   47.5800 C   0  0  0  0  0  0  0  0  0  0  0  0
   38.4310   32.0040   48.8500 C   0  0  0  0  0  0  0  0  0  0  0  0
   38.7250   33.1490   49.5660 C   0  0  0  0  0  0  0  0  0  0  0  0
   39.4720   34.1950   49.0600 C   0  0  0  0  0  0  0  0  0  0  0  0
   39.9680   34.1160   47.7570 C   0  0  0  0  0  0  0  0  0  0  0  0
   39.6940   32.9780   47.0000 C   0  0  0  0  0  0  0  0  0  0  0  0
   38.3460   33.2300   50.5780 H   0  0  0  0  0  0  0  0  0  0  0  0
   39.6470   35.0440   49.6950 H   0  0  0  0  0  0  0  0  0  0  0  0
   40.5530   34.9290   47.3530 H   0  0  0  0  0  0  0  0  0  0  0  0
   40.1980   32.9000   45.6740 N   0  0  0  0  0  0  0  0  0  0  0  0
   40.2450   33.7720   45.0960 H   0  0  0  0  0  0  0  0  0  0  0  0
   40.5120   31.9730   45.3050 H   0  0  0  0  0  0  0  0  0  0  0  0
   34.5110   29.5180   48.6910 C   0  0  0  0  0  0  0  0  0  0  0  0
   34.8560   29.8350   47.3840 C   0  0  0  0  0  0  0  0  0  0  0  0
   34.2270   29.1640   46.3420 C   0  0  0  0  0  0  0  0  0  0  0  0
   33.2720   28.1960   46.6640 N   0  0  0  0  0  0  0  0  0  0  0  0
   32.9630   27.9160   47.9400 C   0  0  0  0  0  0  0  0  0  0  0  0
   33.5950   28.5880   48.9030 N   0  0  0  0  0  0  0  0  0  0  0  0
   35.5210   30.5060   46.8600 H   0  0  0  0  0  0  0  0  0  0  0  0
   34.3050   29.2150   45.2870 H   0  0  0  0  0  0  0  0  0  0  0  0
   31.5460   25.4290   46.3930 O   0  0  0  0  0  0  0  0  0  0  0  0
   31.2950   26.4810   47.0460 C   0  0  0  0  0  0  0  0  0  0  0  0
   31.9580   26.9010   48.3090 C   0  0  2  0  0  0  0  0  0  0  0  0
   30.8270   27.5890   49.0290 C   0  0  0  0  0  0  0  0  0  0  0  0
   31.2720   28.3980   49.6450 H   0  0  0  0  0  0  0  0  0  0  0  0
   29.9530   28.1800   47.9420 C   0  0  0  0  0  0  0  0  0  0  0  0
   28.8860   28.0000   48.2100 H   0  0  0  0  0  0  0  0  0  0  0  0
   30.3370   27.4880   46.7300 N   0  0  0  0  0  0  0  0  0  0  0  0
   29.9610   27.7090   45.7960 H   0  0  0  0  0  0  0  0  0  0  0  0
  1  7  1  1  0  0  0
  1  6  1  0  0  0  0
  2  3  1  0  0  0  0
  2  1  1  0  0  0  0
  2  8  1  0  0  0  0
  3 10  1  6  0  0  0
  3  4  1  0  0  0  0
  4 11  1  0  0  0  0
  4  5  1  0  0  0  0
  5 14  1  0  0  0  0
  5 13  1  0  0  0  0
  6 15  1  0  0  0  0
  6  5  1  0  0  0  0
  9  2  1  0  0  0  0
 12  4  1  0  0  0  0
 16  6  1  0  0  0  0
 17 18  1  0  0  0  0
 18 19  1  0  0  0  0
 19  3  1  0  0  0  0
 19 20  2  0  0  0  0
 20 24  1  0  0  0  0
 21 20  1  0  0  0  0
 21 25  1  0  0  0  0
 22 21  2  0  0  0  0
 23 18  2  0  0  0  0
 23 22  1  0  0  0  0
 26 22  1  0  0  0  0
 27 23  1  0  0  0  0
 28 27  1  0  0  0  0
 29 27  1  0  0  0  0
 30 35  1  0  0  0  0
 30  1  1  0  0  0  0
 31 30  2  0  0  0  0
 32 33  2  0  0  0  0
 32 31  1  0  0  0  0
 33 34  1  0  0  0  0
 34 35  2  0  0  0  0
 36 31  1  0  0  0  0
 37 32  1  0  0  0  0
 38 39  2  0  0  0  0
 39 40  1  0  0  0  0
 40 34  1  6  0  0  0
 40 41  1  0  0  0  0
 41 42  1  0  0  0  0
 43 44  1  0  0  0  0
 43 41  1  0  0  0  0
 45 39  1  0  0  0  0
 45 43  1  0  0  0  0
 46 45  1  0  0  0  0
M  END
>  <minimizedAffinity>
-8.1131897

>  <minimizedRMSD>
0.953699946

$$$$
