
 OpenBabel03272502173D

 33 35  0  0  1  0  0  0  0  0999 V2000
   37.3830   30.6850   48.6970 C   0  0  0  0  0  0  0  0  0  0  0  0
   37.4790   31.9280   49.3680 C   0  0  0  0  0  0  0  0  0  0  0  0
   38.3520   32.8800   48.8640 C   0  0  0  0  0  0  0  0  0  0  0  0
   39.0770   32.5680   47.7430 N   0  0  0  0  0  0  0  0  0  0  0  0
   38.9620   31.3800   47.1310 C   0  0  0  0  0  0  0  0  0  0  0  0
   38.1190   30.4430   47.6060 N   0  0  0  0  0  0  0  0  0  0  0  0
   36.9530   32.2390   50.2360 H   0  0  0  0  0  0  0  0  0  0  0  0
   38.4800   33.8530   49.3220 H   0  0  0  0  0  0  0  0  0  0  0  0
   39.6550   33.5900   45.1090 O   0  0  0  0  0  0  0  0  0  0  0  0
   39.8620   32.3410   45.0550 C   0  0  0  0  0  0  0  0  0  0  0  0
   39.7800   31.1100   45.9190 C   0  0  2  0  0  3  0  0  0  0  0  0
   39.1560   30.1460   44.9620 C   0  0  0  0  0  3  0  0  0  0  0  0
   39.2990   29.0930   45.3120 H   0  0  0  0  0  0  0  0  0  0  0  0
   39.9360   30.4220   43.6800 C   0  0  0  0  0  3  0  0  0  0  0  0
   40.8780   29.8160   43.6530 H   0  0  0  0  0  0  0  0  0  0  0  0
   40.3300   31.8090   43.8100 N   0  0  0  0  0  0  0  0  0  0  0  0
   40.8870   32.2590   43.0250 H   0  0  0  0  0  0  0  0  0  0  0  0
   36.2290   29.5860   49.4660 S   0  0  0  0  0  0  0  0  0  0  0  0
   33.6670   28.8180   49.0820 N   0  0  0  0  0  0  0  0  0  0  0  0
   34.5040   29.9960   48.9960 C   0  0  2  0  0  0  0  0  0  0  0  0
   34.5060   30.4710   47.5590 C   0  0  0  0  0  0  0  0  0  0  0  0
   33.4100   29.9300   46.8550 O   0  0  0  0  0  0  0  0  0  0  0  0
   33.7300   28.5620   46.7090 C   0  0  0  0  0  0  0  0  0  0  0  0
   34.0530   27.9050   48.0290 C   0  0  2  0  0  0  0  0  0  0  0  0
   32.6750   29.0640   49.0800 H   0  0  0  0  0  0  0  0  0  0  0  0
   34.1560   30.7620   49.6970 H   0  0  0  0  0  0  0  0  0  0  0  0
   35.4170   30.1470   47.0160 H   0  0  0  0  0  0  0  0  0  0  0  0
   34.4460   31.5830   47.5860 H   0  0  0  0  0  0  0  0  0  0  0  0
   32.9290   28.0420   46.1670 H   0  0  0  0  0  0  0  0  0  0  0  0
   34.6290   28.5610   46.0420 H   0  0  0  0  0  0  0  0  0  0  0  0
   35.1400   27.7110   48.1160 H   0  0  0  0  0  0  0  0  0  0  0  0
   33.3090   26.7180   48.1800 O   0  0  0  0  0  0  0  0  0  0  0  0
   33.9430   25.9590   48.1870 H   0  0  0  0  0  0  0  0  0  0  0  0
  1  2  1  0  0  0  0
  1 18  1  0  0  0  0
  2  7  1  0  0  0  0
  3  8  1  0  0  0  0
  3  2  2  0  0  0  0
  4  3  1  0  0  0  0
  5  6  1  0  0  0  0
  5  4  2  0  0  0  0
  6  1  2  0  0  0  0
 10  9  2  0  0  0  0
 10 11  1  0  0  0  0
 11  5  1  1  0  0  0
 12 13  1  0  0  0  0
 12 11  1  0  0  0  0
 14 16  1  0  0  0  0
 14 12  1  0  0  0  0
 15 14  1  0  0  0  0
 16 10  1  0  0  0  0
 17 16  1  0  0  0  0
 20 19  1  0  0  0  0
 20 18  1  0  0  0  0
 20 26  1  1  0  0  0
 21 28  1  0  0  0  0
 21 20  1  0  0  0  0
 22 21  1  0  0  0  0
 23 22  1  0  0  0  0
 23 24  1  0  0  0  0
 24 31  1  1  0  0  0
 24 32  1  0  0  0  0
 24 19  1  0  0  0  0
 25 19  1  0  0  0  0
 27 21  1  0  0  0  0
 29 23  1  0  0  0  0
 30 23  1  0  0  0  0
 32 33  1  0  0  0  0
M  END
>  <minimizedAffinity>
-5.72739553

>  <minimizedRMSD>
0.524274826

$$$$
