
 OpenBabel03272506473D

 42 45  0  0  1  0  0  0  0  0999 V2000
   32.2510   28.3130   47.4300 C   0  0  2  0  0  0  0  0  0  0  0  0
   33.4360   28.3770   48.3490 C   0  0  1  0  0  0  0  0  0  0  0  0
   34.0040   27.1400   48.3910 O   0  0  0  0  0  0  0  0  0  0  0  0
   33.4730   26.3530   47.3740 C   0  0  0  0  0  0  0  0  0  0  0  0
   32.8060   27.2860   46.3930 C   0  0  1  0  0  0  0  0  0  0  0  0
   31.3430   27.8890   47.8550 H   0  0  0  0  0  0  0  0  0  0  0  0
   33.1320   28.7370   49.3500 H   0  0  0  0  0  0  0  0  0  0  0  0
   34.2810   25.7650   46.8570 H   0  0  0  0  0  0  0  0  0  0  0  0
   32.8390   25.6210   47.8520 H   0  0  0  0  0  0  0  0  0  0  0  0
   33.5330   27.8130   45.7840 H   0  0  0  0  0  0  0  0  0  0  0  0
   32.0570   29.5530   46.7850 O   0  0  0  0  0  0  0  0  0  0  0  0
   32.4190   29.4810   45.8680 H   0  0  0  0  0  0  0  0  0  0  0  0
   34.6540   29.5340   47.6060 S   0  0  0  0  0  0  0  0  0  0  0  0
   37.2770   29.2800   50.5660 C   0  0  0  0  0  0  0  0  0  0  0  0
   37.7180   30.5800   50.7800 C   0  0  0  0  0  0  0  0  0  0  0  0
   37.1770   31.5890   49.9670 C   0  0  0  0  0  0  0  0  0  0  0  0
   36.2580   31.2470   49.0200 N   0  0  0  0  0  0  0  0  0  0  0  0
   35.8640   29.9630   48.8550 C   0  0  0  0  0  0  0  0  0  0  0  0
   36.3670   28.9610   49.6240 N   0  0  0  0  0  0  0  0  0  0  0  0
   37.6800   28.4870   51.1800 H   0  0  0  0  0  0  0  0  0  0  0  0
   38.4380   30.8570   51.5200 H   0  0  0  0  0  0  0  0  0  0  0  0
   37.4590   32.6290   50.0600 H   0  0  0  0  0  0  0  0  0  0  0  0
   31.7870   26.6210   45.7590 O   0  0  0  0  0  0  0  0  0  0  0  0
   30.2740   27.4460   43.3730 Cl  0  0  0  0  0  0  0  0  0  0  0  0
   29.6770   27.1290   44.9860 C   0  0  0  0  0  0  0  0  0  0  0  0
   30.4890   26.7380   46.0270 C   0  0  0  0  0  0  0  0  0  0  0  0
   29.8940   26.4930   47.2670 C   0  0  0  0  0  0  0  0  0  0  0  0
   28.5350   26.6420   47.4360 C   0  0  0  0  0  0  0  0  0  0  0  0
   27.7130   27.0350   46.3980 C   0  0  0  0  0  0  0  0  0  0  0  0
   28.2920   27.2790   45.1660 C   0  0  0  0  0  0  0  0  0  0  0  0
   30.4440   26.1790   48.1360 H   0  0  0  0  0  0  0  0  0  0  0  0
   28.0230   26.4700   48.3650 H   0  0  0  0  0  0  0  0  0  0  0  0
   26.6310   27.1650   46.4910 H   0  0  0  0  0  0  0  0  0  0  0  0
   26.5460   29.8350   44.7790 O   0  0  0  0  0  0  0  0  0  0  0  0
   26.3510   28.6190   44.4610 C   0  0  0  0  0  0  0  0  0  0  0  0
   27.4250   27.7010   44.0410 C   0  0  2  0  0  3  0  0  0  0  0  0
   26.6750   26.5590   43.4120 C   0  0  0  0  0  3  0  0  0  0  0  0
   26.7150   25.6290   44.0200 H   0  0  0  0  0  0  0  0  0  0  0  0
   25.2120   26.9520   43.3380 C   0  0  0  0  0  3  0  0  0  0  0  0
   24.9350   27.4120   42.3690 H   0  0  0  0  0  0  0  0  0  0  0  0
   25.1060   27.8960   44.4360 N   0  0  0  0  0  0  0  0  0  0  0  0
   24.3310   28.0980   45.1330 H   0  0  0  0  0  0  0  0  0  0  0  0
  1  6  1  1  0  0  0
  1  2  1  0  0  0  0
  2  3  1  0  0  0  0
  2  7  1  1  0  0  0
  4  9  1  0  0  0  0
  4  3  1  0  0  0  0
  5 10  1  6  0  0  0
  5  4  1  0  0  0  0
  5  1  1  0  0  0  0
  8  4  1  0  0  0  0
 11  1  1  0  0  0  0
 12 11  1  0  0  0  0
 13  2  1  0  0  0  0
 13 18  1  0  0  0  0
 14 15  1  0  0  0  0
 14 20  1  0  0  0  0
 15 21  1  0  0  0  0
 16 22  1  0  0  0  0
 16 15  2  0  0  0  0
 17 16  1  0  0  0  0
 18 17  2  0  0  0  0
 18 19  1  0  0  0  0
 19 14  2  0  0  0  0
 23 26  1  0  0  0  0
 23  5  1  0  0  0  0
 24 25  1  0  0  0  0
 25 30  2  0  0  0  0
 25 26  1  0  0  0  0
 26 27  2  0  0  0  0
 27 28  1  0  0  0  0
 27 31  1  0  0  0  0
 28 32  1  0  0  0  0
 29 33  1  0  0  0  0
 29 28  2  0  0  0  0
 30 29  1  0  0  0  0
 35 34  2  0  0  0  0
 36 35  1  0  0  0  0
 36 30  1  1  0  0  0
 37 38  1  0  0  0  0
 37 36  1  0  0  0  0
 39 37  1  0  0  0  0
 39 41  1  0  0  0  0
 40 39  1  0  0  0  0
 41 35  1  0  0  0  0
 41 42  1  0  0  0  0
M  END
>  <minimizedAffinity>
-5.37726593

>  <minimizedRMSD>
1.15446818

$$$$
