
 OpenBabel03272504333D

 40 43  0  0  1  0  0  0  0  0999 V2000
   35.0580   29.6160   47.5580 C   0  0  0  0  0  0  0  0  0  0  0  0
   35.2180   30.0400   46.2480 C   0  0  0  0  0  0  0  0  0  0  0  0
   34.1880   29.8880   45.3350 C   0  0  0  0  0  0  0  0  0  0  0  0
   33.0360   29.3130   45.7830 N   0  0  0  0  0  0  0  0  0  0  0  0
   32.9070   28.9100   47.0690 C   0  0  0  0  0  0  0  0  0  0  0  0
   33.9050   29.0560   47.9550 N   0  0  0  0  0  0  0  0  0  0  0  0
   36.1660   30.4790   46.0010 H   0  0  0  0  0  0  0  0  0  0  0  0
   34.3210   30.2200   44.3180 H   0  0  0  0  0  0  0  0  0  0  0  0
   36.0800   29.7440   48.5490 N   0  0  0  0  0  0  0  0  0  0  0  0
   36.1440   28.8820   49.7220 C   0  0  0  0  0  0  0  0  0  0  0  0
   36.4450   29.5870   51.0030 C   0  0  0  0  0  0  0  0  0  0  0  0
   37.1900   30.7780   50.9350 N   0  0  0  0  0  0  0  0  0  0  0  0
   36.9310   31.5760   49.7480 C   0  0  0  0  0  0  0  0  0  0  0  0
   37.1550   30.6750   48.5660 C   0  0  0  0  0  0  0  0  0  0  0  0
   36.9220   28.1010   49.4980 H   0  0  0  0  0  0  0  0  0  0  0  0
   35.1800   28.3220   49.7890 H   0  0  0  0  0  0  0  0  0  0  0  0
   35.4720   29.7520   51.5340 H   0  0  0  0  0  0  0  0  0  0  0  0
   36.9990   28.8590   51.6630 H   0  0  0  0  0  0  0  0  0  0  0  0
   38.2030   30.7250   51.1770 H   0  0  0  0  0  0  0  0  0  0  0  0
   35.9220   31.9910   49.7550 H   0  0  0  0  0  0  0  0  0  0  0  0
   37.7350   32.3520   49.7360 H   0  0  0  0  0  0  0  0  0  0  0  0
   38.1210   30.1410   48.6630 H   0  0  0  0  0  0  0  0  0  0  0  0
   37.1660   31.2530   47.6360 H   0  0  0  0  0  0  0  0  0  0  0  0
   31.6430   28.3020   47.4800 C   0  0  0  0  0  0  0  0  0  0  0  0
   31.6170   27.3830   48.5120 C   0  0  0  0  0  0  0  0  0  0  0  0
   30.4580   26.7700   48.9520 C   0  0  0  0  0  0  0  0  0  0  0  0
   29.3290   27.1280   48.3040 N   0  0  0  0  0  0  0  0  0  0  0  0
   29.3600   28.0250   47.2970 C   0  0  0  0  0  0  0  0  0  0  0  0
   30.4920   28.6190   46.8720 N   0  0  0  0  0  0  0  0  0  0  0  0
   32.5460   27.1250   49.0060 H   0  0  0  0  0  0  0  0  0  0  0  0
   30.5030   26.0590   49.7640 H   0  0  0  0  0  0  0  0  0  0  0  0
   28.5910   27.1560   44.4830 O   0  0  0  0  0  0  0  0  0  0  0  0
   28.1550   28.1490   45.1460 C   0  0  0  0  0  0  0  0  0  0  0  0
   28.1040   28.4040   46.5970 C   0  0  2  0  0  3  0  0  0  0  0  0
   27.8660   29.9100   46.6430 C   0  0  0  0  0  3  0  0  0  0  0  0
   28.8200   30.4010   46.4410 H   0  0  0  0  0  0  0  0  0  0  0  0
   26.9190   30.0810   45.4620 C   0  0  0  0  0  3  0  0  0  0  0  0
   25.9460   29.6470   45.7410 H   0  0  0  0  0  0  0  0  0  0  0  0
   27.5970   29.2600   44.4570 N   0  0  0  0  0  0  0  0  0  0  0  0
   27.6200   29.5190   43.4300 H   0  0  0  0  0  0  0  0  0  0  0  0
  1  6  1  0  0  0  0
  1  9  1  0  0  0  0
  2  1  2  0  0  0  0
  3  4  2  0  0  0  0
  3  2  1  0  0  0  0
  4  5  1  0  0  0  0
  5 24  1  0  0  0  0
  5  6  2  0  0  0  0
  7  2  1  0  0  0  0
  8  3  1  0  0  0  0
  9 14  1  0  0  0  0
  9 10  1  0  0  0  0
 10 16  1  0  0  0  0
 10 11  1  0  0  0  0
 11 17  1  0  0  0  0
 11 18  1  0  0  0  0
 12 11  1  0  0  0  0
 12 19  1  0  0  0  0
 13 20  1  0  0  0  0
 13 12  1  0  0  0  0
 14 22  1  0  0  0  0
 14 13  1  0  0  0  0
 15 10  1  0  0  0  0
 21 13  1  0  0  0  0
 23 14  1  0  0  0  0
 24 25  1  0  0  0  0
 25 26  2  0  0  0  0
 25 30  1  0  0  0  0
 26 31  1  0  0  0  0
 27 26  1  0  0  0  0
 28 27  2  0  0  0  0
 29 28  1  0  0  0  0
 29 24  2  0  0  0  0
 32 33  2  0  0  0  0
 33 34  1  0  0  0  0
 34 35  1  0  0  0  0
 34 28  1  1  0  0  0
 36 35  1  0  0  0  0
 37 38  1  0  0  0  0
 37 35  1  0  0  0  0
 39 33  1  0  0  0  0
 39 37  1  0  0  0  0
 40 39  1  0  0  0  0
M  END
>  <minimizedAffinity>
-5.08173275

>  <minimizedRMSD>
0.211460322

$$$$
