
 OpenBabel03272505183D

 33 35  0  0  1  0  0  0  0  0999 V2000
   37.3300   29.6470   50.2290 C   0  0  0  0  0  0  0  0  0  0  0  0
   38.1970   30.2400   49.2910 C   0  0  0  0  0  0  0  0  0  0  0  0
   37.7490   30.5880   48.0240 C   0  0  0  0  0  0  0  0  0  0  0  0
   36.4420   30.2990   47.8140 N   0  0  0  0  0  0  0  0  0  0  0  0
   35.6080   29.7390   48.6900 C   0  0  0  0  0  0  0  0  0  0  0  0
   36.0580   29.4080   49.9120 N   0  0  0  0  0  0  0  0  0  0  0  0
   37.7650   29.4090   51.1930 H   0  0  0  0  0  0  0  0  0  0  0  0
   39.2160   30.4220   49.5700 H   0  0  0  0  0  0  0  0  0  0  0  0
   39.1270   32.4680   47.3740 C   0  0  0  0  0  0  0  0  0  0  0  0
   38.7030   31.1900   47.1270 C   0  0  0  0  0  0  0  0  0  0  0  0
   39.2220   30.5590   46.0260 C   0  0  0  0  0  0  0  0  0  0  0  0
   40.1140   31.1520   45.2050 C   0  0  0  0  0  0  0  0  0  0  0  0
   40.5650   32.4450   45.4230 C   0  0  0  0  0  0  0  0  0  0  0  0
   40.0500   33.0760   46.5210 C   0  0  0  0  0  0  0  0  0  0  0  0
   38.8800   29.5430   45.8380 H   0  0  0  0  0  0  0  0  0  0  0  0
   40.4660   30.5740   44.3600 H   0  0  0  0  0  0  0  0  0  0  0  0
   41.2810   32.8790   44.7370 H   0  0  0  0  0  0  0  0  0  0  0  0
   40.4450   34.0850   46.6310 H   0  0  0  0  0  0  0  0  0  0  0  0
   39.4600   34.3840   48.7750 N   0  0  0  0  0  0  0  0  0  0  0  0
   38.7420   33.3330   48.4520 C   0  0  0  0  0  0  0  0  0  0  0  0
   37.7600   33.5300   49.4420 N   0  0  0  0  0  0  0  0  0  0  0  0
   39.1630   35.0110   49.5570 H   0  0  0  0  0  0  0  0  0  0  0  0
   37.8170   33.0210   50.3580 H   0  0  0  0  0  0  0  0  0  0  0  0
   36.9300   34.1310   49.4340 H   0  0  0  0  0  0  0  0  0  0  0  0
   34.3930   27.2690   48.7350 O   0  0  0  0  0  0  0  0  0  0  0  0
   34.0000   28.0750   47.8260 C   0  0  0  0  0  0  0  0  0  0  0  0
   34.1920   29.4930   48.2880 C   0  0  2  0  0  3  0  0  0  0  0  0
   33.8290   30.2740   47.0460 C   0  0  0  0  0  3  0  0  0  0  0  0
   32.7790   30.6160   47.1150 H   0  0  0  0  0  0  0  0  0  0  0  0
   33.9110   29.2680   45.9180 C   0  0  0  0  0  3  0  0  0  0  0  0
   34.9670   29.1770   45.5920 H   0  0  0  0  0  0  0  0  0  0  0  0
   33.4400   28.0390   46.5170 N   0  0  0  0  0  0  0  0  0  0  0  0
   32.8620   27.1660   46.3530 H   0  0  0  0  0  0  0  0  0  0  0  0
  1  7  1  0  0  0  0
  2  8  1  0  0  0  0
  2  1  2  0  0  0  0
  3  2  1  0  0  0  0
  4  3  2  0  0  0  0
  4  5  1  0  0  0  0
  5  6  2  0  0  0  0
  6  1  1  0  0  0  0
  9 20  1  0  0  0  0
 10  9  1  0  0  0  0
 10  3  1  0  0  0  0
 11 10  2  0  0  0  0
 12 13  2  0  0  0  0
 12 11  1  0  0  0  0
 13 14  1  0  0  0  0
 14 18  1  0  0  0  0
 14  9  2  0  0  0  0
 15 11  1  0  0  0  0
 16 12  1  0  0  0  0
 17 13  1  0  0  0  0
 19 22  1  0  0  0  0
 20 19  2  0  0  0  0
 20 21  1  0  0  0  0
 21 23  1  0  0  0  0
 24 21  1  0  0  0  0
 26 27  1  0  0  0  0
 26 25  2  0  0  0  0
 27  5  1  6  0  0  0
 28 29  1  0  0  0  0
 28 27  1  0  0  0  0
 30 32  1  0  0  0  0
 30 28  1  0  0  0  0
 31 30  1  0  0  0  0
 32 26  1  0  0  0  0
 33 32  1  0  0  0  0
M  END
>  <minimizedAffinity>
-6.44365406

>  <minimizedRMSD>
1.24178135

$$$$
