
 OpenBabel03272506283D

 42 45  0  0  1  0  0  0  0  0999 V2000
   39.1770   26.1120   34.7020 C   0  0  0  0  0  0  0  0  0  0  0  0
   38.8460   26.9900   35.7150 C   0  0  0  0  0  0  0  0  0  0  0  0
   37.7820   27.8940   35.6560 C   0  0  0  0  0  0  0  0  0  0  0  0
   36.9910   27.9140   34.4880 C   0  0  0  0  0  0  0  0  0  0  0  0
   37.3410   27.0260   33.4910 C   0  0  0  0  0  0  0  0  0  0  0  0
   38.3820   26.1480   33.5600 C   0  0  0  0  0  0  0  0  0  0  0  0
   39.4420   27.0030   36.6410 H   0  0  0  0  0  0  0  0  0  0  0  0
   37.6210   28.5420   36.5270 H   0  0  0  0  0  0  0  0  0  0  0  0
   36.2180   28.6360   34.5590 H   0  0  0  0  0  0  0  0  0  0  0  0
   36.6440   27.2020   32.7140 H   0  0  0  0  0  0  0  0  0  0  0  0
   41.5570   25.7310   34.5070 C   0  0  0  0  0  0  0  0  0  0  0  0
   40.3080   25.2560   34.9360 C   0  0  0  0  0  0  0  0  0  0  0  0
   40.2550   23.9990   35.5530 C   0  0  0  0  0  0  0  0  0  0  0  0
   41.4120   23.2980   35.7070 N   0  0  0  0  0  0  0  0  0  0  0  0
   42.6130   23.7830   35.2800 C   0  0  0  0  0  0  0  0  0  0  0  0
   42.6790   25.0020   34.6800 N   0  0  0  0  0  0  0  0  0  0  0  0
   41.6460   26.6790   34.0340 H   0  0  0  0  0  0  0  0  0  0  0  0
   43.4690   23.1380   35.4560 H   0  0  0  0  0  0  0  0  0  0  0  0
   39.0090   23.3680   36.0560 C   0  0  0  0  0  0  0  0  0  0  0  0
   38.6140   23.9980   37.2510 F   0  0  0  0  0  0  0  0  0  0  0  0
   37.9630   23.3660   35.2070 F   0  0  0  0  0  0  0  0  0  0  0  0
   39.2740   22.0570   36.4500 F   0  0  0  0  0  0  0  0  0  0  0  0
   38.8030   25.0280   32.2800 S   0  0  0  0  0  0  0  0  0  0  0  0
   39.4200   21.9980   32.6230 Cl  0  0  0  0  0  0  0  0  0  0  0  0
   37.8440   22.5250   32.0690 C   0  0  0  0  0  0  0  0  0  0  0  0
   37.5190   23.8740   31.8870 C   0  0  0  0  0  0  0  0  0  0  0  0
   36.2790   24.2320   31.4490 C   0  0  0  0  0  0  0  0  0  0  0  0
   35.3480   23.2360   31.1920 C   0  0  0  0  0  0  0  0  0  0  0  0
   35.6680   21.9050   31.3720 C   0  0  0  0  0  0  0  0  0  0  0  0
   36.9200   21.5260   31.8120 C   0  0  0  0  0  0  0  0  0  0  0  0
   35.9480   25.2160   31.2460 H   0  0  0  0  0  0  0  0  0  0  0  0
   34.3520   23.4690   30.8450 H   0  0  0  0  0  0  0  0  0  0  0  0
   34.9040   21.1540   31.1570 H   0  0  0  0  0  0  0  0  0  0  0  0
   35.4340   18.7830   33.1030 O   0  0  0  0  0  0  0  0  0  0  0  0
   36.1410   19.1970   32.1390 C   0  0  0  0  0  0  0  0  0  0  0  0
   37.2430   20.1170   31.9950 C   0  0  1  0  0  3  0  0  0  0  0  0
   37.9410   19.5470   30.7740 C   0  0  0  0  0  3  0  0  0  0  0  0
   38.5650   20.3110   30.2670 H   0  0  0  0  0  0  0  0  0  0  0  0
   36.7500   19.1970   29.9040 C   0  0  0  0  0  3  0  0  0  0  0  0
   36.3550   20.0530   29.3240 H   0  0  0  0  0  0  0  0  0  0  0  0
   35.8060   18.6520   30.8610 N   0  0  0  0  0  0  0  0  0  0  0  0
   35.0670   17.9860   30.5050 H   0  0  0  0  0  0  0  0  0  0  0  0
  1 12  1  0  0  0  0
  1  2  1  0  0  0  0
  2  7  1  0  0  0  0
  3  2  2  0  0  0  0
  3  8  1  0  0  0  0
  4  9  1  0  0  0  0
  4  3  1  0  0  0  0
  5  6  1  0  0  0  0
  5  4  2  0  0  0  0
  6  1  2  0  0  0  0
 10  5  1  0  0  0  0
 11 16  2  0  0  0  0
 11 12  1  0  0  0  0
 12 13  2  0  0  0  0
 13 14  1  0  0  0  0
 13 19  1  0  0  0  0
 15 18  1  0  0  0  0
 15 14  2  0  0  0  0
 16 15  1  0  0  0  0
 17 11  1  0  0  0  0
 19 22  1  0  0  0  0
 19 20  1  0  0  0  0
 21 19  1  0  0  0  0
 23  6  1  0  0  0  0
 25 24  1  0  0  0  0
 26 25  1  0  0  0  0
 26 23  1  0  0  0  0
 27 26  2  0  0  0  0
 28 29  2  0  0  0  0
 28 27  1  0  0  0  0
 29 30  1  0  0  0  0
 30 25  2  0  0  0  0
 31 27  1  0  0  0  0
 32 28  1  0  0  0  0
 33 29  1  0  0  0  0
 35 34  2  0  0  0  0
 36 30  1  6  0  0  0
 36 35  1  0  0  0  0
 37 36  1  0  0  0  0
 38 37  1  0  0  0  0
 39 37  1  0  0  0  0
 39 41  1  0  0  0  0
 40 39  1  0  0  0  0
 41 35  1  0  0  0  0
 42 41  1  0  0  0  0
M  END
>  <minimizedAffinity>
-6.49468756

$$$$

 OpenBabel03272506283D

 42 45  0  0  1  0  0  0  0  0999 V2000
   34.7580   30.1400   33.3510 C   0  0  0  0  0  0  0  0  0  0  0  0
   34.4000   30.9440   32.2880 C   0  0  0  0  0  0  0  0  0  0  0  0
   35.0850   30.9910   31.0710 C   0  0  0  0  0  0  0  0  0  0  0  0
   36.2160   30.1620   30.9120 C   0  0  0  0  0  0  0  0  0  0  0  0
   36.5530   29.3660   31.9890 C   0  0  0  0  0  0  0  0  0  0  0  0
   35.8760   29.3300   33.1720 C   0  0  0  0  0  0  0  0  0  0  0  0
   33.5230   31.6050   32.3760 H   0  0  0  0  0  0  0  0  0  0  0  0
   34.7030   31.6730   30.3010 H   0  0  0  0  0  0  0  0  0  0  0  0
   36.6500   30.2820   29.9530 H   0  0  0  0  0  0  0  0  0  0  0  0
   37.4160   28.8390   31.6770 H   0  0  0  0  0  0  0  0  0  0  0  0
   32.7760   29.4410   34.5480 C   0  0  0  0  0  0  0  0  0  0  0  0
   33.9390   30.2260   34.5300 C   0  0  0  0  0  0  0  0  0  0  0  0
   34.2150   31.0260   35.6470 C   0  0  0  0  0  0  0  0  0  0  0  0
   33.3460   31.0060   36.6940 N   0  0  0  0  0  0  0  0  0  0  0  0
   32.2210   30.2350   36.6860 C   0  0  0  0  0  0  0  0  0  0  0  0
   31.9410   29.4530   35.6080 N   0  0  0  0  0  0  0  0  0  0  0  0
   32.5260   28.8190   33.7230 H   0  0  0  0  0  0  0  0  0  0  0  0
   31.6010   30.2980   37.5750 H   0  0  0  0  0  0  0  0  0  0  0  0
   35.4040   31.9070   35.7700 C   0  0  0  0  0  0  0  0  0  0  0  0
   35.2690   32.7200   36.9120 F   0  0  0  0  0  0  0  0  0  0  0  0
   36.5970   31.2840   35.8260 F   0  0  0  0  0  0  0  0  0  0  0  0
   35.4200   32.8210   34.7170 F   0  0  0  0  0  0  0  0  0  0  0  0
   36.3240   28.3070   34.5230 S   0  0  0  0  0  0  0  0  0  0  0  0
   38.3070   26.9400   36.4930 Cl  0  0  0  0  0  0  0  0  0  0  0  0
   37.9040   26.1780   34.9680 C   0  0  0  0  0  0  0  0  0  0  0  0
   37.0280   26.7550   34.0430 C   0  0  0  0  0  0  0  0  0  0  0  0
   36.7510   26.1230   32.8670 C   0  0  0  0  0  0  0  0  0  0  0  0
   37.3500   24.8980   32.6100 C   0  0  0  0  0  0  0  0  0  0  0  0
   38.2140   24.3270   33.5230 C   0  0  0  0  0  0  0  0  0  0  0  0
   38.5070   24.9560   34.7160 C   0  0  0  0  0  0  0  0  0  0  0  0
   36.1340   26.4910   32.0900 H   0  0  0  0  0  0  0  0  0  0  0  0
   37.1610   24.3570   31.6940 H   0  0  0  0  0  0  0  0  0  0  0  0
   38.6630   23.3610   33.2800 H   0  0  0  0  0  0  0  0  0  0  0  0
   38.3930   23.8150   37.8930 O   0  0  0  0  0  0  0  0  0  0  0  0
   38.8450   23.5630   36.7370 C   0  0  0  0  0  0  0  0  0  0  0  0
   39.4230   24.3420   35.6690 C   0  0  1  0  0  3  0  0  0  0  0  0
   40.3050   23.3050   34.9980 C   0  0  0  0  0  3  0  0  0  0  0  0
   40.5250   23.5770   33.9450 H   0  0  0  0  0  0  0  0  0  0  0  0
   39.3970   22.0930   35.0350 C   0  0  0  0  0  3  0  0  0  0  0  0
   38.6640   22.0600   34.2060 H   0  0  0  0  0  0  0  0  0  0  0  0
   38.7910   22.1890   36.3500 N   0  0  0  0  0  0  0  0  0  0  0  0
   38.4270   21.3030   36.7940 H   0  0  0  0  0  0  0  0  0  0  0  0
  1 12  1  0  0  0  0
  2  7  1  0  0  0  0
  2  1  2  0  0  0  0
  3  2  1  0  0  0  0
  4  3  2  0  0  0  0
  4  5  1  0  0  0  0
  5  6  2  0  0  0  0
  6  1  1  0  0  0  0
  6 23  1  0  0  0  0
  8  3  1  0  0  0  0
  9  4  1  0  0  0  0
 10  5  1  0  0  0  0
 11 16  1  0  0  0  0
 12 11  2  0  0  0  0
 12 13  1  0  0  0  0
 13 19  1  0  0  0  0
 13 14  2  0  0  0  0
 15 14  1  0  0  0  0
 15 18  1  0  0  0  0
 16 15  2  0  0  0  0
 17 11  1  0  0  0  0
 19 21  1  0  0  0  0
 19 20  1  0  0  0  0
 22 19  1  0  0  0  0
 25 24  1  0  0  0  0
 26 23  1  0  0  0  0
 26 25  2  0  0  0  0
 27 26  1  0  0  0  0
 28 27  2  0  0  0  0
 28 29  1  0  0  0  0
 29 30  2  0  0  0  0
 30 25  1  0  0  0  0
 31 27  1  0  0  0  0
 32 28  1  0  0  0  0
 33 29  1  0  0  0  0
 35 34  2  0  0  0  0
 36 30  1  6  0  0  0
 36 35  1  0  0  0  0
 37 39  1  0  0  0  0
 37 36  1  0  0  0  0
 38 37  1  0  0  0  0
 39 41  1  0  0  0  0
 40 39  1  0  0  0  0
 41 35  1  0  0  0  0
 41 42  1  0  0  0  0
M  END
>  <minimizedAffinity>
-6.44042015

$$$$

 OpenBabel03272506283D

 42 45  0  0  1  0  0  0  0  0999 V2000
   39.3590   24.5990   34.9490 C   0  0  0  0  0  0  0  0  0  0  0  0
   40.7020   24.2910   35.0310 C   0  0  0  0  0  0  0  0  0  0  0  0
   41.7340   25.2240   34.8960 C   0  0  0  0  0  0  0  0  0  0  0  0
   41.3850   26.5710   34.6610 C   0  0  0  0  0  0  0  0  0  0  0  0
   40.0350   26.8540   34.5850 C   0  0  0  0  0  0  0  0  0  0  0  0
   39.0380   25.9340   34.7190 C   0  0  0  0  0  0  0  0  0  0  0  0
   41.0120   23.2500   35.2120 H   0  0  0  0  0  0  0  0  0  0  0  0
   42.7630   24.8560   34.9800 H   0  0  0  0  0  0  0  0  0  0  0  0
   42.2450   27.1840   34.5770 H   0  0  0  0  0  0  0  0  0  0  0  0
   39.9860   27.8950   34.4000 H   0  0  0  0  0  0  0  0  0  0  0  0
   38.0450   22.8380   33.9400 C   0  0  0  0  0  0  0  0  0  0  0  0
   38.4370   23.5080   35.1090 C   0  0  0  0  0  0  0  0  0  0  0  0
   37.9090   23.0700   36.3310 C   0  0  0  0  0  0  0  0  0  0  0  0
   37.0430   22.0200   36.3290 N   0  0  0  0  0  0  0  0  0  0  0  0
   36.6770   21.3870   35.1780 C   0  0  0  0  0  0  0  0  0  0  0  0
   37.1820   21.8010   33.9840 N   0  0  0  0  0  0  0  0  0  0  0  0
   38.4190   23.1350   32.9900 H   0  0  0  0  0  0  0  0  0  0  0  0
   35.9810   20.5620   35.2960 H   0  0  0  0  0  0  0  0  0  0  0  0
   38.2310   23.6800   37.6460 C   0  0  0  0  0  0  0  0  0  0  0  0
   39.5490   23.3430   38.0090 F   0  0  0  0  0  0  0  0  0  0  0  0
   38.0930   25.0180   37.7260 F   0  0  0  0  0  0  0  0  0  0  0  0
   37.4550   23.0850   38.6400 F   0  0  0  0  0  0  0  0  0  0  0  0
   37.3320   26.3210   34.6210 S   0  0  0  0  0  0  0  0  0  0  0  0
   36.3350   29.2580   34.8720 Cl  0  0  0  0  0  0  0  0  0  0  0  0
   36.4430   28.4890   33.3020 C   0  0  0  0  0  0  0  0  0  0  0  0
   36.8740   27.1680   33.1350 C   0  0  0  0  0  0  0  0  0  0  0  0
   36.9350   26.6140   31.8910 C   0  0  0  0  0  0  0  0  0  0  0  0
   36.5680   27.3850   30.7970 C   0  0  0  0  0  0  0  0  0  0  0  0
   36.1430   28.6890   30.9610 C   0  0  0  0  0  0  0  0  0  0  0  0
   36.0720   29.2630   32.2140 C   0  0  0  0  0  0  0  0  0  0  0  0
   37.2110   25.6180   31.6630 H   0  0  0  0  0  0  0  0  0  0  0  0
   36.6010   26.9920   29.7920 H   0  0  0  0  0  0  0  0  0  0  0  0
   35.8640   29.2590   30.0720 H   0  0  0  0  0  0  0  0  0  0  0  0
   36.0430   32.0940   30.3740 O   0  0  0  0  0  0  0  0  0  0  0  0
   35.3540   31.3910   31.1680 C   0  0  0  0  0  0  0  0  0  0  0  0
   35.6210   30.6400   32.3710 C   0  0  1  0  0  3  0  0  0  0  0  0
   34.2700   30.7030   33.0600 C   0  0  0  0  0  3  0  0  0  0  0  0
   34.1450   29.8760   33.7880 H   0  0  0  0  0  0  0  0  0  0  0  0
   33.3410   30.4950   31.8820 C   0  0  0  0  0  3  0  0  0  0  0  0
   33.1940   29.4310   31.6120 H   0  0  0  0  0  0  0  0  0  0  0  0
   33.9670   31.2830   30.8380 N   0  0  0  0  0  0  0  0  0  0  0  0
   33.3600   31.6350   30.0490 H   0  0  0  0  0  0  0  0  0  0  0  0
  1  2  1  0  0  0  0
  1 12  1  0  0  0  0
  2  7  1  0  0  0  0
  3  8  1  0  0  0  0
  3  2  2  0  0  0  0
  4  3  1  0  0  0  0
  5  4  2  0  0  0  0
  5  6  1  0  0  0  0
  6  1  2  0  0  0  0
  9  4  1  0  0  0  0
 10  5  1  0  0  0  0
 11 16  2  0  0  0  0
 11 12  1  0  0  0  0
 12 13  2  0  0  0  0
 13 19  1  0  0  0  0
 14 13  1  0  0  0  0
 15 18  1  0  0  0  0
 15 14  2  0  0  0  0
 16 15  1  0  0  0  0
 17 11  1  0  0  0  0
 19 21  1  0  0  0  0
 19 20  1  0  0  0  0
 19 22  1  0  0  0  0
 23  6  1  0  0  0  0
 25 24  1  0  0  0  0
 26 25  1  0  0  0  0
 26 23  1  0  0  0  0
 27 26  2  0  0  0  0
 28 29  2  0  0  0  0
 28 27  1  0  0  0  0
 29 30  1  0  0  0  0
 30 25  2  0  0  0  0
 31 27  1  0  0  0  0
 32 28  1  0  0  0  0
 33 29  1  0  0  0  0
 34 35  2  0  0  0  0
 35 36  1  0  0  0  0
 36 30  1  6  0  0  0
 36 37  1  0  0  0  0
 37 38  1  0  0  0  0
 39 37  1  0  0  0  0
 40 39  1  0  0  0  0
 41 35  1  0  0  0  0
 41 39  1  0  0  0  0
 42 41  1  0  0  0  0
M  END
>  <minimizedAffinity>
-6.43572474

$$$$

 OpenBabel03272506283D

 42 45  0  0  1  0  0  0  0  0999 V2000
   39.1460   26.2270   34.5180 C   0  0  0  0  0  0  0  0  0  0  0  0
   38.5220   26.9630   35.5050 C   0  0  0  0  0  0  0  0  0  0  0  0
   37.3990   27.7670   35.2950 C   0  0  0  0  0  0  0  0  0  0  0  0
   36.8630   27.8350   33.9910 C   0  0  0  0  0  0  0  0  0  0  0  0
   37.5050   27.0890   33.0220 C   0  0  0  0  0  0  0  0  0  0  0  0
   38.6010   26.3080   33.2400 C   0  0  0  0  0  0  0  0  0  0  0  0
   38.9120   26.9360   36.5340 H   0  0  0  0  0  0  0  0  0  0  0  0
   36.9930   28.3050   36.1610 H   0  0  0  0  0  0  0  0  0  0  0  0
   36.0170   28.4720   33.9540 H   0  0  0  0  0  0  0  0  0  0  0  0
   36.9650   27.2790   32.1320 H   0  0  0  0  0  0  0  0  0  0  0  0
   41.5520   25.9850   34.5800 C   0  0  0  0  0  0  0  0  0  0  0  0
   40.2950   25.4590   34.9160 C   0  0  0  0  0  0  0  0  0  0  0  0
   40.2500   24.2410   35.6070 C   0  0  0  0  0  0  0  0  0  0  0  0
   41.4220   23.6240   35.9190 N   0  0  0  0  0  0  0  0  0  0  0  0
   42.6320   24.1560   35.5800 C   0  0  0  0  0  0  0  0  0  0  0  0
   42.6900   25.3390   34.9090 N   0  0  0  0  0  0  0  0  0  0  0  0
   41.6350   26.9060   34.0570 H   0  0  0  0  0  0  0  0  0  0  0  0
   43.5010   23.5770   35.8800 H   0  0  0  0  0  0  0  0  0  0  0  0
   38.9970   23.5650   36.0270 C   0  0  0  0  0  0  0  0  0  0  0  0
   38.5210   24.1540   37.2140 F   0  0  0  0  0  0  0  0  0  0  0  0
   37.9980   23.5570   35.1230 F   0  0  0  0  0  0  0  0  0  0  0  0
   39.2770   22.2510   36.4030 F   0  0  0  0  0  0  0  0  0  0  0  0
   39.3940   25.3680   31.9910 S   0  0  0  0  0  0  0  0  0  0  0  0
   36.6360   24.2940   31.0320 Cl  0  0  0  0  0  0  0  0  0  0  0  0
   37.8480   23.1940   31.6550 C   0  0  0  0  0  0  0  0  0  0  0  0
   39.0990   23.6260   32.1100 C   0  0  0  0  0  0  0  0  0  0  0  0
   40.0060   22.7300   32.5910 C   0  0  0  0  0  0  0  0  0  0  0  0
   39.6670   21.3840   32.6160 C   0  0  0  0  0  0  0  0  0  0  0  0
   38.4330   20.9570   32.1670 C   0  0  0  0  0  0  0  0  0  0  0  0
   37.5030   21.8530   31.6800 C   0  0  0  0  0  0  0  0  0  0  0  0
   40.9590   22.9580   32.9900 H   0  0  0  0  0  0  0  0  0  0  0  0
   40.3520   20.6360   32.9870 H   0  0  0  0  0  0  0  0  0  0  0  0
   38.2080   19.8890   32.2050 H   0  0  0  0  0  0  0  0  0  0  0  0
   36.2990   19.2980   29.8290 O   0  0  0  0  0  0  0  0  0  0  0  0
   36.0850   19.9910   30.8670 C   0  0  0  0  0  0  0  0  0  0  0  0
   36.2040   21.3860   31.2110 C   0  0  1  0  0  3  0  0  0  0  0  0
   35.1490   21.5090   32.2950 C   0  0  0  0  0  3  0  0  0  0  0  0
   35.3430   22.3780   32.9570 H   0  0  0  0  0  0  0  0  0  0  0  0
   35.3750   20.2210   33.0590 C   0  0  0  0  0  3  0  0  0  0  0  0
   36.1960   20.2800   33.8000 H   0  0  0  0  0  0  0  0  0  0  0  0
   35.6110   19.2590   31.9990 N   0  0  0  0  0  0  0  0  0  0  0  0
   35.4160   18.2410   32.2000 H   0  0  0  0  0  0  0  0  0  0  0  0
  1 12  1  0  0  0  0
  1  2  1  0  0  0  0
  2  7  1  0  0  0  0
  3  2  2  0  0  0  0
  3  8  1  0  0  0  0
  4  3  1  0  0  0  0
  5  6  1  0  0  0  0
  5  4  2  0  0  0  0
  6  1  2  0  0  0  0
  9  4  1  0  0  0  0
 10  5  1  0  0  0  0
 11 16  2  0  0  0  0
 11 12  1  0  0  0  0
 12 13  2  0  0  0  0
 13 14  1  0  0  0  0
 13 19  1  0  0  0  0
 15 18  1  0  0  0  0
 15 14  2  0  0  0  0
 16 15  1  0  0  0  0
 17 11  1  0  0  0  0
 19 22  1  0  0  0  0
 19 20  1  0  0  0  0
 21 19  1  0  0  0  0
 23 26  1  0  0  0  0
 23  6  1  0  0  0  0
 24 25  1  0  0  0  0
 25 30  2  0  0  0  0
 25 26  1  0  0  0  0
 26 27  2  0  0  0  0
 27 28  1  0  0  0  0
 27 31  1  0  0  0  0
 28 32  1  0  0  0  0
 29 33  1  0  0  0  0
 29 28  2  0  0  0  0
 30 29  1  0  0  0  0
 34 35  2  0  0  0  0
 35 36  1  0  0  0  0
 35 41  1  0  0  0  0
 36 30  1  1  0  0  0
 36 37  1  0  0  0  0
 37 38  1  0  0  0  0
 37 39  1  0  0  0  0
 39 40  1  0  0  0  0
 41 42  1  0  0  0  0
 41 39  1  0  0  0  0
M  END
>  <minimizedAffinity>
-6.21219921

$$$$

 OpenBabel03272506283D

 42 45  0  0  1  0  0  0  0  0999 V2000
   38.5820   25.6380   34.7970 C   0  0  0  0  0  0  0  0  0  0  0  0
   38.1730   26.6180   35.6790 C   0  0  0  0  0  0  0  0  0  0  0  0
   37.4090   27.7310   35.3200 C   0  0  0  0  0  0  0  0  0  0  0  0
   37.0260   27.8670   33.9690 C   0  0  0  0  0  0  0  0  0  0  0  0
   37.4460   26.8730   33.1060 C   0  0  0  0  0  0  0  0  0  0  0  0
   38.1920   25.7910   33.4700 C   0  0  0  0  0  0  0  0  0  0  0  0
   38.4550   26.5450   36.7420 H   0  0  0  0  0  0  0  0  0  0  0  0
   37.1480   28.4420   36.1130 H   0  0  0  0  0  0  0  0  0  0  0  0
   36.4520   28.7440   33.8170 H   0  0  0  0  0  0  0  0  0  0  0  0
   37.0700   27.1590   32.1590 H   0  0  0  0  0  0  0  0  0  0  0  0
   38.6640   23.5110   35.9460 C   0  0  0  0  0  0  0  0  0  0  0  0
   39.3680   24.5650   35.3440 C   0  0  0  0  0  0  0  0  0  0  0  0
   40.7680   24.4970   35.3180 C   0  0  0  0  0  0  0  0  0  0  0  0
   41.3780   23.4160   35.8770 N   0  0  0  0  0  0  0  0  0  0  0  0
   40.6700   22.4050   36.4570 C   0  0  0  0  0  0  0  0  0  0  0  0
   39.3110   22.4590   36.4890 N   0  0  0  0  0  0  0  0  0  0  0  0
   37.6020   23.5200   35.9890 H   0  0  0  0  0  0  0  0  0  0  0  0
   41.2620   21.5940   36.8710 H   0  0  0  0  0  0  0  0  0  0  0  0
   41.6430   25.5340   34.7170 C   0  0  0  0  0  0  0  0  0  0  0  0
   42.9120   25.4870   35.3260 F   0  0  0  0  0  0  0  0  0  0  0  0
   41.8060   25.4690   33.3820 F   0  0  0  0  0  0  0  0  0  0  0  0
   41.1660   26.8010   35.0530 F   0  0  0  0  0  0  0  0  0  0  0  0
   38.7090   24.5420   32.3540 S   0  0  0  0  0  0  0  0  0  0  0  0
   39.2820   21.5250   32.8500 Cl  0  0  0  0  0  0  0  0  0  0  0  0
   37.7420   22.0380   32.1930 C   0  0  0  0  0  0  0  0  0  0  0  0
   37.4380   23.3810   31.9410 C   0  0  0  0  0  0  0  0  0  0  0  0
   36.2260   23.7280   31.4240 C   0  0  0  0  0  0  0  0  0  0  0  0
   35.3010   22.7280   31.1580 C   0  0  0  0  0  0  0  0  0  0  0  0
   35.6000   21.4030   31.4070 C   0  0  0  0  0  0  0  0  0  0  0  0
   36.8250   21.0350   31.9270 C   0  0  0  0  0  0  0  0  0  0  0  0
   35.9140   24.7050   31.1650 H   0  0  0  0  0  0  0  0  0  0  0  0
   34.3270   22.9530   30.7500 H   0  0  0  0  0  0  0  0  0  0  0  0
   34.8430   20.6490   31.1830 H   0  0  0  0  0  0  0  0  0  0  0  0
   35.1760   18.2960   33.0150 O   0  0  0  0  0  0  0  0  0  0  0  0
   36.0230   18.7030   32.1670 C   0  0  0  0  0  0  0  0  0  0  0  0
   37.1260   19.6320   32.1840 C   0  0  1  0  0  3  0  0  0  0  0  0
   38.0130   19.0510   31.0980 C   0  0  0  0  0  3  0  0  0  0  0  0
   38.7030   19.8140   30.6830 H   0  0  0  0  0  0  0  0  0  0  0  0
   36.9780   18.6750   30.0570 C   0  0  0  0  0  3  0  0  0  0  0  0
   36.6720   19.5180   29.4070 H   0  0  0  0  0  0  0  0  0  0  0  0
   35.8980   18.1340   30.8620 N   0  0  0  0  0  0  0  0  0  0  0  0
   35.2310   17.4550   30.4050 H   0  0  0  0  0  0  0  0  0  0  0  0
  1 12  1  0  0  0  0
  1  2  1  0  0  0  0
  2  7  1  0  0  0  0
  3  2  2  0  0  0  0
  3  8  1  0  0  0  0
  4  3  1  0  0  0  0
  5  6  1  0  0  0  0
  5  4  2  0  0  0  0
  6  1  2  0  0  0  0
  9  4  1  0  0  0  0
 10  5  1  0  0  0  0
 11 17  1  0  0  0  0
 11 16  1  0  0  0  0
 12 11  2  0  0  0  0
 13 12  1  0  0  0  0
 13 14  2  0  0  0  0
 14 15  1  0  0  0  0
 15 16  2  0  0  0  0
 15 18  1  0  0  0  0
 19 22  1  0  0  0  0
 19 13  1  0  0  0  0
 19 20  1  0  0  0  0
 21 19  1  0  0  0  0
 23  6  1  0  0  0  0
 25 24  1  0  0  0  0
 26 25  1  0  0  0  0
 26 23  1  0  0  0  0
 27 26  2  0  0  0  0
 28 29  2  0  0  0  0
 28 27  1  0  0  0  0
 29 30  1  0  0  0  0
 30 25  2  0  0  0  0
 31 27  1  0  0  0  0
 32 28  1  0  0  0  0
 33 29  1  0  0  0  0
 35 36  1  0  0  0  0
 35 34  2  0  0  0  0
 36 30  1  6  0  0  0
 37 36  1  0  0  0  0
 38 37  1  0  0  0  0
 39 41  1  0  0  0  0
 39 37  1  0  0  0  0
 40 39  1  0  0  0  0
 41 35  1  0  0  0  0
 42 41  1  0  0  0  0
M  END
>  <minimizedAffinity>
-6.16758728

$$$$

 OpenBabel03272506283D

 42 45  0  0  1  0  0  0  0  0999 V2000
   35.7260   30.4400   32.4560 C   0  0  0  0  0  0  0  0  0  0  0  0
   35.8020   31.2310   31.3270 C   0  0  0  0  0  0  0  0  0  0  0  0
   36.5140   30.8910   30.1740 C   0  0  0  0  0  0  0  0  0  0  0  0
   37.2000   29.6580   30.1560 C   0  0  0  0  0  0  0  0  0  0  0  0
   37.1070   28.8840   31.2960 C   0  0  0  0  0  0  0  0  0  0  0  0
   36.4090   29.2280   32.4150 C   0  0  0  0  0  0  0  0  0  0  0  0
   35.2800   32.2010   31.3050 H   0  0  0  0  0  0  0  0  0  0  0  0
   36.5000   31.6040   29.3410 H   0  0  0  0  0  0  0  0  0  0  0  0
   37.7010   29.5080   29.2340 H   0  0  0  0  0  0  0  0  0  0  0  0
   37.6860   28.0230   31.0870 H   0  0  0  0  0  0  0  0  0  0  0  0
   35.6480   31.6770   34.5320 C   0  0  0  0  0  0  0  0  0  0  0  0
   34.9510   30.9540   33.5520 C   0  0  0  0  0  0  0  0  0  0  0  0
   33.5680   30.7890   33.7090 C   0  0  0  0  0  0  0  0  0  0  0  0
   32.9660   31.3330   34.8020 N   0  0  0  0  0  0  0  0  0  0  0  0
   33.6670   32.0310   35.7410 C   0  0  0  0  0  0  0  0  0  0  0  0
   35.0100   32.2000   35.6010 N   0  0  0  0  0  0  0  0  0  0  0  0
   36.6970   31.8280   34.4550 H   0  0  0  0  0  0  0  0  0  0  0  0
   33.0830   32.4210   36.5700 H   0  0  0  0  0  0  0  0  0  0  0  0
   32.7020   30.0500   32.7560 C   0  0  0  0  0  0  0  0  0  0  0  0
   31.4030   29.9420   33.2900 F   0  0  0  0  0  0  0  0  0  0  0  0
   32.6130   30.5660   31.5150 F   0  0  0  0  0  0  0  0  0  0  0  0
   33.1290   28.7250   32.6660 F   0  0  0  0  0  0  0  0  0  0  0  0
   36.3050   28.2250   33.8480 S   0  0  0  0  0  0  0  0  0  0  0  0
   38.2110   27.1690   36.0690 Cl  0  0  0  0  0  0  0  0  0  0  0  0
   37.8400   26.1770   34.6740 C   0  0  0  0  0  0  0  0  0  0  0  0
   36.9980   26.6080   33.6430 C   0  0  0  0  0  0  0  0  0  0  0  0
   36.7450   25.8000   32.5750 C   0  0  0  0  0  0  0  0  0  0  0  0
   37.3320   24.5430   32.5340 C   0  0  0  0  0  0  0  0  0  0  0  0
   38.1620   24.1170   33.5520 C   0  0  0  0  0  0  0  0  0  0  0  0
   38.4310   24.9250   34.6380 C   0  0  0  0  0  0  0  0  0  0  0  0
   36.1560   26.0460   31.7310 H   0  0  0  0  0  0  0  0  0  0  0  0
   37.1610   23.8660   31.7110 H   0  0  0  0  0  0  0  0  0  0  0  0
   38.6030   23.1200   33.4790 H   0  0  0  0  0  0  0  0  0  0  0  0
   38.1900   24.2260   37.9340 O   0  0  0  0  0  0  0  0  0  0  0  0
   38.6940   23.8260   36.8430 C   0  0  0  0  0  0  0  0  0  0  0  0
   39.3100   24.4610   35.7040 C   0  0  1  0  0  3  0  0  0  0  0  0
   40.2300   23.3560   35.2180 C   0  0  0  0  0  3  0  0  0  0  0  0
   40.4940   23.4850   34.1490 H   0  0  0  0  0  0  0  0  0  0  0  0
   39.3340   22.1460   35.3840 C   0  0  0  0  0  3  0  0  0  0  0  0
   38.6370   21.9890   34.5370 H   0  0  0  0  0  0  0  0  0  0  0  0
   38.6700   22.4110   36.6460 N   0  0  0  0  0  0  0  0  0  0  0  0
   38.2950   21.5890   37.1920 H   0  0  0  0  0  0  0  0  0  0  0  0
  1 12  1  0  0  0  0
  2  1  2  0  0  0  0
  3  2  1  0  0  0  0
  4  3  2  0  0  0  0
  4  5  1  0  0  0  0
  5  6  2  0  0  0  0
  6  1  1  0  0  0  0
  6 23  1  0  0  0  0
  7  2  1  0  0  0  0
  8  3  1  0  0  0  0
  9  4  1  0  0  0  0
 10  5  1  0  0  0  0
 11 16  1  0  0  0  0
 12 13  1  0  0  0  0
 12 11  2  0  0  0  0
 13 14  2  0  0  0  0
 14 15  1  0  0  0  0
 15 18  1  0  0  0  0
 16 15  2  0  0  0  0
 17 11  1  0  0  0  0
 19 20  1  0  0  0  0
 19 13  1  0  0  0  0
 21 19  1  0  0  0  0
 22 19  1  0  0  0  0
 25 24  1  0  0  0  0
 26 23  1  0  0  0  0
 26 25  2  0  0  0  0
 27 26  1  0  0  0  0
 28 27  2  0  0  0  0
 28 29  1  0  0  0  0
 29 30  2  0  0  0  0
 30 25  1  0  0  0  0
 31 27  1  0  0  0  0
 32 28  1  0  0  0  0
 33 29  1  0  0  0  0
 35 34  2  0  0  0  0
 36 30  1  6  0  0  0
 36 35  1  0  0  0  0
 37 39  1  0  0  0  0
 37 36  1  0  0  0  0
 38 37  1  0  0  0  0
 39 41  1  0  0  0  0
 40 39  1  0  0  0  0
 41 35  1  0  0  0  0
 41 42  1  0  0  0  0
M  END
>  <minimizedAffinity>
-6.1151247

$$$$

 OpenBabel03272506283D

 42 45  0  0  1  0  0  0  0  0999 V2000
   35.1060   30.4260   32.4740 C   0  0  0  0  0  0  0  0  0  0  0  0
   35.1350   31.7030   31.9510 C   0  0  0  0  0  0  0  0  0  0  0  0
   36.0520   32.1400   30.9920 C   0  0  0  0  0  0  0  0  0  0  0  0
   37.0130   31.2190   30.5230 C   0  0  0  0  0  0  0  0  0  0  0  0
   36.9620   29.9480   31.0590 C   0  0  0  0  0  0  0  0  0  0  0  0
   36.0620   29.5340   31.9960 C   0  0  0  0  0  0  0  0  0  0  0  0
   34.4010   32.4490   32.2950 H   0  0  0  0  0  0  0  0  0  0  0  0
   35.9740   33.1810   30.6540 H   0  0  0  0  0  0  0  0  0  0  0  0
   37.6510   31.6610   29.8010 H   0  0  0  0  0  0  0  0  0  0  0  0
   37.7550   29.4240   30.5930 H   0  0  0  0  0  0  0  0  0  0  0  0
   32.9430   29.4850   33.0100 C   0  0  0  0  0  0  0  0  0  0  0  0
   34.0930   30.1550   33.4570 C   0  0  0  0  0  0  0  0  0  0  0  0
   34.1700   30.5050   34.8120 C   0  0  0  0  0  0  0  0  0  0  0  0
   33.1300   30.1820   35.6290 N   0  0  0  0  0  0  0  0  0  0  0  0
   32.0230   29.5320   35.1690 C   0  0  0  0  0  0  0  0  0  0  0  0
   31.9360   29.1850   33.8560 N   0  0  0  0  0  0  0  0  0  0  0  0
   32.8410   29.2000   31.9920 H   0  0  0  0  0  0  0  0  0  0  0  0
   31.2570   29.3260   35.9110 H   0  0  0  0  0  0  0  0  0  0  0  0
   35.3200   31.2140   35.4270 C   0  0  0  0  0  0  0  0  0  0  0  0
   36.4360   30.3570   35.4620 F   0  0  0  0  0  0  0  0  0  0  0  0
   35.6860   32.3690   34.8380 F   0  0  0  0  0  0  0  0  0  0  0  0
   35.0530   31.4590   36.7740 F   0  0  0  0  0  0  0  0  0  0  0  0
   36.0180   27.9120   32.6590 S   0  0  0  0  0  0  0  0  0  0  0  0
   38.6100   26.9270   31.2480 Cl  0  0  0  0  0  0  0  0  0  0  0  0
   38.5550   27.0880   32.9910 C   0  0  0  0  0  0  0  0  0  0  0  0
   37.4130   27.5170   33.6750 C   0  0  0  0  0  0  0  0  0  0  0  0
   37.4200   27.6210   35.0340 C   0  0  0  0  0  0  0  0  0  0  0  0
   38.5810   27.3000   35.7230 C   0  0  0  0  0  0  0  0  0  0  0  0
   39.7100   26.8780   35.0480 C   0  0  0  0  0  0  0  0  0  0  0  0
   39.7170   26.7640   33.6730 C   0  0  0  0  0  0  0  0  0  0  0  0
   36.6010   27.8980   35.6440 H   0  0  0  0  0  0  0  0  0  0  0  0
   38.6370   27.3680   36.7990 H   0  0  0  0  0  0  0  0  0  0  0  0
   40.6020   26.6360   35.6300 H   0  0  0  0  0  0  0  0  0  0  0  0
   43.0530   27.2310   33.9130 O   0  0  0  0  0  0  0  0  0  0  0  0
   42.1610   26.3580   33.7030 C   0  0  0  0  0  0  0  0  0  0  0  0
   40.9160   26.3160   32.9760 C   0  0  1  0  0  3  0  0  0  0  0  0
   40.8330   24.8420   32.6250 C   0  0  0  0  0  3  0  0  0  0  0  0
   39.7890   24.5300   32.4180 H   0  0  0  0  0  0  0  0  0  0  0  0
   41.3090   24.2150   33.9190 C   0  0  0  0  0  3  0  0  0  0  0  0
   40.5150   24.1150   34.6850 H   0  0  0  0  0  0  0  0  0  0  0  0
   42.3980   25.0880   34.3150 N   0  0  0  0  0  0  0  0  0  0  0  0
   43.1470   24.6930   34.9460 H   0  0  0  0  0  0  0  0  0  0  0  0
  1 12  1  0  0  0  0
  2  7  1  0  0  0  0
  2  1  2  0  0  0  0
  3  2  1  0  0  0  0
  4  3  2  0  0  0  0
  4  5  1  0  0  0  0
  5  6  2  0  0  0  0
  6  1  1  0  0  0  0
  6 23  1  0  0  0  0
  8  3  1  0  0  0  0
  9  4  1  0  0  0  0
 10  5  1  0  0  0  0
 11 12  2  0  0  0  0
 11 16  1  0  0  0  0
 12 13  1  0  0  0  0
 13 19  1  0  0  0  0
 13 14  2  0  0  0  0
 15 14  1  0  0  0  0
 15 18  1  0  0  0  0
 16 15  2  0  0  0  0
 17 11  1  0  0  0  0
 19 20  1  0  0  0  0
 19 22  1  0  0  0  0
 21 19  1  0  0  0  0
 23 26  1  0  0  0  0
 24 25  1  0  0  0  0
 25 30  2  0  0  0  0
 25 26  1  0  0  0  0
 26 27  2  0  0  0  0
 27 31  1  0  0  0  0
 27 28  1  0  0  0  0
 28 32  1  0  0  0  0
 29 33  1  0  0  0  0
 29 28  2  0  0  0  0
 30 29  1  0  0  0  0
 35 34  2  0  0  0  0
 35 41  1  0  0  0  0
 36 30  1  1  0  0  0
 36 35  1  0  0  0  0
 37 36  1  0  0  0  0
 37 39  1  0  0  0  0
 38 37  1  0  0  0  0
 39 41  1  0  0  0  0
 39 40  1  0  0  0  0
 41 42  1  0  0  0  0
M  END
>  <minimizedAffinity>
-6.03792143

$$$$

 OpenBabel03272506283D

 42 45  0  0  1  0  0  0  0  0999 V2000
   38.0350   22.7050   33.8570 C   0  0  0  0  0  0  0  0  0  0  0  0
   37.3800   21.4980   33.7150 C   0  0  0  0  0  0  0  0  0  0  0  0
   36.3030   21.2850   32.8510 C   0  0  0  0  0  0  0  0  0  0  0  0
   35.8520   22.3700   32.0690 C   0  0  0  0  0  0  0  0  0  0  0  0
   36.5240   23.5650   32.2280 C   0  0  0  0  0  0  0  0  0  0  0  0
   37.5750   23.7610   33.0760 C   0  0  0  0  0  0  0  0  0  0  0  0
   37.7040   20.6290   34.3090 H   0  0  0  0  0  0  0  0  0  0  0  0
   35.8640   20.2790   32.8270 H   0  0  0  0  0  0  0  0  0  0  0  0
   35.0350   22.0900   31.4550 H   0  0  0  0  0  0  0  0  0  0  0  0
   36.0380   24.2400   31.5740 H   0  0  0  0  0  0  0  0  0  0  0  0
   40.4010   22.4600   34.2950 C   0  0  0  0  0  0  0  0  0  0  0  0
   39.1210   22.7410   34.7980 C   0  0  0  0  0  0  0  0  0  0  0  0
   38.9970   23.0340   36.1630 C   0  0  0  0  0  0  0  0  0  0  0  0
   40.1170   23.0320   36.9360 N   0  0  0  0  0  0  0  0  0  0  0  0
   41.3500   22.7550   36.4220 C   0  0  0  0  0  0  0  0  0  0  0  0
   41.4850   22.4690   35.0980 N   0  0  0  0  0  0  0  0  0  0  0  0
   40.5440   22.2330   33.2670 H   0  0  0  0  0  0  0  0  0  0  0  0
   42.1720   22.7820   37.1310 H   0  0  0  0  0  0  0  0  0  0  0  0
   37.7110   23.3500   36.8350 C   0  0  0  0  0  0  0  0  0  0  0  0
   37.2260   24.5850   36.3640 F   0  0  0  0  0  0  0  0  0  0  0  0
   36.7350   22.4300   36.7060 F   0  0  0  0  0  0  0  0  0  0  0  0
   37.9370   23.5820   38.1910 F   0  0  0  0  0  0  0  0  0  0  0  0
   38.4130   25.2890   33.2560 S   0  0  0  0  0  0  0  0  0  0  0  0
   37.0280   27.4990   34.9530 Cl  0  0  0  0  0  0  0  0  0  0  0  0
   37.0460   27.6040   33.2040 C   0  0  0  0  0  0  0  0  0  0  0  0
   37.6460   26.6330   32.3950 C   0  0  0  0  0  0  0  0  0  0  0  0
   37.6280   26.7580   31.0380 C   0  0  0  0  0  0  0  0  0  0  0  0
   37.0120   27.8680   30.4770 C   0  0  0  0  0  0  0  0  0  0  0  0
   36.4210   28.8280   31.2750 C   0  0  0  0  0  0  0  0  0  0  0  0
   36.4270   28.7130   32.6510 C   0  0  0  0  0  0  0  0  0  0  0  0
   38.0190   26.0640   30.3410 H   0  0  0  0  0  0  0  0  0  0  0  0
   36.9730   28.0140   29.4080 H   0  0  0  0  0  0  0  0  0  0  0  0
   35.9460   29.6850   30.7920 H   0  0  0  0  0  0  0  0  0  0  0  0
   36.1680   32.0800   32.6810 O   0  0  0  0  0  0  0  0  0  0  0  0
   35.5200   31.0080   32.8650 C   0  0  0  0  0  0  0  0  0  0  0  0
   35.7980   29.7330   33.4800 C   0  0  1  0  0  3  0  0  0  0  0  0
   34.4070   29.3110   33.9150 C   0  0  0  0  0  3  0  0  0  0  0  0
   34.3370   28.2120   34.0480 H   0  0  0  0  0  0  0  0  0  0  0  0
   33.5910   29.7360   32.7120 C   0  0  0  0  0  3  0  0  0  0  0  0
   33.5970   28.9970   31.8860 H   0  0  0  0  0  0  0  0  0  0  0  0
   34.1830   31.0120   32.3590 N   0  0  0  0  0  0  0  0  0  0  0  0
   33.5910   31.7040   31.8240 H   0  0  0  0  0  0  0  0  0  0  0  0
  1 12  1  0  0  0  0
  2  1  1  0  0  0  0
  2  7  1  0  0  0  0
  3  2  2  0  0  0  0
  4  5  2  0  0  0  0
  4  3  1  0  0  0  0
  5  6  1  0  0  0  0
  6 23  1  0  0  0  0
  6  1  2  0  0  0  0
  8  3  1  0  0  0  0
  9  4  1  0  0  0  0
 10  5  1  0  0  0  0
 11 12  2  0  0  0  0
 11 16  1  0  0  0  0
 12 13  1  0  0  0  0
 13 19  1  0  0  0  0
 13 14  2  0  0  0  0
 15 14  1  0  0  0  0
 15 18  1  0  0  0  0
 16 15  2  0  0  0  0
 17 11  1  0  0  0  0
 19 22  1  0  0  0  0
 20 19  1  0  0  0  0
 21 19  1  0  0  0  0
 25 24  1  0  0  0  0
 26 25  2  0  0  0  0
 26 23  1  0  0  0  0
 27 26  1  0  0  0  0
 28 27  2  0  0  0  0
 28 29  1  0  0  0  0
 29 30  2  0  0  0  0
 30 25  1  0  0  0  0
 31 27  1  0  0  0  0
 32 28  1  0  0  0  0
 33 29  1  0  0  0  0
 34 35  2  0  0  0  0
 35 36  1  0  0  0  0
 36 30  1  6  0  0  0
 36 37  1  0  0  0  0
 37 38  1  0  0  0  0
 39 37  1  0  0  0  0
 40 39  1  0  0  0  0
 41 39  1  0  0  0  0
 41 35  1  0  0  0  0
 42 41  1  0  0  0  0
M  END
>  <minimizedAffinity>
-6.02885485

$$$$

 OpenBabel03272506283D

 42 45  0  0  1  0  0  0  0  0999 V2000
   39.1150   27.5340   30.0340 C   0  0  0  0  0  0  0  0  0  0  0  0
   38.3040   28.3140   29.2340 C   0  0  0  0  0  0  0  0  0  0  0  0
   37.1570   28.9740   29.6830 C   0  0  0  0  0  0  0  0  0  0  0  0
   36.7990   28.8370   31.0410 C   0  0  0  0  0  0  0  0  0  0  0  0
   37.6270   28.0530   31.8200 C   0  0  0  0  0  0  0  0  0  0  0  0
   38.7440   27.4140   31.3700 C   0  0  0  0  0  0  0  0  0  0  0  0
   38.5510   28.4430   28.1690 H   0  0  0  0  0  0  0  0  0  0  0  0
   36.5940   29.5650   28.9500 H   0  0  0  0  0  0  0  0  0  0  0  0
   35.9170   29.3790   31.2640 H   0  0  0  0  0  0  0  0  0  0  0  0
   37.1900   28.0700   32.7840 H   0  0  0  0  0  0  0  0  0  0  0  0
   40.0470   25.6760   28.7970 C   0  0  0  0  0  0  0  0  0  0  0  0
   40.2530   26.9270   29.3990 C   0  0  0  0  0  0  0  0  0  0  0  0
   41.5370   27.4880   29.3380 C   0  0  0  0  0  0  0  0  0  0  0  0
   42.5210   26.7960   28.7020 N   0  0  0  0  0  0  0  0  0  0  0  0
   42.2940   25.5810   28.1250 C   0  0  0  0  0  0  0  0  0  0  0  0
   41.0530   25.0250   28.1770 N   0  0  0  0  0  0  0  0  0  0  0  0
   39.0910   25.2130   28.8190 H   0  0  0  0  0  0  0  0  0  0  0  0
   43.1530   25.1210   27.6450 H   0  0  0  0  0  0  0  0  0  0  0  0
   41.9030   28.7990   29.9280 C   0  0  0  0  0  0  0  0  0  0  0  0
   43.2190   29.1310   29.5530 F   0  0  0  0  0  0  0  0  0  0  0  0
   41.0970   29.8330   29.6190 F   0  0  0  0  0  0  0  0  0  0  0  0
   41.9790   28.6840   31.3160 F   0  0  0  0  0  0  0  0  0  0  0  0
   39.7790   26.4260   32.3820 S   0  0  0  0  0  0  0  0  0  0  0  0
   39.3710   23.5210   33.4170 Cl  0  0  0  0  0  0  0  0  0  0  0  0
   39.0200   24.8890   34.4530 C   0  0  0  0  0  0  0  0  0  0  0  0
   39.1760   26.2140   34.0330 C   0  0  0  0  0  0  0  0  0  0  0  0
   38.8830   27.2440   34.8760 C   0  0  0  0  0  0  0  0  0  0  0  0
   38.4340   26.9530   36.1570 C   0  0  0  0  0  0  0  0  0  0  0  0
   38.2810   25.6450   36.5720 C   0  0  0  0  0  0  0  0  0  0  0  0
   38.5690   24.5910   35.7280 C   0  0  0  0  0  0  0  0  0  0  0  0
   38.9320   28.2760   34.6440 H   0  0  0  0  0  0  0  0  0  0  0  0
   38.1920   27.7340   36.8620 H   0  0  0  0  0  0  0  0  0  0  0  0
   37.9250   25.4610   37.5880 H   0  0  0  0  0  0  0  0  0  0  0  0
   40.5260   21.8890   36.2550 O   0  0  0  0  0  0  0  0  0  0  0  0
   39.5580   22.5520   36.7300 C   0  0  0  0  0  0  0  0  0  0  0  0
   38.4010   23.2160   36.1810 C   0  0  1  0  0  3  0  0  0  0  0  0
   37.4360   23.1340   37.3500 C   0  0  0  0  0  3  0  0  0  0  0  0
   36.6500   23.9130   37.2850 H   0  0  0  0  0  0  0  0  0  0  0  0
   38.3650   23.4380   38.5070 C   0  0  0  0  0  3  0  0  0  0  0  0
   38.5320   24.5200   38.6730 H   0  0  0  0  0  0  0  0  0  0  0  0
   39.5680   22.7090   38.1510 N   0  0  0  0  0  0  0  0  0  0  0  0
   40.2240   22.4230   38.9280 H   0  0  0  0  0  0  0  0  0  0  0  0
  1  6  1  0  0  0  0
  2  3  1  0  0  0  0
  2  1  2  0  0  0  0
  3  4  2  0  0  0  0
  4  9  1  0  0  0  0
  4  5  1  0  0  0  0
  5 10  1  0  0  0  0
  6  5  2  0  0  0  0
  6 23  1  0  0  0  0
  7  2  1  0  0  0  0
  8  3  1  0  0  0  0
 11 17  1  0  0  0  0
 11 12  1  0  0  0  0
 12  1  1  0  0  0  0
 13 12  2  0  0  0  0
 13 19  1  0  0  0  0
 14 13  1  0  0  0  0
 15 16  1  0  0  0  0
 15 14  2  0  0  0  0
 16 11  2  0  0  0  0
 18 15  1  0  0  0  0
 19 22  1  0  0  0  0
 20 19  1  0  0  0  0
 21 19  1  0  0  0  0
 23 26  1  0  0  0  0
 24 25  1  0  0  0  0
 25 30  1  0  0  0  0
 26 25  2  0  0  0  0
 26 27  1  0  0  0  0
 27 28  2  0  0  0  0
 28 29  1  0  0  0  0
 28 32  1  0  0  0  0
 29 33  1  0  0  0  0
 30 29  2  0  0  0  0
 31 27  1  0  0  0  0
 34 35  2  0  0  0  0
 35 41  1  0  0  0  0
 36 30  1  1  0  0  0
 36 35  1  0  0  0  0
 36 37  1  0  0  0  0
 37 39  1  0  0  0  0
 38 37  1  0  0  0  0
 39 40  1  0  0  0  0
 41 39  1  0  0  0  0
 41 42  1  0  0  0  0
M  END
>  <minimizedAffinity>
-5.99332905

$$$$
