
 OpenBabel03272510263D

 45 49  0  0  1  0  0  0  0  0999 V2000
   38.7740   33.0990   42.4630 O   0  0  0  0  0  0  0  0  0  0  0  0
   35.9310   30.0790   46.6670 C   0  0  0  0  0  0  0  0  0  0  0  0
   36.8950   30.6890   47.4680 C   0  0  0  0  0  0  0  0  0  0  0  0
   37.8480   31.5430   46.9170 C   0  0  0  0  0  0  0  0  0  0  0  0
   37.7800   31.7480   45.5480 C   0  0  0  0  0  0  0  0  0  0  0  0
   38.5970   32.5320   44.7870 N   0  0  0  0  0  0  0  0  0  0  0  0
   38.1520   32.4150   43.5210 C   0  0  0  0  0  0  0  0  0  0  0  0
   37.1140   31.6080   43.4690 N   0  0  0  0  0  0  0  0  0  0  0  0
   36.8370   31.1610   44.7180 C   0  0  0  0  0  0  0  0  0  0  0  0
   35.8910   30.3060   45.2980 C   0  0  0  0  0  0  0  0  0  0  0  0
   35.1730   29.4110   47.0530 H   0  0  0  0  0  0  0  0  0  0  0  0
   38.5790   32.0040   47.5360 H   0  0  0  0  0  0  0  0  0  0  0  0
   39.4120   33.1100   45.1170 H   0  0  0  0  0  0  0  0  0  0  0  0
   35.1670   29.8600   44.6430 H   0  0  0  0  0  0  0  0  0  0  0  0
   37.7000   30.3930   51.1150 C   0  0  0  0  0  0  0  0  0  0  0  0
   37.8380   30.7510   49.7880 C   0  0  0  0  0  0  0  0  0  0  0  0
   36.8530   30.3750   48.8810 C   0  0  0  0  0  0  0  0  0  0  0  0
   35.7970   29.6670   49.3600 N   0  0  0  0  0  0  0  0  0  0  0  0
   35.6670   29.3190   50.6560 C   0  0  0  0  0  0  0  0  0  0  0  0
   36.6140   29.6830   51.5180 N   0  0  0  0  0  0  0  0  0  0  0  0
   38.5080   30.7220   51.7620 H   0  0  0  0  0  0  0  0  0  0  0  0
   38.6880   31.3210   49.4070 H   0  0  0  0  0  0  0  0  0  0  0  0
   34.8010   28.7530   50.9800 H   0  0  0  0  0  0  0  0  0  0  0  0
   37.8390   31.8640   40.7890 N   0  0  0  0  0  0  0  0  0  0  0  0
   37.9920   33.2280   41.2730 C   0  0  1  0  0  0  0  0  0  0  0  0
   36.6800   33.8030   41.5460 C   0  0  0  0  0  0  0  0  0  0  0  0
   35.9700   33.8970   40.3350 O   0  0  0  0  0  0  0  0  0  0  0  0
   35.8660   32.7370   39.6280 C   0  0  0  0  0  0  0  0  0  0  0  0
   37.1600   31.9700   39.5190 C   0  0  1  0  0  0  0  0  0  0  0  0
   38.7780   31.4740   40.6540 H   0  0  0  0  0  0  0  0  0  0  0  0
   38.5450   33.8900   40.5930 H   0  0  0  0  0  0  0  0  0  0  0  0
   36.8420   34.8910   41.8190 H   0  0  0  0  0  0  0  0  0  0  0  0
   35.9770   33.4310   42.2380 H   0  0  0  0  0  0  0  0  0  0  0  0
   35.4750   32.9610   38.6430 H   0  0  0  0  0  0  0  0  0  0  0  0
   35.1340   32.0710   40.1330 H   0  0  0  0  0  0  0  0  0  0  0  0
   36.8900   30.9290   39.2370 H   0  0  0  0  0  0  0  0  0  0  0  0
   40.3980   31.6800   38.9940 O   0  0  0  0  0  0  0  0  0  0  0  0
   39.2610   31.5050   38.4940 C   0  0  0  0  0  0  0  0  0  0  0  0
   38.1020   32.4690   38.4690 C   0  0  1  0  0  3  0  0  0  0  0  0
   37.6060   32.2040   37.0750 C   0  0  0  0  0  3  0  0  0  0  0  0
   38.4070   32.5870   36.3910 H   0  0  0  0  0  0  0  0  0  0  0  0
   37.6670   30.7080   36.9860 C   0  0  0  0  0  3  0  0  0  0  0  0
   36.7260   30.2240   37.3240 H   0  0  0  0  0  0  0  0  0  0  0  0
   38.8000   30.3350   37.8230 N   0  0  0  0  0  0  0  0  0  0  0  0
   39.1830   29.3700   37.8970 H   0  0  0  0  0  0  0  0  0  0  0  0
  1  7  1  0  0  0  0
  2 11  1  0  0  0  0
  2  3  1  0  0  0  0
  3 17  1  0  0  0  0
  4  3  2  0  0  0  0
  4 12  1  0  0  0  0
  5  4  1  0  0  0  0
  6 13  1  0  0  0  0
  6  5  1  0  0  0  0
  7  6  1  0  0  0  0
  8  7  2  0  0  0  0
  8  9  1  0  0  0  0
  9 10  1  0  0  0  0
  9  5  2  0  0  0  0
 10  2  2  0  0  0  0
 14 10  1  0  0  0  0
 15 20  1  0  0  0  0
 15 21  1  0  0  0  0
 16 15  2  0  0  0  0
 17 18  2  0  0  0  0
 17 16  1  0  0  0  0
 18 19  1  0  0  0  0
 19 23  1  0  0  0  0
 19 20  2  0  0  0  0
 22 16  1  0  0  0  0
 24 25  1  0  0  0  0
 25 31  1  6  0  0  0
 25 26  1  0  0  0  0
 25  1  1  0  0  0  0
 26 32  1  0  0  0  0
 26 33  1  0  0  0  0
 27 26  1  0  0  0  0
 28 35  1  0  0  0  0
 28 27  1  0  0  0  0
 29 36  1  6  0  0  0
 29 28  1  0  0  0  0
 29 24  1  0  0  0  0
 30 24  1  0  0  0  0
 34 28  1  0  0  0  0
 38 37  2  0  0  0  0
 39 40  1  6  0  0  0
 39 38  1  0  0  0  0
 39 29  1  0  0  0  0
 41 40  1  0  0  0  0
 42 40  1  0  0  0  0
 42 43  1  0  0  0  0
 42 44  1  0  0  0  0
 44 45  1  0  0  0  0
 44 38  1  0  0  0  0
M  END
>  <minimizedAffinity>
-5.01647949

>  <minimizedRMSD>
1.75185978

$$$$
