
 OpenBabel03272504263D

 42 45  0  0  1  0  0  0  0  0999 V2000
   35.6290   29.5520   48.4340 C   0  0  0  0  0  0  0  0  0  0  0  0
   35.3560   28.7480   49.4850 C   0  0  0  0  0  0  0  0  0  0  0  0
   34.4640   27.7510   49.3820 C   0  0  0  0  0  0  0  0  0  0  0  0
   33.8290   27.5560   48.1960 N   0  0  0  0  0  0  0  0  0  0  0  0
   34.1060   28.3520   47.1720 C   0  0  0  0  0  0  0  0  0  0  0  0
   34.9970   29.3500   47.2690 N   0  0  0  0  0  0  0  0  0  0  0  0
   35.8730   28.9200   50.4230 H   0  0  0  0  0  0  0  0  0  0  0  0
   34.2590   27.1170   50.2380 H   0  0  0  0  0  0  0  0  0  0  0  0
   32.0160   27.8130   45.9990 C   0  0  0  0  0  0  0  0  0  0  0  0
   33.3930   28.0390   45.9540 C   0  0  0  0  0  0  0  0  0  0  0  0
   34.1530   27.9610   44.8040 C   0  0  0  0  0  0  0  0  0  0  0  0
   33.5320   27.6410   43.6160 C   0  0  0  0  0  0  0  0  0  0  0  0
   32.1810   27.4000   43.5620 C   0  0  0  0  0  0  0  0  0  0  0  0
   31.5170   27.4990   44.7420 C   0  0  0  0  0  0  0  0  0  0  0  0
   35.2180   28.1460   44.8180 H   0  0  0  0  0  0  0  0  0  0  0  0
   34.1490   27.5840   42.7180 H   0  0  0  0  0  0  0  0  0  0  0  0
   31.6850   27.1500   42.6510 H   0  0  0  0  0  0  0  0  0  0  0  0
   30.4350   27.3060   44.6960 H   0  0  0  0  0  0  0  0  0  0  0  0
   31.0630   27.9180   47.3610 S   0  0  0  0  0  0  0  0  0  0  0  0
   30.1510   26.6870   47.0450 O   0  0  0  0  0  0  0  0  0  0  0  0
   30.2360   29.1720   47.2340 O   0  0  0  0  0  0  0  0  0  0  0  0
   30.7800   27.6590   48.9120 C   0  0  0  0  0  0  0  0  0  0  0  0
   30.2850   26.4540   49.4540 F   0  0  0  0  0  0  0  0  0  0  0  0
   29.5290   28.3310   49.3030 F   0  0  0  0  0  0  0  0  0  0  0  0
   31.4100   28.4320   49.9270 F   0  0  0  0  0  0  0  0  0  0  0  0
   37.4600   32.5530   49.4880 C   0  0  0  0  0  0  0  0  0  0  0  0
   38.5100   32.6170   48.5510 C   0  0  0  0  0  0  0  0  0  0  0  0
   38.5580   31.6210   47.5750 C   0  0  0  0  0  0  0  0  0  0  0  0
   37.5940   30.6570   47.5900 N   0  0  0  0  0  0  0  0  0  0  0  0
   36.5930   30.6310   48.5180 C   0  0  0  0  0  0  0  0  0  0  0  0
   36.5350   31.5810   49.4600 N   0  0  0  0  0  0  0  0  0  0  0  0
   37.4300   33.3240   50.2370 H   0  0  0  0  0  0  0  0  0  0  0  0
   39.2310   33.4190   48.6150 H   0  0  0  0  0  0  0  0  0  0  0  0
   38.7450   29.8940   45.1760 O   0  0  0  0  0  0  0  0  0  0  0  0
   39.3330   31.0080   45.3020 C   0  0  0  0  0  0  0  0  0  0  0  0
   39.6390   31.6570   46.5800 C   0  0  1  0  0  3  0  0  0  0  0  0
   39.9230   33.0930   46.1190 C   0  0  0  0  0  3  0  0  0  0  0  0
   38.9450   33.5550   45.9250 H   0  0  0  0  0  0  0  0  0  0  0  0
   40.6320   32.8230   44.7900 C   0  0  0  0  0  3  0  0  0  0  0  0
   41.6590   32.4730   44.9710 H   0  0  0  0  0  0  0  0  0  0  0  0
   39.7850   31.7910   44.1780 N   0  0  0  0  0  0  0  0  0  0  0  0
   39.5090   31.5840   43.1730 H   0  0  0  0  0  0  0  0  0  0  0  0
  1 30  1  0  0  0  0
  1  2  1  0  0  0  0
  2  7  1  0  0  0  0
  3  2  2  0  0  0  0
  3  8  1  0  0  0  0
  4  3  1  0  0  0  0
  5  6  1  0  0  0  0
  5  4  2  0  0  0  0
  6  1  2  0  0  0  0
  9 19  1  0  0  0  0
 10  9  1  0  0  0  0
 10  5  1  0  0  0  0
 11 15  1  0  0  0  0
 11 10  2  0  0  0  0
 12 11  1  0  0  0  0
 13 12  2  0  0  0  0
 13 14  1  0  0  0  0
 14  9  2  0  0  0  0
 16 12  1  0  0  0  0
 17 13  1  0  0  0  0
 18 14  1  0  0  0  0
 19 22  1  0  0  0  0
 20 19  2  0  0  0  0
 21 19  2  0  0  0  0
 22 24  1  0  0  0  0
 22 23  1  0  0  0  0
 22 25  1  0  0  0  0
 26 32  1  0  0  0  0
 27 33  1  0  0  0  0
 27 26  2  0  0  0  0
 28 29  2  0  0  0  0
 28 27  1  0  0  0  0
 29 30  1  0  0  0  0
 30 31  2  0  0  0  0
 31 26  1  0  0  0  0
 34 35  2  0  0  0  0
 35 36  1  0  0  0  0
 36 28  1  1  0  0  0
 37 36  1  0  0  0  0
 38 37  1  0  0  0  0
 39 40  1  0  0  0  0
 39 37  1  0  0  0  0
 41 39  1  0  0  0  0
 41 35  1  0  0  0  0
 42 41  1  0  0  0  0
M  END
>  <minimizedAffinity>
-6.38716412

>  <minimizedRMSD>
0.6330809

$$$$
