
 OpenBabel03272510263D

 45 49  0  0  1  0  0  0  0  0999 V2000
   39.2500   33.3920   43.0340 O   0  0  0  0  0  0  0  0  0  0  0  0
   36.0550   30.2300   46.8650 C   0  0  0  0  0  0  0  0  0  0  0  0
   36.9850   30.7590   47.7590 C   0  0  0  0  0  0  0  0  0  0  0  0
   37.9960   31.6110   47.3210 C   0  0  0  0  0  0  0  0  0  0  0  0
   38.0220   31.8970   45.9650 C   0  0  0  0  0  0  0  0  0  0  0  0
   38.9090   32.6960   45.3040 N   0  0  0  0  0  0  0  0  0  0  0  0
   38.5420   32.6680   44.0080 C   0  0  0  0  0  0  0  0  0  0  0  0
   37.4850   31.9020   43.8440 N   0  0  0  0  0  0  0  0  0  0  0  0
   37.1170   31.3920   45.0440 C   0  0  0  0  0  0  0  0  0  0  0  0
   36.1100   30.5380   45.5120 C   0  0  0  0  0  0  0  0  0  0  0  0
   35.2550   29.5660   47.1630 H   0  0  0  0  0  0  0  0  0  0  0  0
   38.7000   32.0100   48.0100 H   0  0  0  0  0  0  0  0  0  0  0  0
   39.7190   33.2260   45.7190 H   0  0  0  0  0  0  0  0  0  0  0  0
   35.4160   30.1550   44.7870 H   0  0  0  0  0  0  0  0  0  0  0  0
   37.5590   30.2020   51.4200 C   0  0  0  0  0  0  0  0  0  0  0  0
   37.7930   30.6300   50.1260 C   0  0  0  0  0  0  0  0  0  0  0  0
   36.8440   30.3650   49.1450 C   0  0  0  0  0  0  0  0  0  0  0  0
   35.7250   29.6910   49.5200 N   0  0  0  0  0  0  0  0  0  0  0  0
   35.5010   29.2750   50.7830 C   0  0  0  0  0  0  0  0  0  0  0  0
   36.4150   29.5320   51.7170 N   0  0  0  0  0  0  0  0  0  0  0  0
   38.3440   30.4450   52.1290 H   0  0  0  0  0  0  0  0  0  0  0  0
   38.6940   31.1720   49.8300 H   0  0  0  0  0  0  0  0  0  0  0  0
   34.5890   28.7410   51.0230 H   0  0  0  0  0  0  0  0  0  0  0  0
   39.0110   31.3690   42.0080 N   0  0  0  0  0  0  0  0  0  0  0  0
   39.3480   32.7620   41.7550 C   0  0  1  0  0  0  0  0  0  0  0  0
   38.4060   33.3290   40.7970 C   0  0  0  0  0  0  0  0  0  0  0  0
   38.5580   32.6620   39.5680 O   0  0  0  0  0  0  0  0  0  0  0  0
   38.4520   31.3050   39.6240 C   0  0  0  0  0  0  0  0  0  0  0  0
   39.2230   30.6790   40.7580 C   0  0  1  0  0  0  0  0  0  0  0  0
   39.6600   31.0150   42.7190 H   0  0  0  0  0  0  0  0  0  0  0  0
   40.3740   32.9210   41.3940 H   0  0  0  0  0  0  0  0  0  0  0  0
   38.7670   34.3750   40.5530 H   0  0  0  0  0  0  0  0  0  0  0  0
   37.3630   33.4050   40.9310 H   0  0  0  0  0  0  0  0  0  0  0  0
   38.7700   30.8900   38.6750 H   0  0  0  0  0  0  0  0  0  0  0  0
   37.3850   31.0320   39.7660 H   0  0  0  0  0  0  0  0  0  0  0  0
   38.8020   29.6600   40.9040 H   0  0  0  0  0  0  0  0  0  0  0  0
   41.7460   29.4880   42.5080 O   0  0  0  0  0  0  0  0  0  0  0  0
   41.1140   29.3920   41.4270 C   0  0  0  0  0  0  0  0  0  0  0  0
   40.6870   30.5050   40.5050 C   0  0  1  0  0  3  0  0  0  0  0  0
   40.9710   29.8400   39.1860 C   0  0  0  0  0  3  0  0  0  0  0  0
   42.0850   29.7360   39.1330 H   0  0  0  0  0  0  0  0  0  0  0  0
   40.4380   28.4550   39.4000 C   0  0  0  0  0  3  0  0  0  0  0  0
   39.3660   28.3650   39.1210 H   0  0  0  0  0  0  0  0  0  0  0  0
   40.6530   28.1900   40.8170 N   0  0  0  0  0  0  0  0  0  0  0  0
   40.4880   27.2700   41.2750 H   0  0  0  0  0  0  0  0  0  0  0  0
  1  7  1  0  0  0  0
  2 11  1  0  0  0  0
  2  3  1  0  0  0  0
  3 17  1  0  0  0  0
  4  3  2  0  0  0  0
  4 12  1  0  0  0  0
  5  4  1  0  0  0  0
  6 13  1  0  0  0  0
  6  5  1  0  0  0  0
  7  6  1  0  0  0  0
  8  7  2  0  0  0  0
  8  9  1  0  0  0  0
  9 10  1  0  0  0  0
  9  5  2  0  0  0  0
 10  2  2  0  0  0  0
 14 10  1  0  0  0  0
 15 20  1  0  0  0  0
 15 21  1  0  0  0  0
 16 15  2  0  0  0  0
 17 18  2  0  0  0  0
 17 16  1  0  0  0  0
 18 19  1  0  0  0  0
 19 23  1  0  0  0  0
 19 20  2  0  0  0  0
 22 16  1  0  0  0  0
 24 30  1  0  0  0  0
 25 31  1  6  0  0  0
 25 24  1  0  0  0  0
 25  1  1  0  0  0  0
 26 33  1  0  0  0  0
 26 25  1  0  0  0  0
 27 28  1  0  0  0  0
 27 26  1  0  0  0  0
 28 35  1  0  0  0  0
 28 29  1  0  0  0  0
 29 36  1  1  0  0  0
 29 24  1  0  0  0  0
 32 26  1  0  0  0  0
 34 28  1  0  0  0  0
 38 37  2  0  0  0  0
 39 40  1  6  0  0  0
 39 29  1  0  0  0  0
 39 38  1  0  0  0  0
 40 42  1  0  0  0  0
 41 40  1  0  0  0  0
 42 44  1  0  0  0  0
 43 42  1  0  0  0  0
 44 45  1  0  0  0  0
 44 38  1  0  0  0  0
M  END
>  <minimizedAffinity>
-6.00398588

>  <minimizedRMSD>
1.90213704

$$$$
