
 OpenBabel03272504263D

 42 45  0  0  1  0  0  0  0  0999 V2000
   35.5830   29.5450   48.4560 C   0  0  0  0  0  0  0  0  0  0  0  0
   35.3220   28.7380   49.5060 C   0  0  0  0  0  0  0  0  0  0  0  0
   34.4370   27.7340   49.4050 C   0  0  0  0  0  0  0  0  0  0  0  0
   33.7980   27.5360   48.2210 N   0  0  0  0  0  0  0  0  0  0  0  0
   34.0640   28.3360   47.1970 C   0  0  0  0  0  0  0  0  0  0  0  0
   34.9480   29.3410   47.2920 N   0  0  0  0  0  0  0  0  0  0  0  0
   35.8410   28.9110   50.4430 H   0  0  0  0  0  0  0  0  0  0  0  0
   34.2400   27.0960   50.2600 H   0  0  0  0  0  0  0  0  0  0  0  0
   31.9720   27.7980   46.0290 C   0  0  0  0  0  0  0  0  0  0  0  0
   33.3490   28.0200   45.9820 C   0  0  0  0  0  0  0  0  0  0  0  0
   34.1070   27.9360   44.8310 C   0  0  0  0  0  0  0  0  0  0  0  0
   33.4840   27.6120   43.6450 C   0  0  0  0  0  0  0  0  0  0  0  0
   32.1310   27.3750   43.5940 C   0  0  0  0  0  0  0  0  0  0  0  0
   31.4700   27.4810   44.7740 C   0  0  0  0  0  0  0  0  0  0  0  0
   35.1730   28.1170   44.8430 H   0  0  0  0  0  0  0  0  0  0  0  0
   34.0990   27.5500   42.7470 H   0  0  0  0  0  0  0  0  0  0  0  0
   31.6340   27.1220   42.6850 H   0  0  0  0  0  0  0  0  0  0  0  0
   30.3870   27.2910   44.7310 H   0  0  0  0  0  0  0  0  0  0  0  0
   31.0210   27.9120   47.3920 S   0  0  0  0  0  0  0  0  0  0  0  0
   30.1180   26.6700   47.0940 O   0  0  0  0  0  0  0  0  0  0  0  0
   30.1830   29.1580   47.2520 O   0  0  0  0  0  0  0  0  0  0  0  0
   30.7430   27.6700   48.9470 C   0  0  0  0  0  0  0  0  0  0  0  0
   30.2390   26.4740   49.5020 F   0  0  0  0  0  0  0  0  0  0  0  0
   29.5010   28.3570   49.3390 F   0  0  0  0  0  0  0  0  0  0  0  0
   31.3860   28.4450   49.9520 F   0  0  0  0  0  0  0  0  0  0  0  0
   37.4270   32.5280   49.5400 C   0  0  0  0  0  0  0  0  0  0  0  0
   38.4360   32.6370   48.5620 C   0  0  0  0  0  0  0  0  0  0  0  0
   38.4530   31.6760   47.5500 C   0  0  0  0  0  0  0  0  0  0  0  0
   37.5010   30.7010   47.5710 N   0  0  0  0  0  0  0  0  0  0  0  0
   36.5400   30.6320   48.5380 C   0  0  0  0  0  0  0  0  0  0  0  0
   36.5120   31.5470   49.5150 N   0  0  0  0  0  0  0  0  0  0  0  0
   37.4220   33.2710   50.3160 H   0  0  0  0  0  0  0  0  0  0  0  0
   39.1520   33.4440   48.6240 H   0  0  0  0  0  0  0  0  0  0  0  0
   38.3370   30.3750   44.8910 O   0  0  0  0  0  0  0  0  0  0  0  0
   39.0600   31.3770   45.1650 C   0  0  0  0  0  0  0  0  0  0  0  0
   39.4910   31.7600   46.5130 C   0  0  1  0  0  3  0  0  0  0  0  0
   39.9290   33.2120   46.2790 C   0  0  0  0  0  3  0  0  0  0  0  0
   39.0060   33.8070   46.2210 H   0  0  0  0  0  0  0  0  0  0  0  0
   40.5480   33.0960   44.8840 C   0  0  0  0  0  3  0  0  0  0  0  0
   41.5300   32.6060   44.9440 H   0  0  0  0  0  0  0  0  0  0  0  0
   39.5590   32.2850   44.1610 N   0  0  0  0  0  0  0  0  0  0  0  0
   39.2200   32.2850   43.1530 H   0  0  0  0  0  0  0  0  0  0  0  0
  1 30  1  0  0  0  0
  1  2  1  0  0  0  0
  2  7  1  0  0  0  0
  3  2  2  0  0  0  0
  3  8  1  0  0  0  0
  4  3  1  0  0  0  0
  5  6  1  0  0  0  0
  5  4  2  0  0  0  0
  6  1  2  0  0  0  0
  9 19  1  0  0  0  0
 10  9  1  0  0  0  0
 10  5  1  0  0  0  0
 11 15  1  0  0  0  0
 11 10  2  0  0  0  0
 12 11  1  0  0  0  0
 13 12  2  0  0  0  0
 13 14  1  0  0  0  0
 14  9  2  0  0  0  0
 16 12  1  0  0  0  0
 17 13  1  0  0  0  0
 18 14  1  0  0  0  0
 19 22  1  0  0  0  0
 20 19  2  0  0  0  0
 21 19  2  0  0  0  0
 22 24  1  0  0  0  0
 22 23  1  0  0  0  0
 22 25  1  0  0  0  0
 26 32  1  0  0  0  0
 27 33  1  0  0  0  0
 27 26  2  0  0  0  0
 28 29  2  0  0  0  0
 28 27  1  0  0  0  0
 29 30  1  0  0  0  0
 30 31  2  0  0  0  0
 31 26  1  0  0  0  0
 34 35  2  0  0  0  0
 35 36  1  0  0  0  0
 36 28  1  1  0  0  0
 37 36  1  0  0  0  0
 38 37  1  0  0  0  0
 39 40  1  0  0  0  0
 39 37  1  0  0  0  0
 41 39  1  0  0  0  0
 41 35  1  0  0  0  0
 42 41  1  0  0  0  0
M  END
>  <minimizedAffinity>
-6.3159976

>  <minimizedRMSD>
0.662926912

$$$$
