
 OpenBabel03272504333D

 40 43  0  0  1  0  0  0  0  0999 V2000
   35.3900   29.6240   47.7060 C   0  0  0  0  0  0  0  0  0  0  0  0
   35.5970   30.1330   46.4330 C   0  0  0  0  0  0  0  0  0  0  0  0
   34.6000   30.0440   45.4760 C   0  0  0  0  0  0  0  0  0  0  0  0
   33.4320   29.4430   45.8440 N   0  0  0  0  0  0  0  0  0  0  0  0
   33.2580   28.9560   47.0940 C   0  0  0  0  0  0  0  0  0  0  0  0
   34.2240   29.0410   48.0230 N   0  0  0  0  0  0  0  0  0  0  0  0
   36.5530   30.5850   46.2500 H   0  0  0  0  0  0  0  0  0  0  0  0
   34.7690   30.4430   44.4890 H   0  0  0  0  0  0  0  0  0  0  0  0
   36.3760   29.6830   48.7380 N   0  0  0  0  0  0  0  0  0  0  0  0
   36.2860   28.8840   49.9530 C   0  0  0  0  0  0  0  0  0  0  0  0
   36.6130   29.6150   51.2120 C   0  0  0  0  0  0  0  0  0  0  0  0
   37.4970   30.7050   51.1250 N   0  0  0  0  0  0  0  0  0  0  0  0
   37.3870   31.4640   49.8890 C   0  0  0  0  0  0  0  0  0  0  0  0
   37.5520   30.4820   48.7650 C   0  0  0  0  0  0  0  0  0  0  0  0
   36.9740   28.0060   49.8050 H   0  0  0  0  0  0  0  0  0  0  0  0
   35.2590   28.4440   49.9990 H   0  0  0  0  0  0  0  0  0  0  0  0
   35.6440   29.9210   51.6860 H   0  0  0  0  0  0  0  0  0  0  0  0
   37.0470   28.8630   51.9330 H   0  0  0  0  0  0  0  0  0  0  0  0
   38.4850   30.5470   51.4190 H   0  0  0  0  0  0  0  0  0  0  0  0
   36.4350   31.9940   49.8270 H   0  0  0  0  0  0  0  0  0  0  0  0
   38.2770   32.1380   49.8810 H   0  0  0  0  0  0  0  0  0  0  0  0
   38.4430   29.8440   48.9350 H   0  0  0  0  0  0  0  0  0  0  0  0
   37.6730   31.0040   47.8090 H   0  0  0  0  0  0  0  0  0  0  0  0
   31.9800   28.3250   47.4190 C   0  0  0  0  0  0  0  0  0  0  0  0
   31.9370   27.2460   48.2820 C   0  0  0  0  0  0  0  0  0  0  0  0
   30.7640   26.6020   48.6330 C   0  0  0  0  0  0  0  0  0  0  0  0
   29.6400   27.0960   48.0730 N   0  0  0  0  0  0  0  0  0  0  0  0
   29.6880   28.1490   47.2310 C   0  0  0  0  0  0  0  0  0  0  0  0
   30.8330   28.7730   46.8920 N   0  0  0  0  0  0  0  0  0  0  0  0
   32.8640   26.8810   48.7100 H   0  0  0  0  0  0  0  0  0  0  0  0
   30.7960   25.7630   49.3120 H   0  0  0  0  0  0  0  0  0  0  0  0
   27.4130   29.4650   48.7680 O   0  0  0  0  0  0  0  0  0  0  0  0
   27.3760   28.9270   47.6180 C   0  0  0  0  0  0  0  0  0  0  0  0
   28.4360   28.6770   46.6250 C   0  0  2  0  0  3  0  0  0  0  0  0
   27.7760   27.6520   45.7110 C   0  0  0  0  0  3  0  0  0  0  0  0
   27.8190   26.6850   46.2140 H   0  0  0  0  0  0  0  0  0  0  0  0
   26.3460   28.1780   45.6830 C   0  0  0  0  0  3  0  0  0  0  0  0
   26.3370   29.1070   45.0940 H   0  0  0  0  0  0  0  0  0  0  0  0
   26.1380   28.4490   47.1070 N   0  0  0  0  0  0  0  0  0  0  0  0
   25.2080   28.2920   47.5890 H   0  0  0  0  0  0  0  0  0  0  0  0
  1  6  1  0  0  0  0
  1  9  1  0  0  0  0
  2  1  2  0  0  0  0
  3  4  2  0  0  0  0
  3  2  1  0  0  0  0
  4  5  1  0  0  0  0
  5 24  1  0  0  0  0
  5  6  2  0  0  0  0
  7  2  1  0  0  0  0
  8  3  1  0  0  0  0
  9 14  1  0  0  0  0
  9 10  1  0  0  0  0
 10 16  1  0  0  0  0
 10 11  1  0  0  0  0
 11 17  1  0  0  0  0
 11 18  1  0  0  0  0
 12 11  1  0  0  0  0
 12 19  1  0  0  0  0
 13 12  1  0  0  0  0
 14 22  1  0  0  0  0
 14 13  1  0  0  0  0
 15 10  1  0  0  0  0
 20 13  1  0  0  0  0
 21 13  1  0  0  0  0
 23 14  1  0  0  0  0
 24 25  1  0  0  0  0
 25 26  2  0  0  0  0
 25 30  1  0  0  0  0
 26 31  1  0  0  0  0
 27 26  1  0  0  0  0
 28 27  2  0  0  0  0
 29 28  1  0  0  0  0
 29 24  2  0  0  0  0
 33 32  2  0  0  0  0
 34 28  1  1  0  0  0
 34 33  1  0  0  0  0
 35 36  1  0  0  0  0
 35 34  1  0  0  0  0
 37 35  1  0  0  0  0
 37 39  1  0  0  0  0
 38 37  1  0  0  0  0
 39 40  1  0  0  0  0
 39 33  1  0  0  0  0
M  END
>  <minimizedAffinity>
-5.73002577

>  <minimizedRMSD>
0.607089818

$$$$
