
 OpenBabel03262523463D

 38 41  0  0  1  0  0  0  0  0999 V2000
   38.6600   32.9360   49.7540 Cl  0  0  0  0  0  0  0  0  0  0  0  0
   38.6260   32.2690   48.1370 C   0  0  0  0  0  0  0  0  0  0  0  0
   37.8860   31.1510   47.8540 C   0  0  0  0  0  0  0  0  0  0  0  0
   37.9070   30.6840   46.5670 C   0  0  0  0  0  0  0  0  0  0  0  0
   38.6330   31.2900   45.5640 C   0  0  0  0  0  0  0  0  0  0  0  0
   39.3760   32.4250   45.8870 C   0  0  0  0  0  0  0  0  0  0  0  0
   40.2770   33.1550   44.5920 Cl  0  0  0  0  0  0  0  0  0  0  0  0
   39.3770   32.9220   47.1740 C   0  0  0  0  0  0  0  0  0  0  0  0
   37.3010   29.7870   46.3810 H   0  0  0  0  0  0  0  0  0  0  0  0
   39.9680   33.7980   47.3590 H   0  0  0  0  0  0  0  0  0  0  0  0
   36.8650   32.5840   43.4650 Cl  0  0  0  0  0  0  0  0  0  0  0  0
   37.8200   31.1200   43.1640 C   0  0  0  0  0  0  0  0  0  0  0  0
   38.5600   30.6780   44.2330 C   0  0  0  0  0  0  0  0  0  0  0  0
   39.3490   29.5280   44.0960 C   0  0  0  0  0  0  0  0  0  0  0  0
   39.3860   28.8340   42.8900 C   0  0  0  0  0  0  0  0  0  0  0  0
   38.6220   29.3200   41.8450 C   0  0  0  0  0  0  0  0  0  0  0  0
   37.8450   30.4500   41.9720 C   0  0  0  0  0  0  0  0  0  0  0  0
   39.9510   29.1360   44.9050 H   0  0  0  0  0  0  0  0  0  0  0  0
   39.9980   27.9400   42.7820 H   0  0  0  0  0  0  0  0  0  0  0  0
   38.6320   28.7990   40.8950 H   0  0  0  0  0  0  0  0  0  0  0  0
   34.8490   30.1520   41.8650 O   0  0  0  0  0  0  0  0  0  0  0  0
   35.5640   30.9800   41.2050 C   0  0  0  0  0  0  0  0  0  0  0  0
   37.0080   31.0020   40.8670 C   0  0  1  0  0  0  0  0  0  0  0  0
   37.2500   32.4990   40.7130 C   0  0  0  0  0  0  0  0  0  0  0  0
   38.1080   32.7060   40.0430 H   0  0  0  0  0  0  0  0  0  0  0  0
   35.9400   32.9950   40.1230 C   0  0  0  0  0  0  0  0  0  0  0  0
   35.7180   34.0270   40.4200 H   0  0  0  0  0  0  0  0  0  0  0  0
   34.9020   32.1200   40.6660 N   0  0  0  0  0  0  0  0  0  0  0  0
   33.8990   32.4070   40.6010 H   0  0  0  0  0  0  0  0  0  0  0  0
   37.0120   29.3300   51.0580 C   0  0  0  0  0  0  0  0  0  0  0  0
   37.7610   29.8920   50.0140 C   0  0  0  0  0  0  0  0  0  0  0  0
   37.1310   30.5490   48.9650 C   0  0  0  0  0  0  0  0  0  0  0  0
   35.7740   30.6130   49.0110 N   0  0  0  0  0  0  0  0  0  0  0  0
   35.0790   30.0660   50.0230 C   0  0  0  0  0  0  0  0  0  0  0  0
   35.6830   29.4320   51.0360 N   0  0  0  0  0  0  0  0  0  0  0  0
   37.5720   28.8320   51.8440 H   0  0  0  0  0  0  0  0  0  0  0  0
   38.8370   29.8410   49.9780 H   0  0  0  0  0  0  0  0  0  0  0  0
   34.0130   30.1600   49.9840 H   0  0  0  0  0  0  0  0  0  0  0  0
  2  1  1  0  0  0  0
  3  2  1  0  0  0  0
  3 32  1  0  0  0  0
  4  3  2  0  0  0  0
  5  6  2  0  0  0  0
  5  4  1  0  0  0  0
  6  8  1  0  0  0  0
  7  6  1  0  0  0  0
  8 10  1  0  0  0  0
  8  2  2  0  0  0  0
  9  4  1  0  0  0  0
 12 11  1  0  0  0  0
 12 13  1  0  0  0  0
 13  5  1  0  0  0  0
 14 13  2  0  0  0  0
 14 18  1  0  0  0  0
 15 14  1  0  0  0  0
 16 17  1  0  0  0  0
 16 15  2  0  0  0  0
 17 12  2  0  0  0  0
 19 15  1  0  0  0  0
 20 16  1  0  0  0  0
 22 21  2  0  0  0  0
 23 22  1  0  0  0  0
 23 17  1  1  0  0  0
 24 23  1  0  0  0  0
 25 24  1  0  0  0  0
 26 27  1  0  0  0  0
 26 28  1  0  0  0  0
 26 24  1  0  0  0  0
 28 22  1  0  0  0  0
 29 28  1  0  0  0  0
 30 36  1  0  0  0  0
 31 30  2  0  0  0  0
 32 33  2  0  0  0  0
 32 31  1  0  0  0  0
 33 34  1  0  0  0  0
 34 35  2  0  0  0  0
 35 30  1  0  0  0  0
 37 31  1  0  0  0  0
 38 34  1  0  0  0  0
M  END
>  <minimizedAffinity>
-6.48464441

>  <minimizedRMSD>
0.298100024

$$$$
