
 OpenBabel03272504333D

 40 43  0  0  1  0  0  0  0  0999 V2000
   35.0910   29.6370   47.5570 C   0  0  0  0  0  0  0  0  0  0  0  0
   35.2230   30.0790   46.2500 C   0  0  0  0  0  0  0  0  0  0  0  0
   34.1830   29.9160   45.3510 C   0  0  0  0  0  0  0  0  0  0  0  0
   33.0500   29.3110   45.8080 N   0  0  0  0  0  0  0  0  0  0  0  0
   32.9490   28.8890   47.0900 C   0  0  0  0  0  0  0  0  0  0  0  0
   33.9570   29.0470   47.9640 N   0  0  0  0  0  0  0  0  0  0  0  0
   36.1570   30.5420   45.9950 H   0  0  0  0  0  0  0  0  0  0  0  0
   34.2940   30.2630   44.3360 H   0  0  0  0  0  0  0  0  0  0  0  0
   36.1250   29.7750   48.5350 N   0  0  0  0  0  0  0  0  0  0  0  0
   36.2200   28.9070   49.7010 C   0  0  0  0  0  0  0  0  0  0  0  0
   36.5260   29.6080   50.9830 C   0  0  0  0  0  0  0  0  0  0  0  0
   37.2500   30.8120   50.9130 N   0  0  0  0  0  0  0  0  0  0  0  0
   36.9610   31.6130   49.7350 C   0  0  0  0  0  0  0  0  0  0  0  0
   37.1830   30.7250   48.5440 C   0  0  0  0  0  0  0  0  0  0  0  0
   37.0080   28.1410   49.4600 H   0  0  0  0  0  0  0  0  0  0  0  0
   35.2660   28.3290   49.7770 H   0  0  0  0  0  0  0  0  0  0  0  0
   35.5570   29.7520   51.5280 H   0  0  0  0  0  0  0  0  0  0  0  0
   37.1020   28.8850   51.6290 H   0  0  0  0  0  0  0  0  0  0  0  0
   38.2670   30.7740   51.1410 H   0  0  0  0  0  0  0  0  0  0  0  0
   35.9440   32.0110   49.7590 H   0  0  0  0  0  0  0  0  0  0  0  0
   37.7500   32.4030   49.7180 H   0  0  0  0  0  0  0  0  0  0  0  0
   38.1600   30.2070   48.6240 H   0  0  0  0  0  0  0  0  0  0  0  0
   37.1710   31.3090   47.6180 H   0  0  0  0  0  0  0  0  0  0  0  0
   31.7050   28.2490   47.5130 C   0  0  0  0  0  0  0  0  0  0  0  0
   31.7400   27.0860   48.2580 C   0  0  0  0  0  0  0  0  0  0  0  0
   30.6020   26.4280   48.6900 C   0  0  0  0  0  0  0  0  0  0  0  0
   29.4310   26.9980   48.3360 N   0  0  0  0  0  0  0  0  0  0  0  0
   29.4030   28.1330   47.6070 C   0  0  0  0  0  0  0  0  0  0  0  0
   30.5130   28.7700   47.1880 N   0  0  0  0  0  0  0  0  0  0  0  0
   32.7020   26.6620   48.5220 H   0  0  0  0  0  0  0  0  0  0  0  0
   30.6950   25.5220   49.2700 H   0  0  0  0  0  0  0  0  0  0  0  0
   28.6790   29.1280   44.8230 O   0  0  0  0  0  0  0  0  0  0  0  0
   28.1520   29.4490   45.9340 C   0  0  0  0  0  0  0  0  0  0  0  0
   28.1010   28.7430   47.2270 C   0  0  2  0  0  3  0  0  0  0  0  0
   27.7040   29.8650   48.1810 C   0  0  0  0  0  3  0  0  0  0  0  0
   28.5960   30.4620   48.3760 H   0  0  0  0  0  0  0  0  0  0  0  0
   26.7220   30.6390   47.3120 C   0  0  0  0  0  3  0  0  0  0  0  0
   25.8070   30.0360   47.2110 H   0  0  0  0  0  0  0  0  0  0  0  0
   27.4660   30.6880   46.0510 N   0  0  0  0  0  0  0  0  0  0  0  0
   27.4430   31.5280   45.4070 H   0  0  0  0  0  0  0  0  0  0  0  0
  1  6  1  0  0  0  0
  1  9  1  0  0  0  0
  2  1  2  0  0  0  0
  3  4  2  0  0  0  0
  3  2  1  0  0  0  0
  4  5  1  0  0  0  0
  5 24  1  0  0  0  0
  5  6  2  0  0  0  0
  7  2  1  0  0  0  0
  8  3  1  0  0  0  0
  9 14  1  0  0  0  0
  9 10  1  0  0  0  0
 10 16  1  0  0  0  0
 10 11  1  0  0  0  0
 11 17  1  0  0  0  0
 11 18  1  0  0  0  0
 12 11  1  0  0  0  0
 12 19  1  0  0  0  0
 13 20  1  0  0  0  0
 13 12  1  0  0  0  0
 14 22  1  0  0  0  0
 14 13  1  0  0  0  0
 15 10  1  0  0  0  0
 21 13  1  0  0  0  0
 23 14  1  0  0  0  0
 24 25  1  0  0  0  0
 25 30  1  0  0  0  0
 25 26  2  0  0  0  0
 26 31  1  0  0  0  0
 27 26  1  0  0  0  0
 28 27  2  0  0  0  0
 29 24  2  0  0  0  0
 29 28  1  0  0  0  0
 32 33  2  0  0  0  0
 33 39  1  0  0  0  0
 33 34  1  0  0  0  0
 34 28  1  1  0  0  0
 34 35  1  0  0  0  0
 35 36  1  0  0  0  0
 37 35  1  0  0  0  0
 38 37  1  0  0  0  0
 39 37  1  0  0  0  0
 40 39  1  0  0  0  0
M  END
>  <minimizedAffinity>
-5.24711561

>  <minimizedRMSD>
0.468770385

$$$$
