
 OpenBabel03272504333D

 40 43  0  0  1  0  0  0  0  0999 V2000
   35.6210   29.6560   47.7630 C   0  0  0  0  0  0  0  0  0  0  0  0
   35.7960   30.2580   46.5270 C   0  0  0  0  0  0  0  0  0  0  0  0
   34.7830   30.2200   45.5830 C   0  0  0  0  0  0  0  0  0  0  0  0
   33.6320   29.5750   45.9270 N   0  0  0  0  0  0  0  0  0  0  0  0
   33.4890   28.9970   47.1420 C   0  0  0  0  0  0  0  0  0  0  0  0
   34.4700   29.0320   48.0580 N   0  0  0  0  0  0  0  0  0  0  0  0
   36.7410   30.7380   46.3600 H   0  0  0  0  0  0  0  0  0  0  0  0
   34.9280   30.6910   44.6240 H   0  0  0  0  0  0  0  0  0  0  0  0
   36.6240   29.6580   48.7810 N   0  0  0  0  0  0  0  0  0  0  0  0
   36.4880   28.8970   50.0150 C   0  0  0  0  0  0  0  0  0  0  0  0
   36.8930   29.6280   51.2520 C   0  0  0  0  0  0  0  0  0  0  0  0
   37.8610   30.6400   51.1260 N   0  0  0  0  0  0  0  0  0  0  0  0
   37.7940   31.3770   49.8740 C   0  0  0  0  0  0  0  0  0  0  0  0
   37.8610   30.3590   48.7720 C   0  0  0  0  0  0  0  0  0  0  0  0
   37.1010   27.9630   49.8790 H   0  0  0  0  0  0  0  0  0  0  0  0
   35.4300   28.5430   50.0850 H   0  0  0  0  0  0  0  0  0  0  0  0
   35.9600   30.0220   51.7320 H   0  0  0  0  0  0  0  0  0  0  0  0
   37.2760   28.8600   51.9840 H   0  0  0  0  0  0  0  0  0  0  0  0
   38.8380   30.4090   51.4100 H   0  0  0  0  0  0  0  0  0  0  0  0
   36.8870   31.9810   49.8130 H   0  0  0  0  0  0  0  0  0  0  0  0
   38.7350   31.9760   49.8370 H   0  0  0  0  0  0  0  0  0  0  0  0
   38.7000   29.6550   48.9450 H   0  0  0  0  0  0  0  0  0  0  0  0
   38.0090   30.8470   47.8020 H   0  0  0  0  0  0  0  0  0  0  0  0
   32.2270   28.3220   47.4430 C   0  0  0  0  0  0  0  0  0  0  0  0
   32.2190   27.1740   48.2120 C   0  0  0  0  0  0  0  0  0  0  0  0
   31.0630   26.4860   48.5350 C   0  0  0  0  0  0  0  0  0  0  0  0
   29.9190   27.0090   48.0460 N   0  0  0  0  0  0  0  0  0  0  0  0
   29.9330   28.1300   47.2950 C   0  0  0  0  0  0  0  0  0  0  0  0
   31.0610   28.7970   46.9830 N   0  0  0  0  0  0  0  0  0  0  0  0
   33.1600   26.7880   48.5850 H   0  0  0  0  0  0  0  0  0  0  0  0
   31.1220   25.5930   49.1400 H   0  0  0  0  0  0  0  0  0  0  0  0
   27.9650   29.8200   48.8880 O   0  0  0  0  0  0  0  0  0  0  0  0
   27.7490   29.1520   47.8290 C   0  0  0  0  0  0  0  0  0  0  0  0
   28.6600   28.6900   46.7660 C   0  0  2  0  0  3  0  0  0  0  0  0
   27.8200   27.6240   46.0720 C   0  0  0  0  0  3  0  0  0  0  0  0
   27.8510   26.7260   46.6910 H   0  0  0  0  0  0  0  0  0  0  0  0
   26.4420   28.2690   46.1350 C   0  0  0  0  0  3  0  0  0  0  0  0
   26.4290   29.1160   45.4340 H   0  0  0  0  0  0  0  0  0  0  0  0
   26.4270   28.7280   47.5260 N   0  0  0  0  0  0  0  0  0  0  0  0
   25.5520   28.7140   48.1220 H   0  0  0  0  0  0  0  0  0  0  0  0
  1  6  1  0  0  0  0
  1  9  1  0  0  0  0
  2  1  2  0  0  0  0
  3  4  2  0  0  0  0
  3  2  1  0  0  0  0
  4  5  1  0  0  0  0
  5 24  1  0  0  0  0
  5  6  2  0  0  0  0
  7  2  1  0  0  0  0
  8  3  1  0  0  0  0
  9 10  1  0  0  0  0
 10 16  1  0  0  0  0
 10 11  1  0  0  0  0
 11 17  1  0  0  0  0
 11 18  1  0  0  0  0
 12 11  1  0  0  0  0
 12 19  1  0  0  0  0
 13 12  1  0  0  0  0
 14  9  1  0  0  0  0
 14 22  1  0  0  0  0
 14 13  1  0  0  0  0
 15 10  1  0  0  0  0
 20 13  1  0  0  0  0
 21 13  1  0  0  0  0
 23 14  1  0  0  0  0
 24 25  1  0  0  0  0
 25 26  2  0  0  0  0
 25 30  1  0  0  0  0
 26 31  1  0  0  0  0
 27 26  1  0  0  0  0
 28 27  2  0  0  0  0
 29 28  1  0  0  0  0
 29 24  2  0  0  0  0
 33 32  2  0  0  0  0
 34 28  1  1  0  0  0
 34 33  1  0  0  0  0
 35 37  1  0  0  0  0
 35 36  1  0  0  0  0
 35 34  1  0  0  0  0
 37 39  1  0  0  0  0
 38 37  1  0  0  0  0
 39 33  1  0  0  0  0
 39 40  1  0  0  0  0
M  END
>  <minimizedAffinity>
-5.69907713

>  <minimizedRMSD>
0.713010073

$$$$
