
 OpenBabel03272504463D

 30 32  0  0  1  0  0  0  0  0999 V2000
   35.9790   27.2530   31.6760 C   0  0  0  0  0  0  0  0  0  0  0  0
   35.8900   25.8960   31.3570 C   0  0  0  0  0  0  0  0  0  0  0  0
   36.6320   24.9010   31.9890 C   0  0  0  0  0  0  0  0  0  0  0  0
   37.4650   25.3490   32.9550 N   0  0  0  0  0  0  0  0  0  0  0  0
   37.5500   26.6570   33.2600 C   0  0  0  0  0  0  0  0  0  0  0  0
   36.8420   27.5920   32.6570 N   0  0  0  0  0  0  0  0  0  0  0  0
   35.3650   27.9680   31.1350 H   0  0  0  0  0  0  0  0  0  0  0  0
   38.9040   23.9290   30.3930 Cl  0  0  0  0  0  0  0  0  0  0  0  0
   37.5510   22.9560   30.8890 C   0  0  0  0  0  0  0  0  0  0  0  0
   36.5220   23.4990   31.6410 C   0  0  0  0  0  0  0  0  0  0  0  0
   35.4940   22.6670   31.9900 C   0  0  0  0  0  0  0  0  0  0  0  0
   35.4310   21.3360   31.6370 C   0  0  0  0  0  0  0  0  0  0  0  0
   36.5000   20.8250   30.8690 C   0  0  0  0  0  0  0  0  0  0  0  0
   36.4010   19.1460   30.4350 Cl  0  0  0  0  0  0  0  0  0  0  0  0
   37.5590   21.6230   30.4930 C   0  0  0  0  0  0  0  0  0  0  0  0
   34.7050   23.1350   32.5830 H   0  0  0  0  0  0  0  0  0  0  0  0
   34.6120   20.7050   31.9230 H   0  0  0  0  0  0  0  0  0  0  0  0
   38.3670   21.1970   29.9020 H   0  0  0  0  0  0  0  0  0  0  0  0
   37.4970   25.5170   36.0080 O   0  0  0  0  0  0  0  0  0  0  0  0
   38.4780   25.8300   35.2820 C   0  0  0  0  0  0  0  0  0  0  0  0
   38.5100   27.0100   34.3480 C   0  0  1  0  0  3  0  0  0  0  0  0
   39.9230   27.0620   33.8570 C   0  0  0  0  0  3  0  0  0  0  0  0
   40.3880   28.0700   33.9060 H   0  0  0  0  0  0  0  0  0  0  0  0
   40.6970   26.0950   34.7490 C   0  0  0  0  0  3  0  0  0  0  0  0
   41.4890   25.6120   34.1490 H   0  0  0  0  0  0  0  0  0  0  0  0
   39.7150   25.1290   35.2180 N   0  0  0  0  0  0  0  0  0  0  0  0
   39.9120   24.1280   35.4520 H   0  0  0  0  0  0  0  0  0  0  0  0
   34.9760   25.5370   30.3200 N   0  0  0  0  0  0  0  0  0  0  0  0
   34.9400   26.1030   29.4440 H   0  0  0  0  0  0  0  0  0  0  0  0
   34.3160   24.7350   30.3530 H   0  0  0  0  0  0  0  0  0  0  0  0
  1  6  1  0  0  0  0
  2  1  2  0  0  0  0
  2  3  1  0  0  0  0
  3  4  2  0  0  0  0
  4  5  1  0  0  0  0
  6  5  2  0  0  0  0
  7  1  1  0  0  0  0
  8  9  1  0  0  0  0
  9 10  1  0  0  0  0
 10  3  1  0  0  0  0
 10 11  2  0  0  0  0
 11 16  1  0  0  0  0
 12 17  1  0  0  0  0
 12 11  1  0  0  0  0
 13 12  2  0  0  0  0
 14 13  1  0  0  0  0
 15 13  1  0  0  0  0
 15  9  2  0  0  0  0
 18 15  1  0  0  0  0
 20 19  2  0  0  0  0
 21  5  1  6  0  0  0
 21 20  1  0  0  0  0
 22 23  1  0  0  0  0
 22 21  1  0  0  0  0
 22 24  1  0  0  0  0
 24 26  1  0  0  0  0
 25 24  1  0  0  0  0
 26 20  1  0  0  0  0
 26 27  1  0  0  0  0
 28 30  1  0  0  0  0
 28  2  1  0  0  0  0
 29 28  1  0  0  0  0
M  END
>  <minimizedAffinity>
-5.47950745

$$$$

 OpenBabel03272504463D

 30 32  0  0  1  0  0  0  0  0999 V2000
   36.5030   29.1450   30.7160 C   0  0  0  0  0  0  0  0  0  0  0  0
   35.9900   29.8760   31.7920 C   0  0  0  0  0  0  0  0  0  0  0  0
   35.7490   29.3340   33.0520 C   0  0  0  0  0  0  0  0  0  0  0  0
   36.0510   28.0210   33.1660 N   0  0  0  0  0  0  0  0  0  0  0  0
   36.5440   27.3190   32.1290 C   0  0  0  0  0  0  0  0  0  0  0  0
   36.7700   27.8410   30.9390 N   0  0  0  0  0  0  0  0  0  0  0  0
   36.6630   29.6430   29.7640 H   0  0  0  0  0  0  0  0  0  0  0  0
   32.8130   29.2500   33.2090 Cl  0  0  0  0  0  0  0  0  0  0  0  0
   33.8410   30.1280   34.3020 C   0  0  0  0  0  0  0  0  0  0  0  0
   35.2170   30.1110   34.1520 C   0  0  0  0  0  0  0  0  0  0  0  0
   35.9550   30.8290   35.0530 C   0  0  0  0  0  0  0  0  0  0  0  0
   35.4060   31.5560   36.0880 C   0  0  0  0  0  0  0  0  0  0  0  0
   33.9980   31.5450   36.2030 C   0  0  0  0  0  0  0  0  0  0  0  0
   33.3270   32.4680   37.5130 Cl  0  0  0  0  0  0  0  0  0  0  0  0
   33.2110   30.8380   35.3190 C   0  0  0  0  0  0  0  0  0  0  0  0
   37.0350   30.7880   34.8990 H   0  0  0  0  0  0  0  0  0  0  0  0
   36.0070   32.1110   36.7810 H   0  0  0  0  0  0  0  0  0  0  0  0
   32.1310   30.8510   35.4370 H   0  0  0  0  0  0  0  0  0  0  0  0
   34.8790   25.0470   31.1720 O   0  0  0  0  0  0  0  0  0  0  0  0
   36.1290   25.1380   31.2910 C   0  0  0  0  0  0  0  0  0  0  0  0
   36.8330   25.8790   32.3970 C   0  0  1  0  0  3  0  0  0  0  0  0
   38.2800   25.5500   32.2070 C   0  0  0  0  0  3  0  0  0  0  0  0
   38.8030   25.2330   33.1350 H   0  0  0  0  0  0  0  0  0  0  0  0
   38.3070   24.4130   31.1890 C   0  0  0  0  0  3  0  0  0  0  0  0
   39.2080   24.5210   30.5580 H   0  0  0  0  0  0  0  0  0  0  0  0
   37.0870   24.5620   30.4100 N   0  0  0  0  0  0  0  0  0  0  0  0
   36.9710   24.2900   29.4060 H   0  0  0  0  0  0  0  0  0  0  0  0
   35.7080   31.2560   31.5560 N   0  0  0  0  0  0  0  0  0  0  0  0
   35.2210   31.5410   30.6780 H   0  0  0  0  0  0  0  0  0  0  0  0
   35.9500   32.0360   32.1990 H   0  0  0  0  0  0  0  0  0  0  0  0
  1  6  2  0  0  0  0
  1  2  1  0  0  0  0
  2  3  2  0  0  0  0
  3  4  1  0  0  0  0
  3 10  1  0  0  0  0
  5  4  2  0  0  0  0
  6  5  1  0  0  0  0
  7  1  1  0  0  0  0
  8  9  1  0  0  0  0
  9 15  1  0  0  0  0
 10  9  2  0  0  0  0
 10 11  1  0  0  0  0
 11 12  2  0  0  0  0
 12 13  1  0  0  0  0
 12 17  1  0  0  0  0
 13 14  1  0  0  0  0
 15 18  1  0  0  0  0
 15 13  2  0  0  0  0
 16 11  1  0  0  0  0
 19 20  2  0  0  0  0
 20 21  1  0  0  0  0
 21  5  1  6  0  0  0
 22 21  1  0  0  0  0
 22 23  1  0  0  0  0
 24 22  1  0  0  0  0
 25 24  1  0  0  0  0
 26 24  1  0  0  0  0
 26 20  1  0  0  0  0
 27 26  1  0  0  0  0
 28  2  1  0  0  0  0
 28 30  1  0  0  0  0
 29 28  1  0  0  0  0
M  END
>  <minimizedAffinity>
-5.38547421

$$$$

 OpenBabel03272504463D

 30 32  0  0  1  0  0  0  0  0999 V2000
   35.8950   28.7660   31.6540 C   0  0  0  0  0  0  0  0  0  0  0  0
   35.4680   29.7270   32.5740 C   0  0  0  0  0  0  0  0  0  0  0  0
   35.7300   29.6620   33.9410 C   0  0  0  0  0  0  0  0  0  0  0  0
   36.4400   28.5780   34.3250 N   0  0  0  0  0  0  0  0  0  0  0  0
   36.8490   27.6530   33.4380 C   0  0  0  0  0  0  0  0  0  0  0  0
   36.5980   27.7230   32.1450 N   0  0  0  0  0  0  0  0  0  0  0  0
   35.6500   28.8900   30.6030 H   0  0  0  0  0  0  0  0  0  0  0  0
   32.9640   29.2350   34.8470 Cl  0  0  0  0  0  0  0  0  0  0  0  0
   33.9840   30.5480   35.3560 C   0  0  0  0  0  0  0  0  0  0  0  0
   35.2770   30.6710   34.8750 C   0  0  0  0  0  0  0  0  0  0  0  0
   36.0150   31.7330   35.3240 C   0  0  0  0  0  0  0  0  0  0  0  0
   35.5430   32.6720   36.2170 C   0  0  0  0  0  0  0  0  0  0  0  0
   34.2190   32.5070   36.6800 C   0  0  0  0  0  0  0  0  0  0  0  0
   33.6440   33.7010   37.8040 Cl  0  0  0  0  0  0  0  0  0  0  0  0
   33.4360   31.4540   36.2580 C   0  0  0  0  0  0  0  0  0  0  0  0
   37.0280   31.7910   34.9210 H   0  0  0  0  0  0  0  0  0  0  0  0
   36.1420   33.4950   36.5530 H   0  0  0  0  0  0  0  0  0  0  0  0
   32.4200   31.3580   36.6340 H   0  0  0  0  0  0  0  0  0  0  0  0
   39.7960   27.3190   33.1990 O   0  0  0  0  0  0  0  0  0  0  0  0
   39.0270   27.0390   34.1560 C   0  0  0  0  0  0  0  0  0  0  0  0
   37.6260   26.5090   34.0020 C   0  0  1  0  0  3  0  0  0  0  0  0
   37.1980   26.1700   35.3960 C   0  0  0  0  0  3  0  0  0  0  0  0
   36.7400   25.1630   35.5020 H   0  0  0  0  0  0  0  0  0  0  0  0
   38.4680   26.2480   36.2390 C   0  0  0  0  0  3  0  0  0  0  0  0
   38.2050   26.6210   37.2460 H   0  0  0  0  0  0  0  0  0  0  0  0
   39.3440   27.1740   35.5370 N   0  0  0  0  0  0  0  0  0  0  0  0
   40.0530   27.7980   35.9870 H   0  0  0  0  0  0  0  0  0  0  0  0
   34.7250   30.8300   32.0540 N   0  0  0  0  0  0  0  0  0  0  0  0
   33.9700   30.6600   31.3540 H   0  0  0  0  0  0  0  0  0  0  0  0
   34.8670   31.8260   32.3160 H   0  0  0  0  0  0  0  0  0  0  0  0
  1  6  2  0  0  0  0
  1  2  1  0  0  0  0
  2  3  2  0  0  0  0
  3  4  1  0  0  0  0
  3 10  1  0  0  0  0
  5  4  2  0  0  0  0
  6  5  1  0  0  0  0
  7  1  1  0  0  0  0
  8  9  1  0  0  0  0
  9 15  1  0  0  0  0
 10 11  1  0  0  0  0
 10  9  2  0  0  0  0
 11 12  2  0  0  0  0
 12 17  1  0  0  0  0
 12 13  1  0  0  0  0
 13 14  1  0  0  0  0
 15 18  1  0  0  0  0
 15 13  2  0  0  0  0
 16 11  1  0  0  0  0
 19 20  2  0  0  0  0
 20 26  1  0  0  0  0
 21  5  1  1  0  0  0
 21 20  1  0  0  0  0
 21 22  1  0  0  0  0
 22 23  1  0  0  0  0
 22 24  1  0  0  0  0
 24 25  1  0  0  0  0
 26 27  1  0  0  0  0
 26 24  1  0  0  0  0
 28 30  1  0  0  0  0
 28  2  1  0  0  0  0
 29 28  1  0  0  0  0
M  END
>  <minimizedAffinity>
-5.38223028

$$$$

 OpenBabel03272504463D

 30 32  0  0  1  0  0  0  0  0999 V2000
   38.1100   22.1270   33.9350 C   0  0  0  0  0  0  0  0  0  0  0  0
   37.7750   23.3500   33.3470 C   0  0  0  0  0  0  0  0  0  0  0  0
   38.3720   24.5620   33.6870 C   0  0  0  0  0  0  0  0  0  0  0  0
   39.3190   24.4720   34.6480 N   0  0  0  0  0  0  0  0  0  0  0  0
   39.6380   23.2930   35.2130 C   0  0  0  0  0  0  0  0  0  0  0  0
   39.0690   22.1500   34.8840 N   0  0  0  0  0  0  0  0  0  0  0  0
   37.5960   21.2250   33.6130 H   0  0  0  0  0  0  0  0  0  0  0  0
   39.9100   25.1220   31.2430 Cl  0  0  0  0  0  0  0  0  0  0  0  0
   38.6830   26.1620   31.9050 C   0  0  0  0  0  0  0  0  0  0  0  0
   38.0090   25.8180   33.0640 C   0  0  0  0  0  0  0  0  0  0  0  0
   37.0590   26.6910   33.5200 C   0  0  0  0  0  0  0  0  0  0  0  0
   36.7440   27.8780   32.8930 C   0  0  0  0  0  0  0  0  0  0  0  0
   37.4580   28.1890   31.7150 C   0  0  0  0  0  0  0  0  0  0  0  0
   37.0460   29.6890   30.9410 Cl  0  0  0  0  0  0  0  0  0  0  0  0
   38.4240   27.3420   31.2150 C   0  0  0  0  0  0  0  0  0  0  0  0
   36.5510   26.3800   34.4360 H   0  0  0  0  0  0  0  0  0  0  0  0
   35.9950   28.5450   33.2720 H   0  0  0  0  0  0  0  0  0  0  0  0
   38.9540   27.6130   30.3060 H   0  0  0  0  0  0  0  0  0  0  0  0
   39.1380   23.2230   38.1450 O   0  0  0  0  0  0  0  0  0  0  0  0
   40.0710   22.7090   37.4720 C   0  0  0  0  0  0  0  0  0  0  0  0
   40.7020   23.3410   36.2600 C   0  0  1  0  0  3  0  0  0  0  0  0
   41.8570   22.4480   35.9300 C   0  0  0  0  0  3  0  0  0  0  0  0
   42.8140   22.9850   35.7530 H   0  0  0  0  0  0  0  0  0  0  0  0
   42.0060   21.5180   37.1320 C   0  0  0  0  0  3  0  0  0  0  0  0
   42.3410   20.5270   36.7760 H   0  0  0  0  0  0  0  0  0  0  0  0
   40.6850   21.4520   37.7370 N   0  0  0  0  0  0  0  0  0  0  0  0
   40.2950   20.6310   38.2560 H   0  0  0  0  0  0  0  0  0  0  0  0
   36.7610   23.3260   32.3430 N   0  0  0  0  0  0  0  0  0  0  0  0
   35.8940   22.7660   32.4970 H   0  0  0  0  0  0  0  0  0  0  0  0
   36.8030   23.8310   31.4350 H   0  0  0  0  0  0  0  0  0  0  0  0
  1  6  1  0  0  0  0
  2  3  1  0  0  0  0
  2  1  2  0  0  0  0
  3  4  2  0  0  0  0
  4  5  1  0  0  0  0
  6  5  2  0  0  0  0
  7  1  1  0  0  0  0
  8  9  1  0  0  0  0
  9 10  1  0  0  0  0
 10 11  2  0  0  0  0
 10  3  1  0  0  0  0
 11 16  1  0  0  0  0
 12 17  1  0  0  0  0
 12 11  1  0  0  0  0
 13 12  2  0  0  0  0
 14 13  1  0  0  0  0
 15 13  1  0  0  0  0
 15  9  2  0  0  0  0
 18 15  1  0  0  0  0
 20 26  1  0  0  0  0
 20 19  2  0  0  0  0
 21  5  1  6  0  0  0
 21 20  1  0  0  0  0
 22 21  1  0  0  0  0
 22 24  1  0  0  0  0
 23 22  1  0  0  0  0
 24 26  1  0  0  0  0
 25 24  1  0  0  0  0
 26 27  1  0  0  0  0
 28 29  1  0  0  0  0
 28  2  1  0  0  0  0
 30 28  1  0  0  0  0
M  END
>  <minimizedAffinity>
-5.35111284

$$$$

 OpenBabel03272504463D

 30 32  0  0  1  0  0  0  0  0999 V2000
   37.2650   27.9960   34.4450 C   0  0  0  0  0  0  0  0  0  0  0  0
   37.9630   27.0240   35.1670 C   0  0  0  0  0  0  0  0  0  0  0  0
   38.1570   25.7190   34.7210 C   0  0  0  0  0  0  0  0  0  0  0  0
   37.6100   25.4500   33.5140 N   0  0  0  0  0  0  0  0  0  0  0  0
   36.9380   26.3870   32.8210 C   0  0  0  0  0  0  0  0  0  0  0  0
   36.7600   27.6210   33.2500 N   0  0  0  0  0  0  0  0  0  0  0  0
   37.1570   28.9930   34.8630 H   0  0  0  0  0  0  0  0  0  0  0  0
   40.9450   25.4000   33.8390 Cl  0  0  0  0  0  0  0  0  0  0  0  0
   40.2080   24.5130   35.1400 C   0  0  0  0  0  0  0  0  0  0  0  0
   38.8850   24.7280   35.4870 C   0  0  0  0  0  0  0  0  0  0  0  0
   38.3790   23.9890   36.5220 C   0  0  0  0  0  0  0  0  0  0  0  0
   39.1100   23.0550   37.2250 C   0  0  0  0  0  0  0  0  0  0  0  0
   40.4540   22.8680   36.8370 C   0  0  0  0  0  0  0  0  0  0  0  0
   41.3570   21.6860   37.7360 Cl  0  0  0  0  0  0  0  0  0  0  0  0
   41.0100   23.5880   35.8010 C   0  0  0  0  0  0  0  0  0  0  0  0
   37.3330   24.1900   36.7620 H   0  0  0  0  0  0  0  0  0  0  0  0
   38.6890   22.4880   38.0320 H   0  0  0  0  0  0  0  0  0  0  0  0
   42.0480   23.4190   35.5280 H   0  0  0  0  0  0  0  0  0  0  0  0
   38.5510   26.0120   30.3490 O   0  0  0  0  0  0  0  0  0  0  0  0
   37.5650   25.3550   30.7770 C   0  0  0  0  0  0  0  0  0  0  0  0
   36.3880   25.9520   31.5030 C   0  0  1  0  0  3  0  0  0  0  0  0
   35.4210   24.8190   31.6430 C   0  0  0  0  0  3  0  0  0  0  0  0
   34.3790   25.0670   31.3450 H   0  0  0  0  0  0  0  0  0  0  0  0
   35.9610   23.7110   30.7410 C   0  0  0  0  0  3  0  0  0  0  0  0
   35.7380   22.7340   31.2050 H   0  0  0  0  0  0  0  0  0  0  0  0
   37.3940   23.9480   30.6530 N   0  0  0  0  0  0  0  0  0  0  0  0
   38.1240   23.2100   30.5240 H   0  0  0  0  0  0  0  0  0  0  0  0
   38.4970   27.4210   36.4300 N   0  0  0  0  0  0  0  0  0  0  0  0
   37.9130   27.9860   37.0840 H   0  0  0  0  0  0  0  0  0  0  0  0
   39.4510   27.1920   36.7760 H   0  0  0  0  0  0  0  0  0  0  0  0
  1  7  1  0  0  0  0
  1  2  1  0  0  0  0
  2 28  1  0  0  0  0
  3  2  2  0  0  0  0
  3 10  1  0  0  0  0
  4  3  1  0  0  0  0
  5  6  1  0  0  0  0
  5  4  2  0  0  0  0
  6  1  2  0  0  0  0
  8  9  1  0  0  0  0
  9 10  2  0  0  0  0
  9 15  1  0  0  0  0
 10 11  1  0  0  0  0
 11 16  1  0  0  0  0
 11 12  2  0  0  0  0
 12 17  1  0  0  0  0
 13 12  1  0  0  0  0
 13 14  1  0  0  0  0
 15 13  2  0  0  0  0
 18 15  1  0  0  0  0
 19 20  2  0  0  0  0
 20 21  1  0  0  0  0
 21 22  1  0  0  0  0
 21  5  1  1  0  0  0
 23 22  1  0  0  0  0
 24 25  1  0  0  0  0
 24 22  1  0  0  0  0
 26 24  1  0  0  0  0
 26 20  1  0  0  0  0
 27 26  1  0  0  0  0
 28 30  1  0  0  0  0
 28 29  1  0  0  0  0
M  END
>  <minimizedAffinity>
-5.31999207

$$$$

 OpenBabel03272504463D

 30 32  0  0  1  0  0  0  0  0999 V2000
   36.5260   29.9820   30.1960 C   0  0  0  0  0  0  0  0  0  0  0  0
   36.6040   28.5950   30.3500 C   0  0  0  0  0  0  0  0  0  0  0  0
   35.9860   27.8950   31.3830 C   0  0  0  0  0  0  0  0  0  0  0  0
   35.2920   28.6670   32.2490 N   0  0  0  0  0  0  0  0  0  0  0  0
   35.2190   30.0020   32.0990 C   0  0  0  0  0  0  0  0  0  0  0  0
   35.8060   30.6570   31.1160 N   0  0  0  0  0  0  0  0  0  0  0  0
   37.0370   30.4530   29.3610 H   0  0  0  0  0  0  0  0  0  0  0  0
   38.2460   27.0450   33.0640 Cl  0  0  0  0  0  0  0  0  0  0  0  0
   37.1170   25.9660   32.2990 C   0  0  0  0  0  0  0  0  0  0  0  0
   36.0800   26.4560   31.5220 C   0  0  0  0  0  0  0  0  0  0  0  0
   35.2360   25.5410   30.9550 C   0  0  0  0  0  0  0  0  0  0  0  0
   35.3620   24.1780   31.1150 C   0  0  0  0  0  0  0  0  0  0  0  0
   36.4340   23.7230   31.9140 C   0  0  0  0  0  0  0  0  0  0  0  0
   36.5760   22.0020   32.1020 Cl  0  0  0  0  0  0  0  0  0  0  0  0
   37.3120   24.6050   32.5070 C   0  0  0  0  0  0  0  0  0  0  0  0
   34.4330   25.9700   30.3520 H   0  0  0  0  0  0  0  0  0  0  0  0
   34.6860   23.4820   30.6580 H   0  0  0  0  0  0  0  0  0  0  0  0
   38.1270   24.2200   33.1160 H   0  0  0  0  0  0  0  0  0  0  0  0
   32.3460   30.7220   31.8160 O   0  0  0  0  0  0  0  0  0  0  0  0
   32.9890   30.3530   32.8330 C   0  0  0  0  0  0  0  0  0  0  0  0
   34.4170   30.7290   33.1280 C   0  0  1  0  0  3  0  0  0  0  0  0
   34.6660   30.2070   34.5080 C   0  0  0  0  0  3  0  0  0  0  0  0
   35.1430   30.9390   35.1960 H   0  0  0  0  0  0  0  0  0  0  0  0
   33.2920   29.8180   35.0470 C   0  0  0  0  0  3  0  0  0  0  0  0
   33.4020   28.9320   35.6980 H   0  0  0  0  0  0  0  0  0  0  0  0
   32.4840   29.5220   33.8730 N   0  0  0  0  0  0  0  0  0  0  0  0
   31.6980   28.8330   33.8350 H   0  0  0  0  0  0  0  0  0  0  0  0
   37.3650   27.8810   29.3760 N   0  0  0  0  0  0  0  0  0  0  0  0
   38.2940   28.2490   29.0730 H   0  0  0  0  0  0  0  0  0  0  0  0
   37.0740   26.9940   28.9190 H   0  0  0  0  0  0  0  0  0  0  0  0
  1  2  2  0  0  0  0
  1  6  1  0  0  0  0
  2  3  1  0  0  0  0
  3 10  1  0  0  0  0
  3  4  2  0  0  0  0
  5  4  1  0  0  0  0
  6  5  2  0  0  0  0
  7  1  1  0  0  0  0
  9 15  1  0  0  0  0
  9  8  1  0  0  0  0
 10  9  2  0  0  0  0
 11 12  2  0  0  0  0
 11 10  1  0  0  0  0
 12 13  1  0  0  0  0
 13 14  1  0  0  0  0
 13 15  2  0  0  0  0
 15 18  1  0  0  0  0
 16 11  1  0  0  0  0
 17 12  1  0  0  0  0
 19 20  2  0  0  0  0
 20 21  1  0  0  0  0
 20 26  1  0  0  0  0
 21  5  1  6  0  0  0
 21 22  1  0  0  0  0
 22 24  1  0  0  0  0
 22 23  1  0  0  0  0
 24 25  1  0  0  0  0
 26 24  1  0  0  0  0
 27 26  1  0  0  0  0
 28  2  1  0  0  0  0
 29 28  1  0  0  0  0
 30 28  1  0  0  0  0
M  END
>  <minimizedAffinity>
-5.30697966

$$$$

 OpenBabel03272504463D

 30 32  0  0  1  0  0  0  0  0999 V2000
   36.6540   24.6650   31.7200 C   0  0  0  0  0  0  0  0  0  0  0  0
   36.1430   25.9370   31.4480 C   0  0  0  0  0  0  0  0  0  0  0  0
   36.4160   27.0630   32.2220 C   0  0  0  0  0  0  0  0  0  0  0  0
   37.2260   26.8350   33.2800 N   0  0  0  0  0  0  0  0  0  0  0  0
   37.7160   25.6090   33.5400 C   0  0  0  0  0  0  0  0  0  0  0  0
   37.4540   24.5480   32.8010 N   0  0  0  0  0  0  0  0  0  0  0  0
   36.3940   23.8370   31.0660 H   0  0  0  0  0  0  0  0  0  0  0  0
   38.0720   28.5840   30.3260 Cl  0  0  0  0  0  0  0  0  0  0  0  0
   36.5910   29.1590   31.0340 C   0  0  0  0  0  0  0  0  0  0  0  0
   35.8750   28.3720   31.9200 C   0  0  0  0  0  0  0  0  0  0  0  0
   34.7200   28.8970   32.4340 C   0  0  0  0  0  0  0  0  0  0  0  0
   34.2410   30.1510   32.1180 C   0  0  0  0  0  0  0  0  0  0  0  0
   35.0040   30.9180   31.2100 C   0  0  0  0  0  0  0  0  0  0  0  0
   34.3830   32.4950   30.8260 Cl  0  0  0  0  0  0  0  0  0  0  0  0
   36.1740   30.4340   30.6660 C   0  0  0  0  0  0  0  0  0  0  0  0
   34.1870   28.2440   33.1280 H   0  0  0  0  0  0  0  0  0  0  0  0
   33.3330   30.5390   32.5350 H   0  0  0  0  0  0  0  0  0  0  0  0
   36.7370   31.0510   29.9700 H   0  0  0  0  0  0  0  0  0  0  0  0
   40.1560   27.2470   34.0050 O   0  0  0  0  0  0  0  0  0  0  0  0
   39.2910   26.8370   34.8230 C   0  0  0  0  0  0  0  0  0  0  0  0
   38.5980   25.5020   34.7400 C   0  0  1  0  0  3  0  0  0  0  0  0
   37.8120   25.4080   36.0100 C   0  0  0  0  0  3  0  0  0  0  0  0
   37.9310   24.4440   36.5520 H   0  0  0  0  0  0  0  0  0  0  0  0
   38.3180   26.5530   36.8850 C   0  0  0  0  0  3  0  0  0  0  0  0
   37.4760   26.9410   37.4850 H   0  0  0  0  0  0  0  0  0  0  0  0
   38.8210   27.5560   35.9580 N   0  0  0  0  0  0  0  0  0  0  0  0
   38.8230   28.5890   36.1240 H   0  0  0  0  0  0  0  0  0  0  0  0
   35.2980   26.0600   30.3050 N   0  0  0  0  0  0  0  0  0  0  0  0
   34.5590   25.3450   30.1280 H   0  0  0  0  0  0  0  0  0  0  0  0
   35.3480   26.8240   29.6010 H   0  0  0  0  0  0  0  0  0  0  0  0
  1  6  1  0  0  0  0
  2  1  2  0  0  0  0
  2  3  1  0  0  0  0
  3  4  2  0  0  0  0
  4  5  1  0  0  0  0
  6  5  2  0  0  0  0
  7  1  1  0  0  0  0
  8  9  1  0  0  0  0
  9 10  1  0  0  0  0
 10  3  1  0  0  0  0
 10 11  2  0  0  0  0
 11 16  1  0  0  0  0
 12 11  1  0  0  0  0
 12 17  1  0  0  0  0
 13 12  2  0  0  0  0
 14 13  1  0  0  0  0
 15  9  2  0  0  0  0
 15 13  1  0  0  0  0
 18 15  1  0  0  0  0
 19 20  2  0  0  0  0
 20 26  1  0  0  0  0
 21  5  1  6  0  0  0
 21 20  1  0  0  0  0
 21 22  1  0  0  0  0
 22 23  1  0  0  0  0
 22 24  1  0  0  0  0
 24 25  1  0  0  0  0
 26 27  1  0  0  0  0
 26 24  1  0  0  0  0
 28  2  1  0  0  0  0
 29 28  1  0  0  0  0
 30 28  1  0  0  0  0
M  END
>  <minimizedAffinity>
-5.26306534

$$$$

 OpenBabel03272504463D

 30 32  0  0  1  0  0  0  0  0999 V2000
   37.1640   27.6100   34.4820 C   0  0  0  0  0  0  0  0  0  0  0  0
   38.2970   26.9550   34.9740 C   0  0  0  0  0  0  0  0  0  0  0  0
   38.8830   25.8540   34.3560 C   0  0  0  0  0  0  0  0  0  0  0  0
   38.2670   25.4510   33.2220 N   0  0  0  0  0  0  0  0  0  0  0  0
   37.1770   26.0820   32.7510 C   0  0  0  0  0  0  0  0  0  0  0  0
   36.6280   27.1260   33.3420 N   0  0  0  0  0  0  0  0  0  0  0  0
   36.7670   28.4640   35.0240 H   0  0  0  0  0  0  0  0  0  0  0  0
   41.3890   27.2430   33.6880 Cl  0  0  0  0  0  0  0  0  0  0  0  0
   41.2840   25.7780   34.6180 C   0  0  0  0  0  0  0  0  0  0  0  0
   40.0580   25.1910   34.8840 C   0  0  0  0  0  0  0  0  0  0  0  0
   40.0610   24.0380   35.6220 C   0  0  0  0  0  0  0  0  0  0  0  0
   41.2060   23.4420   36.1070 C   0  0  0  0  0  0  0  0  0  0  0  0
   42.4330   24.0740   35.8110 C   0  0  0  0  0  0  0  0  0  0  0  0
   43.8620   23.3050   36.4310 Cl  0  0  0  0  0  0  0  0  0  0  0  0
   42.4820   25.2360   35.0710 C   0  0  0  0  0  0  0  0  0  0  0  0
   39.0740   23.6100   35.8090 H   0  0  0  0  0  0  0  0  0  0  0  0
   41.1800   22.5380   36.6830 H   0  0  0  0  0  0  0  0  0  0  0  0
   43.4440   25.6960   34.8610 H   0  0  0  0  0  0  0  0  0  0  0  0
   38.6750   25.7550   30.2010 O   0  0  0  0  0  0  0  0  0  0  0  0
   37.7890   25.0230   30.7170 C   0  0  0  0  0  0  0  0  0  0  0  0
   36.6000   25.5310   31.4880 C   0  0  1  0  0  3  0  0  0  0  0  0
   35.7650   24.3140   31.7350 C   0  0  0  0  0  3  0  0  0  0  0  0
   34.6870   24.4420   31.4930 H   0  0  0  0  0  0  0  0  0  0  0  0
   36.3650   23.2250   30.8490 C   0  0  0  0  0  3  0  0  0  0  0  0
   36.2710   22.2540   31.3660 H   0  0  0  0  0  0  0  0  0  0  0  0
   37.7580   23.6010   30.6620 N   0  0  0  0  0  0  0  0  0  0  0  0
   38.5520   22.9350   30.5190 H   0  0  0  0  0  0  0  0  0  0  0  0
   38.8630   27.4680   36.1800 N   0  0  0  0  0  0  0  0  0  0  0  0
   38.2400   27.7270   36.9750 H   0  0  0  0  0  0  0  0  0  0  0  0
   39.8790   27.6140   36.3510 H   0  0  0  0  0  0  0  0  0  0  0  0
  1  2  1  0  0  0  0
  1  7  1  0  0  0  0
  2 28  1  0  0  0  0
  3 10  1  0  0  0  0
  3  2  2  0  0  0  0
  4  3  1  0  0  0  0
  5  4  2  0  0  0  0
  5  6  1  0  0  0  0
  6  1  2  0  0  0  0
  8  9  1  0  0  0  0
  9 10  2  0  0  0  0
  9 15  1  0  0  0  0
 10 11  1  0  0  0  0
 11 16  1  0  0  0  0
 11 12  2  0  0  0  0
 12 17  1  0  0  0  0
 13 12  1  0  0  0  0
 13 14  1  0  0  0  0
 15 13  2  0  0  0  0
 18 15  1  0  0  0  0
 19 20  2  0  0  0  0
 20 21  1  0  0  0  0
 21 22  1  0  0  0  0
 21  5  1  1  0  0  0
 23 22  1  0  0  0  0
 24 25  1  0  0  0  0
 24 22  1  0  0  0  0
 26 20  1  0  0  0  0
 26 24  1  0  0  0  0
 27 26  1  0  0  0  0
 28 30  1  0  0  0  0
 28 29  1  0  0  0  0
M  END
>  <minimizedAffinity>
-5.21290255

$$$$

 OpenBabel03272504463D

 30 32  0  0  1  0  0  0  0  0999 V2000
   37.1790   25.9080   32.9610 C   0  0  0  0  0  0  0  0  0  0  0  0
   36.9590   24.7430   32.2210 C   0  0  0  0  0  0  0  0  0  0  0  0
   37.4140   23.4840   32.6060 C   0  0  0  0  0  0  0  0  0  0  0  0
   38.0990   23.4660   33.7720 N   0  0  0  0  0  0  0  0  0  0  0  0
   38.3100   24.5890   34.4820 C   0  0  0  0  0  0  0  0  0  0  0  0
   37.8750   25.7780   34.1100 N   0  0  0  0  0  0  0  0  0  0  0  0
   36.7900   26.8530   32.5910 H   0  0  0  0  0  0  0  0  0  0  0  0
   39.6330   22.8330   30.7880 Cl  0  0  0  0  0  0  0  0  0  0  0  0
   38.1690   21.9070   30.9390 C   0  0  0  0  0  0  0  0  0  0  0  0
   37.1740   22.2900   31.8230 C   0  0  0  0  0  0  0  0  0  0  0  0
   36.0520   21.5080   31.8810 C   0  0  0  0  0  0  0  0  0  0  0  0
   35.8660   20.3760   31.1150 C   0  0  0  0  0  0  0  0  0  0  0  0
   36.9060   20.0250   30.2270 C   0  0  0  0  0  0  0  0  0  0  0  0
   36.6500   18.5960   29.2720 Cl  0  0  0  0  0  0  0  0  0  0  0  0
   38.0550   20.7800   30.1320 C   0  0  0  0  0  0  0  0  0  0  0  0
   35.2940   21.8440   32.5910 H   0  0  0  0  0  0  0  0  0  0  0  0
   34.9760   19.7810   31.1800 H   0  0  0  0  0  0  0  0  0  0  0  0
   38.8360   20.4800   29.4380 H   0  0  0  0  0  0  0  0  0  0  0  0
   37.1510   23.6830   37.0680 O   0  0  0  0  0  0  0  0  0  0  0  0
   38.2760   23.4390   36.5580 C   0  0  0  0  0  0  0  0  0  0  0  0
   39.0810   24.4220   35.7490 C   0  0  1  0  0  3  0  0  0  0  0  0
   40.3930   23.7380   35.5240 C   0  0  0  0  0  3  0  0  0  0  0  0
   41.2820   24.3690   35.7420 H   0  0  0  0  0  0  0  0  0  0  0  0
   40.3830   22.5270   36.4540 C   0  0  0  0  0  3  0  0  0  0  0  0
   40.9240   21.6970   35.9650 H   0  0  0  0  0  0  0  0  0  0  0  0
   38.9780   22.2040   36.6550 N   0  0  0  0  0  0  0  0  0  0  0  0
   38.5940   21.2480   36.8340 H   0  0  0  0  0  0  0  0  0  0  0  0
   36.2230   24.8820   31.0060 N   0  0  0  0  0  0  0  0  0  0  0  0
   36.4390   25.6690   30.3570 H   0  0  0  0  0  0  0  0  0  0  0  0
   35.4600   24.2480   30.6910 H   0  0  0  0  0  0  0  0  0  0  0  0
  1  6  1  0  0  0  0
  2  3  1  0  0  0  0
  2  1  2  0  0  0  0
  3  4  2  0  0  0  0
  4  5  1  0  0  0  0
  6  5  2  0  0  0  0
  7  1  1  0  0  0  0
  8  9  1  0  0  0  0
  9 10  1  0  0  0  0
 10 11  2  0  0  0  0
 10  3  1  0  0  0  0
 11 16  1  0  0  0  0
 12 17  1  0  0  0  0
 12 11  1  0  0  0  0
 13 12  2  0  0  0  0
 14 13  1  0  0  0  0
 15 13  1  0  0  0  0
 15  9  2  0  0  0  0
 18 15  1  0  0  0  0
 20 26  1  0  0  0  0
 20 19  2  0  0  0  0
 21  5  1  6  0  0  0
 21 20  1  0  0  0  0
 22 23  1  0  0  0  0
 22 21  1  0  0  0  0
 22 24  1  0  0  0  0
 24 26  1  0  0  0  0
 25 24  1  0  0  0  0
 26 27  1  0  0  0  0
 28  2  1  0  0  0  0
 29 28  1  0  0  0  0
 30 28  1  0  0  0  0
M  END
>  <minimizedAffinity>
-5.20345068

$$$$
