
 OpenBabel03272508303D

 32 34  0  0  1  0  0  0  0  0999 V2000
   36.7750   30.3780   47.9340 N   0  0  0  0  0  0  0  0  0  0  0  0
   35.4990   30.2520   47.2400 C   0  0  0  0  0  0  0  0  0  0  0  0
   35.6200   30.4490   45.7740 C   0  0  0  0  0  0  0  0  0  0  0  0
   36.9450   30.1740   45.3380 N   0  0  0  0  0  0  0  0  0  0  0  0
   37.7750   31.2660   45.8870 C   0  0  0  0  0  0  0  0  0  0  0  0
   38.0050   30.8400   47.3070 C   0  0  1  0  0  0  0  0  0  0  0  0
   35.0570   29.2340   47.4190 H   0  0  0  0  0  0  0  0  0  0  0  0
   34.7450   30.9620   47.6260 H   0  0  0  0  0  0  0  0  0  0  0  0
   34.9490   29.7300   45.2180 H   0  0  0  0  0  0  0  0  0  0  0  0
   35.3300   31.4690   45.4790 H   0  0  0  0  0  0  0  0  0  0  0  0
   37.0070   30.3230   44.3010 H   0  0  0  0  0  0  0  0  0  0  0  0
   38.7450   31.2690   45.3690 H   0  0  0  0  0  0  0  0  0  0  0  0
   37.2510   32.2420   45.8080 H   0  0  0  0  0  0  0  0  0  0  0  0
   38.6780   29.9560   47.2790 H   0  0  0  0  0  0  0  0  0  0  0  0
   38.0780   29.9420   49.9740 C   0  0  0  0  0  0  0  0  0  0  0  0
   36.8400   30.0340   49.3120 C   0  0  0  0  0  0  0  0  0  0  0  0
   35.6640   29.7910   50.0420 C   0  0  0  0  0  0  0  0  0  0  0  0
   35.8160   29.4760   51.3770 N   0  0  0  0  0  0  0  0  0  0  0  0
   37.0370   29.4040   51.9600 C   0  0  0  0  0  0  0  0  0  0  0  0
   38.1730   29.6310   51.2840 N   0  0  0  0  0  0  0  0  0  0  0  0
   38.9980   30.1220   49.4440 H   0  0  0  0  0  0  0  0  0  0  0  0
   34.7050   29.8480   49.5770 H   0  0  0  0  0  0  0  0  0  0  0  0
   36.8850   29.1430   53.0060 H   0  0  0  0  0  0  0  0  0  0  0  0
   36.5400   33.0060   49.1640 O   0  0  0  0  0  0  0  0  0  0  0  0
   37.7530   32.8000   48.8160 C   0  0  0  0  0  0  0  0  0  0  0  0
   38.6950   31.8890   48.1320 C   0  0  2  0  0  3  0  0  0  0  0  0
   39.4440   32.8880   47.2810 C   0  0  0  0  0  3  0  0  0  0  0  0
   38.6990   33.3390   46.5970 H   0  0  0  0  0  0  0  0  0  0  0  0
   39.8040   33.9190   48.3610 C   0  0  0  0  0  3  0  0  0  0  0  0
   40.6780   33.5900   48.9370 H   0  0  0  0  0  0  0  0  0  0  0  0
   38.6250   33.8720   49.2380 N   0  0  0  0  0  0  0  0  0  0  0  0
   38.6820   34.6310   49.9770 H   0  0  0  0  0  0  0  0  0  0  0  0
  1 16  1  0  0  0  0
  2  7  1  0  0  0  0
  2  8  1  0  0  0  0
  2  1  1  0  0  0  0
  3  2  1  0  0  0  0
  4  3  1  0  0  0  0
  4  5  1  0  0  0  0
  5  6  1  0  0  0  0
  6 14  1  6  0  0  0
  6  1  1  0  0  0  0
  6 26  1  0  0  0  0
  9  3  1  0  0  0  0
 10  3  1  0  0  0  0
 11  4  1  0  0  0  0
 12  5  1  0  0  0  0
 13  5  1  0  0  0  0
 15 20  1  0  0  0  0
 16 15  2  0  0  0  0
 16 17  1  0  0  0  0
 17 18  2  0  0  0  0
 18 19  1  0  0  0  0
 19 23  1  0  0  0  0
 20 19  2  0  0  0  0
 21 15  1  0  0  0  0
 22 17  1  0  0  0  0
 25 24  2  0  0  0  0
 25 31  1  0  0  0  0
 26 27  1  6  0  0  0
 26 25  1  0  0  0  0
 27 29  1  0  0  0  0
 28 27  1  0  0  0  0
 29 30  1  0  0  0  0
 29 31  1  0  0  0  0
 31 32  1  0  0  0  0
M  END
>  <minimizedAffinity>
-3.0153079

>  <minimizedRMSD>
2.34798789

$$$$
