
 OpenBabel03272501463D

 47 51  0  0  1  0  0  0  0  0999 V2000
   31.0170   26.8980   48.2160 C   0  0  0  0  0  0  0  0  0  0  0  0
   31.1740   26.2200   47.3700 H   0  0  0  0  0  0  0  0  0  0  0  0
   30.9870   26.3330   49.1730 H   0  0  0  0  0  0  0  0  0  0  0  0
   29.7390   27.6490   47.9930 C   0  0  1  0  0  0  0  0  0  0  0  0
   28.8440   26.7210   47.1660 C   0  0  0  0  0  0  0  0  0  0  0  0
   27.5800   26.5110   47.9510 C   0  0  0  0  0  0  0  0  0  0  0  0
   28.0090   26.7230   49.3620 C   0  0  0  0  0  0  0  0  0  0  0  0
   28.9470   27.9050   49.2290 C   0  0  2  0  0  0  0  0  0  0  0  0
   29.8950   28.5950   47.4510 H   0  0  0  0  0  0  0  0  0  0  0  0
   29.3410   25.7970   46.8610 H   0  0  0  0  0  0  0  0  0  0  0  0
   28.5430   27.2620   46.2370 H   0  0  0  0  0  0  0  0  0  0  0  0
   27.2280   25.4520   47.8550 H   0  0  0  0  0  0  0  0  0  0  0  0
   26.7730   27.2320   47.7110 H   0  0  0  0  0  0  0  0  0  0  0  0
   28.6320   25.8850   49.7470 H   0  0  0  0  0  0  0  0  0  0  0  0
   27.1660   26.9640   50.0490 H   0  0  0  0  0  0  0  0  0  0  0  0
   29.5720   27.9460   50.1510 H   0  0  0  0  0  0  0  0  0  0  0  0
   26.1000   28.3750   50.4790 O   0  0  0  0  0  0  0  0  0  0  0  0
   26.8090   29.0390   49.6510 C   0  0  0  0  0  0  0  0  0  0  0  0
   28.1570   29.1750   49.0880 C   0  0  2  0  0  0  0  0  0  0  0  0
   27.9050   29.5770   47.6710 C   0  0  0  0  0  0  0  0  0  0  0  0
   27.6740   28.7280   47.0290 H   0  0  0  0  0  0  0  0  0  0  0  0
   26.7550   30.5570   47.8370 C   0  0  0  0  0  0  0  0  0  0  0  0
   27.1840   31.5620   48.1170 H   0  0  0  0  0  0  0  0  0  0  0  0
   26.0250   30.0570   48.9940 N   0  0  0  0  0  0  0  0  0  0  0  0
   25.0980   30.5130   49.1300 H   0  0  0  0  0  0  0  0  0  0  0  0
   33.8920   28.9070   49.4150 C   0  0  0  0  0  0  0  0  0  0  0  0
   34.3770   29.4770   48.2310 C   0  0  0  0  0  0  0  0  0  0  0  0
   33.7100   29.1620   47.0490 C   0  0  0  0  0  0  0  0  0  0  0  0
   32.6450   28.3360   47.0960 N   0  0  0  0  0  0  0  0  0  0  0  0
   32.2020   27.7990   48.2720 C   0  0  0  0  0  0  0  0  0  0  0  0
   32.8330   28.0940   49.4050 N   0  0  0  0  0  0  0  0  0  0  0  0
   34.3550   29.1030   50.3680 H   0  0  0  0  0  0  0  0  0  0  0  0
   34.1040   29.6130   46.1680 H   0  0  0  0  0  0  0  0  0  0  0  0
   35.7720   30.8910   49.6170 C   0  0  0  0  0  0  0  0  0  0  0  0
   35.5310   30.3390   48.3780 C   0  0  0  0  0  0  0  0  0  0  0  0
   36.4220   30.6580   47.3640 C   0  0  0  0  0  0  0  0  0  0  0  0
   37.4990   31.5050   47.6420 C   0  0  0  0  0  0  0  0  0  0  0  0
   38.4920   31.9720   46.8740 N   0  0  0  0  0  0  0  0  0  0  0  0
   39.2850   32.7520   47.5870 C   0  0  0  0  0  0  0  0  0  0  0  0
   38.8090   32.8030   48.8480 N   0  0  0  0  0  0  0  0  0  0  0  0
   37.7030   32.0320   48.8860 C   0  0  0  0  0  0  0  0  0  0  0  0
   36.8260   31.7220   49.8950 C   0  0  0  0  0  0  0  0  0  0  0  0
   35.1180   30.6840   50.4520 H   0  0  0  0  0  0  0  0  0  0  0  0
   36.2440   30.2350   46.3980 H   0  0  0  0  0  0  0  0  0  0  0  0
   38.6090   31.7460   45.8710 H   0  0  0  0  0  0  0  0  0  0  0  0
   40.1700   33.2580   47.1930 H   0  0  0  0  0  0  0  0  0  0  0  0
   37.0010   32.1470   50.8740 H   0  0  0  0  0  0  0  0  0  0  0  0
  1 30  1  0  0  0  0
  1  3  1  0  0  0  0
  2  1  1  0  0  0  0
  4  9  1  6  0  0  0
  4  1  1  0  0  0  0
  4  8  1  0  0  0  0
  5  6  1  0  0  0  0
  5  4  1  0  0  0  0
  6  7  1  0  0  0  0
  7 14  1  0  0  0  0
  7 15  1  0  0  0  0
  8  7  1  0  0  0  0
  8 16  1  1  0  0  0
 10  5  1  0  0  0  0
 11  5  1  0  0  0  0
 12  6  1  0  0  0  0
 13  6  1  0  0  0  0
 18 17  2  0  0  0  0
 19 20  1  6  0  0  0
 19  8  1  0  0  0  0
 19 18  1  0  0  0  0
 20 22  1  0  0  0  0
 21 20  1  0  0  0  0
 22 23  1  0  0  0  0
 22 24  1  0  0  0  0
 24 25  1  0  0  0  0
 24 18  1  0  0  0  0
 26 32  1  0  0  0  0
 27 35  1  0  0  0  0
 27 26  2  0  0  0  0
 28 29  2  0  0  0  0
 28 27  1  0  0  0  0
 29 30  1  0  0  0  0
 30 31  2  0  0  0  0
 31 26  1  0  0  0  0
 33 28  1  0  0  0  0
 34 42  1  0  0  0  0
 34 43  1  0  0  0  0
 35 34  2  0  0  0  0
 36 37  2  0  0  0  0
 36 35  1  0  0  0  0
 37 41  1  0  0  0  0
 38 39  1  0  0  0  0
 38 37  1  0  0  0  0
 39 40  2  0  0  0  0
 40 41  1  0  0  0  0
 41 42  2  0  0  0  0
 42 47  1  0  0  0  0
 44 36  1  0  0  0  0
 45 38  1  0  0  0  0
 46 39  1  0  0  0  0
M  END
>  <minimizedAffinity>
-7.344244

>  <minimizedRMSD>
1.38312066

$$$$
