
 OpenBabel03272510203D

 36 39  0  0  1  0  0  0  0  0999 V2000
   37.2180   29.2260   50.9070 Br  0  0  0  0  0  0  0  0  0  0  0  0
   35.8820   29.3020   49.5430 C   0  0  0  0  0  0  0  0  0  0  0  0
   35.9350   30.2690   48.5530 C   0  0  0  0  0  0  0  0  0  0  0  0
   34.9420   30.2750   47.5950 C   0  0  0  0  0  0  0  0  0  0  0  0
   33.9020   29.3540   47.5870 C   0  0  0  0  0  0  0  0  0  0  0  0
   33.8770   28.4130   48.5770 C   0  0  0  0  0  0  0  0  0  0  0  0
   34.8650   28.3970   49.5410 C   0  0  0  0  0  0  0  0  0  0  0  0
   34.9880   31.0210   46.8360 H   0  0  0  0  0  0  0  0  0  0  0  0
   33.1010   27.6570   48.6470 H   0  0  0  0  0  0  0  0  0  0  0  0
   34.8440   27.6530   50.3220 H   0  0  0  0  0  0  0  0  0  0  0  0
   37.9550   33.1530   49.5040 C   0  0  0  0  0  0  0  0  0  0  0  0
   39.0090   33.1470   48.5410 C   0  0  0  0  0  0  0  0  0  0  0  0
   39.0010   32.1480   47.5840 C   0  0  0  0  0  0  0  0  0  0  0  0
   37.9960   31.2150   47.5950 N   0  0  0  0  0  0  0  0  0  0  0  0
   37.0140   31.2550   48.5260 C   0  0  0  0  0  0  0  0  0  0  0  0
   36.9930   32.2260   49.4820 N   0  0  0  0  0  0  0  0  0  0  0  0
   37.9960   33.9510   50.2370 H   0  0  0  0  0  0  0  0  0  0  0  0
   39.7780   33.9140   48.5850 H   0  0  0  0  0  0  0  0  0  0  0  0
   39.7870   32.1130   46.8370 H   0  0  0  0  0  0  0  0  0  0  0  0
   32.8530   29.3460   46.5910 C   0  0  0  0  0  0  0  0  0  0  0  0
   32.2460   28.2240   46.0850 C   0  0  0  0  0  0  0  0  0  0  0  0
   31.2440   28.2620   45.1290 C   0  0  0  0  0  0  0  0  0  0  0  0
   30.8360   29.4440   44.6650 N   0  0  0  0  0  0  0  0  0  0  0  0
   31.4140   30.5570   45.1430 C   0  0  0  0  0  0  0  0  0  0  0  0
   32.3820   30.5040   46.0670 N   0  0  0  0  0  0  0  0  0  0  0  0
   32.5760   27.2550   46.4620 H   0  0  0  0  0  0  0  0  0  0  0  0
   30.8090   27.3420   44.7750 H   0  0  0  0  0  0  0  0  0  0  0  0
   28.4650   31.4580   45.1600 O   0  0  0  0  0  0  0  0  0  0  0  0
   29.4650   31.9760   44.5710 C   0  0  0  0  0  0  0  0  0  0  0  0
   30.9430   31.8620   44.6100 C   0  0  2  0  0  3  0  0  0  0  0  0
   31.3420   31.9970   43.1540 C   0  0  0  0  0  3  0  0  0  0  0  0
   32.3410   32.4100   43.0150 H   0  0  0  0  0  0  0  0  0  0  0  0
   30.2630   32.8860   42.5410 C   0  0  0  0  0  3  0  0  0  0  0  0
   30.7280   33.8640   42.3330 H   0  0  0  0  0  0  0  0  0  0  0  0
   29.2210   32.9680   43.5550 N   0  0  0  0  0  0  0  0  0  0  0  0
   28.4700   33.7000   43.4160 H   0  0  0  0  0  0  0  0  0  0  0  0
  2  1  1  0  0  0  0
  3  2  2  0  0  0  0
  4  3  1  0  0  0  0
  5  4  2  0  0  0  0
  5  6  1  0  0  0  0
  6  9  1  0  0  0  0
  6  7  2  0  0  0  0
  7  2  1  0  0  0  0
  7 10  1  0  0  0  0
  8  4  1  0  0  0  0
 11 17  1  0  0  0  0
 12 18  1  0  0  0  0
 12 11  2  0  0  0  0
 13 14  2  0  0  0  0
 13 12  1  0  0  0  0
 14 15  1  0  0  0  0
 15  3  1  0  0  0  0
 15 16  2  0  0  0  0
 16 11  1  0  0  0  0
 19 13  1  0  0  0  0
 20  5  1  0  0  0  0
 21 26  1  0  0  0  0
 21 20  1  0  0  0  0
 22 21  2  0  0  0  0
 23 22  1  0  0  0  0
 23 24  2  0  0  0  0
 24 25  1  0  0  0  0
 25 20  2  0  0  0  0
 27 22  1  0  0  0  0
 29 30  1  0  0  0  0
 29 28  2  0  0  0  0
 30 24  1  6  0  0  0
 31 30  1  0  0  0  0
 32 31  1  0  0  0  0
 33 31  1  0  0  0  0
 33 35  1  0  0  0  0
 34 33  1  0  0  0  0
 35 29  1  0  0  0  0
 36 35  1  0  0  0  0
M  END
>  <minimizedAffinity>
-6.44210768

>  <minimizedRMSD>
0.271895975

$$$$
