
 OpenBabel03262523413D

 32 34  0  0  1  0  0  0  0  0999 V2000
   39.8870   27.0550   34.8530 C   0  0  0  0  0  0  0  0  0  0  0  0
   39.0370   25.9350   34.8250 C   0  0  0  0  0  0  0  0  0  0  0  0
   39.3950   24.8800   33.9590 C   0  0  0  0  0  0  0  0  0  0  0  0
   40.5320   24.9860   33.1950 N   0  0  0  0  0  0  0  0  0  0  0  0
   41.3180   26.0910   33.2610 C   0  0  0  0  0  0  0  0  0  0  0  0
   41.0040   27.1070   34.0730 N   0  0  0  0  0  0  0  0  0  0  0  0
   38.5920   23.7070   33.8750 N   0  0  0  0  0  0  0  0  0  0  0  0
   37.7590   23.5980   32.6920 C   0  0  0  0  0  0  0  0  0  0  0  0
   36.9390   22.3690   32.5970 C   0  0  0  0  0  0  0  0  0  0  0  0
   37.0390   21.4290   33.6150 N   0  0  0  0  0  0  0  0  0  0  0  0
   37.4330   21.8190   34.9220 C   0  0  0  0  0  0  0  0  0  0  0  0
   38.6410   22.7410   34.9060 C   0  0  2  0  0  0  0  0  0  0  0  0
   39.6430   27.8720   35.4990 H   0  0  0  0  0  0  0  0  0  0  0  0
   38.1510   25.8670   35.4270 H   0  0  0  0  0  0  0  0  0  0  0  0
   42.2180   26.1990   32.6700 H   0  0  0  0  0  0  0  0  0  0  0  0
   38.4760   23.7020   31.8320 H   0  0  0  0  0  0  0  0  0  0  0  0
   37.1570   24.5350   32.6500 H   0  0  0  0  0  0  0  0  0  0  0  0
   35.8770   22.6760   32.4790 H   0  0  0  0  0  0  0  0  0  0  0  0
   37.1850   21.8600   31.6200 H   0  0  0  0  0  0  0  0  0  0  0  0
   36.1820   20.8460   33.6840 H   0  0  0  0  0  0  0  0  0  0  0  0
   37.5980   20.9300   35.5250 H   0  0  0  0  0  0  0  0  0  0  0  0
   36.6130   22.4110   35.3780 H   0  0  0  0  0  0  0  0  0  0  0  0
   39.4940   22.0360   34.6010 H   0  0  0  0  0  0  0  0  0  0  0  0
   40.8310   21.4500   37.1550 O   0  0  0  0  0  0  0  0  0  0  0  0
   39.9300   22.3550   37.0300 C   0  0  0  0  0  0  0  0  0  0  0  0
   38.9800   23.1870   36.2750 C   0  0  2  0  0  3  0  0  0  0  0  0
   37.7300   23.0860   37.1590 C   0  0  0  0  0  3  0  0  0  0  0  0
   36.9820   23.8570   36.9280 H   0  0  0  0  0  0  0  0  0  0  0  0
   38.3050   23.2740   38.5750 C   0  0  0  0  0  3  0  0  0  0  0  0
   37.8610   22.5350   39.2690 H   0  0  0  0  0  0  0  0  0  0  0  0
   39.7020   22.8530   38.3780 N   0  0  0  0  0  0  0  0  0  0  0  0
   40.2420   23.0080   39.2780 H   0  0  0  0  0  0  0  0  0  0  0  0
  1 13  1  0  0  0  0
  2  1  1  0  0  0  0
  2 14  1  0  0  0  0
  3  2  2  0  0  0  0
  4  5  2  0  0  0  0
  4  3  1  0  0  0  0
  5  6  1  0  0  0  0
  6  1  2  0  0  0  0
  7  3  1  0  0  0  0
  7 12  1  0  0  0  0
  8  7  1  0  0  0  0
  9  8  1  0  0  0  0
  9 10  1  0  0  0  0
 10 20  1  0  0  0  0
 10 11  1  0  0  0  0
 11 22  1  0  0  0  0
 11 21  1  0  0  0  0
 12 23  1  6  0  0  0
 12 11  1  0  0  0  0
 12 26  1  0  0  0  0
 15  5  1  0  0  0  0
 16  8  1  0  0  0  0
 17  8  1  0  0  0  0
 18  9  1  0  0  0  0
 19  9  1  0  0  0  0
 25 24  2  0  0  0  0
 25 31  1  0  0  0  0
 26 25  1  1  0  0  0
 26 27  1  0  0  0  0
 27 29  1  0  0  0  0
 28 27  1  0  0  0  0
 29 30  1  0  0  0  0
 31 29  1  0  0  0  0
 31 32  1  0  0  0  0
M  END
>  <minimizedAffinity>
-4.98341608

$$$$

 OpenBabel03262523413D

 32 34  0  0  1  0  0  0  0  0999 V2000
   39.9790   27.0270   33.8410 C   0  0  0  0  0  0  0  0  0  0  0  0
   40.0670   26.1880   34.9660 C   0  0  0  0  0  0  0  0  0  0  0  0
   39.0690   25.2010   35.1090 C   0  0  0  0  0  0  0  0  0  0  0  0
   38.0740   25.1020   34.1670 N   0  0  0  0  0  0  0  0  0  0  0  0
   38.0360   25.9380   33.0990 C   0  0  0  0  0  0  0  0  0  0  0  0
   38.9700   26.8830   32.9370 N   0  0  0  0  0  0  0  0  0  0  0  0
   39.0880   24.3070   36.2170 N   0  0  0  0  0  0  0  0  0  0  0  0
   38.1230   24.5830   37.2650 C   0  0  0  0  0  0  0  0  0  0  0  0
   38.1300   23.6410   38.4070 C   0  0  0  0  0  0  0  0  0  0  0  0
   39.0280   22.5810   38.3820 N   0  0  0  0  0  0  0  0  0  0  0  0
   40.2340   22.6730   37.6390 C   0  0  0  0  0  0  0  0  0  0  0  0
   40.0080   23.2330   36.2450 C   0  0  2  0  0  0  0  0  0  0  0  0
   40.7220   27.7860   33.7040 H   0  0  0  0  0  0  0  0  0  0  0  0
   40.8510   26.2780   35.6950 H   0  0  0  0  0  0  0  0  0  0  0  0
   37.2640   25.8810   32.3430 H   0  0  0  0  0  0  0  0  0  0  0  0
   37.1310   24.6060   36.7360 H   0  0  0  0  0  0  0  0  0  0  0  0
   38.2870   25.6430   37.5670 H   0  0  0  0  0  0  0  0  0  0  0  0
   38.2820   24.2320   39.3360 H   0  0  0  0  0  0  0  0  0  0  0  0
   37.0890   23.2190   38.5200 H   0  0  0  0  0  0  0  0  0  0  0  0
   39.2490   22.2430   39.3390 H   0  0  0  0  0  0  0  0  0  0  0  0
   40.7180   21.7000   37.6210 H   0  0  0  0  0  0  0  0  0  0  0  0
   40.9080   23.3960   38.1450 H   0  0  0  0  0  0  0  0  0  0  0  0
   39.4650   22.3740   35.7110 H   0  0  0  0  0  0  0  0  0  0  0  0
   41.3910   21.3280   33.8000 O   0  0  0  0  0  0  0  0  0  0  0  0
   41.6400   22.3340   34.5580 C   0  0  0  0  0  0  0  0  0  0  0  0
   41.2900   23.3860   35.5240 C   0  0  2  0  0  3  0  0  0  0  0  0
   42.4460   23.2630   36.5270 C   0  0  0  0  0  3  0  0  0  0  0  0
   42.5340   24.1400   37.1830 H   0  0  0  0  0  0  0  0  0  0  0  0
   43.6740   23.1300   35.6080 C   0  0  0  0  0  3  0  0  0  0  0  0
   44.3430   22.3310   35.9790 H   0  0  0  0  0  0  0  0  0  0  0  0
   43.0590   22.6020   34.3790 N   0  0  0  0  0  0  0  0  0  0  0  0
   43.8000   22.5330   33.6220 H   0  0  0  0  0  0  0  0  0  0  0  0
  1  2  1  0  0  0  0
  2  3  2  0  0  0  0
  2 14  1  0  0  0  0
  3  7  1  0  0  0  0
  4  3  1  0  0  0  0
  5  4  2  0  0  0  0
  6  5  1  0  0  0  0
  6  1  2  0  0  0  0
  7 12  1  0  0  0  0
  7  8  1  0  0  0  0
  8 17  1  0  0  0  0
  8  9  1  0  0  0  0
  9 19  1  0  0  0  0
  9 18  1  0  0  0  0
 10  9  1  0  0  0  0
 10 20  1  0  0  0  0
 11 22  1  0  0  0  0
 11 10  1  0  0  0  0
 12 23  1  6  0  0  0
 12 11  1  0  0  0  0
 13  1  1  0  0  0  0
 15  5  1  0  0  0  0
 16  8  1  0  0  0  0
 21 11  1  0  0  0  0
 24 25  2  0  0  0  0
 26 25  1  6  0  0  0
 26 12  1  0  0  0  0
 26 27  1  0  0  0  0
 27 28  1  0  0  0  0
 29 30  1  0  0  0  0
 29 27  1  0  0  0  0
 31 25  1  0  0  0  0
 31 29  1  0  0  0  0
 32 31  1  0  0  0  0
M  END
>  <minimizedAffinity>
-4.92087841

$$$$

 OpenBabel03262523413D

 32 34  0  0  1  0  0  0  0  0999 V2000
   36.0710   28.4370   33.1230 C   0  0  0  0  0  0  0  0  0  0  0  0
   35.4990   28.9990   34.2770 C   0  0  0  0  0  0  0  0  0  0  0  0
   35.1280   30.3590   34.2120 C   0  0  0  0  0  0  0  0  0  0  0  0
   35.3360   31.0630   33.0500 N   0  0  0  0  0  0  0  0  0  0  0  0
   35.8920   30.4700   31.9630 C   0  0  0  0  0  0  0  0  0  0  0  0
   36.2530   29.1830   31.9960 N   0  0  0  0  0  0  0  0  0  0  0  0
   34.5380   31.0040   35.3350 N   0  0  0  0  0  0  0  0  0  0  0  0
   35.4080   31.8960   36.0780 C   0  0  0  0  0  0  0  0  0  0  0  0
   34.7870   32.5810   37.2350 C   0  0  0  0  0  0  0  0  0  0  0  0
   33.4470   32.3350   37.5050 N   0  0  0  0  0  0  0  0  0  0  0  0
   32.8390   31.1190   37.0970 C   0  0  0  0  0  0  0  0  0  0  0  0
   33.1840   30.7570   35.6630 C   0  0  2  0  0  0  0  0  0  0  0  0
   36.3630   27.4070   33.1400 H   0  0  0  0  0  0  0  0  0  0  0  0
   35.3440   28.4370   35.1790 H   0  0  0  0  0  0  0  0  0  0  0  0
   36.0660   31.0020   31.0370 H   0  0  0  0  0  0  0  0  0  0  0  0
   35.7930   32.6200   35.3090 H   0  0  0  0  0  0  0  0  0  0  0  0
   36.3070   31.2970   36.3510 H   0  0  0  0  0  0  0  0  0  0  0  0
   35.3940   32.3480   38.1360 H   0  0  0  0  0  0  0  0  0  0  0  0
   34.9220   33.6930   37.0960 H   0  0  0  0  0  0  0  0  0  0  0  0
   33.2190   32.5050   38.5040 H   0  0  0  0  0  0  0  0  0  0  0  0
   31.7660   31.1830   37.2610 H   0  0  0  0  0  0  0  0  0  0  0  0
   33.2440   30.2940   37.7190 H   0  0  0  0  0  0  0  0  0  0  0  0
   32.5940   31.5320   35.0560 H   0  0  0  0  0  0  0  0  0  0  0  0
   30.9530   29.9630   33.2320 O   0  0  0  0  0  0  0  0  0  0  0  0
   31.5870   29.4530   34.2240 C   0  0  0  0  0  0  0  0  0  0  0  0
   32.5970   29.4510   35.2940 C   0  0  2  0  0  3  0  0  0  0  0  0
   31.7760   28.9190   36.4760 C   0  0  0  0  0  3  0  0  0  0  0  0
   32.4050   28.5740   37.3090 H   0  0  0  0  0  0  0  0  0  0  0  0
   30.9980   27.7490   35.8450 C   0  0  0  0  0  3  0  0  0  0  0  0
   29.9420   27.7720   36.1730 H   0  0  0  0  0  0  0  0  0  0  0  0
   30.9880   28.1430   34.4260 N   0  0  0  0  0  0  0  0  0  0  0  0
   30.5380   27.3700   33.8550 H   0  0  0  0  0  0  0  0  0  0  0  0
  1 13  1  0  0  0  0
  1  2  1  0  0  0  0
  2 14  1  0  0  0  0
  3  2  2  0  0  0  0
  3  7  1  0  0  0  0
  4  3  1  0  0  0  0
  5  6  1  0  0  0  0
  5  4  2  0  0  0  0
  6  1  2  0  0  0  0
  7 12  1  0  0  0  0
  7  8  1  0  0  0  0
  8 17  1  0  0  0  0
  8  9  1  0  0  0  0
  9 10  1  0  0  0  0
  9 18  1  0  0  0  0
 10 20  1  0  0  0  0
 11 21  1  0  0  0  0
 11 10  1  0  0  0  0
 11 22  1  0  0  0  0
 12 23  1  6  0  0  0
 12 11  1  0  0  0  0
 15  5  1  0  0  0  0
 16  8  1  0  0  0  0
 19  9  1  0  0  0  0
 24 25  2  0  0  0  0
 25 31  1  0  0  0  0
 26 25  1  6  0  0  0
 26 12  1  0  0  0  0
 26 27  1  0  0  0  0
 27 28  1  0  0  0  0
 29 30  1  0  0  0  0
 29 27  1  0  0  0  0
 31 29  1  0  0  0  0
 32 31  1  0  0  0  0
M  END
>  <minimizedAffinity>
-4.79066944

$$$$

 OpenBabel03262523413D

 32 34  0  0  1  0  0  0  0  0999 V2000
   39.0980   20.8070   32.5800 C   0  0  0  0  0  0  0  0  0  0  0  0
   39.1820   22.0830   33.1620 C   0  0  0  0  0  0  0  0  0  0  0  0
   37.9670   22.7560   33.4090 C   0  0  0  0  0  0  0  0  0  0  0  0
   36.7780   22.1520   33.0780 N   0  0  0  0  0  0  0  0  0  0  0  0
   36.7540   20.9170   32.5170 C   0  0  0  0  0  0  0  0  0  0  0  0
   37.8900   20.2550   32.2720 N   0  0  0  0  0  0  0  0  0  0  0  0
   37.9620   24.0510   34.0010 N   0  0  0  0  0  0  0  0  0  0  0  0
   37.6990   25.1560   33.0980 C   0  0  0  0  0  0  0  0  0  0  0  0
   37.6760   26.5000   33.7190 C   0  0  0  0  0  0  0  0  0  0  0  0
   37.8880   26.5970   35.0880 N   0  0  0  0  0  0  0  0  0  0  0  0
   38.6290   25.6020   35.7770 C   0  0  0  0  0  0  0  0  0  0  0  0
   38.2050   24.1970   35.3870 C   0  0  2  0  0  0  0  0  0  0  0  0
   40.0020   20.2700   32.3800 H   0  0  0  0  0  0  0  0  0  0  0  0
   40.1190   22.5440   33.4140 H   0  0  0  0  0  0  0  0  0  0  0  0
   35.8320   20.4190   32.2470 H   0  0  0  0  0  0  0  0  0  0  0  0
   36.7200   24.8930   32.6100 H   0  0  0  0  0  0  0  0  0  0  0  0
   38.4400   25.0650   32.2710 H   0  0  0  0  0  0  0  0  0  0  0  0
   38.4140   27.1350   33.1840 H   0  0  0  0  0  0  0  0  0  0  0  0
   36.6820   26.9780   33.4800 H   0  0  0  0  0  0  0  0  0  0  0  0
   38.2540   27.5320   35.3540 H   0  0  0  0  0  0  0  0  0  0  0  0
   38.5530   25.7760   36.8470 H   0  0  0  0  0  0  0  0  0  0  0  0
   39.6950   25.6850   35.4800 H   0  0  0  0  0  0  0  0  0  0  0  0
   37.1700   24.1000   35.8730 H   0  0  0  0  0  0  0  0  0  0  0  0
   38.2670   23.2160   38.6360 O   0  0  0  0  0  0  0  0  0  0  0  0
   38.8770   23.0470   37.5200 C   0  0  0  0  0  0  0  0  0  0  0  0
   39.0450   23.1860   36.0650 C   0  0  2  0  0  3  0  0  0  0  0  0
   40.5160   23.6150   35.9760 C   0  0  0  0  0  3  0  0  0  0  0  0
   40.9300   23.5060   34.9640 H   0  0  0  0  0  0  0  0  0  0  0  0
   41.2050   22.6600   36.9670 C   0  0  0  0  0  3  0  0  0  0  0  0
   41.9260   23.2160   37.5950 H   0  0  0  0  0  0  0  0  0  0  0  0
   40.0840   22.3070   37.8540 N   0  0  0  0  0  0  0  0  0  0  0  0
   40.4110   21.5790   38.5540 H   0  0  0  0  0  0  0  0  0  0  0  0
  1  2  1  0  0  0  0
  2  3  2  0  0  0  0
  2 14  1  0  0  0  0
  3  7  1  0  0  0  0
  4  3  1  0  0  0  0
  5  4  2  0  0  0  0
  6  5  1  0  0  0  0
  6  1  2  0  0  0  0
  7 12  1  0  0  0  0
  8  9  1  0  0  0  0
  8  7  1  0  0  0  0
  9 10  1  0  0  0  0
 10 20  1  0  0  0  0
 10 11  1  0  0  0  0
 11 21  1  0  0  0  0
 12 11  1  0  0  0  0
 12 23  1  1  0  0  0
 12 26  1  0  0  0  0
 13  1  1  0  0  0  0
 15  5  1  0  0  0  0
 16  8  1  0  0  0  0
 17  8  1  0  0  0  0
 18  9  1  0  0  0  0
 19  9  1  0  0  0  0
 22 11  1  0  0  0  0
 25 31  1  0  0  0  0
 25 24  2  0  0  0  0
 26 27  1  1  0  0  0
 26 25  1  0  0  0  0
 27 29  1  0  0  0  0
 28 27  1  0  0  0  0
 29 30  1  0  0  0  0
 29 31  1  0  0  0  0
 31 32  1  0  0  0  0
M  END
>  <minimizedAffinity>
-4.78968382

$$$$

 OpenBabel03262523413D

 32 34  0  0  1  0  0  0  0  0999 V2000
   40.0190   22.9080   37.8230 C   0  0  0  0  0  0  0  0  0  0  0  0
   39.7840   22.9800   36.4390 C   0  0  0  0  0  0  0  0  0  0  0  0
   38.4690   23.2840   36.0270 C   0  0  0  0  0  0  0  0  0  0  0  0
   37.4940   23.4930   36.9720 N   0  0  0  0  0  0  0  0  0  0  0  0
   37.7750   23.4120   38.2970 C   0  0  0  0  0  0  0  0  0  0  0  0
   39.0130   23.1250   38.7170 N   0  0  0  0  0  0  0  0  0  0  0  0
   38.1470   23.3810   34.6440 N   0  0  0  0  0  0  0  0  0  0  0  0
   37.4220   22.2550   34.0850 C   0  0  0  0  0  0  0  0  0  0  0  0
   37.0710   22.3660   32.6510 C   0  0  0  0  0  0  0  0  0  0  0  0
   37.4410   23.5190   31.9690 N   0  0  0  0  0  0  0  0  0  0  0  0
   38.5490   24.2910   32.4040 C   0  0  0  0  0  0  0  0  0  0  0  0
   38.5330   24.5240   33.9050 C   0  0  2  0  0  0  0  0  0  0  0  0
   41.0060   22.6790   38.1680 H   0  0  0  0  0  0  0  0  0  0  0  0
   40.5560   22.8130   35.7120 H   0  0  0  0  0  0  0  0  0  0  0  0
   37.0260   23.5720   39.0610 H   0  0  0  0  0  0  0  0  0  0  0  0
   36.5140   22.1520   34.7410 H   0  0  0  0  0  0  0  0  0  0  0  0
   38.0250   21.3490   34.3230 H   0  0  0  0  0  0  0  0  0  0  0  0
   37.4870   21.4780   32.1290 H   0  0  0  0  0  0  0  0  0  0  0  0
   35.9530   22.2410   32.5540 H   0  0  0  0  0  0  0  0  0  0  0  0
   37.5310   23.3480   30.9490 H   0  0  0  0  0  0  0  0  0  0  0  0
   38.5800   25.2210   31.8410 H   0  0  0  0  0  0  0  0  0  0  0  0
   39.4800   23.7220   32.2010 H   0  0  0  0  0  0  0  0  0  0  0  0
   37.6630   25.2610   34.0390 H   0  0  0  0  0  0  0  0  0  0  0  0
   38.8160   27.4210   35.6520 O   0  0  0  0  0  0  0  0  0  0  0  0
   39.5180   26.5490   35.0240 C   0  0  0  0  0  0  0  0  0  0  0  0
   39.7370   25.2670   34.3360 C   0  0  2  0  0  3  0  0  0  0  0  0
   40.5130   25.7260   33.0940 C   0  0  0  0  0  3  0  0  0  0  0  0
   41.0200   24.8980   32.5790 H   0  0  0  0  0  0  0  0  0  0  0  0
   41.5290   26.7220   33.6820 C   0  0  0  0  0  3  0  0  0  0  0  0
   41.5840   27.6290   33.0510 H   0  0  0  0  0  0  0  0  0  0  0  0
   40.8460   27.1340   34.9200 N   0  0  0  0  0  0  0  0  0  0  0  0
   41.4850   27.7770   35.4720 H   0  0  0  0  0  0  0  0  0  0  0  0
  1 13  1  0  0  0  0
  1  6  1  0  0  0  0
  2  1  2  0  0  0  0
  3  2  1  0  0  0  0
  3  4  2  0  0  0  0
  4  5  1  0  0  0  0
  5  6  2  0  0  0  0
  5 15  1  0  0  0  0
  7  3  1  0  0  0  0
  8 17  1  0  0  0  0
  8  7  1  0  0  0  0
  8 16  1  0  0  0  0
  9  8  1  0  0  0  0
 10 11  1  0  0  0  0
 10  9  1  0  0  0  0
 11 12  1  0  0  0  0
 12 23  1  1  0  0  0
 12 26  1  0  0  0  0
 12  7  1  0  0  0  0
 14  2  1  0  0  0  0
 18  9  1  0  0  0  0
 19  9  1  0  0  0  0
 20 10  1  0  0  0  0
 21 11  1  0  0  0  0
 22 11  1  0  0  0  0
 25 24  2  0  0  0  0
 26 27  1  6  0  0  0
 26 25  1  0  0  0  0
 27 29  1  0  0  0  0
 28 27  1  0  0  0  0
 29 31  1  0  0  0  0
 30 29  1  0  0  0  0
 31 25  1  0  0  0  0
 31 32  1  0  0  0  0
M  END
>  <minimizedAffinity>
-4.7758193

$$$$

 OpenBabel03262523413D

 32 34  0  0  1  0  0  0  0  0999 V2000
   37.7080   23.3320   32.4460 C   0  0  0  0  0  0  0  0  0  0  0  0
   38.2300   23.4990   33.7400 C   0  0  0  0  0  0  0  0  0  0  0  0
   37.8600   22.5410   34.7090 C   0  0  0  0  0  0  0  0  0  0  0  0
   37.0240   21.5090   34.3570 N   0  0  0  0  0  0  0  0  0  0  0  0
   36.5490   21.3960   33.0910 C   0  0  0  0  0  0  0  0  0  0  0  0
   36.8830   22.2880   32.1520 N   0  0  0  0  0  0  0  0  0  0  0  0
   38.3490   22.6330   36.0430 N   0  0  0  0  0  0  0  0  0  0  0  0
   37.4020   23.1180   37.0290 C   0  0  0  0  0  0  0  0  0  0  0  0
   37.9060   23.1950   38.4180 C   0  0  0  0  0  0  0  0  0  0  0  0
   39.2120   22.7930   38.6700 N   0  0  0  0  0  0  0  0  0  0  0  0
   40.1920   22.8400   37.6450 C   0  0  0  0  0  0  0  0  0  0  0  0
   39.6830   22.2630   36.3350 C   0  0  2  0  0  0  0  0  0  0  0  0
   37.9700   24.0420   31.6880 H   0  0  0  0  0  0  0  0  0  0  0  0
   38.8820   24.3110   34.0010 H   0  0  0  0  0  0  0  0  0  0  0  0
   35.8900   20.5930   32.7880 H   0  0  0  0  0  0  0  0  0  0  0  0
   36.5180   22.4300   36.9320 H   0  0  0  0  0  0  0  0  0  0  0  0
   37.0230   24.0920   36.6420 H   0  0  0  0  0  0  0  0  0  0  0  0
   37.7660   24.2380   38.7750 H   0  0  0  0  0  0  0  0  0  0  0  0
   37.2160   22.5880   39.0750 H   0  0  0  0  0  0  0  0  0  0  0  0
   39.5950   23.2450   39.5220 H   0  0  0  0  0  0  0  0  0  0  0  0
   41.0960   22.3470   37.9920 H   0  0  0  0  0  0  0  0  0  0  0  0
   40.4290   23.9030   37.4300 H   0  0  0  0  0  0  0  0  0  0  0  0
   39.6280   21.1380   36.5580 H   0  0  0  0  0  0  0  0  0  0  0  0
   42.5490   20.5220   35.8110 O   0  0  0  0  0  0  0  0  0  0  0  0
   41.8830   21.5260   35.3680 C   0  0  0  0  0  0  0  0  0  0  0  0
   40.7000   22.3950   35.2700 C   0  0  2  0  0  3  0  0  0  0  0  0
   41.3450   23.7840   35.3630 C   0  0  0  0  0  3  0  0  0  0  0  0
   40.6720   24.5880   35.0330 H   0  0  0  0  0  0  0  0  0  0  0  0
   42.5600   23.6540   34.4260 C   0  0  0  0  0  3  0  0  0  0  0  0
   43.4550   24.1020   34.8970 H   0  0  0  0  0  0  0  0  0  0  0  0
   42.7810   22.1980   34.4410 N   0  0  0  0  0  0  0  0  0  0  0  0
   43.5600   21.9590   33.7620 H   0  0  0  0  0  0  0  0  0  0  0  0
  1  2  1  0  0  0  0
  2 14  1  0  0  0  0
  2  3  2  0  0  0  0
  3  7  1  0  0  0  0
  4  3  1  0  0  0  0
  5  4  2  0  0  0  0
  6  1  2  0  0  0  0
  6  5  1  0  0  0  0
  7 12  1  0  0  0  0
  7  8  1  0  0  0  0
  8  9  1  0  0  0  0
  9 10  1  0  0  0  0
  9 18  1  0  0  0  0
  9 19  1  0  0  0  0
 10 20  1  0  0  0  0
 11 21  1  0  0  0  0
 11 10  1  0  0  0  0
 12 23  1  1  0  0  0
 12 11  1  0  0  0  0
 13  1  1  0  0  0  0
 15  5  1  0  0  0  0
 16  8  1  0  0  0  0
 17  8  1  0  0  0  0
 22 11  1  0  0  0  0
 25 24  2  0  0  0  0
 26 27  1  1  0  0  0
 26 25  1  0  0  0  0
 26 12  1  0  0  0  0
 28 27  1  0  0  0  0
 29 31  1  0  0  0  0
 29 30  1  0  0  0  0
 29 27  1  0  0  0  0
 31 25  1  0  0  0  0
 32 31  1  0  0  0  0
M  END
>  <minimizedAffinity>
-4.73568153

$$$$

 OpenBabel03262523413D

 32 34  0  0  1  0  0  0  0  0999 V2000
   35.5710   30.1740   32.6370 C   0  0  0  0  0  0  0  0  0  0  0  0
   35.7170   28.7850   32.7980 C   0  0  0  0  0  0  0  0  0  0  0  0
   36.2310   28.0620   31.7010 C   0  0  0  0  0  0  0  0  0  0  0  0
   36.5600   28.7290   30.5450 N   0  0  0  0  0  0  0  0  0  0  0  0
   36.4000   30.0720   30.4430 C   0  0  0  0  0  0  0  0  0  0  0  0
   35.9150   30.7830   31.4670 N   0  0  0  0  0  0  0  0  0  0  0  0
   36.4150   26.6530   31.7830 N   0  0  0  0  0  0  0  0  0  0  0  0
   35.4290   25.8480   31.0850 C   0  0  0  0  0  0  0  0  0  0  0  0
   35.6330   24.3830   31.1560 C   0  0  0  0  0  0  0  0  0  0  0  0
   36.7330   23.9030   31.8540 N   0  0  0  0  0  0  0  0  0  0  0  0
   37.3140   24.6660   32.9000 C   0  0  0  0  0  0  0  0  0  0  0  0
   37.5050   26.1220   32.5110 C   0  0  2  0  0  0  0  0  0  0  0  0
   35.1840   30.7500   33.4510 H   0  0  0  0  0  0  0  0  0  0  0  0
   35.4540   28.2770   33.7070 H   0  0  0  0  0  0  0  0  0  0  0  0
   36.6520   30.6210   29.5450 H   0  0  0  0  0  0  0  0  0  0  0  0
   35.4490   26.2320   30.0290 H   0  0  0  0  0  0  0  0  0  0  0  0
   34.4350   26.1740   31.4680 H   0  0  0  0  0  0  0  0  0  0  0  0
   34.7060   23.9290   31.5680 H   0  0  0  0  0  0  0  0  0  0  0  0
   35.6830   23.9860   30.1000 H   0  0  0  0  0  0  0  0  0  0  0  0
   36.5790   22.9330   32.1930 H   0  0  0  0  0  0  0  0  0  0  0  0
   38.2430   24.1960   33.2130 H   0  0  0  0  0  0  0  0  0  0  0  0
   36.6150   24.6770   33.7620 H   0  0  0  0  0  0  0  0  0  0  0  0
   38.3630   26.0710   31.7500 H   0  0  0  0  0  0  0  0  0  0  0  0
   40.6890   26.4420   33.6440 O   0  0  0  0  0  0  0  0  0  0  0  0
   39.4800   26.7710   33.9250 C   0  0  0  0  0  0  0  0  0  0  0  0
   38.0420   26.9050   33.6450 C   0  0  2  0  0  3  0  0  0  0  0  0
   37.4360   26.3740   34.9510 C   0  0  0  0  0  3  0  0  0  0  0  0
   36.3770   26.6430   35.0680 H   0  0  0  0  0  0  0  0  0  0  0  0
   38.3050   27.0550   36.0250 C   0  0  0  0  0  3  0  0  0  0  0  0
   38.5820   26.3260   36.8100 H   0  0  0  0  0  0  0  0  0  0  0  0
   39.5390   27.3240   35.2690 N   0  0  0  0  0  0  0  0  0  0  0  0
   40.2100   27.8700   35.8840 H   0  0  0  0  0  0  0  0  0  0  0  0
  1  2  1  0  0  0  0
  1 13  1  0  0  0  0
  2 14  1  0  0  0  0
  3  7  1  0  0  0  0
  3  2  2  0  0  0  0
  4  3  1  0  0  0  0
  5  4  2  0  0  0  0
  5  6  1  0  0  0  0
  6  1  2  0  0  0  0
  7 12  1  0  0  0  0
  8  9  1  0  0  0  0
  8 17  1  0  0  0  0
  8  7  1  0  0  0  0
  9 18  1  0  0  0  0
  9 10  1  0  0  0  0
 10 20  1  0  0  0  0
 10 11  1  0  0  0  0
 11 21  1  0  0  0  0
 11 22  1  0  0  0  0
 12 23  1  6  0  0  0
 12 11  1  0  0  0  0
 12 26  1  0  0  0  0
 15  5  1  0  0  0  0
 16  8  1  0  0  0  0
 19  9  1  0  0  0  0
 24 25  2  0  0  0  0
 25 31  1  0  0  0  0
 26 25  1  1  0  0  0
 26 27  1  0  0  0  0
 27 28  1  0  0  0  0
 27 29  1  0  0  0  0
 29 30  1  0  0  0  0
 31 32  1  0  0  0  0
 31 29  1  0  0  0  0
M  END
>  <minimizedAffinity>
-4.72699308

$$$$

 OpenBabel03262523413D

 32 34  0  0  1  0  0  0  0  0999 V2000
   34.9670   20.6430   31.9180 C   0  0  0  0  0  0  0  0  0  0  0  0
   35.5540   21.5870   32.7780 C   0  0  0  0  0  0  0  0  0  0  0  0
   36.9470   21.4890   32.9810 C   0  0  0  0  0  0  0  0  0  0  0  0
   37.6570   20.4990   32.3460 N   0  0  0  0  0  0  0  0  0  0  0  0
   37.0400   19.6130   31.5250 C   0  0  0  0  0  0  0  0  0  0  0  0
   35.7200   19.6810   31.3130 N   0  0  0  0  0  0  0  0  0  0  0  0
   37.6220   22.4100   33.8330 N   0  0  0  0  0  0  0  0  0  0  0  0
   37.9990   21.9000   35.1380 C   0  0  0  0  0  0  0  0  0  0  0  0
   38.7170   22.8520   36.0150 C   0  0  0  0  0  0  0  0  0  0  0  0
   38.9820   24.1260   35.5280 N   0  0  0  0  0  0  0  0  0  0  0  0
   38.1630   24.6990   34.5200 C   0  0  0  0  0  0  0  0  0  0  0  0
   37.8820   23.7270   33.3870 C   0  0  2  0  0  0  0  0  0  0  0  0
   33.9120   20.6900   31.7430 H   0  0  0  0  0  0  0  0  0  0  0  0
   34.9860   22.3550   33.2680 H   0  0  0  0  0  0  0  0  0  0  0  0
   37.5750   18.8240   31.0130 H   0  0  0  0  0  0  0  0  0  0  0  0
   38.6080   20.9810   34.9150 H   0  0  0  0  0  0  0  0  0  0  0  0
   37.0670   21.4960   35.5950 H   0  0  0  0  0  0  0  0  0  0  0  0
   38.1520   22.9310   36.9680 H   0  0  0  0  0  0  0  0  0  0  0  0
   39.6970   22.3790   36.3180 H   0  0  0  0  0  0  0  0  0  0  0  0
   39.0970   24.8140   36.2980 H   0  0  0  0  0  0  0  0  0  0  0  0
   38.6190   25.6220   34.1710 H   0  0  0  0  0  0  0  0  0  0  0  0
   37.1730   24.9370   34.9610 H   0  0  0  0  0  0  0  0  0  0  0  0
   38.8980   23.6560   32.8560 H   0  0  0  0  0  0  0  0  0  0  0  0
   38.1630   23.9670   30.0130 O   0  0  0  0  0  0  0  0  0  0  0  0
   37.4210   24.3360   30.9920 C   0  0  0  0  0  0  0  0  0  0  0  0
   36.9680   24.3270   32.3920 C   0  0  2  0  0  3  0  0  0  0  0  0
   36.8420   25.8310   32.6720 C   0  0  0  0  0  3  0  0  0  0  0  0
   36.2510   26.0470   33.5730 H   0  0  0  0  0  0  0  0  0  0  0  0
   36.1360   26.3500   31.4050 C   0  0  0  0  0  3  0  0  0  0  0  0
   36.6180   27.2830   31.0550 H   0  0  0  0  0  0  0  0  0  0  0  0
   36.5040   25.3140   30.4260 N   0  0  0  0  0  0  0  0  0  0  0  0
   36.0100   25.5140   29.5080 H   0  0  0  0  0  0  0  0  0  0  0  0
  1  2  1  0  0  0  0
  2  3  2  0  0  0  0
  2 14  1  0  0  0  0
  3  7  1  0  0  0  0
  4  3  1  0  0  0  0
  5  4  2  0  0  0  0
  6  5  1  0  0  0  0
  6  1  2  0  0  0  0
  7  8  1  0  0  0  0
  8 17  1  0  0  0  0
  8  9  1  0  0  0  0
  9 19  1  0  0  0  0
  9 18  1  0  0  0  0
 10  9  1  0  0  0  0
 10 20  1  0  0  0  0
 11 22  1  0  0  0  0
 11 10  1  0  0  0  0
 12 23  1  6  0  0  0
 12  7  1  0  0  0  0
 12 11  1  0  0  0  0
 13  1  1  0  0  0  0
 15  5  1  0  0  0  0
 16  8  1  0  0  0  0
 21 11  1  0  0  0  0
 24 25  2  0  0  0  0
 26 25  1  6  0  0  0
 26 27  1  0  0  0  0
 26 12  1  0  0  0  0
 27 28  1  0  0  0  0
 29 27  1  0  0  0  0
 30 29  1  0  0  0  0
 31 25  1  0  0  0  0
 31 29  1  0  0  0  0
 32 31  1  0  0  0  0
M  END
>  <minimizedAffinity>
-4.53946304

$$$$

 OpenBabel03262523413D

 32 34  0  0  1  0  0  0  0  0999 V2000
   36.3890   24.9340   31.2320 C   0  0  0  0  0  0  0  0  0  0  0  0
   37.6210   25.0100   31.9050 C   0  0  0  0  0  0  0  0  0  0  0  0
   37.9390   26.2370   32.5230 C   0  0  0  0  0  0  0  0  0  0  0  0
   37.0540   27.2860   32.4440 N   0  0  0  0  0  0  0  0  0  0  0  0
   35.8770   27.1580   31.7810 C   0  0  0  0  0  0  0  0  0  0  0  0
   35.5480   26.0060   31.1850 N   0  0  0  0  0  0  0  0  0  0  0  0
   39.1650   26.3960   33.2300 N   0  0  0  0  0  0  0  0  0  0  0  0
   40.1920   27.1600   32.5460 C   0  0  0  0  0  0  0  0  0  0  0  0
   41.4590   27.3410   33.2900 C   0  0  0  0  0  0  0  0  0  0  0  0
   41.5600   26.7920   34.5630 N   0  0  0  0  0  0  0  0  0  0  0  0
   40.7730   25.6700   34.9300 C   0  0  0  0  0  0  0  0  0  0  0  0
   39.3200   25.8270   34.5150 C   0  0  2  0  0  0  0  0  0  0  0  0
   36.1180   24.0160   30.7520 H   0  0  0  0  0  0  0  0  0  0  0  0
   38.3030   24.1820   31.9570 H   0  0  0  0  0  0  0  0  0  0  0  0
   35.1630   27.9680   31.7040 H   0  0  0  0  0  0  0  0  0  0  0  0
   39.6970   28.1390   32.2990 H   0  0  0  0  0  0  0  0  0  0  0  0
   40.3290   26.6740   31.5530 H   0  0  0  0  0  0  0  0  0  0  0  0
   42.2860   26.9560   32.6550 H   0  0  0  0  0  0  0  0  0  0  0  0
   41.6650   28.4480   33.3650 H   0  0  0  0  0  0  0  0  0  0  0  0
   42.5480   26.6080   34.8230 H   0  0  0  0  0  0  0  0  0  0  0  0
   40.8820   25.4910   35.9970 H   0  0  0  0  0  0  0  0  0  0  0  0
   41.1450   24.7800   34.3810 H   0  0  0  0  0  0  0  0  0  0  0  0
   38.9350   26.6330   35.2360 H   0  0  0  0  0  0  0  0  0  0  0  0
   37.9990   24.8030   37.4700 O   0  0  0  0  0  0  0  0  0  0  0  0
   38.1740   24.4210   36.2570 C   0  0  0  0  0  0  0  0  0  0  0  0
   38.5440   24.6120   34.8460 C   0  0  2  0  0  3  0  0  0  0  0  0
   39.4190   23.3760   34.5980 C   0  0  0  0  0  3  0  0  0  0  0  0
   39.5740   23.1720   33.5300 H   0  0  0  0  0  0  0  0  0  0  0  0
   38.6070   22.2510   35.2680 C   0  0  0  0  0  3  0  0  0  0  0  0
   39.2750   21.6000   35.8620 H   0  0  0  0  0  0  0  0  0  0  0  0
   37.8110   23.0130   36.2450 N   0  0  0  0  0  0  0  0  0  0  0  0
   37.1390   22.3530   36.7340 H   0  0  0  0  0  0  0  0  0  0  0  0
  1  2  1  0  0  0  0
  2 14  1  0  0  0  0
  2  3  2  0  0  0  0
  3  7  1  0  0  0  0
  4  3  1  0  0  0  0
  5  4  2  0  0  0  0
  6  1  2  0  0  0  0
  6  5  1  0  0  0  0
  7 12  1  0  0  0  0
  8  7  1  0  0  0  0
  8  9  1  0  0  0  0
  9 19  1  0  0  0  0
  9 10  1  0  0  0  0
 10 20  1  0  0  0  0
 10 11  1  0  0  0  0
 11 21  1  0  0  0  0
 12 26  1  0  0  0  0
 12 11  1  0  0  0  0
 12 23  1  1  0  0  0
 13  1  1  0  0  0  0
 15  5  1  0  0  0  0
 16  8  1  0  0  0  0
 17  8  1  0  0  0  0
 18  9  1  0  0  0  0
 22 11  1  0  0  0  0
 25 24  2  0  0  0  0
 26 27  1  1  0  0  0
 26 25  1  0  0  0  0
 27 29  1  0  0  0  0
 28 27  1  0  0  0  0
 29 30  1  0  0  0  0
 29 31  1  0  0  0  0
 31 25  1  0  0  0  0
 31 32  1  0  0  0  0
M  END
>  <minimizedAffinity>
-4.52368689

$$$$
