
 OpenBabel03272506533D

 44 47  0  0  1  0  0  0  0  0999 V2000
   36.8830   31.5800   44.3980 C   0  0  1  0  0  0  0  0  0  0  0  0
   36.4120   32.0050   43.1040 C   0  0  0  0  0  0  0  0  0  0  0  0
   36.4330   30.9650   42.0070 C   0  0  0  0  0  0  0  0  0  0  0  0
   36.0170   29.6270   42.3540 C   0  0  2  0  0  0  0  0  0  0  0  0
   36.4860   29.1440   43.7330 C   0  0  0  0  0  0  0  0  0  0  0  0
   36.3140   30.2200   44.7630 C   0  0  0  0  0  0  0  0  0  0  0  0
   36.4050   32.2370   45.1940 H   0  0  0  0  0  0  0  0  0  0  0  0
   36.8740   32.8970   42.6730 H   0  0  0  0  0  0  0  0  0  0  0  0
   35.3240   32.2840   43.1980 H   0  0  0  0  0  0  0  0  0  0  0  0
   37.5600   30.9010   41.8180 H   0  0  0  0  0  0  0  0  0  0  0  0
   35.8920   31.3700   41.1400 H   0  0  0  0  0  0  0  0  0  0  0  0
   34.9260   29.4520   42.4450 H   0  0  0  0  0  0  0  0  0  0  0  0
   36.0750   28.2830   44.1490 H   0  0  0  0  0  0  0  0  0  0  0  0
   37.6000   28.9930   43.6220 H   0  0  0  0  0  0  0  0  0  0  0  0
   35.2340   30.3310   45.0100 H   0  0  0  0  0  0  0  0  0  0  0  0
   36.8250   29.8870   45.6880 H   0  0  0  0  0  0  0  0  0  0  0  0
   36.6290   28.6860   41.3870 C   0  0  0  0  0  0  0  0  0  0  0  0
   35.7790   27.8410   40.6440 C   0  0  0  0  0  0  0  0  0  0  0  0
   36.2860   26.9410   39.7260 C   0  0  0  0  0  0  0  0  0  0  0  0
   37.6160   26.8890   39.5570 C   0  0  0  0  0  0  0  0  0  0  0  0
   38.4750   27.6950   40.2700 C   0  0  0  0  0  0  0  0  0  0  0  0
   37.9700   28.5960   41.1950 C   0  0  0  0  0  0  0  0  0  0  0  0
   34.7010   27.7410   40.6720 H   0  0  0  0  0  0  0  0  0  0  0  0
   35.7030   26.2660   39.1260 H   0  0  0  0  0  0  0  0  0  0  0  0
   38.0690   26.1880   38.8290 H   0  0  0  0  0  0  0  0  0  0  0  0
   39.5530   27.5840   40.0590 H   0  0  0  0  0  0  0  0  0  0  0  0
   39.1950   30.8670   40.2160 O   0  0  0  0  0  0  0  0  0  0  0  0
   39.7450   30.2090   41.1610 C   0  0  0  0  0  0  0  0  0  0  0  0
   39.0030   29.2710   41.9850 C   0  0  2  0  0  3  0  0  0  0  0  0
   40.1270   28.2450   42.3510 C   0  0  0  0  0  3  0  0  0  0  0  0
   40.0340   27.8950   43.3820 H   0  0  0  0  0  0  0  0  0  0  0  0
   41.4010   28.9750   42.1380 C   0  0  0  0  0  3  0  0  0  0  0  0
   42.0000   29.1060   43.0630 H   0  0  0  0  0  0  0  0  0  0  0  0
   41.0830   30.2570   41.5610 N   0  0  0  0  0  0  0  0  0  0  0  0
   41.7370   31.0530   41.4690 H   0  0  0  0  0  0  0  0  0  0  0  0
   39.1750   32.4460   43.9110 C   0  0  0  0  0  0  0  0  0  0  0  0
   38.3160   31.6970   44.7030 C   0  0  0  0  0  0  0  0  0  0  0  0
   38.8600   31.0460   45.8130 C   0  0  0  0  0  0  0  0  0  0  0  0
   40.2000   31.1800   46.0600 N   0  0  0  0  0  0  0  0  0  0  0  0
   41.0040   31.9190   45.2620 C   0  0  0  0  0  0  0  0  0  0  0  0
   40.4810   32.5590   44.1770 N   0  0  0  0  0  0  0  0  0  0  0  0
   38.9430   33.0150   43.0520 H   0  0  0  0  0  0  0  0  0  0  0  0
   38.2540   30.4480   46.4710 H   0  0  0  0  0  0  0  0  0  0  0  0
   42.0280   31.9270   45.5870 H   0  0  0  0  0  0  0  0  0  0  0  0
  1 37  1  0  0  0  0
  1  6  1  0  0  0  0
  1  7  1  1  0  0  0
  2  9  1  0  0  0  0
  2  1  1  0  0  0  0
  3  4  1  0  0  0  0
  3  2  1  0  0  0  0
  4 12  1  6  0  0  0
  4  5  1  0  0  0  0
  5 13  1  0  0  0  0
  5  6  1  0  0  0  0
  6 15  1  0  0  0  0
  6 16  1  0  0  0  0
  8  2  1  0  0  0  0
 10  3  1  0  0  0  0
 11  3  1  0  0  0  0
 14  5  1  0  0  0  0
 17  4  1  0  0  0  0
 18 23  1  0  0  0  0
 18 17  2  0  0  0  0
 19 18  1  0  0  0  0
 20 19  2  0  0  0  0
 20 21  1  0  0  0  0
 21 22  2  0  0  0  0
 22 17  1  0  0  0  0
 24 19  1  0  0  0  0
 25 20  1  0  0  0  0
 26 21  1  0  0  0  0
 27 28  2  0  0  0  0
 28 34  1  0  0  0  0
 28 29  1  0  0  0  0
 29 22  1  6  0  0  0
 29 30  1  0  0  0  0
 30 31  1  0  0  0  0
 32 30  1  0  0  0  0
 32 33  1  0  0  0  0
 34 32  1  0  0  0  0
 35 34  1  0  0  0  0
 36 41  2  0  0  0  0
 36 37  1  0  0  0  0
 37 38  2  0  0  0  0
 38 39  1  0  0  0  0
 38 43  1  0  0  0  0
 40 44  1  0  0  0  0
 40 39  2  0  0  0  0
 41 40  1  0  0  0  0
 42 36  1  0  0  0  0
M  END
>  <minimizedAffinity>
-3.6703341

>  <minimizedRMSD>
7.77548838

$$$$
