
 OpenBabel03272506473D

 42 44  0  0  1  0  0  0  0  0999 V2000
   32.1660   28.5340   47.3530 C   0  0  2  0  0  0  0  0  0  0  0  0
   33.4050   28.3610   48.1830 C   0  0  1  0  0  0  0  0  0  0  0  0
   33.8340   27.0770   48.0350 O   0  0  0  0  0  0  0  0  0  0  0  0
   33.1580   26.4820   46.9750 C   0  0  0  0  0  0  0  0  0  0  0  0
   32.5390   27.5940   46.1640 C   0  0  1  0  0  0  0  0  0  0  0  0
   31.2450   28.1560   47.7920 H   0  0  0  0  0  0  0  0  0  0  0  0
   33.2050   28.6210   49.2390 H   0  0  0  0  0  0  0  0  0  0  0  0
   33.8620   25.8830   46.3330 H   0  0  0  0  0  0  0  0  0  0  0  0
   32.4770   25.7640   47.4090 H   0  0  0  0  0  0  0  0  0  0  0  0
   33.2810   28.1170   45.5690 H   0  0  0  0  0  0  0  0  0  0  0  0
   32.0710   29.8580   46.8760 O   0  0  0  0  0  0  0  0  0  0  0  0
   32.3660   29.8650   45.9330 H   0  0  0  0  0  0  0  0  0  0  0  0
   34.6960   29.4710   47.4930 S   0  0  0  0  0  0  0  0  0  0  0  0
   37.1010   29.2390   50.6340 C   0  0  0  0  0  0  0  0  0  0  0  0
   37.5710   30.5310   50.8340 C   0  0  0  0  0  0  0  0  0  0  0  0
   37.1210   31.5270   49.9520 C   0  0  0  0  0  0  0  0  0  0  0  0
   36.2580   31.1810   48.9560 N   0  0  0  0  0  0  0  0  0  0  0  0
   35.8320   29.9050   48.8070 C   0  0  0  0  0  0  0  0  0  0  0  0
   36.2470   28.9160   49.6420 N   0  0  0  0  0  0  0  0  0  0  0  0
   37.4340   28.4560   51.3000 H   0  0  0  0  0  0  0  0  0  0  0  0
   38.2490   30.8110   51.6130 H   0  0  0  0  0  0  0  0  0  0  0  0
   37.4320   32.5600   50.0300 H   0  0  0  0  0  0  0  0  0  0  0  0
   31.4160   27.1220   45.5330 O   0  0  0  0  0  0  0  0  0  0  0  0
   29.8370   29.2230   44.2080 Cl  0  0  0  0  0 15  0  0  0  0  0  0
   29.3390   28.1190   45.4700 C   0  0  0  0  0  3  0  0  0  0  0  0
   30.1730   27.1650   46.0090 C   0  0  0  0  0  0  0  0  0  0  0  0
   29.6570   26.3250   46.9980 C   0  0  0  0  0  0  0  0  0  0  0  0
   28.3510   26.4530   47.4180 C   0  0  0  0  0  0  0  0  0  0  0  0
   27.5070   27.4080   46.8830 C   0  0  0  0  0  0  0  0  0  0  0  0
   28.0090   28.2440   45.9020 C   0  0  0  0  0  0  0  0  0  0  0  0
   30.2280   25.5490   47.4740 H   0  0  0  0  0  0  0  0  0  0  0  0
   27.9000   25.8380   48.1740 H   0  0  0  0  0  0  0  0  0  0  0  0
   26.4660   27.5430   47.1880 H   0  0  0  0  0  0  0  0  0  0  0  0
   25.3060   27.9740   44.3720 O   0  0  0  0  0  0  0  0  0  0  0  0
   26.2960   28.7550   44.2100 C   0  0  0  0  0  0  0  0  0  0  0  0
   27.1180   29.2730   45.3180 C   0  0  2  0  0  3  0  0  0  0  0  0
   27.8670   30.4140   44.6850 C   0  0  0  0  0  3  0  0  0  0  0  0
   28.9520   30.2010   44.5590 H   0  0  0  0  0  0  0  0  0  0  0  0
   27.3120   30.6130   43.2890 C   0  0  0  0  0  3  0  0  0  0  0  0
   26.5080   31.3750   43.2450 H   0  0  0  0  0  0  0  0  0  0  0  0
   26.8160   29.2840   42.9770 N   0  0  0  0  0  0  0  0  0  0  0  0
   26.7910   28.7250   42.0760 H   0  0  0  0  0  0  0  0  0  0  0  0
  1  6  1  1  0  0  0
  1  2  1  0  0  0  0
  2  7  1  1  0  0  0
  3  2  1  0  0  0  0
  4  9  1  0  0  0  0
  4  3  1  0  0  0  0
  5 10  1  6  0  0  0
  5  4  1  0  0  0  0
  5  1  1  0  0  0  0
  8  4  1  0  0  0  0
 11  1  1  0  0  0  0
 12 11  1  0  0  0  0
 13  2  1  0  0  0  0
 13 18  1  0  0  0  0
 14 15  1  0  0  0  0
 14 20  1  0  0  0  0
 15 21  1  0  0  0  0
 16 22  1  0  0  0  0
 16 15  2  0  0  0  0
 17 16  1  0  0  0  0
 18 17  2  0  0  0  0
 18 19  1  0  0  0  0
 19 14  2  0  0  0  0
 23 26  1  0  0  0  0
 23  5  1  0  0  0  0
 25 30  2  0  0  0  0
 25 26  1  0  0  0  0
 26 27  2  0  0  0  0
 27 28  1  0  0  0  0
 27 31  1  0  0  0  0
 28 32  1  0  0  0  0
 29 33  1  0  0  0  0
 29 28  2  0  0  0  0
 30 29  1  0  0  0  0
 35 34  2  0  0  0  0
 35 36  1  0  0  0  0
 36 30  1  6  0  0  0
 37 36  1  0  0  0  0
 38 37  1  0  0  0  0
 39 37  1  0  0  0  0
 40 39  1  0  0  0  0
 41 39  1  0  0  0  0
 41 35  1  0  0  0  0
 42 41  1  0  0  0  0
M  END
>  <minimizedAffinity>
-5.08114052

>  <minimizedRMSD>
0.522144437

$$$$
