
 OpenBabel03272505183D

 33 35  0  0  1  0  0  0  0  0999 V2000
   37.1420   29.4800   50.1790 C   0  0  0  0  0  0  0  0  0  0  0  0
   38.0270   30.1110   49.2840 C   0  0  0  0  0  0  0  0  0  0  0  0
   37.6060   30.5030   48.0200 C   0  0  0  0  0  0  0  0  0  0  0  0
   36.3060   30.2170   47.7700 N   0  0  0  0  0  0  0  0  0  0  0  0
   35.4550   29.6210   48.6060 C   0  0  0  0  0  0  0  0  0  0  0  0
   35.8790   29.2470   49.8260 N   0  0  0  0  0  0  0  0  0  0  0  0
   37.5570   29.2080   51.1440 H   0  0  0  0  0  0  0  0  0  0  0  0
   39.0380   30.2870   49.5920 H   0  0  0  0  0  0  0  0  0  0  0  0
   38.9880   32.4120   47.4710 C   0  0  0  0  0  0  0  0  0  0  0  0
   38.5770   31.1420   47.1680 C   0  0  0  0  0  0  0  0  0  0  0  0
   39.1240   30.5540   46.0570 C   0  0  0  0  0  0  0  0  0  0  0  0
   40.0310   31.1810   45.2790 C   0  0  0  0  0  0  0  0  0  0  0  0
   40.4700   32.4670   45.5540 C   0  0  0  0  0  0  0  0  0  0  0  0
   39.9260   33.0550   46.6620 C   0  0  0  0  0  0  0  0  0  0  0  0
   38.7920   29.5440   45.8240 H   0  0  0  0  0  0  0  0  0  0  0  0
   40.4060   30.6350   44.4220 H   0  0  0  0  0  0  0  0  0  0  0  0
   41.1990   32.9290   44.9010 H   0  0  0  0  0  0  0  0  0  0  0  0
   40.3130   34.0610   46.8180 H   0  0  0  0  0  0  0  0  0  0  0  0
   39.2770   34.2770   48.9480 N   0  0  0  0  0  0  0  0  0  0  0  0
   38.5730   33.2350   48.5700 C   0  0  0  0  0  0  0  0  0  0  0  0
   37.5670   33.3920   49.5440 N   0  0  0  0  0  0  0  0  0  0  0  0
   38.9590   34.8740   49.7450 H   0  0  0  0  0  0  0  0  0  0  0  0
   37.6060   32.8500   50.4420 H   0  0  0  0  0  0  0  0  0  0  0  0
   36.7350   33.9890   49.5380 H   0  0  0  0  0  0  0  0  0  0  0  0
   34.3050   27.1300   48.3750 O   0  0  0  0  0  0  0  0  0  0  0  0
   33.9000   28.0170   47.5520 C   0  0  0  0  0  0  0  0  0  0  0  0
   34.0490   29.3830   48.1630 C   0  0  2  0  0  3  0  0  0  0  0  0
   33.6780   30.2810   47.0070 C   0  0  0  0  0  3  0  0  0  0  0  0
   32.6180   30.5880   47.0990 H   0  0  0  0  0  0  0  0  0  0  0  0
   33.7970   29.4030   45.7800 C   0  0  0  0  0  3  0  0  0  0  0  0
   34.8570   29.3750   45.4590 H   0  0  0  0  0  0  0  0  0  0  0  0
   33.3530   28.1060   46.2400 N   0  0  0  0  0  0  0  0  0  0  0  0
   32.8000   27.2410   45.9780 H   0  0  0  0  0  0  0  0  0  0  0  0
  1  7  1  0  0  0  0
  2  8  1  0  0  0  0
  2  1  2  0  0  0  0
  3  2  1  0  0  0  0
  4  3  2  0  0  0  0
  4  5  1  0  0  0  0
  5  6  2  0  0  0  0
  6  1  1  0  0  0  0
  9 20  1  0  0  0  0
 10  9  1  0  0  0  0
 10  3  1  0  0  0  0
 11 10  2  0  0  0  0
 12 13  2  0  0  0  0
 12 11  1  0  0  0  0
 13 14  1  0  0  0  0
 14 18  1  0  0  0  0
 14  9  2  0  0  0  0
 15 11  1  0  0  0  0
 16 12  1  0  0  0  0
 17 13  1  0  0  0  0
 19 22  1  0  0  0  0
 20 19  2  0  0  0  0
 20 21  1  0  0  0  0
 21 23  1  0  0  0  0
 24 21  1  0  0  0  0
 26 27  1  0  0  0  0
 26 25  2  0  0  0  0
 27  5  1  6  0  0  0
 28 29  1  0  0  0  0
 28 27  1  0  0  0  0
 30 32  1  0  0  0  0
 30 28  1  0  0  0  0
 31 30  1  0  0  0  0
 32 26  1  0  0  0  0
 33 32  1  0  0  0  0
M  END
>  <minimizedAffinity>
-6.39652681

>  <minimizedRMSD>
1.16673148

$$$$
