
 OpenBabel03272504273D

 42 45  0  0  1  0  0  0  0  0999 V2000
   35.5890   29.6010   48.3040 C   0  0  0  0  0  0  0  0  0  0  0  0
   35.3580   28.8460   49.4000 C   0  0  0  0  0  0  0  0  0  0  0  0
   34.4880   27.8250   49.3680 C   0  0  0  0  0  0  0  0  0  0  0  0
   33.8340   27.5550   48.2070 N   0  0  0  0  0  0  0  0  0  0  0  0
   34.0700   28.3030   47.1380 C   0  0  0  0  0  0  0  0  0  0  0  0
   34.9390   29.3260   47.1650 N   0  0  0  0  0  0  0  0  0  0  0  0
   35.8900   29.0770   50.3180 H   0  0  0  0  0  0  0  0  0  0  0  0
   34.3160   27.2300   50.2580 H   0  0  0  0  0  0  0  0  0  0  0  0
   31.9650   27.6870   46.0330 C   0  0  0  0  0  0  0  0  0  0  0  0
   33.3400   27.9120   45.9530 C   0  0  0  0  0  0  0  0  0  0  0  0
   34.0830   27.7630   44.7990 C   0  0  0  0  0  0  0  0  0  0  0  0
   33.4460   27.3670   43.6440 C   0  0  0  0  0  0  0  0  0  0  0  0
   32.0940   27.1200   43.6250 C   0  0  0  0  0  0  0  0  0  0  0  0
   31.4480   27.2930   44.8060 C   0  0  0  0  0  0  0  0  0  0  0  0
   35.1480   27.9500   44.7860 H   0  0  0  0  0  0  0  0  0  0  0  0
   34.0500   27.2550   42.7420 H   0  0  0  0  0  0  0  0  0  0  0  0
   31.5860   26.8120   42.7400 H   0  0  0  0  0  0  0  0  0  0  0  0
   30.3660   27.0950   44.7890 H   0  0  0  0  0  0  0  0  0  0  0  0
   31.0320   27.8760   47.4000 S   0  0  0  0  0  0  0  0  0  0  0  0
   30.0480   26.6940   47.1180 O   0  0  0  0  0  0  0  0  0  0  0  0
   30.2770   29.1730   47.2520 O   0  0  0  0  0  0  0  0  0  0  0  0
   30.7480   27.6670   48.9580 C   0  0  0  0  0  0  0  0  0  0  0  0
   30.2060   26.4980   49.5320 F   0  0  0  0  0  0  0  0  0  0  0  0
   29.5290   28.4010   49.3400 F   0  0  0  0  0  0  0  0  0  0  0  0
   31.4170   28.4370   49.9500 F   0  0  0  0  0  0  0  0  0  0  0  0
   37.7050   32.4050   49.3670 C   0  0  0  0  0  0  0  0  0  0  0  0
   38.3470   32.7770   48.1690 C   0  0  0  0  0  0  0  0  0  0  0  0
   38.0300   32.0500   47.0210 C   0  0  0  0  0  0  0  0  0  0  0  0
   37.1280   31.0330   47.1310 N   0  0  0  0  0  0  0  0  0  0  0  0
   36.5290   30.7050   48.3130 C   0  0  0  0  0  0  0  0  0  0  0  0
   36.8240   31.3950   49.4220 N   0  0  0  0  0  0  0  0  0  0  0  0
   37.9560   32.9700   50.2470 H   0  0  0  0  0  0  0  0  0  0  0  0
   39.0490   33.5980   48.1740 H   0  0  0  0  0  0  0  0  0  0  0  0
   40.5920   30.9460   46.0250 O   0  0  0  0  0  0  0  0  0  0  0  0
   39.7080   31.4760   45.2900 C   0  0  0  0  0  0  0  0  0  0  0  0
   38.6790   32.4110   45.7530 C   0  0  1  0  0  3  0  0  0  0  0  0
   37.6860   32.3570   44.5850 C   0  0  0  0  0  3  0  0  0  0  0  0
   37.1250   31.4190   44.6980 H   0  0  0  0  0  0  0  0  0  0  0  0
   38.6520   32.2330   43.4030 C   0  0  0  0  0  3  0  0  0  0  0  0
   39.1330   33.2000   43.2030 H   0  0  0  0  0  0  0  0  0  0  0  0
   39.6050   31.2190   43.8740 N   0  0  0  0  0  0  0  0  0  0  0  0
   40.1400   30.4430   43.3810 H   0  0  0  0  0  0  0  0  0  0  0  0
  1 30  1  0  0  0  0
  1  2  1  0  0  0  0
  2  7  1  0  0  0  0
  3  2  2  0  0  0  0
  3  8  1  0  0  0  0
  4  3  1  0  0  0  0
  5  6  1  0  0  0  0
  5  4  2  0  0  0  0
  6  1  2  0  0  0  0
  9 19  1  0  0  0  0
 10  9  1  0  0  0  0
 10  5  1  0  0  0  0
 11 10  2  0  0  0  0
 12 11  1  0  0  0  0
 13 12  2  0  0  0  0
 13 14  1  0  0  0  0
 14  9  2  0  0  0  0
 15 11  1  0  0  0  0
 16 12  1  0  0  0  0
 17 13  1  0  0  0  0
 18 14  1  0  0  0  0
 19 22  1  0  0  0  0
 20 19  2  0  0  0  0
 21 19  2  0  0  0  0
 22 24  1  0  0  0  0
 22 23  1  0  0  0  0
 22 25  1  0  0  0  0
 26 31  1  0  0  0  0
 26 32  1  0  0  0  0
 27 33  1  0  0  0  0
 27 26  2  0  0  0  0
 28 29  2  0  0  0  0
 28 27  1  0  0  0  0
 29 30  1  0  0  0  0
 30 31  2  0  0  0  0
 35 36  1  0  0  0  0
 35 34  2  0  0  0  0
 36 28  1  1  0  0  0
 37 38  1  0  0  0  0
 37 36  1  0  0  0  0
 39 41  1  0  0  0  0
 39 37  1  0  0  0  0
 40 39  1  0  0  0  0
 41 35  1  0  0  0  0
 42 41  1  0  0  0  0
M  END
>  <minimizedAffinity>
-6.17886114

>  <minimizedRMSD>
0.792788684

$$$$
