
 OpenBabel03272504263D

 42 45  0  0  1  0  0  0  0  0999 V2000
   35.5860   29.6000   48.3050 C   0  0  0  0  0  0  0  0  0  0  0  0
   35.3560   28.8440   49.4000 C   0  0  0  0  0  0  0  0  0  0  0  0
   34.4860   27.8230   49.3670 C   0  0  0  0  0  0  0  0  0  0  0  0
   33.8310   27.5530   48.2070 N   0  0  0  0  0  0  0  0  0  0  0  0
   34.0670   28.3020   47.1380 C   0  0  0  0  0  0  0  0  0  0  0  0
   34.9350   29.3250   47.1650 N   0  0  0  0  0  0  0  0  0  0  0  0
   35.8880   29.0750   50.3170 H   0  0  0  0  0  0  0  0  0  0  0  0
   34.3150   27.2280   50.2580 H   0  0  0  0  0  0  0  0  0  0  0  0
   31.9610   27.6860   46.0340 C   0  0  0  0  0  0  0  0  0  0  0  0
   33.3360   27.9120   45.9540 C   0  0  0  0  0  0  0  0  0  0  0  0
   34.0790   27.7630   44.7990 C   0  0  0  0  0  0  0  0  0  0  0  0
   33.4410   27.3670   43.6440 C   0  0  0  0  0  0  0  0  0  0  0  0
   32.0890   27.1200   43.6260 C   0  0  0  0  0  0  0  0  0  0  0  0
   31.4430   27.2930   44.8070 C   0  0  0  0  0  0  0  0  0  0  0  0
   35.1430   27.9500   44.7850 H   0  0  0  0  0  0  0  0  0  0  0  0
   34.0440   27.2560   42.7420 H   0  0  0  0  0  0  0  0  0  0  0  0
   31.5800   26.8130   42.7410 H   0  0  0  0  0  0  0  0  0  0  0  0
   30.3610   27.0950   44.7900 H   0  0  0  0  0  0  0  0  0  0  0  0
   31.0290   27.8750   47.4010 S   0  0  0  0  0  0  0  0  0  0  0  0
   30.0470   26.6900   47.1230 O   0  0  0  0  0  0  0  0  0  0  0  0
   30.2700   29.1700   47.2520 O   0  0  0  0  0  0  0  0  0  0  0  0
   30.7460   27.6680   48.9600 C   0  0  0  0  0  0  0  0  0  0  0  0
   30.2040   26.5000   49.5360 F   0  0  0  0  0  0  0  0  0  0  0  0
   29.5300   28.4040   49.3430 F   0  0  0  0  0  0  0  0  0  0  0  0
   31.4180   28.4380   49.9510 F   0  0  0  0  0  0  0  0  0  0  0  0
   37.7020   32.4040   49.3670 C   0  0  0  0  0  0  0  0  0  0  0  0
   38.3430   32.7760   48.1690 C   0  0  0  0  0  0  0  0  0  0  0  0
   38.0260   32.0490   47.0220 C   0  0  0  0  0  0  0  0  0  0  0  0
   37.1250   31.0320   47.1310 N   0  0  0  0  0  0  0  0  0  0  0  0
   36.5260   30.7040   48.3130 C   0  0  0  0  0  0  0  0  0  0  0  0
   36.8200   31.3940   49.4220 N   0  0  0  0  0  0  0  0  0  0  0  0
   37.9520   32.9690   50.2470 H   0  0  0  0  0  0  0  0  0  0  0  0
   39.0460   33.5970   48.1750 H   0  0  0  0  0  0  0  0  0  0  0  0
   40.5890   30.9450   46.0260 O   0  0  0  0  0  0  0  0  0  0  0  0
   39.7050   31.4750   45.2910 C   0  0  0  0  0  0  0  0  0  0  0  0
   38.6760   32.4100   45.7530 C   0  0  1  0  0  3  0  0  0  0  0  0
   37.6830   32.3560   44.5850 C   0  0  0  0  0  3  0  0  0  0  0  0
   37.1220   31.4180   44.6990 H   0  0  0  0  0  0  0  0  0  0  0  0
   38.6500   32.2320   43.4040 C   0  0  0  0  0  3  0  0  0  0  0  0
   39.1300   33.1990   43.2030 H   0  0  0  0  0  0  0  0  0  0  0  0
   39.6010   31.2180   43.8750 N   0  0  0  0  0  0  0  0  0  0  0  0
   40.1380   30.4430   43.3820 H   0  0  0  0  0  0  0  0  0  0  0  0
  1 30  1  0  0  0  0
  1  2  1  0  0  0  0
  2  7  1  0  0  0  0
  3  2  2  0  0  0  0
  3  8  1  0  0  0  0
  4  3  1  0  0  0  0
  5  6  1  0  0  0  0
  5  4  2  0  0  0  0
  6  1  2  0  0  0  0
  9 19  1  0  0  0  0
 10  9  1  0  0  0  0
 10  5  1  0  0  0  0
 11 10  2  0  0  0  0
 12 11  1  0  0  0  0
 13 12  2  0  0  0  0
 13 14  1  0  0  0  0
 14  9  2  0  0  0  0
 15 11  1  0  0  0  0
 16 12  1  0  0  0  0
 17 13  1  0  0  0  0
 18 14  1  0  0  0  0
 19 22  1  0  0  0  0
 20 19  2  0  0  0  0
 21 19  2  0  0  0  0
 22 24  1  0  0  0  0
 22 23  1  0  0  0  0
 22 25  1  0  0  0  0
 26 31  1  0  0  0  0
 26 32  1  0  0  0  0
 27 33  1  0  0  0  0
 27 26  2  0  0  0  0
 28 29  2  0  0  0  0
 28 27  1  0  0  0  0
 29 30  1  0  0  0  0
 30 31  2  0  0  0  0
 35 36  1  0  0  0  0
 35 34  2  0  0  0  0
 36 28  1  1  0  0  0
 37 38  1  0  0  0  0
 37 36  1  0  0  0  0
 39 41  1  0  0  0  0
 39 37  1  0  0  0  0
 40 39  1  0  0  0  0
 41 35  1  0  0  0  0
 42 41  1  0  0  0  0
M  END
>  <minimizedAffinity>
-6.18359756

>  <minimizedRMSD>
0.862561047

$$$$
