
 OpenBabel03272506273D

 42 45  0  0  1  0  0  0  0  0999 V2000
   34.0330   27.0740   44.8820 C   0  0  0  0  0  0  0  0  0  0  0  0
   34.1160   25.7750   44.4200 C   0  0  0  0  0  0  0  0  0  0  0  0
   34.8270   25.3900   43.2810 C   0  0  0  0  0  0  0  0  0  0  0  0
   35.5080   26.3890   42.5520 C   0  0  0  0  0  0  0  0  0  0  0  0
   35.4100   27.6790   43.0350 C   0  0  0  0  0  0  0  0  0  0  0  0
   34.7120   28.0420   44.1490 C   0  0  0  0  0  0  0  0  0  0  0  0
   33.5970   24.9700   44.9630 H   0  0  0  0  0  0  0  0  0  0  0  0
   34.8180   24.3260   43.0140 H   0  0  0  0  0  0  0  0  0  0  0  0
   36.0100   25.9800   41.7130 H   0  0  0  0  0  0  0  0  0  0  0  0
   35.9710   28.2660   42.3570 H   0  0  0  0  0  0  0  0  0  0  0  0
   33.8970   27.0680   47.2970 C   0  0  0  0  0  0  0  0  0  0  0  0
   33.2510   27.2860   46.0700 C   0  0  0  0  0  0  0  0  0  0  0  0
   31.9090   27.6900   46.0910 C   0  0  0  0  0  0  0  0  0  0  0  0
   31.2950   27.8510   47.2960 N   0  0  0  0  0  0  0  0  0  0  0  0
   31.9460   27.6320   48.4740 C   0  0  0  0  0  0  0  0  0  0  0  0
   33.2490   27.2390   48.4680 N   0  0  0  0  0  0  0  0  0  0  0  0
   34.9140   26.7600   47.3300 H   0  0  0  0  0  0  0  0  0  0  0  0
   31.3570   27.7910   49.3730 H   0  0  0  0  0  0  0  0  0  0  0  0
   31.0980   27.9560   44.8770 C   0  0  0  0  0  0  0  0  0  0  0  0
   29.7670   28.2230   45.2510 F   0  0  0  0  0  0  0  0  0  0  0  0
   31.5300   28.9580   44.0860 F   0  0  0  0  0  0  0  0  0  0  0  0
   30.9970   26.7910   44.1170 F   0  0  0  0  0  0  0  0  0  0  0  0
   34.6070   29.6880   44.7430 S   0  0  0  0  0  0  0  0  0  0  0  0
   34.1000   30.4160   47.7250 Cl  0  0  0  0  0  0  0  0  0  0  0  0
   35.7170   30.4930   47.0550 C   0  0  0  0  0  0  0  0  0  0  0  0
   35.9970   30.1870   45.7190 C   0  0  0  0  0  0  0  0  0  0  0  0
   37.2730   30.2670   45.2450 C   0  0  0  0  0  0  0  0  0  0  0  0
   38.2850   30.6530   46.1130 C   0  0  0  0  0  0  0  0  0  0  0  0
   38.0090   30.9540   47.4320 C   0  0  0  0  0  0  0  0  0  0  0  0
   36.7220   30.8810   47.9260 C   0  0  0  0  0  0  0  0  0  0  0  0
   37.5810   30.0930   44.2480 H   0  0  0  0  0  0  0  0  0  0  0  0
   39.3110   30.7300   45.7860 H   0  0  0  0  0  0  0  0  0  0  0  0
   38.8360   31.2530   48.0800 H   0  0  0  0  0  0  0  0  0  0  0  0
   35.9450   29.2130   50.7580 O   0  0  0  0  0  0  0  0  0  0  0  0
   36.6470   30.1590   50.2950 C   0  0  0  0  0  0  0  0  0  0  0  0
   36.4470   31.2040   49.3200 C   0  0  1  0  0  0  0  0  0  0  0  0
   37.3960   32.2700   49.8370 C   0  0  0  0  0  0  0  0  0  0  0  0
   37.6880   32.9790   49.0360 H   0  0  0  0  0  0  0  0  0  0  0  0
   38.5870   31.4220   50.2320 C   0  0  0  0  0  0  0  0  0  0  0  0
   39.2620   31.1800   49.3880 H   0  0  0  0  0  0  0  0  0  0  0  0
   37.9650   30.2600   50.8370 N   0  0  0  0  0  0  0  0  0  0  0  0
   38.5300   29.7000   51.5330 H   0  0  0  0  0  0  0  0  0  0  0  0
  1 12  1  0  0  0  0
  2  1  1  0  0  0  0
  2  7  1  0  0  0  0
  3  2  2  0  0  0  0
  4  5  2  0  0  0  0
  4  3  1  0  0  0  0
  5  6  1  0  0  0  0
  6 23  1  0  0  0  0
  6  1  2  0  0  0  0
  8  3  1  0  0  0  0
  9  4  1  0  0  0  0
 10  5  1  0  0  0  0
 11 17  1  0  0  0  0
 11 16  1  0  0  0  0
 12 13  1  0  0  0  0
 12 11  2  0  0  0  0
 13 14  2  0  0  0  0
 14 15  1  0  0  0  0
 15 18  1  0  0  0  0
 16 15  2  0  0  0  0
 19 20  1  0  0  0  0
 19 13  1  0  0  0  0
 21 19  1  0  0  0  0
 22 19  1  0  0  0  0
 23 26  1  0  0  0  0
 25 24  1  0  0  0  0
 25 30  1  0  0  0  0
 26 25  2  0  0  0  0
 27 26  1  0  0  0  0
 27 28  2  0  0  0  0
 28 29  1  0  0  0  0
 29 30  2  0  0  0  0
 29 33  1  0  0  0  0
 31 27  1  0  0  0  0
 32 28  1  0  0  0  0
 35 34  2  0  0  0  0
 35 41  1  0  0  0  0
 36 30  1  6  0  0  0
 36 37  1  0  0  0  0
 36 35  1  0  0  0  0
 37 39  1  0  0  0  0
 38 37  1  0  0  0  0
 39 41  1  0  0  0  0
 40 39  1  0  0  0  0
 41 42  1  0  0  0  0
M  END
>  <minimizedAffinity>
-5.53029966

>  <minimizedRMSD>
2.8228848

$$$$
