
 OpenBabel03272508133D

 34 36  0  0  1  0  0  0  0  0999 V2000
   39.1990   22.4020   33.5080 Cl  0  0  0  0  0  0  0  0  0  0  0  0
   37.7930   21.8280   34.4110 C   0  0  0  0  0  0  0  0  0  0  0  0
   36.8280   20.9610   33.8810 C   0  0  0  0  0  0  0  0  0  0  0  0
   35.7740   20.5880   34.6980 C   0  0  0  0  0  0  0  0  0  0  0  0
   35.6890   21.0670   35.9950 C   0  0  0  0  0  0  0  0  0  0  0  0
   36.6130   21.9080   36.5230 C   0  0  0  0  0  0  0  0  0  0  0  0
   37.6490   22.2740   35.7250 C   0  0  0  0  0  0  0  0  0  0  0  0
   35.0820   19.9290   34.2290 H   0  0  0  0  0  0  0  0  0  0  0  0
   34.8280   20.7230   36.5630 H   0  0  0  0  0  0  0  0  0  0  0  0
   36.4840   22.2430   37.5460 H   0  0  0  0  0  0  0  0  0  0  0  0
   40.4240   21.6420   36.6600 O   0  0  0  0  0  0  0  0  0  0  0  0
   39.6380   22.4840   37.1670 C   0  0  0  0  0  0  0  0  0  0  0  0
   38.6850   23.2080   36.2950 C   0  0  2  0  0  3  0  0  0  0  0  0
   37.9520   24.1880   37.1910 C   0  0  0  0  0  3  0  0  0  0  0  0
   38.4570   25.1920   37.1540 H   0  0  0  0  0  0  0  0  0  0  0  0
   38.1200   23.5470   38.5490 C   0  0  0  0  0  3  0  0  0  0  0  0
   37.9930   24.2770   39.3680 H   0  0  0  0  0  0  0  0  0  0  0  0
   39.4350   22.9460   38.5160 N   0  0  0  0  0  0  0  0  0  0  0  0
   40.2130   22.7890   39.2230 H   0  0  0  0  0  0  0  0  0  0  0  0
   37.0970   20.6040   32.5830 O   0  0  0  0  0  0  0  0  0  0  0  0
   36.8340   20.2270   30.0380 O   0  0  0  0  0  0  0  0  0  0  0  0
   36.0840   20.6570   31.2480 P   0  0  1  0  0  0  0  0  0  0  0  0
   34.8420   19.5180   31.5680 O   0  0  0  0  0  0  0  0  0  0  0  0
   34.3240   19.9040   32.3170 H   0  0  0  0  0  0  0  0  0  0  0  0
   35.4030   22.2040   31.1150 O   0  0  0  0  0  0  0  0  0  0  0  0
   37.7640   25.0150   30.8400 C   0  0  0  0  0  0  0  0  0  0  0  0
   37.3590   23.6780   30.8440 C   0  0  0  0  0  0  0  0  0  0  0  0
   36.0070   23.3920   31.0680 C   0  0  0  0  0  0  0  0  0  0  0  0
   35.1560   24.4460   31.2720 N   0  0  0  0  0  0  0  0  0  0  0  0
   35.5900   25.7200   31.2600 C   0  0  0  0  0  0  0  0  0  0  0  0
   36.8960   25.9950   31.0420 N   0  0  0  0  0  0  0  0  0  0  0  0
   38.8150   25.1080   30.6590 H   0  0  0  0  0  0  0  0  0  0  0  0
   37.9260   22.7770   30.6990 H   0  0  0  0  0  0  0  0  0  0  0  0
   34.9220   26.5640   31.4200 H   0  0  0  0  0  0  0  0  0  0  0  0
  1  2  1  0  0  0  0
  2  7  1  0  0  0  0
  3  2  2  0  0  0  0
  3  4  1  0  0  0  0
  4  5  2  0  0  0  0
  5  6  1  0  0  0  0
  5  9  1  0  0  0  0
  6 10  1  0  0  0  0
  7  6  2  0  0  0  0
  8  4  1  0  0  0  0
 11 12  2  0  0  0  0
 12 18  1  0  0  0  0
 13  7  1  1  0  0  0
 13 12  1  0  0  0  0
 13 14  1  0  0  0  0
 14 16  1  0  0  0  0
 15 14  1  0  0  0  0
 16 17  1  0  0  0  0
 18 16  1  0  0  0  0
 18 19  1  0  0  0  0
 20  3  1  0  0  0  0
 22 21  2  6  0  0  0
 22 23  1  0  0  0  0
 22 20  1  0  0  0  0
 23 24  1  0  0  0  0
 25 22  1  0  0  0  0
 26 27  2  0  0  0  0
 26 31  1  0  0  0  0
 27 28  1  0  0  0  0
 28 25  1  0  0  0  0
 28 29  2  0  0  0  0
 30 29  1  0  0  0  0
 30 34  1  0  0  0  0
 31 30  2  0  0  0  0
 32 26  1  0  0  0  0
 33 27  1  0  0  0  0
M  END
>  <minimizedAffinity>
-6.01198435

$$$$

 OpenBabel03272508133D

 34 36  0  0  1  0  0  0  0  0999 V2000
   35.7590   29.9140   34.5890 Cl  0  0  0  0  0  0  0  0  0  0  0  0
   36.1460   29.1660   33.0360 C   0  0  0  0  0  0  0  0  0  0  0  0
   36.6650   27.8720   32.9030 C   0  0  0  0  0  0  0  0  0  0  0  0
   36.9240   27.4070   31.6240 C   0  0  0  0  0  0  0  0  0  0  0  0
   36.6740   28.2080   30.5220 C   0  0  0  0  0  0  0  0  0  0  0  0
   36.1720   29.4640   30.6340 C   0  0  0  0  0  0  0  0  0  0  0  0
   35.9160   29.9220   31.8870 C   0  0  0  0  0  0  0  0  0  0  0  0
   37.3160   26.4180   31.6010 H   0  0  0  0  0  0  0  0  0  0  0  0
   36.9070   27.7620   29.5590 H   0  0  0  0  0  0  0  0  0  0  0  0
   35.9990   30.0360   29.7290 H   0  0  0  0  0  0  0  0  0  0  0  0
   33.1050   30.8650   31.4530 O   0  0  0  0  0  0  0  0  0  0  0  0
   34.1580   31.5020   31.1840 C   0  0  0  0  0  0  0  0  0  0  0  0
   35.3580   31.3150   32.0300 C   0  0  2  0  0  3  0  0  0  0  0  0
   36.4070   32.2680   31.4920 C   0  0  0  0  0  3  0  0  0  0  0  0
   36.3810   33.2330   32.0700 H   0  0  0  0  0  0  0  0  0  0  0  0
   35.9350   32.4760   30.0720 C   0  0  0  0  0  3  0  0  0  0  0  0
   36.3320   33.4110   29.6370 H   0  0  0  0  0  0  0  0  0  0  0  0
   34.4910   32.4520   30.1540 N   0  0  0  0  0  0  0  0  0  0  0  0
   33.6960   32.9480   29.6530 H   0  0  0  0  0  0  0  0  0  0  0  0
   36.8400   27.2470   34.1120 O   0  0  0  0  0  0  0  0  0  0  0  0
   39.4250   27.2150   34.0330 O   0  0  0  0  0  0  0  0  0  0  0  0
   38.2660   26.7610   34.8470 P   0  0  1  0  0  0  0  0  0  0  0  0
   38.3000   27.5660   36.3610 O   0  0  0  0  0  0  0  0  0  0  0  0
   37.5700   27.1560   36.8890 H   0  0  0  0  0  0  0  0  0  0  0  0
   38.2280   25.0860   35.1050 O   0  0  0  0  0  0  0  0  0  0  0  0
   39.8160   22.8170   37.5300 C   0  0  0  0  0  0  0  0  0  0  0  0
   39.6080   23.4230   36.2890 C   0  0  0  0  0  0  0  0  0  0  0  0
   38.5990   24.3870   36.1780 C   0  0  0  0  0  0  0  0  0  0  0  0
   37.8710   24.6820   37.3010 N   0  0  0  0  0  0  0  0  0  0  0  0
   38.1060   24.0730   38.4780 C   0  0  0  0  0  0  0  0  0  0  0  0
   39.0820   23.1420   38.5840 N   0  0  0  0  0  0  0  0  0  0  0  0
   40.6100   22.1000   37.4910 H   0  0  0  0  0  0  0  0  0  0  0  0
   40.1070   23.2760   35.3490 H   0  0  0  0  0  0  0  0  0  0  0  0
   37.5350   24.3010   39.3750 H   0  0  0  0  0  0  0  0  0  0  0  0
  2  1  1  0  0  0  0
  3  2  1  0  0  0  0
  3 20  1  0  0  0  0
  4  3  2  0  0  0  0
  5  6  2  0  0  0  0
  5  4  1  0  0  0  0
  6  7  1  0  0  0  0
  7  2  2  0  0  0  0
  8  4  1  0  0  0  0
  9  5  1  0  0  0  0
 10  6  1  0  0  0  0
 12 11  2  0  0  0  0
 12 13  1  0  0  0  0
 13  7  1  6  0  0  0
 14 13  1  0  0  0  0
 14 15  1  0  0  0  0
 16 18  1  0  0  0  0
 16 14  1  0  0  0  0
 17 16  1  0  0  0  0
 18 12  1  0  0  0  0
 19 18  1  0  0  0  0
 20 22  1  0  0  0  0
 22 21  2  6  0  0  0
 22 25  1  0  0  0  0
 22 23  1  0  0  0  0
 23 24  1  0  0  0  0
 25 28  1  0  0  0  0
 26 31  1  0  0  0  0
 27 26  2  0  0  0  0
 28 27  1  0  0  0  0
 28 29  2  0  0  0  0
 29 30  1  0  0  0  0
 30 31  2  0  0  0  0
 30 34  1  0  0  0  0
 32 26  1  0  0  0  0
 33 27  1  0  0  0  0
M  END
>  <minimizedAffinity>
-5.70114136

$$$$

 OpenBabel03272508133D

 34 36  0  0  1  0  0  0  0  0999 V2000
   40.4100   25.0980   34.3560 Cl  0  0  0  0  0  0  0  0  0  0  0  0
   39.2350   23.7820   34.2660 C   0  0  0  0  0  0  0  0  0  0  0  0
   38.7430   23.2580   33.0640 C   0  0  0  0  0  0  0  0  0  0  0  0
   37.8240   22.2240   33.1350 C   0  0  0  0  0  0  0  0  0  0  0  0
   37.4130   21.7360   34.3640 C   0  0  0  0  0  0  0  0  0  0  0  0
   37.8780   22.2320   35.5380 C   0  0  0  0  0  0  0  0  0  0  0  0
   38.7810   23.2450   35.4710 C   0  0  0  0  0  0  0  0  0  0  0  0
   37.4960   21.8780   32.1840 H   0  0  0  0  0  0  0  0  0  0  0  0
   36.6890   20.9250   34.3250 H   0  0  0  0  0  0  0  0  0  0  0  0
   37.5130   21.8020   36.4640 H   0  0  0  0  0  0  0  0  0  0  0  0
   40.7670   22.0410   37.3640 O   0  0  0  0  0  0  0  0  0  0  0  0
   39.7610   22.7320   37.6740 C   0  0  0  0  0  0  0  0  0  0  0  0
   39.3090   23.8090   36.7650 C   0  0  2  0  0  3  0  0  0  0  0  0
   38.1430   24.4870   37.4600 C   0  0  0  0  0  3  0  0  0  0  0  0
   38.5070   25.3820   38.0340 H   0  0  0  0  0  0  0  0  0  0  0  0
   37.6690   23.4000   38.3970 C   0  0  0  0  0  3  0  0  0  0  0  0
   37.0870   23.8090   39.2420 H   0  0  0  0  0  0  0  0  0  0  0  0
   38.8740   22.7140   38.8090 N   0  0  0  0  0  0  0  0  0  0  0  0
   39.2080   22.2410   39.7000 H   0  0  0  0  0  0  0  0  0  0  0  0
   39.2760   23.8790   31.9610 O   0  0  0  0  0  0  0  0  0  0  0  0
   39.5530   26.2070   30.8680 O   0  0  0  0  0  0  0  0  0  0  0  0
   38.5990   25.0730   30.9990 P   0  0  1  0  0  0  0  0  0  0  0  0
   38.3780   24.3520   29.4590 O   0  0  0  0  0  0  0  0  0  0  0  0
   37.6680   23.6750   29.5900 H   0  0  0  0  0  0  0  0  0  0  0  0
   37.0900   25.5210   31.6290 O   0  0  0  0  0  0  0  0  0  0  0  0
   36.7140   27.8110   34.4870 C   0  0  0  0  0  0  0  0  0  0  0  0
   37.1610   26.6770   33.8040 C   0  0  0  0  0  0  0  0  0  0  0  0
   36.7850   26.5130   32.4660 C   0  0  0  0  0  0  0  0  0  0  0  0
   35.9960   27.4810   31.9010 N   0  0  0  0  0  0  0  0  0  0  0  0
   35.5880   28.5580   32.5970 C   0  0  0  0  0  0  0  0  0  0  0  0
   35.9530   28.7150   33.8900 N   0  0  0  0  0  0  0  0  0  0  0  0
   37.0650   27.8250   35.4990 H   0  0  0  0  0  0  0  0  0  0  0  0
   37.7740   25.8600   34.1360 H   0  0  0  0  0  0  0  0  0  0  0  0
   34.9620   29.3330   32.1570 H   0  0  0  0  0  0  0  0  0  0  0  0
  2  1  1  0  0  0  0
  2  7  1  0  0  0  0
  3  4  1  0  0  0  0
  3  2  2  0  0  0  0
  4  5  2  0  0  0  0
  5  6  1  0  0  0  0
  6 10  1  0  0  0  0
  7  6  2  0  0  0  0
  8  4  1  0  0  0  0
  9  5  1  0  0  0  0
 11 12  2  0  0  0  0
 12 18  1  0  0  0  0
 13  7  1  6  0  0  0
 13 14  1  0  0  0  0
 13 12  1  0  0  0  0
 14 15  1  0  0  0  0
 14 16  1  0  0  0  0
 16 18  1  0  0  0  0
 16 17  1  0  0  0  0
 18 19  1  0  0  0  0
 20  3  1  0  0  0  0
 22 21  2  6  0  0  0
 22 25  1  0  0  0  0
 22 20  1  0  0  0  0
 23 24  1  0  0  0  0
 23 22  1  0  0  0  0
 25 28  1  0  0  0  0
 26 32  1  0  0  0  0
 27 33  1  0  0  0  0
 27 26  2  0  0  0  0
 28 27  1  0  0  0  0
 29 28  2  0  0  0  0
 29 30  1  0  0  0  0
 30 31  2  0  0  0  0
 31 26  1  0  0  0  0
 34 30  1  0  0  0  0
M  END
>  <minimizedAffinity>
-5.59278488

$$$$

 OpenBabel03272508133D

 34 36  0  0  1  0  0  0  0  0999 V2000
   37.2660   23.9020   32.6020 Cl  0  0  0  0  0  0  0  0  0  0  0  0
   37.6190   25.1280   33.8240 C   0  0  0  0  0  0  0  0  0  0  0  0
   37.3540   26.4940   33.6550 C   0  0  0  0  0  0  0  0  0  0  0  0
   37.6800   27.3500   34.6940 C   0  0  0  0  0  0  0  0  0  0  0  0
   38.2500   26.8560   35.8560 C   0  0  0  0  0  0  0  0  0  0  0  0
   38.5140   25.5380   36.0360 C   0  0  0  0  0  0  0  0  0  0  0  0
   38.1940   24.6960   35.0180 C   0  0  0  0  0  0  0  0  0  0  0  0
   37.4510   28.3700   34.4950 H   0  0  0  0  0  0  0  0  0  0  0  0
   38.4740   27.6000   36.6180 H   0  0  0  0  0  0  0  0  0  0  0  0
   38.9610   25.2210   36.9710 H   0  0  0  0  0  0  0  0  0  0  0  0
   37.0080   22.7900   37.0030 O   0  0  0  0  0  0  0  0  0  0  0  0
   38.1960   22.7920   36.5850 C   0  0  0  0  0  0  0  0  0  0  0  0
   38.4800   23.2270   35.1990 C   0  0  2  0  0  3  0  0  0  0  0  0
   39.9710   23.0390   34.9940 C   0  0  0  0  0  3  0  0  0  0  0  0
   40.1700   22.0390   34.5210 H   0  0  0  0  0  0  0  0  0  0  0  0
   40.4840   23.0760   36.4150 C   0  0  0  0  0  3  0  0  0  0  0  0
   41.4700   22.5870   36.5110 H   0  0  0  0  0  0  0  0  0  0  0  0
   39.4500   22.4380   37.2000 N   0  0  0  0  0  0  0  0  0  0  0  0
   39.4290   21.8160   38.0610 H   0  0  0  0  0  0  0  0  0  0  0  0
   36.7890   26.7750   32.4360 O   0  0  0  0  0  0  0  0  0  0  0  0
   38.6260   28.0110   31.1000 O   0  0  0  0  0  0  0  0  0  0  0  0
   37.1620   28.0090   31.3650 P   0  0  1  0  0  0  0  0  0  0  0  0
   36.3350   27.6230   29.9130 O   0  0  0  0  0  0  0  0  0  0  0  0
   35.3750   27.7310   30.1260 H   0  0  0  0  0  0  0  0  0  0  0  0
   36.5770   29.4800   31.9690 O   0  0  0  0  0  0  0  0  0  0  0  0
   33.6480   29.9180   34.1560 C   0  0  0  0  0  0  0  0  0  0  0  0
   34.9480   29.5370   33.8170 C   0  0  0  0  0  0  0  0  0  0  0  0
   35.3900   29.7610   32.5080 C   0  0  0  0  0  0  0  0  0  0  0  0
   34.5150   30.3450   31.6290 N   0  0  0  0  0  0  0  0  0  0  0  0
   33.2690   30.6960   31.9990 C   0  0  0  0  0  0  0  0  0  0  0  0
   32.8440   30.4800   33.2650 N   0  0  0  0  0  0  0  0  0  0  0  0
   33.4260   29.6970   35.1790 H   0  0  0  0  0  0  0  0  0  0  0  0
   35.7160   29.0750   34.4100 H   0  0  0  0  0  0  0  0  0  0  0  0
   32.5680   31.1620   31.3100 H   0  0  0  0  0  0  0  0  0  0  0  0
  1  2  1  0  0  0  0
  2  7  1  0  0  0  0
  3  2  2  0  0  0  0
  3  4  1  0  0  0  0
  4  5  2  0  0  0  0
  5  6  1  0  0  0  0
  5  9  1  0  0  0  0
  6 10  1  0  0  0  0
  7  6  2  0  0  0  0
  8  4  1  0  0  0  0
 12 11  2  0  0  0  0
 12 18  1  0  0  0  0
 13  7  1  1  0  0  0
 13 12  1  0  0  0  0
 14 13  1  0  0  0  0
 14 16  1  0  0  0  0
 15 14  1  0  0  0  0
 16 17  1  0  0  0  0
 16 18  1  0  0  0  0
 18 19  1  0  0  0  0
 20  3  1  0  0  0  0
 22 21  2  6  0  0  0
 22 25  1  0  0  0  0
 22 20  1  0  0  0  0
 23 24  1  0  0  0  0
 23 22  1  0  0  0  0
 25 28  1  0  0  0  0
 26 32  1  0  0  0  0
 27 26  1  0  0  0  0
 27 33  1  0  0  0  0
 28 27  2  0  0  0  0
 29 30  2  0  0  0  0
 29 28  1  0  0  0  0
 30 31  1  0  0  0  0
 31 26  2  0  0  0  0
 34 30  1  0  0  0  0
M  END
>  <minimizedAffinity>
-5.54904461

$$$$

 OpenBabel03272508133D

 34 36  0  0  1  0  0  0  0  0999 V2000
   40.6630   23.6750   33.9220 Cl  0  0  0  0  0  0  0  0  0  0  0  0
   39.7590   24.9760   34.7020 C   0  0  0  0  0  0  0  0  0  0  0  0
   39.7400   26.2990   34.2380 C   0  0  0  0  0  0  0  0  0  0  0  0
   38.9890   27.2230   34.9450 C   0  0  0  0  0  0  0  0  0  0  0  0
   38.2850   26.8370   36.0750 C   0  0  0  0  0  0  0  0  0  0  0  0
   38.2930   25.5620   36.5380 C   0  0  0  0  0  0  0  0  0  0  0  0
   39.0280   24.6540   35.8460 C   0  0  0  0  0  0  0  0  0  0  0  0
   39.0210   28.2040   34.5350 H   0  0  0  0  0  0  0  0  0  0  0  0
   37.7240   27.6280   36.5660 H   0  0  0  0  0  0  0  0  0  0  0  0
   37.7190   25.3300   37.4280 H   0  0  0  0  0  0  0  0  0  0  0  0
   37.5210   22.2820   34.8060 O   0  0  0  0  0  0  0  0  0  0  0  0
   37.7920   22.5270   36.0110 C   0  0  0  0  0  0  0  0  0  0  0  0
   39.0490   23.2320   36.3460 C   0  0  2  0  0  3  0  0  0  0  0  0
   39.1070   23.2980   37.8600 C   0  0  0  0  0  3  0  0  0  0  0  0
   39.7060   22.4340   38.2590 H   0  0  0  0  0  0  0  0  0  0  0  0
   37.6480   23.1600   38.2300 C   0  0  0  0  0  3  0  0  0  0  0  0
   37.5170   22.8080   39.2690 H   0  0  0  0  0  0  0  0  0  0  0  0
   37.1000   22.2540   37.2440 N   0  0  0  0  0  0  0  0  0  0  0  0
   36.3550   21.4960   37.2460 H   0  0  0  0  0  0  0  0  0  0  0  0
   40.5000   26.4710   33.1080 O   0  0  0  0  0  0  0  0  0  0  0  0
   40.8270   27.7910   30.9080 O   0  0  0  0  0  0  0  0  0  0  0  0
   39.9930   26.7280   31.5310 P   0  0  1  0  0  0  0  0  0  0  0  0
   40.2750   25.2480   30.7120 O   0  0  0  0  0  0  0  0  0  0  0  0
   39.6290   24.6090   31.1030 H   0  0  0  0  0  0  0  0  0  0  0  0
   38.3330   27.0680   31.5180 O   0  0  0  0  0  0  0  0  0  0  0  0
   35.0650   25.4660   30.9650 C   0  0  0  0  0  0  0  0  0  0  0  0
   35.9860   26.5150   31.0120 C   0  0  0  0  0  0  0  0  0  0  0  0
   37.3000   26.2330   31.4020 C   0  0  0  0  0  0  0  0  0  0  0  0
   37.6080   24.9350   31.7170 N   0  0  0  0  0  0  0  0  0  0  0  0
   36.6880   23.9540   31.6580 C   0  0  0  0  0  0  0  0  0  0  0  0
   35.4190   24.2290   31.2800 N   0  0  0  0  0  0  0  0  0  0  0  0
   34.0980   25.8030   30.6540 H   0  0  0  0  0  0  0  0  0  0  0  0
   35.8640   27.5600   30.7920 H   0  0  0  0  0  0  0  0  0  0  0  0
   36.9230   22.9210   31.9050 H   0  0  0  0  0  0  0  0  0  0  0  0
  1  2  1  0  0  0  0
  2  7  1  0  0  0  0
  3  2  2  0  0  0  0
  3  4  1  0  0  0  0
  4  5  2  0  0  0  0
  5  6  1  0  0  0  0
  5  9  1  0  0  0  0
  6 10  1  0  0  0  0
  7  6  2  0  0  0  0
  8  4  1  0  0  0  0
 11 12  2  0  0  0  0
 12 13  1  0  0  0  0
 12 18  1  0  0  0  0
 13  7  1  6  0  0  0
 13 14  1  0  0  0  0
 14 16  1  0  0  0  0
 14 15  1  0  0  0  0
 16 17  1  0  0  0  0
 18 19  1  0  0  0  0
 18 16  1  0  0  0  0
 20  3  1  0  0  0  0
 22 21  2  6  0  0  0
 22 20  1  0  0  0  0
 23 24  1  0  0  0  0
 23 22  1  0  0  0  0
 25 22  1  0  0  0  0
 26 27  2  0  0  0  0
 26 31  1  0  0  0  0
 27 28  1  0  0  0  0
 28 25  1  0  0  0  0
 28 29  2  0  0  0  0
 30 29  1  0  0  0  0
 30 34  1  0  0  0  0
 31 30  2  0  0  0  0
 32 26  1  0  0  0  0
 33 27  1  0  0  0  0
M  END
>  <minimizedAffinity>
-5.49440002

$$$$

 OpenBabel03272508133D

 34 36  0  0  1  0  0  0  0  0999 V2000
   38.8830   22.4290   33.7200 Cl  0  0  0  0  0  0  0  0  0  0  0  0
   38.5430   24.0200   34.4080 C   0  0  0  0  0  0  0  0  0  0  0  0
   38.3840   25.1820   33.6410 C   0  0  0  0  0  0  0  0  0  0  0  0
   38.1200   26.3670   34.3070 C   0  0  0  0  0  0  0  0  0  0  0  0
   38.0210   26.3870   35.6890 C   0  0  0  0  0  0  0  0  0  0  0  0
   38.1730   25.2730   36.4470 C   0  0  0  0  0  0  0  0  0  0  0  0
   38.4310   24.1090   35.7950 C   0  0  0  0  0  0  0  0  0  0  0  0
   38.0120   27.2060   33.6610 H   0  0  0  0  0  0  0  0  0  0  0  0
   37.8130   27.3600   36.1270 H   0  0  0  0  0  0  0  0  0  0  0  0
   38.0820   25.3610   37.5230 H   0  0  0  0  0  0  0  0  0  0  0  0
   36.3580   22.1040   36.6090 O   0  0  0  0  0  0  0  0  0  0  0  0
   37.3400   22.4850   37.2970 C   0  0  0  0  0  0  0  0  0  0  0  0
   38.6030   22.8590   36.6210 C   0  0  2  0  0  3  0  0  0  0  0  0
   39.5910   23.1900   37.7220 C   0  0  0  0  0  3  0  0  0  0  0  0
   40.2100   22.2840   37.9670 H   0  0  0  0  0  0  0  0  0  0  0  0
   38.6700   23.5400   38.8670 C   0  0  0  0  0  3  0  0  0  0  0  0
   39.1720   23.4420   39.8470 H   0  0  0  0  0  0  0  0  0  0  0  0
   37.5350   22.6560   38.7140 N   0  0  0  0  0  0  0  0  0  0  0  0
   36.8750   22.1520   39.3760 H   0  0  0  0  0  0  0  0  0  0  0  0
   38.5200   24.9480   32.2950 O   0  0  0  0  0  0  0  0  0  0  0  0
   36.9060   26.3640   30.8520 O   0  0  0  0  0  0  0  0  0  0  0  0
   37.3410   24.9630   31.1030 P   0  0  1  0  0  0  0  0  0  0  0  0
   38.1060   24.3580   29.6930 O   0  0  0  0  0  0  0  0  0  0  0  0
   38.2850   23.4040   29.8850 H   0  0  0  0  0  0  0  0  0  0  0  0
   36.0760   23.9240   31.5430 O   0  0  0  0  0  0  0  0  0  0  0  0
   35.3150   20.3680   32.1140 C   0  0  0  0  0  0  0  0  0  0  0  0
   35.1420   21.7490   32.2270 C   0  0  0  0  0  0  0  0  0  0  0  0
   36.0490   22.5920   31.5730 C   0  0  0  0  0  0  0  0  0  0  0  0
   37.0600   22.0080   30.8550 N   0  0  0  0  0  0  0  0  0  0  0  0
   37.1890   20.6700   30.7730 C   0  0  0  0  0  0  0  0  0  0  0  0
   36.3120   19.8580   31.4050 N   0  0  0  0  0  0  0  0  0  0  0  0
   34.5640   19.8310   32.6540 H   0  0  0  0  0  0  0  0  0  0  0  0
   34.3980   22.3180   32.7540 H   0  0  0  0  0  0  0  0  0  0  0  0
   37.9880   20.1970   30.2060 H   0  0  0  0  0  0  0  0  0  0  0  0
  1  2  1  0  0  0  0
  2  7  1  0  0  0  0
  3  4  1  0  0  0  0
  3  2  2  0  0  0  0
  4  5  2  0  0  0  0
  5  9  1  0  0  0  0
  5  6  1  0  0  0  0
  6 10  1  0  0  0  0
  7  6  2  0  0  0  0
  8  4  1  0  0  0  0
 11 12  2  0  0  0  0
 12 18  1  0  0  0  0
 13  7  1  6  0  0  0
 13 12  1  0  0  0  0
 13 14  1  0  0  0  0
 14 15  1  0  0  0  0
 14 16  1  0  0  0  0
 16 17  1  0  0  0  0
 18 16  1  0  0  0  0
 18 19  1  0  0  0  0
 20  3  1  0  0  0  0
 22 21  2  6  0  0  0
 22 25  1  0  0  0  0
 22 20  1  0  0  0  0
 23 24  1  0  0  0  0
 23 22  1  0  0  0  0
 25 28  1  0  0  0  0
 26 27  1  0  0  0  0
 26 32  1  0  0  0  0
 27 33  1  0  0  0  0
 28 27  2  0  0  0  0
 29 28  1  0  0  0  0
 30 29  2  0  0  0  0
 30 31  1  0  0  0  0
 31 26  2  0  0  0  0
 34 30  1  0  0  0  0
M  END
>  <minimizedAffinity>
-5.40090227

$$$$

 OpenBabel03272508133D

 34 36  0  0  1  0  0  0  0  0999 V2000
   41.0850   23.7290   34.3760 Cl  0  0  0  0  0  0  0  0  0  0  0  0
   40.0310   25.0030   34.9970 C   0  0  0  0  0  0  0  0  0  0  0  0
   40.0660   26.3300   34.5490 C   0  0  0  0  0  0  0  0  0  0  0  0
   39.1840   27.2310   35.1210 C   0  0  0  0  0  0  0  0  0  0  0  0
   38.3010   26.8170   36.1060 C   0  0  0  0  0  0  0  0  0  0  0  0
   38.2540   25.5370   36.5520 C   0  0  0  0  0  0  0  0  0  0  0  0
   39.1190   24.6520   35.9910 C   0  0  0  0  0  0  0  0  0  0  0  0
   39.2670   28.2180   34.7320 H   0  0  0  0  0  0  0  0  0  0  0  0
   37.6460   27.5910   36.4990 H   0  0  0  0  0  0  0  0  0  0  0  0
   37.5380   25.2830   37.3250 H   0  0  0  0  0  0  0  0  0  0  0  0
   37.6520   22.3170   34.8180 O   0  0  0  0  0  0  0  0  0  0  0  0
   37.8400   22.5440   36.0420 C   0  0  0  0  0  0  0  0  0  0  0  0
   39.0810   23.2250   36.4740 C   0  0  2  0  0  3  0  0  0  0  0  0
   39.0310   23.2730   37.9900 C   0  0  0  0  0  3  0  0  0  0  0  0
   39.5870   22.3940   38.4190 H   0  0  0  0  0  0  0  0  0  0  0  0
   37.5480   23.1550   38.2520 C   0  0  0  0  0  3  0  0  0  0  0  0
   37.3370   22.7940   39.2750 H   0  0  0  0  0  0  0  0  0  0  0  0
   37.0570   22.2690   37.2190 N   0  0  0  0  0  0  0  0  0  0  0  0
   36.3030   21.5240   37.1590 H   0  0  0  0  0  0  0  0  0  0  0  0
   41.0090   26.5320   33.5710 O   0  0  0  0  0  0  0  0  0  0  0  0
   41.4090   27.8460   31.3800 O   0  0  0  0  0  0  0  0  0  0  0  0
   40.8010   26.5960   31.9090 P   0  0  1  0  0  0  0  0  0  0  0  0
   41.6630   25.2510   31.2860 O   0  0  0  0  0  0  0  0  0  0  0  0
   41.1590   24.4560   31.5920 H   0  0  0  0  0  0  0  0  0  0  0  0
   39.1560   26.4270   31.5370 O   0  0  0  0  0  0  0  0  0  0  0  0
   36.5140   28.9910   31.5590 C   0  0  0  0  0  0  0  0  0  0  0  0
   37.3770   28.0360   32.1020 C   0  0  0  0  0  0  0  0  0  0  0  0
   38.2560   27.3660   31.2430 C   0  0  0  0  0  0  0  0  0  0  0  0
   38.2170   27.6880   29.9110 N   0  0  0  0  0  0  0  0  0  0  0  0
   37.3680   28.6150   29.4310 C   0  0  0  0  0  0  0  0  0  0  0  0
   36.5200   29.2620   30.2630 N   0  0  0  0  0  0  0  0  0  0  0  0
   35.8940   29.4340   32.3110 H   0  0  0  0  0  0  0  0  0  0  0  0
   37.4980   27.7010   33.1160 H   0  0  0  0  0  0  0  0  0  0  0  0
   37.3300   28.8780   28.3760 H   0  0  0  0  0  0  0  0  0  0  0  0
  1  2  1  0  0  0  0
  2  7  1  0  0  0  0
  3  2  2  0  0  0  0
  3  4  1  0  0  0  0
  4  5  2  0  0  0  0
  5  9  1  0  0  0  0
  5  6  1  0  0  0  0
  6 10  1  0  0  0  0
  7  6  2  0  0  0  0
  8  4  1  0  0  0  0
 11 12  2  0  0  0  0
 12 13  1  0  0  0  0
 12 18  1  0  0  0  0
 13  7  1  6  0  0  0
 13 14  1  0  0  0  0
 14 16  1  0  0  0  0
 14 15  1  0  0  0  0
 16 17  1  0  0  0  0
 18 16  1  0  0  0  0
 19 18  1  0  0  0  0
 20  3  1  0  0  0  0
 22 21  2  6  0  0  0
 22 20  1  0  0  0  0
 23 24  1  0  0  0  0
 23 22  1  0  0  0  0
 25 22  1  0  0  0  0
 26 27  1  0  0  0  0
 26 32  1  0  0  0  0
 27 33  1  0  0  0  0
 28 25  1  0  0  0  0
 28 27  2  0  0  0  0
 29 28  1  0  0  0  0
 30 29  2  0  0  0  0
 30 31  1  0  0  0  0
 31 26  2  0  0  0  0
 34 30  1  0  0  0  0
M  END
>  <minimizedAffinity>
-5.34194231

$$$$

 OpenBabel03272508133D

 34 36  0  0  1  0  0  0  0  0999 V2000
   39.0980   27.1680   34.7330 Cl  0  0  0  0  0  0  0  0  0  0  0  0
   38.4610   25.7540   33.8890 C   0  0  0  0  0  0  0  0  0  0  0  0
   37.9570   25.7880   32.5820 C   0  0  0  0  0  0  0  0  0  0  0  0
   37.4870   24.6040   32.0380 C   0  0  0  0  0  0  0  0  0  0  0  0
   37.5190   23.4320   32.7760 C   0  0  0  0  0  0  0  0  0  0  0  0
   38.0010   23.3810   34.0420 C   0  0  0  0  0  0  0  0  0  0  0  0
   38.4640   24.5410   34.5780 C   0  0  0  0  0  0  0  0  0  0  0  0
   37.1210   24.7070   31.0440 H   0  0  0  0  0  0  0  0  0  0  0  0
   37.1290   22.5530   32.2700 H   0  0  0  0  0  0  0  0  0  0  0  0
   37.9960   22.4300   34.5620 H   0  0  0  0  0  0  0  0  0  0  0  0
   40.7450   22.9300   35.6650 O   0  0  0  0  0  0  0  0  0  0  0  0
   39.6780   23.2160   36.2670 C   0  0  0  0  0  0  0  0  0  0  0  0
   39.0040   24.5040   35.9850 C   0  0  2  0  0  3  0  0  0  0  0  0
   37.8110   24.5710   36.9180 C   0  0  0  0  0  3  0  0  0  0  0  0
   38.0850   25.1340   37.8520 H   0  0  0  0  0  0  0  0  0  0  0  0
   37.5740   23.1090   37.2200 C   0  0  0  0  0  3  0  0  0  0  0  0
   37.0060   22.9680   38.1570 H   0  0  0  0  0  0  0  0  0  0  0  0
   38.8940   22.5190   37.2540 N   0  0  0  0  0  0  0  0  0  0  0  0
   39.3610   21.7430   37.8100 H   0  0  0  0  0  0  0  0  0  0  0  0
   38.0160   27.0420   32.0270 O   0  0  0  0  0  0  0  0  0  0  0  0
   37.3030   29.2940   30.9730 O   0  0  0  0  0  0  0  0  0  0  0  0
   36.7720   27.9680   31.3920 P   0  0  1  0  0  0  0  0  0  0  0  0
   36.2320   27.1210   30.0020 O   0  0  0  0  0  0  0  0  0  0  0  0
   35.8060   26.2980   30.3500 H   0  0  0  0  0  0  0  0  0  0  0  0
   35.5060   28.0650   32.5150 O   0  0  0  0  0  0  0  0  0  0  0  0
   35.1150   30.7210   35.0340 C   0  0  0  0  0  0  0  0  0  0  0  0
   35.7120   29.6200   34.4160 C   0  0  0  0  0  0  0  0  0  0  0  0
   35.1160   29.0990   33.2610 C   0  0  0  0  0  0  0  0  0  0  0  0
   33.9740   29.7030   32.8030 N   0  0  0  0  0  0  0  0  0  0  0  0
   33.4330   30.7630   33.4310 C   0  0  0  0  0  0  0  0  0  0  0  0
   34.0110   31.2660   34.5460 N   0  0  0  0  0  0  0  0  0  0  0  0
   35.6590   31.0280   35.9030 H   0  0  0  0  0  0  0  0  0  0  0  0
   36.5950   29.0670   34.6780 H   0  0  0  0  0  0  0  0  0  0  0  0
   32.5280   31.2510   33.0750 H   0  0  0  0  0  0  0  0  0  0  0  0
  2  7  1  0  0  0  0
  2  1  1  0  0  0  0
  3  2  2  0  0  0  0
  4  3  1  0  0  0  0
  4  5  2  0  0  0  0
  5  6  1  0  0  0  0
  6 10  1  0  0  0  0
  6  7  2  0  0  0  0
  8  4  1  0  0  0  0
  9  5  1  0  0  0  0
 11 12  2  0  0  0  0
 12 18  1  0  0  0  0
 13  7  1  6  0  0  0
 13 12  1  0  0  0  0
 13 14  1  0  0  0  0
 14 16  1  0  0  0  0
 14 15  1  0  0  0  0
 16 18  1  0  0  0  0
 16 17  1  0  0  0  0
 18 19  1  0  0  0  0
 20  3  1  0  0  0  0
 22 21  2  6  0  0  0
 22 20  1  0  0  0  0
 22 25  1  0  0  0  0
 23 24  1  0  0  0  0
 23 22  1  0  0  0  0
 25 28  1  0  0  0  0
 26 32  1  0  0  0  0
 27 33  1  0  0  0  0
 27 26  2  0  0  0  0
 28 27  1  0  0  0  0
 29 28  2  0  0  0  0
 29 30  1  0  0  0  0
 30 31  2  0  0  0  0
 31 26  1  0  0  0  0
 34 30  1  0  0  0  0
M  END
>  <minimizedAffinity>
-5.32407761

$$$$

 OpenBabel03272508133D

 34 36  0  0  1  0  0  0  0  0999 V2000
   34.2710   29.3140   34.4050 Cl  0  0  0  0  0  0  0  0  0  0  0  0
   35.1810   30.3080   33.2640 C   0  0  0  0  0  0  0  0  0  0  0  0
   35.6850   29.8320   32.0460 C   0  0  0  0  0  0  0  0  0  0  0  0
   36.3830   30.7190   31.2430 C   0  0  0  0  0  0  0  0  0  0  0  0
   36.5690   32.0320   31.6460 C   0  0  0  0  0  0  0  0  0  0  0  0
   36.0880   32.5090   32.8210 C   0  0  0  0  0  0  0  0  0  0  0  0
   35.4030   31.6410   33.6100 C   0  0  0  0  0  0  0  0  0  0  0  0
   36.7350   30.2880   30.3360 H   0  0  0  0  0  0  0  0  0  0  0  0
   37.1280   32.6560   30.9530 H   0  0  0  0  0  0  0  0  0  0  0  0
   36.2710   33.5470   33.0730 H   0  0  0  0  0  0  0  0  0  0  0  0
   33.1910   33.6070   34.0800 O   0  0  0  0  0  0  0  0  0  0  0  0
   34.2440   33.4890   34.7600 C   0  0  0  0  0  0  0  0  0  0  0  0
   34.8610   32.1530   34.9200 C   0  0  2  0  0  3  0  0  0  0  0  0
   36.0490   32.3450   35.8440 C   0  0  0  0  0  3  0  0  0  0  0  0
   35.7480   32.1250   36.9050 H   0  0  0  0  0  0  0  0  0  0  0  0
   36.3480   33.8140   35.6600 C   0  0  0  0  0  3  0  0  0  0  0  0
   36.9190   34.2290   36.5110 H   0  0  0  0  0  0  0  0  0  0  0  0
   35.0550   34.4360   35.4800 N   0  0  0  0  0  0  0  0  0  0  0  0
   34.6200   35.3690   35.7480 H   0  0  0  0  0  0  0  0  0  0  0  0
   35.3930   28.5080   31.8360 O   0  0  0  0  0  0  0  0  0  0  0  0
   35.6820   25.9930   31.3070 O   0  0  0  0  0  0  0  0  0  0  0  0
   36.3620   27.3100   31.1770 P   0  0  1  0  0  0  0  0  0  0  0  0
   36.5060   27.6990   29.5130 O   0  0  0  0  0  0  0  0  0  0  0  0
   37.0460   28.5290   29.4880 H   0  0  0  0  0  0  0  0  0  0  0  0
   37.8950   27.3600   31.8980 O   0  0  0  0  0  0  0  0  0  0  0  0
   37.9850   27.2790   35.5780 C   0  0  0  0  0  0  0  0  0  0  0  0
   37.4090   27.4190   34.3130 C   0  0  0  0  0  0  0  0  0  0  0  0
   38.2260   27.2690   33.1870 C   0  0  0  0  0  0  0  0  0  0  0  0
   39.5520   26.9910   33.3920 N   0  0  0  0  0  0  0  0  0  0  0  0
   40.0660   26.8640   34.6300 C   0  0  0  0  0  0  0  0  0  0  0  0
   39.2750   27.0090   35.7170 N   0  0  0  0  0  0  0  0  0  0  0  0
   37.2640   27.4150   36.3570 H   0  0  0  0  0  0  0  0  0  0  0  0
   36.3950   27.6350   34.0290 H   0  0  0  0  0  0  0  0  0  0  0  0
   41.1170   26.6420   34.8030 H   0  0  0  0  0  0  0  0  0  0  0  0
  2  7  1  0  0  0  0
  2  1  1  0  0  0  0
  3  2  2  0  0  0  0
  4  5  2  0  0  0  0
  4  3  1  0  0  0  0
  5  6  1  0  0  0  0
  6 10  1  0  0  0  0
  6  7  2  0  0  0  0
  8  4  1  0  0  0  0
  9  5  1  0  0  0  0
 11 12  2  0  0  0  0
 12 13  1  0  0  0  0
 12 18  1  0  0  0  0
 13  7  1  6  0  0  0
 13 14  1  0  0  0  0
 14 15  1  0  0  0  0
 16 14  1  0  0  0  0
 16 17  1  0  0  0  0
 18 16  1  0  0  0  0
 18 19  1  0  0  0  0
 20  3  1  0  0  0  0
 22 21  2  1  0  0  0
 22 20  1  0  0  0  0
 22 25  1  0  0  0  0
 23 22  1  0  0  0  0
 24 23  1  0  0  0  0
 25 28  1  0  0  0  0
 26 31  1  0  0  0  0
 26 32  1  0  0  0  0
 27 26  2  0  0  0  0
 28 29  2  0  0  0  0
 28 27  1  0  0  0  0
 29 30  1  0  0  0  0
 30 34  1  0  0  0  0
 30 31  2  0  0  0  0
 33 27  1  0  0  0  0
M  END
>  <minimizedAffinity>
-5.28062105

$$$$
