
 OpenBabel03272502173D

 33 35  0  0  1  0  0  0  0  0999 V2000
   37.0640   30.5940   48.9380 C   0  0  0  0  0  0  0  0  0  0  0  0
   37.0860   31.6460   49.8850 C   0  0  0  0  0  0  0  0  0  0  0  0
   37.7880   32.8000   49.5690 C   0  0  0  0  0  0  0  0  0  0  0  0
   38.4230   32.8600   48.3550 N   0  0  0  0  0  0  0  0  0  0  0  0
   38.3820   31.8440   47.4800 C   0  0  0  0  0  0  0  0  0  0  0  0
   37.7060   30.7170   47.7710 N   0  0  0  0  0  0  0  0  0  0  0  0
   36.6210   31.6710   50.8390 H   0  0  0  0  0  0  0  0  0  0  0  0
   37.8500   33.6470   50.2400 H   0  0  0  0  0  0  0  0  0  0  0  0
   40.4700   34.0470   46.9910 O   0  0  0  0  0  0  0  0  0  0  0  0
   39.9670   33.2080   46.1860 C   0  0  0  0  0  0  0  0  0  0  0  0
   39.0950   31.9790   46.1830 C   0  0  2  0  0  3  0  0  0  0  0  0
   38.2030   32.2820   45.0220 C   0  0  0  0  0  3  0  0  0  0  0  0
   37.6920   31.3540   44.6630 H   0  0  0  0  0  0  0  0  0  0  0  0
   39.1940   32.8140   43.9910 C   0  0  0  0  0  3  0  0  0  0  0  0
   39.6430   31.9700   43.4050 H   0  0  0  0  0  0  0  0  0  0  0  0
   40.2550   33.3810   44.7950 N   0  0  0  0  0  0  0  0  0  0  0  0
   41.0800   33.8380   44.3050 H   0  0  0  0  0  0  0  0  0  0  0  0
   36.1290   29.1990   49.4960 S   0  0  0  0  0  0  0  0  0  0  0  0
   33.6890   28.1250   49.0600 N   0  0  0  0  0  0  0  0  0  0  0  0
   34.3410   29.4130   49.1490 C   0  0  2  0  0  0  0  0  0  0  0  0
   34.1990   30.1090   47.8130 C   0  0  0  0  0  0  0  0  0  0  0  0
   33.1570   29.5290   47.0590 O   0  0  0  0  0  0  0  0  0  0  0  0
   33.6640   28.2670   46.6770 C   0  0  0  0  0  0  0  0  0  0  0  0
   34.1470   27.4620   47.8590 C   0  0  2  0  0  0  0  0  0  0  0  0
   32.6730   28.2150   49.1260 H   0  0  0  0  0  0  0  0  0  0  0  0
   33.9220   29.9950   49.9780 H   0  0  0  0  0  0  0  0  0  0  0  0
   35.1170   30.0180   47.1980 H   0  0  0  0  0  0  0  0  0  0  0  0
   33.9800   31.1800   48.0260 H   0  0  0  0  0  0  0  0  0  0  0  0
   32.9200   27.7270   46.0780 H   0  0  0  0  0  0  0  0  0  0  0  0
   34.5180   28.5090   45.9940 H   0  0  0  0  0  0  0  0  0  0  0  0
   35.2540   27.4240   47.8820 H   0  0  0  0  0  0  0  0  0  0  0  0
   33.5910   26.1670   47.8300 O   0  0  0  0  0  0  0  0  0  0  0  0
   34.3280   25.5220   47.6920 H   0  0  0  0  0  0  0  0  0  0  0  0
  1 18  1  0  0  0  0
  1  2  1  0  0  0  0
  2  7  1  0  0  0  0
  3  2  2  0  0  0  0
  3  8  1  0  0  0  0
  4  3  1  0  0  0  0
  5  6  1  0  0  0  0
  5  4  2  0  0  0  0
  6  1  2  0  0  0  0
 10  9  2  0  0  0  0
 11 10  1  0  0  0  0
 11  5  1  1  0  0  0
 12 11  1  0  0  0  0
 13 12  1  0  0  0  0
 14 16  1  0  0  0  0
 14 12  1  0  0  0  0
 15 14  1  0  0  0  0
 16 10  1  0  0  0  0
 17 16  1  0  0  0  0
 19 25  1  0  0  0  0
 19 20  1  0  0  0  0
 20 18  1  0  0  0  0
 20 26  1  1  0  0  0
 21 28  1  0  0  0  0
 21 20  1  0  0  0  0
 22 21  1  0  0  0  0
 23 22  1  0  0  0  0
 23 24  1  0  0  0  0
 24 31  1  6  0  0  0
 24 19  1  0  0  0  0
 27 21  1  0  0  0  0
 29 23  1  0  0  0  0
 30 23  1  0  0  0  0
 32 24  1  0  0  0  0
 33 32  1  0  0  0  0
M  END
>  <minimizedAffinity>
-5.5499897

>  <minimizedRMSD>
0.681154072

$$$$
