
 OpenBabel03272508113D

 34 36  0  0  1  0  0  0  0  0999 V2000
   36.7260   29.4770   44.1860 Cl  0  0  0  0  0  0  0  0  0  0  0  0
   38.3560   29.8410   43.6110 C   0  0  0  0  0  0  0  0  0  0  0  0
   39.3740   30.3510   44.4280 C   0  0  0  0  0  0  0  0  0  0  0  0
   40.6090   30.5920   43.8500 C   0  0  0  0  0  0  0  0  0  0  0  0
   40.8160   30.3340   42.5040 C   0  0  0  0  0  0  0  0  0  0  0  0
   39.8420   29.8410   41.6990 C   0  0  0  0  0  0  0  0  0  0  0  0
   38.6300   29.6020   42.2640 C   0  0  0  0  0  0  0  0  0  0  0  0
   41.3310   30.9780   44.5300 H   0  0  0  0  0  0  0  0  0  0  0  0
   41.8150   30.5530   42.1360 H   0  0  0  0  0  0  0  0  0  0  0  0
   40.0730   29.6620   40.6550 H   0  0  0  0  0  0  0  0  0  0  0  0
   35.8240   30.5990   41.9280 O   0  0  0  0  0  0  0  0  0  0  0  0
   36.1970   29.3970   41.9180 C   0  0  0  0  0  0  0  0  0  0  0  0
   37.5350   29.0550   41.3850 C   0  0  2  0  0  3  0  0  0  0  0  0
   37.6380   27.5420   41.4410 C   0  0  0  0  0  3  0  0  0  0  0  0
   37.3380   27.1000   40.4530 H   0  0  0  0  0  0  0  0  0  0  0  0
   36.6280   27.2050   42.5130 C   0  0  0  0  0  3  0  0  0  0  0  0
   36.2810   26.1580   42.4390 H   0  0  0  0  0  0  0  0  0  0  0  0
   35.5670   28.1720   42.3400 N   0  0  0  0  0  0  0  0  0  0  0  0
   34.5090   28.1650   42.4510 H   0  0  0  0  0  0  0  0  0  0  0  0
   38.9660   30.5350   45.7260 O   0  0  0  0  0  0  0  0  0  0  0  0
   39.4950   32.6390   47.1340 O   0  0  0  0  0  0  0  0  0  0  0  0
   38.3800   31.9260   46.4550 P   0  0  1  0  0  0  0  0  0  0  0  0
   37.7930   32.9040   45.1740 O   0  0  0  0  0  0  0  0  0  0  0  0
   37.0000   32.4260   44.8260 H   0  0  0  0  0  0  0  0  0  0  0  0
   37.0960   31.5270   47.4870 O   0  0  0  0  0  0  0  0  0  0  0  0
   37.6350   30.5090   50.9840 C   0  0  0  0  0  0  0  0  0  0  0  0
   37.7440   31.3260   49.8560 C   0  0  0  0  0  0  0  0  0  0  0  0
   37.1230   30.9140   48.6710 C   0  0  0  0  0  0  0  0  0  0  0  0
   36.4400   29.7260   48.6870 N   0  0  0  0  0  0  0  0  0  0  0  0
   36.3600   28.9700   49.7980 C   0  0  0  0  0  0  0  0  0  0  0  0
   36.9600   29.3690   50.9420 N   0  0  0  0  0  0  0  0  0  0  0  0
   38.1480   30.9270   51.8250 H   0  0  0  0  0  0  0  0  0  0  0  0
   38.2460   32.2660   49.7230 H   0  0  0  0  0  0  0  0  0  0  0  0
   35.8200   28.0260   49.8210 H   0  0  0  0  0  0  0  0  0  0  0  0
  2  1  1  0  0  0  0
  2  3  1  0  0  0  0
  3 20  1  0  0  0  0
  4  3  2  0  0  0  0
  4  8  1  0  0  0  0
  5  4  1  0  0  0  0
  6  7  1  0  0  0  0
  6  5  2  0  0  0  0
  7  2  2  0  0  0  0
  9  5  1  0  0  0  0
 10  6  1  0  0  0  0
 12 11  2  0  0  0  0
 12 18  1  0  0  0  0
 13 14  1  0  0  0  0
 13 12  1  0  0  0  0
 13  7  1  1  0  0  0
 14 16  1  0  0  0  0
 15 14  1  0  0  0  0
 17 16  1  0  0  0  0
 18 19  1  0  0  0  0
 18 16  1  0  0  0  0
 20 22  1  0  0  0  0
 22 21  2  1  0  0  0
 22 25  1  0  0  0  0
 23 22  1  0  0  0  0
 24 23  1  0  0  0  0
 25 28  1  0  0  0  0
 26 32  1  0  0  0  0
 27 26  2  0  0  0  0
 28 29  2  0  0  0  0
 28 27  1  0  0  0  0
 29 30  1  0  0  0  0
 30 34  1  0  0  0  0
 30 31  2  0  0  0  0
 31 26  1  0  0  0  0
 33 27  1  0  0  0  0
M  END
>  <minimizedAffinity>
-4.95473385

>  <minimizedRMSD>
0.266042531

$$$$
