
 OpenBabel03272507243D

 30 32  0  0  1  0  0  0  0  0999 V2000
   36.5870   23.8690   30.9750 C   0  0  0  0  0  0  0  0  0  0  0  0
   36.6520   24.6810   32.1310 C   0  0  0  0  0  0  0  0  0  0  0  0
   37.7760   24.5650   32.9630 C   0  0  0  0  0  0  0  0  0  0  0  0
   38.7240   23.6840   32.6030 N   0  0  0  0  0  0  0  0  0  0  0  0
   38.6580   22.9100   31.5010 C   0  0  0  0  0  0  0  0  0  0  0  0
   37.5760   23.0110   30.6860 N   0  0  0  0  0  0  0  0  0  0  0  0
   37.8950   25.3490   34.1250 N   0  0  0  0  0  0  0  0  0  0  0  0
   37.2820   26.6510   34.3400 C   0  0  0  0  0  0  0  0  0  0  0  0
   37.8520   27.1850   35.6100 C   0  0  0  0  0  0  0  0  0  0  0  0
   39.1250   26.4000   35.7440 C   0  0  0  0  0  0  0  0  0  0  0  0
   38.6260   25.0340   35.3060 C   0  0  1  0  0  0  0  0  0  0  0  0
   35.6860   24.0010   30.3630 H   0  0  0  0  0  0  0  0  0  0  0  0
   35.8610   25.3850   32.3860 H   0  0  0  0  0  0  0  0  0  0  0  0
   39.4230   22.2010   31.2150 H   0  0  0  0  0  0  0  0  0  0  0  0
   37.3940   27.3230   33.4680 H   0  0  0  0  0  0  0  0  0  0  0  0
   36.1950   26.4760   34.4720 H   0  0  0  0  0  0  0  0  0  0  0  0
   38.1070   28.2530   35.4710 H   0  0  0  0  0  0  0  0  0  0  0  0
   37.2020   27.0740   36.4950 H   0  0  0  0  0  0  0  0  0  0  0  0
   39.8760   26.7410   35.0280 H   0  0  0  0  0  0  0  0  0  0  0  0
   39.4770   26.4010   36.7940 H   0  0  0  0  0  0  0  0  0  0  0  0
   39.4980   24.3710   35.1050 H   0  0  0  0  0  0  0  0  0  0  0  0
   37.3920   22.0760   35.4000 O   0  0  0  0  0  0  0  0  0  0  0  0
   37.9230   22.9210   36.1900 C   0  0  0  0  0  0  0  0  0  0  0  0
   37.7390   24.3810   36.3280 C   0  0  1  0  0  3  0  0  0  0  0  0
   38.1420   24.6560   37.7380 C   0  0  0  0  0  3  0  0  0  0  0  0
   38.8890   25.4780   37.7930 H   0  0  0  0  0  0  0  0  0  0  0  0
   38.7080   23.4070   38.3380 C   0  0  0  0  0  3  0  0  0  0  0  0
   37.9740   22.8770   38.9960 H   0  0  0  0  0  0  0  0  0  0  0  0
   38.8830   22.5410   37.1760 N   0  0  0  0  0  0  0  0  0  0  0  0
   39.6160   21.7850   37.1430 H   0  0  0  0  0  0  0  0  0  0  0  0
  1  2  1  0  0  0  0
  2 13  1  0  0  0  0
  2  3  2  0  0  0  0
  3  7  1  0  0  0  0
  4  3  1  0  0  0  0
  5  4  2  0  0  0  0
  6  1  2  0  0  0  0
  6  5  1  0  0  0  0
  7  8  1  0  0  0  0
  7 11  1  0  0  0  0
  8 16  1  0  0  0  0
  8  9  1  0  0  0  0
  9 10  1  0  0  0  0
  9 18  1  0  0  0  0
 10 20  1  0  0  0  0
 11 21  1  6  0  0  0
 11 10  1  0  0  0  0
 11 24  1  0  0  0  0
 12  1  1  0  0  0  0
 14  5  1  0  0  0  0
 15  8  1  0  0  0  0
 17  9  1  0  0  0  0
 19 10  1  0  0  0  0
 22 23  2  0  0  0  0
 23 29  1  0  0  0  0
 24 23  1  6  0  0  0
 24 25  1  0  0  0  0
 25 26  1  0  0  0  0
 25 27  1  0  0  0  0
 27 28  1  0  0  0  0
 29 27  1  0  0  0  0
 30 29  1  0  0  0  0
M  END
>  <minimizedAffinity>
-4.96395397

$$$$

 OpenBabel03272507243D

 30 32  0  0  1  0  0  0  0  0999 V2000
   35.6790   21.8670   31.1570 C   0  0  0  0  0  0  0  0  0  0  0  0
   35.5890   23.2480   31.4470 C   0  0  0  0  0  0  0  0  0  0  0  0
   36.7760   23.9570   31.6830 C   0  0  0  0  0  0  0  0  0  0  0  0
   37.9300   23.2720   31.6170 N   0  0  0  0  0  0  0  0  0  0  0  0
   38.0120   21.9540   31.3410 C   0  0  0  0  0  0  0  0  0  0  0  0
   36.8710   21.2550   31.1100 N   0  0  0  0  0  0  0  0  0  0  0  0
   36.7470   25.3330   31.9760 N   0  0  0  0  0  0  0  0  0  0  0  0
   35.7140   26.2690   31.5610 C   0  0  0  0  0  0  0  0  0  0  0  0
   36.2070   27.6320   31.9130 C   0  0  0  0  0  0  0  0  0  0  0  0
   37.6900   27.4180   32.0140 C   0  0  0  0  0  0  0  0  0  0  0  0
   37.7050   26.0750   32.7240 C   0  0  1  0  0  0  0  0  0  0  0  0
   34.7190   21.3640   30.9810 H   0  0  0  0  0  0  0  0  0  0  0  0
   34.6310   23.7670   31.4910 H   0  0  0  0  0  0  0  0  0  0  0  0
   38.9430   21.4060   31.2880 H   0  0  0  0  0  0  0  0  0  0  0  0
   35.4290   26.1450   30.4990 H   0  0  0  0  0  0  0  0  0  0  0  0
   34.8120   26.0400   32.1640 H   0  0  0  0  0  0  0  0  0  0  0  0
   36.0050   28.3200   31.0700 H   0  0  0  0  0  0  0  0  0  0  0  0
   35.7870   28.0540   32.8430 H   0  0  0  0  0  0  0  0  0  0  0  0
   38.1390   27.2910   31.0250 H   0  0  0  0  0  0  0  0  0  0  0  0
   38.1620   28.2170   32.6180 H   0  0  0  0  0  0  0  0  0  0  0  0
   38.7270   25.6370   32.6640 H   0  0  0  0  0  0  0  0  0  0  0  0
   37.9350   23.9340   35.1000 O   0  0  0  0  0  0  0  0  0  0  0  0
   38.1010   25.1820   34.9120 C   0  0  0  0  0  0  0  0  0  0  0  0
   37.2980   26.1740   34.1670 C   0  0  1  0  0  3  0  0  0  0  0  0
   37.6610   27.4730   34.8060 C   0  0  0  0  0  3  0  0  0  0  0  0
   37.9640   28.2280   34.0480 H   0  0  0  0  0  0  0  0  0  0  0  0
   38.7760   27.2460   35.7790 C   0  0  0  0  0  3  0  0  0  0  0  0
   38.4180   27.1980   36.8380 H   0  0  0  0  0  0  0  0  0  0  0  0
   39.2150   25.8910   35.4560 N   0  0  0  0  0  0  0  0  0  0  0  0
   40.2020   25.5640   35.6240 H   0  0  0  0  0  0  0  0  0  0  0  0
  1  2  1  0  0  0  0
  2 13  1  0  0  0  0
  2  3  2  0  0  0  0
  3  7  1  0  0  0  0
  4  3  1  0  0  0  0
  5  4  2  0  0  0  0
  6  1  2  0  0  0  0
  6  5  1  0  0  0  0
  7 11  1  0  0  0  0
  8  9  1  0  0  0  0
  8  7  1  0  0  0  0
  8 16  1  0  0  0  0
  9 10  1  0  0  0  0
  9 18  1  0  0  0  0
 10 20  1  0  0  0  0
 10 11  1  0  0  0  0
 11 21  1  6  0  0  0
 11 24  1  0  0  0  0
 12  1  1  0  0  0  0
 14  5  1  0  0  0  0
 15  8  1  0  0  0  0
 17  9  1  0  0  0  0
 19 10  1  0  0  0  0
 23 22  2  0  0  0  0
 23 29  1  0  0  0  0
 24 25  1  1  0  0  0
 24 23  1  0  0  0  0
 25 27  1  0  0  0  0
 26 25  1  0  0  0  0
 27 28  1  0  0  0  0
 29 30  1  0  0  0  0
 29 27  1  0  0  0  0
M  END
>  <minimizedAffinity>
-4.55365562

$$$$

 OpenBabel03272507243D

 30 32  0  0  1  0  0  0  0  0999 V2000
   35.5010   21.5610   31.0760 C   0  0  0  0  0  0  0  0  0  0  0  0
   35.9450   22.7070   31.7750 C   0  0  0  0  0  0  0  0  0  0  0  0
   37.2290   22.6840   32.3410 C   0  0  0  0  0  0  0  0  0  0  0  0
   37.9580   21.5670   32.1800 N   0  0  0  0  0  0  0  0  0  0  0  0
   37.5300   20.4760   31.5130 C   0  0  0  0  0  0  0  0  0  0  0  0
   36.2900   20.4830   30.9600 N   0  0  0  0  0  0  0  0  0  0  0  0
   37.7230   23.7970   33.0480 N   0  0  0  0  0  0  0  0  0  0  0  0
   37.3200   25.1800   32.8460 C   0  0  0  0  0  0  0  0  0  0  0  0
   38.2510   26.0160   33.6570 C   0  0  0  0  0  0  0  0  0  0  0  0
   39.4290   25.1030   33.8350 C   0  0  0  0  0  0  0  0  0  0  0  0
   38.6990   23.7940   34.0840 C   0  0  1  0  0  0  0  0  0  0  0  0
   34.4900   21.6340   30.6540 H   0  0  0  0  0  0  0  0  0  0  0  0
   35.3210   23.5940   31.8820 H   0  0  0  0  0  0  0  0  0  0  0  0
   38.1200   19.5780   31.3850 H   0  0  0  0  0  0  0  0  0  0  0  0
   37.2700   25.4570   31.7760 H   0  0  0  0  0  0  0  0  0  0  0  0
   36.2930   25.2780   33.2510 H   0  0  0  0  0  0  0  0  0  0  0  0
   38.5680   26.8910   33.0580 H   0  0  0  0  0  0  0  0  0  0  0  0
   37.8450   26.3600   34.6250 H   0  0  0  0  0  0  0  0  0  0  0  0
   40.0000   25.0100   32.9080 H   0  0  0  0  0  0  0  0  0  0  0  0
   40.0400   25.4150   34.7050 H   0  0  0  0  0  0  0  0  0  0  0  0
   39.4180   22.9480   33.9930 H   0  0  0  0  0  0  0  0  0  0  0  0
   36.9420   21.4860   35.4500 O   0  0  0  0  0  0  0  0  0  0  0  0
   37.8580   22.3110   35.7680 C   0  0  0  0  0  0  0  0  0  0  0  0
   38.0460   23.7390   35.4360 C   0  0  1  0  0  3  0  0  0  0  0  0
   38.9090   24.2470   36.5420 C   0  0  0  0  0  3  0  0  0  0  0  0
   39.7970   24.7890   36.1480 H   0  0  0  0  0  0  0  0  0  0  0  0
   39.3460   23.0950   37.3920 C   0  0  0  0  0  3  0  0  0  0  0  0
   38.7500   23.0080   38.3350 H   0  0  0  0  0  0  0  0  0  0  0  0
   38.9670   21.9380   36.5860 N   0  0  0  0  0  0  0  0  0  0  0  0
   39.4730   21.0170   36.6520 H   0  0  0  0  0  0  0  0  0  0  0  0
  1  2  1  0  0  0  0
  2 13  1  0  0  0  0
  2  3  2  0  0  0  0
  3  7  1  0  0  0  0
  4  3  1  0  0  0  0
  5  4  2  0  0  0  0
  6  1  2  0  0  0  0
  6  5  1  0  0  0  0
  7 11  1  0  0  0  0
  8  7  1  0  0  0  0
  8 16  1  0  0  0  0
  8  9  1  0  0  0  0
  9 10  1  0  0  0  0
  9 18  1  0  0  0  0
 10 11  1  0  0  0  0
 10 20  1  0  0  0  0
 11 21  1  6  0  0  0
 11 24  1  0  0  0  0
 12  1  1  0  0  0  0
 14  5  1  0  0  0  0
 15  8  1  0  0  0  0
 17  9  1  0  0  0  0
 19 10  1  0  0  0  0
 22 23  2  0  0  0  0
 23 29  1  0  0  0  0
 24 23  1  1  0  0  0
 24 25  1  0  0  0  0
 25 27  1  0  0  0  0
 26 25  1  0  0  0  0
 27 28  1  0  0  0  0
 29 30  1  0  0  0  0
 29 27  1  0  0  0  0
M  END
>  <minimizedAffinity>
-4.5048871

$$$$

 OpenBabel03272507243D

 30 32  0  0  1  0  0  0  0  0999 V2000
   38.3360   27.3190   35.3390 C   0  0  0  0  0  0  0  0  0  0  0  0
   39.6540   26.8080   35.3180 C   0  0  0  0  0  0  0  0  0  0  0  0
   39.8410   25.4660   34.9540 C   0  0  0  0  0  0  0  0  0  0  0  0
   38.7470   24.7500   34.6450 N   0  0  0  0  0  0  0  0  0  0  0  0
   37.4910   25.2410   34.6670 C   0  0  0  0  0  0  0  0  0  0  0  0
   37.2950   26.5380   35.0180 N   0  0  0  0  0  0  0  0  0  0  0  0
   41.1310   24.9030   34.9150 N   0  0  0  0  0  0  0  0  0  0  0  0
   42.3690   25.6310   34.6870 C   0  0  0  0  0  0  0  0  0  0  0  0
   43.4400   24.6060   34.5220 C   0  0  0  0  0  0  0  0  0  0  0  0
   42.6560   23.3830   34.1410 C   0  0  0  0  0  0  0  0  0  0  0  0
   41.4780   23.5330   35.0880 C   0  0  1  0  0  0  0  0  0  0  0  0
   38.2500   28.3740   35.6320 H   0  0  0  0  0  0  0  0  0  0  0  0
   40.5160   27.4230   35.5760 H   0  0  0  0  0  0  0  0  0  0  0  0
   36.6130   24.6620   34.4180 H   0  0  0  0  0  0  0  0  0  0  0  0
   42.2920   26.3520   33.8510 H   0  0  0  0  0  0  0  0  0  0  0  0
   42.5670   26.2220   35.6030 H   0  0  0  0  0  0  0  0  0  0  0  0
   44.0870   24.8920   33.6700 H   0  0  0  0  0  0  0  0  0  0  0  0
   44.0630   24.4350   35.4170 H   0  0  0  0  0  0  0  0  0  0  0  0
   42.2870   23.4540   33.1150 H   0  0  0  0  0  0  0  0  0  0  0  0
   43.2410   22.4640   34.3410 H   0  0  0  0  0  0  0  0  0  0  0  0
   40.6630   22.8420   34.7740 H   0  0  0  0  0  0  0  0  0  0  0  0
   39.6150   23.2210   37.6790 O   0  0  0  0  0  0  0  0  0  0  0  0
   40.6400   22.6710   37.1600 C   0  0  0  0  0  0  0  0  0  0  0  0
   41.8390   23.2480   36.5180 C   0  0  1  0  0  3  0  0  0  0  0  0
   42.8710   22.1820   36.6770 C   0  0  0  0  0  3  0  0  0  0  0  0
   43.3600   21.9420   35.7070 H   0  0  0  0  0  0  0  0  0  0  0  0
   42.2260   20.9560   37.2430 C   0  0  0  0  0  3  0  0  0  0  0  0
   42.4110   20.8430   38.3410 H   0  0  0  0  0  0  0  0  0  0  0  0
   40.8020   21.2530   37.1190 N   0  0  0  0  0  0  0  0  0  0  0  0
   40.0760   20.4970   37.0180 H   0  0  0  0  0  0  0  0  0  0  0  0
  1 12  1  0  0  0  0
  2  1  1  0  0  0  0
  2 13  1  0  0  0  0
  3  2  2  0  0  0  0
  4  5  2  0  0  0  0
  4  3  1  0  0  0  0
  5  6  1  0  0  0  0
  6  1  2  0  0  0  0
  7  3  1  0  0  0  0
  7 11  1  0  0  0  0
  8  7  1  0  0  0  0
  8 16  1  0  0  0  0
  9  8  1  0  0  0  0
  9 18  1  0  0  0  0
 10 20  1  0  0  0  0
 10  9  1  0  0  0  0
 10 11  1  0  0  0  0
 11 21  1  6  0  0  0
 11 24  1  0  0  0  0
 14  5  1  0  0  0  0
 15  8  1  0  0  0  0
 17  9  1  0  0  0  0
 19 10  1  0  0  0  0
 23 22  2  0  0  0  0
 24 25  1  6  0  0  0
 24 23  1  0  0  0  0
 25 27  1  0  0  0  0
 26 25  1  0  0  0  0
 27 28  1  0  0  0  0
 29 23  1  0  0  0  0
 29 27  1  0  0  0  0
 30 29  1  0  0  0  0
M  END
>  <minimizedAffinity>
-4.4791069

$$$$

 OpenBabel03272507243D

 30 32  0  0  1  0  0  0  0  0999 V2000
   40.0330   23.2910   31.2470 C   0  0  0  0  0  0  0  0  0  0  0  0
   39.1570   23.9870   32.1110 C   0  0  0  0  0  0  0  0  0  0  0  0
   39.6510   24.4160   33.3530 C   0  0  0  0  0  0  0  0  0  0  0  0
   40.9330   24.1350   33.6410 N   0  0  0  0  0  0  0  0  0  0  0  0
   41.7640   23.4700   32.8140 C   0  0  0  0  0  0  0  0  0  0  0  0
   41.3010   23.0480   31.6090 N   0  0  0  0  0  0  0  0  0  0  0  0
   38.8240   25.1140   34.2530 N   0  0  0  0  0  0  0  0  0  0  0  0
   37.6750   25.9310   33.8950 C   0  0  0  0  0  0  0  0  0  0  0  0
   37.2480   26.6330   35.1390 C   0  0  0  0  0  0  0  0  0  0  0  0
   38.4910   26.5800   35.9790 C   0  0  0  0  0  0  0  0  0  0  0  0
   38.9440   25.1630   35.6710 C   0  0  1  0  0  0  0  0  0  0  0  0
   39.5940   22.9790   30.2900 H   0  0  0  0  0  0  0  0  0  0  0  0
   38.1230   24.1950   31.8390 H   0  0  0  0  0  0  0  0  0  0  0  0
   42.7960   23.2450   33.0490 H   0  0  0  0  0  0  0  0  0  0  0  0
   37.8790   26.6000   33.0380 H   0  0  0  0  0  0  0  0  0  0  0  0
   36.8740   25.2340   33.5750 H   0  0  0  0  0  0  0  0  0  0  0  0
   37.0270   27.6910   34.9000 H   0  0  0  0  0  0  0  0  0  0  0  0
   36.3810   26.1830   35.6540 H   0  0  0  0  0  0  0  0  0  0  0  0
   39.2490   27.2730   35.6080 H   0  0  0  0  0  0  0  0  0  0  0  0
   38.2470   26.7180   37.0510 H   0  0  0  0  0  0  0  0  0  0  0  0
   39.9930   25.0270   36.0170 H   0  0  0  0  0  0  0  0  0  0  0  0
   39.0220   21.9650   35.4500 O   0  0  0  0  0  0  0  0  0  0  0  0
   38.8520   22.8630   36.3370 C   0  0  0  0  0  0  0  0  0  0  0  0
   38.0770   24.1200   36.3180 C   0  0  1  0  0  3  0  0  0  0  0  0
   37.7950   24.3820   37.7600 C   0  0  0  0  0  3  0  0  0  0  0  0
   38.0850   25.4160   38.0490 H   0  0  0  0  0  0  0  0  0  0  0  0
   38.5430   23.3880   38.5930 C   0  0  0  0  0  3  0  0  0  0  0  0
   37.8890   22.5540   38.9540 H   0  0  0  0  0  0  0  0  0  0  0  0
   39.4530   22.7780   37.6290 N   0  0  0  0  0  0  0  0  0  0  0  0
   40.3800   22.3660   37.9130 H   0  0  0  0  0  0  0  0  0  0  0  0
  1  6  2  0  0  0  0
  1  2  1  0  0  0  0
  2  3  2  0  0  0  0
  3  4  1  0  0  0  0
  3  7  1  0  0  0  0
  5 14  1  0  0  0  0
  5  4  2  0  0  0  0
  6  5  1  0  0  0  0
  7 11  1  0  0  0  0
  8  7  1  0  0  0  0
  8  9  1  0  0  0  0
  9 18  1  0  0  0  0
  9 10  1  0  0  0  0
 10 20  1  0  0  0  0
 11 10  1  0  0  0  0
 11 21  1  1  0  0  0
 11 24  1  0  0  0  0
 12  1  1  0  0  0  0
 13  2  1  0  0  0  0
 15  8  1  0  0  0  0
 16  8  1  0  0  0  0
 17  9  1  0  0  0  0
 19 10  1  0  0  0  0
 22 23  2  0  0  0  0
 23 29  1  0  0  0  0
 24 23  1  1  0  0  0
 24 25  1  0  0  0  0
 25 26  1  0  0  0  0
 25 27  1  0  0  0  0
 27 28  1  0  0  0  0
 29 30  1  0  0  0  0
 29 27  1  0  0  0  0
M  END
>  <minimizedAffinity>
-4.38543701

$$$$

 OpenBabel03272507243D

 30 32  0  0  1  0  0  0  0  0999 V2000
   39.8360   22.6350   37.6170 C   0  0  0  0  0  0  0  0  0  0  0  0
   39.8800   22.3740   36.2270 C   0  0  0  0  0  0  0  0  0  0  0  0
   38.8200   22.8320   35.4310 C   0  0  0  0  0  0  0  0  0  0  0  0
   37.8250   23.4940   36.0450 N   0  0  0  0  0  0  0  0  0  0  0  0
   37.7860   23.7390   37.3700 C   0  0  0  0  0  0  0  0  0  0  0  0
   38.8050   23.3020   38.1540 N   0  0  0  0  0  0  0  0  0  0  0  0
   38.8120   22.6020   34.0420 N   0  0  0  0  0  0  0  0  0  0  0  0
   39.9860   22.4170   33.2040 C   0  0  0  0  0  0  0  0  0  0  0  0
   39.5050   22.4180   31.7920 C   0  0  0  0  0  0  0  0  0  0  0  0
   38.1860   23.1280   31.9050 C   0  0  0  0  0  0  0  0  0  0  0  0
   37.6730   22.5060   33.1920 C   0  0  1  0  0  0  0  0  0  0  0  0
   40.6910   22.2530   38.1900 H   0  0  0  0  0  0  0  0  0  0  0  0
   40.7080   21.8330   35.7690 H   0  0  0  0  0  0  0  0  0  0  0  0
   36.9830   24.2720   37.8610 H   0  0  0  0  0  0  0  0  0  0  0  0
   40.7820   23.1540   33.4180 H   0  0  0  0  0  0  0  0  0  0  0  0
   40.4000   21.4180   33.4480 H   0  0  0  0  0  0  0  0  0  0  0  0
   40.1880   23.0350   31.1780 H   0  0  0  0  0  0  0  0  0  0  0  0
   39.3980   21.4190   31.3350 H   0  0  0  0  0  0  0  0  0  0  0  0
   38.3270   24.1990   32.0700 H   0  0  0  0  0  0  0  0  0  0  0  0
   37.5380   22.8920   31.0380 H   0  0  0  0  0  0  0  0  0  0  0  0
   36.8080   23.0970   33.5680 H   0  0  0  0  0  0  0  0  0  0  0  0
   35.7200   20.6880   34.9700 O   0  0  0  0  0  0  0  0  0  0  0  0
   35.9720   20.9110   33.7420 C   0  0  0  0  0  0  0  0  0  0  0  0
   37.2510   21.0740   33.0210 C   0  0  1  0  0  3  0  0  0  0  0  0
   36.9120   20.7120   31.6140 C   0  0  0  0  0  3  0  0  0  0  0  0
   37.2460   21.4960   30.9000 H   0  0  0  0  0  0  0  0  0  0  0  0
   35.4310   20.5140   31.5030 C   0  0  0  0  0  3  0  0  0  0  0  0
   35.1430   19.4330   31.5060 H   0  0  0  0  0  0  0  0  0  0  0  0
   34.9380   21.0510   32.7670 N   0  0  0  0  0  0  0  0  0  0  0  0
   33.9720   21.4570   32.8670 H   0  0  0  0  0  0  0  0  0  0  0  0
  1  6  1  0  0  0  0
  1 12  1  0  0  0  0
  2  1  2  0  0  0  0
  3  4  2  0  0  0  0
  3  2  1  0  0  0  0
  4  5  1  0  0  0  0
  5 14  1  0  0  0  0
  5  6  2  0  0  0  0
  7  3  1  0  0  0  0
  8 15  1  0  0  0  0
  8 16  1  0  0  0  0
  8  7  1  0  0  0  0
  9 10  1  0  0  0  0
  9  8  1  0  0  0  0
 10 19  1  0  0  0  0
 10 11  1  0  0  0  0
 11 21  1  1  0  0  0
 11  7  1  0  0  0  0
 13  2  1  0  0  0  0
 17  9  1  0  0  0  0
 18  9  1  0  0  0  0
 20 10  1  0  0  0  0
 23 22  2  0  0  0  0
 24 25  1  6  0  0  0
 24 11  1  0  0  0  0
 24 23  1  0  0  0  0
 26 25  1  0  0  0  0
 27 28  1  0  0  0  0
 27 25  1  0  0  0  0
 27 29  1  0  0  0  0
 29 30  1  0  0  0  0
 29 23  1  0  0  0  0
M  END
>  <minimizedAffinity>
-4.36301708

$$$$

 OpenBabel03272507243D

 30 32  0  0  1  0  0  0  0  0999 V2000
   37.7740   23.1780   38.0710 C   0  0  0  0  0  0  0  0  0  0  0  0
   37.0590   22.6340   36.9780 C   0  0  0  0  0  0  0  0  0  0  0  0
   37.7760   22.2790   35.8260 C   0  0  0  0  0  0  0  0  0  0  0  0
   39.1050   22.4800   35.8370 N   0  0  0  0  0  0  0  0  0  0  0  0
   39.7820   22.9990   36.8810 C   0  0  0  0  0  0  0  0  0  0  0  0
   39.1010   23.3480   38.0030 N   0  0  0  0  0  0  0  0  0  0  0  0
   37.1180   21.7340   34.7080 N   0  0  0  0  0  0  0  0  0  0  0  0
   35.8710   20.9840   34.7380 C   0  0  0  0  0  0  0  0  0  0  0  0
   35.6740   20.4320   33.3660 C   0  0  0  0  0  0  0  0  0  0  0  0
   37.0680   20.4590   32.8080 C   0  0  0  0  0  0  0  0  0  0  0  0
   37.5310   21.8020   33.3470 C   0  0  1  0  0  0  0  0  0  0  0  0
   37.1620   23.4370   38.9450 H   0  0  0  0  0  0  0  0  0  0  0  0
   35.9800   22.4870   37.0110 H   0  0  0  0  0  0  0  0  0  0  0  0
   40.8520   23.1600   36.8860 H   0  0  0  0  0  0  0  0  0  0  0  0
   35.8490   20.2270   35.5440 H   0  0  0  0  0  0  0  0  0  0  0  0
   35.0650   21.7120   34.9580 H   0  0  0  0  0  0  0  0  0  0  0  0
   35.3440   19.3790   33.4440 H   0  0  0  0  0  0  0  0  0  0  0  0
   34.9650   20.9950   32.7350 H   0  0  0  0  0  0  0  0  0  0  0  0
   37.6870   19.6760   33.2520 H   0  0  0  0  0  0  0  0  0  0  0  0
   37.0480   20.4370   31.7010 H   0  0  0  0  0  0  0  0  0  0  0  0
   38.6360   21.8820   33.2390 H   0  0  0  0  0  0  0  0  0  0  0  0
   37.8920   24.9560   33.7950 O   0  0  0  0  0  0  0  0  0  0  0  0
   37.7750   24.1300   32.8330 C   0  0  0  0  0  0  0  0  0  0  0  0
   36.8840   22.9650   32.6490 C   0  0  1  0  0  3  0  0  0  0  0  0
   36.8080   22.8100   31.1670 C   0  0  0  0  0  3  0  0  0  0  0  0
   37.0360   21.7670   30.8550 H   0  0  0  0  0  0  0  0  0  0  0  0
   37.7740   23.7590   30.5250 C   0  0  0  0  0  3  0  0  0  0  0  0
   37.2720   24.6760   30.1280 H   0  0  0  0  0  0  0  0  0  0  0  0
   38.5770   24.2150   31.6550 N   0  0  0  0  0  0  0  0  0  0  0  0
   39.5740   24.5370   31.5440 H   0  0  0  0  0  0  0  0  0  0  0  0
  1 12  1  0  0  0  0
  2 13  1  0  0  0  0
  2  1  2  0  0  0  0
  3  4  2  0  0  0  0
  3  2  1  0  0  0  0
  4  5  1  0  0  0  0
  5 14  1  0  0  0  0
  5  6  2  0  0  0  0
  6  1  1  0  0  0  0
  7  8  1  0  0  0  0
  7  3  1  0  0  0  0
  8 16  1  0  0  0  0
  8 15  1  0  0  0  0
  9 17  1  0  0  0  0
  9  8  1  0  0  0  0
 10 19  1  0  0  0  0
 10 11  1  0  0  0  0
 10  9  1  0  0  0  0
 11 21  1  6  0  0  0
 11  7  1  0  0  0  0
 18  9  1  0  0  0  0
 20 10  1  0  0  0  0
 23 22  2  0  0  0  0
 24 25  1  6  0  0  0
 24 23  1  0  0  0  0
 24 11  1  0  0  0  0
 26 25  1  0  0  0  0
 27 25  1  0  0  0  0
 27 29  1  0  0  0  0
 28 27  1  0  0  0  0
 29 23  1  0  0  0  0
 30 29  1  0  0  0  0
M  END
>  <minimizedAffinity>
-4.35370159

$$$$

 OpenBabel03272507243D

 30 32  0  0  1  0  0  0  0  0999 V2000
   38.1930   23.7950   33.7750 C   0  0  0  0  0  0  0  0  0  0  0  0
   37.8570   25.1680   33.8390 C   0  0  0  0  0  0  0  0  0  0  0  0
   37.0060   25.6900   32.8530 C   0  0  0  0  0  0  0  0  0  0  0  0
   36.5620   24.8460   31.9070 N   0  0  0  0  0  0  0  0  0  0  0  0
   36.8860   23.5380   31.8500 C   0  0  0  0  0  0  0  0  0  0  0  0
   37.7090   23.0180   32.7960 N   0  0  0  0  0  0  0  0  0  0  0  0
   36.6380   27.0480   32.8680 N   0  0  0  0  0  0  0  0  0  0  0  0
   36.5750   27.9000   34.0450 C   0  0  0  0  0  0  0  0  0  0  0  0
   35.9400   29.1790   33.6110 C   0  0  0  0  0  0  0  0  0  0  0  0
   35.2120   28.7670   32.3640 C   0  0  0  0  0  0  0  0  0  0  0  0
   36.2570   27.8490   31.7530 C   0  0  1  0  0  0  0  0  0  0  0  0
   38.8610   23.4420   34.5710 H   0  0  0  0  0  0  0  0  0  0  0  0
   38.2390   25.8190   34.6250 H   0  0  0  0  0  0  0  0  0  0  0  0
   36.5260   22.8610   31.0860 H   0  0  0  0  0  0  0  0  0  0  0  0
   36.0770   27.4080   34.9010 H   0  0  0  0  0  0  0  0  0  0  0  0
   37.6220   28.0980   34.3530 H   0  0  0  0  0  0  0  0  0  0  0  0
   35.1960   29.4890   34.3700 H   0  0  0  0  0  0  0  0  0  0  0  0
   36.6440   30.0080   33.4250 H   0  0  0  0  0  0  0  0  0  0  0  0
   34.3260   28.1730   32.6020 H   0  0  0  0  0  0  0  0  0  0  0  0
   35.0010   29.6460   31.7250 H   0  0  0  0  0  0  0  0  0  0  0  0
   35.7910   27.2520   30.9370 H   0  0  0  0  0  0  0  0  0  0  0  0
   38.8280   26.7850   30.1590 O   0  0  0  0  0  0  0  0  0  0  0  0
   38.0120   27.7620   30.1240 C   0  0  0  0  0  0  0  0  0  0  0  0
   37.4380   28.5950   31.2010 C   0  0  1  0  0  3  0  0  0  0  0  0
   37.0770   29.8670   30.5090 C   0  0  0  0  0  3  0  0  0  0  0  0
   36.0240   30.1570   30.7180 H   0  0  0  0  0  0  0  0  0  0  0  0
   37.2800   29.6980   29.0360 C   0  0  0  0  0  3  0  0  0  0  0  0
   38.2360   30.1580   28.6800 H   0  0  0  0  0  0  0  0  0  0  0  0
   37.4690   28.2560   28.9000 N   0  0  0  0  0  0  0  0  0  0  0  0
   37.2230   27.7380   28.0170 H   0  0  0  0  0  0  0  0  0  0  0  0
  1  2  1  0  0  0  0
  1 12  1  0  0  0  0
  2 13  1  0  0  0  0
  3  7  1  0  0  0  0
  3  2  2  0  0  0  0
  4  3  1  0  0  0  0
  5  4  2  0  0  0  0
  5  6  1  0  0  0  0
  6  1  2  0  0  0  0
  7  8  1  0  0  0  0
  8 16  1  0  0  0  0
  8 15  1  0  0  0  0
  9  8  1  0  0  0  0
  9 17  1  0  0  0  0
 10 19  1  0  0  0  0
 10  9  1  0  0  0  0
 11 21  1  6  0  0  0
 11 10  1  0  0  0  0
 11  7  1  0  0  0  0
 14  5  1  0  0  0  0
 18  9  1  0  0  0  0
 20 10  1  0  0  0  0
 23 22  2  0  0  0  0
 24 23  1  6  0  0  0
 24 11  1  0  0  0  0
 25 26  1  0  0  0  0
 25 24  1  0  0  0  0
 27 25  1  0  0  0  0
 28 27  1  0  0  0  0
 29 27  1  0  0  0  0
 29 23  1  0  0  0  0
 30 29  1  0  0  0  0
M  END
>  <minimizedAffinity>
-4.33586979

$$$$

 OpenBabel03272507243D

 30 32  0  0  1  0  0  0  0  0999 V2000
   36.1890   29.4910   30.5090 C   0  0  0  0  0  0  0  0  0  0  0  0
   35.9420   30.4520   31.5170 C   0  0  0  0  0  0  0  0  0  0  0  0
   35.8320   30.0090   32.8440 C   0  0  0  0  0  0  0  0  0  0  0  0
   35.9720   28.6920   33.0710 N   0  0  0  0  0  0  0  0  0  0  0  0
   36.2070   27.7800   32.1060 C   0  0  0  0  0  0  0  0  0  0  0  0
   36.3150   28.1930   30.8170 N   0  0  0  0  0  0  0  0  0  0  0  0
   35.5870   30.9200   33.8880 N   0  0  0  0  0  0  0  0  0  0  0  0
   35.9460   32.3300   33.8890 C   0  0  0  0  0  0  0  0  0  0  0  0
   35.6850   32.8340   35.2680 C   0  0  0  0  0  0  0  0  0  0  0  0
   35.7030   31.5710   36.0790 C   0  0  0  0  0  0  0  0  0  0  0  0
   34.9500   30.6520   35.1330 C   0  0  1  0  0  0  0  0  0  0  0  0
   36.2650   29.8940   29.4900 H   0  0  0  0  0  0  0  0  0  0  0  0
   35.8350   31.5120   31.2890 H   0  0  0  0  0  0  0  0  0  0  0  0
   36.3190   26.7200   32.2930 H   0  0  0  0  0  0  0  0  0  0  0  0
   36.9750   32.5070   33.5230 H   0  0  0  0  0  0  0  0  0  0  0  0
   35.2610   32.8360   33.1790 H   0  0  0  0  0  0  0  0  0  0  0  0
   36.5320   33.4720   35.5860 H   0  0  0  0  0  0  0  0  0  0  0  0
   34.7390   33.3900   35.3890 H   0  0  0  0  0  0  0  0  0  0  0  0
   36.7210   31.1900   36.1940 H   0  0  0  0  0  0  0  0  0  0  0  0
   35.1690   31.7130   37.0390 H   0  0  0  0  0  0  0  0  0  0  0  0
   35.0810   29.5970   35.4620 H   0  0  0  0  0  0  0  0  0  0  0  0
   32.5870   29.1830   33.5390 O   0  0  0  0  0  0  0  0  0  0  0  0
   32.7920   29.7160   34.6770 C   0  0  0  0  0  0  0  0  0  0  0  0
   33.4820   30.9640   35.0620 C   0  0  1  0  0  3  0  0  0  0  0  0
   32.8760   31.3100   36.3810 C   0  0  0  0  0  3  0  0  0  0  0  0
   33.6570   31.4980   37.1500 H   0  0  0  0  0  0  0  0  0  0  0  0
   31.9850   30.1900   36.8190 C   0  0  0  0  0  3  0  0  0  0  0  0
   30.9020   30.4060   36.6340 H   0  0  0  0  0  0  0  0  0  0  0  0
   32.3310   29.1190   35.8890 N   0  0  0  0  0  0  0  0  0  0  0  0
   32.2330   28.1010   36.1420 H   0  0  0  0  0  0  0  0  0  0  0  0
  1  6  2  0  0  0  0
  1  2  1  0  0  0  0
  2  3  2  0  0  0  0
  3  4  1  0  0  0  0
  3  7  1  0  0  0  0
  5 14  1  0  0  0  0
  5  4  2  0  0  0  0
  6  5  1  0  0  0  0
  7  8  1  0  0  0  0
  7 11  1  0  0  0  0
  8  9  1  0  0  0  0
  9 18  1  0  0  0  0
  9 17  1  0  0  0  0
  9 10  1  0  0  0  0
 10 19  1  0  0  0  0
 10 20  1  0  0  0  0
 11 21  1  1  0  0  0
 11 10  1  0  0  0  0
 12  1  1  0  0  0  0
 13  2  1  0  0  0  0
 15  8  1  0  0  0  0
 16  8  1  0  0  0  0
 22 23  2  0  0  0  0
 23 29  1  0  0  0  0
 24 23  1  1  0  0  0
 24 11  1  0  0  0  0
 24 25  1  0  0  0  0
 25 27  1  0  0  0  0
 25 26  1  0  0  0  0
 28 27  1  0  0  0  0
 29 30  1  0  0  0  0
 29 27  1  0  0  0  0
M  END
>  <minimizedAffinity>
-4.33075953

$$$$
