
 OpenBabel03272510203D

 36 39  0  0  1  0  0  0  0  0999 V2000
   37.3170   29.2100   50.8520 Br  0  0  0  0  0  0  0  0  0  0  0  0
   35.9400   29.2670   49.5300 C   0  0  0  0  0  0  0  0  0  0  0  0
   35.9530   30.2290   48.5340 C   0  0  0  0  0  0  0  0  0  0  0  0
   34.9310   30.2210   47.6070 C   0  0  0  0  0  0  0  0  0  0  0  0
   33.9010   29.2890   47.6340 C   0  0  0  0  0  0  0  0  0  0  0  0
   33.9150   28.3540   48.6280 C   0  0  0  0  0  0  0  0  0  0  0  0
   34.9330   28.3520   49.5620 C   0  0  0  0  0  0  0  0  0  0  0  0
   34.9470   30.9640   46.8430 H   0  0  0  0  0  0  0  0  0  0  0  0
   33.1500   27.5900   48.7240 H   0  0  0  0  0  0  0  0  0  0  0  0
   34.9420   27.6100   50.3460 H   0  0  0  0  0  0  0  0  0  0  0  0
   37.9790   33.1300   49.4190 C   0  0  0  0  0  0  0  0  0  0  0  0
   38.9960   33.1380   48.4180 C   0  0  0  0  0  0  0  0  0  0  0  0
   38.9620   32.1420   47.4580 C   0  0  0  0  0  0  0  0  0  0  0  0
   37.9670   31.1990   47.5030 N   0  0  0  0  0  0  0  0  0  0  0  0
   37.0200   31.2260   48.4710 C   0  0  0  0  0  0  0  0  0  0  0  0
   37.0260   32.1940   49.4300 N   0  0  0  0  0  0  0  0  0  0  0  0
   38.0400   33.9250   50.1540 H   0  0  0  0  0  0  0  0  0  0  0  0
   39.7590   33.9120   48.4360 H   0  0  0  0  0  0  0  0  0  0  0  0
   39.7200   32.1180   46.6820 H   0  0  0  0  0  0  0  0  0  0  0  0
   32.8230   29.2670   46.6700 C   0  0  0  0  0  0  0  0  0  0  0  0
   31.9280   28.2410   46.5030 C   0  0  0  0  0  0  0  0  0  0  0  0
   30.9080   28.2590   45.5650 C   0  0  0  0  0  0  0  0  0  0  0  0
   30.7760   29.3250   44.7740 N   0  0  0  0  0  0  0  0  0  0  0  0
   31.6400   30.3430   44.9150 C   0  0  0  0  0  0  0  0  0  0  0  0
   32.6200   30.3090   45.8270 N   0  0  0  0  0  0  0  0  0  0  0  0
   32.0310   27.3670   47.1490 H   0  0  0  0  0  0  0  0  0  0  0  0
   30.2380   27.4190   45.4870 H   0  0  0  0  0  0  0  0  0  0  0  0
   31.8680   33.2680   45.8650 O   0  0  0  0  0  0  0  0  0  0  0  0
   31.4510   32.8080   44.7570 C   0  0  0  0  0  0  0  0  0  0  0  0
   31.4730   31.5190   44.0220 C   0  0  2  0  0  3  0  0  0  0  0  0
   30.1110   31.4720   43.3590 C   0  0  0  0  0  3  0  0  0  0  0  0
   30.0980   30.8910   42.4370 H   0  0  0  0  0  0  0  0  0  0  0  0
   29.7490   32.9350   43.1210 C   0  0  0  0  0  3  0  0  0  0  0  0
   29.8180   33.1130   42.0360 H   0  0  0  0  0  0  0  0  0  0  0  0
   30.7370   33.6960   43.8740 N   0  0  0  0  0  0  0  0  0  0  0  0
   30.7930   34.7350   43.6830 H   0  0  0  0  0  0  0  0  0  0  0  0
  2  7  1  0  0  0  0
  2  1  1  0  0  0  0
  3  2  2  0  0  0  0
  4  5  2  0  0  0  0
  4  3  1  0  0  0  0
  5  6  1  0  0  0  0
  6  9  1  0  0  0  0
  6  7  2  0  0  0  0
  7 10  1  0  0  0  0
  8  4  1  0  0  0  0
 11 16  1  0  0  0  0
 11 17  1  0  0  0  0
 12 18  1  0  0  0  0
 12 11  2  0  0  0  0
 13 14  2  0  0  0  0
 13 12  1  0  0  0  0
 14 15  1  0  0  0  0
 15  3  1  0  0  0  0
 15 16  2  0  0  0  0
 19 13  1  0  0  0  0
 20  5  1  0  0  0  0
 21 20  1  0  0  0  0
 21 26  1  0  0  0  0
 22 21  2  0  0  0  0
 23 24  2  0  0  0  0
 23 22  1  0  0  0  0
 24 25  1  0  0  0  0
 25 20  2  0  0  0  0
 27 22  1  0  0  0  0
 29 28  2  0  0  0  0
 30 29  1  0  0  0  0
 30 24  1  1  0  0  0
 31 30  1  0  0  0  0
 32 31  1  0  0  0  0
 33 31  1  0  0  0  0
 33 35  1  0  0  0  0
 34 33  1  0  0  0  0
 35 29  1  0  0  0  0
 36 35  1  0  0  0  0
M  END
>  <minimizedAffinity>
-6.11396885

>  <minimizedRMSD>
0.544799805

$$$$
