
 OpenBabel03272502193D

 33 35  0  0  1  0  0  0  0  0999 V2000
   37.7930   24.4340   33.0480 C   0  0  0  0  0  0  0  0  0  0  0  0
   37.0120   23.5500   32.2660 C   0  0  0  0  0  0  0  0  0  0  0  0
   36.8510   22.2460   32.7110 C   0  0  0  0  0  0  0  0  0  0  0  0
   37.4580   21.8820   33.8850 N   0  0  0  0  0  0  0  0  0  0  0  0
   38.1920   22.7450   34.6030 C   0  0  0  0  0  0  0  0  0  0  0  0
   38.3590   24.0140   34.1860 N   0  0  0  0  0  0  0  0  0  0  0  0
   36.5150   23.7590   31.3510 H   0  0  0  0  0  0  0  0  0  0  0  0
   36.2680   21.5130   32.1680 H   0  0  0  0  0  0  0  0  0  0  0  0
   37.3460   23.8500   37.3450 O   0  0  0  0  0  0  0  0  0  0  0  0
   38.2980   23.0720   37.0380 C   0  0  0  0  0  0  0  0  0  0  0  0
   38.8210   22.2810   35.8670 C   0  0  2  0  0  3  0  0  0  0  0  0
   40.2820   22.5780   35.9690 C   0  0  0  0  0  3  0  0  0  0  0  0
   40.8790   21.8370   35.3800 H   0  0  0  0  0  0  0  0  0  0  0  0
   40.5310   22.4380   37.4680 C   0  0  0  0  0  3  0  0  0  0  0  0
   40.7470   21.3710   37.7340 H   0  0  0  0  0  0  0  0  0  0  0  0
   39.2540   22.7720   38.0610 N   0  0  0  0  0  0  0  0  0  0  0  0
   39.1610   22.7610   39.1200 H   0  0  0  0  0  0  0  0  0  0  0  0
   37.8990   26.0530   32.3420 S   0  0  0  0  0  0  0  0  0  0  0  0
   36.1580   26.9170   30.4660 N   0  0  0  0  0  0  0  0  0  0  0  0
   36.2400   26.6930   31.8930 C   0  0  2  0  0  0  0  0  0  0  0  0
   36.0410   28.0210   32.5910 C   0  0  0  0  0  0  0  0  0  0  0  0
   35.4290   28.9520   31.7260 O   0  0  0  0  0  0  0  0  0  0  0  0
   36.4350   29.2660   30.7850 C   0  0  0  0  0  0  0  0  0  0  0  0
   37.0100   28.0350   30.1280 C   0  0  2  0  0  0  0  0  0  0  0  0
   35.1880   27.0220   30.1590 H   0  0  0  0  0  0  0  0  0  0  0  0
   35.5110   25.9360   32.2020 H   0  0  0  0  0  0  0  0  0  0  0  0
   37.0040   28.4720   32.9060 H   0  0  0  0  0  0  0  0  0  0  0  0
   35.3960   27.8270   33.4790 H   0  0  0  0  0  0  0  0  0  0  0  0
   36.0560   29.9930   30.0550 H   0  0  0  0  0  0  0  0  0  0  0  0
   37.2210   29.7890   31.3880 H   0  0  0  0  0  0  0  0  0  0  0  0
   38.0290   27.8250   30.5080 H   0  0  0  0  0  0  0  0  0  0  0  0
   37.0090   28.1830   28.7260 O   0  0  0  0  0  0  0  0  0  0  0  0
   37.9490   28.2060   28.4210 H   0  0  0  0  0  0  0  0  0  0  0  0
  1  6  1  0  0  0  0
  2  3  1  0  0  0  0
  2  1  2  0  0  0  0
  3  4  2  0  0  0  0
  4  5  1  0  0  0  0
  6  5  2  0  0  0  0
  7  2  1  0  0  0  0
  8  3  1  0  0  0  0
 10  9  2  0  0  0  0
 10 16  1  0  0  0  0
 11  5  1  6  0  0  0
 11 12  1  0  0  0  0
 11 10  1  0  0  0  0
 12 14  1  0  0  0  0
 13 12  1  0  0  0  0
 14 15  1  0  0  0  0
 14 16  1  0  0  0  0
 16 17  1  0  0  0  0
 18  1  1  0  0  0  0
 19 20  1  0  0  0  0
 20 26  1  1  0  0  0
 20 18  1  0  0  0  0
 20 21  1  0  0  0  0
 21 27  1  0  0  0  0
 21 28  1  0  0  0  0
 22 21  1  0  0  0  0
 23 30  1  0  0  0  0
 23 22  1  0  0  0  0
 24 19  1  0  0  0  0
 24 31  1  1  0  0  0
 24 23  1  0  0  0  0
 25 19  1  0  0  0  0
 29 23  1  0  0  0  0
 32 24  1  0  0  0  0
 33 32  1  0  0  0  0
M  END
>  <minimizedAffinity>
-5.75508738

$$$$

 OpenBabel03272502193D

 33 35  0  0  1  0  0  0  0  0999 V2000
   38.5510   26.1230   34.0910 C   0  0  0  0  0  0  0  0  0  0  0  0
   38.1460   27.0530   35.0780 C   0  0  0  0  0  0  0  0  0  0  0  0
   38.2230   26.6720   36.4100 C   0  0  0  0  0  0  0  0  0  0  0  0
   38.6880   25.4150   36.6990 N   0  0  0  0  0  0  0  0  0  0  0  0
   39.0640   24.5580   35.7380 C   0  0  0  0  0  0  0  0  0  0  0  0
   38.9950   24.9100   34.4400 N   0  0  0  0  0  0  0  0  0  0  0  0
   37.7780   28.0380   34.9300 H   0  0  0  0  0  0  0  0  0  0  0  0
   37.9320   27.3280   37.2210 H   0  0  0  0  0  0  0  0  0  0  0  0
   38.7990   23.4890   38.6090 O   0  0  0  0  0  0  0  0  0  0  0  0
   39.4040   22.9990   37.6090 C   0  0  0  0  0  0  0  0  0  0  0  0
   39.5580   23.2100   36.1250 C   0  0  2  0  0  3  0  0  0  0  0  0
   41.0340   23.0330   35.9770 C   0  0  0  0  0  3  0  0  0  0  0  0
   41.3050   22.8430   34.9080 H   0  0  0  0  0  0  0  0  0  0  0  0
   41.2960   21.8090   36.8500 C   0  0  0  0  0  3  0  0  0  0  0  0
   41.1410   20.8660   36.2640 H   0  0  0  0  0  0  0  0  0  0  0  0
   40.2480   21.8660   37.8450 N   0  0  0  0  0  0  0  0  0  0  0  0
   40.2120   21.1160   38.5980 H   0  0  0  0  0  0  0  0  0  0  0  0
   38.3890   26.7630   32.4490 S   0  0  0  0  0  0  0  0  0  0  0  0
   36.4660   27.0370   30.5720 N   0  0  0  0  0  0  0  0  0  0  0  0
   36.6300   27.0340   32.0090 C   0  0  2  0  0  0  0  0  0  0  0  0
   36.2150   28.3920   32.5340 C   0  0  0  0  0  0  0  0  0  0  0  0
   35.4200   29.0700   31.5870 O   0  0  0  0  0  0  0  0  0  0  0  0
   36.3240   29.4190   30.5590 C   0  0  0  0  0  0  0  0  0  0  0  0
   37.0920   28.2270   30.0420 C   0  0  2  0  0  0  0  0  0  0  0  0
   35.4850   26.9260   30.3070 H   0  0  0  0  0  0  0  0  0  0  0  0
   36.0590   26.2120   32.4560 H   0  0  0  0  0  0  0  0  0  0  0  0
   37.0890   29.0440   32.7330 H   0  0  0  0  0  0  0  0  0  0  0  0
   35.6430   28.2150   33.4740 H   0  0  0  0  0  0  0  0  0  0  0  0
   35.7980   29.9590   29.7610 H   0  0  0  0  0  0  0  0  0  0  0  0
   37.0200   30.1510   31.0440 H   0  0  0  0  0  0  0  0  0  0  0  0
   38.1420   28.2550   30.3910 H   0  0  0  0  0  0  0  0  0  0  0  0
   37.0220   28.1740   28.6350 O   0  0  0  0  0  0  0  0  0  0  0  0
   37.9330   28.3180   28.2790 H   0  0  0  0  0  0  0  0  0  0  0  0
  1  6  2  0  0  0  0
  1  2  1  0  0  0  0
  2  3  2  0  0  0  0
  3  4  1  0  0  0  0
  3  8  1  0  0  0  0
  5  4  2  0  0  0  0
  6  5  1  0  0  0  0
  7  2  1  0  0  0  0
 10 16  1  0  0  0  0
 10  9  2  0  0  0  0
 11  5  1  1  0  0  0
 11 10  1  0  0  0  0
 12 11  1  0  0  0  0
 12 14  1  0  0  0  0
 13 12  1  0  0  0  0
 14 16  1  0  0  0  0
 15 14  1  0  0  0  0
 16 17  1  0  0  0  0
 18  1  1  0  0  0  0
 19 20  1  0  0  0  0
 20 18  1  0  0  0  0
 20 26  1  1  0  0  0
 20 21  1  0  0  0  0
 21 27  1  0  0  0  0
 21 28  1  0  0  0  0
 22 21  1  0  0  0  0
 23 30  1  0  0  0  0
 23 22  1  0  0  0  0
 24 31  1  1  0  0  0
 24 23  1  0  0  0  0
 24 19  1  0  0  0  0
 25 19  1  0  0  0  0
 29 23  1  0  0  0  0
 32 24  1  0  0  0  0
 33 32  1  0  0  0  0
M  END
>  <minimizedAffinity>
-5.70480156

$$$$

 OpenBabel03272502193D

 33 35  0  0  1  0  0  0  0  0999 V2000
   37.8230   23.6140   33.1570 C   0  0  0  0  0  0  0  0  0  0  0  0
   37.3620   24.6850   32.3540 C   0  0  0  0  0  0  0  0  0  0  0  0
   36.2710   24.4630   31.5270 C   0  0  0  0  0  0  0  0  0  0  0  0
   35.6980   23.2170   31.5290 N   0  0  0  0  0  0  0  0  0  0  0  0
   36.1600   22.2230   32.3030 C   0  0  0  0  0  0  0  0  0  0  0  0
   37.2180   22.4210   33.1120 N   0  0  0  0  0  0  0  0  0  0  0  0
   37.7530   25.6700   32.3000 H   0  0  0  0  0  0  0  0  0  0  0  0
   35.8610   25.2320   30.8850 H   0  0  0  0  0  0  0  0  0  0  0  0
   35.6790   20.5480   34.8360 O   0  0  0  0  0  0  0  0  0  0  0  0
   35.4940   20.2550   33.6170 C   0  0  0  0  0  0  0  0  0  0  0  0
   35.4880   20.8980   32.2540 C   0  0  2  0  0  3  0  0  0  0  0  0
   36.2260   19.8670   31.4640 C   0  0  0  0  0  3  0  0  0  0  0  0
   36.0560   20.0110   30.3670 H   0  0  0  0  0  0  0  0  0  0  0  0
   35.5950   18.5710   31.9650 C   0  0  0  0  0  3  0  0  0  0  0  0
   34.6690   18.3320   31.3810 H   0  0  0  0  0  0  0  0  0  0  0  0
   35.1750   18.8920   33.3120 N   0  0  0  0  0  0  0  0  0  0  0  0
   34.7070   18.1390   33.8970 H   0  0  0  0  0  0  0  0  0  0  0  0
   39.2170   24.0620   34.1500 S   0  0  0  0  0  0  0  0  0  0  0  0
   38.5750   21.9980   35.7710 N   0  0  0  0  0  0  0  0  0  0  0  0
   39.7350   22.6770   35.2360 C   0  0  2  0  0  0  0  0  0  0  0  0
   40.5220   23.2530   36.3930 C   0  0  0  0  0  0  0  0  0  0  0  0
   40.1620   22.6220   37.6020 O   0  0  0  0  0  0  0  0  0  0  0  0
   38.8590   23.0990   37.8700 C   0  0  0  0  0  0  0  0  0  0  0  0
   37.9190   22.8830   36.7090 C   0  0  2  0  0  0  0  0  0  0  0  0
   38.8220   21.0860   36.1590 H   0  0  0  0  0  0  0  0  0  0  0  0
   40.3250   21.9910   34.6190 H   0  0  0  0  0  0  0  0  0  0  0  0
   40.3220   24.3340   36.5330 H   0  0  0  0  0  0  0  0  0  0  0  0
   41.6000   23.0840   36.1680 H   0  0  0  0  0  0  0  0  0  0  0  0
   38.4810   22.6620   38.8030 H   0  0  0  0  0  0  0  0  0  0  0  0
   39.0020   24.1940   38.0580 H   0  0  0  0  0  0  0  0  0  0  0  0
   37.7030   23.8390   36.1940 H   0  0  0  0  0  0  0  0  0  0  0  0
   36.7340   22.2600   37.1490 O   0  0  0  0  0  0  0  0  0  0  0  0
   35.9890   22.8970   37.0200 H   0  0  0  0  0  0  0  0  0  0  0  0
  1 18  1  0  0  0  0
  2  1  2  0  0  0  0
  3  4  2  0  0  0  0
  3  2  1  0  0  0  0
  4  5  1  0  0  0  0
  5  6  2  0  0  0  0
  6  1  1  0  0  0  0
  7  2  1  0  0  0  0
  8  3  1  0  0  0  0
 10  9  2  0  0  0  0
 11  5  1  1  0  0  0
 11 10  1  0  0  0  0
 12 14  1  0  0  0  0
 12 11  1  0  0  0  0
 13 12  1  0  0  0  0
 14 16  1  0  0  0  0
 15 14  1  0  0  0  0
 16 10  1  0  0  0  0
 16 17  1  0  0  0  0
 18 20  1  0  0  0  0
 19 25  1  0  0  0  0
 19 24  1  0  0  0  0
 20 26  1  6  0  0  0
 20 19  1  0  0  0  0
 20 21  1  0  0  0  0
 21 27  1  0  0  0  0
 21 22  1  0  0  0  0
 22 23  1  0  0  0  0
 23 30  1  0  0  0  0
 23 29  1  0  0  0  0
 24 31  1  6  0  0  0
 24 32  1  0  0  0  0
 24 23  1  0  0  0  0
 28 21  1  0  0  0  0
 33 32  1  0  0  0  0
M  END
>  <minimizedAffinity>
-5.43592644

$$$$

 OpenBabel03272502193D

 33 35  0  0  1  0  0  0  0  0999 V2000
   37.4000   25.9510   33.8440 C   0  0  0  0  0  0  0  0  0  0  0  0
   37.5870   27.2090   34.4650 C   0  0  0  0  0  0  0  0  0  0  0  0
   38.1660   27.2410   35.7240 C   0  0  0  0  0  0  0  0  0  0  0  0
   38.5280   26.0510   36.3020 N   0  0  0  0  0  0  0  0  0  0  0  0
   38.3380   24.8750   35.6860 C   0  0  0  0  0  0  0  0  0  0  0  0
   37.7760   24.8250   34.4630 N   0  0  0  0  0  0  0  0  0  0  0  0
   37.3330   28.1660   34.0810 H   0  0  0  0  0  0  0  0  0  0  0  0
   38.3420   28.1640   36.2620 H   0  0  0  0  0  0  0  0  0  0  0  0
   37.7740   24.3900   38.6700 O   0  0  0  0  0  0  0  0  0  0  0  0
   38.4560   23.7090   37.8470 C   0  0  0  0  0  0  0  0  0  0  0  0
   38.7540   23.6240   36.3730 C   0  0  2  0  0  3  0  0  0  0  0  0
   40.2320   23.4070   36.4060 C   0  0  0  0  0  3  0  0  0  0  0  0
   40.5960   23.0080   35.4250 H   0  0  0  0  0  0  0  0  0  0  0  0
   40.3760   22.3740   37.5200 C   0  0  0  0  0  3  0  0  0  0  0  0
   40.2490   21.3370   37.1160 H   0  0  0  0  0  0  0  0  0  0  0  0
   39.2410   22.6350   38.3790 N   0  0  0  0  0  0  0  0  0  0  0  0
   39.1140   22.0470   39.2550 H   0  0  0  0  0  0  0  0  0  0  0  0
   36.6500   26.0860   32.2470 S   0  0  0  0  0  0  0  0  0  0  0  0
   37.7780   24.7310   30.2000 N   0  0  0  0  0  0  0  0  0  0  0  0
   37.9030   25.9840   30.9120 C   0  0  2  0  0  0  0  0  0  0  0  0
   39.2760   26.0310   31.5480 C   0  0  0  0  0  0  0  0  0  0  0  0
   40.1410   25.1020   30.9330 O   0  0  0  0  0  0  0  0  0  0  0  0
   39.6640   23.8430   31.3630 C   0  0  0  0  0  0  0  0  0  0  0  0
   38.1930   23.6610   31.0800 C   0  0  2  0  0  0  0  0  0  0  0  0
   38.2760   24.7560   29.3080 H   0  0  0  0  0  0  0  0  0  0  0  0
   37.7180   26.8260   30.2360 H   0  0  0  0  0  0  0  0  0  0  0  0
   39.2440   25.7640   32.6230 H   0  0  0  0  0  0  0  0  0  0  0  0
   39.6580   27.0690   31.4180 H   0  0  0  0  0  0  0  0  0  0  0  0
   40.2770   23.0400   30.9340 H   0  0  0  0  0  0  0  0  0  0  0  0
   39.8520   23.8430   32.4670 H   0  0  0  0  0  0  0  0  0  0  0  0
   37.6010   23.7280   32.0140 H   0  0  0  0  0  0  0  0  0  0  0  0
   37.9700   22.4360   30.4200 O   0  0  0  0  0  0  0  0  0  0  0  0
   37.4410   21.8560   31.0230 H   0  0  0  0  0  0  0  0  0  0  0  0
  1  6  2  0  0  0  0
  1  2  1  0  0  0  0
  2  3  2  0  0  0  0
  3  8  1  0  0  0  0
  3  4  1  0  0  0  0
  5  4  2  0  0  0  0
  6  5  1  0  0  0  0
  7  2  1  0  0  0  0
 10 16  1  0  0  0  0
 10  9  2  0  0  0  0
 11  5  1  6  0  0  0
 11 12  1  0  0  0  0
 11 10  1  0  0  0  0
 12 14  1  0  0  0  0
 13 12  1  0  0  0  0
 14 16  1  0  0  0  0
 15 14  1  0  0  0  0
 16 17  1  0  0  0  0
 18  1  1  0  0  0  0
 19 20  1  0  0  0  0
 19 24  1  0  0  0  0
 20 26  1  6  0  0  0
 20 21  1  0  0  0  0
 20 18  1  0  0  0  0
 21 27  1  0  0  0  0
 22 23  1  0  0  0  0
 22 21  1  0  0  0  0
 23 30  1  0  0  0  0
 24 23  1  0  0  0  0
 24 31  1  1  0  0  0
 25 19  1  0  0  0  0
 28 21  1  0  0  0  0
 29 23  1  0  0  0  0
 32 33  1  0  0  0  0
 32 24  1  0  0  0  0
M  END
>  <minimizedAffinity>
-5.2861948

$$$$

 OpenBabel03272502193D

 33 35  0  0  1  0  0  0  0  0999 V2000
   37.3500   26.5150   34.5870 C   0  0  0  0  0  0  0  0  0  0  0  0
   37.3730   25.7870   33.3740 C   0  0  0  0  0  0  0  0  0  0  0  0
   36.7410   26.3340   32.2670 C   0  0  0  0  0  0  0  0  0  0  0  0
   36.1270   27.5510   32.4060 N   0  0  0  0  0  0  0  0  0  0  0  0
   36.1230   28.2160   33.5710 C   0  0  0  0  0  0  0  0  0  0  0  0
   36.7310   27.7000   34.6560 N   0  0  0  0  0  0  0  0  0  0  0  0
   37.8260   24.8440   33.1910 H   0  0  0  0  0  0  0  0  0  0  0  0
   36.7170   25.8370   31.3050 H   0  0  0  0  0  0  0  0  0  0  0  0
   36.6290   30.4420   31.5120 O   0  0  0  0  0  0  0  0  0  0  0  0
   35.9600   30.4640   32.5880 C   0  0  0  0  0  0  0  0  0  0  0  0
   35.4370   29.5320   33.6500 C   0  0  2  0  0  3  0  0  0  0  0  0
   35.7560   30.3170   34.8810 C   0  0  0  0  0  3  0  0  0  0  0  0
   35.1670   29.9390   35.7560 H   0  0  0  0  0  0  0  0  0  0  0  0
   35.3270   31.7250   34.4800 C   0  0  0  0  0  3  0  0  0  0  0  0
   34.2360   31.8790   34.6860 H   0  0  0  0  0  0  0  0  0  0  0  0
   35.4930   31.7390   33.0430 N   0  0  0  0  0  0  0  0  0  0  0  0
   35.2680   32.6300   32.5090 H   0  0  0  0  0  0  0  0  0  0  0  0
   38.1980   25.6800   35.8970 S   0  0  0  0  0  0  0  0  0  0  0  0
   37.8890   23.1400   36.7620 N   0  0  0  0  0  0  0  0  0  0  0  0
   38.2940   23.8760   35.5840 C   0  0  2  0  0  0  0  0  0  0  0  0
   39.7350   23.5260   35.2810 C   0  0  0  0  0  0  0  0  0  0  0  0
   40.1010   22.3260   35.9250 O   0  0  0  0  0  0  0  0  0  0  0  0
   40.1680   22.6710   37.2930 C   0  0  0  0  0  0  0  0  0  0  0  0
   38.8960   23.3190   37.7830 C   0  0  2  0  0  0  0  0  0  0  0  0
   37.6870   22.1630   36.5400 H   0  0  0  0  0  0  0  0  0  0  0  0
   37.6190   23.6600   34.7490 H   0  0  0  0  0  0  0  0  0  0  0  0
   40.4370   24.3030   35.6450 H   0  0  0  0  0  0  0  0  0  0  0  0
   39.8170   23.4190   34.1750 H   0  0  0  0  0  0  0  0  0  0  0  0
   40.4500   21.7940   37.8900 H   0  0  0  0  0  0  0  0  0  0  0  0
   41.0230   23.3930   37.3520 H   0  0  0  0  0  0  0  0  0  0  0  0
   39.0450   24.4050   37.9410 H   0  0  0  0  0  0  0  0  0  0  0  0
   38.4480   22.6890   38.9610 O   0  0  0  0  0  0  0  0  0  0  0  0
   38.5070   23.3440   39.6990 H   0  0  0  0  0  0  0  0  0  0  0  0
  1  6  1  0  0  0  0
  1 18  1  0  0  0  0
  2  1  2  0  0  0  0
  3  4  2  0  0  0  0
  3  2  1  0  0  0  0
  4  5  1  0  0  0  0
  5  6  2  0  0  0  0
  7  2  1  0  0  0  0
  8  3  1  0  0  0  0
  9 10  2  0  0  0  0
 10 16  1  0  0  0  0
 10 11  1  0  0  0  0
 11  5  1  1  0  0  0
 11 12  1  0  0  0  0
 12 13  1  0  0  0  0
 14 15  1  0  0  0  0
 14 12  1  0  0  0  0
 16 14  1  0  0  0  0
 17 16  1  0  0  0  0
 19 24  1  0  0  0  0
 20 26  1  6  0  0  0
 20 18  1  0  0  0  0
 20 19  1  0  0  0  0
 21 20  1  0  0  0  0
 21 27  1  0  0  0  0
 21 22  1  0  0  0  0
 22 23  1  0  0  0  0
 23 30  1  0  0  0  0
 23 24  1  0  0  0  0
 23 29  1  0  0  0  0
 24 31  1  1  0  0  0
 24 32  1  0  0  0  0
 25 19  1  0  0  0  0
 28 21  1  0  0  0  0
 32 33  1  0  0  0  0
M  END
>  <minimizedAffinity>
-5.27859497

$$$$

 OpenBabel03272502193D

 33 35  0  0  1  0  0  0  0  0999 V2000
   40.1440   25.7140   33.9140 C   0  0  0  0  0  0  0  0  0  0  0  0
   41.3040   26.5220   33.9910 C   0  0  0  0  0  0  0  0  0  0  0  0
   42.4020   26.0320   34.6820 C   0  0  0  0  0  0  0  0  0  0  0  0
   42.3060   24.7910   35.2560 N   0  0  0  0  0  0  0  0  0  0  0  0
   41.1910   24.0500   35.1650 C   0  0  0  0  0  0  0  0  0  0  0  0
   40.1160   24.5100   34.4980 N   0  0  0  0  0  0  0  0  0  0  0  0
   41.4500   27.4880   33.5740 H   0  0  0  0  0  0  0  0  0  0  0  0
   43.3240   26.5910   34.7830 H   0  0  0  0  0  0  0  0  0  0  0  0
   39.3700   23.4490   37.5680 O   0  0  0  0  0  0  0  0  0  0  0  0
   40.2710   22.7380   37.0300 C   0  0  0  0  0  0  0  0  0  0  0  0
   41.1580   22.7120   35.8120 C   0  0  2  0  0  3  0  0  0  0  0  0
   42.4540   22.2990   36.4290 C   0  0  0  0  0  3  0  0  0  0  0  0
   43.1620   21.9210   35.6490 H   0  0  0  0  0  0  0  0  0  0  0  0
   42.0140   21.1850   37.3760 C   0  0  0  0  0  3  0  0  0  0  0  0
   41.9760   20.2030   36.8380 H   0  0  0  0  0  0  0  0  0  0  0  0
   40.6520   21.5370   37.7110 N   0  0  0  0  0  0  0  0  0  0  0  0
   40.1100   20.9150   38.3810 H   0  0  0  0  0  0  0  0  0  0  0  0
   38.8390   26.4840   33.0010 S   0  0  0  0  0  0  0  0  0  0  0  0
   37.8110   26.0910   30.5340 N   0  0  0  0  0  0  0  0  0  0  0  0
   38.1590   25.3520   31.7270 C   0  0  2  0  0  0  0  0  0  0  0  0
   36.8980   24.7240   32.2790 C   0  0  0  0  0  0  0  0  0  0  0  0
   35.8940   24.6730   31.2900 O   0  0  0  0  0  0  0  0  0  0  0  0
   35.4990   26.0190   31.1240 C   0  0  0  0  0  0  0  0  0  0  0  0
   36.6690   26.9270   30.8290 C   0  0  2  0  0  0  0  0  0  0  0  0
   37.6780   25.4680   29.7340 H   0  0  0  0  0  0  0  0  0  0  0  0
   38.9400   24.6160   31.5050 H   0  0  0  0  0  0  0  0  0  0  0  0
   36.4770   25.3080   33.1220 H   0  0  0  0  0  0  0  0  0  0  0  0
   37.1690   23.6970   32.6170 H   0  0  0  0  0  0  0  0  0  0  0  0
   34.7100   26.0910   30.3650 H   0  0  0  0  0  0  0  0  0  0  0  0
   35.0320   26.2900   32.1060 H   0  0  0  0  0  0  0  0  0  0  0  0
   36.9120   27.5530   31.7100 H   0  0  0  0  0  0  0  0  0  0  0  0
   36.3980   27.7220   29.6970 O   0  0  0  0  0  0  0  0  0  0  0  0
   36.3490   28.6650   29.9910 H   0  0  0  0  0  0  0  0  0  0  0  0
  1  2  2  0  0  0  0
  1  6  1  0  0  0  0
  2  3  1  0  0  0  0
  3  8  1  0  0  0  0
  3  4  2  0  0  0  0
  5  4  1  0  0  0  0
  6  5  2  0  0  0  0
  7  2  1  0  0  0  0
 10  9  2  0  0  0  0
 10 16  1  0  0  0  0
 11  5  1  1  0  0  0
 11 12  1  0  0  0  0
 11 10  1  0  0  0  0
 12 14  1  0  0  0  0
 13 12  1  0  0  0  0
 14 16  1  0  0  0  0
 15 14  1  0  0  0  0
 16 17  1  0  0  0  0
 18  1  1  0  0  0  0
 19 24  1  0  0  0  0
 19 20  1  0  0  0  0
 20 26  1  6  0  0  0
 20 21  1  0  0  0  0
 20 18  1  0  0  0  0
 21 28  1  0  0  0  0
 21 27  1  0  0  0  0
 22 21  1  0  0  0  0
 23 22  1  0  0  0  0
 23 30  1  0  0  0  0
 24 23  1  0  0  0  0
 24 31  1  1  0  0  0
 25 19  1  0  0  0  0
 29 23  1  0  0  0  0
 32 33  1  0  0  0  0
 32 24  1  0  0  0  0
M  END
>  <minimizedAffinity>
-5.25996637

$$$$

 OpenBabel03272502193D

 33 35  0  0  1  0  0  0  0  0999 V2000
   37.8250   26.5450   34.5670 C   0  0  0  0  0  0  0  0  0  0  0  0
   36.8180   27.5130   34.7970 C   0  0  0  0  0  0  0  0  0  0  0  0
   36.4020   28.2950   33.7290 C   0  0  0  0  0  0  0  0  0  0  0  0
   36.9900   28.0890   32.5070 N   0  0  0  0  0  0  0  0  0  0  0  0
   37.9420   27.1630   32.3240 C   0  0  0  0  0  0  0  0  0  0  0  0
   38.3580   26.3950   33.3490 N   0  0  0  0  0  0  0  0  0  0  0  0
   36.3200   27.7280   35.7100 H   0  0  0  0  0  0  0  0  0  0  0  0
   35.6370   29.0550   33.8260 H   0  0  0  0  0  0  0  0  0  0  0  0
   37.5020   24.6170   30.6570 O   0  0  0  0  0  0  0  0  0  0  0  0
   38.2550   25.6130   30.4410 C   0  0  0  0  0  0  0  0  0  0  0  0
   38.5360   26.9950   30.9710 C   0  0  2  0  0  3  0  0  0  0  0  0
   40.0300   26.9940   30.9540 C   0  0  0  0  0  3  0  0  0  0  0  0
   40.4270   28.0390   31.0160 H   0  0  0  0  0  0  0  0  0  0  0  0
   40.3310   26.3570   29.6010 C   0  0  0  0  0  3  0  0  0  0  0  0
   40.3390   27.1340   28.7920 H   0  0  0  0  0  0  0  0  0  0  0  0
   39.1870   25.5060   29.3590 N   0  0  0  0  0  0  0  0  0  0  0  0
   39.1560   24.9290   28.4670 H   0  0  0  0  0  0  0  0  0  0  0  0
   38.2380   25.6370   36.0290 S   0  0  0  0  0  0  0  0  0  0  0  0
   37.9420   23.0750   36.8330 N   0  0  0  0  0  0  0  0  0  0  0  0
   38.3690   23.8410   35.6820 C   0  0  2  0  0  0  0  0  0  0  0  0
   39.8220   23.5160   35.4110 C   0  0  0  0  0  0  0  0  0  0  0  0
   40.1880   22.3080   36.0400 O   0  0  0  0  0  0  0  0  0  0  0  0
   40.2130   22.6260   37.4160 C   0  0  0  0  0  0  0  0  0  0  0  0
   38.9190   23.2470   37.8850 C   0  0  2  0  0  0  0  0  0  0  0  0
   37.7600   22.1000   36.5860 H   0  0  0  0  0  0  0  0  0  0  0  0
   37.7190   23.6330   34.8250 H   0  0  0  0  0  0  0  0  0  0  0  0
   40.5030   24.2950   35.8100 H   0  0  0  0  0  0  0  0  0  0  0  0
   39.9350   23.4330   34.3050 H   0  0  0  0  0  0  0  0  0  0  0  0
   40.4900   21.7410   38.0030 H   0  0  0  0  0  0  0  0  0  0  0  0
   41.0550   23.3580   37.5130 H   0  0  0  0  0  0  0  0  0  0  0  0
   39.0480   24.3310   38.0680 H   0  0  0  0  0  0  0  0  0  0  0  0
   38.4480   22.5860   39.0370 O   0  0  0  0  0  0  0  0  0  0  0  0
   38.4780   23.2260   39.7900 H   0  0  0  0  0  0  0  0  0  0  0  0
  1  2  1  0  0  0  0
  1 18  1  0  0  0  0
  2  7  1  0  0  0  0
  3  8  1  0  0  0  0
  3  2  2  0  0  0  0
  4  3  1  0  0  0  0
  5  4  2  0  0  0  0
  5  6  1  0  0  0  0
  6  1  2  0  0  0  0
 10  9  2  0  0  0  0
 10 11  1  0  0  0  0
 11  5  1  1  0  0  0
 12 11  1  0  0  0  0
 12 13  1  0  0  0  0
 14 12  1  0  0  0  0
 15 14  1  0  0  0  0
 16 14  1  0  0  0  0
 16 10  1  0  0  0  0
 17 16  1  0  0  0  0
 19 24  1  0  0  0  0
 20 26  1  6  0  0  0
 20 18  1  0  0  0  0
 20 19  1  0  0  0  0
 21 20  1  0  0  0  0
 21 27  1  0  0  0  0
 21 22  1  0  0  0  0
 22 23  1  0  0  0  0
 23 30  1  0  0  0  0
 23 24  1  0  0  0  0
 23 29  1  0  0  0  0
 24 31  1  1  0  0  0
 24 32  1  0  0  0  0
 25 19  1  0  0  0  0
 28 21  1  0  0  0  0
 32 33  1  0  0  0  0
M  END
>  <minimizedAffinity>
-5.13957214

$$$$

 OpenBabel03272502193D

 33 35  0  0  1  0  0  0  0  0999 V2000
   39.2080   25.7610   32.6060 C   0  0  0  0  0  0  0  0  0  0  0  0
   39.9330   26.9110   33.0000 C   0  0  0  0  0  0  0  0  0  0  0  0
   40.5650   26.8990   34.2350 C   0  0  0  0  0  0  0  0  0  0  0  0
   40.4520   25.7730   35.0090 N   0  0  0  0  0  0  0  0  0  0  0  0
   39.7570   24.6990   34.6060 C   0  0  0  0  0  0  0  0  0  0  0  0
   39.1370   24.6940   33.4110 N   0  0  0  0  0  0  0  0  0  0  0  0
   40.0630   27.8140   32.4560 H   0  0  0  0  0  0  0  0  0  0  0  0
   41.1380   27.7390   34.6040 H   0  0  0  0  0  0  0  0  0  0  0  0
   37.9300   24.6410   37.0780 O   0  0  0  0  0  0  0  0  0  0  0  0
   38.7990   23.8060   36.6870 C   0  0  0  0  0  0  0  0  0  0  0  0
   39.6780   23.5130   35.4990 C   0  0  2  0  0  3  0  0  0  0  0  0
   40.9610   23.1770   36.1850 C   0  0  0  0  0  3  0  0  0  0  0  0
   41.6500   22.6290   35.4930 H   0  0  0  0  0  0  0  0  0  0  0  0
   40.4850   22.2840   37.3270 C   0  0  0  0  0  3  0  0  0  0  0  0
   40.4070   21.2180   36.9890 H   0  0  0  0  0  0  0  0  0  0  0  0
   39.1390   22.7450   37.5870 N   0  0  0  0  0  0  0  0  0  0  0  0
   38.5790   22.2830   38.3630 H   0  0  0  0  0  0  0  0  0  0  0  0
   38.4650   25.9400   31.0100 S   0  0  0  0  0  0  0  0  0  0  0  0
   36.2780   27.2510   30.1160 N   0  0  0  0  0  0  0  0  0  0  0  0
   36.6750   26.3160   31.1470 C   0  0  2  0  0  0  0  0  0  0  0  0
   36.4300   26.9640   32.4920 C   0  0  0  0  0  0  0  0  0  0  0  0
   35.5300   28.0430   32.3680 O   0  0  0  0  0  0  0  0  0  0  0  0
   36.2710   29.0400   31.6960 C   0  0  0  0  0  0  0  0  0  0  0  0
   36.8750   28.5350   30.4080 C   0  0  2  0  0  0  0  0  0  0  0  0
   35.2620   27.2760   30.0060 H   0  0  0  0  0  0  0  0  0  0  0  0
   36.1400   25.3680   31.0270 H   0  0  0  0  0  0  0  0  0  0  0  0
   37.3600   27.3820   32.9270 H   0  0  0  0  0  0  0  0  0  0  0  0
   36.0100   26.1770   33.1590 H   0  0  0  0  0  0  0  0  0  0  0  0
   35.6530   29.9350   31.5470 H   0  0  0  0  0  0  0  0  0  0  0  0
   37.0770   29.3180   32.4220 H   0  0  0  0  0  0  0  0  0  0  0  0
   37.9690   28.3950   30.5150 H   0  0  0  0  0  0  0  0  0  0  0  0
   36.5730   29.4130   29.3480 O   0  0  0  0  0  0  0  0  0  0  0  0
   37.4200   29.8160   29.0340 H   0  0  0  0  0  0  0  0  0  0  0  0
  1  2  2  0  0  0  0
  1  6  1  0  0  0  0
  2  3  1  0  0  0  0
  3  8  1  0  0  0  0
  3  4  2  0  0  0  0
  5  4  1  0  0  0  0
  6  5  2  0  0  0  0
  7  2  1  0  0  0  0
 10  9  2  0  0  0  0
 10 16  1  0  0  0  0
 11  5  1  6  0  0  0
 11 12  1  0  0  0  0
 11 10  1  0  0  0  0
 12 14  1  0  0  0  0
 13 12  1  0  0  0  0
 14 16  1  0  0  0  0
 15 14  1  0  0  0  0
 16 17  1  0  0  0  0
 18 20  1  0  0  0  0
 18  1  1  0  0  0  0
 19 24  1  0  0  0  0
 19 20  1  0  0  0  0
 20 26  1  6  0  0  0
 20 21  1  0  0  0  0
 21 27  1  0  0  0  0
 21 28  1  0  0  0  0
 22 21  1  0  0  0  0
 23 22  1  0  0  0  0
 23 30  1  0  0  0  0
 24 31  1  1  0  0  0
 24 23  1  0  0  0  0
 25 19  1  0  0  0  0
 29 23  1  0  0  0  0
 32 24  1  0  0  0  0
 33 32  1  0  0  0  0
M  END
>  <minimizedAffinity>
-5.11439753

$$$$

 OpenBabel03272502193D

 33 35  0  0  1  0  0  0  0  0999 V2000
   37.7910   24.8750   32.7740 C   0  0  0  0  0  0  0  0  0  0  0  0
   38.8450   24.4810   33.6320 C   0  0  0  0  0  0  0  0  0  0  0  0
   38.9750   23.1350   33.9380 C   0  0  0  0  0  0  0  0  0  0  0  0
   38.0740   22.2560   33.3930 N   0  0  0  0  0  0  0  0  0  0  0  0
   37.0860   22.6620   32.5830 C   0  0  0  0  0  0  0  0  0  0  0  0
   36.9450   23.9660   32.2750 N   0  0  0  0  0  0  0  0  0  0  0  0
   39.5760   25.1010   34.0890 H   0  0  0  0  0  0  0  0  0  0  0  0
   39.7560   22.7570   34.5860 H   0  0  0  0  0  0  0  0  0  0  0  0
   35.4950   20.7520   34.3920 O   0  0  0  0  0  0  0  0  0  0  0  0
   35.5980   20.7830   33.1290 C   0  0  0  0  0  0  0  0  0  0  0  0
   36.1450   21.6540   32.0280 C   0  0  2  0  0  3  0  0  0  0  0  0
   36.7930   20.6230   31.1620 C   0  0  0  0  0  3  0  0  0  0  0  0
   36.9850   21.0310   30.1370 H   0  0  0  0  0  0  0  0  0  0  0  0
   35.7400   19.5200   31.1400 C   0  0  0  0  0  3  0  0  0  0  0  0
   34.9900   19.7060   30.3280 H   0  0  0  0  0  0  0  0  0  0  0  0
   35.0470   19.6800   32.4000 N   0  0  0  0  0  0  0  0  0  0  0  0
   34.2570   19.0110   32.6410 H   0  0  0  0  0  0  0  0  0  0  0  0
   37.7660   26.6210   32.4870 S   0  0  0  0  0  0  0  0  0  0  0  0
   36.2640   27.2090   30.3190 N   0  0  0  0  0  0  0  0  0  0  0  0
   36.1680   27.1540   31.7620 C   0  0  2  0  0  0  0  0  0  0  0  0
   35.8610   28.5480   32.2680 C   0  0  0  0  0  0  0  0  0  0  0  0
   35.3500   29.3530   31.2290 O   0  0  0  0  0  0  0  0  0  0  0  0
   36.4620   29.5860   30.3890 C   0  0  0  0  0  0  0  0  0  0  0  0
   37.1350   28.3050   29.9600 C   0  0  2  0  0  0  0  0  0  0  0  0
   35.3400   27.2480   29.8850 H   0  0  0  0  0  0  0  0  0  0  0  0
   35.4170   26.4160   32.0660 H   0  0  0  0  0  0  0  0  0  0  0  0
   36.7690   29.0610   32.6440 H   0  0  0  0  0  0  0  0  0  0  0  0
   35.1120   28.4380   33.0850 H   0  0  0  0  0  0  0  0  0  0  0  0
   36.1670   30.2120   29.5370 H   0  0  0  0  0  0  0  0  0  0  0  0
   37.1560   30.2000   31.0190 H   0  0  0  0  0  0  0  0  0  0  0  0
   38.1000   28.1720   30.4860 H   0  0  0  0  0  0  0  0  0  0  0  0
   37.3090   28.2900   28.5610 O   0  0  0  0  0  0  0  0  0  0  0  0
   38.2800   28.3060   28.3740 H   0  0  0  0  0  0  0  0  0  0  0  0
  1  2  1  0  0  0  0
  2  3  2  0  0  0  0
  2  7  1  0  0  0  0
  3  8  1  0  0  0  0
  4  3  1  0  0  0  0
  5  4  2  0  0  0  0
  6  5  1  0  0  0  0
  6  1  2  0  0  0  0
 10  9  2  0  0  0  0
 11  5  1  1  0  0  0
 11 10  1  0  0  0  0
 12 11  1  0  0  0  0
 13 12  1  0  0  0  0
 14 12  1  0  0  0  0
 14 16  1  0  0  0  0
 15 14  1  0  0  0  0
 16 17  1  0  0  0  0
 16 10  1  0  0  0  0
 18  1  1  0  0  0  0
 19 20  1  0  0  0  0
 20 26  1  1  0  0  0
 20 21  1  0  0  0  0
 20 18  1  0  0  0  0
 21 27  1  0  0  0  0
 21 28  1  0  0  0  0
 22 21  1  0  0  0  0
 23 30  1  0  0  0  0
 23 22  1  0  0  0  0
 24 19  1  0  0  0  0
 24 23  1  0  0  0  0
 24 31  1  1  0  0  0
 25 19  1  0  0  0  0
 29 23  1  0  0  0  0
 32 24  1  0  0  0  0
 33 32  1  0  0  0  0
M  END
>  <minimizedAffinity>
-5.06155825

$$$$
