
 OpenBabel03272505183D

 33 35  0  0  1  0  0  0  0  0999 V2000
   37.1430   29.4790   50.1790 C   0  0  0  0  0  0  0  0  0  0  0  0
   38.0280   30.1100   49.2840 C   0  0  0  0  0  0  0  0  0  0  0  0
   37.6060   30.5030   48.0200 C   0  0  0  0  0  0  0  0  0  0  0  0
   36.3050   30.2170   47.7710 N   0  0  0  0  0  0  0  0  0  0  0  0
   35.4550   29.6210   48.6060 C   0  0  0  0  0  0  0  0  0  0  0  0
   35.8800   29.2470   49.8260 N   0  0  0  0  0  0  0  0  0  0  0  0
   37.5580   29.2070   51.1430 H   0  0  0  0  0  0  0  0  0  0  0  0
   39.0380   30.2870   49.5920 H   0  0  0  0  0  0  0  0  0  0  0  0
   38.9880   32.4120   47.4710 C   0  0  0  0  0  0  0  0  0  0  0  0
   38.5770   31.1420   47.1680 C   0  0  0  0  0  0  0  0  0  0  0  0
   39.1240   30.5550   46.0570 C   0  0  0  0  0  0  0  0  0  0  0  0
   40.0310   31.1820   45.2790 C   0  0  0  0  0  0  0  0  0  0  0  0
   40.4690   32.4680   45.5540 C   0  0  0  0  0  0  0  0  0  0  0  0
   39.9250   33.0560   46.6620 C   0  0  0  0  0  0  0  0  0  0  0  0
   38.7920   29.5450   45.8240 H   0  0  0  0  0  0  0  0  0  0  0  0
   40.4050   30.6360   44.4220 H   0  0  0  0  0  0  0  0  0  0  0  0
   41.1980   32.9300   44.9010 H   0  0  0  0  0  0  0  0  0  0  0  0
   40.3120   34.0620   46.8180 H   0  0  0  0  0  0  0  0  0  0  0  0
   39.2770   34.2770   48.9490 N   0  0  0  0  0  0  0  0  0  0  0  0
   38.5720   33.2350   48.5710 C   0  0  0  0  0  0  0  0  0  0  0  0
   37.5660   33.3920   49.5440 N   0  0  0  0  0  0  0  0  0  0  0  0
   38.9590   34.8740   49.7460 H   0  0  0  0  0  0  0  0  0  0  0  0
   37.6050   32.8500   50.4410 H   0  0  0  0  0  0  0  0  0  0  0  0
   36.7340   33.9900   49.5380 H   0  0  0  0  0  0  0  0  0  0  0  0
   34.3050   27.1300   48.3750 O   0  0  0  0  0  0  0  0  0  0  0  0
   33.9000   28.0160   47.5520 C   0  0  0  0  0  0  0  0  0  0  0  0
   34.0490   29.3830   48.1640 C   0  0  2  0  0  3  0  0  0  0  0  0
   33.6780   30.2810   47.0080 C   0  0  0  0  0  3  0  0  0  0  0  0
   32.6180   30.5880   47.0990 H   0  0  0  0  0  0  0  0  0  0  0  0
   33.7970   29.4030   45.7810 C   0  0  0  0  0  3  0  0  0  0  0  0
   34.8570   29.3740   45.4590 H   0  0  0  0  0  0  0  0  0  0  0  0
   33.3520   28.1050   46.2410 N   0  0  0  0  0  0  0  0  0  0  0  0
   32.8000   27.2410   45.9780 H   0  0  0  0  0  0  0  0  0  0  0  0
  1  7  1  0  0  0  0
  2  8  1  0  0  0  0
  2  1  2  0  0  0  0
  3  2  1  0  0  0  0
  4  3  2  0  0  0  0
  4  5  1  0  0  0  0
  5  6  2  0  0  0  0
  6  1  1  0  0  0  0
  9 20  1  0  0  0  0
 10  9  1  0  0  0  0
 10  3  1  0  0  0  0
 11 10  2  0  0  0  0
 12 13  2  0  0  0  0
 12 11  1  0  0  0  0
 13 14  1  0  0  0  0
 14 18  1  0  0  0  0
 14  9  2  0  0  0  0
 15 11  1  0  0  0  0
 16 12  1  0  0  0  0
 17 13  1  0  0  0  0
 19 22  1  0  0  0  0
 20 19  2  0  0  0  0
 20 21  1  0  0  0  0
 21 23  1  0  0  0  0
 24 21  1  0  0  0  0
 26 27  1  0  0  0  0
 26 25  2  0  0  0  0
 27  5  1  6  0  0  0
 28 29  1  0  0  0  0
 28 27  1  0  0  0  0
 30 32  1  0  0  0  0
 30 28  1  0  0  0  0
 31 30  1  0  0  0  0
 32 26  1  0  0  0  0
 33 32  1  0  0  0  0
M  END
>  <minimizedAffinity>
-6.39571524

>  <minimizedRMSD>
1.08592916

$$$$
