
 OpenBabel03272503453D

 33 35  0  0  1  0  0  0  0  0999 V2000
   37.4600   30.4350   49.3830 C   0  0  0  0  0  0  0  0  0  0  0  0
   37.3930   31.3150   48.2870 C   0  0  0  0  0  0  0  0  0  0  0  0
   36.3550   31.1030   47.3730 C   0  0  0  0  0  0  0  0  0  0  0  0
   35.4820   30.0890   47.5770 N   0  0  0  0  0  0  0  0  0  0  0  0
   35.5850   29.2670   48.6470 C   0  0  0  0  0  0  0  0  0  0  0  0
   36.5720   29.4450   49.5420 N   0  0  0  0  0  0  0  0  0  0  0  0
   38.2580   30.5800   50.1070 H   0  0  0  0  0  0  0  0  0  0  0  0
   36.3020   31.7640   46.5450 H   0  0  0  0  0  0  0  0  0  0  0  0
   39.1670   32.3650   47.0410 C   0  0  0  0  0  0  0  0  0  0  0  0
   38.3950   32.3600   48.1900 C   0  0  0  0  0  0  0  0  0  0  0  0
   38.5640   33.2880   49.1870 C   0  0  0  0  0  0  0  0  0  0  0  0
   39.5220   34.2670   49.0680 C   0  0  0  0  0  0  0  0  0  0  0  0
   40.2990   34.2860   47.9290 C   0  0  0  0  0  0  0  0  0  0  0  0
   40.1430   33.3550   46.9120 C   0  0  0  0  0  0  0  0  0  0  0  0
   37.9490   33.2530   50.0590 H   0  0  0  0  0  0  0  0  0  0  0  0
   39.7130   35.0290   49.8050 H   0  0  0  0  0  0  0  0  0  0  0  0
   41.0720   35.0400   47.7850 H   0  0  0  0  0  0  0  0  0  0  0  0
   40.7920   33.4210   46.0290 H   0  0  0  0  0  0  0  0  0  0  0  0
   39.7900   30.3420   45.9060 N   0  0  0  0  0  0  0  0  0  0  0  0
   39.0930   31.4410   45.9110 C   0  0  0  0  0  0  0  0  0  0  0  0
   38.3030   31.5930   44.7310 N   0  0  0  0  0  0  0  0  0  0  0  0
   40.4190   30.0730   46.6650 H   0  0  0  0  0  0  0  0  0  0  0  0
   37.3430   31.3290   44.3580 H   0  0  0  0  0  0  0  0  0  0  0  0
   38.5140   32.0730   43.8070 H   0  0  0  0  0  0  0  0  0  0  0  0
   33.5890   29.2390   50.5970 O   0  0  0  0  0  0  0  0  0  0  0  0
   33.4020   28.5640   49.5390 C   0  0  0  0  0  0  0  0  0  0  0  0
   34.6720   28.1420   48.9340 C   0  0  1  0  0  0  0  0  0  0  0  0
   34.1970   27.4540   47.6500 C   0  0  0  0  0  0  0  0  0  0  0  0
   33.9860   28.1710   46.8360 H   0  0  0  0  0  0  0  0  0  0  0  0
   32.8620   26.9060   48.1130 C   0  0  0  0  0  0  0  0  0  0  0  0
   32.2490   26.5400   47.2830 H   0  0  0  0  0  0  0  0  0  0  0  0
   32.2940   28.0950   48.7670 N   0  0  0  0  0  0  0  0  0  0  0  0
   31.4130   28.6820   48.8590 H   0  0  0  0  0  0  0  0  0  0  0  0
  1  6  1  0  0  0  0
  1  7  1  0  0  0  0
  2  1  2  0  0  0  0
  3  4  2  0  0  0  0
  3  2  1  0  0  0  0
  4  5  1  0  0  0  0
  5  6  2  0  0  0  0
  8  3  1  0  0  0  0
  9 10  1  0  0  0  0
 10  2  1  0  0  0  0
 10 11  2  0  0  0  0
 11 15  1  0  0  0  0
 12 11  1  0  0  0  0
 12 16  1  0  0  0  0
 13 12  2  0  0  0  0
 14  9  2  0  0  0  0
 14 13  1  0  0  0  0
 17 13  1  0  0  0  0
 18 14  1  0  0  0  0
 19 20  2  0  0  0  0
 19 22  1  0  0  0  0
 20  9  1  0  0  0  0
 21 20  1  0  0  0  0
 23 21  1  0  0  0  0
 24 21  1  0  0  0  0
 26 25  2  0  0  0  0
 27  5  1  6  0  0  0
 27 26  1  0  0  0  0
 28 30  1  0  0  0  0
 28 27  1  0  0  0  0
 29 28  1  0  0  0  0
 30 32  1  0  0  0  0
 31 30  1  0  0  0  0
 32 33  1  0  0  0  0
 32 26  1  0  0  0  0
M  END
>  <minimizedAffinity>
-6.07092619

>  <minimizedRMSD>
1.62130737

$$$$
