
 OpenBabel03272506033D

 46 49  0  0  1  0  0  0  0  0999 V2000
   37.9300   26.0410   33.0720 C   0  0  2  0  0  0  0  0  0  0  0  0
   39.0130   25.2680   33.6650 C   0  0  0  0  0  0  0  0  0  0  0  0
   38.9170   25.1950   35.2190 C   0  0  2  0  0  0  0  0  0  0  0  0
   38.9140   26.4850   35.8660 C   0  0  0  0  0  0  0  0  0  0  0  0
   38.0980   27.5400   35.1240 C   0  0  0  0  0  0  0  0  0  0  0  0
   37.2050   26.9230   34.0960 C   0  0  0  0  0  0  0  0  0  0  0  0
   38.3260   26.8000   32.3330 H   0  0  0  0  0  0  0  0  0  0  0  0
   39.9920   25.8390   33.5110 H   0  0  0  0  0  0  0  0  0  0  0  0
   39.2410   24.2630   33.3860 H   0  0  0  0  0  0  0  0  0  0  0  0
   38.0320   24.5790   35.4490 H   0  0  0  0  0  0  0  0  0  0  0  0
   39.9330   26.9090   35.9390 H   0  0  0  0  0  0  0  0  0  0  0  0
   38.5760   26.3650   36.9170 H   0  0  0  0  0  0  0  0  0  0  0  0
   38.7060   28.3730   34.7440 H   0  0  0  0  0  0  0  0  0  0  0  0
   37.4200   27.9920   35.8780 H   0  0  0  0  0  0  0  0  0  0  0  0
   36.6550   27.7410   33.6030 H   0  0  0  0  0  0  0  0  0  0  0  0
   36.4920   26.2560   34.6340 H   0  0  0  0  0  0  0  0  0  0  0  0
   38.4430   22.9110   37.0300 Cl  0  0  0  0  0  0  0  0  0  0  0  0
   40.0380   23.3450   36.4670 C   0  0  0  0  0  0  0  0  0  0  0  0
   40.1280   24.4000   35.5930 C   0  0  0  0  0  0  0  0  0  0  0  0
   41.4190   24.6540   35.1670 C   0  0  0  0  0  0  0  0  0  0  0  0
   42.5160   23.9240   35.5800 C   0  0  0  0  0  0  0  0  0  0  0  0
   42.3390   22.8660   36.4740 C   0  0  0  0  0  0  0  0  0  0  0  0
   41.0530   22.5750   36.9270 C   0  0  0  0  0  0  0  0  0  0  0  0
   41.5750   25.4690   34.4710 H   0  0  0  0  0  0  0  0  0  0  0  0
   43.4800   24.1990   35.1930 H   0  0  0  0  0  0  0  0  0  0  0  0
   43.1910   22.2900   36.8020 H   0  0  0  0  0  0  0  0  0  0  0  0
   40.8750   21.4970   37.8360 N   0  0  0  0  0  0  0  0  0  0  0  0
   41.4740   20.6450   37.7370 H   0  0  0  0  0  0  0  0  0  0  0  0
   40.1490   21.5820   38.5840 H   0  0  0  0  0  0  0  0  0  0  0  0
   36.8970   25.2810   32.3740 C   0  0  0  0  0  0  0  0  0  0  0  0
   36.1320   26.0310   31.4910 C   0  0  0  0  0  0  0  0  0  0  0  0
   35.1390   25.3950   30.7550 C   0  0  0  0  0  0  0  0  0  0  0  0
   34.9600   24.0220   30.9400 N   0  0  0  0  0  0  0  0  0  0  0  0
   35.7190   23.3290   31.8040 C   0  0  0  0  0  0  0  0  0  0  0  0
   36.6570   23.9860   32.4870 N   0  0  0  0  0  0  0  0  0  0  0  0
   36.0460   27.0560   31.1600 H   0  0  0  0  0  0  0  0  0  0  0  0
   34.4370   25.7270   30.0350 H   0  0  0  0  0  0  0  0  0  0  0  0
   36.5170   21.2640   34.1890 O   0  0  0  0  0  0  0  0  0  0  0  0
   36.6380   21.4600   32.9460 C   0  0  0  0  0  0  0  0  0  0  0  0
   35.5510   21.8780   32.0220 C   0  0  2  0  0  3  0  0  0  0  0  0
   35.9390   21.1580   30.7560 C   0  0  0  0  0  3  0  0  0  0  0  0
   35.6060   21.7870   29.9040 H   0  0  0  0  0  0  0  0  0  0  0  0
   37.4510   21.0730   30.7840 C   0  0  0  0  0  3  0  0  0  0  0  0
   37.7540   20.0540   30.4480 H   0  0  0  0  0  0  0  0  0  0  0  0
   37.8190   21.3280   32.1600 N   0  0  0  0  0  0  0  0  0  0  0  0
   38.7920   21.3980   32.4930 H   0  0  0  0  0  0  0  0  0  0  0  0
  1  7  1  6  0  0  0
  1  2  1  0  0  0  0
  1  6  1  0  0  0  0
  2  3  1  0  0  0  0
  3 10  1  1  0  0  0
  3 19  1  0  0  0  0
  3  4  1  0  0  0  0
  4 11  1  0  0  0  0
  4 12  1  0  0  0  0
  5  4  1  0  0  0  0
  5 14  1  0  0  0  0
  6 16  1  0  0  0  0
  6  5  1  0  0  0  0
  8  2  1  0  0  0  0
  9  2  1  0  0  0  0
 13  5  1  0  0  0  0
 15  6  1  0  0  0  0
 18 23  1  0  0  0  0
 18 17  1  0  0  0  0
 19 18  2  0  0  0  0
 20 21  2  0  0  0  0
 20 19  1  0  0  0  0
 21 22  1  0  0  0  0
 22 26  1  0  0  0  0
 22 23  2  0  0  0  0
 23 27  1  0  0  0  0
 24 20  1  0  0  0  0
 25 21  1  0  0  0  0
 27 29  1  0  0  0  0
 28 27  1  0  0  0  0
 30 35  1  0  0  0  0
 30  1  1  0  0  0  0
 31 30  2  0  0  0  0
 32 33  2  0  0  0  0
 32 31  1  0  0  0  0
 33 34  1  0  0  0  0
 34 35  2  0  0  0  0
 36 31  1  0  0  0  0
 37 32  1  0  0  0  0
 39 38  2  0  0  0  0
 40 34  1  6  0  0  0
 40 39  1  0  0  0  0
 41 43  1  0  0  0  0
 41 40  1  0  0  0  0
 42 41  1  0  0  0  0
 43 45  1  0  0  0  0
 44 43  1  0  0  0  0
 45 46  1  0  0  0  0
 45 39  1  0  0  0  0
M  END
>  <minimizedAffinity>
-6.68267393

$$$$

 OpenBabel03272506033D

 46 49  0  0  1  0  0  0  0  0999 V2000
   37.3770   27.6910   32.8350 C   0  0  2  0  0  0  0  0  0  0  0  0
   36.7980   28.5920   33.8230 C   0  0  0  0  0  0  0  0  0  0  0  0
   35.3260   28.9810   33.4900 C   0  0  2  0  0  0  0  0  0  0  0  0
   35.1640   29.6070   32.2000 C   0  0  0  0  0  0  0  0  0  0  0  0
   36.0310   28.9880   31.1060 C   0  0  0  0  0  0  0  0  0  0  0  0
   36.5820   27.6630   31.5240 C   0  0  0  0  0  0  0  0  0  0  0  0
   38.3930   28.0540   32.4960 H   0  0  0  0  0  0  0  0  0  0  0  0
   37.3350   29.6000   33.7540 H   0  0  0  0  0  0  0  0  0  0  0  0
   36.7640   28.3770   34.8690 H   0  0  0  0  0  0  0  0  0  0  0  0
   34.7230   28.0660   33.6200 H   0  0  0  0  0  0  0  0  0  0  0  0
   35.4520   30.6750   32.2240 H   0  0  0  0  0  0  0  0  0  0  0  0
   34.0880   29.6050   31.9260 H   0  0  0  0  0  0  0  0  0  0  0  0
   36.7860   29.6790   30.7060 H   0  0  0  0  0  0  0  0  0  0  0  0
   35.3490   28.7760   30.2560 H   0  0  0  0  0  0  0  0  0  0  0  0
   37.1950   27.2840   30.6910 H   0  0  0  0  0  0  0  0  0  0  0  0
   35.7150   26.9840   31.6980 H   0  0  0  0  0  0  0  0  0  0  0  0
   32.4770   29.0180   34.2680 Cl  0  0  0  0  0  0  0  0  0  0  0  0
   33.6660   30.0560   35.0140 C   0  0  0  0  0  0  0  0  0  0  0  0
   34.9670   29.9180   34.6000 C   0  0  0  0  0  0  0  0  0  0  0  0
   35.8490   30.7490   35.2660 C   0  0  0  0  0  0  0  0  0  0  0  0
   35.4640   31.6370   36.2510 C   0  0  0  0  0  0  0  0  0  0  0  0
   34.1180   31.7180   36.6130 C   0  0  0  0  0  0  0  0  0  0  0  0
   33.1960   30.8970   35.9670 C   0  0  0  0  0  0  0  0  0  0  0  0
   36.8980   30.6970   35.0010 H   0  0  0  0  0  0  0  0  0  0  0  0
   36.2250   32.2420   36.7110 H   0  0  0  0  0  0  0  0  0  0  0  0
   33.8080   32.4100   37.3830 H   0  0  0  0  0  0  0  0  0  0  0  0
   31.8270   30.9800   36.3380 N   0  0  0  0  0  0  0  0  0  0  0  0
   31.5820   31.1580   37.3400 H   0  0  0  0  0  0  0  0  0  0  0  0
   31.0950   30.8630   35.6000 H   0  0  0  0  0  0  0  0  0  0  0  0
   37.5480   26.3000   33.2460 C   0  0  0  0  0  0  0  0  0  0  0  0
   36.9880   25.3730   32.3780 C   0  0  0  0  0  0  0  0  0  0  0  0
   37.1200   24.0190   32.6640 C   0  0  0  0  0  0  0  0  0  0  0  0
   37.8160   23.6560   33.8200 N   0  0  0  0  0  0  0  0  0  0  0  0
   38.3450   24.5810   34.6370 C   0  0  0  0  0  0  0  0  0  0  0  0
   38.1890   25.8670   34.3170 N   0  0  0  0  0  0  0  0  0  0  0  0
   36.4200   25.3610   31.4590 H   0  0  0  0  0  0  0  0  0  0  0  0
   36.7970   23.1350   32.1800 H   0  0  0  0  0  0  0  0  0  0  0  0
   40.1790   22.0560   35.5570 O   0  0  0  0  0  0  0  0  0  0  0  0
   39.1730   22.7430   35.8930 C   0  0  0  0  0  0  0  0  0  0  0  0
   39.0840   24.2270   35.8650 C   0  0  2  0  0  3  0  0  0  0  0  0
   38.1940   24.4980   37.0510 C   0  0  0  0  0  3  0  0  0  0  0  0
   37.6060   25.4100   36.8200 H   0  0  0  0  0  0  0  0  0  0  0  0
   37.2790   23.2970   37.1560 C   0  0  0  0  0  3  0  0  0  0  0  0
   37.1900   23.0120   38.2300 H   0  0  0  0  0  0  0  0  0  0  0  0
   37.9170   22.2640   36.3660 N   0  0  0  0  0  0  0  0  0  0  0  0
   37.5060   21.3360   36.1900 H   0  0  0  0  0  0  0  0  0  0  0  0
  1  7  1  6  0  0  0
  1 30  1  0  0  0  0
  1  2  1  0  0  0  0
  2  9  1  0  0  0  0
  3 10  1  1  0  0  0
  3  2  1  0  0  0  0
  3 19  1  0  0  0  0
  4 11  1  0  0  0  0
  4  3  1  0  0  0  0
  5  6  1  0  0  0  0
  5  4  1  0  0  0  0
  6 16  1  0  0  0  0
  6  1  1  0  0  0  0
  8  2  1  0  0  0  0
 12  4  1  0  0  0  0
 13  5  1  0  0  0  0
 14  5  1  0  0  0  0
 15  6  1  0  0  0  0
 17 18  1  0  0  0  0
 18 23  1  0  0  0  0
 19 18  2  0  0  0  0
 19 20  1  0  0  0  0
 20 21  2  0  0  0  0
 21 22  1  0  0  0  0
 21 25  1  0  0  0  0
 22 26  1  0  0  0  0
 23 27  1  0  0  0  0
 23 22  2  0  0  0  0
 24 20  1  0  0  0  0
 27 28  1  0  0  0  0
 29 27  1  0  0  0  0
 30 35  1  0  0  0  0
 31 32  1  0  0  0  0
 31 30  2  0  0  0  0
 32 33  2  0  0  0  0
 33 34  1  0  0  0  0
 35 34  2  0  0  0  0
 36 31  1  0  0  0  0
 37 32  1  0  0  0  0
 38 39  2  0  0  0  0
 39 45  1  0  0  0  0
 40 34  1  6  0  0  0
 40 39  1  0  0  0  0
 40 41  1  0  0  0  0
 41 43  1  0  0  0  0
 42 41  1  0  0  0  0
 43 44  1  0  0  0  0
 45 43  1  0  0  0  0
 46 45  1  0  0  0  0
M  END
>  <minimizedAffinity>
-6.41404057

$$$$

 OpenBabel03272506033D

 46 49  0  0  1  0  0  0  0  0999 V2000
   36.6850   28.6400   33.3290 C   0  0  2  0  0  0  0  0  0  0  0  0
   35.9230   29.3510   34.3470 C   0  0  0  0  0  0  0  0  0  0  0  0
   34.4100   29.4690   33.9910 C   0  0  2  0  0  0  0  0  0  0  0  0
   34.1550   30.1290   32.7330 C   0  0  0  0  0  0  0  0  0  0  0  0
   35.1470   29.7560   31.6340 C   0  0  0  0  0  0  0  0  0  0  0  0
   35.9360   28.5380   31.9940 C   0  0  0  0  0  0  0  0  0  0  0  0
   37.6180   29.2120   33.0430 H   0  0  0  0  0  0  0  0  0  0  0  0
   36.2550   30.4460   34.3500 H   0  0  0  0  0  0  0  0  0  0  0  0
   35.9110   29.0710   35.3780 H   0  0  0  0  0  0  0  0  0  0  0  0
   33.9940   28.4490   34.0510 H   0  0  0  0  0  0  0  0  0  0  0  0
   34.2300   31.2280   32.8250 H   0  0  0  0  0  0  0  0  0  0  0  0
   33.1060   29.9360   32.4260 H   0  0  0  0  0  0  0  0  0  0  0  0
   35.7620   30.6020   31.2960 H   0  0  0  0  0  0  0  0  0  0  0  0
   34.5360   29.4670   30.7530 H   0  0  0  0  0  0  0  0  0  0  0  0
   36.6280   28.3350   31.1610 H   0  0  0  0  0  0  0  0  0  0  0  0
   35.2150   27.6960   32.1040 H   0  0  0  0  0  0  0  0  0  0  0  0
   31.6740   28.7430   34.8330 Cl  0  0  0  0  0  0  0  0  0  0  0  0
   32.5750   30.0340   35.5870 C   0  0  0  0  0  0  0  0  0  0  0  0
   33.8550   30.2500   35.1390 C   0  0  0  0  0  0  0  0  0  0  0  0
   34.5110   31.2640   35.8130 C   0  0  0  0  0  0  0  0  0  0  0  0
   33.9390   31.9940   36.8360 C   0  0  0  0  0  0  0  0  0  0  0  0
   32.6290   31.7130   37.2300 C   0  0  0  0  0  0  0  0  0  0  0  0
   31.9330   30.6980   36.5780 C   0  0  0  0  0  0  0  0  0  0  0  0
   35.5290   31.4940   35.5230 H   0  0  0  0  0  0  0  0  0  0  0  0
   34.5300   32.7640   37.2980 H   0  0  0  0  0  0  0  0  0  0  0  0
   32.1740   32.2800   38.0290 H   0  0  0  0  0  0  0  0  0  0  0  0
   30.6000   30.4130   36.9810 N   0  0  0  0  0  0  0  0  0  0  0  0
   30.3480   30.4940   37.9940 H   0  0  0  0  0  0  0  0  0  0  0  0
   29.9020   30.1290   36.2570 H   0  0  0  0  0  0  0  0  0  0  0  0
   37.1140   27.2860   33.6680 C   0  0  0  0  0  0  0  0  0  0  0  0
   37.2190   27.0430   35.0300 C   0  0  0  0  0  0  0  0  0  0  0  0
   37.5940   25.7740   35.4590 C   0  0  0  0  0  0  0  0  0  0  0  0
   37.8480   24.8000   34.4900 N   0  0  0  0  0  0  0  0  0  0  0  0
   37.7360   25.0720   33.1810 C   0  0  0  0  0  0  0  0  0  0  0  0
   37.3740   26.3040   32.8210 N   0  0  0  0  0  0  0  0  0  0  0  0
   37.0950   27.5750   35.9620 H   0  0  0  0  0  0  0  0  0  0  0  0
   37.7430   25.3400   36.4130 H   0  0  0  0  0  0  0  0  0  0  0  0
   38.6160   25.1960   30.0510 O   0  0  0  0  0  0  0  0  0  0  0  0
   37.7390   24.7280   30.8300 C   0  0  0  0  0  0  0  0  0  0  0  0
   37.9990   24.0640   32.1350 C   0  0  2  0  0  3  0  0  0  0  0  0
   36.8960   23.0370   32.1750 C   0  0  0  0  0  3  0  0  0  0  0  0
   36.6190   22.8930   33.2400 H   0  0  0  0  0  0  0  0  0  0  0  0
   35.7420   23.6500   31.4110 C   0  0  0  0  0  3  0  0  0  0  0  0
   35.2920   22.8650   30.7600 H   0  0  0  0  0  0  0  0  0  0  0  0
   36.3260   24.7300   30.6430 N   0  0  0  0  0  0  0  0  0  0  0  0
   35.7830   25.3830   30.0610 H   0  0  0  0  0  0  0  0  0  0  0  0
  1  7  1  6  0  0  0
  1 30  1  0  0  0  0
  1  2  1  0  0  0  0
  2  8  1  0  0  0  0
  2  9  1  0  0  0  0
  3 10  1  6  0  0  0
  3  2  1  0  0  0  0
  3 19  1  0  0  0  0
  4 11  1  0  0  0  0
  4  3  1  0  0  0  0
  5  6  1  0  0  0  0
  5  4  1  0  0  0  0
  6 16  1  0  0  0  0
  6  1  1  0  0  0  0
 12  4  1  0  0  0  0
 13  5  1  0  0  0  0
 14  5  1  0  0  0  0
 15  6  1  0  0  0  0
 17 18  1  0  0  0  0
 18 23  1  0  0  0  0
 19 18  2  0  0  0  0
 19 20  1  0  0  0  0
 20 21  2  0  0  0  0
 21 22  1  0  0  0  0
 21 25  1  0  0  0  0
 22 26  1  0  0  0  0
 23 27  1  0  0  0  0
 23 22  2  0  0  0  0
 24 20  1  0  0  0  0
 27 28  1  0  0  0  0
 29 27  1  0  0  0  0
 30 31  1  0  0  0  0
 31 32  2  0  0  0  0
 31 36  1  0  0  0  0
 32 37  1  0  0  0  0
 33 32  1  0  0  0  0
 34 33  2  0  0  0  0
 35 34  1  0  0  0  0
 35 30  2  0  0  0  0
 38 39  2  0  0  0  0
 39 40  1  0  0  0  0
 40 41  1  0  0  0  0
 40 34  1  1  0  0  0
 41 42  1  0  0  0  0
 43 41  1  0  0  0  0
 44 43  1  0  0  0  0
 45 39  1  0  0  0  0
 45 43  1  0  0  0  0
 46 45  1  0  0  0  0
M  END
>  <minimizedAffinity>
-6.38617516

$$$$

 OpenBabel03272506033D

 46 49  0  0  1  0  0  0  0  0999 V2000
   37.6740   26.5040   33.0570 C   0  0  2  0  0  0  0  0  0  0  0  0
   39.1270   26.4240   33.1400 C   0  0  0  0  0  0  0  0  0  0  0  0
   39.6300   26.1370   34.5880 C   0  0  2  0  0  0  0  0  0  0  0  0
   39.2020   27.1130   35.5600 C   0  0  0  0  0  0  0  0  0  0  0  0
   37.7660   27.5910   35.3570 C   0  0  0  0  0  0  0  0  0  0  0  0
   37.0140   26.6950   34.4280 C   0  0  0  0  0  0  0  0  0  0  0  0
   37.3470   27.4300   32.4970 H   0  0  0  0  0  0  0  0  0  0  0  0
   39.5590   27.4640   32.9380 H   0  0  0  0  0  0  0  0  0  0  0  0
   39.7170   25.7660   32.5400 H   0  0  0  0  0  0  0  0  0  0  0  0
   39.3210   25.1050   34.8270 H   0  0  0  0  0  0  0  0  0  0  0  0
   39.8180   28.0310   35.5180 H   0  0  0  0  0  0  0  0  0  0  0  0
   39.3620   26.7060   36.5800 H   0  0  0  0  0  0  0  0  0  0  0  0
   37.6940   28.6590   35.1040 H   0  0  0  0  0  0  0  0  0  0  0  0
   37.2660   27.4890   36.3430 H   0  0  0  0  0  0  0  0  0  0  0  0
   35.9950   27.1040   34.3280 H   0  0  0  0  0  0  0  0  0  0  0  0
   36.9740   25.6860   34.9000 H   0  0  0  0  0  0  0  0  0  0  0  0
   41.0360   23.7930   35.7060 Cl  0  0  0  0  0  0  0  0  0  0  0  0
   41.8820   25.1240   34.9550 C   0  0  0  0  0  0  0  0  0  0  0  0
   41.1170   26.1360   34.4320 C   0  0  0  0  0  0  0  0  0  0  0  0
   41.8610   27.1300   33.8230 C   0  0  0  0  0  0  0  0  0  0  0  0
   43.2400   27.1130   33.7480 C   0  0  0  0  0  0  0  0  0  0  0  0
   43.9440   26.0450   34.3090 C   0  0  0  0  0  0  0  0  0  0  0  0
   43.2320   25.0220   34.9310 C   0  0  0  0  0  0  0  0  0  0  0  0
   41.3320   27.9650   33.3800 H   0  0  0  0  0  0  0  0  0  0  0  0
   43.7290   27.9330   33.2540 H   0  0  0  0  0  0  0  0  0  0  0  0
   45.0230   26.0240   34.2550 H   0  0  0  0  0  0  0  0  0  0  0  0
   43.9510   23.9350   35.5000 N   0  0  0  0  0  0  0  0  0  0  0  0
   44.8190   23.5970   35.0240 H   0  0  0  0  0  0  0  0  0  0  0  0
   43.5950   23.5000   36.3820 H   0  0  0  0  0  0  0  0  0  0  0  0
   36.9980   25.3740   32.4250 C   0  0  0  0  0  0  0  0  0  0  0  0
   35.8980   25.7240   31.6530 C   0  0  0  0  0  0  0  0  0  0  0  0
   35.2020   24.7240   30.9850 C   0  0  0  0  0  0  0  0  0  0  0  0
   35.6460   23.4070   31.1230 N   0  0  0  0  0  0  0  0  0  0  0  0
   36.7140   23.1060   31.8780 C   0  0  0  0  0  0  0  0  0  0  0  0
   37.3480   24.1020   32.4990 N   0  0  0  0  0  0  0  0  0  0  0  0
   35.3490   26.6130   31.3790 H   0  0  0  0  0  0  0  0  0  0  0  0
   34.3540   24.7230   30.3500 H   0  0  0  0  0  0  0  0  0  0  0  0
   36.2030   20.2930   30.3250 O   0  0  0  0  0  0  0  0  0  0  0  0
   36.1650   20.8320   31.4670 C   0  0  0  0  0  0  0  0  0  0  0  0
   37.2060   21.7240   32.0430 C   0  0  2  0  0  3  0  0  0  0  0  0
   37.1340   21.3640   33.5060 C   0  0  0  0  0  3  0  0  0  0  0  0
   37.3900   22.2780   34.0820 H   0  0  0  0  0  0  0  0  0  0  0  0
   35.6940   20.9710   33.7580 C   0  0  0  0  0  3  0  0  0  0  0  0
   35.6830   20.0650   34.4070 H   0  0  0  0  0  0  0  0  0  0  0  0
   35.1370   20.7110   32.4470 N   0  0  0  0  0  0  0  0  0  0  0  0
   34.1480   20.4780   32.2760 H   0  0  0  0  0  0  0  0  0  0  0  0
  1  7  1  6  0  0  0
  1  2  1  0  0  0  0
  1  6  1  0  0  0  0
  2  3  1  0  0  0  0
  3 10  1  1  0  0  0
  3  4  1  0  0  0  0
  4 12  1  0  0  0  0
  5  4  1  0  0  0  0
  5 14  1  0  0  0  0
  6 16  1  0  0  0  0
  6  5  1  0  0  0  0
  8  2  1  0  0  0  0
  9  2  1  0  0  0  0
 11  4  1  0  0  0  0
 13  5  1  0  0  0  0
 15  6  1  0  0  0  0
 18 17  1  0  0  0  0
 19  3  1  0  0  0  0
 19 18  2  0  0  0  0
 20 19  1  0  0  0  0
 21 20  2  0  0  0  0
 21 22  1  0  0  0  0
 22 23  2  0  0  0  0
 23 18  1  0  0  0  0
 23 27  1  0  0  0  0
 24 20  1  0  0  0  0
 25 21  1  0  0  0  0
 26 22  1  0  0  0  0
 27 29  1  0  0  0  0
 28 27  1  0  0  0  0
 30 35  1  0  0  0  0
 30  1  1  0  0  0  0
 31 30  2  0  0  0  0
 32 33  2  0  0  0  0
 32 31  1  0  0  0  0
 33 34  1  0  0  0  0
 34 35  2  0  0  0  0
 36 31  1  0  0  0  0
 37 32  1  0  0  0  0
 38 39  2  0  0  0  0
 39 40  1  0  0  0  0
 39 45  1  0  0  0  0
 40 34  1  1  0  0  0
 40 41  1  0  0  0  0
 41 43  1  0  0  0  0
 41 42  1  0  0  0  0
 43 44  1  0  0  0  0
 45 43  1  0  0  0  0
 46 45  1  0  0  0  0
M  END
>  <minimizedAffinity>
-6.37505722

$$$$

 OpenBabel03272506033D

 46 49  0  0  1  0  0  0  0  0999 V2000
   37.9820   26.0200   32.8310 C   0  0  2  0  0  0  0  0  0  0  0  0
   37.7810   27.4180   32.4720 C   0  0  0  0  0  0  0  0  0  0  0  0
   36.3210   27.7150   32.0130 C   0  0  2  0  0  0  0  0  0  0  0  0
   35.8890   26.9210   30.8890 C   0  0  0  0  0  0  0  0  0  0  0  0
   36.3670   25.4720   30.9410 C   0  0  0  0  0  0  0  0  0  0  0  0
   36.8700   25.1080   32.3010 C   0  0  0  0  0  0  0  0  0  0  0  0
   38.9050   25.5980   32.3310 H   0  0  0  0  0  0  0  0  0  0  0  0
   38.3810   27.6380   31.5230 H   0  0  0  0  0  0  0  0  0  0  0  0
   38.0040   28.2330   33.1250 H   0  0  0  0  0  0  0  0  0  0  0  0
   35.6850   27.6050   32.9080 H   0  0  0  0  0  0  0  0  0  0  0  0
   36.2800   27.3170   29.9330 H   0  0  0  0  0  0  0  0  0  0  0  0
   34.7840   26.9890   30.7980 H   0  0  0  0  0  0  0  0  0  0  0  0
   37.0560   25.2110   30.1260 H   0  0  0  0  0  0  0  0  0  0  0  0
   35.4660   24.8440   30.7770 H   0  0  0  0  0  0  0  0  0  0  0  0
   37.2000   24.0570   32.2600 H   0  0  0  0  0  0  0  0  0  0  0  0
   36.0160   25.2110   33.0090 H   0  0  0  0  0  0  0  0  0  0  0  0
   35.4780   29.5660   34.1540 Cl  0  0  0  0  0  0  0  0  0  0  0  0
   35.9520   30.1210   32.5680 C   0  0  0  0  0  0  0  0  0  0  0  0
   36.3670   29.1700   31.6700 C   0  0  0  0  0  0  0  0  0  0  0  0
   36.7600   29.6950   30.4530 C   0  0  0  0  0  0  0  0  0  0  0  0
   36.7360   31.0450   30.1620 C   0  0  0  0  0  0  0  0  0  0  0  0
   36.2980   31.9490   31.1320 C   0  0  0  0  0  0  0  0  0  0  0  0
   35.8940   31.4600   32.3730 C   0  0  0  0  0  0  0  0  0  0  0  0
   37.1060   29.0100   29.6890 H   0  0  0  0  0  0  0  0  0  0  0  0
   37.0620   31.3570   29.1860 H   0  0  0  0  0  0  0  0  0  0  0  0
   36.2760   33.0060   30.9130 H   0  0  0  0  0  0  0  0  0  0  0  0
   35.4490   32.3810   33.3600 N   0  0  0  0  0  0  0  0  0  0  0  0
   35.9070   33.3200   33.4210 H   0  0  0  0  0  0  0  0  0  0  0  0
   34.6720   32.0990   34.0010 H   0  0  0  0  0  0  0  0  0  0  0  0
   38.1130   25.7300   34.2560 C   0  0  0  0  0  0  0  0  0  0  0  0
   38.2690   26.8520   35.0580 C   0  0  0  0  0  0  0  0  0  0  0  0
   38.3740   26.6860   36.4340 C   0  0  0  0  0  0  0  0  0  0  0  0
   38.3160   25.3870   36.9460 N   0  0  0  0  0  0  0  0  0  0  0  0
   38.1650   24.3250   36.1400 C   0  0  0  0  0  0  0  0  0  0  0  0
   38.0690   24.5380   34.8270 N   0  0  0  0  0  0  0  0  0  0  0  0
   38.3480   27.9240   34.9470 H   0  0  0  0  0  0  0  0  0  0  0  0
   38.4950   27.3570   37.2440 H   0  0  0  0  0  0  0  0  0  0  0  0
   37.4290   22.9780   39.0090 O   0  0  0  0  0  0  0  0  0  0  0  0
   38.3260   23.0230   38.1200 C   0  0  0  0  0  0  0  0  0  0  0  0
   38.1020   22.9420   36.6530 C   0  0  2  0  0  3  0  0  0  0  0  0
   39.3380   22.2080   36.1990 C   0  0  0  0  0  3  0  0  0  0  0  0
   39.5810   22.5720   35.1790 H   0  0  0  0  0  0  0  0  0  0  0  0
   40.4280   22.6080   37.1710 C   0  0  0  0  0  3  0  0  0  0  0  0
   41.0170   21.6990   37.4350 H   0  0  0  0  0  0  0  0  0  0  0  0
   39.7320   23.1590   38.3150 N   0  0  0  0  0  0  0  0  0  0  0  0
   40.2020   23.5780   39.1300 H   0  0  0  0  0  0  0  0  0  0  0  0
  1  7  1  6  0  0  0
  1 30  1  0  0  0  0
  2  1  1  0  0  0  0
  2  9  1  0  0  0  0
  3  2  1  0  0  0  0
  3 10  1  1  0  0  0
  4  5  1  0  0  0  0
  4  3  1  0  0  0  0
  5  6  1  0  0  0  0
  6  1  1  0  0  0  0
  6 16  1  0  0  0  0
  8  2  1  0  0  0  0
 11  4  1  0  0  0  0
 12  4  1  0  0  0  0
 13  5  1  0  0  0  0
 14  5  1  0  0  0  0
 15  6  1  0  0  0  0
 18 17  1  0  0  0  0
 19  3  1  0  0  0  0
 19 18  2  0  0  0  0
 20 19  1  0  0  0  0
 21 20  2  0  0  0  0
 21 22  1  0  0  0  0
 22 23  2  0  0  0  0
 23 18  1  0  0  0  0
 23 27  1  0  0  0  0
 24 20  1  0  0  0  0
 25 21  1  0  0  0  0
 26 22  1  0  0  0  0
 27 28  1  0  0  0  0
 27 29  1  0  0  0  0
 30 35  2  0  0  0  0
 30 31  1  0  0  0  0
 31 32  2  0  0  0  0
 32 33  1  0  0  0  0
 32 37  1  0  0  0  0
 34 33  2  0  0  0  0
 35 34  1  0  0  0  0
 36 31  1  0  0  0  0
 39 45  1  0  0  0  0
 39 38  2  0  0  0  0
 40 34  1  6  0  0  0
 40 39  1  0  0  0  0
 41 40  1  0  0  0  0
 41 43  1  0  0  0  0
 42 41  1  0  0  0  0
 43 44  1  0  0  0  0
 43 45  1  0  0  0  0
 45 46  1  0  0  0  0
M  END
>  <minimizedAffinity>
-6.28200293

$$$$

 OpenBabel03272506033D

 46 49  0  0  1  0  0  0  0  0999 V2000
   36.4490   28.8410   32.6680 C   0  0  2  0  0  0  0  0  0  0  0  0
   35.8200   29.4060   33.8540 C   0  0  0  0  0  0  0  0  0  0  0  0
   34.3330   29.8070   33.6120 C   0  0  2  0  0  0  0  0  0  0  0  0
   34.1510   30.7580   32.5420 C   0  0  0  0  0  0  0  0  0  0  0  0
   35.0550   30.5060   31.3380 C   0  0  0  0  0  0  0  0  0  0  0  0
   35.6660   29.1420   31.3840 C   0  0  0  0  0  0  0  0  0  0  0  0
   37.4490   29.3280   32.4640 H   0  0  0  0  0  0  0  0  0  0  0  0
   36.3080   30.4170   34.0780 H   0  0  0  0  0  0  0  0  0  0  0  0
   35.7890   28.9090   34.7990 H   0  0  0  0  0  0  0  0  0  0  0  0
   33.7750   28.8660   33.4710 H   0  0  0  0  0  0  0  0  0  0  0  0
   34.3870   31.7890   32.8660 H   0  0  0  0  0  0  0  0  0  0  0  0
   33.0790   30.7840   32.2550 H   0  0  0  0  0  0  0  0  0  0  0  0
   35.7800   31.3130   31.1600 H   0  0  0  0  0  0  0  0  0  0  0  0
   34.3910   30.5070   30.4480 H   0  0  0  0  0  0  0  0  0  0  0  0
   36.3040   29.0360   30.4920 H   0  0  0  0  0  0  0  0  0  0  0  0
   34.8320   28.4040   31.3460 H   0  0  0  0  0  0  0  0  0  0  0  0
   31.7280   28.8880   34.6550 Cl  0  0  0  0  0  0  0  0  0  0  0  0
   32.7090   30.0670   35.4900 C   0  0  0  0  0  0  0  0  0  0  0  0
   33.9210   30.3820   34.9300 C   0  0  0  0  0  0  0  0  0  0  0  0
   34.6510   31.2930   35.6710 C   0  0  0  0  0  0  0  0  0  0  0  0
   34.2070   31.8380   36.8600 C   0  0  0  0  0  0  0  0  0  0  0  0
   32.9580   31.4650   37.3620 C   0  0  0  0  0  0  0  0  0  0  0  0
   32.1910   30.5490   36.6450 C   0  0  0  0  0  0  0  0  0  0  0  0
   35.6230   31.5920   35.2990 H   0  0  0  0  0  0  0  0  0  0  0  0
   34.8470   32.5400   37.3640 H   0  0  0  0  0  0  0  0  0  0  0  0
   32.6030   31.8870   38.2900 H   0  0  0  0  0  0  0  0  0  0  0  0
   30.9210   30.1690   37.1580 N   0  0  0  0  0  0  0  0  0  0  0  0
   30.7970   30.0830   38.1940 H   0  0  0  0  0  0  0  0  0  0  0  0
   30.1390   29.9860   36.4880 H   0  0  0  0  0  0  0  0  0  0  0  0
   36.6840   27.4000   32.6820 C   0  0  0  0  0  0  0  0  0  0  0  0
   36.2190   26.7330   31.5570 C   0  0  0  0  0  0  0  0  0  0  0  0
   36.4200   25.3600   31.4600 C   0  0  0  0  0  0  0  0  0  0  0  0
   37.0830   24.7160   32.5070 N   0  0  0  0  0  0  0  0  0  0  0  0
   37.5180   25.3940   33.5800 C   0  0  0  0  0  0  0  0  0  0  0  0
   37.3010   26.7100   33.6260 N   0  0  0  0  0  0  0  0  0  0  0  0
   35.6950   26.9560   30.6390 H   0  0  0  0  0  0  0  0  0  0  0  0
   36.1710   24.6360   30.7280 H   0  0  0  0  0  0  0  0  0  0  0  0
   38.2800   26.2620   36.6220 O   0  0  0  0  0  0  0  0  0  0  0  0
   38.7800   25.8300   35.5450 C   0  0  0  0  0  0  0  0  0  0  0  0
   38.2210   24.7400   34.7020 C   0  0  2  0  0  3  0  0  0  0  0  0
   39.4770   24.0990   34.1680 C   0  0  0  0  0  3  0  0  0  0  0  0
   39.2410   23.7050   33.1580 H   0  0  0  0  0  0  0  0  0  0  0  0
   40.4940   25.2160   34.0720 C   0  0  0  0  0  3  0  0  0  0  0  0
   41.4740   24.8350   34.4430 H   0  0  0  0  0  0  0  0  0  0  0  0
   39.9700   26.2800   34.9030 N   0  0  0  0  0  0  0  0  0  0  0  0
   40.4090   27.2070   34.9970 H   0  0  0  0  0  0  0  0  0  0  0  0
  1  7  1  6  0  0  0
  1 30  1  0  0  0  0
  1  2  1  0  0  0  0
  2  8  1  0  0  0  0
  2  9  1  0  0  0  0
  3 10  1  6  0  0  0
  3  2  1  0  0  0  0
  3 19  1  0  0  0  0
  4 11  1  0  0  0  0
  4  3  1  0  0  0  0
  5  6  1  0  0  0  0
  5  4  1  0  0  0  0
  6  1  1  0  0  0  0
 12  4  1  0  0  0  0
 13  5  1  0  0  0  0
 14  5  1  0  0  0  0
 15  6  1  0  0  0  0
 16  6  1  0  0  0  0
 17 18  1  0  0  0  0
 18 23  1  0  0  0  0
 19 18  2  0  0  0  0
 19 20  1  0  0  0  0
 20 21  2  0  0  0  0
 21 22  1  0  0  0  0
 21 25  1  0  0  0  0
 22 26  1  0  0  0  0
 23 27  1  0  0  0  0
 23 22  2  0  0  0  0
 24 20  1  0  0  0  0
 27 28  1  0  0  0  0
 29 27  1  0  0  0  0
 30 35  1  0  0  0  0
 31 30  2  0  0  0  0
 32 31  1  0  0  0  0
 32 33  2  0  0  0  0
 33 34  1  0  0  0  0
 34 35  2  0  0  0  0
 36 31  1  0  0  0  0
 37 32  1  0  0  0  0
 39 38  2  0  0  0  0
 40 34  1  6  0  0  0
 40 39  1  0  0  0  0
 41 40  1  0  0  0  0
 42 41  1  0  0  0  0
 43 41  1  0  0  0  0
 43 44  1  0  0  0  0
 43 45  1  0  0  0  0
 45 46  1  0  0  0  0
 45 39  1  0  0  0  0
M  END
>  <minimizedAffinity>
-6.26312971

$$$$

 OpenBabel03272506033D

 46 49  0  0  1  0  0  0  0  0999 V2000
   38.2230   25.1830   31.9940 C   0  0  2  0  0  0  0  0  0  0  0  0
   37.9650   26.5900   31.7180 C   0  0  0  0  0  0  0  0  0  0  0  0
   36.4940   27.0030   32.0280 C   0  0  2  0  0  0  0  0  0  0  0  0
   35.5080   26.2400   31.3010 C   0  0  0  0  0  0  0  0  0  0  0  0
   35.8490   24.7570   31.1760 C   0  0  0  0  0  0  0  0  0  0  0  0
   36.9350   24.3610   32.1250 C   0  0  0  0  0  0  0  0  0  0  0  0
   38.7440   24.6840   31.1230 H   0  0  0  0  0  0  0  0  0  0  0  0
   38.0280   26.7550   30.5880 H   0  0  0  0  0  0  0  0  0  0  0  0
   38.5370   27.3880   32.1380 H   0  0  0  0  0  0  0  0  0  0  0  0
   36.3790   26.9500   33.1240 H   0  0  0  0  0  0  0  0  0  0  0  0
   35.3990   26.5980   30.2600 H   0  0  0  0  0  0  0  0  0  0  0  0
   34.5110   26.3970   31.7650 H   0  0  0  0  0  0  0  0  0  0  0  0
   36.0230   24.4360   30.1400 H   0  0  0  0  0  0  0  0  0  0  0  0
   34.9450   24.2040   31.5070 H   0  0  0  0  0  0  0  0  0  0  0  0
   37.1280   23.2870   31.9740 H   0  0  0  0  0  0  0  0  0  0  0  0
   36.5540   24.5380   33.1570 H   0  0  0  0  0  0  0  0  0  0  0  0
   35.6740   28.8830   34.1530 Cl  0  0  0  0  0  0  0  0  0  0  0  0
   36.0490   29.4070   32.5300 C   0  0  0  0  0  0  0  0  0  0  0  0
   36.4620   28.4470   31.6410 C   0  0  0  0  0  0  0  0  0  0  0  0
   36.7750   28.9510   30.3910 C   0  0  0  0  0  0  0  0  0  0  0  0
   36.6800   30.2890   30.0630 C   0  0  0  0  0  0  0  0  0  0  0  0
   36.2500   31.2030   31.0270 C   0  0  0  0  0  0  0  0  0  0  0  0
   35.9260   30.7360   32.3000 C   0  0  0  0  0  0  0  0  0  0  0  0
   37.1140   28.2570   29.6320 H   0  0  0  0  0  0  0  0  0  0  0  0
   36.9460   30.5840   29.0640 H   0  0  0  0  0  0  0  0  0  0  0  0
   36.1730   32.2510   30.7790 H   0  0  0  0  0  0  0  0  0  0  0  0
   35.4890   31.6690   33.2800 N   0  0  0  0  0  0  0  0  0  0  0  0
   35.9090   32.6270   33.2920 H   0  0  0  0  0  0  0  0  0  0  0  0
   34.7560   31.3750   33.9660 H   0  0  0  0  0  0  0  0  0  0  0  0
   39.0230   24.8910   33.1800 C   0  0  0  0  0  0  0  0  0  0  0  0
   40.0570   25.7890   33.4080 C   0  0  0  0  0  0  0  0  0  0  0  0
   40.8620   25.6160   34.5290 C   0  0  0  0  0  0  0  0  0  0  0  0
   40.5870   24.5400   35.3760 N   0  0  0  0  0  0  0  0  0  0  0  0
   39.5790   23.6910   35.1230 C   0  0  0  0  0  0  0  0  0  0  0  0
   38.8360   23.9000   34.0350 N   0  0  0  0  0  0  0  0  0  0  0  0
   40.4870   26.6670   32.9480 H   0  0  0  0  0  0  0  0  0  0  0  0
   41.6920   26.1440   34.9210 H   0  0  0  0  0  0  0  0  0  0  0  0
   37.0760   21.6280   35.3900 O   0  0  0  0  0  0  0  0  0  0  0  0
   37.7840   22.4410   36.0500 C   0  0  0  0  0  0  0  0  0  0  0  0
   39.2670   22.5450   35.9990 C   0  0  2  0  0  3  0  0  0  0  0  0
   39.5900   22.9290   37.4210 C   0  0  0  0  0  3  0  0  0  0  0  0
   40.4980   23.5670   37.3900 H   0  0  0  0  0  0  0  0  0  0  0  0
   38.4010   23.7310   37.9060 C   0  0  0  0  0  3  0  0  0  0  0  0
   38.1590   23.4110   38.9460 H   0  0  0  0  0  0  0  0  0  0  0  0
   37.3340   23.4270   36.9760 N   0  0  0  0  0  0  0  0  0  0  0  0
   36.4030   23.8680   37.0020 H   0  0  0  0  0  0  0  0  0  0  0  0
  1  7  1  6  0  0  0
  1  6  1  0  0  0  0
  1 30  1  0  0  0  0
  2  1  1  0  0  0  0
  2  3  1  0  0  0  0
  2  9  1  0  0  0  0
  3 10  1  1  0  0  0
  4 12  1  0  0  0  0
  4  3  1  0  0  0  0
  5  4  1  0  0  0  0
  5 14  1  0  0  0  0
  5  6  1  0  0  0  0
  6 16  1  0  0  0  0
  8  2  1  0  0  0  0
 11  4  1  0  0  0  0
 13  5  1  0  0  0  0
 15  6  1  0  0  0  0
 18 17  1  0  0  0  0
 19  3  1  0  0  0  0
 19 18  2  0  0  0  0
 20 19  1  0  0  0  0
 21 20  2  0  0  0  0
 21 22  1  0  0  0  0
 22 23  2  0  0  0  0
 23 18  1  0  0  0  0
 23 27  1  0  0  0  0
 24 20  1  0  0  0  0
 25 21  1  0  0  0  0
 26 22  1  0  0  0  0
 27 28  1  0  0  0  0
 27 29  1  0  0  0  0
 30 31  2  0  0  0  0
 30 35  1  0  0  0  0
 31 32  1  0  0  0  0
 32 37  1  0  0  0  0
 32 33  2  0  0  0  0
 34 33  1  0  0  0  0
 35 34  2  0  0  0  0
 36 31  1  0  0  0  0
 38 39  2  0  0  0  0
 39 45  1  0  0  0  0
 40 34  1  6  0  0  0
 40 39  1  0  0  0  0
 40 41  1  0  0  0  0
 41 43  1  0  0  0  0
 42 41  1  0  0  0  0
 43 44  1  0  0  0  0
 45 46  1  0  0  0  0
 45 43  1  0  0  0  0
M  END
>  <minimizedAffinity>
-6.10380793

$$$$

 OpenBabel03272506033D

 46 49  0  0  1  0  0  0  0  0999 V2000
   36.5870   28.6680   33.0060 C   0  0  2  0  0  0  0  0  0  0  0  0
   35.8920   29.3180   34.1090 C   0  0  0  0  0  0  0  0  0  0  0  0
   34.3860   29.5770   33.7990 C   0  0  2  0  0  0  0  0  0  0  0  0
   34.1610   30.3820   32.6220 C   0  0  0  0  0  0  0  0  0  0  0  0
   35.1090   30.0590   31.4690 C   0  0  0  0  0  0  0  0  0  0  0  0
   35.8150   28.7590   31.6850 C   0  0  0  0  0  0  0  0  0  0  0  0
   37.5540   29.2010   32.7620 H   0  0  0  0  0  0  0  0  0  0  0  0
   36.3000   30.3810   34.2190 H   0  0  0  0  0  0  0  0  0  0  0  0
   35.8740   28.9330   35.1050 H   0  0  0  0  0  0  0  0  0  0  0  0
   33.9000   28.5870   33.7620 H   0  0  0  0  0  0  0  0  0  0  0  0
   34.3140   31.4580   32.8260 H   0  0  0  0  0  0  0  0  0  0  0  0
   33.0970   30.2950   32.3190 H   0  0  0  0  0  0  0  0  0  0  0  0
   35.7770   30.8920   31.2090 H   0  0  0  0  0  0  0  0  0  0  0  0
   34.4670   29.9070   30.5760 H   0  0  0  0  0  0  0  0  0  0  0  0
   36.4790   28.5970   30.8210 H   0  0  0  0  0  0  0  0  0  0  0  0
   35.0370   27.9610   31.7210 H   0  0  0  0  0  0  0  0  0  0  0  0
   31.6940   28.8020   34.7350 Cl  0  0  0  0  0  0  0  0  0  0  0  0
   32.6490   30.0260   35.5350 C   0  0  0  0  0  0  0  0  0  0  0  0
   33.9030   30.2690   35.0340 C   0  0  0  0  0  0  0  0  0  0  0  0
   34.6060   31.2240   35.7460 C   0  0  0  0  0  0  0  0  0  0  0  0
   34.0980   31.8760   36.8520 C   0  0  0  0  0  0  0  0  0  0  0  0
   32.8100   31.5720   37.2970 C   0  0  0  0  0  0  0  0  0  0  0  0
   32.0690   30.6140   36.6090 C   0  0  0  0  0  0  0  0  0  0  0  0
   35.6080   31.4710   35.4170 H   0  0  0  0  0  0  0  0  0  0  0  0
   34.7220   32.6040   37.3390 H   0  0  0  0  0  0  0  0  0  0  0  0
   32.4060   32.0770   38.1620 H   0  0  0  0  0  0  0  0  0  0  0  0
   30.7580   30.3050   37.0640 N   0  0  0  0  0  0  0  0  0  0  0  0
   30.5640   30.3080   38.0920 H   0  0  0  0  0  0  0  0  0  0  0  0
   30.0170   30.0820   36.3600 H   0  0  0  0  0  0  0  0  0  0  0  0
   36.9250   27.2590   33.1930 C   0  0  0  0  0  0  0  0  0  0  0  0
   37.4970   26.9660   34.4240 C   0  0  0  0  0  0  0  0  0  0  0  0
   37.8300   25.6480   34.7130 C   0  0  0  0  0  0  0  0  0  0  0  0
   37.5680   24.6760   33.7440 N   0  0  0  0  0  0  0  0  0  0  0  0
   37.0140   24.9960   32.5640 C   0  0  0  0  0  0  0  0  0  0  0  0
   36.7130   26.2760   32.3360 N   0  0  0  0  0  0  0  0  0  0  0  0
   37.8040   27.4850   35.3210 H   0  0  0  0  0  0  0  0  0  0  0  0
   38.2640   25.1710   35.5520 H   0  0  0  0  0  0  0  0  0  0  0  0
   36.2580   21.8310   32.5820 O   0  0  0  0  0  0  0  0  0  0  0  0
   37.0760   22.6670   32.1020 C   0  0  0  0  0  0  0  0  0  0  0  0
   36.7270   23.9910   31.5220 C   0  0  2  0  0  3  0  0  0  0  0  0
   37.7620   24.1250   30.4340 C   0  0  0  0  0  3  0  0  0  0  0  0
   37.9910   25.2060   30.3280 H   0  0  0  0  0  0  0  0  0  0  0  0
   38.9800   23.3790   30.9370 C   0  0  0  0  0  3  0  0  0  0  0  0
   39.4040   22.7850   30.0950 H   0  0  0  0  0  0  0  0  0  0  0  0
   38.4920   22.5370   32.0090 N   0  0  0  0  0  0  0  0  0  0  0  0
   39.0960   21.9450   32.5980 H   0  0  0  0  0  0  0  0  0  0  0  0
  1  7  1  6  0  0  0
  1 30  1  0  0  0  0
  1  2  1  0  0  0  0
  2  8  1  0  0  0  0
  2  9  1  0  0  0  0
  3 10  1  6  0  0  0
  3  2  1  0  0  0  0
  3 19  1  0  0  0  0
  4 11  1  0  0  0  0
  4  3  1  0  0  0  0
  5  6  1  0  0  0  0
  5  4  1  0  0  0  0
  6 16  1  0  0  0  0
  6  1  1  0  0  0  0
 12  4  1  0  0  0  0
 13  5  1  0  0  0  0
 14  5  1  0  0  0  0
 15  6  1  0  0  0  0
 17 18  1  0  0  0  0
 18 23  1  0  0  0  0
 19 18  2  0  0  0  0
 19 20  1  0  0  0  0
 20 21  2  0  0  0  0
 21 22  1  0  0  0  0
 21 25  1  0  0  0  0
 22 26  1  0  0  0  0
 23 27  1  0  0  0  0
 23 22  2  0  0  0  0
 24 20  1  0  0  0  0
 27 28  1  0  0  0  0
 29 27  1  0  0  0  0
 30 31  1  0  0  0  0
 31 32  2  0  0  0  0
 31 36  1  0  0  0  0
 32 37  1  0  0  0  0
 33 32  1  0  0  0  0
 34 33  2  0  0  0  0
 35 34  1  0  0  0  0
 35 30  2  0  0  0  0
 39 38  2  0  0  0  0
 40 39  1  0  0  0  0
 40 34  1  1  0  0  0
 41 43  1  0  0  0  0
 41 40  1  0  0  0  0
 42 41  1  0  0  0  0
 43 45  1  0  0  0  0
 44 43  1  0  0  0  0
 45 39  1  0  0  0  0
 45 46  1  0  0  0  0
M  END
>  <minimizedAffinity>
-6.09938478

$$$$

 OpenBabel03272506033D

 46 49  0  0  1  0  0  0  0  0999 V2000
   41.2050   26.8060   33.9860 C   0  0  2  0  0  0  0  0  0  0  0  0
   40.7440   27.5590   32.8270 C   0  0  0  0  0  0  0  0  0  0  0  0
   40.9810   26.8000   31.4860 C   0  0  2  0  0  0  0  0  0  0  0  0
   42.3620   26.4550   31.2460 C   0  0  0  0  0  0  0  0  0  0  0  0
   43.1050   25.9950   32.4980 C   0  0  0  0  0  0  0  0  0  0  0  0
   42.1610   25.6680   33.6090 C   0  0  0  0  0  0  0  0  0  0  0  0
   41.8450   27.4490   34.6620 H   0  0  0  0  0  0  0  0  0  0  0  0
   41.4110   28.4800   32.7030 H   0  0  0  0  0  0  0  0  0  0  0  0
   39.7480   27.9320   32.7240 H   0  0  0  0  0  0  0  0  0  0  0  0
   40.3000   25.9320   31.4930 H   0  0  0  0  0  0  0  0  0  0  0  0
   42.9400   27.3200   30.8700 H   0  0  0  0  0  0  0  0  0  0  0  0
   42.4130   25.7000   30.4340 H   0  0  0  0  0  0  0  0  0  0  0  0
   43.9230   26.6690   32.7910 H   0  0  0  0  0  0  0  0  0  0  0  0
   43.5970   25.0370   32.2290 H   0  0  0  0  0  0  0  0  0  0  0  0
   42.7660   25.3510   34.4740 H   0  0  0  0  0  0  0  0  0  0  0  0
   41.5210   24.8240   33.2630 H   0  0  0  0  0  0  0  0  0  0  0  0
   38.1290   26.5260   30.7730 Cl  0  0  0  0  0  0  0  0  0  0  0  0
   39.1760   27.6990   30.0150 C   0  0  0  0  0  0  0  0  0  0  0  0
   40.4720   27.7630   30.4610 C   0  0  0  0  0  0  0  0  0  0  0  0
   41.2230   28.7410   29.8360 C   0  0  0  0  0  0  0  0  0  0  0  0
   40.7230   29.5750   28.8550 C   0  0  0  0  0  0  0  0  0  0  0  0
   39.3920   29.4440   28.4560 C   0  0  0  0  0  0  0  0  0  0  0  0
   38.6000   28.4710   29.0620 C   0  0  0  0  0  0  0  0  0  0  0  0
   42.2570   28.8600   30.1340 H   0  0  0  0  0  0  0  0  0  0  0  0
   41.3860   30.3060   28.4280 H   0  0  0  0  0  0  0  0  0  0  0  0
   38.9930   30.0920   27.6900 H   0  0  0  0  0  0  0  0  0  0  0  0
   37.2440   28.3400   28.6550 N   0  0  0  0  0  0  0  0  0  0  0  0
   36.7060   29.2000   28.3970 H   0  0  0  0  0  0  0  0  0  0  0  0
   36.8160   27.3860   28.6220 H   0  0  0  0  0  0  0  0  0  0  0  0
   40.1700   26.2170   34.8300 C   0  0  0  0  0  0  0  0  0  0  0  0
   39.3370   27.1420   35.4440 C   0  0  0  0  0  0  0  0  0  0  0  0
   38.2990   26.6820   36.2480 C   0  0  0  0  0  0  0  0  0  0  0  0
   38.1460   25.3010   36.3980 N   0  0  0  0  0  0  0  0  0  0  0  0
   38.9720   24.4360   35.7890 C   0  0  0  0  0  0  0  0  0  0  0  0
   39.9510   24.9280   35.0290 N   0  0  0  0  0  0  0  0  0  0  0  0
   39.2230   28.2140   35.5110 H   0  0  0  0  0  0  0  0  0  0  0  0
   37.5440   27.1630   36.8130 H   0  0  0  0  0  0  0  0  0  0  0  0
   36.8080   22.4660   37.2120 O   0  0  0  0  0  0  0  0  0  0  0  0
   38.0400   22.7390   37.1650 C   0  0  0  0  0  0  0  0  0  0  0  0
   38.8340   22.9730   35.9300 C   0  0  2  0  0  3  0  0  0  0  0  0
   40.1740   22.4040   36.3210 C   0  0  0  0  0  3  0  0  0  0  0  0
   40.9500   22.9920   35.7860 H   0  0  0  0  0  0  0  0  0  0  0  0
   40.2890   22.6220   37.8150 C   0  0  0  0  0  3  0  0  0  0  0  0
   40.7160   21.7010   38.2750 H   0  0  0  0  0  0  0  0  0  0  0  0
   38.9370   22.8820   38.2640 N   0  0  0  0  0  0  0  0  0  0  0  0
   38.6890   23.1300   39.2330 H   0  0  0  0  0  0  0  0  0  0  0  0
  1  7  1  1  0  0  0
  1 30  1  0  0  0  0
  2  1  1  0  0  0  0
  3 10  1  6  0  0  0
  3  2  1  0  0  0  0
  4  3  1  0  0  0  0
  4  5  1  0  0  0  0
  5 13  1  0  0  0  0
  5  6  1  0  0  0  0
  6  1  1  0  0  0  0
  6 15  1  0  0  0  0
  8  2  1  0  0  0  0
  9  2  1  0  0  0  0
 11  4  1  0  0  0  0
 12  4  1  0  0  0  0
 14  5  1  0  0  0  0
 16  6  1  0  0  0  0
 18 19  1  0  0  0  0
 18 17  1  0  0  0  0
 19  3  1  0  0  0  0
 20 24  1  0  0  0  0
 20 19  2  0  0  0  0
 21 20  1  0  0  0  0
 22 21  2  0  0  0  0
 22 23  1  0  0  0  0
 23 18  2  0  0  0  0
 25 21  1  0  0  0  0
 26 22  1  0  0  0  0
 27 23  1  0  0  0  0
 28 27  1  0  0  0  0
 29 27  1  0  0  0  0
 30 35  2  0  0  0  0
 30 31  1  0  0  0  0
 31 36  1  0  0  0  0
 31 32  2  0  0  0  0
 32 33  1  0  0  0  0
 32 37  1  0  0  0  0
 34 33  2  0  0  0  0
 35 34  1  0  0  0  0
 39 38  2  0  0  0  0
 39 45  1  0  0  0  0
 40 34  1  1  0  0  0
 40 41  1  0  0  0  0
 40 39  1  0  0  0  0
 41 43  1  0  0  0  0
 42 41  1  0  0  0  0
 43 45  1  0  0  0  0
 43 44  1  0  0  0  0
 45 46  1  0  0  0  0
M  END
>  <minimizedAffinity>
-6.08545542

$$$$
