
 OpenBabel03272503403D

 41 44  0  0  1  0  0  0  0  0999 V2000
   39.9270   31.1520   41.8310 C   0  0  2  0  0  0  0  0  0  0  0  0
   39.6580   32.3170   42.7540 C   0  0  1  0  0  0  0  0  0  0  0  0
   38.4330   32.8750   42.0580 C   0  0  0  0  0  0  0  0  0  0  0  0
   38.5930   32.6850   40.7060 O   0  0  0  0  0  0  0  0  0  0  0  0
   39.6590   31.8690   40.4940 C   0  0  0  0  0  0  0  0  0  0  0  0
   40.9280   30.7370   41.8520 H   0  0  0  0  0  0  0  0  0  0  0  0
   40.4410   33.0700   42.7440 H   0  0  0  0  0  0  0  0  0  0  0  0
   38.2900   33.9360   42.2820 H   0  0  0  0  0  0  0  0  0  0  0  0
   37.5670   32.2470   42.3870 H   0  0  0  0  0  0  0  0  0  0  0  0
   40.5560   32.5040   40.3240 H   0  0  0  0  0  0  0  0  0  0  0  0
   39.6010   31.1660   39.6620 H   0  0  0  0  0  0  0  0  0  0  0  0
   38.3990   31.2290   45.9320 C   0  0  0  0  0  0  0  0  0  0  0  0
   39.7250   31.1580   46.1690 C   0  0  0  0  0  0  0  0  0  0  0  0
   40.3120   31.5700   44.9700 C   0  0  0  0  0  0  0  0  0  0  0  0
   39.3510   31.8640   44.0840 N   0  0  0  0  0  0  0  0  0  0  0  0
   38.1660   31.6590   44.6640 N   0  0  0  0  0  0  0  0  0  0  0  0
   40.1880   30.8420   47.1060 H   0  0  0  0  0  0  0  0  0  0  0  0
   41.3990   31.6250   44.8310 H   0  0  0  0  0  0  0  0  0  0  0  0
   36.4830   30.6360   49.1090 C   0  0  0  0  0  0  0  0  0  0  0  0
   37.4980   30.9660   48.2430 C   0  0  0  0  0  0  0  0  0  0  0  0
   37.3540   30.8930   46.8830 C   0  0  0  0  0  0  0  0  0  0  0  0
   36.1360   30.4690   46.4320 N   0  0  0  0  0  0  0  0  0  0  0  0
   35.1370   30.1460   47.3030 C   0  0  0  0  0  0  0  0  0  0  0  0
   35.3020   30.2250   48.6110 N   0  0  0  0  0  0  0  0  0  0  0  0
   38.4910   31.3100   48.5660 H   0  0  0  0  0  0  0  0  0  0  0  0
   34.1870   29.8160   46.9580 H   0  0  0  0  0  0  0  0  0  0  0  0
   36.8250   30.7770   50.4490 O   0  0  0  0  0  0  0  0  0  0  0  0
   36.8770   29.7090   51.3590 C   0  0  0  0  0  0  0  0  0  0  0  0
   35.6080   29.2170   51.6640 F   0  0  0  0  0  0  0  0  0  0  0  0
   37.5290   30.1000   52.4860 F   0  0  0  0  0  0  0  0  0  0  0  0
   37.6020   28.6720   50.7790 F   0  0  0  0  0  0  0  0  0  0  0  0
   38.9220   30.2030   42.0280 O   0  0  0  0  0  0  0  0  0  0  0  0
   39.9130   27.1820   42.6530 O   0  0  0  0  0  0  0  0  0  0  0  0
   39.4020   27.9300   41.7510 C   0  0  0  0  0  0  0  0  0  0  0  0
   38.9920   29.1810   41.0900 C   0  0  1  0  0  3  0  0  0  0  0  0
   37.5800   28.8210   40.6350 C   0  0  0  0  0  3  0  0  0  0  0  0
   37.1730   29.4880   39.8790 H   0  0  0  0  0  0  0  0  0  0  0  0
   37.8150   27.4690   39.9470 C   0  0  0  0  0  3  0  0  0  0  0  0
   38.0980   27.6900   38.9130 H   0  0  0  0  0  0  0  0  0  0  0  0
   38.9280   26.9870   40.7520 N   0  0  0  0  0  0  0  0  0  0  0  0
   39.1060   26.0180   40.3710 H   0  0  0  0  0  0  0  0  0  0  0  0
  1  6  1  1  0  0  0
  1 32  1  0  0  0  0
  1  2  1  0  0  0  0
  2  7  1  6  0  0  0
  2 15  1  0  0  0  0
  3  8  1  0  0  0  0
  3  9  1  0  0  0  0
  3  2  1  0  0  0  0
  4  3  1  0  0  0  0
  5  4  1  0  0  0  0
  5  1  1  0  0  0  0
 10  5  1  0  0  0  0
 11  5  1  0  0  0  0
 12 13  1  0  0  0  0
 12 21  1  0  0  0  0
 13 17  1  0  0  0  0
 14 13  2  0  0  0  0
 15 16  1  0  0  0  0
 15 14  1  0  0  0  0
 16 12  2  0  0  0  0
 18 14  1  0  0  0  0
 19 27  1  0  0  0  0
 20 25  1  0  0  0  0
 20 19  2  0  0  0  0
 21 20  1  0  0  0  0
 22 21  2  0  0  0  0
 22 23  1  0  0  0  0
 23 24  2  0  0  0  0
 24 19  1  0  0  0  0
 26 23  1  0  0  0  0
 27 28  1  0  0  0  0
 28 29  1  0  0  0  0
 28 30  1  0  0  0  0
 31 28  1  0  0  0  0
 34 33  2  0  0  0  0
 35 34  1  0  0  0  0
 35 32  1  1  0  0  0
 36 35  1  0  0  0  0
 37 36  1  0  0  0  0
 38 36  1  0  0  0  0
 38 40  1  0  0  0  0
 39 38  1  0  0  0  0
 40 34  1  0  0  0  0
 41 40  1  0  0  0  0
M  END
>  <minimizedAffinity>
-5.99185896

>  <minimizedRMSD>
1.08758879

$$$$
