
 OpenBabel03272503403D

 41 44  0  0  1  0  0  0  0  0999 V2000
   39.7380   31.1820   41.7170 C   0  0  2  0  0  0  0  0  0  0  0  0
   39.6150   32.3140   42.7090 C   0  0  1  0  0  0  0  0  0  0  0  0
   38.4230   33.0210   42.0950 C   0  0  0  0  0  0  0  0  0  0  0  0
   38.5140   32.8920   40.7300 O   0  0  0  0  0  0  0  0  0  0  0  0
   39.4890   31.9940   40.4320 C   0  0  0  0  0  0  0  0  0  0  0  0
   40.6960   30.6770   41.6740 H   0  0  0  0  0  0  0  0  0  0  0  0
   40.4650   32.9920   42.7050 H   0  0  0  0  0  0  0  0  0  0  0  0
   38.3900   34.0770   42.3800 H   0  0  0  0  0  0  0  0  0  0  0  0
   37.5150   32.4580   42.4290 H   0  0  0  0  0  0  0  0  0  0  0  0
   40.4350   32.5520   40.2560 H   0  0  0  0  0  0  0  0  0  0  0  0
   39.3340   31.3460   39.5670 H   0  0  0  0  0  0  0  0  0  0  0  0
   38.3790   31.1620   45.8730 C   0  0  0  0  0  0  0  0  0  0  0  0
   39.7020   30.9880   46.0630 C   0  0  0  0  0  0  0  0  0  0  0  0
   40.2810   31.4170   44.8660 C   0  0  0  0  0  0  0  0  0  0  0  0
   39.3170   31.8190   44.0270 N   0  0  0  0  0  0  0  0  0  0  0  0
   38.1380   31.6680   44.6350 N   0  0  0  0  0  0  0  0  0  0  0  0
   40.1690   30.5950   46.9670 H   0  0  0  0  0  0  0  0  0  0  0  0
   41.3640   31.4030   44.6930 H   0  0  0  0  0  0  0  0  0  0  0  0
   36.4980   30.6290   49.0810 C   0  0  0  0  0  0  0  0  0  0  0  0
   37.5060   30.9330   48.1990 C   0  0  0  0  0  0  0  0  0  0  0  0
   37.3410   30.8530   46.8420 C   0  0  0  0  0  0  0  0  0  0  0  0
   36.1090   30.4490   46.4110 N   0  0  0  0  0  0  0  0  0  0  0  0
   35.1160   30.1510   47.2990 C   0  0  0  0  0  0  0  0  0  0  0  0
   35.3020   30.2360   48.6040 N   0  0  0  0  0  0  0  0  0  0  0  0
   38.5100   31.2600   48.5050 H   0  0  0  0  0  0  0  0  0  0  0  0
   34.1560   29.8370   46.9700 H   0  0  0  0  0  0  0  0  0  0  0  0
   36.8620   30.7720   50.4150 O   0  0  0  0  0  0  0  0  0  0  0  0
   36.9080   29.7100   51.3330 C   0  0  0  0  0  0  0  0  0  0  0  0
   35.6350   29.2400   51.6560 F   0  0  0  0  0  0  0  0  0  0  0  0
   37.5800   30.0970   52.4480 F   0  0  0  0  0  0  0  0  0  0  0  0
   37.6100   28.6570   50.7500 F   0  0  0  0  0  0  0  0  0  0  0  0
   38.6560   30.3210   41.9080 O   0  0  0  0  0  0  0  0  0  0  0  0
   41.6850   29.2200   42.2460 O   0  0  0  0  0  0  0  0  0  0  0  0
   40.4710   28.8550   42.0890 C   0  0  0  0  0  0  0  0  0  0  0  0
   39.0340   28.9900   41.7860 C   0  0  1  0  0  3  0  0  0  0  0  0
   38.4180   28.1890   42.9300 C   0  0  0  0  0  3  0  0  0  0  0  0
   37.3800   27.9080   42.7690 H   0  0  0  0  0  0  0  0  0  0  0  0
   39.2360   26.8910   42.8720 C   0  0  0  0  0  3  0  0  0  0  0  0
   38.7410   26.2420   42.1420 H   0  0  0  0  0  0  0  0  0  0  0  0
   40.4990   27.4320   42.3880 N   0  0  0  0  0  0  0  0  0  0  0  0
   41.1410   26.5930   42.3830 H   0  0  0  0  0  0  0  0  0  0  0  0
  1  6  1  1  0  0  0
  1 32  1  0  0  0  0
  1  2  1  0  0  0  0
  2  7  1  6  0  0  0
  2 15  1  0  0  0  0
  3  8  1  0  0  0  0
  3  9  1  0  0  0  0
  3  2  1  0  0  0  0
  4  3  1  0  0  0  0
  5  4  1  0  0  0  0
  5  1  1  0  0  0  0
 10  5  1  0  0  0  0
 11  5  1  0  0  0  0
 12 13  1  0  0  0  0
 12 21  1  0  0  0  0
 13 17  1  0  0  0  0
 14 13  2  0  0  0  0
 15 16  1  0  0  0  0
 15 14  1  0  0  0  0
 16 12  2  0  0  0  0
 18 14  1  0  0  0  0
 19 27  1  0  0  0  0
 20 25  1  0  0  0  0
 20 19  2  0  0  0  0
 21 20  1  0  0  0  0
 22 21  2  0  0  0  0
 22 23  1  0  0  0  0
 23 24  2  0  0  0  0
 24 19  1  0  0  0  0
 26 23  1  0  0  0  0
 27 28  1  0  0  0  0
 28 29  1  0  0  0  0
 28 30  1  0  0  0  0
 31 28  1  0  0  0  0
 34 33  2  0  0  0  0
 34 40  1  0  0  0  0
 35 32  1  1  0  0  0
 35 34  1  0  0  0  0
 35 36  1  0  0  0  0
 37 36  1  0  0  0  0
 38 36  1  0  0  0  0
 39 38  1  0  0  0  0
 40 38  1  0  0  0  0
 41 40  1  0  0  0  0
M  END
>  <minimizedAffinity>
-6.68343306

>  <minimizedRMSD>
0.465693444

$$$$
