
 OpenBabel03262522273D

 46 49  0  0  1  0  0  0  0  0999 V2000
   36.7750   30.0540   49.9660 S   0  0  0  0  0  0  0  0  0  0  0  0
   39.0110   32.7890   48.0210 C   0  0  0  0  0  0  0  0  0  0  0  0
   39.2510   32.1380   46.8110 C   0  0  0  0  0  0  0  0  0  0  0  0
   38.7110   30.8900   46.6570 C   0  0  0  0  0  0  0  0  0  0  0  0
   37.9830   30.3660   47.6800 N   0  0  0  0  0  0  0  0  0  0  0  0
   37.7790   31.0010   48.8000 C   0  0  0  0  0  0  0  0  0  0  0  0
   38.2910   32.2580   49.0210 N   0  0  0  0  0  0  0  0  0  0  0  0
   39.4170   33.7920   48.2060 H   0  0  0  0  0  0  0  0  0  0  0  0
   38.8940   30.3890   45.7290 H   0  0  0  0  0  0  0  0  0  0  0  0
   39.9980   32.7760   45.8670 O   0  0  0  0  0  0  0  0  0  0  0  0
   40.0470   32.2770   44.5860 C   0  0  0  0  0  0  0  0  0  0  0  0
   40.6390   31.1230   44.1450 C   0  0  0  0  0  0  0  0  0  0  0  0
   40.5840   30.7950   42.8320 C   0  0  0  0  0  0  0  0  0  0  0  0
   39.9320   31.6310   41.9740 C   0  0  0  0  0  0  0  0  0  0  0  0
   39.3260   32.8120   42.4270 C   0  0  0  0  0  0  0  0  0  0  0  0
   39.4060   33.1020   43.7510 N   0  0  0  0  0  0  0  0  0  0  0  0
   41.1170   30.5720   44.9670 H   0  0  0  0  0  0  0  0  0  0  0  0
   41.0720   29.8690   42.5500 H   0  0  0  0  0  0  0  0  0  0  0  0
   39.8950   31.3550   40.9220 H   0  0  0  0  0  0  0  0  0  0  0  0
   38.6130   33.7140   41.4490 C   0  0  0  0  0  0  0  0  0  0  0  0
   39.3580   34.2590   40.8400 H   0  0  0  0  0  0  0  0  0  0  0  0
   37.9850   33.0650   40.7940 H   0  0  0  0  0  0  0  0  0  0  0  0
   37.9720   34.3740   42.0670 H   0  0  0  0  0  0  0  0  0  0  0  0
   35.0770   30.6120   49.6610 C   0  0  0  0  0  0  0  0  0  0  0  0
   35.0350   31.7040   49.4970 H   0  0  0  0  0  0  0  0  0  0  0  0
   34.4680   30.3370   50.5570 H   0  0  0  0  0  0  0  0  0  0  0  0
   34.1040   28.0580   49.9860 F   0  0  0  0  0  0  0  0  0  0  0  0
   34.1230   28.5960   48.7300 C   0  0  0  0  0  0  0  0  0  0  0  0
   34.5960   29.8820   48.4530 C   0  0  0  0  0  0  0  0  0  0  0  0
   34.5960   30.3860   47.1780 C   0  0  0  0  0  0  0  0  0  0  0  0
   34.1080   29.5880   46.1200 C   0  0  0  0  0  0  0  0  0  0  0  0
   33.6410   28.3210   46.3870 C   0  0  0  0  0  0  0  0  0  0  0  0
   33.6480   27.8340   47.6690 C   0  0  0  0  0  0  0  0  0  0  0  0
   34.9900   31.3840   47.1370 H   0  0  0  0  0  0  0  0  0  0  0  0
   34.1680   30.1070   45.1800 H   0  0  0  0  0  0  0  0  0  0  0  0
   33.3250   27.8970   45.4680 H   0  0  0  0  0  0  0  0  0  0  0  0
   33.1650   26.5670   47.8740 O   0  0  0  0  0  0  0  0  0  0  0  0
   31.5360   25.3180   45.9300 O   0  0  0  0  0  0  0  0  0  0  0  0
   31.0560   26.0070   46.8810 C   0  0  0  0  0  0  0  0  0  0  0  0
   31.8530   26.2800   48.1440 C   0  0  2  0  0  0  0  0  0  0  0  0
   31.0600   27.4880   48.6400 C   0  0  0  0  0  0  0  0  0  0  0  0
   31.1590   27.6650   49.7110 H   0  0  0  0  0  0  0  0  0  0  0  0
   29.6400   27.0280   48.3310 C   0  0  0  0  0  0  0  0  0  0  0  0
   28.8920   27.8340   48.4460 H   0  0  0  0  0  0  0  0  0  0  0  0
   29.7670   26.6110   46.9350 N   0  0  0  0  0  0  0  0  0  0  0  0
   29.1470   26.6790   46.0950 H   0  0  0  0  0  0  0  0  0  0  0  0
  2  8  1  0  0  0  0
  2  7  1  0  0  0  0
  3  2  2  0  0  0  0
  4  3  1  0  0  0  0
  4  5  2  0  0  0  0
  5  6  1  0  0  0  0
  6  7  2  0  0  0  0
  6  1  1  0  0  0  0
  9  4  1  0  0  0  0
 10  3  1  0  0  0  0
 11 10  1  0  0  0  0
 12 11  1  0  0  0  0
 12 17  1  0  0  0  0
 13 12  2  0  0  0  0
 14 15  2  0  0  0  0
 14 13  1  0  0  0  0
 15 16  1  0  0  0  0
 16 11  2  0  0  0  0
 18 13  1  0  0  0  0
 19 14  1  0  0  0  0
 20 23  1  0  0  0  0
 20 15  1  0  0  0  0
 21 20  1  0  0  0  0
 22 20  1  0  0  0  0
 24  1  1  0  0  0  0
 24 26  1  0  0  0  0
 25 24  1  0  0  0  0
 28 27  1  0  0  0  0
 29 28  1  0  0  0  0
 29 24  1  0  0  0  0
 30 29  2  0  0  0  0
 31 32  2  0  0  0  0
 31 30  1  0  0  0  0
 32 33  1  0  0  0  0
 33 37  1  0  0  0  0
 33 28  2  0  0  0  0
 34 30  1  0  0  0  0
 35 31  1  0  0  0  0
 36 32  1  0  0  0  0
 38 39  2  0  0  0  0
 39 45  1  0  0  0  0
 39 40  1  0  0  0  0
 40 37  1  6  0  0  0
 40 41  1  0  0  0  0
 41 42  1  0  0  0  0
 43 44  1  0  0  0  0
 43 41  1  0  0  0  0
 45 43  1  0  0  0  0
 46 45  1  0  0  0  0
M  END
>  <minimizedAffinity>
-6.17796326

>  <minimizedRMSD>
2.0385685

$$$$
