
 OpenBabel03272503403D

 41 44  0  0  1  0  0  0  0  0999 V2000
   39.6120   30.9090   41.7870 C   0  0  2  0  0  0  0  0  0  0  0  0
   39.8420   32.0470   42.7540 C   0  0  1  0  0  0  0  0  0  0  0  0
   38.8460   33.0340   42.1780 C   0  0  0  0  0  0  0  0  0  0  0  0
   38.8280   32.8680   40.8140 O   0  0  0  0  0  0  0  0  0  0  0  0
   39.5170   31.7410   40.4940 C   0  0  0  0  0  0  0  0  0  0  0  0
   40.3990   30.1690   41.7120 H   0  0  0  0  0  0  0  0  0  0  0  0
   40.8380   32.4770   42.6910 H   0  0  0  0  0  0  0  0  0  0  0  0
   39.1060   34.0650   42.4360 H   0  0  0  0  0  0  0  0  0  0  0  0
   37.8410   32.7350   42.5690 H   0  0  0  0  0  0  0  0  0  0  0  0
   40.5660   32.0280   40.2590 H   0  0  0  0  0  0  0  0  0  0  0  0
   39.1520   31.1460   39.6550 H   0  0  0  0  0  0  0  0  0  0  0  0
   38.4850   31.1310   45.9450 C   0  0  0  0  0  0  0  0  0  0  0  0
   39.8020   31.0660   46.2250 C   0  0  0  0  0  0  0  0  0  0  0  0
   40.4270   31.4130   45.0240 C   0  0  0  0  0  0  0  0  0  0  0  0
   39.4940   31.6650   44.0960 N   0  0  0  0  0  0  0  0  0  0  0  0
   38.2910   31.4950   44.6500 N   0  0  0  0  0  0  0  0  0  0  0  0
   40.2360   30.7970   47.1890 H   0  0  0  0  0  0  0  0  0  0  0  0
   41.5170   31.4560   44.9140 H   0  0  0  0  0  0  0  0  0  0  0  0
   36.4930   30.6490   49.0940 C   0  0  0  0  0  0  0  0  0  0  0  0
   37.5350   30.9270   48.2430 C   0  0  0  0  0  0  0  0  0  0  0  0
   37.4100   30.8490   46.8820 C   0  0  0  0  0  0  0  0  0  0  0  0
   36.1830   30.4750   46.4130 N   0  0  0  0  0  0  0  0  0  0  0  0
   35.1560   30.2030   47.2700 C   0  0  0  0  0  0  0  0  0  0  0  0
   35.3030   30.2860   48.5800 N   0  0  0  0  0  0  0  0  0  0  0  0
   38.5370   31.2290   48.5800 H   0  0  0  0  0  0  0  0  0  0  0  0
   34.1980   29.9130   46.9120 H   0  0  0  0  0  0  0  0  0  0  0  0
   36.8190   30.7850   50.4380 O   0  0  0  0  0  0  0  0  0  0  0  0
   36.8670   29.7130   51.3450 C   0  0  0  0  0  0  0  0  0  0  0  0
   35.5970   29.2220   51.6450 F   0  0  0  0  0  0  0  0  0  0  0  0
   37.5180   30.0980   52.4740 F   0  0  0  0  0  0  0  0  0  0  0  0
   37.5920   28.6770   50.7610 F   0  0  0  0  0  0  0  0  0  0  0  0
   38.3530   30.3660   42.0510 O   0  0  0  0  0  0  0  0  0  0  0  0
   37.9990   28.3720   39.5210 O   0  0  0  0  0  0  0  0  0  0  0  0
   38.2860   28.4120   40.7650 C   0  0  0  0  0  0  0  0  0  0  0  0
   38.3990   28.9800   42.1210 C   0  0  1  0  0  3  0  0  0  0  0  0
   39.8120   28.5460   42.5010 C   0  0  0  0  0  3  0  0  0  0  0  0
   40.0260   28.6060   43.5660 H   0  0  0  0  0  0  0  0  0  0  0  0
   39.7810   27.0530   42.1460 C   0  0  0  0  0  3  0  0  0  0  0  0
   39.3790   26.5310   43.0200 H   0  0  0  0  0  0  0  0  0  0  0  0
   38.8470   27.0970   41.0300 N   0  0  0  0  0  0  0  0  0  0  0  0
   38.8230   26.0980   40.6870 H   0  0  0  0  0  0  0  0  0  0  0  0
  1  6  1  6  0  0  0
  1 32  1  0  0  0  0
  1  2  1  0  0  0  0
  2  7  1  6  0  0  0
  2 15  1  0  0  0  0
  3  8  1  0  0  0  0
  3  9  1  0  0  0  0
  3  2  1  0  0  0  0
  4  3  1  0  0  0  0
  5  4  1  0  0  0  0
  5  1  1  0  0  0  0
 10  5  1  0  0  0  0
 11  5  1  0  0  0  0
 12 13  1  0  0  0  0
 12 21  1  0  0  0  0
 13 17  1  0  0  0  0
 14 13  2  0  0  0  0
 15 16  1  0  0  0  0
 15 14  1  0  0  0  0
 16 12  2  0  0  0  0
 18 14  1  0  0  0  0
 19 27  1  0  0  0  0
 20 25  1  0  0  0  0
 20 19  2  0  0  0  0
 21 20  1  0  0  0  0
 22 21  2  0  0  0  0
 22 23  1  0  0  0  0
 23 24  2  0  0  0  0
 24 19  1  0  0  0  0
 26 23  1  0  0  0  0
 27 28  1  0  0  0  0
 28 29  1  0  0  0  0
 28 30  1  0  0  0  0
 31 28  1  0  0  0  0
 33 34  2  0  0  0  0
 34 40  1  0  0  0  0
 34 35  1  0  0  0  0
 35 32  1  6  0  0  0
 35 36  1  0  0  0  0
 36 37  1  0  0  0  0
 38 36  1  0  0  0  0
 38 39  1  0  0  0  0
 40 38  1  0  0  0  0
 41 40  1  0  0  0  0
M  END
>  <minimizedAffinity>
-6.09974813

>  <minimizedRMSD>
0.84452641

$$$$
