
 OpenBabel03262520363D

 42 44  0  0  1  0  0  0  0  0999 V2000
   40.2130   25.6820   34.6220 C   0  0  0  0  0  0  0  0  0  0  0  0
   40.0170   26.7700   33.7560 C   0  0  0  0  0  0  0  0  0  0  0  0
   41.0800   27.4680   33.2240 C   0  0  0  0  0  0  0  0  0  0  0  0
   42.3590   27.0940   33.5450 C   0  0  0  0  0  0  0  0  0  0  0  0
   42.5590   26.0380   34.3840 C   0  0  0  0  0  0  0  0  0  0  0  0
   41.5260   25.3050   34.9440 C   0  0  0  0  0  0  0  0  0  0  0  0
   40.8500   28.2940   32.5660 H   0  0  0  0  0  0  0  0  0  0  0  0
   43.2110   27.6240   33.1420 H   0  0  0  0  0  0  0  0  0  0  0  0
   43.5660   25.7620   34.6210 H   0  0  0  0  0  0  0  0  0  0  0  0
   41.7490   24.4760   35.6030 H   0  0  0  0  0  0  0  0  0  0  0  0
   38.9200   24.7560   35.3310 S   0  0  0  0  0  0  0  0  0  0  0  0
   38.0560   25.6020   36.1860 O   0  0  0  0  0  0  0  0  0  0  0  0
   38.1160   24.1250   34.1870 O   0  0  0  0  0  0  0  0  0  0  0  0
   38.7790   23.5510   38.8600 O   0  0  0  0  0  0  0  0  0  0  0  0
   38.7760   23.3570   37.5950 C   0  0  0  0  0  0  0  0  0  0  0  0
   39.5490   23.4360   36.3280 C   0  0  1  0  0  3  0  0  0  0  0  0
   39.1180   22.1270   35.6500 C   0  0  0  0  0  3  0  0  0  0  0  0
   39.6760   21.3190   36.1770 H   0  0  0  0  0  0  0  0  0  0  0  0
   37.6440   21.9910   35.9700 C   0  0  0  0  0  3  0  0  0  0  0  0
   37.3860   20.9550   36.3240 H   0  0  0  0  0  0  0  0  0  0  0  0
   37.5050   22.8440   37.1620 N   0  0  0  0  0  0  0  0  0  0  0  0
   36.4950   22.9170   37.4740 H   0  0  0  0  0  0  0  0  0  0  0  0
   38.6900   27.0200   33.5330 O   0  0  0  0  0  0  0  0  0  0  0  0
   37.6480   28.3870   31.5250 O   0  0  0  0  0  0  0  0  0  0  0  0
   37.8770   26.9760   32.0490 P   0  0  1  0  0  0  0  0  0  0  0  0
   38.7430   26.0250   30.9270 O   0  0  0  0  0  0  0  0  0  0  0  0
   39.0810   26.6270   30.2150 H   0  0  0  0  0  0  0  0  0  0  0  0
   36.3230   26.3060   32.2260 O   0  0  0  0  0  0  0  0  0  0  0  0
   36.1430   25.3580   31.2020 C   0  0  0  0  0  0  0  0  0  0  0  0
   35.2000   25.6440   30.6520 H   0  0  0  0  0  0  0  0  0  0  0  0
   36.9450   25.4300   30.4730 H   0  0  0  0  0  0  0  0  0  0  0  0
   36.0590   22.9120   31.0040 C   0  0  0  0  0  3  0  0  0  0  0  0
   35.9670   23.9870   31.7340 C   0  0  0  0  0  3  0  0  0  0  0  0
   35.4380   20.2760   33.4740 C   0  0  0  0  0  0  0  0  0  0  0  0
   35.5300   19.1160   32.6910 C   0  0  0  0  0  0  0  0  0  0  0  0
   35.8050   19.2540   31.3260 C   0  0  0  0  0  0  0  0  0  0  0  0
   35.9600   20.5450   30.8880 N   0  0  0  0  0  0  0  0  0  0  0  0
   35.8670   21.6190   31.6470 C   0  0  0  0  0  0  0  0  0  0  0  0
   35.6050   21.4720   32.9420 N   0  0  0  0  0  0  0  0  0  0  0  0
   35.2220   20.0840   34.5220 H   0  0  0  0  0  0  0  0  0  0  0  0
   35.4150   18.0850   33.0020 H   0  0  0  0  0  0  0  0  0  0  0  0
   35.9060   18.4670   30.6020 H   0  0  0  0  0  0  0  0  0  0  0  0
  1  6  1  0  0  0  0
  1 11  1  0  0  0  0
  2  1  2  0  0  0  0
  3  4  2  0  0  0  0
  3  2  1  0  0  0  0
  4  5  1  0  0  0  0
  5  9  1  0  0  0  0
  5  6  2  0  0  0  0
  6 10  1  0  0  0  0
  7  3  1  0  0  0  0
  8  4  1  0  0  0  0
 11 12  2  0  0  0  0
 13 11  2  0  0  0  0
 15 14  2  0  0  0  0
 16 11  1  6  0  0  0
 16 15  1  0  0  0  0
 17 19  1  0  0  0  0
 17 18  1  0  0  0  0
 17 16  1  0  0  0  0
 19 20  1  0  0  0  0
 19 21  1  0  0  0  0
 21 22  1  0  0  0  0
 21 15  1  0  0  0  0
 23  2  1  0  0  0  0
 25 24  2  6  0  0  0
 25 28  1  0  0  0  0
 25 23  1  0  0  0  0
 26 25  1  0  0  0  0
 27 26  1  0  0  0  0
 29 33  1  0  0  0  0
 29 28  1  0  0  0  0
 30 29  1  0  0  0  0
 31 29  1  0  0  0  0
 32 38  1  0  0  0  0
 32 33  2  0  0  0  0
 34 40  1  0  0  0  0
 35 41  1  0  0  0  0
 35 34  2  0  0  0  0
 36 35  1  0  0  0  0
 37 36  2  0  0  0  0
 37 38  1  0  0  0  0
 38 39  2  0  0  0  0
 39 34  1  0  0  0  0
 42 36  1  0  0  0  0
M  END
>  <minimizedAffinity>
-5.81517363

$$$$

 OpenBabel03262520363D

 42 44  0  0  1  0  0  0  0  0999 V2000
   40.1320   25.6670   34.6780 C   0  0  0  0  0  0  0  0  0  0  0  0
   39.9630   26.8310   33.9110 C   0  0  0  0  0  0  0  0  0  0  0  0
   41.0430   27.5180   33.3980 C   0  0  0  0  0  0  0  0  0  0  0  0
   42.3110   27.0580   33.6390 C   0  0  0  0  0  0  0  0  0  0  0  0
   42.4850   25.9280   34.3820 C   0  0  0  0  0  0  0  0  0  0  0  0
   41.4350   25.2020   34.9190 C   0  0  0  0  0  0  0  0  0  0  0  0
   40.8330   28.4060   32.8170 H   0  0  0  0  0  0  0  0  0  0  0  0
   43.1750   27.5770   33.2490 H   0  0  0  0  0  0  0  0  0  0  0  0
   43.4830   25.5850   34.5580 H   0  0  0  0  0  0  0  0  0  0  0  0
   41.6360   24.3110   35.5000 H   0  0  0  0  0  0  0  0  0  0  0  0
   38.8180   24.7490   35.3580 S   0  0  0  0  0  0  0  0  0  0  0  0
   37.9800   25.5860   36.2480 O   0  0  0  0  0  0  0  0  0  0  0  0
   37.9930   24.1820   34.1950 O   0  0  0  0  0  0  0  0  0  0  0  0
   38.6690   23.4250   38.8430 O   0  0  0  0  0  0  0  0  0  0  0  0
   38.6510   23.2770   37.5730 C   0  0  0  0  0  0  0  0  0  0  0  0
   39.4160   23.3770   36.3020 C   0  0  1  0  0  3  0  0  0  0  0  0
   38.9400   22.1060   35.5830 C   0  0  0  0  0  3  0  0  0  0  0  0
   39.4780   21.2650   36.0760 H   0  0  0  0  0  0  0  0  0  0  0  0
   37.4650   22.0030   35.9120 C   0  0  0  0  0  3  0  0  0  0  0  0
   37.1790   20.9630   36.2320 H   0  0  0  0  0  0  0  0  0  0  0  0
   37.3610   22.8170   37.1330 N   0  0  0  0  0  0  0  0  0  0  0  0
   36.3570   22.9090   37.4570 H   0  0  0  0  0  0  0  0  0  0  0  0
   38.6450   27.1620   33.7590 O   0  0  0  0  0  0  0  0  0  0  0  0
   38.6830   27.0180   31.1190 O   0  0  0  0  0  0  0  0  0  0  0  0
   37.7590   27.1970   32.3160 P   0  0  1  0  0  0  0  0  0  0  0  0
   36.5340   26.0090   32.3440 O   0  0  0  0  0  0  0  0  0  0  0  0
   36.7610   25.3230   31.6650 H   0  0  0  0  0  0  0  0  0  0  0  0
   37.0230   28.7140   32.0900 O   0  0  0  0  0  0  0  0  0  0  0  0
   35.6330   28.5430   32.2180 C   0  0  0  0  0  0  0  0  0  0  0  0
   35.1740   28.8300   31.2270 H   0  0  0  0  0  0  0  0  0  0  0  0
   35.3920   27.4930   32.3630 H   0  0  0  0  0  0  0  0  0  0  0  0
   35.6840   29.7520   34.3540 C   0  0  0  0  0  3  0  0  0  0  0  0
   35.0550   29.4180   33.2630 C   0  0  0  0  0  3  0  0  0  0  0  0
   34.9670   32.2980   36.8920 C   0  0  0  0  0  0  0  0  0  0  0  0
   33.5780   32.1760   37.0410 C   0  0  0  0  0  0  0  0  0  0  0  0
   32.9060   31.2220   36.2700 C   0  0  0  0  0  0  0  0  0  0  0  0
   33.7010   30.4860   35.4270 N   0  0  0  0  0  0  0  0  0  0  0  0
   35.0060   30.6220   35.3060 C   0  0  0  0  0  0  0  0  0  0  0  0
   35.6300   31.5340   36.0460 N   0  0  0  0  0  0  0  0  0  0  0  0
   35.4130   33.0600   37.5260 H   0  0  0  0  0  0  0  0  0  0  0  0
   32.9210   32.7370   37.6960 H   0  0  0  0  0  0  0  0  0  0  0  0
   31.8530   31.0110   36.2720 H   0  0  0  0  0  0  0  0  0  0  0  0
  1  6  1  0  0  0  0
  1 11  1  0  0  0  0
  2  1  2  0  0  0  0
  3  4  2  0  0  0  0
  3  2  1  0  0  0  0
  4  5  1  0  0  0  0
  5  9  1  0  0  0  0
  5  6  2  0  0  0  0
  6 10  1  0  0  0  0
  7  3  1  0  0  0  0
  8  4  1  0  0  0  0
 11 12  2  0  0  0  0
 13 11  2  0  0  0  0
 15 14  2  0  0  0  0
 16 11  1  6  0  0  0
 16 15  1  0  0  0  0
 17 19  1  0  0  0  0
 17 18  1  0  0  0  0
 17 16  1  0  0  0  0
 19 20  1  0  0  0  0
 19 21  1  0  0  0  0
 21 22  1  0  0  0  0
 21 15  1  0  0  0  0
 23  2  1  0  0  0  0
 25 24  2  6  0  0  0
 25 26  1  0  0  0  0
 25 23  1  0  0  0  0
 27 26  1  0  0  0  0
 28 29  1  0  0  0  0
 28 25  1  0  0  0  0
 29 31  1  0  0  0  0
 29 33  1  0  0  0  0
 30 29  1  0  0  0  0
 32 38  1  0  0  0  0
 33 32  2  0  0  0  0
 34 35  1  0  0  0  0
 34 40  1  0  0  0  0
 35 41  1  0  0  0  0
 36 42  1  0  0  0  0
 36 35  2  0  0  0  0
 37 36  1  0  0  0  0
 38 37  2  0  0  0  0
 38 39  1  0  0  0  0
 39 34  2  0  0  0  0
M  END
>  <minimizedAffinity>
-5.80680132

$$$$

 OpenBabel03262520363D

 42 44  0  0  1  0  0  0  0  0999 V2000
   37.5850   25.3410   33.6360 C   0  0  0  0  0  0  0  0  0  0  0  0
   37.2160   26.6950   33.5800 C   0  0  0  0  0  0  0  0  0  0  0  0
   37.4930   27.5610   34.6170 C   0  0  0  0  0  0  0  0  0  0  0  0
   38.1430   27.0930   35.7290 C   0  0  0  0  0  0  0  0  0  0  0  0
   38.5060   25.7800   35.7920 C   0  0  0  0  0  0  0  0  0  0  0  0
   38.2510   24.8710   34.7790 C   0  0  0  0  0  0  0  0  0  0  0  0
   37.1790   28.5880   34.5010 H   0  0  0  0  0  0  0  0  0  0  0  0
   38.3730   27.7490   36.5560 H   0  0  0  0  0  0  0  0  0  0  0  0
   39.0120   25.4350   36.6700 H   0  0  0  0  0  0  0  0  0  0  0  0
   38.5640   23.8410   34.8870 H   0  0  0  0  0  0  0  0  0  0  0  0
   37.2670   24.1920   32.3670 S   0  0  0  0  0  0  0  0  0  0  0  0
   35.8860   24.3290   31.8490 O   0  0  0  0  0  0  0  0  0  0  0  0
   38.2990   24.4250   31.2570 O   0  0  0  0  0  0  0  0  0  0  0  0
   35.2180   21.1420   33.0150 O   0  0  0  0  0  0  0  0  0  0  0  0
   36.2710   21.7300   32.5880 C   0  0  0  0  0  0  0  0  0  0  0  0
   37.4730   22.5310   32.9410 C   0  0  1  0  0  3  0  0  0  0  0  0
   38.5260   21.8780   32.0340 C   0  0  0  0  0  3  0  0  0  0  0  0
   38.7800   20.9080   32.5210 H   0  0  0  0  0  0  0  0  0  0  0  0
   37.7990   21.5970   30.7350 C   0  0  0  0  0  3  0  0  0  0  0  0
   37.9970   20.5550   30.3620 H   0  0  0  0  0  0  0  0  0  0  0  0
   36.3910   21.5860   31.1630 N   0  0  0  0  0  0  0  0  0  0  0  0
   35.7340   21.4740   30.3390 H   0  0  0  0  0  0  0  0  0  0  0  0
   36.5780   27.0090   32.4110 O   0  0  0  0  0  0  0  0  0  0  0  0
   38.6600   27.9310   31.0680 O   0  0  0  0  0  0  0  0  0  0  0  0
   37.1450   28.0200   31.1770 P   0  0  1  0  0  0  0  0  0  0  0  0
   36.3870   27.6310   29.6980 O   0  0  0  0  0  0  0  0  0  0  0  0
   37.0760   27.2540   29.0930 H   0  0  0  0  0  0  0  0  0  0  0  0
   36.8170   29.6520   31.5290 O   0  0  0  0  0  0  0  0  0  0  0  0
   35.4240   29.7930   31.6660 C   0  0  0  0  0  0  0  0  0  0  0  0
   35.0720   30.4350   30.8070 H   0  0  0  0  0  0  0  0  0  0  0  0
   34.9310   28.8320   31.5390 H   0  0  0  0  0  0  0  0  0  0  0  0
   34.6570   29.8370   33.9990 C   0  0  0  0  0  3  0  0  0  0  0  0
   35.0520   30.4700   32.9290 C   0  0  0  0  0  3  0  0  0  0  0  0
   34.8270   32.0890   36.8860 C   0  0  0  0  0  0  0  0  0  0  0  0
   33.5180   32.0220   37.3840 C   0  0  0  0  0  0  0  0  0  0  0  0
   32.5940   31.2050   36.7230 C   0  0  0  0  0  0  0  0  0  0  0  0
   33.0830   30.5370   35.6280 N   0  0  0  0  0  0  0  0  0  0  0  0
   34.3200   30.6190   35.1810 C   0  0  0  0  0  0  0  0  0  0  0  0
   35.1860   31.4000   35.8190 N   0  0  0  0  0  0  0  0  0  0  0  0
   35.4830   32.7440   37.4550 H   0  0  0  0  0  0  0  0  0  0  0  0
   33.0990   32.5330   38.2440 H   0  0  0  0  0  0  0  0  0  0  0  0
   31.5640   31.0500   36.9820 H   0  0  0  0  0  0  0  0  0  0  0  0
  1  6  1  0  0  0  0
  2  1  2  0  0  0  0
  2  3  1  0  0  0  0
  3  4  2  0  0  0  0
  4  5  1  0  0  0  0
  4  8  1  0  0  0  0
  5  9  1  0  0  0  0
  6 10  1  0  0  0  0
  6  5  2  0  0  0  0
  7  3  1  0  0  0  0
 11  1  1  0  0  0  0
 12 11  2  0  0  0  0
 13 11  2  0  0  0  0
 15 16  1  0  0  0  0
 15 14  2  0  0  0  0
 16 11  1  6  0  0  0
 17 18  1  0  0  0  0
 17 16  1  0  0  0  0
 19 21  1  0  0  0  0
 19 17  1  0  0  0  0
 20 19  1  0  0  0  0
 21 15  1  0  0  0  0
 22 21  1  0  0  0  0
 23  2  1  0  0  0  0
 25 24  2  6  0  0  0
 25 28  1  0  0  0  0
 25 23  1  0  0  0  0
 26 25  1  0  0  0  0
 27 26  1  0  0  0  0
 28 29  1  0  0  0  0
 29 33  1  0  0  0  0
 30 29  1  0  0  0  0
 31 29  1  0  0  0  0
 32 38  1  0  0  0  0
 33 32  2  0  0  0  0
 34 35  1  0  0  0  0
 34 40  1  0  0  0  0
 35 41  1  0  0  0  0
 36 42  1  0  0  0  0
 36 35  2  0  0  0  0
 37 36  1  0  0  0  0
 38 37  2  0  0  0  0
 38 39  1  0  0  0  0
 39 34  2  0  0  0  0
M  END
>  <minimizedAffinity>
-5.71147394

$$$$

 OpenBabel03262520363D

 42 44  0  0  1  0  0  0  0  0999 V2000
   36.4720   23.4350   31.9500 C   0  0  0  0  0  0  0  0  0  0  0  0
   37.3230   24.4320   32.4540 C   0  0  0  0  0  0  0  0  0  0  0  0
   37.0940   25.7680   32.2040 C   0  0  0  0  0  0  0  0  0  0  0  0
   36.0120   26.1360   31.4470 C   0  0  0  0  0  0  0  0  0  0  0  0
   35.1800   25.1750   30.9540 C   0  0  0  0  0  0  0  0  0  0  0  0
   35.3660   23.8200   31.1760 C   0  0  0  0  0  0  0  0  0  0  0  0
   37.7920   26.4770   32.6260 H   0  0  0  0  0  0  0  0  0  0  0  0
   35.8090   27.1760   31.2350 H   0  0  0  0  0  0  0  0  0  0  0  0
   34.3410   25.4830   30.3650 H   0  0  0  0  0  0  0  0  0  0  0  0
   34.6700   23.1050   30.7590 H   0  0  0  0  0  0  0  0  0  0  0  0
   36.7000   21.7300   32.2230 S   0  0  0  0  0  0  0  0  0  0  0  0
   38.0850   21.3130   31.9020 O   0  0  0  0  0  0  0  0  0  0  0  0
   36.3640   21.4440   33.6930 O   0  0  0  0  0  0  0  0  0  0  0  0
   36.8210   19.2280   29.4580 O   0  0  0  0  0  0  0  0  0  0  0  0
   36.3510   19.6780   30.5590 C   0  0  0  0  0  0  0  0  0  0  0  0
   35.5950   20.7690   31.2300 C   0  0  1  0  0  3  0  0  0  0  0  0
   34.7240   19.9570   32.2000 C   0  0  0  0  0  3  0  0  0  0  0  0
   33.9190   19.5090   31.5740 H   0  0  0  0  0  0  0  0  0  0  0  0
   35.6280   18.8490   32.6990 C   0  0  0  0  0  3  0  0  0  0  0  0
   35.1190   17.8470   32.6670 H   0  0  0  0  0  0  0  0  0  0  0  0
   36.6530   18.7860   31.6450 N   0  0  0  0  0  0  0  0  0  0  0  0
   37.4190   18.0940   31.8860 H   0  0  0  0  0  0  0  0  0  0  0  0
   38.3530   23.9100   33.1870 O   0  0  0  0  0  0  0  0  0  0  0  0
   38.3880   22.8890   35.6250 O   0  0  0  0  0  0  0  0  0  0  0  0
   38.6660   24.1580   34.8320 P   0  0  1  0  0  0  0  0  0  0  0  0
   40.2700   24.6970   35.0560 O   0  0  0  0  0  0  0  0  0  0  0  0
   40.7680   23.9810   35.5280 H   0  0  0  0  0  0  0  0  0  0  0  0
   37.6170   25.3300   35.4810 O   0  0  0  0  0  0  0  0  0  0  0  0
   38.3910   26.4440   35.8530 C   0  0  0  0  0  0  0  0  0  0  0  0
   38.4060   26.4720   36.9810 H   0  0  0  0  0  0  0  0  0  0  0  0
   39.4250   26.3080   35.5460 H   0  0  0  0  0  0  0  0  0  0  0  0
   36.6570   27.8010   34.7650 C   0  0  0  0  0  3  0  0  0  0  0  0
   37.8090   27.7170   35.3690 C   0  0  0  0  0  3  0  0  0  0  0  0
   35.4590   30.6180   32.7480 C   0  0  0  0  0  0  0  0  0  0  0  0
   35.3360   31.6320   33.7100 C   0  0  0  0  0  0  0  0  0  0  0  0
   35.6660   31.3360   35.0370 C   0  0  0  0  0  0  0  0  0  0  0  0
   36.0880   30.0490   35.2610 N   0  0  0  0  0  0  0  0  0  0  0  0
   36.1940   29.1150   34.3380 C   0  0  0  0  0  0  0  0  0  0  0  0
   35.8760   29.4110   33.0820 N   0  0  0  0  0  0  0  0  0  0  0  0
   35.1840   30.9280   31.7430 H   0  0  0  0  0  0  0  0  0  0  0  0
   35.0080   32.6550   33.5680 H   0  0  0  0  0  0  0  0  0  0  0  0
   35.6250   32.0010   35.8790 H   0  0  0  0  0  0  0  0  0  0  0  0
  1 11  1  0  0  0  0
  1  2  1  0  0  0  0
  2 23  1  0  0  0  0
  3  2  2  0  0  0  0
  3  7  1  0  0  0  0
  4  3  1  0  0  0  0
  5  6  1  0  0  0  0
  5  4  2  0  0  0  0
  6  1  2  0  0  0  0
  8  4  1  0  0  0  0
  9  5  1  0  0  0  0
 10  6  1  0  0  0  0
 11 13  2  0  0  0  0
 12 11  2  0  0  0  0
 14 15  2  0  0  0  0
 15 16  1  0  0  0  0
 15 21  1  0  0  0  0
 16 17  1  0  0  0  0
 16 11  1  1  0  0  0
 17 19  1  0  0  0  0
 18 17  1  0  0  0  0
 20 19  1  0  0  0  0
 21 22  1  0  0  0  0
 21 19  1  0  0  0  0
 23 25  1  0  0  0  0
 25 26  1  0  0  0  0
 25 28  1  0  0  0  0
 25 24  2  1  0  0  0
 26 27  1  0  0  0  0
 28 29  1  0  0  0  0
 29 30  1  0  0  0  0
 31 29  1  0  0  0  0
 32 33  2  0  0  0  0
 33 29  1  0  0  0  0
 34 39  2  0  0  0  0
 34 35  1  0  0  0  0
 35 36  2  0  0  0  0
 36 37  1  0  0  0  0
 36 42  1  0  0  0  0
 38 32  1  0  0  0  0
 38 37  2  0  0  0  0
 39 38  1  0  0  0  0
 40 34  1  0  0  0  0
 41 35  1  0  0  0  0
M  END
>  <minimizedAffinity>
-5.52729797

$$$$

 OpenBabel03262520363D

 42 44  0  0  1  0  0  0  0  0999 V2000
   37.3130   23.0910   33.1500 C   0  0  0  0  0  0  0  0  0  0  0  0
   36.7980   24.0090   32.2200 C   0  0  0  0  0  0  0  0  0  0  0  0
   35.9860   23.6030   31.1820 C   0  0  0  0  0  0  0  0  0  0  0  0
   35.6730   22.2750   31.0510 C   0  0  0  0  0  0  0  0  0  0  0  0
   36.1680   21.3770   31.9500 C   0  0  0  0  0  0  0  0  0  0  0  0
   36.9870   21.7330   33.0090 C   0  0  0  0  0  0  0  0  0  0  0  0
   35.6270   24.3670   30.5070 H   0  0  0  0  0  0  0  0  0  0  0  0
   35.0390   21.9290   30.2470 H   0  0  0  0  0  0  0  0  0  0  0  0
   35.9120   20.3450   31.8300 H   0  0  0  0  0  0  0  0  0  0  0  0
   37.3480   20.9740   33.6900 H   0  0  0  0  0  0  0  0  0  0  0  0
   38.3440   23.5310   34.4830 S   0  0  0  0  0  0  0  0  0  0  0  0
   39.7490   23.6980   34.0470 O   0  0  0  0  0  0  0  0  0  0  0  0
   37.7950   24.8300   35.0880 O   0  0  0  0  0  0  0  0  0  0  0  0
   40.7110   21.5470   36.5750 O   0  0  0  0  0  0  0  0  0  0  0  0
   39.6390   22.2250   36.4110 C   0  0  0  0  0  0  0  0  0  0  0  0
   38.3080   22.2990   35.7530 C   0  0  1  0  0  3  0  0  0  0  0  0
   37.4570   22.8690   36.8970 C   0  0  0  0  0  3  0  0  0  0  0  0
   37.2890   22.0190   37.5970 H   0  0  0  0  0  0  0  0  0  0  0  0
   38.3480   23.8890   37.5730 C   0  0  0  0  0  3  0  0  0  0  0  0
   38.3370   23.7790   38.6930 H   0  0  0  0  0  0  0  0  0  0  0  0
   39.6910   23.4490   37.1630 N   0  0  0  0  0  0  0  0  0  0  0  0
   40.4410   24.1170   37.5010 H   0  0  0  0  0  0  0  0  0  0  0  0
   37.1970   25.2910   32.4830 O   0  0  0  0  0  0  0  0  0  0  0  0
   39.5400   26.4650   32.1350 O   0  0  0  0  0  0  0  0  0  0  0  0
   38.1660   26.2800   31.5080 P   0  0  1  0  0  0  0  0  0  0  0  0
   38.2780   25.6320   29.9330 O   0  0  0  0  0  0  0  0  0  0  0  0
   39.2150   25.3390   29.7920 H   0  0  0  0  0  0  0  0  0  0  0  0
   37.5120   27.8470   31.3920 O   0  0  0  0  0  0  0  0  0  0  0  0
   36.1120   27.7280   31.3420 C   0  0  0  0  0  0  0  0  0  0  0  0
   35.7880   28.0850   30.3220 H   0  0  0  0  0  0  0  0  0  0  0  0
   35.8170   26.6830   31.3970 H   0  0  0  0  0  0  0  0  0  0  0  0
   35.9920   28.9160   33.4880 C   0  0  0  0  0  3  0  0  0  0  0  0
   35.4410   28.5700   32.3580 C   0  0  0  0  0  3  0  0  0  0  0  0
   33.2650   30.4510   35.3960 C   0  0  0  0  0  0  0  0  0  0  0  0
   33.9510   31.3920   36.1770 C   0  0  0  0  0  0  0  0  0  0  0  0
   35.3390   31.4890   36.0380 C   0  0  0  0  0  0  0  0  0  0  0  0
   35.8970   30.6270   35.1260 N   0  0  0  0  0  0  0  0  0  0  0  0
   35.2270   29.7510   34.4050 C   0  0  0  0  0  0  0  0  0  0  0  0
   33.9090   29.6710   34.5480 N   0  0  0  0  0  0  0  0  0  0  0  0
   32.1900   30.4390   35.5620 H   0  0  0  0  0  0  0  0  0  0  0  0
   33.5440   32.0870   36.9030 H   0  0  0  0  0  0  0  0  0  0  0  0
   35.9990   32.1550   36.5610 H   0  0  0  0  0  0  0  0  0  0  0  0
  1 11  1  0  0  0  0
  2 23  1  0  0  0  0
  2  1  2  0  0  0  0
  3  2  1  0  0  0  0
  4  3  2  0  0  0  0
  4  5  1  0  0  0  0
  5  6  2  0  0  0  0
  6  1  1  0  0  0  0
  6 10  1  0  0  0  0
  7  3  1  0  0  0  0
  8  4  1  0  0  0  0
  9  5  1  0  0  0  0
 11 13  2  0  0  0  0
 12 11  2  0  0  0  0
 15 14  2  0  0  0  0
 15 21  1  0  0  0  0
 16 11  1  6  0  0  0
 16 15  1  0  0  0  0
 16 17  1  0  0  0  0
 17 19  1  0  0  0  0
 17 18  1  0  0  0  0
 19 20  1  0  0  0  0
 21 22  1  0  0  0  0
 21 19  1  0  0  0  0
 25 24  2  1  0  0  0
 25 23  1  0  0  0  0
 26 25  1  0  0  0  0
 27 26  1  0  0  0  0
 28 25  1  0  0  0  0
 29 28  1  0  0  0  0
 29 31  1  0  0  0  0
 29 33  1  0  0  0  0
 30 29  1  0  0  0  0
 32 38  1  0  0  0  0
 33 32  2  0  0  0  0
 34 40  1  0  0  0  0
 34 35  1  0  0  0  0
 35 41  1  0  0  0  0
 36 35  2  0  0  0  0
 36 42  1  0  0  0  0
 37 36  1  0  0  0  0
 38 39  1  0  0  0  0
 38 37  2  0  0  0  0
 39 34  2  0  0  0  0
M  END
>  <minimizedAffinity>
-5.49941826

$$$$

 OpenBabel03262520363D

 42 44  0  0  1  0  0  0  0  0999 V2000
   39.9160   23.3210   36.4800 C   0  0  0  0  0  0  0  0  0  0  0  0
   38.8310   24.0400   35.9520 C   0  0  0  0  0  0  0  0  0  0  0  0
   37.7530   24.3950   36.7360 C   0  0  0  0  0  0  0  0  0  0  0  0
   37.7360   24.0390   38.0590 C   0  0  0  0  0  0  0  0  0  0  0  0
   38.7860   23.3420   38.5800 C   0  0  0  0  0  0  0  0  0  0  0  0
   39.8910   22.9620   37.8370 C   0  0  0  0  0  0  0  0  0  0  0  0
   36.9560   24.9480   36.2590 H   0  0  0  0  0  0  0  0  0  0  0  0
   36.9040   24.3040   38.6960 H   0  0  0  0  0  0  0  0  0  0  0  0
   38.7530   23.0740   39.6160 H   0  0  0  0  0  0  0  0  0  0  0  0
   40.6940   22.4090   38.3070 H   0  0  0  0  0  0  0  0  0  0  0  0
   41.3080   22.8390   35.5510 S   0  0  0  0  0  0  0  0  0  0  0  0
   40.9590   21.7980   34.5570 O   0  0  0  0  0  0  0  0  0  0  0  0
   41.8690   24.0920   34.8670 O   0  0  0  0  0  0  0  0  0  0  0  0
   43.0270   19.6020   36.2530 O   0  0  0  0  0  0  0  0  0  0  0  0
   43.0240   20.8700   36.0780 C   0  0  0  0  0  0  0  0  0  0  0  0
   42.5810   22.1910   36.5960 C   0  0  1  0  0  3  0  0  0  0  0  0
   43.8380   23.0340   36.3350 C   0  0  0  0  0  3  0  0  0  0  0  0
   44.5640   22.7410   37.1270 H   0  0  0  0  0  0  0  0  0  0  0  0
   44.3560   22.5550   34.9950 C   0  0  0  0  0  3  0  0  0  0  0  0
   45.4640   22.3660   35.0180 H   0  0  0  0  0  0  0  0  0  0  0  0
   43.7460   21.2200   34.8850 N   0  0  0  0  0  0  0  0  0  0  0  0
   43.9550   20.7710   33.9490 H   0  0  0  0  0  0  0  0  0  0  0  0
   38.9940   24.3200   34.6230 O   0  0  0  0  0  0  0  0  0  0  0  0
   38.9440   26.9590   34.7640 O   0  0  0  0  0  0  0  0  0  0  0  0
   38.6640   25.7840   33.8390 P   0  0  1  0  0  0  0  0  0  0  0  0
   39.5630   25.8960   32.3930 O   0  0  0  0  0  0  0  0  0  0  0  0
   40.2300   26.6220   32.5050 H   0  0  0  0  0  0  0  0  0  0  0  0
   37.0130   25.9060   33.4480 O   0  0  0  0  0  0  0  0  0  0  0  0
   36.8380   25.3990   32.1480 C   0  0  0  0  0  0  0  0  0  0  0  0
   35.8920   25.8600   31.7400 H   0  0  0  0  0  0  0  0  0  0  0  0
   37.6390   25.7400   31.4970 H   0  0  0  0  0  0  0  0  0  0  0  0
   35.8060   23.3020   31.3930 C   0  0  0  0  0  3  0  0  0  0  0  0
   36.6730   23.9270   32.1380 C   0  0  0  0  0  3  0  0  0  0  0  0
   34.8610   19.8710   32.2710 C   0  0  0  0  0  0  0  0  0  0  0  0
   35.7610   19.1160   31.5040 C   0  0  0  0  0  0  0  0  0  0  0  0
   36.6810   19.7950   30.6970 C   0  0  0  0  0  0  0  0  0  0  0  0
   36.6010   21.1640   30.7440 N   0  0  0  0  0  0  0  0  0  0  0  0
   35.7430   21.8480   31.4740 C   0  0  0  0  0  0  0  0  0  0  0  0
   34.8760   21.1900   32.2360 N   0  0  0  0  0  0  0  0  0  0  0  0
   34.1810   19.2700   32.8700 H   0  0  0  0  0  0  0  0  0  0  0  0
   35.8530   18.0380   31.4430 H   0  0  0  0  0  0  0  0  0  0  0  0
   37.4270   19.3610   30.0590 H   0  0  0  0  0  0  0  0  0  0  0  0
  1  6  1  0  0  0  0
  2  1  2  0  0  0  0
  2  3  1  0  0  0  0
  3  4  2  0  0  0  0
  4  5  1  0  0  0  0
  4  8  1  0  0  0  0
  5  9  1  0  0  0  0
  6 10  1  0  0  0  0
  6  5  2  0  0  0  0
  7  3  1  0  0  0  0
 11  1  1  0  0  0  0
 12 11  2  0  0  0  0
 13 11  2  0  0  0  0
 15 14  2  0  0  0  0
 15 16  1  0  0  0  0
 16 11  1  6  0  0  0
 17 16  1  0  0  0  0
 17 18  1  0  0  0  0
 19 20  1  0  0  0  0
 19 17  1  0  0  0  0
 21 19  1  0  0  0  0
 21 15  1  0  0  0  0
 22 21  1  0  0  0  0
 23  2  1  0  0  0  0
 25 23  1  0  0  0  0
 25 24  2  1  0  0  0
 26 27  1  0  0  0  0
 26 25  1  0  0  0  0
 28 25  1  0  0  0  0
 29 28  1  0  0  0  0
 30 29  1  0  0  0  0
 31 29  1  0  0  0  0
 32 38  1  0  0  0  0
 32 33  2  0  0  0  0
 33 29  1  0  0  0  0
 34 40  1  0  0  0  0
 35 34  2  0  0  0  0
 36 37  2  0  0  0  0
 36 35  1  0  0  0  0
 37 38  1  0  0  0  0
 38 39  2  0  0  0  0
 39 34  1  0  0  0  0
 41 35  1  0  0  0  0
 42 36  1  0  0  0  0
M  END
>  <minimizedAffinity>
-5.42323732

$$$$

 OpenBabel03262520363D

 42 44  0  0  1  0  0  0  0  0999 V2000
   36.7350   22.8830   32.4590 C   0  0  0  0  0  0  0  0  0  0  0  0
   37.6180   23.6840   33.2020 C   0  0  0  0  0  0  0  0  0  0  0  0
   37.6370   25.0560   33.0610 C   0  0  0  0  0  0  0  0  0  0  0  0
   36.7780   25.6540   32.1760 C   0  0  0  0  0  0  0  0  0  0  0  0
   35.9180   24.8840   31.4510 C   0  0  0  0  0  0  0  0  0  0  0  0
   35.8580   23.5040   31.5560 C   0  0  0  0  0  0  0  0  0  0  0  0
   38.3440   25.6050   33.6670 H   0  0  0  0  0  0  0  0  0  0  0  0
   36.7730   26.7270   32.0450 H   0  0  0  0  0  0  0  0  0  0  0  0
   35.2550   25.3710   30.7660 H   0  0  0  0  0  0  0  0  0  0  0  0
   35.1520   22.9470   30.9540 H   0  0  0  0  0  0  0  0  0  0  0  0
   36.6560   21.1470   32.5850 S   0  0  0  0  0  0  0  0  0  0  0  0
   37.9960   20.5340   32.4380 O   0  0  0  0  0  0  0  0  0  0  0  0
   36.0380   20.8060   33.9470 O   0  0  0  0  0  0  0  0  0  0  0  0
   36.8950   19.0550   29.5050 O   0  0  0  0  0  0  0  0  0  0  0  0
   36.3310   19.3990   30.6000 C   0  0  0  0  0  0  0  0  0  0  0  0
   35.6020   20.4640   31.3390 C   0  0  1  0  0  3  0  0  0  0  0  0
   34.5400   19.6280   32.0690 C   0  0  0  0  0  3  0  0  0  0  0  0
   33.7830   19.3640   31.2950 H   0  0  0  0  0  0  0  0  0  0  0  0
   35.2640   18.3670   32.4930 C   0  0  0  0  0  3  0  0  0  0  0  0
   34.6710   17.4420   32.2530 H   0  0  0  0  0  0  0  0  0  0  0  0
   36.4060   18.3360   31.5660 N   0  0  0  0  0  0  0  0  0  0  0  0
   37.0650   17.5360   31.7850 H   0  0  0  0  0  0  0  0  0  0  0  0
   38.4080   22.9440   34.0380 O   0  0  0  0  0  0  0  0  0  0  0  0
   38.1290   24.3440   36.2630 O   0  0  0  0  0  0  0  0  0  0  0  0
   38.3840   22.9410   35.7310 P   0  0  1  0  0  0  0  0  0  0  0  0
   37.2200   21.8330   36.3050 O   0  0  0  0  0  0  0  0  0  0  0  0
   36.4970   22.3510   36.7420 H   0  0  0  0  0  0  0  0  0  0  0  0
   39.9000   22.4930   36.3600 O   0  0  0  0  0  0  0  0  0  0  0  0
   40.7790   22.3060   35.2780 C   0  0  0  0  0  0  0  0  0  0  0  0
   41.1520   21.2430   35.3380 H   0  0  0  0  0  0  0  0  0  0  0  0
   40.2410   22.3780   34.3360 H   0  0  0  0  0  0  0  0  0  0  0  0
   41.9010   24.4770   35.0450 C   0  0  0  0  0  3  0  0  0  0  0  0
   41.9490   23.2100   35.3440 C   0  0  0  0  0  3  0  0  0  0  0  0
   45.1120   25.8400   36.1730 C   0  0  0  0  0  0  0  0  0  0  0  0
   45.3710   26.8160   35.2000 C   0  0  0  0  0  0  0  0  0  0  0  0
   44.4400   26.9950   34.1700 C   0  0  0  0  0  0  0  0  0  0  0  0
   43.3430   26.1720   34.2250 N   0  0  0  0  0  0  0  0  0  0  0  0
   43.1250   25.2610   35.1520 C   0  0  0  0  0  0  0  0  0  0  0  0
   44.0180   25.1030   36.1240 N   0  0  0  0  0  0  0  0  0  0  0  0
   45.8810   25.7640   36.9370 H   0  0  0  0  0  0  0  0  0  0  0  0
   46.2230   27.4820   35.1260 H   0  0  0  0  0  0  0  0  0  0  0  0
   44.4970   27.6960   33.3600 H   0  0  0  0  0  0  0  0  0  0  0  0
  1 11  1  0  0  0  0
  1  2  1  0  0  0  0
  2 23  1  0  0  0  0
  3  2  2  0  0  0  0
  3  7  1  0  0  0  0
  4  3  1  0  0  0  0
  5  6  1  0  0  0  0
  5  4  2  0  0  0  0
  6  1  2  0  0  0  0
  8  4  1  0  0  0  0
  9  5  1  0  0  0  0
 10  6  1  0  0  0  0
 11 13  2  0  0  0  0
 12 11  2  0  0  0  0
 14 15  2  0  0  0  0
 15 16  1  0  0  0  0
 15 21  1  0  0  0  0
 16 17  1  0  0  0  0
 16 11  1  1  0  0  0
 17 19  1  0  0  0  0
 18 17  1  0  0  0  0
 20 19  1  0  0  0  0
 21 22  1  0  0  0  0
 21 19  1  0  0  0  0
 23 25  1  0  0  0  0
 25 24  2  1  0  0  0
 25 26  1  0  0  0  0
 25 28  1  0  0  0  0
 26 27  1  0  0  0  0
 29 30  1  0  0  0  0
 29 33  1  0  0  0  0
 29 28  1  0  0  0  0
 31 29  1  0  0  0  0
 32 38  1  0  0  0  0
 32 33  2  0  0  0  0
 34 40  1  0  0  0  0
 35 34  2  0  0  0  0
 36 37  2  0  0  0  0
 36 35  1  0  0  0  0
 37 38  1  0  0  0  0
 38 39  2  0  0  0  0
 39 34  1  0  0  0  0
 41 35  1  0  0  0  0
 42 36  1  0  0  0  0
M  END
>  <minimizedAffinity>
-5.401227

$$$$

 OpenBabel03262520363D

 42 44  0  0  1  0  0  0  0  0999 V2000
   37.5940   22.9340   32.8380 C   0  0  0  0  0  0  0  0  0  0  0  0
   36.6540   23.7200   32.1530 C   0  0  0  0  0  0  0  0  0  0  0  0
   35.7250   23.1560   31.3040 C   0  0  0  0  0  0  0  0  0  0  0  0
   35.7170   21.7970   31.1220 C   0  0  0  0  0  0  0  0  0  0  0  0
   36.6260   21.0260   31.7840 C   0  0  0  0  0  0  0  0  0  0  0  0
   37.5780   21.5430   32.6470 C   0  0  0  0  0  0  0  0  0  0  0  0
   35.0330   23.8250   30.8120 H   0  0  0  0  0  0  0  0  0  0  0  0
   35.0000   21.3280   30.4630 H   0  0  0  0  0  0  0  0  0  0  0  0
   36.6020   19.9670   31.6280 H   0  0  0  0  0  0  0  0  0  0  0  0
   38.2730   20.8790   33.1440 H   0  0  0  0  0  0  0  0  0  0  0  0
   38.7950   23.5770   33.9230 S   0  0  0  0  0  0  0  0  0  0  0  0
   38.1850   24.4700   34.9350 O   0  0  0  0  0  0  0  0  0  0  0  0
   39.5050   22.3900   34.5890 O   0  0  0  0  0  0  0  0  0  0  0  0
   39.8720   27.1160   33.4430 O   0  0  0  0  0  0  0  0  0  0  0  0
   40.1130   25.8720   33.6150 C   0  0  0  0  0  0  0  0  0  0  0  0
   40.0220   24.5020   33.0450 C   0  0  1  0  0  3  0  0  0  0  0  0
   41.3860   23.9300   33.4590 C   0  0  0  0  0  3  0  0  0  0  0  0
   42.1250   24.3890   32.7630 H   0  0  0  0  0  0  0  0  0  0  0  0
   41.6260   24.4700   34.8530 C   0  0  0  0  0  3  0  0  0  0  0  0
   42.6650   24.8850   34.9680 H   0  0  0  0  0  0  0  0  0  0  0  0
   40.7420   25.6460   34.8880 N   0  0  0  0  0  0  0  0  0  0  0  0
   40.7380   26.1030   35.8430 H   0  0  0  0  0  0  0  0  0  0  0  0
   36.7880   25.0510   32.4360 O   0  0  0  0  0  0  0  0  0  0  0  0
   38.2160   26.2760   30.5790 O   0  0  0  0  0  0  0  0  0  0  0  0
   36.8920   26.3280   31.3290 P   0  0  1  0  0  0  0  0  0  0  0  0
   35.5640   26.2930   30.2590 O   0  0  0  0  0  0  0  0  0  0  0  0
   35.9070   26.0730   29.3550 H   0  0  0  0  0  0  0  0  0  0  0  0
   36.8910   27.8290   32.1290 O   0  0  0  0  0  0  0  0  0  0  0  0
   35.7510   28.5400   31.7130 C   0  0  0  0  0  0  0  0  0  0  0  0
   36.0990   29.3090   30.9640 H   0  0  0  0  0  0  0  0  0  0  0  0
   35.0730   27.8850   31.1710 H   0  0  0  0  0  0  0  0  0  0  0  0
   35.7350   29.7140   33.8700 C   0  0  0  0  0  3  0  0  0  0  0  0
   35.0950   29.2520   32.8330 C   0  0  0  0  0  3  0  0  0  0  0  0
   33.0290   30.8650   36.0570 C   0  0  0  0  0  0  0  0  0  0  0  0
   33.6990   31.7620   36.9020 C   0  0  0  0  0  0  0  0  0  0  0  0
   35.0710   31.9610   36.7080 C   0  0  0  0  0  0  0  0  0  0  0  0
   35.6280   31.2360   35.6840 N   0  0  0  0  0  0  0  0  0  0  0  0
   34.9730   30.3980   34.9060 C   0  0  0  0  0  0  0  0  0  0  0  0
   33.6710   30.2200   35.1020 N   0  0  0  0  0  0  0  0  0  0  0  0
   31.9680   30.7680   36.2720 H   0  0  0  0  0  0  0  0  0  0  0  0
   33.2930   32.3500   37.7160 H   0  0  0  0  0  0  0  0  0  0  0  0
   35.7170   32.6100   37.2680 H   0  0  0  0  0  0  0  0  0  0  0  0
  1 11  1  0  0  0  0
  2 23  1  0  0  0  0
  2  1  2  0  0  0  0
  3  2  1  0  0  0  0
  4  3  2  0  0  0  0
  4  5  1  0  0  0  0
  5  6  2  0  0  0  0
  6  1  1  0  0  0  0
  6 10  1  0  0  0  0
  7  3  1  0  0  0  0
  8  4  1  0  0  0  0
  9  5  1  0  0  0  0
 11 13  2  0  0  0  0
 11 12  2  0  0  0  0
 14 15  2  0  0  0  0
 15 21  1  0  0  0  0
 16 17  1  0  0  0  0
 16 15  1  0  0  0  0
 16 11  1  1  0  0  0
 17 19  1  0  0  0  0
 18 17  1  0  0  0  0
 19 21  1  0  0  0  0
 19 20  1  0  0  0  0
 21 22  1  0  0  0  0
 25 24  2  6  0  0  0
 25 28  1  0  0  0  0
 25 23  1  0  0  0  0
 26 25  1  0  0  0  0
 27 26  1  0  0  0  0
 29 28  1  0  0  0  0
 29 33  1  0  0  0  0
 30 29  1  0  0  0  0
 31 29  1  0  0  0  0
 32 38  1  0  0  0  0
 33 32  2  0  0  0  0
 34 40  1  0  0  0  0
 34 35  1  0  0  0  0
 35 41  1  0  0  0  0
 36 35  2  0  0  0  0
 36 42  1  0  0  0  0
 37 36  1  0  0  0  0
 38 39  1  0  0  0  0
 38 37  2  0  0  0  0
 39 34  2  0  0  0  0
M  END
>  <minimizedAffinity>
-5.25489569

$$$$

 OpenBabel03262520363D

 42 44  0  0  1  0  0  0  0  0999 V2000
   40.3170   23.4400   36.5800 C   0  0  0  0  0  0  0  0  0  0  0  0
   39.4270   24.3650   36.0110 C   0  0  0  0  0  0  0  0  0  0  0  0
   38.2030   24.6340   36.5860 C   0  0  0  0  0  0  0  0  0  0  0  0
   37.8430   23.9850   37.7390 C   0  0  0  0  0  0  0  0  0  0  0  0
   38.7010   23.0860   38.2980 C   0  0  0  0  0  0  0  0  0  0  0  0
   39.9410   22.7800   37.7610 C   0  0  0  0  0  0  0  0  0  0  0  0
   37.5720   25.3590   36.0910 H   0  0  0  0  0  0  0  0  0  0  0  0
   36.8900   24.1770   38.2100 H   0  0  0  0  0  0  0  0  0  0  0  0
   38.4010   22.5900   39.1980 H   0  0  0  0  0  0  0  0  0  0  0  0
   40.5780   22.0570   38.2520 H   0  0  0  0  0  0  0  0  0  0  0  0
   41.8760   23.0490   35.9090 S   0  0  0  0  0  0  0  0  0  0  0  0
   42.6110   22.0950   36.7720 O   0  0  0  0  0  0  0  0  0  0  0  0
   41.6490   22.4650   34.5090 O   0  0  0  0  0  0  0  0  0  0  0  0
   44.7820   24.7200   37.5480 O   0  0  0  0  0  0  0  0  0  0  0  0
   44.1220   24.3480   36.5170 C   0  0  0  0  0  0  0  0  0  0  0  0
   42.8740   24.4980   35.7240 C   0  0  1  0  0  3  0  0  0  0  0  0
   43.4390   24.4650   34.2960 C   0  0  0  0  0  3  0  0  0  0  0  0
   43.9030   25.4650   34.1340 H   0  0  0  0  0  0  0  0  0  0  0  0
   44.5340   23.4200   34.3360 C   0  0  0  0  0  3  0  0  0  0  0  0
   45.4770   23.7820   33.8410 H   0  0  0  0  0  0  0  0  0  0  0  0
   44.8580   23.3630   35.7700 N   0  0  0  0  0  0  0  0  0  0  0  0
   45.5710   22.6080   35.9800 H   0  0  0  0  0  0  0  0  0  0  0  0
   39.9260   24.9280   34.8690 O   0  0  0  0  0  0  0  0  0  0  0  0
   39.1560   27.3910   35.4400 O   0  0  0  0  0  0  0  0  0  0  0  0
   39.6830   26.5100   34.3160 P   0  0  1  0  0  0  0  0  0  0  0  0
   41.1260   27.1350   33.6540 O   0  0  0  0  0  0  0  0  0  0  0  0
   41.4390   27.8670   34.2450 H   0  0  0  0  0  0  0  0  0  0  0  0
   38.4820   26.5550   33.1120 O   0  0  0  0  0  0  0  0  0  0  0  0
   38.7670   25.5420   32.1790 C   0  0  0  0  0  0  0  0  0  0  0  0
   38.7140   26.0130   31.1550 H   0  0  0  0  0  0  0  0  0  0  0  0
   39.7920   25.1980   32.2940 H   0  0  0  0  0  0  0  0  0  0  0  0
   38.0700   23.2270   32.6080 C   0  0  0  0  0  3  0  0  0  0  0  0
   37.7800   24.4400   32.2300 C   0  0  0  0  0  3  0  0  0  0  0  0
   35.7160   20.6100   33.6320 C   0  0  0  0  0  0  0  0  0  0  0  0
   34.9770   20.4080   32.4570 C   0  0  0  0  0  0  0  0  0  0  0  0
   35.2970   21.1710   31.3290 C   0  0  0  0  0  0  0  0  0  0  0  0
   36.3290   22.0610   31.4980 N   0  0  0  0  0  0  0  0  0  0  0  0
   37.0070   22.2310   32.6160 C   0  0  0  0  0  0  0  0  0  0  0  0
   36.6910   21.4980   33.6790 N   0  0  0  0  0  0  0  0  0  0  0  0
   35.4070   19.9790   34.4620 H   0  0  0  0  0  0  0  0  0  0  0  0
   34.1600   19.7160   32.2880 H   0  0  0  0  0  0  0  0  0  0  0  0
   34.8270   21.1310   30.3650 H   0  0  0  0  0  0  0  0  0  0  0  0
  1  6  1  0  0  0  0
  2  1  2  0  0  0  0
  2  3  1  0  0  0  0
  3  4  2  0  0  0  0
  4  8  1  0  0  0  0
  4  5  1  0  0  0  0
  5  9  1  0  0  0  0
  6 10  1  0  0  0  0
  6  5  2  0  0  0  0
  7  3  1  0  0  0  0
 11  1  1  0  0  0  0
 11 12  2  0  0  0  0
 13 11  2  0  0  0  0
 15 14  2  0  0  0  0
 16 11  1  6  0  0  0
 16 15  1  0  0  0  0
 17 19  1  0  0  0  0
 17 16  1  0  0  0  0
 18 17  1  0  0  0  0
 19 21  1  0  0  0  0
 20 19  1  0  0  0  0
 21 22  1  0  0  0  0
 21 15  1  0  0  0  0
 23  2  1  0  0  0  0
 25 23  1  0  0  0  0
 25 24  2  1  0  0  0
 26 27  1  0  0  0  0
 26 25  1  0  0  0  0
 28 25  1  0  0  0  0
 29 33  1  0  0  0  0
 29 31  1  0  0  0  0
 29 28  1  0  0  0  0
 30 29  1  0  0  0  0
 32 38  1  0  0  0  0
 33 32  2  0  0  0  0
 34 39  1  0  0  0  0
 34 40  1  0  0  0  0
 35 34  2  0  0  0  0
 36 37  2  0  0  0  0
 36 35  1  0  0  0  0
 37 38  1  0  0  0  0
 38 39  2  0  0  0  0
 41 35  1  0  0  0  0
 42 36  1  0  0  0  0
M  END
>  <minimizedAffinity>
-5.23773575

$$$$
