
 OpenBabel03272504563D

 33 35  0  0  1  0  0  0  0  0999 V2000
   36.9500   31.4870   48.7150 C   0  0  1  0  0  0  0  0  0  0  0  0
   36.1540   30.8820   47.6730 C   0  0  0  0  0  0  0  0  0  0  0  0
   37.1300   30.0630   48.4500 C   0  0  2  0  0  0  0  0  0  0  0  0
   36.5350   31.7100   49.7580 H   0  0  0  0  0  0  0  0  0  0  0  0
   35.1320   31.1390   47.8560 H   0  0  0  0  0  0  0  0  0  0  0  0
   36.4530   31.1110   46.6290 H   0  0  0  0  0  0  0  0  0  0  0  0
   37.8380   29.5850   47.8060 H   0  0  0  0  0  0  0  0  0  0  0  0
   38.0970   32.3960   48.3790 C   0  0  0  0  0  0  0  0  0  0  0  0
   38.4510   33.3390   49.3720 C   0  0  0  0  0  0  0  0  0  0  0  0
   39.5040   34.1530   49.0320 C   0  0  0  0  0  0  0  0  0  0  0  0
   40.1240   34.0180   47.8140 N   0  0  0  0  0  0  0  0  0  0  0  0
   39.7480   33.1030   46.9030 C   0  0  0  0  0  0  0  0  0  0  0  0
   38.7000   32.2720   47.2070 N   0  0  0  0  0  0  0  0  0  0  0  0
   40.3780   32.9600   45.6590 N   0  0  0  0  0  0  0  0  0  0  0  0
   37.9630   33.4420   50.3260 H   0  0  0  0  0  0  0  0  0  0  0  0
   39.8530   34.9090   49.7220 H   0  0  0  0  0  0  0  0  0  0  0  0
   40.1710   32.1770   45.0300 H   0  0  0  0  0  0  0  0  0  0  0  0
   41.0830   33.6560   45.3360 H   0  0  0  0  0  0  0  0  0  0  0  0
   36.5660   29.1980   49.3990 O   0  0  0  0  0  0  0  0  0  0  0  0
   34.5800   27.5660   49.5880 O   0  0  0  0  0  0  0  0  0  0  0  0
   34.9630   28.9060   49.0480 P   0  0  1  0  0  0  0  0  0  0  0  0
   33.9790   30.0410   49.9130 O   0  0  0  0  0  0  0  0  0  0  0  0
   34.1250   29.7870   50.8590 H   0  0  0  0  0  0  0  0  0  0  0  0
   34.7190   29.0720   47.3960 O   0  0  0  0  0  0  0  0  0  0  0  0
   34.8580   28.4200   44.4790 O   0  0  0  0  0  0  0  0  0  0  0  0
   33.9620   28.3020   45.3540 C   0  0  0  0  0  0  0  0  0  0  0  0
   33.8880   28.1440   46.8310 C   0  0  2  0  0  3  0  0  0  0  0  0
   32.4470   28.5400   47.1350 C   0  0  0  0  0  3  0  0  0  0  0  0
   32.3160   29.6240   47.2180 H   0  0  0  0  0  0  0  0  0  0  0  0
   31.7250   27.9460   45.9300 C   0  0  0  0  0  3  0  0  0  0  0  0
   30.7260   28.3800   45.8500 H   0  0  0  0  0  0  0  0  0  0  0  0
   32.6230   28.3180   44.8540 N   0  0  0  0  0  0  0  0  0  0  0  0
   32.2000   28.5350   43.9100 H   0  0  0  0  0  0  0  0  0  0  0  0
  1  4  1  1  0  0  0
  2  5  1  0  0  0  0
  2  3  1  0  0  0  0
  2  1  1  0  0  0  0
  3  7  1  6  0  0  0
  3  1  1  0  0  0  0
  3 19  1  0  0  0  0
  6  2  1  0  0  0  0
  8  1  1  0  0  0  0
  8  9  1  0  0  0  0
  9 15  1  0  0  0  0
 10  9  2  0  0  0  0
 10 16  1  0  0  0  0
 11 10  1  0  0  0  0
 12 13  1  0  0  0  0
 12 11  2  0  0  0  0
 13  8  2  0  0  0  0
 14 12  1  0  0  0  0
 17 14  1  0  0  0  0
 18 14  1  0  0  0  0
 21 19  1  0  0  0  0
 21 20  2  1  0  0  0
 21 22  1  0  0  0  0
 22 23  1  0  0  0  0
 24 21  1  0  0  0  0
 25 26  2  0  0  0  0
 26 27  1  0  0  0  0
 27 28  1  0  0  0  0
 27 24  1  1  0  0  0
 28 29  1  0  0  0  0
 30 28  1  0  0  0  0
 31 30  1  0  0  0  0
 32 26  1  0  0  0  0
 32 30  1  0  0  0  0
 33 32  1  0  0  0  0
M  END
>  <minimizedAffinity>
-4.61298656

>  <minimizedRMSD>
1.29218853

$$$$
