
 OpenBabel03272504563D

 33 35  0  0  1  0  0  0  0  0999 V2000
   36.9380   31.4800   48.7130 C   0  0  1  0  0  0  0  0  0  0  0  0
   36.1440   30.8780   47.6670 C   0  0  0  0  0  0  0  0  0  0  0  0
   37.1170   30.0560   48.4440 C   0  0  2  0  0  0  0  0  0  0  0  0
   36.5190   31.7000   49.7560 H   0  0  0  0  0  0  0  0  0  0  0  0
   35.1210   31.1350   47.8480 H   0  0  0  0  0  0  0  0  0  0  0  0
   36.4460   31.1100   46.6240 H   0  0  0  0  0  0  0  0  0  0  0  0
   37.8270   29.5800   47.8000 H   0  0  0  0  0  0  0  0  0  0  0  0
   38.0850   32.3900   48.3820 C   0  0  0  0  0  0  0  0  0  0  0  0
   38.4350   33.3300   49.3780 C   0  0  0  0  0  0  0  0  0  0  0  0
   39.4900   34.1460   49.0430 C   0  0  0  0  0  0  0  0  0  0  0  0
   40.1140   34.0130   47.8270 N   0  0  0  0  0  0  0  0  0  0  0  0
   39.7410   33.0990   46.9130 C   0  0  0  0  0  0  0  0  0  0  0  0
   38.6920   32.2680   47.2120 N   0  0  0  0  0  0  0  0  0  0  0  0
   40.3750   32.9580   45.6710 N   0  0  0  0  0  0  0  0  0  0  0  0
   37.9440   33.4320   50.3300 H   0  0  0  0  0  0  0  0  0  0  0  0
   39.8360   34.9000   49.7350 H   0  0  0  0  0  0  0  0  0  0  0  0
   40.1710   32.1760   45.0400 H   0  0  0  0  0  0  0  0  0  0  0  0
   41.0820   33.6550   45.3520 H   0  0  0  0  0  0  0  0  0  0  0  0
   36.5520   29.1890   49.3890 O   0  0  0  0  0  0  0  0  0  0  0  0
   34.5640   27.5580   49.5700 O   0  0  0  0  0  0  0  0  0  0  0  0
   34.9490   28.8980   49.0330 P   0  0  1  0  0  0  0  0  0  0  0  0
   33.9630   30.0320   49.8970 O   0  0  0  0  0  0  0  0  0  0  0  0
   34.1070   29.7770   50.8430 H   0  0  0  0  0  0  0  0  0  0  0  0
   34.7100   29.0670   47.3810 O   0  0  0  0  0  0  0  0  0  0  0  0
   34.8690   28.4030   44.4670 O   0  0  0  0  0  0  0  0  0  0  0  0
   33.9660   28.2910   45.3360 C   0  0  0  0  0  0  0  0  0  0  0  0
   33.8810   28.1390   46.8120 C   0  0  2  0  0  3  0  0  0  0  0  0
   32.4390   28.5390   47.1040 C   0  0  0  0  0  3  0  0  0  0  0  0
   32.3110   29.6260   47.1820 H   0  0  0  0  0  0  0  0  0  0  0  0
   31.7240   27.9450   45.8970 C   0  0  0  0  0  3  0  0  0  0  0  0
   30.7270   28.3820   45.8070 H   0  0  0  0  0  0  0  0  0  0  0  0
   32.6320   28.3090   44.8250 N   0  0  0  0  0  0  0  0  0  0  0  0
   32.2160   28.5240   43.8770 H   0  0  0  0  0  0  0  0  0  0  0  0
  1  4  1  1  0  0  0
  2  5  1  0  0  0  0
  2  3  1  0  0  0  0
  2  1  1  0  0  0  0
  3  7  1  6  0  0  0
  3  1  1  0  0  0  0
  3 19  1  0  0  0  0
  6  2  1  0  0  0  0
  8  1  1  0  0  0  0
  8  9  1  0  0  0  0
  9 15  1  0  0  0  0
 10  9  2  0  0  0  0
 10 16  1  0  0  0  0
 11 10  1  0  0  0  0
 12 13  1  0  0  0  0
 12 11  2  0  0  0  0
 13  8  2  0  0  0  0
 14 12  1  0  0  0  0
 17 14  1  0  0  0  0
 18 14  1  0  0  0  0
 21 19  1  0  0  0  0
 21 20  2  1  0  0  0
 21 22  1  0  0  0  0
 22 23  1  0  0  0  0
 24 21  1  0  0  0  0
 25 26  2  0  0  0  0
 26 27  1  0  0  0  0
 27 28  1  0  0  0  0
 27 24  1  1  0  0  0
 28 29  1  0  0  0  0
 30 28  1  0  0  0  0
 31 30  1  0  0  0  0
 32 26  1  0  0  0  0
 32 30  1  0  0  0  0
 33 32  1  0  0  0  0
M  END
>  <minimizedAffinity>
-4.60772133

>  <minimizedRMSD>
1.32067013

$$$$
