
 OpenBabel03272504583D

 33 35  0  0  1  0  0  0  0  0999 V2000
   38.6130   25.0600   34.9280 C   0  0  1  0  0  0  0  0  0  0  0  0
   39.6040   24.8400   33.9010 C   0  0  0  0  0  0  0  0  0  0  0  0
   38.2520   24.2190   33.7920 C   0  0  2  0  0  0  0  0  0  0  0  0
   38.0010   26.0250   34.9980 H   0  0  0  0  0  0  0  0  0  0  0  0
   39.9780   25.7960   33.6010 H   0  0  0  0  0  0  0  0  0  0  0  0
   40.4290   24.1400   34.1540 H   0  0  0  0  0  0  0  0  0  0  0  0
   38.3180   23.1550   33.6970 H   0  0  0  0  0  0  0  0  0  0  0  0
   38.7290   24.3910   36.2670 C   0  0  0  0  0  0  0  0  0  0  0  0
   37.8670   24.8760   37.2780 C   0  0  0  0  0  0  0  0  0  0  0  0
   37.9990   24.2400   38.4890 C   0  0  0  0  0  0  0  0  0  0  0  0
   38.9090   23.2240   38.6470 N   0  0  0  0  0  0  0  0  0  0  0  0
   39.7070   22.7990   37.6510 C   0  0  0  0  0  0  0  0  0  0  0  0
   39.6030   23.4100   36.4270 N   0  0  0  0  0  0  0  0  0  0  0  0
   40.6360   21.7610   37.8060 N   0  0  0  0  0  0  0  0  0  0  0  0
   37.1550   25.6730   37.1510 H   0  0  0  0  0  0  0  0  0  0  0  0
   37.3870   24.5360   39.3300 H   0  0  0  0  0  0  0  0  0  0  0  0
   41.1410   21.3590   37.0100 H   0  0  0  0  0  0  0  0  0  0  0  0
   40.8400   21.3660   38.7490 H   0  0  0  0  0  0  0  0  0  0  0  0
   37.3940   24.8090   32.8530 O   0  0  0  0  0  0  0  0  0  0  0  0
   35.3100   24.0710   31.5280 O   0  0  0  0  0  0  0  0  0  0  0  0
   36.7000   23.6480   31.8800 P   0  0  1  0  0  0  0  0  0  0  0  0
   37.5510   23.5920   30.3710 O   0  0  0  0  0  0  0  0  0  0  0  0
   37.3500   24.4740   29.9680 H   0  0  0  0  0  0  0  0  0  0  0  0
   36.7870   22.1580   32.6470 O   0  0  0  0  0  0  0  0  0  0  0  0
   35.7000   20.7530   35.0540 O   0  0  0  0  0  0  0  0  0  0  0  0
   35.5780   20.5750   33.8150 C   0  0  0  0  0  0  0  0  0  0  0  0
   35.6530   21.3970   32.5790 C   0  0  2  0  0  3  0  0  0  0  0  0
   35.8450   20.3440   31.4930 C   0  0  0  0  0  3  0  0  0  0  0  0
   36.8920   20.0370   31.3840 H   0  0  0  0  0  0  0  0  0  0  0  0
   34.9510   19.2250   32.0120 C   0  0  0  0  0  3  0  0  0  0  0  0
   35.1910   18.2930   31.4990 H   0  0  0  0  0  0  0  0  0  0  0  0
   35.2860   19.2320   33.4240 N   0  0  0  0  0  0  0  0  0  0  0  0
   35.2720   18.3080   33.9400 H   0  0  0  0  0  0  0  0  0  0  0  0
  1  4  1  1  0  0  0
  1  8  1  0  0  0  0
  2  6  1  0  0  0  0
  2  1  1  0  0  0  0
  3  7  1  1  0  0  0
  3  2  1  0  0  0  0
  3  1  1  0  0  0  0
  5  2  1  0  0  0  0
  8 13  2  0  0  0  0
  8  9  1  0  0  0  0
  9 10  2  0  0  0  0
 10 11  1  0  0  0  0
 10 16  1  0  0  0  0
 12 14  1  0  0  0  0
 12 11  2  0  0  0  0
 13 12  1  0  0  0  0
 14 18  1  0  0  0  0
 15  9  1  0  0  0  0
 17 14  1  0  0  0  0
 19  3  1  0  0  0  0
 21 20  2  6  0  0  0
 21 24  1  0  0  0  0
 21 19  1  0  0  0  0
 22 21  1  0  0  0  0
 23 22  1  0  0  0  0
 26 25  2  0  0  0  0
 27 24  1  1  0  0  0
 27 26  1  0  0  0  0
 28 30  1  0  0  0  0
 28 27  1  0  0  0  0
 29 28  1  0  0  0  0
 30 32  1  0  0  0  0
 31 30  1  0  0  0  0
 32 26  1  0  0  0  0
 32 33  1  0  0  0  0
M  END
>  <minimizedAffinity>
-5.77213907

$$$$

 OpenBabel03272504583D

 33 35  0  0  1  0  0  0  0  0999 V2000
   38.6800   23.4440   36.5000 C   0  0  1  0  0  0  0  0  0  0  0  0
   38.0610   23.9430   37.7050 C   0  0  0  0  0  0  0  0  0  0  0  0
   38.4480   24.8810   36.6100 C   0  0  2  0  0  0  0  0  0  0  0  0
   38.0820   22.9460   35.6590 H   0  0  0  0  0  0  0  0  0  0  0  0
   37.1730   23.3700   37.8750 H   0  0  0  0  0  0  0  0  0  0  0  0
   38.7030   23.9800   38.6100 H   0  0  0  0  0  0  0  0  0  0  0  0
   39.1110   25.6410   36.9650 H   0  0  0  0  0  0  0  0  0  0  0  0
   40.1070   22.9780   36.5030 C   0  0  0  0  0  0  0  0  0  0  0  0
   40.9980   23.7090   35.6830 C   0  0  0  0  0  0  0  0  0  0  0  0
   42.2950   23.2560   35.7110 C   0  0  0  0  0  0  0  0  0  0  0  0
   42.6410   22.1790   36.4900 N   0  0  0  0  0  0  0  0  0  0  0  0
   41.7530   21.5170   37.2530 C   0  0  0  0  0  0  0  0  0  0  0  0
   40.4480   21.9400   37.2500 N   0  0  0  0  0  0  0  0  0  0  0  0
   42.1000   20.4180   38.0500 N   0  0  0  0  0  0  0  0  0  0  0  0
   40.7250   24.5530   35.0750 H   0  0  0  0  0  0  0  0  0  0  0  0
   43.0560   23.7450   35.1190 H   0  0  0  0  0  0  0  0  0  0  0  0
   41.4470   20.0070   38.7250 H   0  0  0  0  0  0  0  0  0  0  0  0
   43.0440   19.9830   37.9750 H   0  0  0  0  0  0  0  0  0  0  0  0
   37.3860   25.3800   35.8440 O   0  0  0  0  0  0  0  0  0  0  0  0
   36.6000   27.6320   34.8670 O   0  0  0  0  0  0  0  0  0  0  0  0
   37.8220   26.8020   35.0930 P   0  0  1  0  0  0  0  0  0  0  0  0
   38.8070   27.7340   36.1730 O   0  0  0  0  0  0  0  0  0  0  0  0
   38.1800   27.9660   36.9030 H   0  0  0  0  0  0  0  0  0  0  0  0
   38.6760   26.4500   33.6930 O   0  0  0  0  0  0  0  0  0  0  0  0
   36.4650   25.1550   32.1470 O   0  0  0  0  0  0  0  0  0  0  0  0
   37.3650   25.9810   31.8490 C   0  0  0  0  0  0  0  0  0  0  0  0
   38.1810   27.0100   32.5470 C   0  0  2  0  0  3  0  0  0  0  0  0
   39.3380   27.2280   31.5790 C   0  0  0  0  0  3  0  0  0  0  0  0
   40.1320   26.4820   31.6960 H   0  0  0  0  0  0  0  0  0  0  0  0
   38.6190   27.1230   30.2400 C   0  0  0  0  0  3  0  0  0  0  0  0
   39.3470   26.9770   29.4410 H   0  0  0  0  0  0  0  0  0  0  0  0
   37.7550   25.9810   30.4750 N   0  0  0  0  0  0  0  0  0  0  0  0
   37.5450   25.3440   29.6570 H   0  0  0  0  0  0  0  0  0  0  0  0
  1  4  1  6  0  0  0
  1  8  1  0  0  0  0
  1  3  1  0  0  0  0
  1  2  1  0  0  0  0
  2  5  1  0  0  0  0
  2  6  1  0  0  0  0
  3  7  1  1  0  0  0
  3  2  1  0  0  0  0
  8 13  1  0  0  0  0
  9 10  1  0  0  0  0
  9  8  2  0  0  0  0
 10 11  2  0  0  0  0
 11 12  1  0  0  0  0
 12 14  1  0  0  0  0
 13 12  2  0  0  0  0
 14 17  1  0  0  0  0
 15  9  1  0  0  0  0
 16 10  1  0  0  0  0
 18 14  1  0  0  0  0
 19  3  1  0  0  0  0
 21 20  2  6  0  0  0
 21 19  1  0  0  0  0
 21 22  1  0  0  0  0
 22 23  1  0  0  0  0
 24 21  1  0  0  0  0
 26 25  2  0  0  0  0
 26 27  1  0  0  0  0
 27 24  1  1  0  0  0
 28 29  1  0  0  0  0
 28 27  1  0  0  0  0
 30 32  1  0  0  0  0
 30 28  1  0  0  0  0
 31 30  1  0  0  0  0
 32 26  1  0  0  0  0
 33 32  1  0  0  0  0
M  END
>  <minimizedAffinity>
-5.44755793

$$$$

 OpenBabel03272504583D

 33 35  0  0  1  0  0  0  0  0999 V2000
   37.8660   25.5210   34.9120 C   0  0  1  0  0  0  0  0  0  0  0  0
   38.4910   26.6030   34.1880 C   0  0  0  0  0  0  0  0  0  0  0  0
   37.9080   25.4410   33.4550 C   0  0  2  0  0  0  0  0  0  0  0  0
   36.8050   25.5940   35.3370 H   0  0  0  0  0  0  0  0  0  0  0  0
   38.0590   27.5180   34.5360 H   0  0  0  0  0  0  0  0  0  0  0  0
   39.6000   26.6390   34.2160 H   0  0  0  0  0  0  0  0  0  0  0  0
   38.6370   24.9690   32.8300 H   0  0  0  0  0  0  0  0  0  0  0  0
   38.6920   24.5270   35.6770 C   0  0  0  0  0  0  0  0  0  0  0  0
   39.8890   24.1060   35.0510 C   0  0  0  0  0  0  0  0  0  0  0  0
   40.6210   23.1990   35.7790 C   0  0  0  0  0  0  0  0  0  0  0  0
   40.1780   22.7720   37.0070 N   0  0  0  0  0  0  0  0  0  0  0  0
   39.0300   23.2040   37.5580 C   0  0  0  0  0  0  0  0  0  0  0  0
   38.2730   24.1110   36.8610 N   0  0  0  0  0  0  0  0  0  0  0  0
   38.5740   22.7730   38.8110 N   0  0  0  0  0  0  0  0  0  0  0  0
   40.2330   24.4430   34.0890 H   0  0  0  0  0  0  0  0  0  0  0  0
   41.5520   22.8120   35.3900 H   0  0  0  0  0  0  0  0  0  0  0  0
   37.7710   23.2060   39.2780 H   0  0  0  0  0  0  0  0  0  0  0  0
   39.0470   21.9880   39.3080 H   0  0  0  0  0  0  0  0  0  0  0  0
   36.6930   25.6910   32.8030 O   0  0  0  0  0  0  0  0  0  0  0  0
   35.2210   24.9680   30.8140 O   0  0  0  0  0  0  0  0  0  0  0  0
   36.5870   24.7990   31.3980 P   0  0  1  0  0  0  0  0  0  0  0  0
   37.6680   25.4680   30.2200 O   0  0  0  0  0  0  0  0  0  0  0  0
   37.2760   26.3570   30.0360 H   0  0  0  0  0  0  0  0  0  0  0  0
   36.9980   23.2060   31.7220 O   0  0  0  0  0  0  0  0  0  0  0  0
   37.3290   21.6280   34.2430 O   0  0  0  0  0  0  0  0  0  0  0  0
   36.5650   21.5270   33.2490 C   0  0  0  0  0  0  0  0  0  0  0  0
   35.9870   22.4280   32.2170 C   0  0  2  0  0  3  0  0  0  0  0  0
   35.5550   21.4510   31.1290 C   0  0  0  0  0  3  0  0  0  0  0  0
   36.3790   21.1720   30.4620 H   0  0  0  0  0  0  0  0  0  0  0  0
   35.0540   20.2840   31.9700 C   0  0  0  0  0  3  0  0  0  0  0  0
   34.9690   19.3910   31.3490 H   0  0  0  0  0  0  0  0  0  0  0  0
   36.0870   20.2070   32.9860 N   0  0  0  0  0  0  0  0  0  0  0  0
   36.3320   19.2520   33.3700 H   0  0  0  0  0  0  0  0  0  0  0  0
  1  4  1  1  0  0  0
  1  8  1  0  0  0  0
  2  6  1  0  0  0  0
  2  5  1  0  0  0  0
  2  1  1  0  0  0  0
  3  7  1  6  0  0  0
  3  2  1  0  0  0  0
  3  1  1  0  0  0  0
  8 13  1  0  0  0  0
  9  8  2  0  0  0  0
  9 10  1  0  0  0  0
 10 11  2  0  0  0  0
 11 12  1  0  0  0  0
 12 14  1  0  0  0  0
 13 12  2  0  0  0  0
 14 17  1  0  0  0  0
 14 18  1  0  0  0  0
 15  9  1  0  0  0  0
 16 10  1  0  0  0  0
 19  3  1  0  0  0  0
 21 20  2  6  0  0  0
 21 24  1  0  0  0  0
 21 19  1  0  0  0  0
 22 21  1  0  0  0  0
 23 22  1  0  0  0  0
 26 25  2  0  0  0  0
 27 24  1  6  0  0  0
 27 26  1  0  0  0  0
 28 30  1  0  0  0  0
 28 27  1  0  0  0  0
 29 28  1  0  0  0  0
 30 32  1  0  0  0  0
 31 30  1  0  0  0  0
 32 26  1  0  0  0  0
 32 33  1  0  0  0  0
M  END
>  <minimizedAffinity>
-5.25239801

$$$$

 OpenBabel03272504583D

 33 35  0  0  1  0  0  0  0  0999 V2000
   37.7710   26.2100   35.6710 C   0  0  1  0  0  0  0  0  0  0  0  0
   38.4070   27.5060   35.6810 C   0  0  0  0  0  0  0  0  0  0  0  0
   38.1390   26.8070   34.3910 C   0  0  2  0  0  0  0  0  0  0  0  0
   36.6420   26.0750   35.8060 H   0  0  0  0  0  0  0  0  0  0  0  0
   37.8040   28.1580   36.2790 H   0  0  0  0  0  0  0  0  0  0  0  0
   39.4710   27.5310   35.9960 H   0  0  0  0  0  0  0  0  0  0  0  0
   39.0370   26.6760   33.8240 H   0  0  0  0  0  0  0  0  0  0  0  0
   38.5210   24.9800   36.0950 C   0  0  0  0  0  0  0  0  0  0  0  0
   39.5490   24.5520   35.2240 C   0  0  0  0  0  0  0  0  0  0  0  0
   40.2160   23.4260   35.6440 C   0  0  0  0  0  0  0  0  0  0  0  0
   39.8700   22.8090   36.8210 N   0  0  0  0  0  0  0  0  0  0  0  0
   38.8820   23.2580   37.6150 C   0  0  0  0  0  0  0  0  0  0  0  0
   38.1930   24.3810   37.2290 N   0  0  0  0  0  0  0  0  0  0  0  0
   38.5250   22.6340   38.8180 N   0  0  0  0  0  0  0  0  0  0  0  0
   39.8180   25.0370   34.3020 H   0  0  0  0  0  0  0  0  0  0  0  0
   41.0200   23.0150   35.0490 H   0  0  0  0  0  0  0  0  0  0  0  0
   37.8640   23.0580   39.4770 H   0  0  0  0  0  0  0  0  0  0  0  0
   38.9280   21.7080   39.0770 H   0  0  0  0  0  0  0  0  0  0  0  0
   37.0750   27.3210   33.6380 O   0  0  0  0  0  0  0  0  0  0  0  0
   37.2190   28.8250   31.5490 O   0  0  0  0  0  0  0  0  0  0  0  0
   37.4960   27.4360   32.0290 P   0  0  1  0  0  0  0  0  0  0  0  0
   39.2110   27.2390   31.8780 O   0  0  0  0  0  0  0  0  0  0  0  0
   39.5690   28.0410   32.3350 H   0  0  0  0  0  0  0  0  0  0  0  0
   36.6980   26.2420   31.1620 O   0  0  0  0  0  0  0  0  0  0  0  0
   38.7830   24.1710   31.7250 O   0  0  0  0  0  0  0  0  0  0  0  0
   37.5270   24.1470   31.6730 C   0  0  0  0  0  0  0  0  0  0  0  0
   36.4050   25.1050   31.8640 C   0  0  2  0  0  3  0  0  0  0  0  0
   35.2450   24.3980   31.1720 C   0  0  0  0  0  3  0  0  0  0  0  0
   35.2370   24.5630   30.0880 H   0  0  0  0  0  0  0  0  0  0  0  0
   35.5240   22.9480   31.5470 C   0  0  0  0  0  3  0  0  0  0  0  0
   34.9480   22.2830   30.9020 H   0  0  0  0  0  0  0  0  0  0  0  0
   36.9590   22.8780   31.3460 N   0  0  0  0  0  0  0  0  0  0  0  0
   37.3670   21.9620   31.0070 H   0  0  0  0  0  0  0  0  0  0  0  0
  1  2  1  0  0  0  0
  1  4  1  1  0  0  0
  1  8  1  0  0  0  0
  2  6  1  0  0  0  0
  2  5  1  0  0  0  0
  3  7  1  6  0  0  0
  3  1  1  0  0  0  0
  3  2  1  0  0  0  0
  8 13  1  0  0  0  0
  9 10  1  0  0  0  0
  9  8  2  0  0  0  0
 10 11  2  0  0  0  0
 11 12  1  0  0  0  0
 12 14  1  0  0  0  0
 13 12  2  0  0  0  0
 14 18  1  0  0  0  0
 14 17  1  0  0  0  0
 15  9  1  0  0  0  0
 16 10  1  0  0  0  0
 19  3  1  0  0  0  0
 21 20  2  6  0  0  0
 21 19  1  0  0  0  0
 22 21  1  0  0  0  0
 22 23  1  0  0  0  0
 24 21  1  0  0  0  0
 26 25  2  0  0  0  0
 26 27  1  0  0  0  0
 27 24  1  6  0  0  0
 28 30  1  0  0  0  0
 28 27  1  0  0  0  0
 29 28  1  0  0  0  0
 31 30  1  0  0  0  0
 32 30  1  0  0  0  0
 32 26  1  0  0  0  0
 33 32  1  0  0  0  0
M  END
>  <minimizedAffinity>
-5.23958206

$$$$

 OpenBabel03272504583D

 33 35  0  0  1  0  0  0  0  0999 V2000
   36.4600   27.5880   32.6790 C   0  0  1  0  0  0  0  0  0  0  0  0
   37.5410   27.4500   31.7300 C   0  0  0  0  0  0  0  0  0  0  0  0
   37.8240   27.5070   33.1940 C   0  0  2  0  0  0  0  0  0  0  0  0
   35.7990   26.7070   32.9920 H   0  0  0  0  0  0  0  0  0  0  0  0
   37.3000   26.6350   31.0800 H   0  0  0  0  0  0  0  0  0  0  0  0
   37.8140   28.3620   31.1580 H   0  0  0  0  0  0  0  0  0  0  0  0
   38.4990   28.3030   33.4300 H   0  0  0  0  0  0  0  0  0  0  0  0
   35.7420   28.8960   32.8430 C   0  0  0  0  0  0  0  0  0  0  0  0
   35.6720   29.4010   34.1620 C   0  0  0  0  0  0  0  0  0  0  0  0
   35.0090   30.6000   34.2760 C   0  0  0  0  0  0  0  0  0  0  0  0
   34.4790   31.2110   33.1660 N   0  0  0  0  0  0  0  0  0  0  0  0
   34.5730   30.6860   31.9310 C   0  0  0  0  0  0  0  0  0  0  0  0
   35.2280   29.4910   31.7790 N   0  0  0  0  0  0  0  0  0  0  0  0
   34.0350   31.3060   30.7950 N   0  0  0  0  0  0  0  0  0  0  0  0
   36.0890   28.9200   35.0300 H   0  0  0  0  0  0  0  0  0  0  0  0
   34.8990   31.0720   35.2420 H   0  0  0  0  0  0  0  0  0  0  0  0
   34.2260   30.9660   29.8470 H   0  0  0  0  0  0  0  0  0  0  0  0
   33.4160   32.1400   30.8860 H   0  0  0  0  0  0  0  0  0  0  0  0
   38.1720   26.2850   33.7860 O   0  0  0  0  0  0  0  0  0  0  0  0
   40.5180   27.0050   34.5760 O   0  0  0  0  0  0  0  0  0  0  0  0
   39.1940   26.5310   35.0810 P   0  0  1  0  0  0  0  0  0  0  0  0
   38.5840   27.8380   36.0430 O   0  0  0  0  0  0  0  0  0  0  0  0
   38.6750   28.6190   35.4420 H   0  0  0  0  0  0  0  0  0  0  0  0
   39.2740   25.1280   35.9970 O   0  0  0  0  0  0  0  0  0  0  0  0
   37.9470   24.5590   38.6170 O   0  0  0  0  0  0  0  0  0  0  0  0
   37.9080   24.0100   37.4870 C   0  0  0  0  0  0  0  0  0  0  0  0
   38.1130   24.4080   36.0690 C   0  0  2  0  0  3  0  0  0  0  0  0
   38.3330   23.0680   35.3770 C   0  0  0  0  0  3  0  0  0  0  0  0
   39.3700   22.7190   35.4550 H   0  0  0  0  0  0  0  0  0  0  0  0
   37.3520   22.1840   36.1360 C   0  0  0  0  0  3  0  0  0  0  0  0
   37.5850   21.1340   35.9550 H   0  0  0  0  0  0  0  0  0  0  0  0
   37.5820   22.6190   37.5010 N   0  0  0  0  0  0  0  0  0  0  0  0
   37.4870   21.9000   38.2710 H   0  0  0  0  0  0  0  0  0  0  0  0
  1  8  1  0  0  0  0
  1  4  1  1  0  0  0
  1  3  1  0  0  0  0
  2  1  1  0  0  0  0
  2  3  1  0  0  0  0
  3  7  1  1  0  0  0
  3 19  1  0  0  0  0
  5  2  1  0  0  0  0
  6  2  1  0  0  0  0
  8  9  1  0  0  0  0
  9 10  2  0  0  0  0
  9 15  1  0  0  0  0
 10 16  1  0  0  0  0
 11 10  1  0  0  0  0
 12 11  2  0  0  0  0
 13 12  1  0  0  0  0
 13  8  2  0  0  0  0
 14 18  1  0  0  0  0
 14 12  1  0  0  0  0
 17 14  1  0  0  0  0
 19 21  1  0  0  0  0
 21 20  2  6  0  0  0
 21 24  1  0  0  0  0
 21 22  1  0  0  0  0
 23 22  1  0  0  0  0
 26 32  1  0  0  0  0
 26 25  2  0  0  0  0
 27 24  1  1  0  0  0
 27 26  1  0  0  0  0
 28 29  1  0  0  0  0
 28 27  1  0  0  0  0
 28 30  1  0  0  0  0
 30 32  1  0  0  0  0
 31 30  1  0  0  0  0
 32 33  1  0  0  0  0
M  END
>  <minimizedAffinity>
-5.21100044

$$$$

 OpenBabel03272504583D

 33 35  0  0  1  0  0  0  0  0999 V2000
   36.1830   27.1260   32.2540 C   0  0  1  0  0  0  0  0  0  0  0  0
   36.3460   25.7320   31.9120 C   0  0  0  0  0  0  0  0  0  0  0  0
   37.2840   26.3900   32.8680 C   0  0  2  0  0  0  0  0  0  0  0  0
   35.4000   27.4900   33.0050 H   0  0  0  0  0  0  0  0  0  0  0  0
   35.4010   25.2510   32.0560 H   0  0  0  0  0  0  0  0  0  0  0  0
   36.7660   25.5170   30.9070 H   0  0  0  0  0  0  0  0  0  0  0  0
   38.2990   26.3040   32.5390 H   0  0  0  0  0  0  0  0  0  0  0  0
   36.5420   28.2060   31.2750 C   0  0  0  0  0  0  0  0  0  0  0  0
   36.2830   29.5320   31.6940 C   0  0  0  0  0  0  0  0  0  0  0  0
   36.6250   30.4940   30.7740 C   0  0  0  0  0  0  0  0  0  0  0  0
   37.1700   30.1400   29.5640 N   0  0  0  0  0  0  0  0  0  0  0  0
   37.3970   28.8610   29.2140 C   0  0  0  0  0  0  0  0  0  0  0  0
   37.0680   27.8720   30.1070 N   0  0  0  0  0  0  0  0  0  0  0  0
   37.9530   28.4940   27.9820 N   0  0  0  0  0  0  0  0  0  0  0  0
   35.8560   29.8060   32.6420 H   0  0  0  0  0  0  0  0  0  0  0  0
   36.4670   31.5400   30.9960 H   0  0  0  0  0  0  0  0  0  0  0  0
   38.2430   27.5310   27.7800 H   0  0  0  0  0  0  0  0  0  0  0  0
   38.0890   29.2000   27.2270 H   0  0  0  0  0  0  0  0  0  0  0  0
   37.1050   26.0510   34.2160 O   0  0  0  0  0  0  0  0  0  0  0  0
   39.4210   27.1750   34.3360 O   0  0  0  0  0  0  0  0  0  0  0  0
   38.2320   26.8230   35.1700 P   0  0  1  0  0  0  0  0  0  0  0  0
   37.5840   28.3420   35.6960 O   0  0  0  0  0  0  0  0  0  0  0  0
   37.5090   28.8560   34.8530 H   0  0  0  0  0  0  0  0  0  0  0  0
   38.5890   25.8580   36.4960 O   0  0  0  0  0  0  0  0  0  0  0  0
   37.6370   24.1390   38.7520 O   0  0  0  0  0  0  0  0  0  0  0  0
   38.2400   23.9020   37.6730 C   0  0  0  0  0  0  0  0  0  0  0  0
   38.3570   24.5200   36.3260 C   0  0  2  0  0  3  0  0  0  0  0  0
   39.6240   23.8780   35.7760 C   0  0  0  0  0  3  0  0  0  0  0  0
   40.5350   24.3830   36.1160 H   0  0  0  0  0  0  0  0  0  0  0  0
   39.4930   22.4620   36.3240 C   0  0  0  0  0  3  0  0  0  0  0  0
   40.4540   21.9500   36.2570 H   0  0  0  0  0  0  0  0  0  0  0  0
   39.0530   22.7280   37.6810 N   0  0  0  0  0  0  0  0  0  0  0  0
   39.3700   22.0650   38.4420 H   0  0  0  0  0  0  0  0  0  0  0  0
  1  3  1  0  0  0  0
  1  4  1  1  0  0  0
  2  5  1  0  0  0  0
  2  1  1  0  0  0  0
  2  3  1  0  0  0  0
  3  7  1  6  0  0  0
  3 19  1  0  0  0  0
  6  2  1  0  0  0  0
  8  9  1  0  0  0  0
  8  1  1  0  0  0  0
  9 15  1  0  0  0  0
 10 16  1  0  0  0  0
 10  9  2  0  0  0  0
 11 10  1  0  0  0  0
 12 11  2  0  0  0  0
 12 13  1  0  0  0  0
 13  8  2  0  0  0  0
 14 12  1  0  0  0  0
 17 14  1  0  0  0  0
 18 14  1  0  0  0  0
 19 21  1  0  0  0  0
 21 20  2  6  0  0  0
 21 22  1  0  0  0  0
 21 24  1  0  0  0  0
 23 22  1  0  0  0  0
 26 32  1  0  0  0  0
 26 25  2  0  0  0  0
 27 24  1  1  0  0  0
 27 26  1  0  0  0  0
 28 29  1  0  0  0  0
 28 30  1  0  0  0  0
 28 27  1  0  0  0  0
 30 32  1  0  0  0  0
 31 30  1  0  0  0  0
 32 33  1  0  0  0  0
M  END
>  <minimizedAffinity>
-5.20046234

$$$$

 OpenBabel03272504583D

 33 35  0  0  1  0  0  0  0  0999 V2000
   37.9030   26.1360   35.5890 C   0  0  1  0  0  0  0  0  0  0  0  0
   38.5050   27.4210   35.8540 C   0  0  0  0  0  0  0  0  0  0  0  0
   38.5210   26.8500   34.4760 C   0  0  2  0  0  0  0  0  0  0  0  0
   36.7730   25.9960   35.4720 H   0  0  0  0  0  0  0  0  0  0  0  0
   37.7830   28.0170   36.3730 H   0  0  0  0  0  0  0  0  0  0  0  0
   39.4810   27.4080   36.3850 H   0  0  0  0  0  0  0  0  0  0  0  0
   39.5200   26.7690   34.0990 H   0  0  0  0  0  0  0  0  0  0  0  0
   38.5650   24.8670   36.0410 C   0  0  0  0  0  0  0  0  0  0  0  0
   39.4620   24.2750   35.1210 C   0  0  0  0  0  0  0  0  0  0  0  0
   40.0510   23.1170   35.5680 C   0  0  0  0  0  0  0  0  0  0  0  0
   39.7560   22.6210   36.8140 N   0  0  0  0  0  0  0  0  0  0  0  0
   38.8940   23.2240   37.6530 C   0  0  0  0  0  0  0  0  0  0  0  0
   38.2870   24.3830   37.2410 N   0  0  0  0  0  0  0  0  0  0  0  0
   38.5910   22.7240   38.9260 N   0  0  0  0  0  0  0  0  0  0  0  0
   39.6910   24.6650   34.1450 H   0  0  0  0  0  0  0  0  0  0  0  0
   40.7520   22.5840   34.9400 H   0  0  0  0  0  0  0  0  0  0  0  0
   38.0380   23.2580   39.6040 H   0  0  0  0  0  0  0  0  0  0  0  0
   38.9230   21.7810   39.2210 H   0  0  0  0  0  0  0  0  0  0  0  0
   37.6300   27.4420   33.5700 O   0  0  0  0  0  0  0  0  0  0  0  0
   38.8780   25.9670   31.8640 O   0  0  0  0  0  0  0  0  0  0  0  0
   37.5330   26.5420   32.1700 P   0  0  1  0  0  0  0  0  0  0  0  0
   36.5080   25.1720   32.4480 O   0  0  0  0  0  0  0  0  0  0  0  0
   37.0210   24.6400   33.1070 H   0  0  0  0  0  0  0  0  0  0  0  0
   36.9020   27.4950   30.9430 O   0  0  0  0  0  0  0  0  0  0  0  0
   34.7160   29.0480   32.2720 O   0  0  0  0  0  0  0  0  0  0  0  0
   35.6500   29.3580   31.4890 C   0  0  0  0  0  0  0  0  0  0  0  0
   37.0010   28.8460   31.1390 C   0  0  2  0  0  3  0  0  0  0  0  0
   37.2680   29.5090   29.7930 C   0  0  0  0  0  3  0  0  0  0  0  0
   36.8160   28.9640   28.9570 H   0  0  0  0  0  0  0  0  0  0  0  0
   36.6400   30.8790   30.0150 C   0  0  0  0  0  3  0  0  0  0  0  0
   36.4970   31.3790   29.0560 H   0  0  0  0  0  0  0  0  0  0  0  0
   35.4070   30.5150   30.6880 N   0  0  0  0  0  0  0  0  0  0  0  0
   34.5510   31.1110   30.5070 H   0  0  0  0  0  0  0  0  0  0  0  0
  1  4  1  6  0  0  0
  1  2  1  0  0  0  0
  1  8  1  0  0  0  0
  2  5  1  0  0  0  0
  2  6  1  0  0  0  0
  3  7  1  6  0  0  0
  3  1  1  0  0  0  0
  3  2  1  0  0  0  0
  8 13  1  0  0  0  0
  9 10  1  0  0  0  0
  9  8  2  0  0  0  0
 10 11  2  0  0  0  0
 11 12  1  0  0  0  0
 12 14  1  0  0  0  0
 13 12  2  0  0  0  0
 14 18  1  0  0  0  0
 14 17  1  0  0  0  0
 15  9  1  0  0  0  0
 16 10  1  0  0  0  0
 19  3  1  0  0  0  0
 21 20  2  6  0  0  0
 21 22  1  0  0  0  0
 21 19  1  0  0  0  0
 22 23  1  0  0  0  0
 24 21  1  0  0  0  0
 26 25  2  0  0  0  0
 27 24  1  6  0  0  0
 27 26  1  0  0  0  0
 28 30  1  0  0  0  0
 28 27  1  0  0  0  0
 29 28  1  0  0  0  0
 30 32  1  0  0  0  0
 31 30  1  0  0  0  0
 32 26  1  0  0  0  0
 33 32  1  0  0  0  0
M  END
>  <minimizedAffinity>
-5.16700315

$$$$

 OpenBabel03272504583D

 33 35  0  0  1  0  0  0  0  0999 V2000
   36.7320   23.1110   31.2900 C   0  0  1  0  0  0  0  0  0  0  0  0
   35.8440   24.2280   31.0660 C   0  0  0  0  0  0  0  0  0  0  0  0
   36.8330   24.2620   32.1820 C   0  0  2  0  0  0  0  0  0  0  0  0
   37.6720   22.9340   30.6610 H   0  0  0  0  0  0  0  0  0  0  0  0
   35.9220   24.5010   30.0340 H   0  0  0  0  0  0  0  0  0  0  0  0
   34.7860   24.0860   31.3720 H   0  0  0  0  0  0  0  0  0  0  0  0
   36.3520   24.4240   33.1250 H   0  0  0  0  0  0  0  0  0  0  0  0
   36.2210   21.8280   31.8810 C   0  0  0  0  0  0  0  0  0  0  0  0
   35.9060   20.8050   30.9570 C   0  0  0  0  0  0  0  0  0  0  0  0
   35.4440   19.6450   31.5320 C   0  0  0  0  0  0  0  0  0  0  0  0
   35.3190   19.5450   32.8960 N   0  0  0  0  0  0  0  0  0  0  0  0
   35.6340   20.5510   33.7320 C   0  0  0  0  0  0  0  0  0  0  0  0
   36.0990   21.7240   33.1940 N   0  0  0  0  0  0  0  0  0  0  0  0
   35.5100   20.4540   35.1240 N   0  0  0  0  0  0  0  0  0  0  0  0
   36.0050   20.8860   29.8890 H   0  0  0  0  0  0  0  0  0  0  0  0
   35.1730   18.8000   30.9140 H   0  0  0  0  0  0  0  0  0  0  0  0
   35.8750   21.1740   35.7550 H   0  0  0  0  0  0  0  0  0  0  0  0
   35.0350   19.6350   35.5610 H   0  0  0  0  0  0  0  0  0  0  0  0
   37.9460   25.0880   31.9750 O   0  0  0  0  0  0  0  0  0  0  0  0
   40.1410   24.6160   33.2400 O   0  0  0  0  0  0  0  0  0  0  0  0
   38.8090   25.2770   33.3880 P   0  0  1  0  0  0  0  0  0  0  0  0
   39.1620   26.9590   33.6160 O   0  0  0  0  0  0  0  0  0  0  0  0
   39.7750   27.1610   32.8660 H   0  0  0  0  0  0  0  0  0  0  0  0
   37.8990   24.6990   34.6740 O   0  0  0  0  0  0  0  0  0  0  0  0
   38.5120   21.8330   35.2760 O   0  0  0  0  0  0  0  0  0  0  0  0
   38.4480   22.8740   35.9790 C   0  0  0  0  0  0  0  0  0  0  0  0
   38.6140   24.3390   35.7830 C   0  0  2  0  0  3  0  0  0  0  0  0
   37.9210   24.9170   37.0110 C   0  0  0  0  0  3  0  0  0  0  0  0
   36.8350   24.9970   36.8850 H   0  0  0  0  0  0  0  0  0  0  0  0
   38.3200   23.9020   38.0750 C   0  0  0  0  0  3  0  0  0  0  0  0
   37.6800   24.0140   38.9500 H   0  0  0  0  0  0  0  0  0  0  0  0
   38.1340   22.6560   37.3550 N   0  0  0  0  0  0  0  0  0  0  0  0
   37.8120   21.8110   37.9050 H   0  0  0  0  0  0  0  0  0  0  0  0
  1  4  1  6  0  0  0
  1  8  1  0  0  0  0
  1  3  1  0  0  0  0
  2  1  1  0  0  0  0
  2  6  1  0  0  0  0
  2  3  1  0  0  0  0
  3  7  1  1  0  0  0
  5  2  1  0  0  0  0
  8 13  1  0  0  0  0
  9 10  1  0  0  0  0
  9  8  2  0  0  0  0
 10 11  2  0  0  0  0
 11 12  1  0  0  0  0
 12 14  1  0  0  0  0
 13 12  2  0  0  0  0
 14 18  1  0  0  0  0
 14 17  1  0  0  0  0
 15  9  1  0  0  0  0
 16 10  1  0  0  0  0
 19  3  1  0  0  0  0
 19 21  1  0  0  0  0
 21 20  2  6  0  0  0
 21 22  1  0  0  0  0
 21 24  1  0  0  0  0
 23 22  1  0  0  0  0
 25 26  2  0  0  0  0
 26 32  1  0  0  0  0
 27 24  1  6  0  0  0
 27 26  1  0  0  0  0
 27 28  1  0  0  0  0
 28 30  1  0  0  0  0
 29 28  1  0  0  0  0
 30 31  1  0  0  0  0
 32 33  1  0  0  0  0
 32 30  1  0  0  0  0
M  END
>  <minimizedAffinity>
-5.15672207

$$$$

 OpenBabel03272504583D

 33 35  0  0  1  0  0  0  0  0999 V2000
   37.7670   25.9530   36.0170 C   0  0  1  0  0  0  0  0  0  0  0  0
   38.5160   27.1370   35.6650 C   0  0  0  0  0  0  0  0  0  0  0  0
   38.0430   26.1990   34.6040 C   0  0  2  0  0  0  0  0  0  0  0  0
   36.6530   25.9840   36.2780 H   0  0  0  0  0  0  0  0  0  0  0  0
   38.0470   27.9720   36.1420 H   0  0  0  0  0  0  0  0  0  0  0  0
   39.6070   27.1080   35.8710 H   0  0  0  0  0  0  0  0  0  0  0  0
   38.8570   25.8420   34.0080 H   0  0  0  0  0  0  0  0  0  0  0  0
   38.4440   24.7740   36.6520 C   0  0  0  0  0  0  0  0  0  0  0  0
   38.0410   24.4670   37.9730 C   0  0  0  0  0  0  0  0  0  0  0  0
   38.6790   23.3810   38.5230 C   0  0  0  0  0  0  0  0  0  0  0  0
   39.6220   22.6890   37.8030 N   0  0  0  0  0  0  0  0  0  0  0  0
   39.9690   23.0220   36.5470 C   0  0  0  0  0  0  0  0  0  0  0  0
   39.3530   24.1010   35.9650 N   0  0  0  0  0  0  0  0  0  0  0  0
   40.9290   22.3190   35.8070 N   0  0  0  0  0  0  0  0  0  0  0  0
   37.3020   25.0110   38.5340 H   0  0  0  0  0  0  0  0  0  0  0  0
   38.4440   23.0630   39.5290 H   0  0  0  0  0  0  0  0  0  0  0  0
   41.0900   22.4990   34.8110 H   0  0  0  0  0  0  0  0  0  0  0  0
   41.5150   21.5830   36.2580 H   0  0  0  0  0  0  0  0  0  0  0  0
   36.9530   26.6500   33.8470 O   0  0  0  0  0  0  0  0  0  0  0  0
   38.3490   25.4630   32.0340 O   0  0  0  0  0  0  0  0  0  0  0  0
   37.2540   26.4630   32.2180 P   0  0  1  0  0  0  0  0  0  0  0  0
   35.8630   25.7540   31.4640 O   0  0  0  0  0  0  0  0  0  0  0  0
   35.8290   24.8500   31.8640 H   0  0  0  0  0  0  0  0  0  0  0  0
   37.5770   27.9630   31.5390 O   0  0  0  0  0  0  0  0  0  0  0  0
   37.4540   28.9100   28.7040 O   0  0  0  0  0  0  0  0  0  0  0  0
   36.8700   29.2580   29.7620 C   0  0  0  0  0  0  0  0  0  0  0  0
   36.4870   28.6350   31.0560 C   0  0  2  0  0  3  0  0  0  0  0  0
   36.2360   29.8470   31.9460 C   0  0  0  0  0  3  0  0  0  0  0  0
   37.1590   30.2480   32.3820 H   0  0  0  0  0  0  0  0  0  0  0  0
   35.5850   30.8040   30.9560 C   0  0  0  0  0  3  0  0  0  0  0  0
   35.5970   31.8170   31.3590 H   0  0  0  0  0  0  0  0  0  0  0  0
   36.4280   30.6160   29.7900 N   0  0  0  0  0  0  0  0  0  0  0  0
   36.5940   31.4510   29.1610 H   0  0  0  0  0  0  0  0  0  0  0  0
  1  4  1  1  0  0  0
  1  8  1  0  0  0  0
  2  6  1  0  0  0  0
  2  1  1  0  0  0  0
  2  5  1  0  0  0  0
  3  7  1  6  0  0  0
  3  2  1  0  0  0  0
  3  1  1  0  0  0  0
  8  9  1  0  0  0  0
  9 10  2  0  0  0  0
  9 15  1  0  0  0  0
 10 16  1  0  0  0  0
 11 10  1  0  0  0  0
 12 11  2  0  0  0  0
 13 12  1  0  0  0  0
 13  8  2  0  0  0  0
 14 18  1  0  0  0  0
 14 12  1  0  0  0  0
 17 14  1  0  0  0  0
 19  3  1  0  0  0  0
 21 20  2  6  0  0  0
 21 19  1  0  0  0  0
 22 23  1  0  0  0  0
 22 21  1  0  0  0  0
 24 21  1  0  0  0  0
 25 26  2  0  0  0  0
 26 32  1  0  0  0  0
 26 27  1  0  0  0  0
 27 24  1  1  0  0  0
 27 28  1  0  0  0  0
 28 29  1  0  0  0  0
 30 31  1  0  0  0  0
 30 28  1  0  0  0  0
 32 30  1  0  0  0  0
 33 32  1  0  0  0  0
M  END
>  <minimizedAffinity>
-5.01230526

$$$$
