
 OpenBabel03272506453D

 32 34  0  0  1  0  0  0  0  0999 V2000
   39.2260   26.7440   35.0220 C   0  0  2  0  0  0  0  0  0  0  0  0
   38.4580   27.2180   33.8060 C   0  0  1  0  0  0  0  0  0  0  0  0
   38.2480   26.1230   33.0010 O   0  0  0  0  0  0  0  0  0  0  0  0
   38.6440   24.9850   33.6640 C   0  0  0  0  0  0  0  0  0  0  0  0
   38.6490   25.3390   35.1470 C   0  0  1  0  0  0  0  0  0  0  0  0
   40.3200   26.6660   34.8480 H   0  0  0  0  0  0  0  0  0  0  0  0
   38.9330   28.0570   33.2840 H   0  0  0  0  0  0  0  0  0  0  0  0
   39.6450   24.6010   33.3400 H   0  0  0  0  0  0  0  0  0  0  0  0
   37.9220   24.1570   33.4550 H   0  0  0  0  0  0  0  0  0  0  0  0
   37.6170   25.3740   35.5150 H   0  0  0  0  0  0  0  0  0  0  0  0
   38.9160   27.5280   36.1350 O   0  0  0  0  0  0  0  0  0  0  0  0
   37.9520   27.4450   36.2610 H   0  0  0  0  0  0  0  0  0  0  0  0
   36.8140   27.7670   34.4070 S   0  0  0  0  0  0  0  0  0  0  0  0
   34.3160   30.2130   32.5200 C   0  0  0  0  0  0  0  0  0  0  0  0
   34.9370   30.4490   31.2800 C   0  0  0  0  0  0  0  0  0  0  0  0
   36.1590   29.8340   31.0260 C   0  0  0  0  0  0  0  0  0  0  0  0
   36.6990   29.0390   31.9740 N   0  0  0  0  0  0  0  0  0  0  0  0
   36.0830   28.8240   33.1640 C   0  0  0  0  0  0  0  0  0  0  0  0
   34.9050   29.4040   33.4350 N   0  0  0  0  0  0  0  0  0  0  0  0
   33.3740   30.6350   32.8220 H   0  0  0  0  0  0  0  0  0  0  0  0
   34.4130   31.1080   30.5890 H   0  0  0  0  0  0  0  0  0  0  0  0
   36.6280   30.0220   30.0690 H   0  0  0  0  0  0  0  0  0  0  0  0
   39.4840   24.4870   35.8530 O   0  0  0  0  0  0  0  0  0  0  0  0
   40.9140   22.4160   37.5340 O   0  0  0  0  0  0  0  0  0  0  0  0
   39.7340   22.9060   37.5550 C   0  0  0  0  0  0  0  0  0  0  0  0
   38.7910   23.5440   36.5980 C   0  0  1  0  0  3  0  0  0  0  0  0
   37.7760   24.1640   37.5380 C   0  0  0  0  0  3  0  0  0  0  0  0
   38.2060   25.0420   38.0300 H   0  0  0  0  0  0  0  0  0  0  0  0
   37.6660   23.0800   38.6020 C   0  0  0  0  0  3  0  0  0  0  0  0
   37.1160   23.3830   39.4910 H   0  0  0  0  0  0  0  0  0  0  0  0
   39.0970   22.8470   38.8490 N   0  0  0  0  0  0  0  0  0  0  0  0
   39.4390   22.6820   39.8420 H   0  0  0  0  0  0  0  0  0  0  0  0
  1  6  1  6  0  0  0
  1  5  1  0  0  0  0
  1 11  1  0  0  0  0
  2  7  1  6  0  0  0
  2 13  1  0  0  0  0
  2  1  1  0  0  0  0
  3  4  1  0  0  0  0
  3  2  1  0  0  0  0
  4  5  1  0  0  0  0
  5 10  1  1  0  0  0
  5 23  1  0  0  0  0
  8  4  1  0  0  0  0
  9  4  1  0  0  0  0
 11 12  1  0  0  0  0
 14 20  1  0  0  0  0
 14 19  1  0  0  0  0
 15 14  2  0  0  0  0
 16 15  1  0  0  0  0
 16 17  2  0  0  0  0
 17 18  1  0  0  0  0
 18 19  2  0  0  0  0
 18 13  1  0  0  0  0
 21 15  1  0  0  0  0
 22 16  1  0  0  0  0
 24 25  2  0  0  0  0
 25 31  1  0  0  0  0
 26 23  1  1  0  0  0
 26 27  1  0  0  0  0
 26 25  1  0  0  0  0
 27 28  1  0  0  0  0
 27 29  1  0  0  0  0
 29 31  1  0  0  0  0
 29 30  1  0  0  0  0
 31 32  1  0  0  0  0
M  END
>  <minimizedAffinity>
-5.37258673

$$$$

 OpenBabel03272506453D

 32 34  0  0  1  0  0  0  0  0999 V2000
   38.1410   24.6270   32.9190 C   0  0  2  0  0  0  0  0  0  0  0  0
   37.9480   23.7460   31.7020 C   0  0  1  0  0  0  0  0  0  0  0  0
   38.6070   22.5640   31.9430 O   0  0  0  0  0  0  0  0  0  0  0  0
   39.0410   22.5390   33.2480 C   0  0  0  0  0  0  0  0  0  0  0  0
   38.1830   23.5520   33.9980 C   0  0  1  0  0  0  0  0  0  0  0  0
   39.1090   25.1700   32.9190 H   0  0  0  0  0  0  0  0  0  0  0  0
   38.2420   24.2240   30.7600 H   0  0  0  0  0  0  0  0  0  0  0  0
   40.1300   22.7710   33.3640 H   0  0  0  0  0  0  0  0  0  0  0  0
   38.9050   21.5120   33.6700 H   0  0  0  0  0  0  0  0  0  0  0  0
   37.1850   23.1290   34.1650 H   0  0  0  0  0  0  0  0  0  0  0  0
   37.0490   25.4810   33.0860 O   0  0  0  0  0  0  0  0  0  0  0  0
   36.2680   24.9020   33.1770 H   0  0  0  0  0  0  0  0  0  0  0  0
   36.1570   23.3560   31.6180 S   0  0  0  0  0  0  0  0  0  0  0  0
   35.4610   19.8290   33.3070 C   0  0  0  0  0  0  0  0  0  0  0  0
   35.6270   18.9060   32.2580 C   0  0  0  0  0  0  0  0  0  0  0  0
   35.9640   19.3920   30.9980 C   0  0  0  0  0  0  0  0  0  0  0  0
   36.1160   20.7240   30.8320 N   0  0  0  0  0  0  0  0  0  0  0  0
   35.9510   21.5960   31.8580 C   0  0  0  0  0  0  0  0  0  0  0  0
   35.6270   21.1550   33.0820 N   0  0  0  0  0  0  0  0  0  0  0  0
   35.2020   19.5640   34.3180 H   0  0  0  0  0  0  0  0  0  0  0  0
   35.4800   17.8550   32.5040 H   0  0  0  0  0  0  0  0  0  0  0  0
   36.0890   18.6740   30.1990 H   0  0  0  0  0  0  0  0  0  0  0  0
   38.8250   23.9840   35.1480 O   0  0  0  0  0  0  0  0  0  0  0  0
   40.4070   21.8030   36.5270 O   0  0  0  0  0  0  0  0  0  0  0  0
   39.4820   22.5970   36.9100 C   0  0  0  0  0  0  0  0  0  0  0  0
   38.3610   23.3580   36.2960 C   0  0  1  0  0  3  0  0  0  0  0  0
   38.0140   24.3350   37.4020 C   0  0  0  0  0  3  0  0  0  0  0  0
   38.7830   25.1110   37.4730 H   0  0  0  0  0  0  0  0  0  0  0  0
   38.1730   23.4500   38.6310 C   0  0  0  0  0  3  0  0  0  0  0  0
   38.1460   23.9910   39.5760 H   0  0  0  0  0  0  0  0  0  0  0  0
   39.4870   22.8620   38.3290 N   0  0  0  0  0  0  0  0  0  0  0  0
   40.1920   22.7230   39.1120 H   0  0  0  0  0  0  0  0  0  0  0  0
  1  6  1  6  0  0  0
  1 11  1  0  0  0  0
  1  5  1  0  0  0  0
  2  7  1  6  0  0  0
  2  3  1  0  0  0  0
  2  1  1  0  0  0  0
  3  4  1  0  0  0  0
  4  8  1  0  0  0  0
  4  9  1  0  0  0  0
  4  5  1  0  0  0  0
  5 10  1  1  0  0  0
  5 23  1  0  0  0  0
 11 12  1  0  0  0  0
 13  2  1  0  0  0  0
 13 18  1  0  0  0  0
 14 20  1  0  0  0  0
 15 21  1  0  0  0  0
 15 14  2  0  0  0  0
 16 15  1  0  0  0  0
 17 16  2  0  0  0  0
 17 18  1  0  0  0  0
 18 19  2  0  0  0  0
 19 14  1  0  0  0  0
 22 16  1  0  0  0  0
 24 25  2  0  0  0  0
 25 31  1  0  0  0  0
 26 23  1  6  0  0  0
 26 25  1  0  0  0  0
 26 27  1  0  0  0  0
 27 28  1  0  0  0  0
 27 29  1  0  0  0  0
 29 30  1  0  0  0  0
 31 29  1  0  0  0  0
 31 32  1  0  0  0  0
M  END
>  <minimizedAffinity>
-5.02953053

$$$$

 OpenBabel03272506453D

 32 34  0  0  1  0  0  0  0  0999 V2000
   37.8590   24.0980   32.5230 C   0  0  2  0  0  0  0  0  0  0  0  0
   38.9420   23.2960   33.2140 C   0  0  1  0  0  0  0  0  0  0  0  0
   39.6680   24.1700   33.9880 O   0  0  0  0  0  0  0  0  0  0  0  0
   39.0480   25.3980   33.9970 C   0  0  0  0  0  0  0  0  0  0  0  0
   37.5980   25.1420   33.6030 C   0  0  1  0  0  0  0  0  0  0  0  0
   38.2110   24.6140   31.6050 H   0  0  0  0  0  0  0  0  0  0  0  0
   39.5600   22.7070   32.5260 H   0  0  0  0  0  0  0  0  0  0  0  0
   39.5240   26.1460   33.3150 H   0  0  0  0  0  0  0  0  0  0  0  0
   39.1100   25.8420   35.0220 H   0  0  0  0  0  0  0  0  0  0  0  0
   37.0640   24.6990   34.4510 H   0  0  0  0  0  0  0  0  0  0  0  0
   36.7320   23.3050   32.2920 O   0  0  0  0  0  0  0  0  0  0  0  0
   36.4440   22.9870   33.1690 H   0  0  0  0  0  0  0  0  0  0  0  0
   38.0900   22.1430   34.3580 S   0  0  0  0  0  0  0  0  0  0  0  0
   37.8600   23.6370   38.0320 C   0  0  0  0  0  0  0  0  0  0  0  0
   39.1050   23.3270   38.6080 C   0  0  0  0  0  0  0  0  0  0  0  0
   40.0360   22.6390   37.8370 C   0  0  0  0  0  0  0  0  0  0  0  0
   39.7100   22.2960   36.5720 N   0  0  0  0  0  0  0  0  0  0  0  0
   38.5030   22.6050   36.0350 C   0  0  0  0  0  0  0  0  0  0  0  0
   37.5880   23.2680   36.7560 N   0  0  0  0  0  0  0  0  0  0  0  0
   37.0680   24.1650   38.5350 H   0  0  0  0  0  0  0  0  0  0  0  0
   39.2610   23.6510   39.6360 H   0  0  0  0  0  0  0  0  0  0  0  0
   40.9900   22.4050   38.2900 H   0  0  0  0  0  0  0  0  0  0  0  0
   37.0170   26.2930   33.0930 O   0  0  0  0  0  0  0  0  0  0  0  0
   35.2430   25.7210   30.7080 O   0  0  0  0  0  0  0  0  0  0  0  0
   36.2350   26.5030   30.9010 C   0  0  0  0  0  0  0  0  0  0  0  0
   37.4210   26.5740   31.7950 C   0  0  1  0  0  3  0  0  0  0  0  0
   37.8540   28.0150   31.6110 C   0  0  0  0  0  3  0  0  0  0  0  0
   37.1590   28.6860   32.1270 H   0  0  0  0  0  0  0  0  0  0  0  0
   37.6140   28.2020   30.1200 C   0  0  0  0  0  3  0  0  0  0  0  0
   37.6890   29.2350   29.7820 H   0  0  0  0  0  0  0  0  0  0  0  0
   36.2530   27.6530   30.0300 N   0  0  0  0  0  0  0  0  0  0  0  0
   35.5370   28.1250   29.4020 H   0  0  0  0  0  0  0  0  0  0  0  0
  1  6  1  6  0  0  0
  1  2  1  0  0  0  0
  1  5  1  0  0  0  0
  2  7  1  6  0  0  0
  2  3  1  0  0  0  0
  2 13  1  0  0  0  0
  3  4  1  0  0  0  0
  4  9  1  0  0  0  0
  5  4  1  0  0  0  0
  5 10  1  1  0  0  0
  8  4  1  0  0  0  0
 11  1  1  0  0  0  0
 11 12  1  0  0  0  0
 13 18  1  0  0  0  0
 14 20  1  0  0  0  0
 14 15  1  0  0  0  0
 15 21  1  0  0  0  0
 16 22  1  0  0  0  0
 16 15  2  0  0  0  0
 17 16  1  0  0  0  0
 18 17  2  0  0  0  0
 18 19  1  0  0  0  0
 19 14  2  0  0  0  0
 23  5  1  0  0  0  0
 24 25  2  0  0  0  0
 25 26  1  0  0  0  0
 26 23  1  1  0  0  0
 27 26  1  0  0  0  0
 27 28  1  0  0  0  0
 29 27  1  0  0  0  0
 30 29  1  0  0  0  0
 31 29  1  0  0  0  0
 31 25  1  0  0  0  0
 32 31  1  0  0  0  0
M  END
>  <minimizedAffinity>
-4.89983177

$$$$

 OpenBabel03272506453D

 32 34  0  0  1  0  0  0  0  0999 V2000
   37.5070   24.7580   33.2260 C   0  0  2  0  0  0  0  0  0  0  0  0
   37.2850   26.2110   32.8580 C   0  0  1  0  0  0  0  0  0  0  0  0
   37.1280   26.9110   34.0310 O   0  0  0  0  0  0  0  0  0  0  0  0
   37.4050   26.0880   35.0970 C   0  0  0  0  0  0  0  0  0  0  0  0
   38.2530   24.9480   34.5420 C   0  0  1  0  0  0  0  0  0  0  0  0
   36.5650   24.2060   33.4260 H   0  0  0  0  0  0  0  0  0  0  0  0
   36.4660   26.3640   32.1460 H   0  0  0  0  0  0  0  0  0  0  0  0
   36.4920   25.6950   35.6110 H   0  0  0  0  0  0  0  0  0  0  0  0
   37.9680   26.6590   35.8770 H   0  0  0  0  0  0  0  0  0  0  0  0
   39.2720   25.3080   34.3630 H   0  0  0  0  0  0  0  0  0  0  0  0
   38.3060   24.1260   32.2700 O   0  0  0  0  0  0  0  0  0  0  0  0
   39.1430   24.6270   32.2470 H   0  0  0  0  0  0  0  0  0  0  0  0
   38.8410   26.7980   32.0850 S   0  0  0  0  0  0  0  0  0  0  0  0
   38.7890   28.3110   28.4120 C   0  0  0  0  0  0  0  0  0  0  0  0
   37.8020   29.3120   28.4660 C   0  0  0  0  0  0  0  0  0  0  0  0
   37.1390   29.5200   29.6710 C   0  0  0  0  0  0  0  0  0  0  0  0
   37.4650   28.7580   30.7360 N   0  0  0  0  0  0  0  0  0  0  0  0
   38.4210   27.7980   30.6620 C   0  0  0  0  0  0  0  0  0  0  0  0
   39.0760   27.5770   29.5140 N   0  0  0  0  0  0  0  0  0  0  0  0
   39.3620   28.0660   27.5350 H   0  0  0  0  0  0  0  0  0  0  0  0
   37.6180   29.8670   27.5470 H   0  0  0  0  0  0  0  0  0  0  0  0
   36.3810   30.2920   29.7020 H   0  0  0  0  0  0  0  0  0  0  0  0
   38.1710   23.8320   35.3590 O   0  0  0  0  0  0  0  0  0  0  0  0
   37.7450   24.1990   38.3340 O   0  0  0  0  0  0  0  0  0  0  0  0
   38.6550   23.6330   37.6370 C   0  0  0  0  0  0  0  0  0  0  0  0
   39.2190   23.7460   36.2660 C   0  0  1  0  0  3  0  0  0  0  0  0
   39.9950   22.4490   36.1480 C   0  0  0  0  0  3  0  0  0  0  0  0
   39.3060   21.6080   36.0250 H   0  0  0  0  0  0  0  0  0  0  0  0
   40.5800   22.3330   37.5490 C   0  0  0  0  0  3  0  0  0  0  0  0
   41.0410   21.3700   37.7610 H   0  0  0  0  0  0  0  0  0  0  0  0
   39.3610   22.5850   38.3330 N   0  0  0  0  0  0  0  0  0  0  0  0
   39.1800   22.0230   39.2170 H   0  0  0  0  0  0  0  0  0  0  0  0
  1  6  1  1  0  0  0
  1  5  1  0  0  0  0
  2  7  1  6  0  0  0
  2  1  1  0  0  0  0
  2  3  1  0  0  0  0
  3  4  1  0  0  0  0
  4  8  1  0  0  0  0
  4  9  1  0  0  0  0
  5 10  1  6  0  0  0
  5  4  1  0  0  0  0
  5 23  1  0  0  0  0
 11  1  1  0  0  0  0
 12 11  1  0  0  0  0
 13  2  1  0  0  0  0
 14 15  2  0  0  0  0
 14 19  1  0  0  0  0
 15 16  1  0  0  0  0
 16 22  1  0  0  0  0
 16 17  2  0  0  0  0
 18 17  1  0  0  0  0
 18 13  1  0  0  0  0
 19 18  2  0  0  0  0
 20 14  1  0  0  0  0
 21 15  1  0  0  0  0
 25 31  1  0  0  0  0
 25 24  2  0  0  0  0
 26 23  1  6  0  0  0
 26 25  1  0  0  0  0
 27 26  1  0  0  0  0
 27 29  1  0  0  0  0
 28 27  1  0  0  0  0
 29 30  1  0  0  0  0
 29 31  1  0  0  0  0
 31 32  1  0  0  0  0
M  END
>  <minimizedAffinity>
-4.871665

$$$$

 OpenBabel03272506453D

 32 34  0  0  1  0  0  0  0  0999 V2000
   38.2470   26.1860   35.1210 C   0  0  2  0  0  0  0  0  0  0  0  0
   39.0290   27.0040   34.1140 C   0  0  1  0  0  0  0  0  0  0  0  0
   40.0500   26.2100   33.6470 O   0  0  0  0  0  0  0  0  0  0  0  0
   39.8840   24.9280   34.1160 C   0  0  0  0  0  0  0  0  0  0  0  0
   38.4140   24.8040   34.5000 C   0  0  1  0  0  0  0  0  0  0  0  0
   38.7020   26.1810   36.1330 H   0  0  0  0  0  0  0  0  0  0  0  0
   39.3730   27.9700   34.5040 H   0  0  0  0  0  0  0  0  0  0  0  0
   40.5480   24.6770   34.9810 H   0  0  0  0  0  0  0  0  0  0  0  0
   40.1490   24.1960   33.3120 H   0  0  0  0  0  0  0  0  0  0  0  0
   37.8090   24.7100   33.5920 H   0  0  0  0  0  0  0  0  0  0  0  0
   36.9070   26.5820   35.1390 O   0  0  0  0  0  0  0  0  0  0  0  0
   36.5770   26.4510   34.2300 H   0  0  0  0  0  0  0  0  0  0  0  0
   37.9000   27.3170   32.7030 S   0  0  0  0  0  0  0  0  0  0  0  0
   38.1820   24.1130   30.3710 C   0  0  0  0  0  0  0  0  0  0  0  0
   37.0280   23.3660   30.6720 C   0  0  0  0  0  0  0  0  0  0  0  0
   36.1440   23.8710   31.6200 C   0  0  0  0  0  0  0  0  0  0  0  0
   36.4250   25.0510   32.2130 N   0  0  0  0  0  0  0  0  0  0  0  0
   37.5450   25.7550   31.9080 C   0  0  0  0  0  0  0  0  0  0  0  0
   38.4130   25.2920   30.9980 N   0  0  0  0  0  0  0  0  0  0  0  0
   38.9310   23.8190   29.6560 H   0  0  0  0  0  0  0  0  0  0  0  0
   36.9000   22.4280   30.1340 H   0  0  0  0  0  0  0  0  0  0  0  0
   35.2600   23.2890   31.8430 H   0  0  0  0  0  0  0  0  0  0  0  0
   38.2320   23.7870   35.4230 O   0  0  0  0  0  0  0  0  0  0  0  0
   37.9320   24.3400   38.3840 O   0  0  0  0  0  0  0  0  0  0  0  0
   38.7680   23.6640   37.6940 C   0  0  0  0  0  0  0  0  0  0  0  0
   39.2960   23.6570   36.3040 C   0  0  1  0  0  3  0  0  0  0  0  0
   39.9560   22.2930   36.2360 C   0  0  0  0  0  3  0  0  0  0  0  0
   39.1940   21.5100   36.1770 H   0  0  0  0  0  0  0  0  0  0  0  0
   40.5720   22.1990   37.6250 C   0  0  0  0  0  3  0  0  0  0  0  0
   40.9560   21.2120   37.8760 H   0  0  0  0  0  0  0  0  0  0  0  0
   39.4040   22.5950   38.4270 N   0  0  0  0  0  0  0  0  0  0  0  0
   39.2030   22.0960   39.3440 H   0  0  0  0  0  0  0  0  0  0  0  0
  1 11  1  0  0  0  0
  1  6  1  1  0  0  0
  2  7  1  1  0  0  0
  2  1  1  0  0  0  0
  3  2  1  0  0  0  0
  3  4  1  0  0  0  0
  4  5  1  0  0  0  0
  4  8  1  0  0  0  0
  5 10  1  6  0  0  0
  5  1  1  0  0  0  0
  5 23  1  0  0  0  0
  9  4  1  0  0  0  0
 12 11  1  0  0  0  0
 13  2  1  0  0  0  0
 14 15  2  0  0  0  0
 14 19  1  0  0  0  0
 15 16  1  0  0  0  0
 16 22  1  0  0  0  0
 16 17  2  0  0  0  0
 18 17  1  0  0  0  0
 18 13  1  0  0  0  0
 19 18  2  0  0  0  0
 20 14  1  0  0  0  0
 21 15  1  0  0  0  0
 25 24  2  0  0  0  0
 25 31  1  0  0  0  0
 26 23  1  6  0  0  0
 26 25  1  0  0  0  0
 27 26  1  0  0  0  0
 27 29  1  0  0  0  0
 28 27  1  0  0  0  0
 29 30  1  0  0  0  0
 29 31  1  0  0  0  0
 31 32  1  0  0  0  0
M  END
>  <minimizedAffinity>
-4.83566713

$$$$

 OpenBabel03272506453D

 32 34  0  0  1  0  0  0  0  0999 V2000
   38.1560   25.5190   34.7980 C   0  0  2  0  0  0  0  0  0  0  0  0
   38.5560   26.2860   33.5560 C   0  0  1  0  0  0  0  0  0  0  0  0
   39.3450   25.4550   32.7970 O   0  0  0  0  0  0  0  0  0  0  0  0
   39.3360   24.1920   33.3410 C   0  0  0  0  0  0  0  0  0  0  0  0
   38.0860   24.1150   34.2090 C   0  0  1  0  0  0  0  0  0  0  0  0
   38.9320   25.5340   35.5930 H   0  0  0  0  0  0  0  0  0  0  0  0
   39.0230   27.2560   33.7680 H   0  0  0  0  0  0  0  0  0  0  0  0
   40.2540   23.9530   33.9350 H   0  0  0  0  0  0  0  0  0  0  0  0
   39.3000   23.4300   32.5220 H   0  0  0  0  0  0  0  0  0  0  0  0
   37.2040   24.0070   33.5670 H   0  0  0  0  0  0  0  0  0  0  0  0
   36.9090   25.9460   35.2600 O   0  0  0  0  0  0  0  0  0  0  0  0
   36.2850   25.7950   34.5240 H   0  0  0  0  0  0  0  0  0  0  0  0
   37.0150   26.5820   32.6060 S   0  0  0  0  0  0  0  0  0  0  0  0
   35.6480   29.8130   34.4710 C   0  0  0  0  0  0  0  0  0  0  0  0
   35.6090   30.7990   33.4680 C   0  0  0  0  0  0  0  0  0  0  0  0
   36.0170   30.4500   32.1840 C   0  0  0  0  0  0  0  0  0  0  0  0
   36.4330   29.1870   31.9510 N   0  0  0  0  0  0  0  0  0  0  0  0
   36.4620   28.2510   32.9340 C   0  0  0  0  0  0  0  0  0  0  0  0
   36.0740   28.5590   34.1790 N   0  0  0  0  0  0  0  0  0  0  0  0
   35.3560   29.9710   35.4940 H   0  0  0  0  0  0  0  0  0  0  0  0
   35.2570   31.7850   33.7660 H   0  0  0  0  0  0  0  0  0  0  0  0
   35.9840   31.2160   31.4210 H   0  0  0  0  0  0  0  0  0  0  0  0
   38.2190   23.1310   35.1760 O   0  0  0  0  0  0  0  0  0  0  0  0
   37.7190   23.9520   38.0460 O   0  0  0  0  0  0  0  0  0  0  0  0
   38.7130   23.4240   37.4410 C   0  0  0  0  0  0  0  0  0  0  0  0
   39.2610   23.3770   36.0600 C   0  0  1  0  0  3  0  0  0  0  0  0
   40.2360   22.2210   36.1580 C   0  0  0  0  0  3  0  0  0  0  0  0
   39.6920   21.2720   36.2020 H   0  0  0  0  0  0  0  0  0  0  0  0
   40.8220   22.4530   37.5440 C   0  0  0  0  0  3  0  0  0  0  0  0
   41.4310   21.6290   37.9140 H   0  0  0  0  0  0  0  0  0  0  0  0
   39.5740   22.6430   38.2970 N   0  0  0  0  0  0  0  0  0  0  0  0
   39.4790   22.2270   39.2710 H   0  0  0  0  0  0  0  0  0  0  0  0
  1 11  1  0  0  0  0
  1  6  1  1  0  0  0
  2  7  1  1  0  0  0
  2  1  1  0  0  0  0
  3  4  1  0  0  0  0
  3  2  1  0  0  0  0
  4  8  1  0  0  0  0
  4  5  1  0  0  0  0
  5 10  1  6  0  0  0
  5  1  1  0  0  0  0
  5 23  1  0  0  0  0
  9  4  1  0  0  0  0
 12 11  1  0  0  0  0
 13 18  1  0  0  0  0
 13  2  1  0  0  0  0
 14 20  1  0  0  0  0
 15 21  1  0  0  0  0
 15 14  2  0  0  0  0
 16 15  1  0  0  0  0
 17 16  2  0  0  0  0
 17 18  1  0  0  0  0
 18 19  2  0  0  0  0
 19 14  1  0  0  0  0
 22 16  1  0  0  0  0
 25 24  2  0  0  0  0
 25 31  1  0  0  0  0
 26 23  1  6  0  0  0
 26 27  1  0  0  0  0
 26 25  1  0  0  0  0
 27 28  1  0  0  0  0
 27 29  1  0  0  0  0
 29 30  1  0  0  0  0
 29 31  1  0  0  0  0
 31 32  1  0  0  0  0
M  END
>  <minimizedAffinity>
-4.7315855

$$$$

 OpenBabel03272506453D

 32 34  0  0  1  0  0  0  0  0999 V2000
   38.1960   27.2710   34.6640 C   0  0  2  0  0  0  0  0  0  0  0  0
   37.3380   27.8000   33.5340 C   0  0  1  0  0  0  0  0  0  0  0  0
   37.0540   26.7410   32.7050 O   0  0  0  0  0  0  0  0  0  0  0  0
   37.4890   25.5730   33.2880 C   0  0  0  0  0  0  0  0  0  0  0  0
   37.6150   25.8660   34.7780 C   0  0  1  0  0  0  0  0  0  0  0  0
   39.2710   27.1920   34.4000 H   0  0  0  0  0  0  0  0  0  0  0  0
   37.7790   28.6570   33.0100 H   0  0  0  0  0  0  0  0  0  0  0  0
   38.4560   25.1960   32.8690 H   0  0  0  0  0  0  0  0  0  0  0  0
   36.7430   24.7600   33.1030 H   0  0  0  0  0  0  0  0  0  0  0  0
   36.6170   25.8940   35.2290 H   0  0  0  0  0  0  0  0  0  0  0  0
   37.9840   28.0110   35.8300 O   0  0  0  0  0  0  0  0  0  0  0  0
   37.0320   27.9300   36.0290 H   0  0  0  0  0  0  0  0  0  0  0  0
   35.7540   28.3360   34.2860 S   0  0  0  0  0  0  0  0  0  0  0  0
   35.4530   32.2160   33.4860 C   0  0  0  0  0  0  0  0  0  0  0  0
   35.8210   32.8450   34.6900 C   0  0  0  0  0  0  0  0  0  0  0  0
   36.1710   32.0440   35.7730 C   0  0  0  0  0  0  0  0  0  0  0  0
   36.1430   30.7020   35.6290 N   0  0  0  0  0  0  0  0  0  0  0  0
   35.7840   30.1160   34.4580 C   0  0  0  0  0  0  0  0  0  0  0  0
   35.4430   30.8630   33.3990 N   0  0  0  0  0  0  0  0  0  0  0  0
   35.1650   32.7350   32.5890 H   0  0  0  0  0  0  0  0  0  0  0  0
   35.8080   33.9340   34.6950 H   0  0  0  0  0  0  0  0  0  0  0  0
   36.4520   32.5380   36.6930 H   0  0  0  0  0  0  0  0  0  0  0  0
   38.4950   24.9800   35.3800 O   0  0  0  0  0  0  0  0  0  0  0  0
   39.0610   22.0120   35.5700 O   0  0  0  0  0  0  0  0  0  0  0  0
   38.6050   22.8770   36.3930 C   0  0  0  0  0  0  0  0  0  0  0  0
   37.8870   24.1780   36.3360 C   0  0  1  0  0  3  0  0  0  0  0  0
   38.0790   24.6940   37.7480 C   0  0  0  0  0  3  0  0  0  0  0  0
   39.1120   25.0280   37.8890 H   0  0  0  0  0  0  0  0  0  0  0  0
   37.9230   23.4100   38.5500 C   0  0  0  0  0  3  0  0  0  0  0  0
   38.2010   23.5020   39.5990 H   0  0  0  0  0  0  0  0  0  0  0  0
   38.8240   22.5400   37.7790 N   0  0  0  0  0  0  0  0  0  0  0  0
   39.4520   21.8500   38.2890 H   0  0  0  0  0  0  0  0  0  0  0  0
  1  6  1  6  0  0  0
  1  5  1  0  0  0  0
  1 11  1  0  0  0  0
  2  7  1  6  0  0  0
  2 13  1  0  0  0  0
  2  1  1  0  0  0  0
  3  4  1  0  0  0  0
  3  2  1  0  0  0  0
  4  5  1  0  0  0  0
  5 10  1  1  0  0  0
  5 23  1  0  0  0  0
  8  4  1  0  0  0  0
  9  4  1  0  0  0  0
 11 12  1  0  0  0  0
 13 18  1  0  0  0  0
 14 15  1  0  0  0  0
 15 21  1  0  0  0  0
 15 16  2  0  0  0  0
 16 22  1  0  0  0  0
 17 16  1  0  0  0  0
 18 17  2  0  0  0  0
 19 14  2  0  0  0  0
 19 18  1  0  0  0  0
 20 14  1  0  0  0  0
 24 25  2  0  0  0  0
 25 31  1  0  0  0  0
 26 23  1  6  0  0  0
 26 25  1  0  0  0  0
 26 27  1  0  0  0  0
 27 28  1  0  0  0  0
 27 29  1  0  0  0  0
 29 30  1  0  0  0  0
 31 32  1  0  0  0  0
 31 29  1  0  0  0  0
M  END
>  <minimizedAffinity>
-4.7285285

$$$$

 OpenBabel03272506453D

 32 34  0  0  1  0  0  0  0  0999 V2000
   39.5390   25.7580   33.9920 C   0  0  2  0  0  0  0  0  0  0  0  0
   39.3730   25.6420   32.4910 C   0  0  1  0  0  0  0  0  0  0  0  0
   39.8630   24.4130   32.1180 O   0  0  0  0  0  0  0  0  0  0  0  0
   40.1530   23.6750   33.2420 C   0  0  0  0  0  0  0  0  0  0  0  0
   39.3440   24.2950   34.3750 C   0  0  1  0  0  0  0  0  0  0  0  0
   40.5570   26.0750   34.2990 H   0  0  0  0  0  0  0  0  0  0  0  0
   39.8170   26.4750   31.9330 H   0  0  0  0  0  0  0  0  0  0  0  0
   41.2440   23.6500   33.4940 H   0  0  0  0  0  0  0  0  0  0  0  0
   39.8570   22.6090   33.0790 H   0  0  0  0  0  0  0  0  0  0  0  0
   38.2920   24.0030   34.2720 H   0  0  0  0  0  0  0  0  0  0  0  0
   38.5390   26.5690   34.5350 O   0  0  0  0  0  0  0  0  0  0  0  0
   37.6920   26.1470   34.2950 H   0  0  0  0  0  0  0  0  0  0  0  0
   37.5680   25.6230   32.1640 S   0  0  0  0  0  0  0  0  0  0  0  0
   36.8690   28.8440   29.9460 C   0  0  0  0  0  0  0  0  0  0  0  0
   36.3160   29.7710   30.8490 C   0  0  0  0  0  0  0  0  0  0  0  0
   36.1590   29.3850   32.1760 C   0  0  0  0  0  0  0  0  0  0  0  0
   36.5390   28.1430   32.5450 N   0  0  0  0  0  0  0  0  0  0  0  0
   37.0700   27.2640   31.6570 C   0  0  0  0  0  0  0  0  0  0  0  0
   37.2330   27.6110   30.3720 N   0  0  0  0  0  0  0  0  0  0  0  0
   37.0360   29.0360   28.9000 H   0  0  0  0  0  0  0  0  0  0  0  0
   36.0440   30.7450   30.4440 H   0  0  0  0  0  0  0  0  0  0  0  0
   35.7330   30.1050   32.8620 H   0  0  0  0  0  0  0  0  0  0  0  0
   39.9080   23.9940   35.6050 O   0  0  0  0  0  0  0  0  0  0  0  0
   40.8960   21.9890   37.6460 O   0  0  0  0  0  0  0  0  0  0  0  0
   39.8270   22.6810   37.5360 C   0  0  0  0  0  0  0  0  0  0  0  0
   39.0380   23.3190   36.4500 C   0  0  1  0  0  3  0  0  0  0  0  0
   38.1380   24.2520   37.2360 C   0  0  0  0  0  3  0  0  0  0  0  0
   38.7130   25.1050   37.6080 H   0  0  0  0  0  0  0  0  0  0  0  0
   37.8080   23.3870   38.4440 C   0  0  0  0  0  3  0  0  0  0  0  0
   37.3060   23.9200   39.2500 H   0  0  0  0  0  0  0  0  0  0  0  0
   39.1660   22.9420   38.7920 N   0  0  0  0  0  0  0  0  0  0  0  0
   39.4510   22.8760   39.8140 H   0  0  0  0  0  0  0  0  0  0  0  0
  1  6  1  1  0  0  0
  1  5  1  0  0  0  0
  1 11  1  0  0  0  0
  2  7  1  6  0  0  0
  2  1  1  0  0  0  0
  3  2  1  0  0  0  0
  3  4  1  0  0  0  0
  4  8  1  0  0  0  0
  4  5  1  0  0  0  0
  5 10  1  6  0  0  0
  5 23  1  0  0  0  0
  9  4  1  0  0  0  0
 12 11  1  0  0  0  0
 13  2  1  0  0  0  0
 14 19  2  0  0  0  0
 14 15  1  0  0  0  0
 15 16  2  0  0  0  0
 16 17  1  0  0  0  0
 16 22  1  0  0  0  0
 18 13  1  0  0  0  0
 18 17  2  0  0  0  0
 19 18  1  0  0  0  0
 20 14  1  0  0  0  0
 21 15  1  0  0  0  0
 25 24  2  0  0  0  0
 25 31  1  0  0  0  0
 26 23  1  6  0  0  0
 26 27  1  0  0  0  0
 26 25  1  0  0  0  0
 27 28  1  0  0  0  0
 27 29  1  0  0  0  0
 29 31  1  0  0  0  0
 29 30  1  0  0  0  0
 31 32  1  0  0  0  0
M  END
>  <minimizedAffinity>
-4.71499395

$$$$

 OpenBabel03272506453D

 32 34  0  0  1  0  0  0  0  0999 V2000
   38.2420   26.0330   33.9610 C   0  0  2  0  0  0  0  0  0  0  0  0
   39.0710   26.0640   35.2280 C   0  0  1  0  0  0  0  0  0  0  0  0
   38.7720   27.2340   35.8850 O   0  0  0  0  0  0  0  0  0  0  0  0
   37.7150   27.8530   35.2600 C   0  0  0  0  0  0  0  0  0  0  0  0
   37.0030   26.7680   34.4590 C   0  0  1  0  0  0  0  0  0  0  0  0
   38.6910   26.6130   33.1280 H   0  0  0  0  0  0  0  0  0  0  0  0
   40.1450   25.9250   35.0550 H   0  0  0  0  0  0  0  0  0  0  0  0
   38.0190   28.7050   34.6000 H   0  0  0  0  0  0  0  0  0  0  0  0
   37.0300   28.2950   36.0260 H   0  0  0  0  0  0  0  0  0  0  0  0
   36.4230   26.1360   35.1400 H   0  0  0  0  0  0  0  0  0  0  0  0
   37.9480   24.7170   33.5990 O   0  0  0  0  0  0  0  0  0  0  0  0
   37.4670   24.3320   34.3570 H   0  0  0  0  0  0  0  0  0  0  0  0
   38.4720   24.6870   36.2800 S   0  0  0  0  0  0  0  0  0  0  0  0
   41.3270   22.1540   35.1740 C   0  0  0  0  0  0  0  0  0  0  0  0
   41.6730   21.4860   36.3620 C   0  0  0  0  0  0  0  0  0  0  0  0
   41.0040   21.8310   37.5330 C   0  0  0  0  0  0  0  0  0  0  0  0
   40.0530   22.7890   37.4830 N   0  0  0  0  0  0  0  0  0  0  0  0
   39.7340   23.4210   36.3250 C   0  0  0  0  0  0  0  0  0  0  0  0
   40.3630   23.1080   35.1840 N   0  0  0  0  0  0  0  0  0  0  0  0
   41.7780   21.9680   34.2150 H   0  0  0  0  0  0  0  0  0  0  0  0
   42.4550   20.7310   36.2880 H   0  0  0  0  0  0  0  0  0  0  0  0
   41.2780   21.3110   38.4410 H   0  0  0  0  0  0  0  0  0  0  0  0
   36.2690   27.3240   33.4230 O   0  0  0  0  0  0  0  0  0  0  0  0
   36.2270   25.5080   31.0010 O   0  0  0  0  0  0  0  0  0  0  0  0
   36.5540   26.7300   31.1810 C   0  0  0  0  0  0  0  0  0  0  0  0
   37.0360   27.5870   32.2960 C   0  0  1  0  0  3  0  0  0  0  0  0
   36.8030   28.9760   31.7350 C   0  0  0  0  0  3  0  0  0  0  0  0
   35.7330   29.2080   31.7370 H   0  0  0  0  0  0  0  0  0  0  0  0
   37.2030   28.7730   30.2800 C   0  0  0  0  0  3  0  0  0  0  0  0
   36.9460   29.6050   29.6270 H   0  0  0  0  0  0  0  0  0  0  0  0
   36.4400   27.5480   29.9970 N   0  0  0  0  0  0  0  0  0  0  0  0
   35.9560   27.4360   29.0570 H   0  0  0  0  0  0  0  0  0  0  0  0
  1  6  1  6  0  0  0
  1  5  1  0  0  0  0
  1  2  1  0  0  0  0
  2  7  1  6  0  0  0
  2  3  1  0  0  0  0
  2 13  1  0  0  0  0
  4  3  1  0  0  0  0
  4  9  1  0  0  0  0
  5 10  1  1  0  0  0
  5  4  1  0  0  0  0
  8  4  1  0  0  0  0
 11  1  1  0  0  0  0
 11 12  1  0  0  0  0
 13 18  1  0  0  0  0
 14 19  2  0  0  0  0
 14 15  1  0  0  0  0
 15 16  2  0  0  0  0
 16 22  1  0  0  0  0
 17 16  1  0  0  0  0
 18 17  2  0  0  0  0
 19 18  1  0  0  0  0
 20 14  1  0  0  0  0
 21 15  1  0  0  0  0
 23  5  1  0  0  0  0
 24 25  2  0  0  0  0
 25 26  1  0  0  0  0
 26 23  1  1  0  0  0
 27 28  1  0  0  0  0
 27 26  1  0  0  0  0
 29 27  1  0  0  0  0
 30 29  1  0  0  0  0
 31 29  1  0  0  0  0
 31 25  1  0  0  0  0
 32 31  1  0  0  0  0
M  END
>  <minimizedAffinity>
-4.68040895

$$$$
