
 OpenBabel03272507263D

 37 39  0  0  1  0  0  0  0  0999 V2000
   42.3620   21.9430   36.2950 C   0  0  0  0  0  0  0  0  0  0  0  0
   42.0920   23.0930   35.5320 C   0  0  0  0  0  0  0  0  0  0  0  0
   40.9130   23.7890   35.8130 C   0  0  0  0  0  0  0  0  0  0  0  0
   40.0970   23.3360   36.7890 N   0  0  0  0  0  0  0  0  0  0  0  0
   40.3870   22.2150   37.5110 C   0  0  0  0  0  0  0  0  0  0  0  0
   41.5150   21.5360   37.2530 N   0  0  0  0  0  0  0  0  0  0  0  0
   40.5780   24.9510   35.0880 N   0  0  0  0  0  0  0  0  0  0  0  0
   41.5500   25.8700   34.4820 C   0  0  0  0  0  0  0  0  0  0  0  0
   40.7800   27.0640   34.0240 C   0  0  0  0  0  0  0  0  0  0  0  0
   39.5220   26.9680   34.8110 C   0  0  0  0  0  0  0  0  0  0  0  0
   39.3010   25.4790   34.7890 C   0  0  2  0  0  0  0  0  0  0  0  0
   43.2900   21.4360   36.0370 H   0  0  0  0  0  0  0  0  0  0  0  0
   42.7680   23.4210   34.7630 H   0  0  0  0  0  0  0  0  0  0  0  0
   39.6730   21.9470   38.2570 H   0  0  0  0  0  0  0  0  0  0  0  0
   42.2180   26.1610   35.3440 H   0  0  0  0  0  0  0  0  0  0  0  0
   42.1640   25.3820   33.7130 H   0  0  0  0  0  0  0  0  0  0  0  0
   41.3040   27.9790   34.3740 H   0  0  0  0  0  0  0  0  0  0  0  0
   40.6820   27.1950   32.9410 H   0  0  0  0  0  0  0  0  0  0  0  0
   39.6120   27.4100   35.8010 H   0  0  0  0  0  0  0  0  0  0  0  0
   38.7160   27.4480   34.1910 H   0  0  0  0  0  0  0  0  0  0  0  0
   38.1540   25.0800   35.6490 C   0  0  0  0  0  0  0  0  0  0  0  0
   37.1010   25.9200   35.3090 F   0  0  0  0  0  0  0  0  0  0  0  0
   38.3360   25.2150   36.9890 F   0  0  0  0  0  0  0  0  0  0  0  0
   37.7690   23.8150   35.2640 F   0  0  0  0  0  0  0  0  0  0  0  0
   38.9720   25.0480   33.3950 C   0  0  0  0  0  0  0  0  0  0  0  0
   38.5070   24.0160   33.3610 H   0  0  0  0  0  0  0  0  0  0  0  0
   39.9480   24.8950   32.8760 H   0  0  0  0  0  0  0  0  0  0  0  0
   38.2190   25.8910   32.9060 O   0  0  0  0  0  0  0  0  0  0  0  0
   35.8030   27.4940   31.6630 O   0  0  0  0  0  0  0  0  0  0  0  0
   36.3100   26.3430   31.5260 C   0  0  0  0  0  0  0  0  0  0  0  0
   37.4410   25.4070   31.8660 C   0  0  2  0  0  3  0  0  0  0  0  0
   36.6690   24.1670   32.1760 C   0  0  0  0  0  3  0  0  0  0  0  0
   37.2740   23.2620   32.3260 H   0  0  0  0  0  0  0  0  0  0  0  0
   35.8190   24.0780   30.9050 C   0  0  0  0  0  3  0  0  0  0  0  0
   36.4710   23.7500   30.0960 H   0  0  0  0  0  0  0  0  0  0  0  0
   35.5090   25.4880   30.6860 N   0  0  0  0  0  0  0  0  0  0  0  0
   34.7550   25.6480   29.9540 H   0  0  0  0  0  0  0  0  0  0  0  0
  1  6  1  0  0  0  0
  2  3  1  0  0  0  0
  2  1  2  0  0  0  0
  3  4  2  0  0  0  0
  4  5  1  0  0  0  0
  5 14  1  0  0  0  0
  6  5  2  0  0  0  0
  7  3  1  0  0  0  0
  8  7  1  0  0  0  0
  8 15  1  0  0  0  0
  9 17  1  0  0  0  0
  9  8  1  0  0  0  0
  9 10  1  0  0  0  0
 10 19  1  0  0  0  0
 11 25  1  6  0  0  0
 11 10  1  0  0  0  0
 11  7  1  0  0  0  0
 11 21  1  0  0  0  0
 12  1  1  0  0  0  0
 13  2  1  0  0  0  0
 16  8  1  0  0  0  0
 18  9  1  0  0  0  0
 20 10  1  0  0  0  0
 21 23  1  0  0  0  0
 22 21  1  0  0  0  0
 24 21  1  0  0  0  0
 26 25  1  0  0  0  0
 27 25  1  0  0  0  0
 28 25  1  0  0  0  0
 30 29  2  0  0  0  0
 30 31  1  0  0  0  0
 31 32  1  0  0  0  0
 31 28  1  1  0  0  0
 32 33  1  0  0  0  0
 34 32  1  0  0  0  0
 35 34  1  0  0  0  0
 36 34  1  0  0  0  0
 36 30  1  0  0  0  0
 37 36  1  0  0  0  0
M  END
>  <minimizedAffinity>
-5.37008572

$$$$

 OpenBabel03272507263D

 37 39  0  0  1  0  0  0  0  0999 V2000
   37.9720   22.0160   32.2780 C   0  0  0  0  0  0  0  0  0  0  0  0
   38.5570   23.2930   32.3340 C   0  0  0  0  0  0  0  0  0  0  0  0
   38.6410   23.9080   33.5870 C   0  0  0  0  0  0  0  0  0  0  0  0
   38.1650   23.2600   34.6720 N   0  0  0  0  0  0  0  0  0  0  0  0
   37.6020   22.0200   34.5840 C   0  0  0  0  0  0  0  0  0  0  0  0
   37.5140   21.4170   33.3880 N   0  0  0  0  0  0  0  0  0  0  0  0
   39.2160   25.1880   33.7180 N   0  0  0  0  0  0  0  0  0  0  0  0
   40.2600   25.7320   32.8420 C   0  0  0  0  0  0  0  0  0  0  0  0
   40.7310   27.0010   33.4740 C   0  0  0  0  0  0  0  0  0  0  0  0
   40.2770   26.8560   34.8830 C   0  0  0  0  0  0  0  0  0  0  0  0
   38.9400   26.1960   34.6710 C   0  0  2  0  0  0  0  0  0  0  0  0
   37.9290   21.5810   31.2810 H   0  0  0  0  0  0  0  0  0  0  0  0
   38.9250   23.7760   31.4470 H   0  0  0  0  0  0  0  0  0  0  0  0
   37.2580   21.6000   35.5030 H   0  0  0  0  0  0  0  0  0  0  0  0
   41.0820   24.9590   32.8920 H   0  0  0  0  0  0  0  0  0  0  0  0
   39.9270   25.8210   31.7990 H   0  0  0  0  0  0  0  0  0  0  0  0
   41.8420   26.9950   33.4960 H   0  0  0  0  0  0  0  0  0  0  0  0
   40.4660   27.9300   32.9580 H   0  0  0  0  0  0  0  0  0  0  0  0
   40.9800   26.2940   35.4940 H   0  0  0  0  0  0  0  0  0  0  0  0
   40.0940   27.8940   35.2720 H   0  0  0  0  0  0  0  0  0  0  0  0
   38.3130   25.7960   35.9600 C   0  0  0  0  0  0  0  0  0  0  0  0
   38.3640   26.9150   36.7820 F   0  0  0  0  0  0  0  0  0  0  0  0
   38.9280   24.7930   36.6380 F   0  0  0  0  0  0  0  0  0  0  0  0
   36.9770   25.5660   35.7160 F   0  0  0  0  0  0  0  0  0  0  0  0
   38.0080   27.1660   34.0150 C   0  0  0  0  0  0  0  0  0  0  0  0
   38.5490   27.8840   33.3270 H   0  0  0  0  0  0  0  0  0  0  0  0
   37.6330   27.8350   34.8240 H   0  0  0  0  0  0  0  0  0  0  0  0
   37.1590   26.5180   33.4010 O   0  0  0  0  0  0  0  0  0  0  0  0
   35.9840   25.0120   30.8910 O   0  0  0  0  0  0  0  0  0  0  0  0
   36.2350   26.2100   31.2090 C   0  0  0  0  0  0  0  0  0  0  0  0
   36.6550   27.1750   32.2890 C   0  0  2  0  0  3  0  0  0  0  0  0
   37.6470   27.9960   31.5330 C   0  0  0  0  0  3  0  0  0  0  0  0
   38.0180   28.8860   32.0610 H   0  0  0  0  0  0  0  0  0  0  0  0
   36.7910   28.3680   30.3200 C   0  0  0  0  0  3  0  0  0  0  0  0
   36.0690   29.1170   30.6450 H   0  0  0  0  0  0  0  0  0  0  0  0
   36.0700   27.1180   30.1010 N   0  0  0  0  0  0  0  0  0  0  0  0
   35.5520   27.0840   29.1740 H   0  0  0  0  0  0  0  0  0  0  0  0
  1  2  2  0  0  0  0
  1  6  1  0  0  0  0
  2  3  1  0  0  0  0
  3  7  1  0  0  0  0
  3  4  2  0  0  0  0
  5  4  1  0  0  0  0
  5 14  1  0  0  0  0
  6  5  2  0  0  0  0
  7 11  1  0  0  0  0
  8 15  1  0  0  0  0
  8  9  1  0  0  0  0
  8  7  1  0  0  0  0
  9 17  1  0  0  0  0
  9 10  1  0  0  0  0
 10 20  1  0  0  0  0
 10 19  1  0  0  0  0
 11 25  1  6  0  0  0
 11 10  1  0  0  0  0
 11 21  1  0  0  0  0
 12  1  1  0  0  0  0
 13  2  1  0  0  0  0
 16  8  1  0  0  0  0
 18  9  1  0  0  0  0
 21 23  1  0  0  0  0
 21 22  1  0  0  0  0
 24 21  1  0  0  0  0
 25 27  1  0  0  0  0
 26 25  1  0  0  0  0
 28 25  1  0  0  0  0
 29 30  2  0  0  0  0
 30 31  1  0  0  0  0
 31 28  1  1  0  0  0
 32 33  1  0  0  0  0
 32 31  1  0  0  0  0
 34 35  1  0  0  0  0
 34 32  1  0  0  0  0
 36 34  1  0  0  0  0
 36 30  1  0  0  0  0
 37 36  1  0  0  0  0
M  END
>  <minimizedAffinity>
-5.25133038

$$$$

 OpenBabel03272507263D

 37 39  0  0  1  0  0  0  0  0999 V2000
   38.2850   27.1870   29.7750 C   0  0  0  0  0  0  0  0  0  0  0  0
   37.9710   26.9730   31.1290 C   0  0  0  0  0  0  0  0  0  0  0  0
   39.0160   27.0600   32.0530 C   0  0  0  0  0  0  0  0  0  0  0  0
   40.2610   27.3430   31.6150 N   0  0  0  0  0  0  0  0  0  0  0  0
   40.5340   27.5450   30.2930 C   0  0  0  0  0  0  0  0  0  0  0  0
   39.5410   27.4640   29.3940 N   0  0  0  0  0  0  0  0  0  0  0  0
   38.7740   26.8580   33.4280 N   0  0  0  0  0  0  0  0  0  0  0  0
   37.5040   27.1400   34.1060 C   0  0  0  0  0  0  0  0  0  0  0  0
   37.7610   27.0030   35.5700 C   0  0  0  0  0  0  0  0  0  0  0  0
   39.2410   27.1220   35.6580 C   0  0  0  0  0  0  0  0  0  0  0  0
   39.6480   26.3620   34.4230 C   0  0  2  0  0  0  0  0  0  0  0  0
   37.4380   27.1070   29.0960 H   0  0  0  0  0  0  0  0  0  0  0  0
   36.9660   26.7500   31.4380 H   0  0  0  0  0  0  0  0  0  0  0  0
   41.5520   27.7610   30.0570 H   0  0  0  0  0  0  0  0  0  0  0  0
   37.3030   28.2240   33.8590 H   0  0  0  0  0  0  0  0  0  0  0  0
   36.6760   26.5340   33.7150 H   0  0  0  0  0  0  0  0  0  0  0  0
   37.3410   27.8920   36.0890 H   0  0  0  0  0  0  0  0  0  0  0  0
   37.2990   26.1440   36.0680 H   0  0  0  0  0  0  0  0  0  0  0  0
   39.5770   28.1560   35.6990 H   0  0  0  0  0  0  0  0  0  0  0  0
   39.5610   26.5240   36.5540 H   0  0  0  0  0  0  0  0  0  0  0  0
   41.1140   26.4480   34.1820 C   0  0  0  0  0  0  0  0  0  0  0  0
   41.7250   26.1810   35.4000 F   0  0  0  0  0  0  0  0  0  0  0  0
   41.5820   27.6560   33.7730 F   0  0  0  0  0  0  0  0  0  0  0  0
   41.4570   25.4070   33.3480 F   0  0  0  0  0  0  0  0  0  0  0  0
   39.3190   24.9140   34.6030 C   0  0  0  0  0  0  0  0  0  0  0  0
   40.0370   24.2370   34.0460 H   0  0  0  0  0  0  0  0  0  0  0  0
   38.3550   24.7430   34.0690 H   0  0  0  0  0  0  0  0  0  0  0  0
   39.3270   24.6720   35.8110 O   0  0  0  0  0  0  0  0  0  0  0  0
   38.9330   23.3720   38.6580 O   0  0  0  0  0  0  0  0  0  0  0  0
   39.4860   23.0480   37.5680 C   0  0  0  0  0  0  0  0  0  0  0  0
   39.7210   23.3780   36.1170 C   0  0  2  0  0  3  0  0  0  0  0  0
   41.1910   23.1260   36.0270 C   0  0  0  0  0  3  0  0  0  0  0  0
   41.6110   23.1600   35.0120 H   0  0  0  0  0  0  0  0  0  0  0  0
   41.2370   21.7130   36.6140 C   0  0  0  0  0  3  0  0  0  0  0  0
   40.8380   21.0310   35.8640 H   0  0  0  0  0  0  0  0  0  0  0  0
   40.2500   21.8300   37.6830 N   0  0  0  0  0  0  0  0  0  0  0  0
   40.2570   21.0100   38.3590 H   0  0  0  0  0  0  0  0  0  0  0  0
  1  2  1  0  0  0  0
  2 13  1  0  0  0  0
  2  3  2  0  0  0  0
  3  7  1  0  0  0  0
  4  3  1  0  0  0  0
  5  4  2  0  0  0  0
  6  1  2  0  0  0  0
  6  5  1  0  0  0  0
  7  8  1  0  0  0  0
  7 11  1  0  0  0  0
  8  9  1  0  0  0  0
  9 10  1  0  0  0  0
  9 18  1  0  0  0  0
  9 17  1  0  0  0  0
 10 19  1  0  0  0  0
 10 20  1  0  0  0  0
 11 21  1  6  0  0  0
 11 25  1  0  0  0  0
 11 10  1  0  0  0  0
 12  1  1  0  0  0  0
 14  5  1  0  0  0  0
 15  8  1  0  0  0  0
 16  8  1  0  0  0  0
 21 22  1  0  0  0  0
 23 21  1  0  0  0  0
 24 21  1  0  0  0  0
 25 28  1  0  0  0  0
 26 25  1  0  0  0  0
 27 25  1  0  0  0  0
 30 36  1  0  0  0  0
 30 29  2  0  0  0  0
 31 28  1  1  0  0  0
 31 30  1  0  0  0  0
 32 31  1  0  0  0  0
 32 34  1  0  0  0  0
 33 32  1  0  0  0  0
 34 36  1  0  0  0  0
 35 34  1  0  0  0  0
 36 37  1  0  0  0  0
M  END
>  <minimizedAffinity>
-5.20297527

$$$$

 OpenBabel03272507263D

 37 39  0  0  1  0  0  0  0  0999 V2000
   36.8710   26.3730   31.2360 C   0  0  0  0  0  0  0  0  0  0  0  0
   37.5780   25.1590   31.1920 C   0  0  0  0  0  0  0  0  0  0  0  0
   36.8320   23.9840   31.0550 C   0  0  0  0  0  0  0  0  0  0  0  0
   35.4870   24.0640   30.9720 N   0  0  0  0  0  0  0  0  0  0  0  0
   34.8300   25.2590   31.0190 C   0  0  0  0  0  0  0  0  0  0  0  0
   35.5320   26.3950   31.1500 N   0  0  0  0  0  0  0  0  0  0  0  0
   37.4760   22.7310   31.0030 N   0  0  0  0  0  0  0  0  0  0  0  0
   38.8320   22.5050   30.4900 C   0  0  0  0  0  0  0  0  0  0  0  0
   39.0180   21.0260   30.4070 C   0  0  0  0  0  0  0  0  0  0  0  0
   37.6200   20.5170   30.4200 C   0  0  0  0  0  0  0  0  0  0  0  0
   36.9950   21.4650   31.4100 C   0  0  2  0  0  0  0  0  0  0  0  0
   37.4960   27.2580   31.3450 H   0  0  0  0  0  0  0  0  0  0  0  0
   38.6510   25.1380   31.2610 H   0  0  0  0  0  0  0  0  0  0  0  0
   33.7660   25.2060   30.9450 H   0  0  0  0  0  0  0  0  0  0  0  0
   38.8000   22.9400   29.4480 H   0  0  0  0  0  0  0  0  0  0  0  0
   39.5940   23.0440   31.0690 H   0  0  0  0  0  0  0  0  0  0  0  0
   39.4360   20.7770   29.4080 H   0  0  0  0  0  0  0  0  0  0  0  0
   39.7170   20.5820   31.1230 H   0  0  0  0  0  0  0  0  0  0  0  0
   37.1660   20.5120   29.4310 H   0  0  0  0  0  0  0  0  0  0  0  0
   37.6520   19.4960   30.8900 H   0  0  0  0  0  0  0  0  0  0  0  0
   35.5240   21.2660   31.5080 C   0  0  0  0  0  0  0  0  0  0  0  0
   35.3250   19.9030   31.6860 F   0  0  0  0  0  0  0  0  0  0  0  0
   34.7990   21.6220   30.4150 F   0  0  0  0  0  0  0  0  0  0  0  0
   35.1030   21.8670   32.6740 F   0  0  0  0  0  0  0  0  0  0  0  0
   37.5630   21.2050   32.7700 C   0  0  0  0  0  0  0  0  0  0  0  0
   38.6490   20.8890   32.7300 H   0  0  0  0  0  0  0  0  0  0  0  0
   37.0530   20.2890   33.1510 H   0  0  0  0  0  0  0  0  0  0  0  0
   37.4220   22.2290   33.4400 O   0  0  0  0  0  0  0  0  0  0  0  0
   36.3140   21.5100   36.3040 O   0  0  0  0  0  0  0  0  0  0  0  0
   37.3990   21.9470   35.8210 C   0  0  0  0  0  0  0  0  0  0  0  0
   38.2030   22.2560   34.5850 C   0  0  2  0  0  3  0  0  0  0  0  0
   38.7420   23.5990   34.9540 C   0  0  0  0  0  3  0  0  0  0  0  0
   39.4950   24.0070   34.2660 H   0  0  0  0  0  0  0  0  0  0  0  0
   39.3430   23.2600   36.3200 C   0  0  0  0  0  3  0  0  0  0  0  0
   40.2530   22.6850   36.1450 H   0  0  0  0  0  0  0  0  0  0  0  0
   38.3320   22.3480   36.8450 N   0  0  0  0  0  0  0  0  0  0  0  0
   38.4480   22.1340   37.8790 H   0  0  0  0  0  0  0  0  0  0  0  0
  1 12  1  0  0  0  0
  2  1  1  0  0  0  0
  2 13  1  0  0  0  0
  3  2  2  0  0  0  0
  4  5  2  0  0  0  0
  4  3  1  0  0  0  0
  5  6  1  0  0  0  0
  6  1  2  0  0  0  0
  7  3  1  0  0  0  0
  7 11  1  0  0  0  0
  8  7  1  0  0  0  0
  8 16  1  0  0  0  0
  9 10  1  0  0  0  0
  9  8  1  0  0  0  0
  9 18  1  0  0  0  0
 10 20  1  0  0  0  0
 10 11  1  0  0  0  0
 11 21  1  6  0  0  0
 11 25  1  0  0  0  0
 14  5  1  0  0  0  0
 15  8  1  0  0  0  0
 17  9  1  0  0  0  0
 19 10  1  0  0  0  0
 21 22  1  0  0  0  0
 21 24  1  0  0  0  0
 23 21  1  0  0  0  0
 25 27  1  0  0  0  0
 25 28  1  0  0  0  0
 26 25  1  0  0  0  0
 30 29  2  0  0  0  0
 30 36  1  0  0  0  0
 31 28  1  6  0  0  0
 31 32  1  0  0  0  0
 31 30  1  0  0  0  0
 32 34  1  0  0  0  0
 33 32  1  0  0  0  0
 34 36  1  0  0  0  0
 35 34  1  0  0  0  0
 36 37  1  0  0  0  0
M  END
>  <minimizedAffinity>
-5.10196924

$$$$

 OpenBabel03272507263D

 37 39  0  0  1  0  0  0  0  0999 V2000
   39.1720   22.7670   37.3230 C   0  0  0  0  0  0  0  0  0  0  0  0
   39.5640   23.3610   36.1100 C   0  0  0  0  0  0  0  0  0  0  0  0
   39.1180   24.6610   35.8560 C   0  0  0  0  0  0  0  0  0  0  0  0
   38.3430   25.2820   36.7710 N   0  0  0  0  0  0  0  0  0  0  0  0
   37.9790   24.6780   37.9400 C   0  0  0  0  0  0  0  0  0  0  0  0
   38.4000   23.4300   38.1970 N   0  0  0  0  0  0  0  0  0  0  0  0
   39.4730   25.3180   34.6600 N   0  0  0  0  0  0  0  0  0  0  0  0
   40.7060   25.0730   33.9030 C   0  0  0  0  0  0  0  0  0  0  0  0
   40.7810   26.1330   32.8540 C   0  0  0  0  0  0  0  0  0  0  0  0
   39.8570   27.1770   33.3720 C   0  0  0  0  0  0  0  0  0  0  0  0
   38.7650   26.3120   33.9460 C   0  0  2  0  0  0  0  0  0  0  0  0
   39.5430   21.7550   37.4720 H   0  0  0  0  0  0  0  0  0  0  0  0
   40.1820   22.8320   35.4060 H   0  0  0  0  0  0  0  0  0  0  0  0
   37.3650   25.2600   38.5910 H   0  0  0  0  0  0  0  0  0  0  0  0
   41.5240   25.2380   34.6630 H   0  0  0  0  0  0  0  0  0  0  0  0
   40.7730   24.0410   33.5360 H   0  0  0  0  0  0  0  0  0  0  0  0
   41.8000   26.5760   32.8690 H   0  0  0  0  0  0  0  0  0  0  0  0
   40.6330   25.8050   31.8190 H   0  0  0  0  0  0  0  0  0  0  0  0
   40.3380   27.8490   34.0800 H   0  0  0  0  0  0  0  0  0  0  0  0
   39.4400   27.7130   32.4760 H   0  0  0  0  0  0  0  0  0  0  0  0
   37.7510   27.1200   34.6770 C   0  0  0  0  0  0  0  0  0  0  0  0
   37.2570   28.0440   33.7640 F   0  0  0  0  0  0  0  0  0  0  0  0
   38.2080   27.8340   35.7380 F   0  0  0  0  0  0  0  0  0  0  0  0
   36.6980   26.2850   34.9800 F   0  0  0  0  0  0  0  0  0  0  0  0
   38.0490   25.6160   32.8320 C   0  0  0  0  0  0  0  0  0  0  0  0
   38.7410   25.3440   31.9790 H   0  0  0  0  0  0  0  0  0  0  0  0
   37.3750   26.3750   32.3710 H   0  0  0  0  0  0  0  0  0  0  0  0
   37.5060   24.6140   33.3000 O   0  0  0  0  0  0  0  0  0  0  0  0
   35.0100   24.6090   31.3720 O   0  0  0  0  0  0  0  0  0  0  0  0
   35.9680   23.8270   31.6370 C   0  0  0  0  0  0  0  0  0  0  0  0
   37.2710   23.6190   32.3640 C   0  0  2  0  0  3  0  0  0  0  0  0
   37.0400   22.2570   32.9300 C   0  0  0  0  0  3  0  0  0  0  0  0
   37.9140   21.7920   33.4070 H   0  0  0  0  0  0  0  0  0  0  0  0
   36.6310   21.5210   31.6520 C   0  0  0  0  0  3  0  0  0  0  0  0
   37.5310   21.3750   31.0550 H   0  0  0  0  0  0  0  0  0  0  0  0
   35.8210   22.5440   30.9960 N   0  0  0  0  0  0  0  0  0  0  0  0
   35.2650   22.1780   30.1670 H   0  0  0  0  0  0  0  0  0  0  0  0
  1 12  1  0  0  0  0
  1  6  1  0  0  0  0
  2  1  2  0  0  0  0
  3  2  1  0  0  0  0
  3  4  2  0  0  0  0
  4  5  1  0  0  0  0
  5  6  2  0  0  0  0
  5 14  1  0  0  0  0
  7  3  1  0  0  0  0
  8  7  1  0  0  0  0
  8 15  1  0  0  0  0
  9 17  1  0  0  0  0
  9 10  1  0  0  0  0
  9  8  1  0  0  0  0
 10 11  1  0  0  0  0
 10 19  1  0  0  0  0
 11 25  1  6  0  0  0
 11  7  1  0  0  0  0
 11 21  1  0  0  0  0
 13  2  1  0  0  0  0
 16  8  1  0  0  0  0
 18  9  1  0  0  0  0
 20 10  1  0  0  0  0
 21 24  1  0  0  0  0
 21 23  1  0  0  0  0
 22 21  1  0  0  0  0
 25 28  1  0  0  0  0
 26 25  1  0  0  0  0
 27 25  1  0  0  0  0
 29 30  2  0  0  0  0
 30 31  1  0  0  0  0
 31 32  1  0  0  0  0
 31 28  1  1  0  0  0
 32 33  1  0  0  0  0
 34 32  1  0  0  0  0
 35 34  1  0  0  0  0
 36 30  1  0  0  0  0
 36 34  1  0  0  0  0
 37 36  1  0  0  0  0
M  END
>  <minimizedAffinity>
-5.08893871

$$$$

 OpenBabel03272507263D

 37 39  0  0  1  0  0  0  0  0999 V2000
   39.9440   27.1060   33.6080 C   0  0  0  0  0  0  0  0  0  0  0  0
   39.2030   26.3070   34.4960 C   0  0  0  0  0  0  0  0  0  0  0  0
   39.8920   25.3100   35.1930 C   0  0  0  0  0  0  0  0  0  0  0  0
   41.2180   25.1590   34.9880 N   0  0  0  0  0  0  0  0  0  0  0  0
   41.9090   25.9510   34.1180 C   0  0  0  0  0  0  0  0  0  0  0  0
   41.2620   26.9120   33.4410 N   0  0  0  0  0  0  0  0  0  0  0  0
   39.2120   24.4720   36.1010 N   0  0  0  0  0  0  0  0  0  0  0  0
   38.0160   24.8540   36.8600 C   0  0  0  0  0  0  0  0  0  0  0  0
   37.7740   23.7650   37.8530 C   0  0  0  0  0  0  0  0  0  0  0  0
   39.0930   23.0820   37.9220 C   0  0  0  0  0  0  0  0  0  0  0  0
   39.5050   23.1400   36.4740 C   0  0  2  0  0  0  0  0  0  0  0  0
   39.3630   27.8660   33.0900 H   0  0  0  0  0  0  0  0  0  0  0  0
   38.1470   26.4590   34.6320 H   0  0  0  0  0  0  0  0  0  0  0  0
   42.9530   25.7450   34.0320 H   0  0  0  0  0  0  0  0  0  0  0  0
   38.3300   25.7940   37.4010 H   0  0  0  0  0  0  0  0  0  0  0  0
   37.1660   25.0940   36.2080 H   0  0  0  0  0  0  0  0  0  0  0  0
   37.6030   24.2260   38.8490 H   0  0  0  0  0  0  0  0  0  0  0  0
   36.8940   23.1360   37.6810 H   0  0  0  0  0  0  0  0  0  0  0  0
   39.7780   23.5610   38.6180 H   0  0  0  0  0  0  0  0  0  0  0  0
   38.8880   22.0080   38.1810 H   0  0  0  0  0  0  0  0  0  0  0  0
   40.8920   22.6390   36.2760 C   0  0  0  0  0  0  0  0  0  0  0  0
   40.9470   21.3920   36.8850 F   0  0  0  0  0  0  0  0  0  0  0  0
   41.8810   23.3840   36.8340 F   0  0  0  0  0  0  0  0  0  0  0  0
   41.0600   22.4110   34.9280 F   0  0  0  0  0  0  0  0  0  0  0  0
   38.6030   22.2590   35.6680 C   0  0  0  0  0  0  0  0  0  0  0  0
   37.5760   22.1530   36.1330 H   0  0  0  0  0  0  0  0  0  0  0  0
   39.0180   21.2270   35.7510 H   0  0  0  0  0  0  0  0  0  0  0  0
   38.5310   22.7300   34.5320 O   0  0  0  0  0  0  0  0  0  0  0  0
   36.9060   23.9880   32.1390 O   0  0  0  0  0  0  0  0  0  0  0  0
   37.0230   22.8470   32.6700 C   0  0  0  0  0  0  0  0  0  0  0  0
   37.7480   21.9800   33.6670 C   0  0  2  0  0  3  0  0  0  0  0  0
   36.5880   21.2870   34.3020 C   0  0  0  0  0  3  0  0  0  0  0  0
   36.8480   20.4720   34.9920 H   0  0  0  0  0  0  0  0  0  0  0  0
   35.8890   20.7650   33.0440 C   0  0  0  0  0  3  0  0  0  0  0  0
   36.4780   19.9310   32.6620 H   0  0  0  0  0  0  0  0  0  0  0  0
   36.0780   21.8960   32.1390 N   0  0  0  0  0  0  0  0  0  0  0  0
   35.4960   21.8320   31.2530 H   0  0  0  0  0  0  0  0  0  0  0  0
  1  2  1  0  0  0  0
  2 13  1  0  0  0  0
  2  3  2  0  0  0  0
  3  7  1  0  0  0  0
  4  3  1  0  0  0  0
  5  4  2  0  0  0  0
  6  1  2  0  0  0  0
  6  5  1  0  0  0  0
  7 11  1  0  0  0  0
  7  8  1  0  0  0  0
  8 15  1  0  0  0  0
  8  9  1  0  0  0  0
  9 10  1  0  0  0  0
  9 17  1  0  0  0  0
 10 20  1  0  0  0  0
 10 19  1  0  0  0  0
 11 25  1  6  0  0  0
 11 10  1  0  0  0  0
 12  1  1  0  0  0  0
 14  5  1  0  0  0  0
 16  8  1  0  0  0  0
 18  9  1  0  0  0  0
 21 11  1  0  0  0  0
 21 23  1  0  0  0  0
 21 22  1  0  0  0  0
 24 21  1  0  0  0  0
 25 27  1  0  0  0  0
 25 26  1  0  0  0  0
 28 25  1  0  0  0  0
 29 30  2  0  0  0  0
 30 31  1  0  0  0  0
 31 32  1  0  0  0  0
 31 28  1  1  0  0  0
 32 33  1  0  0  0  0
 34 32  1  0  0  0  0
 35 34  1  0  0  0  0
 36 30  1  0  0  0  0
 36 34  1  0  0  0  0
 37 36  1  0  0  0  0
M  END
>  <minimizedAffinity>
-5.0295639

$$$$

 OpenBabel03272507263D

 37 39  0  0  1  0  0  0  0  0999 V2000
   34.6780   20.2330   31.9120 C   0  0  0  0  0  0  0  0  0  0  0  0
   35.1840   21.5140   32.1980 C   0  0  0  0  0  0  0  0  0  0  0  0
   36.5730   21.6660   32.2240 C   0  0  0  0  0  0  0  0  0  0  0  0
   37.3580   20.5960   31.9770 N   0  0  0  0  0  0  0  0  0  0  0  0
   36.8360   19.3650   31.7030 C   0  0  0  0  0  0  0  0  0  0  0  0
   35.5040   19.2030   31.6750 N   0  0  0  0  0  0  0  0  0  0  0  0
   37.1500   22.9220   32.5030 N   0  0  0  0  0  0  0  0  0  0  0  0
   36.5260   24.2170   32.2020 C   0  0  0  0  0  0  0  0  0  0  0  0
   37.5670   25.2600   32.4470 C   0  0  0  0  0  0  0  0  0  0  0  0
   38.8320   24.4790   32.4090 C   0  0  0  0  0  0  0  0  0  0  0  0
   38.3940   23.2180   33.1060 C   0  0  2  0  0  0  0  0  0  0  0  0
   33.5920   20.1670   31.9050 H   0  0  0  0  0  0  0  0  0  0  0  0
   34.5250   22.3420   32.3890 H   0  0  0  0  0  0  0  0  0  0  0  0
   37.5470   18.5890   31.5240 H   0  0  0  0  0  0  0  0  0  0  0  0
   36.3070   24.1570   31.0950 H   0  0  0  0  0  0  0  0  0  0  0  0
   35.5800   24.3610   32.7380 H   0  0  0  0  0  0  0  0  0  0  0  0
   37.5920   25.9470   31.5740 H   0  0  0  0  0  0  0  0  0  0  0  0
   37.4080   25.9120   33.3120 H   0  0  0  0  0  0  0  0  0  0  0  0
   39.2110   24.3430   31.3980 H   0  0  0  0  0  0  0  0  0  0  0  0
   39.5600   25.0110   33.0800 H   0  0  0  0  0  0  0  0  0  0  0  0
   39.4570   22.1760   33.0790 C   0  0  0  0  0  0  0  0  0  0  0  0
   40.6220   22.7980   33.5100 F   0  0  0  0  0  0  0  0  0  0  0  0
   39.7340   21.6370   31.8630 F   0  0  0  0  0  0  0  0  0  0  0  0
   39.1450   21.2430   34.0430 F   0  0  0  0  0  0  0  0  0  0  0  0
   38.1150   23.5200   34.5450 C   0  0  0  0  0  0  0  0  0  0  0  0
   37.7820   22.6030   35.1200 H   0  0  0  0  0  0  0  0  0  0  0  0
   37.2050   24.1640   34.5580 H   0  0  0  0  0  0  0  0  0  0  0  0
   39.1360   24.0040   35.0340 O   0  0  0  0  0  0  0  0  0  0  0  0
   40.6050   21.7440   36.6730 O   0  0  0  0  0  0  0  0  0  0  0  0
   39.8640   22.7350   36.9350 C   0  0  0  0  0  0  0  0  0  0  0  0
   39.1620   23.9650   36.4200 C   0  0  2  0  0  3  0  0  0  0  0  0
   37.8300   23.7980   37.0740 C   0  0  0  0  0  3  0  0  0  0  0  0
   37.1490   24.6540   36.9750 H   0  0  0  0  0  0  0  0  0  0  0  0
   38.2870   23.6000   38.5220 C   0  0  0  0  0  3  0  0  0  0  0  0
   38.6120   24.5690   38.9000 H   0  0  0  0  0  0  0  0  0  0  0  0
   39.4760   22.7760   38.3230 N   0  0  0  0  0  0  0  0  0  0  0  0
   39.8520   22.3500   39.2200 H   0  0  0  0  0  0  0  0  0  0  0  0
  1  2  1  0  0  0  0
  2  3  2  0  0  0  0
  2 13  1  0  0  0  0
  3  7  1  0  0  0  0
  4  3  1  0  0  0  0
  5  4  2  0  0  0  0
  6  5  1  0  0  0  0
  6  1  2  0  0  0  0
  7 11  1  0  0  0  0
  8  9  1  0  0  0  0
  8  7  1  0  0  0  0
  8 16  1  0  0  0  0
  9 18  1  0  0  0  0
 10  9  1  0  0  0  0
 10 20  1  0  0  0  0
 10 11  1  0  0  0  0
 11 21  1  6  0  0  0
 11 25  1  0  0  0  0
 12  1  1  0  0  0  0
 14  5  1  0  0  0  0
 15  8  1  0  0  0  0
 17  9  1  0  0  0  0
 19 10  1  0  0  0  0
 21 22  1  0  0  0  0
 21 24  1  0  0  0  0
 23 21  1  0  0  0  0
 25 27  1  0  0  0  0
 25 28  1  0  0  0  0
 25 26  1  0  0  0  0
 29 30  2  0  0  0  0
 30 36  1  0  0  0  0
 31 28  1  6  0  0  0
 31 30  1  0  0  0  0
 31 32  1  0  0  0  0
 32 34  1  0  0  0  0
 33 32  1  0  0  0  0
 34 35  1  0  0  0  0
 36 34  1  0  0  0  0
 36 37  1  0  0  0  0
M  END
>  <minimizedAffinity>
-5.00733995

$$$$

 OpenBabel03272507263D

 37 39  0  0  1  0  0  0  0  0999 V2000
   35.0470   29.2620   32.2960 C   0  0  0  0  0  0  0  0  0  0  0  0
   35.7730   28.6540   33.3350 C   0  0  0  0  0  0  0  0  0  0  0  0
   37.0080   28.0850   33.0110 C   0  0  0  0  0  0  0  0  0  0  0  0
   37.4440   28.1410   31.7340 N   0  0  0  0  0  0  0  0  0  0  0  0
   36.7140   28.7380   30.7470 C   0  0  0  0  0  0  0  0  0  0  0  0
   35.5270   29.2890   31.0440 N   0  0  0  0  0  0  0  0  0  0  0  0
   37.7900   27.4590   34.0030 N   0  0  0  0  0  0  0  0  0  0  0  0
   37.7820   27.8170   35.4260 C   0  0  0  0  0  0  0  0  0  0  0  0
   38.9100   27.0720   36.0610 C   0  0  0  0  0  0  0  0  0  0  0  0
   39.7690   26.7200   34.8980 C   0  0  0  0  0  0  0  0  0  0  0  0
   38.7150   26.3980   33.8710 C   0  0  2  0  0  0  0  0  0  0  0  0
   34.0930   29.6890   32.6000 H   0  0  0  0  0  0  0  0  0  0  0  0
   35.3910   28.6300   34.3400 H   0  0  0  0  0  0  0  0  0  0  0  0
   37.1530   28.7250   29.7740 H   0  0  0  0  0  0  0  0  0  0  0  0
   38.0140   28.9220   35.4260 H   0  0  0  0  0  0  0  0  0  0  0  0
   36.7980   27.6670   35.8900 H   0  0  0  0  0  0  0  0  0  0  0  0
   39.4960   27.7810   36.6850 H   0  0  0  0  0  0  0  0  0  0  0  0
   38.6350   26.2610   36.7430 H   0  0  0  0  0  0  0  0  0  0  0  0
   40.4540   27.5200   34.6260 H   0  0  0  0  0  0  0  0  0  0  0  0
   40.2970   25.7640   35.1650 H   0  0  0  0  0  0  0  0  0  0  0  0
   39.3130   26.1440   32.5320 C   0  0  0  0  0  0  0  0  0  0  0  0
   39.7970   27.3670   32.0830 F   0  0  0  0  0  0  0  0  0  0  0  0
   38.4620   25.6920   31.5740 F   0  0  0  0  0  0  0  0  0  0  0  0
   40.4170   25.3430   32.7180 F   0  0  0  0  0  0  0  0  0  0  0  0
   37.9980   25.1480   34.2730 C   0  0  0  0  0  0  0  0  0  0  0  0
   36.9310   25.1230   33.8950 H   0  0  0  0  0  0  0  0  0  0  0  0
   37.8660   25.2050   35.3790 H   0  0  0  0  0  0  0  0  0  0  0  0
   38.6430   24.1890   33.8480 O   0  0  0  0  0  0  0  0  0  0  0  0
   37.2370   24.1500   36.6710 O   0  0  0  0  0  0  0  0  0  0  0  0
   38.1370   23.4830   36.0830 C   0  0  0  0  0  0  0  0  0  0  0  0
   38.8810   23.2110   34.8010 C   0  0  2  0  0  3  0  0  0  0  0  0
   40.2810   23.1560   35.3180 C   0  0  0  0  0  3  0  0  0  0  0  0
   41.0360   22.8250   34.5920 H   0  0  0  0  0  0  0  0  0  0  0  0
   40.0910   22.1380   36.4460 C   0  0  0  0  0  3  0  0  0  0  0  0
   39.9740   21.1570   35.9860 H   0  0  0  0  0  0  0  0  0  0  0  0
   38.7890   22.5460   36.9650 N   0  0  0  0  0  0  0  0  0  0  0  0
   38.5400   22.0920   37.8930 H   0  0  0  0  0  0  0  0  0  0  0  0
  1 12  1  0  0  0  0
  1  2  1  0  0  0  0
  2 13  1  0  0  0  0
  3  2  2  0  0  0  0
  3  7  1  0  0  0  0
  4  3  1  0  0  0  0
  5  6  1  0  0  0  0
  5  4  2  0  0  0  0
  6  1  2  0  0  0  0
  7  8  1  0  0  0  0
  8 16  1  0  0  0  0
  8  9  1  0  0  0  0
  9 17  1  0  0  0  0
  9 18  1  0  0  0  0
 10 20  1  0  0  0  0
 10  9  1  0  0  0  0
 11 21  1  6  0  0  0
 11  7  1  0  0  0  0
 11 25  1  0  0  0  0
 11 10  1  0  0  0  0
 14  5  1  0  0  0  0
 15  8  1  0  0  0  0
 19 10  1  0  0  0  0
 21 24  1  0  0  0  0
 22 21  1  0  0  0  0
 23 21  1  0  0  0  0
 25 27  1  0  0  0  0
 26 25  1  0  0  0  0
 28 25  1  0  0  0  0
 30 29  2  0  0  0  0
 30 36  1  0  0  0  0
 31 28  1  6  0  0  0
 31 32  1  0  0  0  0
 31 30  1  0  0  0  0
 32 34  1  0  0  0  0
 33 32  1  0  0  0  0
 34 36  1  0  0  0  0
 35 34  1  0  0  0  0
 36 37  1  0  0  0  0
M  END
>  <minimizedAffinity>
-4.96986723

$$$$

 OpenBabel03272507263D

 37 39  0  0  1  0  0  0  0  0999 V2000
   42.7890   21.7710   36.3650 C   0  0  0  0  0  0  0  0  0  0  0  0
   42.4900   22.9360   35.6370 C   0  0  0  0  0  0  0  0  0  0  0  0
   41.2680   23.5640   35.8990 C   0  0  0  0  0  0  0  0  0  0  0  0
   40.4410   23.0330   36.8250 N   0  0  0  0  0  0  0  0  0  0  0  0
   40.7600   21.9000   37.5150 C   0  0  0  0  0  0  0  0  0  0  0  0
   41.9290   21.2870   37.2740 N   0  0  0  0  0  0  0  0  0  0  0  0
   40.9040   24.7360   35.2060 N   0  0  0  0  0  0  0  0  0  0  0  0
   41.8500   25.7230   34.6720 C   0  0  0  0  0  0  0  0  0  0  0  0
   41.0390   26.8970   34.2300 C   0  0  0  0  0  0  0  0  0  0  0  0
   39.7590   26.7100   34.9650 C   0  0  0  0  0  0  0  0  0  0  0  0
   39.6140   25.2130   34.8790 C   0  0  2  0  0  0  0  0  0  0  0  0
   43.7500   21.3200   36.1240 H   0  0  0  0  0  0  0  0  0  0  0  0
   43.1760   23.3270   34.9070 H   0  0  0  0  0  0  0  0  0  0  0  0
   40.0330   21.5690   38.2230 H   0  0  0  0  0  0  0  0  0  0  0  0
   42.4710   26.0120   35.5700 H   0  0  0  0  0  0  0  0  0  0  0  0
   42.5140   25.2970   33.9100 H   0  0  0  0  0  0  0  0  0  0  0  0
   41.5040   27.8210   34.6350 H   0  0  0  0  0  0  0  0  0  0  0  0
   40.9740   27.0660   33.1510 H   0  0  0  0  0  0  0  0  0  0  0  0
   39.7920   27.1160   35.9740 H   0  0  0  0  0  0  0  0  0  0  0  0
   38.9530   27.1740   34.3340 H   0  0  0  0  0  0  0  0  0  0  0  0
   38.4570   24.7260   35.6790 C   0  0  0  0  0  0  0  0  0  0  0  0
   37.4010   25.5850   35.4000 F   0  0  0  0  0  0  0  0  0  0  0  0
   38.6160   24.7380   37.0280 F   0  0  0  0  0  0  0  0  0  0  0  0
   38.0920   23.4990   35.1720 F   0  0  0  0  0  0  0  0  0  0  0  0
   39.3570   24.8220   33.4580 C   0  0  0  0  0  0  0  0  0  0  0  0
   38.8970   23.7920   33.3710 H   0  0  0  0  0  0  0  0  0  0  0  0
   40.3580   24.6870   32.9850 H   0  0  0  0  0  0  0  0  0  0  0  0
   38.6260   25.6780   32.9560 O   0  0  0  0  0  0  0  0  0  0  0  0
   37.0100   23.6390   31.1740 O   0  0  0  0  0  0  0  0  0  0  0  0
   37.8560   24.5590   30.9800 C   0  0  0  0  0  0  0  0  0  0  0  0
   38.6550   25.6920   31.5700 C   0  0  2  0  0  3  0  0  0  0  0  0
   39.9900   25.4150   30.9610 C   0  0  0  0  0  3  0  0  0  0  0  0
   40.7490   26.1930   31.1210 H   0  0  0  0  0  0  0  0  0  0  0  0
   39.5770   25.3160   29.4900 C   0  0  0  0  0  3  0  0  0  0  0  0
   39.3660   26.3260   29.1390 H   0  0  0  0  0  0  0  0  0  0  0  0
   38.3050   24.6110   29.6110 N   0  0  0  0  0  0  0  0  0  0  0  0
   37.9250   24.2570   28.6830 H   0  0  0  0  0  0  0  0  0  0  0  0
  1  6  1  0  0  0  0
  2  3  1  0  0  0  0
  2  1  2  0  0  0  0
  3  4  2  0  0  0  0
  4  5  1  0  0  0  0
  5 14  1  0  0  0  0
  6  5  2  0  0  0  0
  7  3  1  0  0  0  0
  8  7  1  0  0  0  0
  8 15  1  0  0  0  0
  9 17  1  0  0  0  0
  9  8  1  0  0  0  0
  9 10  1  0  0  0  0
 10 19  1  0  0  0  0
 11 25  1  6  0  0  0
 11 10  1  0  0  0  0
 11  7  1  0  0  0  0
 11 21  1  0  0  0  0
 12  1  1  0  0  0  0
 13  2  1  0  0  0  0
 16  8  1  0  0  0  0
 18  9  1  0  0  0  0
 20 10  1  0  0  0  0
 21 23  1  0  0  0  0
 22 21  1  0  0  0  0
 24 21  1  0  0  0  0
 26 25  1  0  0  0  0
 27 25  1  0  0  0  0
 28 25  1  0  0  0  0
 30 29  2  0  0  0  0
 30 31  1  0  0  0  0
 31 28  1  1  0  0  0
 32 33  1  0  0  0  0
 32 31  1  0  0  0  0
 34 36  1  0  0  0  0
 34 32  1  0  0  0  0
 35 34  1  0  0  0  0
 36 30  1  0  0  0  0
 37 36  1  0  0  0  0
M  END
>  <minimizedAffinity>
-4.90689516

$$$$
