
 OpenBabel03272506433D

 32 34  0  0  1  0  0  0  0  0999 V2000
   32.3540   28.3090   47.5920 C   0  0  2  0  0  0  0  0  0  0  0  0
   33.6350   28.3330   48.3990 C   0  0  1  0  0  0  0  0  0  0  0  0
   34.1990   27.0830   48.3100 O   0  0  0  0  0  0  0  0  0  0  0  0
   33.5060   26.3320   47.3890 C   0  0  0  0  0  0  0  0  0  0  0  0
   32.7680   27.3270   46.5010 C   0  0  1  0  0  0  0  0  0  0  0  0
   31.4920   27.8830   48.1470 H   0  0  0  0  0  0  0  0  0  0  0  0
   33.4980   28.6760   49.4320 H   0  0  0  0  0  0  0  0  0  0  0  0
   32.7950   25.6010   47.8500 H   0  0  0  0  0  0  0  0  0  0  0  0
   34.2230   25.7180   46.7890 H   0  0  0  0  0  0  0  0  0  0  0  0
   33.4780   27.7930   45.8090 H   0  0  0  0  0  0  0  0  0  0  0  0
   32.0800   29.5740   47.0670 O   0  0  0  0  0  0  0  0  0  0  0  0
   32.8510   29.8080   46.5170 H   0  0  0  0  0  0  0  0  0  0  0  0
   34.7670   29.4980   47.5490 S   0  0  0  0  0  0  0  0  0  0  0  0
   37.3770   29.4640   50.5440 C   0  0  0  0  0  0  0  0  0  0  0  0
   37.9750   30.7360   50.4940 C   0  0  0  0  0  0  0  0  0  0  0  0
   37.5570   31.6230   49.5070 C   0  0  0  0  0  0  0  0  0  0  0  0
   36.5990   31.2310   48.6400 N   0  0  0  0  0  0  0  0  0  0  0  0
   36.0350   29.9990   48.7060 C   0  0  0  0  0  0  0  0  0  0  0  0
   36.4190   29.1250   49.6470 N   0  0  0  0  0  0  0  0  0  0  0  0
   37.6220   28.7010   51.2630 H   0  0  0  0  0  0  0  0  0  0  0  0
   38.7380   30.9470   51.2420 H   0  0  0  0  0  0  0  0  0  0  0  0
   38.0240   32.5990   49.4770 H   0  0  0  0  0  0  0  0  0  0  0  0
   31.6780   26.7270   45.8920 O   0  0  0  0  0  0  0  0  0  0  0  0
   32.6850   24.9620   43.6490 O   0  0  0  0  0  0  0  0  0  0  0  0
   31.8130   25.8940   43.7130 C   0  0  0  0  0  0  0  0  0  0  0  0
   31.5370   27.0860   44.5580 C   0  0  1  0  0  3  0  0  0  0  0  0
   30.1050   27.4030   44.1800 C   0  0  0  0  0  3  0  0  0  0  0  0
   29.4270   26.6680   44.6230 H   0  0  0  0  0  0  0  0  0  0  0  0
   30.1310   27.1250   42.6830 C   0  0  0  0  0  3  0  0  0  0  0  0
   29.1500   27.1130   42.2140 H   0  0  0  0  0  0  0  0  0  0  0  0
   30.7870   25.8090   42.7010 N   0  0  0  0  0  0  0  0  0  0  0  0
   30.4570   25.0470   42.0380 H   0  0  0  0  0  0  0  0  0  0  0  0
  1  6  1  1  0  0  0
  1  2  1  0  0  0  0
  2  7  1  1  0  0  0
  3  2  1  0  0  0  0
  4  8  1  0  0  0  0
  4  3  1  0  0  0  0
  5 10  1  6  0  0  0
  5  4  1  0  0  0  0
  5  1  1  0  0  0  0
  9  4  1  0  0  0  0
 11  1  1  0  0  0  0
 12 11  1  0  0  0  0
 13  2  1  0  0  0  0
 13 18  1  0  0  0  0
 14 20  1  0  0  0  0
 15 14  1  0  0  0  0
 15 21  1  0  0  0  0
 16 15  2  0  0  0  0
 17 18  2  0  0  0  0
 17 16  1  0  0  0  0
 18 19  1  0  0  0  0
 19 14  2  0  0  0  0
 22 16  1  0  0  0  0
 23  5  1  0  0  0  0
 24 25  2  0  0  0  0
 25 26  1  0  0  0  0
 26 23  1  1  0  0  0
 27 26  1  0  0  0  0
 27 28  1  0  0  0  0
 29 31  1  0  0  0  0
 29 27  1  0  0  0  0
 30 29  1  0  0  0  0
 31 25  1  0  0  0  0
 32 31  1  0  0  0  0
M  END
>  <minimizedAffinity>
-3.71447849

>  <minimizedRMSD>
1.11661243

$$$$
