
 OpenBabel03272506423D

 32 34  0  0  1  0  0  0  0  0999 V2000
   32.3520   28.2990   47.5580 C   0  0  2  0  0  0  0  0  0  0  0  0
   33.6000   28.2930   48.4150 C   0  0  1  0  0  0  0  0  0  0  0  0
   34.1670   27.0450   48.3050 O   0  0  0  0  0  0  0  0  0  0  0  0
   33.5090   26.3280   47.3330 C   0  0  0  0  0  0  0  0  0  0  0  0
   32.8070   27.3540   46.4520 C   0  0  1  0  0  0  0  0  0  0  0  0
   31.4680   27.8570   48.0640 H   0  0  0  0  0  0  0  0  0  0  0  0
   33.4240   28.6010   49.4530 H   0  0  0  0  0  0  0  0  0  0  0  0
   32.7800   25.5830   47.7410 H   0  0  0  0  0  0  0  0  0  0  0  0
   34.2470   25.7330   46.7400 H   0  0  0  0  0  0  0  0  0  0  0  0
   33.5440   27.8420   45.8040 H   0  0  0  0  0  0  0  0  0  0  0  0
   32.1000   29.5820   47.0670 O   0  0  0  0  0  0  0  0  0  0  0  0
   32.8920   29.8340   46.5550 H   0  0  0  0  0  0  0  0  0  0  0  0
   34.7660   29.4830   47.6490 S   0  0  0  0  0  0  0  0  0  0  0  0
   37.3520   29.3190   50.6610 C   0  0  0  0  0  0  0  0  0  0  0  0
   37.8460   30.6320   50.7630 C   0  0  0  0  0  0  0  0  0  0  0  0
   37.3630   31.5890   49.8760 C   0  0  0  0  0  0  0  0  0  0  0  0
   36.4460   31.2230   48.9560 N   0  0  0  0  0  0  0  0  0  0  0  0
   35.9830   29.9490   48.8750 C   0  0  0  0  0  0  0  0  0  0  0  0
   36.4300   29.0080   49.7170 N   0  0  0  0  0  0  0  0  0  0  0  0
   37.6540   28.5020   51.2930 H   0  0  0  0  0  0  0  0  0  0  0  0
   38.5850   30.8170   51.5420 H   0  0  0  0  0  0  0  0  0  0  0  0
   37.7490   32.5960   49.9630 H   0  0  0  0  0  0  0  0  0  0  0  0
   31.7400   26.7780   45.7800 O   0  0  0  0  0  0  0  0  0  0  0  0
   29.4930   28.4390   44.6160 O   0  0  0  0  0  0  0  0  0  0  0  0
   30.6900   28.1900   44.2420 C   0  0  0  0  0  0  0  0  0  0  0  0
   31.7010   27.1160   44.4340 C   0  0  1  0  0  3  0  0  0  0  0  0
   32.9660   27.8030   43.9610 C   0  0  0  0  0  3  0  0  0  0  0  0
   33.2950   28.5380   44.7010 H   0  0  0  0  0  0  0  0  0  0  0  0
   32.4430   28.5890   42.7680 C   0  0  0  0  0  3  0  0  0  0  0  0
   33.1490   29.3130   42.3650 H   0  0  0  0  0  0  0  0  0  0  0  0
   31.2640   29.2070   43.3940 N   0  0  0  0  0  0  0  0  0  0  0  0
   31.0140   30.2140   43.1650 H   0  0  0  0  0  0  0  0  0  0  0  0
  1  6  1  1  0  0  0
  1  2  1  0  0  0  0
  2  7  1  1  0  0  0
  3  2  1  0  0  0  0
  4  8  1  0  0  0  0
  4  3  1  0  0  0  0
  5 10  1  6  0  0  0
  5  4  1  0  0  0  0
  5  1  1  0  0  0  0
  9  4  1  0  0  0  0
 11  1  1  0  0  0  0
 12 11  1  0  0  0  0
 13  2  1  0  0  0  0
 13 18  1  0  0  0  0
 14 15  1  0  0  0  0
 14 20  1  0  0  0  0
 15 21  1  0  0  0  0
 16 22  1  0  0  0  0
 16 15  2  0  0  0  0
 17 16  1  0  0  0  0
 18 17  2  0  0  0  0
 18 19  1  0  0  0  0
 19 14  2  0  0  0  0
 23  5  1  0  0  0  0
 25 26  1  0  0  0  0
 25 24  2  0  0  0  0
 26 23  1  1  0  0  0
 27 26  1  0  0  0  0
 27 28  1  0  0  0  0
 29 31  1  0  0  0  0
 29 27  1  0  0  0  0
 30 29  1  0  0  0  0
 31 25  1  0  0  0  0
 32 31  1  0  0  0  0
M  END
>  <minimizedAffinity>
-3.82481432

>  <minimizedRMSD>
1.63214672

$$$$
