
 OpenBabel03272506433D

 32 34  0  0  1  0  0  0  0  0999 V2000
   32.2350   28.1410   47.5950 C   0  0  2  0  0  0  0  0  0  0  0  0
   33.5130   28.1360   48.4080 C   0  0  1  0  0  0  0  0  0  0  0  0
   34.1020   26.9060   48.2370 O   0  0  0  0  0  0  0  0  0  0  0  0
   33.4260   26.2050   47.2660 C   0  0  0  0  0  0  0  0  0  0  0  0
   32.6710   27.2430   46.4430 C   0  0  1  0  0  0  0  0  0  0  0  0
   31.3800   27.6630   48.1160 H   0  0  0  0  0  0  0  0  0  0  0  0
   33.3660   28.4070   49.4600 H   0  0  0  0  0  0  0  0  0  0  0  0
   32.7280   25.4310   47.6740 H   0  0  0  0  0  0  0  0  0  0  0  0
   34.1560   25.6470   46.6280 H   0  0  0  0  0  0  0  0  0  0  0  0
   33.3750   27.7670   45.7860 H   0  0  0  0  0  0  0  0  0  0  0  0
   31.9380   29.4330   47.1550 O   0  0  0  0  0  0  0  0  0  0  0  0
   32.7060   29.7190   46.6250 H   0  0  0  0  0  0  0  0  0  0  0  0
   34.6250   29.3770   47.6420 S   0  0  0  0  0  0  0  0  0  0  0  0
   37.2800   29.2750   50.5950 C   0  0  0  0  0  0  0  0  0  0  0  0
   37.6910   30.6130   50.7350 C   0  0  0  0  0  0  0  0  0  0  0  0
   37.1300   31.5670   49.8920 C   0  0  0  0  0  0  0  0  0  0  0  0
   36.2180   31.1750   48.9770 N   0  0  0  0  0  0  0  0  0  0  0  0
   35.8350   29.8780   48.8590 C   0  0  0  0  0  0  0  0  0  0  0  0
   36.3600   28.9380   49.6590 N   0  0  0  0  0  0  0  0  0  0  0  0
   37.6470   28.4580   51.1920 H   0  0  0  0  0  0  0  0  0  0  0  0
   38.4330   30.8180   51.5050 H   0  0  0  0  0  0  0  0  0  0  0  0
   37.4530   32.5930   50.0080 H   0  0  0  0  0  0  0  0  0  0  0  0
   31.5950   26.6640   45.7900 O   0  0  0  0  0  0  0  0  0  0  0  0
   29.1990   28.2220   44.7910 O   0  0  0  0  0  0  0  0  0  0  0  0
   30.3960   28.0770   44.3660 C   0  0  0  0  0  0  0  0  0  0  0  0
   31.4830   27.0680   44.4660 C   0  0  1  0  0  3  0  0  0  0  0  0
   32.6810   27.8650   43.9900 C   0  0  0  0  0  3  0  0  0  0  0  0
   32.9870   28.5820   44.7570 H   0  0  0  0  0  0  0  0  0  0  0  0
   32.0620   28.6730   42.8590 C   0  0  0  0  0  3  0  0  0  0  0  0
   32.7020   29.4640   42.4720 H   0  0  0  0  0  0  0  0  0  0  0  0
   30.8690   29.1740   43.5560 N   0  0  0  0  0  0  0  0  0  0  0  0
   30.5430   30.1720   43.3910 H   0  0  0  0  0  0  0  0  0  0  0  0
  1  6  1  1  0  0  0
  1  2  1  0  0  0  0
  2  7  1  1  0  0  0
  3  2  1  0  0  0  0
  4  8  1  0  0  0  0
  4  3  1  0  0  0  0
  5 10  1  6  0  0  0
  5  4  1  0  0  0  0
  5  1  1  0  0  0  0
  9  4  1  0  0  0  0
 11  1  1  0  0  0  0
 12 11  1  0  0  0  0
 13  2  1  0  0  0  0
 13 18  1  0  0  0  0
 14 15  1  0  0  0  0
 14 20  1  0  0  0  0
 15 21  1  0  0  0  0
 16 22  1  0  0  0  0
 16 15  2  0  0  0  0
 17 16  1  0  0  0  0
 18 17  2  0  0  0  0
 18 19  1  0  0  0  0
 19 14  2  0  0  0  0
 23  5  1  0  0  0  0
 25 26  1  0  0  0  0
 25 24  2  0  0  0  0
 26 23  1  1  0  0  0
 27 26  1  0  0  0  0
 27 28  1  0  0  0  0
 29 31  1  0  0  0  0
 29 27  1  0  0  0  0
 30 29  1  0  0  0  0
 31 25  1  0  0  0  0
 32 31  1  0  0  0  0
M  END
>  <minimizedAffinity>
-3.82551265

>  <minimizedRMSD>
1.61409855

$$$$
