
 OpenBabel03272506433D

 32 34  0  0  1  0  0  0  0  0999 V2000
   32.3840   28.3410   47.5190 C   0  0  2  0  0  0  0  0  0  0  0  0
   33.6240   28.4140   48.3850 C   0  0  1  0  0  0  0  0  0  0  0  0
   34.1950   27.1630   48.3880 O   0  0  0  0  0  0  0  0  0  0  0  0
   33.5490   26.3620   47.4750 C   0  0  0  0  0  0  0  0  0  0  0  0
   32.8520   27.3070   46.5020 C   0  0  1  0  0  0  0  0  0  0  0  0
   31.4970   27.9410   48.0540 H   0  0  0  0  0  0  0  0  0  0  0  0
   33.4370   28.8090   49.3910 H   0  0  0  0  0  0  0  0  0  0  0  0
   32.8180   25.6520   47.9390 H   0  0  0  0  0  0  0  0  0  0  0  0
   34.2950   25.7210   46.9430 H   0  0  0  0  0  0  0  0  0  0  0  0
   33.5950   27.7390   45.8220 H   0  0  0  0  0  0  0  0  0  0  0  0
   32.1330   29.5760   46.9170 O   0  0  0  0  0  0  0  0  0  0  0  0
   32.9290   29.7860   46.3930 H   0  0  0  0  0  0  0  0  0  0  0  0
   34.7940   29.5380   47.5310 S   0  0  0  0  0  0  0  0  0  0  0  0
   37.3940   29.4730   50.5340 C   0  0  0  0  0  0  0  0  0  0  0  0
   37.9980   30.7430   50.4940 C   0  0  0  0  0  0  0  0  0  0  0  0
   37.5870   31.6390   49.5110 C   0  0  0  0  0  0  0  0  0  0  0  0
   36.6300   31.2570   48.6380 N   0  0  0  0  0  0  0  0  0  0  0  0
   36.0610   30.0260   48.6950 C   0  0  0  0  0  0  0  0  0  0  0  0
   36.4370   29.1440   49.6320 N   0  0  0  0  0  0  0  0  0  0  0  0
   37.6340   28.7050   51.2490 H   0  0  0  0  0  0  0  0  0  0  0  0
   38.7590   30.9460   51.2460 H   0  0  0  0  0  0  0  0  0  0  0  0
   38.0580   32.6130   49.4890 H   0  0  0  0  0  0  0  0  0  0  0  0
   31.7940   26.6710   45.8730 O   0  0  0  0  0  0  0  0  0  0  0  0
   33.2430   24.5840   44.2270 O   0  0  0  0  0  0  0  0  0  0  0  0
   32.3300   25.4380   43.9610 C   0  0  0  0  0  0  0  0  0  0  0  0
   31.8620   26.7470   44.4880 C   0  0  1  0  0  3  0  0  0  0  0  0
   30.4990   26.8690   43.8360 C   0  0  0  0  0  3  0  0  0  0  0  0
   29.7910   26.1840   44.3120 H   0  0  0  0  0  0  0  0  0  0  0  0
   30.7880   26.3050   42.4530 C   0  0  0  0  0  3  0  0  0  0  0  0
   29.9000   26.1230   41.8500 H   0  0  0  0  0  0  0  0  0  0  0  0
   31.4930   25.0750   42.8430 N   0  0  0  0  0  0  0  0  0  0  0  0
   31.3140   24.1740   42.3090 H   0  0  0  0  0  0  0  0  0  0  0  0
  1  6  1  1  0  0  0
  1  2  1  0  0  0  0
  2  3  1  0  0  0  0
  2  7  1  1  0  0  0
  4  8  1  0  0  0  0
  4  3  1  0  0  0  0
  5 10  1  6  0  0  0
  5  4  1  0  0  0  0
  5  1  1  0  0  0  0
  9  4  1  0  0  0  0
 11  1  1  0  0  0  0
 12 11  1  0  0  0  0
 13  2  1  0  0  0  0
 13 18  1  0  0  0  0
 14 20  1  0  0  0  0
 15 14  1  0  0  0  0
 15 21  1  0  0  0  0
 16 15  2  0  0  0  0
 17 18  2  0  0  0  0
 17 16  1  0  0  0  0
 18 19  1  0  0  0  0
 19 14  2  0  0  0  0
 22 16  1  0  0  0  0
 23  5  1  0  0  0  0
 25 24  2  0  0  0  0
 25 26  1  0  0  0  0
 26 23  1  1  0  0  0
 27 28  1  0  0  0  0
 27 26  1  0  0  0  0
 29 31  1  0  0  0  0
 29 27  1  0  0  0  0
 30 29  1  0  0  0  0
 31 25  1  0  0  0  0
 32 31  1  0  0  0  0
M  END
>  <minimizedAffinity>
-3.73197532

>  <minimizedRMSD>
0.630595386

$$$$
