
 OpenBabel03272504393D

 42 44  0  0  1  0  0  0  0  0999 V2000
   38.6560   23.3480   32.3120 Cl  0  0  0  0  0  0  0  0  0  0  0  0
   37.2550   24.2550   31.7440 C   0  0  0  0  0  0  0  0  0  0  0  0
   36.0650   23.6130   31.5900 C   0  0  0  0  0  0  0  0  0  0  0  0
   34.9690   24.3050   31.1520 C   0  0  0  0  0  0  0  0  0  0  0  0
   35.0950   25.6530   30.8730 C   0  0  0  0  0  0  0  0  0  0  0  0
   36.3380   26.2640   31.0470 C   0  0  0  0  0  0  0  0  0  0  0  0
   37.4410   25.5910   31.4830 C   0  0  0  0  0  0  0  0  0  0  0  0
   34.0260   23.7540   31.0400 H   0  0  0  0  0  0  0  0  0  0  0  0
   34.1690   26.1020   30.5340 H   0  0  0  0  0  0  0  0  0  0  0  0
   36.2330   27.2590   30.7910 H   0  0  0  0  0  0  0  0  0  0  0  0
   35.8840   19.9370   31.2690 C   0  0  0  0  0  0  0  0  0  0  0  0
   35.7000   19.5540   32.6250 C   0  0  0  0  0  0  0  0  0  0  0  0
   35.6470   20.5640   33.5800 C   0  0  0  0  0  0  0  0  0  0  0  0
   35.7710   21.8610   33.1900 N   0  0  0  0  0  0  0  0  0  0  0  0
   35.9450   22.1900   31.8880 C   0  0  0  0  0  0  0  0  0  0  0  0
   35.9980   21.2340   30.9550 N   0  0  0  0  0  0  0  0  0  0  0  0
   35.9290   19.1660   30.5060 H   0  0  0  0  0  0  0  0  0  0  0  0
   35.6110   18.4960   32.8410 H   0  0  0  0  0  0  0  0  0  0  0  0
   35.4620   20.1590   34.9220 N   0  0  0  0  0  0  0  0  0  0  0  0
   34.6390   19.7110   35.4080 H   0  0  0  0  0  0  0  0  0  0  0  0
   36.3450   20.3900   35.4140 H   0  0  0  0  0  0  0  0  0  0  0  0
   38.7230   26.2390   31.6530 C   0  0  0  0  0  0  0  0  0  0  0  0
   39.5120   25.4620   31.7320 H   0  0  0  0  0  0  0  0  0  0  0  0
   38.9570   26.7510   30.6720 H   0  0  0  0  0  0  0  0  0  0  0  0
   38.9000   27.1990   32.7370 C   0  0  0  0  0  0  0  0  0  0  0  0
   37.9790   27.7850   32.9610 H   0  0  0  0  0  0  0  0  0  0  0  0
   39.6620   27.9620   32.4330 H   0  0  0  0  0  0  0  0  0  0  0  0
   39.2970   26.5890   33.8990 O   0  0  0  0  0  0  0  0  0  0  0  0
   36.8470   27.3340   34.5070 O   0  0  0  0  0  0  0  0  0  0  0  0
   38.0920   26.6870   35.0600 P   0  0  2  0  0  0  0  0  0  0  0  0
   38.7370   27.6100   36.3560 O   0  0  0  0  0  0  0  0  0  0  0  0
   39.6740   27.3650   36.4530 H   0  0  0  0  0  0  0  0  0  0  0  0
   37.6740   25.1930   35.6740 O   0  0  0  0  0  0  0  0  0  0  0  0
   37.9630   24.6080   38.8590 O   0  0  0  0  0  0  0  0  0  0  0  0
   38.0130   24.1250   37.6860 C   0  0  0  0  0  0  0  0  0  0  0  0
   38.6820   24.7250   36.4760 C   0  0  1  0  0  3  0  0  0  0  0  0
   39.2620   23.4760   35.8560 C   0  0  0  0  0  3  0  0  0  0  0  0
   40.0590   23.0270   36.5160 H   0  0  0  0  0  0  0  0  0  0  0  0
   38.0690   22.5250   35.9630 C   0  0  0  0  0  3  0  0  0  0  0  0
   38.3990   21.4710   36.0420 H   0  0  0  0  0  0  0  0  0  0  0  0
   37.4520   22.9020   37.2210 N   0  0  0  0  0  0  0  0  0  0  0  0
   36.7080   22.3660   37.7210 H   0  0  0  0  0  0  0  0  0  0  0  0
  2  1  1  0  0  0  0
  3  2  1  0  0  0  0
  3 15  1  0  0  0  0
  4  3  2  0  0  0  0
  5  6  2  0  0  0  0
  5  4  1  0  0  0  0
  6  7  1  0  0  0  0
  7 22  1  0  0  0  0
  7  2  2  0  0  0  0
  8  4  1  0  0  0  0
  9  5  1  0  0  0  0
 10  6  1  0  0  0  0
 11 12  1  0  0  0  0
 12 18  1  0  0  0  0
 12 13  2  0  0  0  0
 13 19  1  0  0  0  0
 14 13  1  0  0  0  0
 15 14  2  0  0  0  0
 16 11  2  0  0  0  0
 16 15  1  0  0  0  0
 17 11  1  0  0  0  0
 19 20  1  0  0  0  0
 19 21  1  0  0  0  0
 22 23  1  0  0  0  0
 22 25  1  0  0  0  0
 24 22  1  0  0  0  0
 25 26  1  0  0  0  0
 25 28  1  0  0  0  0
 27 25  1  0  0  0  0
 28 30  1  0  0  0  0
 30 29  2  6  0  0  0
 30 33  1  0  0  0  0
 30 31  1  0  0  0  0
 31 32  1  0  0  0  0
 35 34  2  0  0  0  0
 36 33  1  6  0  0  0
 36 35  1  0  0  0  0
 37 39  1  0  0  0  0
 37 36  1  0  0  0  0
 37 38  1  0  0  0  0
 39 40  1  0  0  0  0
 39 41  1  0  0  0  0
 41 35  1  0  0  0  0
 41 42  1  0  0  0  0
M  END
>  <minimizedAffinity>
-6.26686907

$$$$

 OpenBabel03272504393D

 42 44  0  0  1  0  0  0  0  0999 V2000
   36.8380   27.4730   34.9300 Cl  0  0  0  0  0  0  0  0  0  0  0  0
   36.8090   27.9950   33.2450 C   0  0  0  0  0  0  0  0  0  0  0  0
   35.9620   28.9930   32.8730 C   0  0  0  0  0  0  0  0  0  0  0  0
   35.9300   29.4080   31.5700 C   0  0  0  0  0  0  0  0  0  0  0  0
   36.7650   28.8000   30.6510 C   0  0  0  0  0  0  0  0  0  0  0  0
   37.6140   27.7800   31.0850 C   0  0  0  0  0  0  0  0  0  0  0  0
   37.6610   27.3530   32.3790 C   0  0  0  0  0  0  0  0  0  0  0  0
   35.2350   30.2160   31.3060 H   0  0  0  0  0  0  0  0  0  0  0  0
   36.6590   29.2040   29.6520 H   0  0  0  0  0  0  0  0  0  0  0  0
   38.1520   27.4560   30.2650 H   0  0  0  0  0  0  0  0  0  0  0  0
   32.9960   30.0140   34.8240 C   0  0  0  0  0  0  0  0  0  0  0  0
   33.5810   30.9070   35.7620 C   0  0  0  0  0  0  0  0  0  0  0  0
   34.9550   31.1170   35.6840 C   0  0  0  0  0  0  0  0  0  0  0  0
   35.6780   30.4720   34.7300 N   0  0  0  0  0  0  0  0  0  0  0  0
   35.0860   29.6270   33.8510 C   0  0  0  0  0  0  0  0  0  0  0  0
   33.7680   29.4120   33.9100 N   0  0  0  0  0  0  0  0  0  0  0  0
   31.9260   29.8340   34.8660 H   0  0  0  0  0  0  0  0  0  0  0  0
   32.9260   31.3760   36.4870 H   0  0  0  0  0  0  0  0  0  0  0  0
   35.5140   32.0100   36.6260 N   0  0  0  0  0  0  0  0  0  0  0  0
   35.4020   33.0520   36.7510 H   0  0  0  0  0  0  0  0  0  0  0  0
   36.1150   31.4330   37.2440 H   0  0  0  0  0  0  0  0  0  0  0  0
   38.5430   26.2910   32.8100 C   0  0  0  0  0  0  0  0  0  0  0  0
   39.4540   26.2980   32.1750 H   0  0  0  0  0  0  0  0  0  0  0  0
   38.9320   26.5890   33.8290 H   0  0  0  0  0  0  0  0  0  0  0  0
   38.0340   24.9260   32.8840 C   0  0  0  0  0  0  0  0  0  0  0  0
   37.5890   24.5690   31.9260 H   0  0  0  0  0  0  0  0  0  0  0  0
   37.1950   24.8850   33.6250 H   0  0  0  0  0  0  0  0  0  0  0  0
   39.0120   24.0350   33.2440 O   0  0  0  0  0  0  0  0  0  0  0  0
   37.5150   22.1670   34.3410 O   0  0  0  0  0  0  0  0  0  0  0  0
   38.5720   23.2040   34.6320 P   0  0  2  0  0  0  0  0  0  0  0  0
   37.9880   24.3780   35.7400 O   0  0  0  0  0  0  0  0  0  0  0  0
   38.5390   25.1740   35.6410 H   0  0  0  0  0  0  0  0  0  0  0  0
   39.8660   22.4390   35.3560 O   0  0  0  0  0  0  0  0  0  0  0  0
   39.1080   23.2360   38.4140 O   0  0  0  0  0  0  0  0  0  0  0  0
   39.9760   22.7330   37.6370 C   0  0  0  0  0  0  0  0  0  0  0  0
   40.4220   23.2630   36.2980 C   0  0  1  0  0  3  0  0  0  0  0  0
   41.9020   22.9770   36.3870 C   0  0  0  0  0  3  0  0  0  0  0  0
   42.3880   23.5990   37.1940 H   0  0  0  0  0  0  0  0  0  0  0  0
   41.8840   21.5500   36.9350 C   0  0  0  0  0  3  0  0  0  0  0  0
   42.7920   21.3340   37.5310 H   0  0  0  0  0  0  0  0  0  0  0  0
   40.7430   21.5500   37.8320 N   0  0  0  0  0  0  0  0  0  0  0  0
   40.5080   20.8020   38.5220 H   0  0  0  0  0  0  0  0  0  0  0  0
  2  1  1  0  0  0  0
  3  2  1  0  0  0  0
  3 15  1  0  0  0  0
  4  3  2  0  0  0  0
  5  6  2  0  0  0  0
  5  4  1  0  0  0  0
  6  7  1  0  0  0  0
  7 22  1  0  0  0  0
  7  2  2  0  0  0  0
  8  4  1  0  0  0  0
  9  5  1  0  0  0  0
 10  6  1  0  0  0  0
 11 17  1  0  0  0  0
 11 12  1  0  0  0  0
 12 18  1  0  0  0  0
 13 12  2  0  0  0  0
 13 19  1  0  0  0  0
 14 13  1  0  0  0  0
 15 16  1  0  0  0  0
 15 14  2  0  0  0  0
 16 11  2  0  0  0  0
 19 20  1  0  0  0  0
 19 21  1  0  0  0  0
 22 25  1  0  0  0  0
 22 24  1  0  0  0  0
 23 22  1  0  0  0  0
 25 28  1  0  0  0  0
 25 27  1  0  0  0  0
 26 25  1  0  0  0  0
 28 30  1  0  0  0  0
 30 29  2  6  0  0  0
 30 33  1  0  0  0  0
 30 31  1  0  0  0  0
 32 31  1  0  0  0  0
 35 41  1  0  0  0  0
 35 34  2  0  0  0  0
 36 33  1  6  0  0  0
 36 37  1  0  0  0  0
 36 35  1  0  0  0  0
 37 39  1  0  0  0  0
 37 38  1  0  0  0  0
 39 40  1  0  0  0  0
 39 41  1  0  0  0  0
 41 42  1  0  0  0  0
M  END
>  <minimizedAffinity>
-6.05794954

$$$$

 OpenBabel03272504393D

 42 44  0  0  1  0  0  0  0  0999 V2000
   36.2590   27.7210   34.6020 Cl  0  0  0  0  0  0  0  0  0  0  0  0
   36.2740   28.6890   33.1270 C   0  0  0  0  0  0  0  0  0  0  0  0
   35.4900   29.7990   33.0520 C   0  0  0  0  0  0  0  0  0  0  0  0
   35.4930   30.5590   31.9150 C   0  0  0  0  0  0  0  0  0  0  0  0
   36.2990   30.1810   30.8570 C   0  0  0  0  0  0  0  0  0  0  0  0
   37.0840   29.0330   30.9850 C   0  0  0  0  0  0  0  0  0  0  0  0
   37.0940   28.2630   32.1100 C   0  0  0  0  0  0  0  0  0  0  0  0
   34.8480   31.4480   31.8910 H   0  0  0  0  0  0  0  0  0  0  0  0
   36.2240   30.8510   30.0090 H   0  0  0  0  0  0  0  0  0  0  0  0
   37.6080   28.9170   30.1030 H   0  0  0  0  0  0  0  0  0  0  0  0
   32.6220   30.1930   35.3470 C   0  0  0  0  0  0  0  0  0  0  0  0
   33.1920   31.0120   36.3580 C   0  0  0  0  0  0  0  0  0  0  0  0
   34.5240   31.3890   36.2090 C   0  0  0  0  0  0  0  0  0  0  0  0
   35.2210   30.9680   35.1200 N   0  0  0  0  0  0  0  0  0  0  0  0
   34.6440   30.1870   34.1750 C   0  0  0  0  0  0  0  0  0  0  0  0
   33.3670   29.8150   34.3000 N   0  0  0  0  0  0  0  0  0  0  0  0
   31.5840   29.8850   35.4420 H   0  0  0  0  0  0  0  0  0  0  0  0
   32.5600   31.2980   37.1900 H   0  0  0  0  0  0  0  0  0  0  0  0
   35.0690   32.2050   37.2270 N   0  0  0  0  0  0  0  0  0  0  0  0
   34.8600   33.2000   37.5100 H   0  0  0  0  0  0  0  0  0  0  0  0
   35.7800   31.6230   37.7070 H   0  0  0  0  0  0  0  0  0  0  0  0
   37.9100   27.0740   32.2240 C   0  0  0  0  0  0  0  0  0  0  0  0
   37.3700   26.3230   32.8390 H   0  0  0  0  0  0  0  0  0  0  0  0
   37.9350   26.6020   31.1970 H   0  0  0  0  0  0  0  0  0  0  0  0
   39.2770   27.1900   32.7200 C   0  0  0  0  0  0  0  0  0  0  0  0
   39.3860   27.9380   33.5390 H   0  0  0  0  0  0  0  0  0  0  0  0
   39.9370   27.5640   31.8960 H   0  0  0  0  0  0  0  0  0  0  0  0
   39.7550   25.9920   33.1850 O   0  0  0  0  0  0  0  0  0  0  0  0
   39.3590   27.2110   35.4850 O   0  0  0  0  0  0  0  0  0  0  0  0
   40.1270   26.0970   34.8170 P   0  0  2  0  0  0  0  0  0  0  0  0
   41.8180   26.3750   34.9150 O   0  0  0  0  0  0  0  0  0  0  0  0
   42.2420   25.8500   34.2130 H   0  0  0  0  0  0  0  0  0  0  0  0
   39.8080   24.6800   35.6370 O   0  0  0  0  0  0  0  0  0  0  0  0
   37.7340   22.5240   34.3660 O   0  0  0  0  0  0  0  0  0  0  0  0
   38.2160   23.0290   35.4260 C   0  0  0  0  0  0  0  0  0  0  0  0
   38.4540   24.4880   35.7180 C   0  0  1  0  0  3  0  0  0  0  0  0
   38.0380   24.5310   37.1690 C   0  0  0  0  0  3  0  0  0  0  0  0
   36.9350   24.3210   37.2830 H   0  0  0  0  0  0  0  0  0  0  0  0
   38.7420   23.2830   37.7030 C   0  0  0  0  0  3  0  0  0  0  0  0
   38.1990   22.8500   38.5660 H   0  0  0  0  0  0  0  0  0  0  0  0
   38.6530   22.3480   36.5970 N   0  0  0  0  0  0  0  0  0  0  0  0
   38.8720   21.3290   36.6400 H   0  0  0  0  0  0  0  0  0  0  0  0
  2  1  1  0  0  0  0
  3  2  1  0  0  0  0
  3 15  1  0  0  0  0
  4  3  2  0  0  0  0
  5  6  2  0  0  0  0
  5  4  1  0  0  0  0
  6  7  1  0  0  0  0
  7 22  1  0  0  0  0
  7  2  2  0  0  0  0
  8  4  1  0  0  0  0
  9  5  1  0  0  0  0
 10  6  1  0  0  0  0
 11 17  1  0  0  0  0
 11 12  1  0  0  0  0
 12 18  1  0  0  0  0
 13 12  2  0  0  0  0
 13 19  1  0  0  0  0
 14 13  1  0  0  0  0
 15 16  1  0  0  0  0
 15 14  2  0  0  0  0
 16 11  2  0  0  0  0
 19 20  1  0  0  0  0
 19 21  1  0  0  0  0
 22 25  1  0  0  0  0
 22 23  1  0  0  0  0
 24 22  1  0  0  0  0
 25 28  1  0  0  0  0
 25 26  1  0  0  0  0
 27 25  1  0  0  0  0
 28 30  1  0  0  0  0
 30 31  1  0  0  0  0
 30 29  2  1  0  0  0
 30 33  1  0  0  0  0
 32 31  1  0  0  0  0
 34 35  2  0  0  0  0
 35 36  1  0  0  0  0
 35 41  1  0  0  0  0
 36 33  1  1  0  0  0
 36 37  1  0  0  0  0
 37 38  1  0  0  0  0
 37 39  1  0  0  0  0
 39 40  1  0  0  0  0
 41 42  1  0  0  0  0
 41 39  1  0  0  0  0
M  END
>  <minimizedAffinity>
-5.97166729

$$$$

 OpenBabel03272504393D

 42 44  0  0  1  0  0  0  0  0999 V2000
   39.2380   26.5980   35.0960 Cl  0  0  0  0  0  0  0  0  0  0  0  0
   38.4010   25.4890   34.0100 C   0  0  0  0  0  0  0  0  0  0  0  0
   38.5020   24.1480   34.2230 C   0  0  0  0  0  0  0  0  0  0  0  0
   37.8570   23.2760   33.3890 C   0  0  0  0  0  0  0  0  0  0  0  0
   37.1110   23.7800   32.3390 C   0  0  0  0  0  0  0  0  0  0  0  0
   37.0410   25.1630   32.1650 C   0  0  0  0  0  0  0  0  0  0  0  0
   37.6760   26.0470   32.9860 C   0  0  0  0  0  0  0  0  0  0  0  0
   37.9600   22.2020   33.5910 H   0  0  0  0  0  0  0  0  0  0  0  0
   36.6440   23.0040   31.7440 H   0  0  0  0  0  0  0  0  0  0  0  0
   36.4460   25.3410   31.3400 H   0  0  0  0  0  0  0  0  0  0  0  0
   41.2790   22.8430   36.2790 C   0  0  0  0  0  0  0  0  0  0  0  0
   40.6310   22.6620   37.5300 C   0  0  0  0  0  0  0  0  0  0  0  0
   39.2810   22.9930   37.6120 C   0  0  0  0  0  0  0  0  0  0  0  0
   38.6410   23.4700   36.5110 N   0  0  0  0  0  0  0  0  0  0  0  0
   39.2920   23.6300   35.3340 C   0  0  0  0  0  0  0  0  0  0  0  0
   40.5870   23.3180   35.2350 N   0  0  0  0  0  0  0  0  0  0  0  0
   42.3330   22.5930   36.1920 H   0  0  0  0  0  0  0  0  0  0  0  0
   41.2220   22.2770   38.3520 H   0  0  0  0  0  0  0  0  0  0  0  0
   38.6570   22.8020   38.8660 N   0  0  0  0  0  0  0  0  0  0  0  0
   38.4340   21.9250   39.4080 H   0  0  0  0  0  0  0  0  0  0  0  0
   38.4240   23.7510   39.2150 H   0  0  0  0  0  0  0  0  0  0  0  0
   37.5980   27.4780   32.7870 C   0  0  0  0  0  0  0  0  0  0  0  0
   38.2540   27.9820   33.5270 H   0  0  0  0  0  0  0  0  0  0  0  0
   38.1030   27.6940   31.7990 H   0  0  0  0  0  0  0  0  0  0  0  0
   36.2920   28.1300   32.7980 C   0  0  0  0  0  0  0  0  0  0  0  0
   35.4750   27.4870   32.3950 H   0  0  0  0  0  0  0  0  0  0  0  0
   36.3190   29.0220   32.1220 H   0  0  0  0  0  0  0  0  0  0  0  0
   35.9270   28.5210   34.0610 O   0  0  0  0  0  0  0  0  0  0  0  0
   33.5400   29.5910   33.7690 O   0  0  0  0  0  0  0  0  0  0  0  0
   34.9950   29.9130   34.0030 P   0  0  2  0  0  0  0  0  0  0  0  0
   35.6240   30.8680   32.7230 O   0  0  0  0  0  0  0  0  0  0  0  0
   36.5920   30.7690   32.7310 H   0  0  0  0  0  0  0  0  0  0  0  0
   35.1100   30.8170   35.4000 O   0  0  0  0  0  0  0  0  0  0  0  0
   32.7670   31.0310   37.6430 O   0  0  0  0  0  0  0  0  0  0  0  0
   33.6950   31.6350   37.0220 C   0  0  0  0  0  0  0  0  0  0  0  0
   33.9880   31.5890   35.5440 C   0  0  1  0  0  3  0  0  0  0  0  0
   34.3550   33.0350   35.3100 C   0  0  0  0  0  3  0  0  0  0  0  0
   33.4670   33.7120   35.4740 H   0  0  0  0  0  0  0  0  0  0  0  0
   35.2810   33.2910   36.4990 C   0  0  0  0  0  3  0  0  0  0  0  0
   35.2610   34.3540   36.8060 H   0  0  0  0  0  0  0  0  0  0  0  0
   34.6860   32.5020   37.5620 N   0  0  0  0  0  0  0  0  0  0  0  0
   34.9380   32.5520   38.5740 H   0  0  0  0  0  0  0  0  0  0  0  0
  2  3  1  0  0  0  0
  2  1  1  0  0  0  0
  3 15  1  0  0  0  0
  4  8  1  0  0  0  0
  4  3  2  0  0  0  0
  5  4  1  0  0  0  0
  6  5  2  0  0  0  0
  6  7  1  0  0  0  0
  7  2  2  0  0  0  0
  9  5  1  0  0  0  0
 10  6  1  0  0  0  0
 11 12  1  0  0  0  0
 12 13  2  0  0  0  0
 12 18  1  0  0  0  0
 13 19  1  0  0  0  0
 14 13  1  0  0  0  0
 15 14  2  0  0  0  0
 16 15  1  0  0  0  0
 16 11  2  0  0  0  0
 17 11  1  0  0  0  0
 19 21  1  0  0  0  0
 19 20  1  0  0  0  0
 22 25  1  0  0  0  0
 22  7  1  0  0  0  0
 22 23  1  0  0  0  0
 24 22  1  0  0  0  0
 25 28  1  0  0  0  0
 26 25  1  0  0  0  0
 27 25  1  0  0  0  0
 30 29  2  6  0  0  0
 30 28  1  0  0  0  0
 30 33  1  0  0  0  0
 31 32  1  0  0  0  0
 31 30  1  0  0  0  0
 35 41  1  0  0  0  0
 35 34  2  0  0  0  0
 36 33  1  1  0  0  0
 36 35  1  0  0  0  0
 37 38  1  0  0  0  0
 37 36  1  0  0  0  0
 37 39  1  0  0  0  0
 39 40  1  0  0  0  0
 39 41  1  0  0  0  0
 41 42  1  0  0  0  0
M  END
>  <minimizedAffinity>
-5.96622896

$$$$

 OpenBabel03272504393D

 42 44  0  0  1  0  0  0  0  0999 V2000
   36.7990   27.1450   34.7180 Cl  0  0  0  0  0  0  0  0  0  0  0  0
   37.2970   27.6000   33.0890 C   0  0  0  0  0  0  0  0  0  0  0  0
   36.6120   28.5760   32.4330 C   0  0  0  0  0  0  0  0  0  0  0  0
   36.9870   28.9400   31.1690 C   0  0  0  0  0  0  0  0  0  0  0  0
   38.0630   28.3030   30.5800 C   0  0  0  0  0  0  0  0  0  0  0  0
   38.7320   27.3080   31.2950 C   0  0  0  0  0  0  0  0  0  0  0  0
   38.3720   26.9320   32.5550 C   0  0  0  0  0  0  0  0  0  0  0  0
   36.4120   29.7310   30.6710 H   0  0  0  0  0  0  0  0  0  0  0  0
   38.2740   28.6670   29.5810 H   0  0  0  0  0  0  0  0  0  0  0  0
   39.4960   26.9560   30.6960 H   0  0  0  0  0  0  0  0  0  0  0  0
   34.5370   30.7610   34.5710 C   0  0  0  0  0  0  0  0  0  0  0  0
   33.2310   30.3900   34.1530 C   0  0  0  0  0  0  0  0  0  0  0  0
   33.1210   29.4160   33.1660 C   0  0  0  0  0  0  0  0  0  0  0  0
   34.2470   28.8620   32.6430 N   0  0  0  0  0  0  0  0  0  0  0  0
   35.4780   29.2400   33.0650 C   0  0  0  0  0  0  0  0  0  0  0  0
   35.6040   30.1740   34.0130 N   0  0  0  0  0  0  0  0  0  0  0  0
   34.6480   31.5200   35.3400 H   0  0  0  0  0  0  0  0  0  0  0  0
   32.3910   30.8860   34.6270 H   0  0  0  0  0  0  0  0  0  0  0  0
   31.8110   29.0610   32.7680 N   0  0  0  0  0  0  0  0  0  0  0  0
   31.0340   28.5690   33.2860 H   0  0  0  0  0  0  0  0  0  0  0  0
   31.7120   29.3900   31.7900 H   0  0  0  0  0  0  0  0  0  0  0  0
   39.0720   25.8940   33.2810 C   0  0  0  0  0  0  0  0  0  0  0  0
   40.1660   26.0670   33.1920 H   0  0  0  0  0  0  0  0  0  0  0  0
   38.8670   26.0740   34.3780 H   0  0  0  0  0  0  0  0  0  0  0  0
   38.7920   24.4960   32.9740 C   0  0  0  0  0  0  0  0  0  0  0  0
   39.6900   23.8390   33.0530 H   0  0  0  0  0  0  0  0  0  0  0  0
   38.4640   24.4110   31.9060 H   0  0  0  0  0  0  0  0  0  0  0  0
   37.8250   23.9770   33.7950 O   0  0  0  0  0  0  0  0  0  0  0  0
   39.3520   21.8690   33.4040 O   0  0  0  0  0  0  0  0  0  0  0  0
   38.1820   22.3900   34.2020 P   0  0  2  0  0  0  0  0  0  0  0  0
   36.7670   21.4730   33.8830 O   0  0  0  0  0  0  0  0  0  0  0  0
   36.0010   22.0210   34.1300 H   0  0  0  0  0  0  0  0  0  0  0  0
   38.5360   22.2110   35.8220 O   0  0  0  0  0  0  0  0  0  0  0  0
   37.8200   24.0730   38.3890 O   0  0  0  0  0  0  0  0  0  0  0  0
   38.7080   23.3890   37.7930 C   0  0  0  0  0  0  0  0  0  0  0  0
   39.0280   23.3880   36.3210 C   0  0  1  0  0  3  0  0  0  0  0  0
   40.5340   23.3010   36.3850 C   0  0  0  0  0  3  0  0  0  0  0  0
   40.9760   24.2330   36.8440 H   0  0  0  0  0  0  0  0  0  0  0  0
   40.7120   22.2100   37.4410 C   0  0  0  0  0  3  0  0  0  0  0  0
   41.6640   22.3330   37.9930 H   0  0  0  0  0  0  0  0  0  0  0  0
   39.6190   22.4560   38.3640 N   0  0  0  0  0  0  0  0  0  0  0  0
   39.5060   22.0210   39.3060 H   0  0  0  0  0  0  0  0  0  0  0  0
  2  1  1  0  0  0  0
  3 15  1  0  0  0  0
  3  2  2  0  0  0  0
  4  3  1  0  0  0  0
  5  4  2  0  0  0  0
  5  6  1  0  0  0  0
  6  7  2  0  0  0  0
  7  2  1  0  0  0  0
  7 22  1  0  0  0  0
  8  4  1  0  0  0  0
  9  5  1  0  0  0  0
 10  6  1  0  0  0  0
 11 17  1  0  0  0  0
 12 11  1  0  0  0  0
 12 18  1  0  0  0  0
 13 12  2  0  0  0  0
 14 15  2  0  0  0  0
 14 13  1  0  0  0  0
 15 16  1  0  0  0  0
 16 11  2  0  0  0  0
 19 13  1  0  0  0  0
 19 20  1  0  0  0  0
 21 19  1  0  0  0  0
 22 24  1  0  0  0  0
 23 22  1  0  0  0  0
 25 26  1  0  0  0  0
 25 22  1  0  0  0  0
 25 28  1  0  0  0  0
 27 25  1  0  0  0  0
 28 30  1  0  0  0  0
 30 29  2  6  0  0  0
 30 33  1  0  0  0  0
 31 32  1  0  0  0  0
 31 30  1  0  0  0  0
 35 41  1  0  0  0  0
 35 34  2  0  0  0  0
 36 33  1  6  0  0  0
 36 37  1  0  0  0  0
 36 35  1  0  0  0  0
 37 38  1  0  0  0  0
 37 39  1  0  0  0  0
 39 40  1  0  0  0  0
 39 41  1  0  0  0  0
 41 42  1  0  0  0  0
M  END
>  <minimizedAffinity>
-5.93303442

$$$$

 OpenBabel03272504393D

 42 44  0  0  1  0  0  0  0  0999 V2000
   36.8700   27.7380   35.0020 Cl  0  0  0  0  0  0  0  0  0  0  0  0
   36.7280   28.2930   33.3340 C   0  0  0  0  0  0  0  0  0  0  0  0
   35.8120   29.2510   33.0270 C   0  0  0  0  0  0  0  0  0  0  0  0
   35.6920   29.6920   31.7380 C   0  0  0  0  0  0  0  0  0  0  0  0
   36.5120   29.1490   30.7650 C   0  0  0  0  0  0  0  0  0  0  0  0
   37.4350   28.1680   31.1320 C   0  0  0  0  0  0  0  0  0  0  0  0
   37.5690   27.7170   32.4120 C   0  0  0  0  0  0  0  0  0  0  0  0
   34.9430   30.4660   31.5280 H   0  0  0  0  0  0  0  0  0  0  0  0
   36.3340   29.5690   29.7820 H   0  0  0  0  0  0  0  0  0  0  0  0
   37.9470   27.8910   30.2790 H   0  0  0  0  0  0  0  0  0  0  0  0
   32.9100   30.0280   35.1780 C   0  0  0  0  0  0  0  0  0  0  0  0
   33.4780   30.9780   36.0690 C   0  0  0  0  0  0  0  0  0  0  0  0
   34.8190   31.3060   35.8950 C   0  0  0  0  0  0  0  0  0  0  0  0
   35.5280   30.7170   34.8940 N   0  0  0  0  0  0  0  0  0  0  0  0
   34.9530   29.8150   34.0620 C   0  0  0  0  0  0  0  0  0  0  0  0
   33.6670   29.4870   34.2130 N   0  0  0  0  0  0  0  0  0  0  0  0
   31.8650   29.7560   35.2950 H   0  0  0  0  0  0  0  0  0  0  0  0
   32.8360   31.3940   36.8360 H   0  0  0  0  0  0  0  0  0  0  0  0
   35.3610   32.2540   36.7920 N   0  0  0  0  0  0  0  0  0  0  0  0
   35.1670   33.2830   36.9210 H   0  0  0  0  0  0  0  0  0  0  0  0
   36.0520   31.7380   37.3680 H   0  0  0  0  0  0  0  0  0  0  0  0
   38.5270   26.6950   32.7740 C   0  0  0  0  0  0  0  0  0  0  0  0
   39.4820   26.8920   32.2430 H   0  0  0  0  0  0  0  0  0  0  0  0
   38.7890   26.8700   33.8600 H   0  0  0  0  0  0  0  0  0  0  0  0
   38.1730   25.2910   32.5970 C   0  0  0  0  0  0  0  0  0  0  0  0
   38.6140   24.6240   33.3750 H   0  0  0  0  0  0  0  0  0  0  0  0
   38.5950   24.9230   31.6270 H   0  0  0  0  0  0  0  0  0  0  0  0
   36.8150   25.1010   32.6100 O   0  0  0  0  0  0  0  0  0  0  0  0
   37.4780   24.0290   30.2990 O   0  0  0  0  0  0  0  0  0  0  0  0
   36.3150   24.3110   31.2180 P   0  0  2  0  0  0  0  0  0  0  0  0
   35.1690   25.3370   30.4580 O   0  0  0  0  0  0  0  0  0  0  0  0
   34.6390   25.7550   31.1600 H   0  0  0  0  0  0  0  0  0  0  0  0
   35.5480   22.8660   31.5450 O   0  0  0  0  0  0  0  0  0  0  0  0
   37.5370   21.7680   33.8700 O   0  0  0  0  0  0  0  0  0  0  0  0
   36.5840   21.4940   33.0770 C   0  0  0  0  0  0  0  0  0  0  0  0
   36.4730   21.8580   31.6190 C   0  0  1  0  0  3  0  0  0  0  0  0
   35.8590   20.5880   31.0820 C   0  0  0  0  0  3  0  0  0  0  0  0
   36.5730   19.7190   31.1780 H   0  0  0  0  0  0  0  0  0  0  0  0
   34.7730   20.3330   32.1280 C   0  0  0  0  0  3  0  0  0  0  0  0
   34.5490   19.2530   32.2240 H   0  0  0  0  0  0  0  0  0  0  0  0
   35.3880   20.7790   33.3650 N   0  0  0  0  0  0  0  0  0  0  0  0
   35.0190   20.6080   34.3270 H   0  0  0  0  0  0  0  0  0  0  0  0
  2  1  1  0  0  0  0
  3  2  1  0  0  0  0
  3 15  1  0  0  0  0
  4  3  2  0  0  0  0
  5  6  2  0  0  0  0
  5  4  1  0  0  0  0
  6  7  1  0  0  0  0
  7 22  1  0  0  0  0
  7  2  2  0  0  0  0
  8  4  1  0  0  0  0
  9  5  1  0  0  0  0
 10  6  1  0  0  0  0
 11 17  1  0  0  0  0
 11 12  1  0  0  0  0
 12 18  1  0  0  0  0
 13 12  2  0  0  0  0
 13 19  1  0  0  0  0
 14 13  1  0  0  0  0
 15 16  1  0  0  0  0
 15 14  2  0  0  0  0
 16 11  2  0  0  0  0
 19 20  1  0  0  0  0
 19 21  1  0  0  0  0
 22 24  1  0  0  0  0
 23 22  1  0  0  0  0
 25 28  1  0  0  0  0
 25 22  1  0  0  0  0
 25 26  1  0  0  0  0
 27 25  1  0  0  0  0
 30 29  2  6  0  0  0
 30 33  1  0  0  0  0
 30 28  1  0  0  0  0
 31 32  1  0  0  0  0
 31 30  1  0  0  0  0
 35 41  1  0  0  0  0
 35 34  2  0  0  0  0
 36 33  1  1  0  0  0
 36 35  1  0  0  0  0
 37 38  1  0  0  0  0
 37 36  1  0  0  0  0
 37 39  1  0  0  0  0
 39 40  1  0  0  0  0
 39 41  1  0  0  0  0
 41 42  1  0  0  0  0
M  END
>  <minimizedAffinity>
-5.91367865

$$$$

 OpenBabel03272504393D

 42 44  0  0  1  0  0  0  0  0999 V2000
   39.8540   25.5040   31.7510 Cl  0  0  0  0  0  0  0  0  0  0  0  0
   39.2160   26.0180   33.3140 C   0  0  0  0  0  0  0  0  0  0  0  0
   37.9460   25.6730   33.6590 C   0  0  0  0  0  0  0  0  0  0  0  0
   37.4390   26.0630   34.8680 C   0  0  0  0  0  0  0  0  0  0  0  0
   38.2350   26.8070   35.7200 C   0  0  0  0  0  0  0  0  0  0  0  0
   39.5310   27.1340   35.3170 C   0  0  0  0  0  0  0  0  0  0  0  0
   40.0530   26.7540   34.1170 C   0  0  0  0  0  0  0  0  0  0  0  0
   36.4110   25.7670   35.1140 H   0  0  0  0  0  0  0  0  0  0  0  0
   37.7370   27.0620   36.6480 H   0  0  0  0  0  0  0  0  0  0  0  0
   39.9620   27.6840   36.0780 H   0  0  0  0  0  0  0  0  0  0  0  0
   36.3480   22.8690   31.8620 C   0  0  0  0  0  0  0  0  0  0  0  0
   35.4880   23.5690   30.9740 C   0  0  0  0  0  0  0  0  0  0  0  0
   35.4940   24.9590   31.0310 C   0  0  0  0  0  0  0  0  0  0  0  0
   36.3090   25.5890   31.9190 N   0  0  0  0  0  0  0  0  0  0  0  0
   37.1170   24.8890   32.7510 C   0  0  0  0  0  0  0  0  0  0  0  0
   37.1250   23.5530   32.7110 N   0  0  0  0  0  0  0  0  0  0  0  0
   36.3600   21.7830   31.8360 H   0  0  0  0  0  0  0  0  0  0  0  0
   34.8740   22.9820   30.3010 H   0  0  0  0  0  0  0  0  0  0  0  0
   34.6310   25.6340   30.1370 N   0  0  0  0  0  0  0  0  0  0  0  0
   34.6430   25.7170   29.0850 H   0  0  0  0  0  0  0  0  0  0  0  0
   33.9070   26.0860   30.7270 H   0  0  0  0  0  0  0  0  0  0  0  0
   41.3970   27.1070   33.7130 C   0  0  0  0  0  0  0  0  0  0  0  0
   41.4470   27.1250   32.6040 H   0  0  0  0  0  0  0  0  0  0  0  0
   41.5440   28.1910   34.0000 H   0  0  0  0  0  0  0  0  0  0  0  0
   42.5220   26.3300   34.2200 C   0  0  0  0  0  0  0  0  0  0  0  0
   42.6480   26.4060   35.3250 H   0  0  0  0  0  0  0  0  0  0  0  0
   43.4740   26.7360   33.7920 H   0  0  0  0  0  0  0  0  0  0  0  0
   42.4070   25.0000   33.9060 O   0  0  0  0  0  0  0  0  0  0  0  0
   43.4390   24.5790   36.2910 O   0  0  0  0  0  0  0  0  0  0  0  0
   42.4330   24.0600   35.2940 P   0  0  2  0  0  0  0  0  0  0  0  0
   42.8300   22.4660   34.7970 O   0  0  0  0  0  0  0  0  0  0  0  0
   42.3860   22.3050   33.9460 H   0  0  0  0  0  0  0  0  0  0  0  0
   40.9440   23.9900   36.0450 O   0  0  0  0  0  0  0  0  0  0  0  0
   41.5880   21.1560   37.5020 O   0  0  0  0  0  0  0  0  0  0  0  0
   40.7170   22.0490   37.2620 C   0  0  0  0  0  0  0  0  0  0  0  0
   40.4350   22.7220   35.9440 C   0  0  1  0  0  3  0  0  0  0  0  0
   38.9280   22.7920   36.0070 C   0  0  0  0  0  3  0  0  0  0  0  0
   38.4720   21.7600   35.9830 H   0  0  0  0  0  0  0  0  0  0  0  0
   38.7260   23.2880   37.4390 C   0  0  0  0  0  3  0  0  0  0  0  0
   37.7600   22.9420   37.8540 H   0  0  0  0  0  0  0  0  0  0  0  0
   39.7940   22.6340   38.1730 N   0  0  0  0  0  0  0  0  0  0  0  0
   39.8840   22.5930   39.2130 H   0  0  0  0  0  0  0  0  0  0  0  0
  1  2  1  0  0  0  0
  2  3  2  0  0  0  0
  2  7  1  0  0  0  0
  3  4  1  0  0  0  0
  4  8  1  0  0  0  0
  4  5  2  0  0  0  0
  5  9  1  0  0  0  0
  6  5  1  0  0  0  0
  6 10  1  0  0  0  0
  7  6  2  0  0  0  0
 11 16  1  0  0  0  0
 12 13  1  0  0  0  0
 12 11  2  0  0  0  0
 13 14  2  0  0  0  0
 14 15  1  0  0  0  0
 15  3  1  0  0  0  0
 16 15  2  0  0  0  0
 17 11  1  0  0  0  0
 18 12  1  0  0  0  0
 19 21  1  0  0  0  0
 19 13  1  0  0  0  0
 20 19  1  0  0  0  0
 22 24  1  0  0  0  0
 22  7  1  0  0  0  0
 22 25  1  0  0  0  0
 23 22  1  0  0  0  0
 25 26  1  0  0  0  0
 27 25  1  0  0  0  0
 28 25  1  0  0  0  0
 28 30  1  0  0  0  0
 30 33  1  0  0  0  0
 30 29  2  1  0  0  0
 31 30  1  0  0  0  0
 32 31  1  0  0  0  0
 35 34  2  0  0  0  0
 35 41  1  0  0  0  0
 36 37  1  0  0  0  0
 36 33  1  1  0  0  0
 36 35  1  0  0  0  0
 37 39  1  0  0  0  0
 38 37  1  0  0  0  0
 39 40  1  0  0  0  0
 39 41  1  0  0  0  0
 41 42  1  0  0  0  0
M  END
>  <minimizedAffinity>
-5.8849988

$$$$

 OpenBabel03272504393D

 42 44  0  0  1  0  0  0  0  0999 V2000
   38.5440   26.9030   36.1370 Cl  0  0  0  0  0  0  0  0  0  0  0  0
   37.9780   26.0520   34.7000 C   0  0  0  0  0  0  0  0  0  0  0  0
   38.3290   24.7500   34.5160 C   0  0  0  0  0  0  0  0  0  0  0  0
   37.8960   24.0770   33.4070 C   0  0  0  0  0  0  0  0  0  0  0  0
   37.1040   24.7400   32.4880 C   0  0  0  0  0  0  0  0  0  0  0  0
   36.7730   26.0760   32.7230 C   0  0  0  0  0  0  0  0  0  0  0  0
   37.1950   26.7620   33.8220 C   0  0  0  0  0  0  0  0  0  0  0  0
   38.1980   23.0280   33.2930 H   0  0  0  0  0  0  0  0  0  0  0  0
   36.8180   24.1160   31.6490 H   0  0  0  0  0  0  0  0  0  0  0  0
   36.1840   26.3920   31.9350 H   0  0  0  0  0  0  0  0  0  0  0  0
   41.1870   23.1330   36.2090 C   0  0  0  0  0  0  0  0  0  0  0  0
   40.5950   22.7590   37.4460 C   0  0  0  0  0  0  0  0  0  0  0  0
   39.2540   23.0750   37.6410 C   0  0  0  0  0  0  0  0  0  0  0  0
   38.5680   23.7200   36.6610 N   0  0  0  0  0  0  0  0  0  0  0  0
   39.1650   24.0620   35.4940 C   0  0  0  0  0  0  0  0  0  0  0  0
   40.4520   23.7670   35.2860 N   0  0  0  0  0  0  0  0  0  0  0  0
   42.2330   22.8980   36.0340 H   0  0  0  0  0  0  0  0  0  0  0  0
   41.2200   22.2470   38.1680 H   0  0  0  0  0  0  0  0  0  0  0  0
   38.6870   22.6900   38.8780 N   0  0  0  0  0  0  0  0  0  0  0  0
   38.4810   21.7390   39.2860 H   0  0  0  0  0  0  0  0  0  0  0  0
   38.4790   23.5730   39.3820 H   0  0  0  0  0  0  0  0  0  0  0  0
   36.8470   28.1490   34.0470 C   0  0  0  0  0  0  0  0  0  0  0  0
   36.6920   28.3100   35.1350 H   0  0  0  0  0  0  0  0  0  0  0  0
   37.7760   28.7540   33.8230 H   0  0  0  0  0  0  0  0  0  0  0  0
   35.7230   28.7290   33.3210 C   0  0  0  0  0  0  0  0  0  0  0  0
   34.8520   28.0390   33.2330 H   0  0  0  0  0  0  0  0  0  0  0  0
   36.0340   28.9400   32.2670 H   0  0  0  0  0  0  0  0  0  0  0  0
   35.2780   29.8850   33.9100 O   0  0  0  0  0  0  0  0  0  0  0  0
   33.0520   28.9980   32.8180 O   0  0  0  0  0  0  0  0  0  0  0  0
   33.6090   30.0010   33.7980 P   0  0  2  0  0  0  0  0  0  0  0  0
   33.2630   31.6050   33.2940 O   0  0  0  0  0  0  0  0  0  0  0  0
   33.8990   32.1950   33.7360 H   0  0  0  0  0  0  0  0  0  0  0  0
   32.8530   29.7690   35.2670 O   0  0  0  0  0  0  0  0  0  0  0  0
   31.4830   27.1430   36.6060 O   0  0  0  0  0  0  0  0  0  0  0  0
   31.3800   28.3860   36.3720 C   0  0  0  0  0  0  0  0  0  0  0  0
   31.6720   29.1020   35.0780 C   0  0  1  0  0  3  0  0  0  0  0  0
   30.5390   30.1010   35.0750 C   0  0  0  0  0  3  0  0  0  0  0  0
   29.5410   29.5830   34.9780 H   0  0  0  0  0  0  0  0  0  0  0  0
   30.5950   30.5980   36.5200 C   0  0  0  0  0  3  0  0  0  0  0  0
   29.5990   30.9310   36.8720 H   0  0  0  0  0  0  0  0  0  0  0  0
   30.9670   29.4120   37.2690 N   0  0  0  0  0  0  0  0  0  0  0  0
   30.9400   29.3120   38.3070 H   0  0  0  0  0  0  0  0  0  0  0  0
  2  1  1  0  0  0  0
  3  2  1  0  0  0  0
  3 15  1  0  0  0  0
  4  3  2  0  0  0  0
  5  6  2  0  0  0  0
  5  4  1  0  0  0  0
  6  7  1  0  0  0  0
  7 22  1  0  0  0  0
  7  2  2  0  0  0  0
  8  4  1  0  0  0  0
  9  5  1  0  0  0  0
 10  6  1  0  0  0  0
 11 12  1  0  0  0  0
 12 13  2  0  0  0  0
 12 18  1  0  0  0  0
 13 19  1  0  0  0  0
 14 13  1  0  0  0  0
 15 14  2  0  0  0  0
 16 15  1  0  0  0  0
 16 11  2  0  0  0  0
 17 11  1  0  0  0  0
 19 20  1  0  0  0  0
 19 21  1  0  0  0  0
 22 23  1  0  0  0  0
 24 22  1  0  0  0  0
 25 28  1  0  0  0  0
 25 22  1  0  0  0  0
 26 25  1  0  0  0  0
 27 25  1  0  0  0  0
 30 29  2  6  0  0  0
 30 28  1  0  0  0  0
 30 33  1  0  0  0  0
 31 32  1  0  0  0  0
 31 30  1  0  0  0  0
 35 34  2  0  0  0  0
 35 41  1  0  0  0  0
 36 33  1  1  0  0  0
 36 35  1  0  0  0  0
 37 36  1  0  0  0  0
 37 39  1  0  0  0  0
 38 37  1  0  0  0  0
 39 40  1  0  0  0  0
 39 41  1  0  0  0  0
 41 42  1  0  0  0  0
M  END
>  <minimizedAffinity>
-5.85855293

$$$$

 OpenBabel03272504393D

 42 44  0  0  1  0  0  0  0  0999 V2000
   39.7970   26.3800   34.7750 Cl  0  0  0  0  0  0  0  0  0  0  0  0
   38.9640   25.2060   33.7550 C   0  0  0  0  0  0  0  0  0  0  0  0
   38.4320   24.0900   34.3240 C   0  0  0  0  0  0  0  0  0  0  0  0
   37.7830   23.1720   33.5460 C   0  0  0  0  0  0  0  0  0  0  0  0
   37.6800   23.3990   32.1860 C   0  0  0  0  0  0  0  0  0  0  0  0
   38.2440   24.5590   31.6520 C   0  0  0  0  0  0  0  0  0  0  0  0
   38.8940   25.4860   32.4120 C   0  0  0  0  0  0  0  0  0  0  0  0
   37.3660   22.2840   34.0390 H   0  0  0  0  0  0  0  0  0  0  0  0
   37.1480   22.6110   31.6660 H   0  0  0  0  0  0  0  0  0  0  0  0
   38.0660   24.5500   30.6350 H   0  0  0  0  0  0  0  0  0  0  0  0
   37.9220   24.2420   37.9800 C   0  0  0  0  0  0  0  0  0  0  0  0
   38.9010   23.3150   38.4310 C   0  0  0  0  0  0  0  0  0  0  0  0
   39.6850   22.6860   37.4690 C   0  0  0  0  0  0  0  0  0  0  0  0
   39.4910   22.9730   36.1540 N   0  0  0  0  0  0  0  0  0  0  0  0
   38.5480   23.8620   35.7600 C   0  0  0  0  0  0  0  0  0  0  0  0
   37.7850   24.4780   36.6690 N   0  0  0  0  0  0  0  0  0  0  0  0
   37.2980   24.7450   38.7130 H   0  0  0  0  0  0  0  0  0  0  0  0
   38.9830   23.1500   39.4980 H   0  0  0  0  0  0  0  0  0  0  0  0
   40.6530   21.7690   37.9410 N   0  0  0  0  0  0  0  0  0  0  0  0
   41.5320   21.9140   38.5060 H   0  0  0  0  0  0  0  0  0  0  0  0
   40.3420   20.8350   37.6170 H   0  0  0  0  0  0  0  0  0  0  0  0
   39.4780   26.6800   31.8410 C   0  0  0  0  0  0  0  0  0  0  0  0
   39.7980   27.3540   32.6640 H   0  0  0  0  0  0  0  0  0  0  0  0
   40.4540   26.3650   31.3650 H   0  0  0  0  0  0  0  0  0  0  0  0
   38.7120   27.4550   30.8710 C   0  0  0  0  0  0  0  0  0  0  0  0
   37.9820   26.8410   30.2930 H   0  0  0  0  0  0  0  0  0  0  0  0
   39.4090   27.8750   30.1020 H   0  0  0  0  0  0  0  0  0  0  0  0
   38.0160   28.4750   31.4670 O   0  0  0  0  0  0  0  0  0  0  0  0
   36.0400   26.9780   30.5810 O   0  0  0  0  0  0  0  0  0  0  0  0
   36.3740   28.3310   31.1570 P   0  0  2  0  0  0  0  0  0  0  0  0
   35.9760   29.5820   30.0510 O   0  0  0  0  0  0  0  0  0  0  0  0
   36.4950   30.3680   30.2970 H   0  0  0  0  0  0  0  0  0  0  0  0
   35.4440   28.5600   32.5230 O   0  0  0  0  0  0  0  0  0  0  0  0
   32.3290   29.4630   32.7390 O   0  0  0  0  0  0  0  0  0  0  0  0
   33.5020   29.5880   33.2090 C   0  0  0  0  0  0  0  0  0  0  0  0
   34.7850   29.7580   32.4370 C   0  0  1  0  0  3  0  0  0  0  0  0
   35.4840   30.7670   33.3160 C   0  0  0  0  0  3  0  0  0  0  0  0
   34.9360   31.7540   33.3160 H   0  0  0  0  0  0  0  0  0  0  0  0
   35.2280   30.1650   34.6980 C   0  0  0  0  0  3  0  0  0  0  0  0
   35.2000   30.9480   35.4810 H   0  0  0  0  0  0  0  0  0  0  0  0
   33.8970   29.5990   34.5760 N   0  0  0  0  0  0  0  0  0  0  0  0
   33.3080   29.2490   35.3640 H   0  0  0  0  0  0  0  0  0  0  0  0
  2  3  1  0  0  0  0
  2  1  1  0  0  0  0
  3 15  1  0  0  0  0
  4  8  1  0  0  0  0
  4  3  2  0  0  0  0
  5  4  1  0  0  0  0
  6  5  2  0  0  0  0
  6  7  1  0  0  0  0
  7  2  2  0  0  0  0
  9  5  1  0  0  0  0
 10  6  1  0  0  0  0
 11 12  1  0  0  0  0
 11 17  1  0  0  0  0
 12 18  1  0  0  0  0
 13 19  1  0  0  0  0
 13 12  2  0  0  0  0
 14 13  1  0  0  0  0
 15 14  2  0  0  0  0
 15 16  1  0  0  0  0
 16 11  2  0  0  0  0
 19 20  1  0  0  0  0
 21 19  1  0  0  0  0
 22  7  1  0  0  0  0
 22 23  1  0  0  0  0
 24 22  1  0  0  0  0
 25 28  1  0  0  0  0
 25 22  1  0  0  0  0
 26 25  1  0  0  0  0
 27 25  1  0  0  0  0
 30 29  2  6  0  0  0
 30 28  1  0  0  0  0
 30 33  1  0  0  0  0
 31 32  1  0  0  0  0
 31 30  1  0  0  0  0
 34 35  2  0  0  0  0
 35 41  1  0  0  0  0
 36 33  1  1  0  0  0
 36 35  1  0  0  0  0
 36 37  1  0  0  0  0
 37 38  1  0  0  0  0
 37 39  1  0  0  0  0
 39 40  1  0  0  0  0
 41 39  1  0  0  0  0
 41 42  1  0  0  0  0
M  END
>  <minimizedAffinity>
-5.68221188

$$$$
