
 OpenBabel03272504393D

 42 44  0  0  1  0  0  0  0  0999 V2000
   37.4660   30.3240   48.0650 Cl  0  0  0  0  0  0  0  0  0  0  0  0
   36.3250   30.2590   46.7210 C   0  0  0  0  0  0  0  0  0  0  0  0
   36.7120   30.7110   45.4970 C   0  0  0  0  0  0  0  0  0  0  0  0
   35.8380   30.6660   44.4460 C   0  0  0  0  0  0  0  0  0  0  0  0
   34.5690   30.1580   44.6520 C   0  0  0  0  0  0  0  0  0  0  0  0
   34.2210   29.7080   45.9270 C   0  0  0  0  0  0  0  0  0  0  0  0
   35.0790   29.7450   46.9860 C   0  0  0  0  0  0  0  0  0  0  0  0
   36.1860   31.0390   43.4740 H   0  0  0  0  0  0  0  0  0  0  0  0
   33.9600   30.1690   43.7550 H   0  0  0  0  0  0  0  0  0  0  0  0
   33.2460   29.3700   45.8800 H   0  0  0  0  0  0  0  0  0  0  0  0
   39.7080   32.8720   45.5800 C   0  0  0  0  0  0  0  0  0  0  0  0
   40.6210   32.1010   44.8130 C   0  0  0  0  0  0  0  0  0  0  0  0
   40.1730   30.8850   44.3060 C   0  0  0  0  0  0  0  0  0  0  0  0
   38.8990   30.4830   44.5580 N   0  0  0  0  0  0  0  0  0  0  0  0
   38.0540   31.2450   45.2940 C   0  0  0  0  0  0  0  0  0  0  0  0
   38.4660   32.4160   45.7890 N   0  0  0  0  0  0  0  0  0  0  0  0
   40.0350   33.8250   45.9860 H   0  0  0  0  0  0  0  0  0  0  0  0
   41.6170   32.5020   44.6640 H   0  0  0  0  0  0  0  0  0  0  0  0
   41.1000   30.1360   43.5440 N   0  0  0  0  0  0  0  0  0  0  0  0
   41.5400   30.3210   42.6030 H   0  0  0  0  0  0  0  0  0  0  0  0
   41.3070   29.2870   44.1020 H   0  0  0  0  0  0  0  0  0  0  0  0
   34.7000   29.2800   48.3020 C   0  0  0  0  0  0  0  0  0  0  0  0
   35.6150   29.1600   48.9200 H   0  0  0  0  0  0  0  0  0  0  0  0
   34.1560   30.1360   48.8020 H   0  0  0  0  0  0  0  0  0  0  0  0
   33.8880   28.0730   48.4270 C   0  0  0  0  0  0  0  0  0  0  0  0
   34.4830   27.1670   48.6850 H   0  0  0  0  0  0  0  0  0  0  0  0
   33.4200   27.8400   47.4370 H   0  0  0  0  0  0  0  0  0  0  0  0
   32.9100   28.2120   49.3770 O   0  0  0  0  0  0  0  0  0  0  0  0
   31.3180   26.3260   48.4630 O   0  0  0  0  0  0  0  0  0  0  0  0
   31.4110   27.8040   48.7470 P   0  0  2  0  0  0  0  0  0  0  0  0
   31.2220   28.7170   47.3060 O   0  0  0  0  0  0  0  0  0  0  0  0
   31.6120   29.5960   47.4620 H   0  0  0  0  0  0  0  0  0  0  0  0
   30.1560   28.2180   49.7660 O   0  0  0  0  0  0  0  0  0  0  0  0
   27.6570   26.3640   50.7050 O   0  0  0  0  0  0  0  0  0  0  0  0
   28.0380   27.5180   50.3390 C   0  0  0  0  0  0  0  0  0  0  0  0
   28.9620   27.8580   49.1980 C   0  0  1  0  0  3  0  0  0  0  0  0
   28.2770   29.0950   48.6710 C   0  0  0  0  0  3  0  0  0  0  0  0
   27.2620   28.8470   48.2440 H   0  0  0  0  0  0  0  0  0  0  0  0
   27.9930   29.8420   49.9740 C   0  0  0  0  0  3  0  0  0  0  0  0
   27.0960   30.4860   49.8850 H   0  0  0  0  0  0  0  0  0  0  0  0
   27.6920   28.7750   50.9130 N   0  0  0  0  0  0  0  0  0  0  0  0
   27.2840   28.8960   51.8650 H   0  0  0  0  0  0  0  0  0  0  0  0
  2  7  1  0  0  0  0
  2  1  1  0  0  0  0
  3  2  2  0  0  0  0
  4  5  2  0  0  0  0
  4  3  1  0  0  0  0
  5  6  1  0  0  0  0
  6  7  2  0  0  0  0
  7 22  1  0  0  0  0
  8  4  1  0  0  0  0
  9  5  1  0  0  0  0
 10  6  1  0  0  0  0
 11 16  1  0  0  0  0
 11 17  1  0  0  0  0
 12 11  2  0  0  0  0
 13 14  2  0  0  0  0
 13 12  1  0  0  0  0
 14 15  1  0  0  0  0
 15  3  1  0  0  0  0
 15 16  2  0  0  0  0
 18 12  1  0  0  0  0
 19 21  1  0  0  0  0
 19 13  1  0  0  0  0
 20 19  1  0  0  0  0
 22 25  1  0  0  0  0
 22 24  1  0  0  0  0
 22 23  1  0  0  0  0
 25 26  1  0  0  0  0
 25 28  1  0  0  0  0
 27 25  1  0  0  0  0
 30 29  2  6  0  0  0
 30 28  1  0  0  0  0
 30 33  1  0  0  0  0
 31 32  1  0  0  0  0
 31 30  1  0  0  0  0
 35 34  2  0  0  0  0
 35 41  1  0  0  0  0
 36 33  1  1  0  0  0
 36 35  1  0  0  0  0
 37 36  1  0  0  0  0
 37 39  1  0  0  0  0
 38 37  1  0  0  0  0
 39 41  1  0  0  0  0
 40 39  1  0  0  0  0
 41 42  1  0  0  0  0
M  END
>  <minimizedAffinity>
-6.1377573

>  <minimizedRMSD>
1.30019319

$$$$
