
 OpenBabel03272504393D

 42 44  0  0  1  0  0  0  0  0999 V2000
   37.3910   30.3170   48.3610 Cl  0  0  0  0  0  0  0  0  0  0  0  0
   36.2780   30.2200   46.9960 C   0  0  0  0  0  0  0  0  0  0  0  0
   36.6870   30.6560   45.7730 C   0  0  0  0  0  0  0  0  0  0  0  0
   35.8350   30.5860   44.7060 C   0  0  0  0  0  0  0  0  0  0  0  0
   34.5660   30.0690   44.8930 C   0  0  0  0  0  0  0  0  0  0  0  0
   34.1960   29.6360   46.1680 C   0  0  0  0  0  0  0  0  0  0  0  0
   35.0320   29.6980   47.2440 C   0  0  0  0  0  0  0  0  0  0  0  0
   36.1980   30.9460   43.7340 H   0  0  0  0  0  0  0  0  0  0  0  0
   33.9760   30.0600   43.9840 H   0  0  0  0  0  0  0  0  0  0  0  0
   33.2260   29.2880   46.1070 H   0  0  0  0  0  0  0  0  0  0  0  0
   39.6940   32.7920   45.9750 C   0  0  0  0  0  0  0  0  0  0  0  0
   40.5900   32.0820   45.1300 C   0  0  0  0  0  0  0  0  0  0  0  0
   40.1260   30.9130   44.5340 C   0  0  0  0  0  0  0  0  0  0  0  0
   38.8540   30.4970   44.7770 N   0  0  0  0  0  0  0  0  0  0  0  0
   38.0280   31.1990   45.5890 C   0  0  0  0  0  0  0  0  0  0  0  0
   38.4540   32.3250   46.1700 N   0  0  0  0  0  0  0  0  0  0  0  0
   40.0340   33.7070   46.4510 H   0  0  0  0  0  0  0  0  0  0  0  0
   41.5850   32.4900   44.9960 H   0  0  0  0  0  0  0  0  0  0  0  0
   41.0340   30.2260   43.6970 N   0  0  0  0  0  0  0  0  0  0  0  0
   41.4570   30.4850   42.7660 H   0  0  0  0  0  0  0  0  0  0  0  0
   41.2470   29.3330   44.1800 H   0  0  0  0  0  0  0  0  0  0  0  0
   34.6300   29.2500   48.5590 C   0  0  0  0  0  0  0  0  0  0  0  0
   35.5360   29.1210   49.1880 H   0  0  0  0  0  0  0  0  0  0  0  0
   34.0960   30.1200   49.0460 H   0  0  0  0  0  0  0  0  0  0  0  0
   33.7980   28.0590   48.6850 C   0  0  0  0  0  0  0  0  0  0  0  0
   34.3330   27.1920   49.1380 H   0  0  0  0  0  0  0  0  0  0  0  0
   33.4960   27.7110   47.6640 H   0  0  0  0  0  0  0  0  0  0  0  0
   32.6780   28.2960   49.4400 O   0  0  0  0  0  0  0  0  0  0  0  0
   31.5650   26.2440   48.2220 O   0  0  0  0  0  0  0  0  0  0  0  0
   31.3180   27.6540   48.6980 P   0  0  2  0  0  0  0  0  0  0  0  0
   30.9460   28.6880   47.3800 O   0  0  0  0  0  0  0  0  0  0  0  0
   31.1260   29.6020   47.6640 H   0  0  0  0  0  0  0  0  0  0  0  0
   29.9890   27.6370   49.7070 O   0  0  0  0  0  0  0  0  0  0  0  0
   27.7690   26.4080   47.6760 O   0  0  0  0  0  0  0  0  0  0  0  0
   27.9820   26.9880   48.7850 C   0  0  0  0  0  0  0  0  0  0  0  0
   28.9030   28.1510   49.0480 C   0  0  1  0  0  3  0  0  0  0  0  0
   28.0610   28.9320   50.0270 C   0  0  0  0  0  3  0  0  0  0  0  0
   27.1240   29.3260   49.5350 H   0  0  0  0  0  0  0  0  0  0  0  0
   27.5870   27.8120   50.9530 C   0  0  0  0  0  3  0  0  0  0  0  0
   26.6050   28.0500   51.4070 H   0  0  0  0  0  0  0  0  0  0  0  0
   27.4070   26.6870   50.0520 N   0  0  0  0  0  0  0  0  0  0  0  0
   26.9290   25.7880   50.2840 H   0  0  0  0  0  0  0  0  0  0  0  0
  2  7  1  0  0  0  0
  2  1  1  0  0  0  0
  3  2  2  0  0  0  0
  4  5  2  0  0  0  0
  4  3  1  0  0  0  0
  5  6  1  0  0  0  0
  6  7  2  0  0  0  0
  7 22  1  0  0  0  0
  8  4  1  0  0  0  0
  9  5  1  0  0  0  0
 10  6  1  0  0  0  0
 11 16  1  0  0  0  0
 11 17  1  0  0  0  0
 12 11  2  0  0  0  0
 13 14  2  0  0  0  0
 13 12  1  0  0  0  0
 14 15  1  0  0  0  0
 15  3  1  0  0  0  0
 15 16  2  0  0  0  0
 18 12  1  0  0  0  0
 19 21  1  0  0  0  0
 19 13  1  0  0  0  0
 20 19  1  0  0  0  0
 22 25  1  0  0  0  0
 22 24  1  0  0  0  0
 22 23  1  0  0  0  0
 25 26  1  0  0  0  0
 25 28  1  0  0  0  0
 27 25  1  0  0  0  0
 30 29  2  6  0  0  0
 30 28  1  0  0  0  0
 30 33  1  0  0  0  0
 31 32  1  0  0  0  0
 31 30  1  0  0  0  0
 34 35  2  0  0  0  0
 35 36  1  0  0  0  0
 35 41  1  0  0  0  0
 36 33  1  1  0  0  0
 36 37  1  0  0  0  0
 37 39  1  0  0  0  0
 38 37  1  0  0  0  0
 39 40  1  0  0  0  0
 41 42  1  0  0  0  0
 41 39  1  0  0  0  0
M  END
>  <minimizedAffinity>
-6.25180817

>  <minimizedRMSD>
2.07803059

$$$$
