
 OpenBabel03272509373D

 25 26  0  0  1  0  0  0  0  0999 V2000
   36.0440   29.5190   49.1130 C   0  0  0  0  0  0  0  0  0  0  0  0
   36.1620   29.4430   50.5060 C   0  0  0  0  0  0  0  0  0  0  0  0
   37.1630   30.1070   51.2020 C   0  0  0  0  0  0  0  0  0  0  0  0
   38.0950   30.8810   50.5150 C   0  0  0  0  0  0  0  0  0  0  0  0
   37.9660   30.9460   49.1490 C   0  0  0  0  0  0  0  0  0  0  0  0
   36.9690   30.2830   48.4770 C   0  0  0  0  0  0  0  0  0  0  0  0
   35.4360   28.8400   51.0380 H   0  0  0  0  0  0  0  0  0  0  0  0
   37.1490   29.9710   52.2700 H   0  0  0  0  0  0  0  0  0  0  0  0
   38.8330   31.3540   51.1480 H   0  0  0  0  0  0  0  0  0  0  0  0
   38.7540   31.5770   48.7640 H   0  0  0  0  0  0  0  0  0  0  0  0
   34.9640   28.7980   48.4700 C   0  0  1  0  0  3  0  0  0  0  0  0
   34.6290   27.7140   49.0740 O   0  0  0  0  0  1  0  0  0  0  0  0
   32.9400   30.8840   46.3000 C   0  0  0  0  0  0  0  0  0  0  0  0
   32.9590   30.2220   45.0790 C   0  0  0  0  0  0  0  0  0  0  0  0
   33.6700   29.0400   44.9960 C   0  0  0  0  0  0  0  0  0  0  0  0
   34.3190   28.5710   46.0990 N   0  0  0  0  0  0  0  0  0  0  0  0
   34.2860   29.2230   47.2520 C   0  0  0  0  0  0  0  0  0  0  0  0
   33.5940   30.3770   47.3420 N   0  0  0  0  0  0  0  0  0  0  0  0
   32.4010   31.8150   46.4280 H   0  0  0  0  0  0  0  0  0  0  0  0
   32.3980   30.7150   44.2960 H   0  0  0  0  0  0  0  0  0  0  0  0
   33.6690   28.5460   44.0420 H   0  0  0  0  0  0  0  0  0  0  0  0
   36.9800   30.4540   47.0420 C   0  0  0  0  0  3  0  0  0  0  0  0
   37.6080   31.3840   46.3490 C   0  0  0  0  0  3  0  0  0  0  0  0
   37.7290   31.7050   44.9230 C   0  0  0  0  0  2  0  0  0  0  0  0
   37.0660   32.5720   44.6440 H   0  0  0  0  0  0  0  0  0  0  0  0
  1  2  1  0  0  0  0
  2  7  1  0  0  0  0
  2  3  2  0  0  0  0
  3  8  1  0  0  0  0
  4  9  1  0  0  0  0
  4  3  1  0  0  0  0
  5  4  2  0  0  0  0
  6  1  2  0  0  0  0
  6  5  1  0  0  0  0
 10  5  1  0  0  0  0
 11 12  1  1  0  0  0
 11  1  1  0  0  0  0
 13 19  1  0  0  0  0
 13 18  1  0  0  0  0
 14 13  2  0  0  0  0
 15 14  1  0  0  0  0
 15 16  2  0  0  0  0
 16 17  1  0  0  0  0
 17 18  2  0  0  0  0
 17 11  1  0  0  0  0
 20 14  1  0  0  0  0
 21 15  1  0  0  0  0
 22  6  1  0  0  0  0
 23 22  2  0  0  0  0
 24 23  1  0  0  0  0
 25 24  1  0  0  0  0
M  END
>  <minimizedAffinity>
-5.13920784

>  <minimizedRMSD>
0.780723274

$$$$
