
 OpenBabel03272507363D

 14 14  0  0  0  0  0  0  0  0999 V2000
   36.0010   29.8850   50.2520 C   0  0  0  0  0  0  0  0  0  0  0  0
   37.2680   29.5090   50.6900 C   0  0  0  0  0  0  0  0  0  0  0  0
   38.3010   30.4250   50.5820 C   0  0  0  0  0  0  0  0  0  0  0  0
   38.0350   31.6450   50.0530 N   0  0  0  0  0  0  0  0  0  0  0  0
   36.7930   32.0010   49.6270 C   0  0  0  0  0  0  0  0  0  0  0  0
   35.8100   31.1100   49.7390 N   0  0  0  0  0  0  0  0  0  0  0  0
   39.3160   30.2830   50.8720 H   0  0  0  0  0  0  0  0  0  0  0  0
   36.5840   32.9740   49.2060 H   0  0  0  0  0  0  0  0  0  0  0  0
   35.0640   28.8860   50.4150 O   0  0  0  0  0  0  0  0  0  0  0  0
   34.2680   28.7360   49.7820 H   0  0  0  0  0  0  0  0  0  0  0  0
   37.5760   28.2020   51.2590 C   0  0  0  0  0  3  0  0  0  0  0  0
   38.7310   27.9350   51.8390 C   0  0  0  0  0  3  0  0  0  0  0  0
   39.1260   26.6600   52.4340 C   0  0  0  0  0  2  0  0  0  0  0  0
   39.9830   26.2330   51.8690 H   0  0  0  0  0  0  0  0  0  0  0  0
  1  9  1  0  0  0  0
  1  2  1  0  0  0  0
  2 11  1  0  0  0  0
  3  2  2  0  0  0  0
  3  7  1  0  0  0  0
  4  3  1  0  0  0  0
  5  6  1  0  0  0  0
  5  4  2  0  0  0  0
  6  1  2  0  0  0  0
  8  5  1  0  0  0  0
 10  9  1  0  0  0  0
 11 12  2  0  0  0  0
 12 13  1  0  0  0  0
 14 13  1  0  0  0  0
M  END
>  <minimizedAffinity>
-1.18207228

>  <minimizedRMSD>
3.52592587

$$$$
