
 OpenBabel03272500333D

 39 41  0  0  1  0  0  0  0  0999 V2000
   37.6800   26.8290   33.3820 C   0  0  1  0  0  0  0  0  0  0  0  0
   37.6920   26.3700   34.7630 C   0  0  0  0  0  0  0  0  0  0  0  0
   38.6530   27.3620   35.4300 C   0  0  0  0  0  0  0  0  0  0  0  0
   40.0230   26.8210   34.9930 C   0  0  0  0  0  0  0  0  0  0  0  0
   40.1930   26.7650   33.5410 C   0  0  0  0  0  0  0  0  0  0  0  0
   39.0150   27.0680   32.7120 C   0  0  1  0  0  0  0  0  0  0  0  0
   37.1610   27.8260   33.2860 H   0  0  0  0  0  0  0  0  0  0  0  0
   38.2880   25.5550   35.1410 H   0  0  0  0  0  0  0  0  0  0  0  0
   36.7280   26.5210   35.2850 H   0  0  0  0  0  0  0  0  0  0  0  0
   38.5920   27.3070   36.5280 H   0  0  0  0  0  0  0  0  0  0  0  0
   38.5050   28.3800   35.0360 H   0  0  0  0  0  0  0  0  0  0  0  0
   40.0360   25.7830   35.4430 H   0  0  0  0  0  0  0  0  0  0  0  0
   40.7400   27.3850   35.5820 H   0  0  0  0  0  0  0  0  0  0  0  0
   40.5450   25.7310   33.2510 H   0  0  0  0  0  0  0  0  0  0  0  0
   41.0570   27.4110   33.2730 H   0  0  0  0  0  0  0  0  0  0  0  0
   39.0950   28.1330   32.4380 H   0  0  0  0  0  0  0  0  0  0  0  0
   38.0320   23.8330   33.6650 Cl  0  0  0  0  0  0  0  0  0  0  0  0
   36.9380   24.5920   32.5430 C   0  0  0  0  0  0  0  0  0  0  0  0
   36.2320   23.7130   31.7660 C   0  0  0  0  0  0  0  0  0  0  0  0
   35.2970   24.2380   30.8840 C   0  0  0  0  0  0  0  0  0  0  0  0
   35.1320   25.6150   30.8460 C   0  0  0  0  0  0  0  0  0  0  0  0
   35.8840   26.4300   31.6660 C   0  0  0  0  0  0  0  0  0  0  0  0
   36.8160   25.9550   32.5450 C   0  0  0  0  0  0  0  0  0  0  0  0
   34.7120   23.5900   30.2450 H   0  0  0  0  0  0  0  0  0  0  0  0
   34.4000   26.0490   30.1590 H   0  0  0  0  0  0  0  0  0  0  0  0
   35.6990   27.4970   31.5860 H   0  0  0  0  0  0  0  0  0  0  0  0
   37.5220   20.3380   31.2030 C   0  0  0  0  0  0  0  0  0  0  0  0
   36.7830   19.5260   32.0480 C   0  0  0  0  0  0  0  0  0  0  0  0
   35.8280   20.1720   32.8270 C   0  0  0  0  0  0  0  0  0  0  0  0
   35.6660   21.5300   32.7290 N   0  0  0  0  0  0  0  0  0  0  0  0
   36.4130   22.2580   31.8900 C   0  0  0  0  0  0  0  0  0  0  0  0
   37.3490   21.6580   31.1200 N   0  0  0  0  0  0  0  0  0  0  0  0
   38.2930   19.9250   30.5520 H   0  0  0  0  0  0  0  0  0  0  0  0
   36.9480   18.4580   32.0900 H   0  0  0  0  0  0  0  0  0  0  0  0
   35.2460   19.5710   33.4860 H   0  0  0  0  0  0  0  0  0  0  0  0
   39.0890   26.3000   31.4190 C   0  0  0  0  0  3  0  0  0  0  0  0
   39.2800   26.8070   30.2150 C   0  0  0  0  0  3  0  0  0  0  0  0
   39.4420   28.2790   30.0960 C   0  0  0  0  0  2  0  0  0  0  0  0
   38.6870   28.8580   30.6440 H   0  0  0  0  0  0  0  0  0  0  0  0
  1  7  1  1  0  0  0
  1  2  1  0  0  0  0
  2  8  1  0  0  0  0
  2  9  1  0  0  0  0
  2  3  1  0  0  0  0
  3 10  1  0  0  0  0
  4  3  1  0  0  0  0
  4 12  1  0  0  0  0
  4 13  1  0  0  0  0
  5  4  1  0  0  0  0
  6 16  1  6  0  0  0
  6  1  1  0  0  0  0
  6  5  1  0  0  0  0
 11  3  1  0  0  0  0
 14  5  1  0  0  0  0
 15  5  1  0  0  0  0
 18 23  1  0  0  0  0
 18 17  1  0  0  0  0
 19 31  1  0  0  0  0
 19 18  2  0  0  0  0
 20 19  1  0  0  0  0
 21 20  2  0  0  0  0
 21 22  1  0  0  0  0
 22 23  2  0  0  0  0
 23  1  1  0  0  0  0
 24 20  1  0  0  0  0
 25 21  1  0  0  0  0
 26 22  1  0  0  0  0
 27 28  1  0  0  0  0
 28 34  1  0  0  0  0
 28 29  2  0  0  0  0
 29 35  1  0  0  0  0
 30 29  1  0  0  0  0
 31 30  2  0  0  0  0
 32 27  2  0  0  0  0
 32 31  1  0  0  0  0
 33 27  1  0  0  0  0
 36  6  1  0  0  0  0
 37 36  2  0  0  0  0
 38 37  1  0  0  0  0
 38 39  1  0  0  0  0
M  END
>  <minimizedAffinity>
-5.57032585

$$$$

 OpenBabel03272500333D

 39 41  0  0  1  0  0  0  0  0999 V2000
   38.7920   24.3300   36.0020 C   0  0  1  0  0  0  0  0  0  0  0  0
   37.5950   24.1970   36.8170 C   0  0  0  0  0  0  0  0  0  0  0  0
   38.1270   24.4620   38.2300 C   0  0  0  0  0  0  0  0  0  0  0  0
   38.7940   23.1210   38.5760 C   0  0  0  0  0  0  0  0  0  0  0  0
   39.8510   22.7360   37.6390 C   0  0  0  0  0  0  0  0  0  0  0  0
   40.0240   23.5690   36.4380 C   0  0  1  0  0  0  0  0  0  0  0  0
   39.1480   25.4000   35.9680 H   0  0  0  0  0  0  0  0  0  0  0  0
   37.1780   23.2640   37.1610 H   0  0  0  0  0  0  0  0  0  0  0  0
   36.8520   25.0010   36.6430 H   0  0  0  0  0  0  0  0  0  0  0  0
   37.3080   24.6370   38.9450 H   0  0  0  0  0  0  0  0  0  0  0  0
   38.8790   25.2670   38.2230 H   0  0  0  0  0  0  0  0  0  0  0  0
   37.9290   22.3940   38.5310 H   0  0  0  0  0  0  0  0  0  0  0  0
   39.0350   23.1990   39.6320 H   0  0  0  0  0  0  0  0  0  0  0  0
   39.6620   21.6800   37.2850 H   0  0  0  0  0  0  0  0  0  0  0  0
   40.7990   22.6450   38.2130 H   0  0  0  0  0  0  0  0  0  0  0  0
   40.8280   24.2870   36.6730 H   0  0  0  0  0  0  0  0  0  0  0  0
   37.1740   21.8530   35.3520 Cl  0  0  0  0  0  0  0  0  0  0  0  0
   37.8220   22.9440   34.1590 C   0  0  0  0  0  0  0  0  0  0  0  0
   37.5480   22.5880   32.8650 C   0  0  0  0  0  0  0  0  0  0  0  0
   37.9820   23.4370   31.8570 C   0  0  0  0  0  0  0  0  0  0  0  0
   38.6610   24.5920   32.2180 C   0  0  0  0  0  0  0  0  0  0  0  0
   38.8930   24.8770   33.5480 C   0  0  0  0  0  0  0  0  0  0  0  0
   38.4860   24.0670   34.5710 C   0  0  0  0  0  0  0  0  0  0  0  0
   37.7960   23.2050   30.8170 H   0  0  0  0  0  0  0  0  0  0  0  0
   39.0120   25.2750   31.4390 H   0  0  0  0  0  0  0  0  0  0  0  0
   39.4260   25.8000   33.7580 H   0  0  0  0  0  0  0  0  0  0  0  0
   34.7050   20.3860   32.2010 C   0  0  0  0  0  0  0  0  0  0  0  0
   35.2620   19.1360   31.9860 C   0  0  0  0  0  0  0  0  0  0  0  0
   36.6500   19.0680   32.0680 C   0  0  0  0  0  0  0  0  0  0  0  0
   37.3770   20.1970   32.3480 N   0  0  0  0  0  0  0  0  0  0  0  0
   36.7760   21.3760   32.5470 C   0  0  0  0  0  0  0  0  0  0  0  0
   35.4290   21.4730   32.4730 N   0  0  0  0  0  0  0  0  0  0  0  0
   33.6270   20.5410   32.1590 H   0  0  0  0  0  0  0  0  0  0  0  0
   34.6460   18.2740   31.7680 H   0  0  0  0  0  0  0  0  0  0  0  0
   37.1040   18.1190   31.9070 H   0  0  0  0  0  0  0  0  0  0  0  0
   40.5400   22.7260   35.3020 C   0  0  0  0  0  3  0  0  0  0  0  0
   41.7540   22.7650   34.7850 C   0  0  0  0  0  3  0  0  0  0  0  0
   42.7270   23.7270   35.3620 C   0  0  0  0  0  2  0  0  0  0  0  0
   42.3300   24.7420   35.4930 H   0  0  0  0  0  0  0  0  0  0  0  0
  1  7  1  1  0  0  0
  1  6  1  0  0  0  0
  1  2  1  0  0  0  0
  2  8  1  0  0  0  0
  2  3  1  0  0  0  0
  3  4  1  0  0  0  0
  3 10  1  0  0  0  0
  4 13  1  0  0  0  0
  5 15  1  0  0  0  0
  5  4  1  0  0  0  0
  6 16  1  1  0  0  0
  6  5  1  0  0  0  0
  9  2  1  0  0  0  0
 11  3  1  0  0  0  0
 12  4  1  0  0  0  0
 14  5  1  0  0  0  0
 18 23  1  0  0  0  0
 18 17  1  0  0  0  0
 19 18  2  0  0  0  0
 20 21  2  0  0  0  0
 20 19  1  0  0  0  0
 21 22  1  0  0  0  0
 22 26  1  0  0  0  0
 22 23  2  0  0  0  0
 23  1  1  0  0  0  0
 24 20  1  0  0  0  0
 25 21  1  0  0  0  0
 27 32  1  0  0  0  0
 28 29  1  0  0  0  0
 28 27  2  0  0  0  0
 29 30  2  0  0  0  0
 30 31  1  0  0  0  0
 31 19  1  0  0  0  0
 32 31  2  0  0  0  0
 33 27  1  0  0  0  0
 34 28  1  0  0  0  0
 35 29  1  0  0  0  0
 36  6  1  0  0  0  0
 37 36  2  0  0  0  0
 37 38  1  0  0  0  0
 38 39  1  0  0  0  0
M  END
>  <minimizedAffinity>
-5.32360983

$$$$

 OpenBabel03272500333D

 39 41  0  0  1  0  0  0  0  0999 V2000
   39.5140   25.1560   32.8350 C   0  0  1  0  0  0  0  0  0  0  0  0
   40.0450   26.1660   31.9330 C   0  0  0  0  0  0  0  0  0  0  0  0
   41.4280   26.4480   32.5320 C   0  0  0  0  0  0  0  0  0  0  0  0
   41.0800   27.3580   33.7210 C   0  0  0  0  0  0  0  0  0  0  0  0
   40.1670   26.7390   34.6820 C   0  0  0  0  0  0  0  0  0  0  0  0
   39.5890   25.4350   34.3200 C   0  0  1  0  0  0  0  0  0  0  0  0
   40.0680   24.1790   32.7280 H   0  0  0  0  0  0  0  0  0  0  0  0
   39.8210   27.2190   31.9800 H   0  0  0  0  0  0  0  0  0  0  0  0
   40.2540   25.7810   30.9160 H   0  0  0  0  0  0  0  0  0  0  0  0
   42.0630   27.0160   31.8340 H   0  0  0  0  0  0  0  0  0  0  0  0
   41.8980   25.5190   32.8920 H   0  0  0  0  0  0  0  0  0  0  0  0
   40.5970   28.2490   33.2200 H   0  0  0  0  0  0  0  0  0  0  0  0
   42.0390   27.7250   34.0740 H   0  0  0  0  0  0  0  0  0  0  0  0
   39.3030   27.4420   34.8750 H   0  0  0  0  0  0  0  0  0  0  0  0
   40.6830   26.6970   35.6660 H   0  0  0  0  0  0  0  0  0  0  0  0
   40.2240   24.6710   34.7990 H   0  0  0  0  0  0  0  0  0  0  0  0
   38.8070   22.2110   32.9360 Cl  0  0  0  0  0  0  0  0  0  0  0  0
   37.7300   23.4620   32.3810 C   0  0  0  0  0  0  0  0  0  0  0  0
   36.5050   23.0070   31.9710 C   0  0  0  0  0  0  0  0  0  0  0  0
   35.5680   23.9480   31.5670 C   0  0  0  0  0  0  0  0  0  0  0  0
   35.9270   25.2880   31.6050 C   0  0  0  0  0  0  0  0  0  0  0  0
   37.1840   25.6620   32.0340 C   0  0  0  0  0  0  0  0  0  0  0  0
   38.1350   24.7680   32.4380 C   0  0  0  0  0  0  0  0  0  0  0  0
   34.5850   23.6450   31.2320 H   0  0  0  0  0  0  0  0  0  0  0  0
   35.2040   26.0470   31.2910 H   0  0  0  0  0  0  0  0  0  0  0  0
   37.3940   26.7280   32.0420 H   0  0  0  0  0  0  0  0  0  0  0  0
   35.3670   19.7610   33.2130 C   0  0  0  0  0  0  0  0  0  0  0  0
   35.5350   18.8910   32.1480 C   0  0  0  0  0  0  0  0  0  0  0  0
   36.0470   19.4510   30.9820 C   0  0  0  0  0  0  0  0  0  0  0  0
   36.3510   20.7880   30.9380 N   0  0  0  0  0  0  0  0  0  0  0  0
   36.1640   21.5760   32.0040 C   0  0  0  0  0  0  0  0  0  0  0  0
   35.6680   21.0590   33.1520 N   0  0  0  0  0  0  0  0  0  0  0  0
   34.9720   19.4170   34.1690 H   0  0  0  0  0  0  0  0  0  0  0  0
   35.2810   17.8430   32.2310 H   0  0  0  0  0  0  0  0  0  0  0  0
   36.1870   18.8040   30.1480 H   0  0  0  0  0  0  0  0  0  0  0  0
   38.2250   25.2900   34.9420 C   0  0  0  0  0  3  0  0  0  0  0  0
   37.9150   24.5440   35.9870 C   0  0  0  0  0  3  0  0  0  0  0  0
   39.0000   23.7610   36.6310 C   0  0  0  0  0  2  0  0  0  0  0  0
   39.6250   23.1970   35.9270 H   0  0  0  0  0  0  0  0  0  0  0  0
  1  7  1  6  0  0  0
  1  6  1  0  0  0  0
  2  8  1  0  0  0  0
  2  3  1  0  0  0  0
  2  1  1  0  0  0  0
  3 11  1  0  0  0  0
  3  4  1  0  0  0  0
  4 13  1  0  0  0  0
  4  5  1  0  0  0  0
  5 14  1  0  0  0  0
  5 15  1  0  0  0  0
  6  5  1  0  0  0  0
  6 16  1  1  0  0  0
  6 36  1  0  0  0  0
  9  2  1  0  0  0  0
 10  3  1  0  0  0  0
 12  4  1  0  0  0  0
 18 23  1  0  0  0  0
 18 17  1  0  0  0  0
 19 31  1  0  0  0  0
 19 18  2  0  0  0  0
 20 21  2  0  0  0  0
 20 19  1  0  0  0  0
 21 22  1  0  0  0  0
 22 26  1  0  0  0  0
 22 23  2  0  0  0  0
 23  1  1  0  0  0  0
 24 20  1  0  0  0  0
 25 21  1  0  0  0  0
 27 33  1  0  0  0  0
 28 34  1  0  0  0  0
 28 27  2  0  0  0  0
 29 28  1  0  0  0  0
 30 29  2  0  0  0  0
 30 31  1  0  0  0  0
 31 32  2  0  0  0  0
 32 27  1  0  0  0  0
 35 29  1  0  0  0  0
 36 37  2  0  0  0  0
 37 38  1  0  0  0  0
 39 38  1  0  0  0  0
M  END
>  <minimizedAffinity>
-5.1608777

$$$$

 OpenBabel03272500333D

 39 41  0  0  1  0  0  0  0  0999 V2000
   38.9900   24.7150   34.9000 C   0  0  1  0  0  0  0  0  0  0  0  0
   39.7590   23.5700   35.3630 C   0  0  0  0  0  0  0  0  0  0  0  0
   38.7080   22.7530   36.1230 C   0  0  0  0  0  0  0  0  0  0  0  0
   38.6090   23.5190   37.4520 C   0  0  0  0  0  0  0  0  0  0  0  0
   38.2220   24.9220   37.2890 C   0  0  0  0  0  0  0  0  0  0  0  0
   38.1390   25.4440   35.9160 C   0  0  1  0  0  0  0  0  0  0  0  0
   38.2450   24.4150   34.1080 H   0  0  0  0  0  0  0  0  0  0  0  0
   40.3870   23.5580   36.2390 H   0  0  0  0  0  0  0  0  0  0  0  0
   40.0920   22.9030   34.5430 H   0  0  0  0  0  0  0  0  0  0  0  0
   39.0640   21.7330   36.3360 H   0  0  0  0  0  0  0  0  0  0  0  0
   37.7380   22.7760   35.6000 H   0  0  0  0  0  0  0  0  0  0  0  0
   39.6570   23.4340   37.8670 H   0  0  0  0  0  0  0  0  0  0  0  0
   38.0060   22.8820   38.0910 H   0  0  0  0  0  0  0  0  0  0  0  0
   38.9570   25.5730   37.8480 H   0  0  0  0  0  0  0  0  0  0  0  0
   37.2710   25.0800   37.8440 H   0  0  0  0  0  0  0  0  0  0  0  0
   37.0790   25.3690   35.6200 H   0  0  0  0  0  0  0  0  0  0  0  0
   38.1550   25.4590   32.0840 Cl  0  0  0  0  0  0  0  0  0  0  0  0
   39.6130   26.0170   32.8560 C   0  0  0  0  0  0  0  0  0  0  0  0
   40.3850   26.8340   32.0740 C   0  0  0  0  0  0  0  0  0  0  0  0
   41.5370   27.3660   32.6370 C   0  0  0  0  0  0  0  0  0  0  0  0
   41.8330   27.0430   33.9540 C   0  0  0  0  0  0  0  0  0  0  0  0
   40.9990   26.2120   34.6730 C   0  0  0  0  0  0  0  0  0  0  0  0
   39.8580   25.6660   34.1560 C   0  0  0  0  0  0  0  0  0  0  0  0
   42.1850   28.0170   32.0650 H   0  0  0  0  0  0  0  0  0  0  0  0
   42.7360   27.4520   34.4170 H   0  0  0  0  0  0  0  0  0  0  0  0
   41.2910   26.0060   35.6980 H   0  0  0  0  0  0  0  0  0  0  0  0
   40.1520   26.7510   28.4260 C   0  0  0  0  0  0  0  0  0  0  0  0
   39.3160   27.8050   28.0960 C   0  0  0  0  0  0  0  0  0  0  0  0
   38.8250   28.5470   29.1660 C   0  0  0  0  0  0  0  0  0  0  0  0
   39.1750   28.2160   30.4490 N   0  0  0  0  0  0  0  0  0  0  0  0
   39.9900   27.1840   30.7010 C   0  0  0  0  0  0  0  0  0  0  0  0
   40.4830   26.4440   29.6810 N   0  0  0  0  0  0  0  0  0  0  0  0
   40.5870   26.1120   27.6580 H   0  0  0  0  0  0  0  0  0  0  0  0
   39.0690   28.0280   27.0660 H   0  0  0  0  0  0  0  0  0  0  0  0
   38.1800   29.3640   28.9400 H   0  0  0  0  0  0  0  0  0  0  0  0
   38.4700   26.9130   35.9080 C   0  0  0  0  0  3  0  0  0  0  0  0
   37.7630   27.8730   35.3380 C   0  0  0  0  0  3  0  0  0  0  0  0
   36.5140   27.4920   34.6300 C   0  0  0  0  0  2  0  0  0  0  0  0
   36.6280   26.6400   33.9480 H   0  0  0  0  0  0  0  0  0  0  0  0
  1  7  1  6  0  0  0
  1  2  1  0  0  0  0
  1  6  1  0  0  0  0
  2  3  1  0  0  0  0
  2  8  1  0  0  0  0
  3 10  1  0  0  0  0
  3  4  1  0  0  0  0
  4 12  1  0  0  0  0
  4 13  1  0  0  0  0
  5  4  1  0  0  0  0
  5 15  1  0  0  0  0
  5 14  1  0  0  0  0
  6 16  1  6  0  0  0
  6  5  1  0  0  0  0
  9  2  1  0  0  0  0
 11  3  1  0  0  0  0
 17 18  1  0  0  0  0
 18 23  1  0  0  0  0
 19 20  1  0  0  0  0
 19 18  2  0  0  0  0
 20 21  2  0  0  0  0
 21 25  1  0  0  0  0
 21 22  1  0  0  0  0
 22 26  1  0  0  0  0
 23 22  2  0  0  0  0
 23  1  1  0  0  0  0
 24 20  1  0  0  0  0
 27 32  1  0  0  0  0
 28 27  2  0  0  0  0
 28 29  1  0  0  0  0
 29 30  2  0  0  0  0
 30 31  1  0  0  0  0
 31 19  1  0  0  0  0
 32 31  2  0  0  0  0
 33 27  1  0  0  0  0
 34 28  1  0  0  0  0
 35 29  1  0  0  0  0
 36  6  1  0  0  0  0
 37 36  2  0  0  0  0
 38 37  1  0  0  0  0
 39 38  1  0  0  0  0
M  END
>  <minimizedAffinity>
-5.13257313

$$$$

 OpenBabel03272500333D

 39 41  0  0  1  0  0  0  0  0999 V2000
   38.8650   26.5860   32.9930 C   0  0  1  0  0  0  0  0  0  0  0  0
   39.2720   27.1520   34.2700 C   0  0  0  0  0  0  0  0  0  0  0  0
   40.0820   26.0090   34.8940 C   0  0  0  0  0  0  0  0  0  0  0  0
   38.9740   25.0710   35.3980 C   0  0  0  0  0  0  0  0  0  0  0  0
   38.0730   24.6100   34.3400 C   0  0  0  0  0  0  0  0  0  0  0  0
   38.2360   25.2090   33.0060 C   0  0  1  0  0  0  0  0  0  0  0  0
   39.7460   26.4600   32.3010 H   0  0  0  0  0  0  0  0  0  0  0  0
   38.6590   27.1870   35.1570 H   0  0  0  0  0  0  0  0  0  0  0  0
   39.9940   27.9860   34.1720 H   0  0  0  0  0  0  0  0  0  0  0  0
   40.6660   26.3540   35.7610 H   0  0  0  0  0  0  0  0  0  0  0  0
   40.6920   25.4980   34.1320 H   0  0  0  0  0  0  0  0  0  0  0  0
   38.4230   25.7160   36.1460 H   0  0  0  0  0  0  0  0  0  0  0  0
   39.4940   24.3320   36.0000 H   0  0  0  0  0  0  0  0  0  0  0  0
   37.0050   24.7970   34.6590 H   0  0  0  0  0  0  0  0  0  0  0  0
   38.1340   23.5010   34.2990 H   0  0  0  0  0  0  0  0  0  0  0  0
   38.8740   24.5160   32.4320 H   0  0  0  0  0  0  0  0  0  0  0  0
   36.5980   27.9300   34.4890 Cl  0  0  0  0  0  0  0  0  0  0  0  0
   36.9290   28.1580   32.7950 C   0  0  0  0  0  0  0  0  0  0  0  0
   36.0600   29.0070   32.1630 C   0  0  0  0  0  0  0  0  0  0  0  0
   36.2890   29.2860   30.8220 C   0  0  0  0  0  0  0  0  0  0  0  0
   37.3820   28.6920   30.2070 C   0  0  0  0  0  0  0  0  0  0  0  0
   38.2110   27.8490   30.9180 C   0  0  0  0  0  0  0  0  0  0  0  0
   38.0190   27.5470   32.2370 C   0  0  0  0  0  0  0  0  0  0  0  0
   35.6340   29.9480   30.2730 H   0  0  0  0  0  0  0  0  0  0  0  0
   37.5820   28.8990   29.1510 H   0  0  0  0  0  0  0  0  0  0  0  0
   39.0490   27.4240   30.3740 H   0  0  0  0  0  0  0  0  0  0  0  0
   32.7000   29.6400   33.4600 C   0  0  0  0  0  0  0  0  0  0  0  0
   32.8110   30.8160   34.1850 C   0  0  0  0  0  0  0  0  0  0  0  0
   34.0800   31.3870   34.2230 C   0  0  0  0  0  0  0  0  0  0  0  0
   35.1230   30.7860   33.5680 N   0  0  0  0  0  0  0  0  0  0  0  0
   34.9490   29.6480   32.8840 C   0  0  0  0  0  0  0  0  0  0  0  0
   33.7270   29.0700   32.8280 N   0  0  0  0  0  0  0  0  0  0  0  0
   31.7480   29.1180   33.3710 H   0  0  0  0  0  0  0  0  0  0  0  0
   31.9570   31.2530   34.6850 H   0  0  0  0  0  0  0  0  0  0  0  0
   34.1930   32.2910   34.7730 H   0  0  0  0  0  0  0  0  0  0  0  0
   36.9100   25.2400   32.2940 C   0  0  0  0  0  3  0  0  0  0  0  0
   36.5760   24.5360   31.2280 C   0  0  0  0  0  3  0  0  0  0  0  0
   37.5900   23.6140   30.6550 C   0  0  0  0  0  2  0  0  0  0  0  0
   38.5820   24.0650   30.5240 H   0  0  0  0  0  0  0  0  0  0  0  0
  1  7  1  6  0  0  0
  1  6  1  0  0  0  0
  1  2  1  0  0  0  0
  2  3  1  0  0  0  0
  2  8  1  0  0  0  0
  3  4  1  0  0  0  0
  3 10  1  0  0  0  0
  4 13  1  0  0  0  0
  4 12  1  0  0  0  0
  5 14  1  0  0  0  0
  5  4  1  0  0  0  0
  6 16  1  6  0  0  0
  6  5  1  0  0  0  0
  9  2  1  0  0  0  0
 11  3  1  0  0  0  0
 15  5  1  0  0  0  0
 18 17  1  0  0  0  0
 19 18  2  0  0  0  0
 19 31  1  0  0  0  0
 20 19  1  0  0  0  0
 21 20  2  0  0  0  0
 21 22  1  0  0  0  0
 22 23  2  0  0  0  0
 23 18  1  0  0  0  0
 23  1  1  0  0  0  0
 24 20  1  0  0  0  0
 25 21  1  0  0  0  0
 26 22  1  0  0  0  0
 27 28  1  0  0  0  0
 28 29  2  0  0  0  0
 28 34  1  0  0  0  0
 29 35  1  0  0  0  0
 30 29  1  0  0  0  0
 31 30  2  0  0  0  0
 32 31  1  0  0  0  0
 32 27  2  0  0  0  0
 33 27  1  0  0  0  0
 36  6  1  0  0  0  0
 37 36  2  0  0  0  0
 38 37  1  0  0  0  0
 39 38  1  0  0  0  0
M  END
>  <minimizedAffinity>
-5.13189697

$$$$

 OpenBabel03272500333D

 39 41  0  0  1  0  0  0  0  0999 V2000
   38.8060   24.2260   35.7460 C   0  0  1  0  0  0  0  0  0  0  0  0
   38.1420   23.2350   36.5790 C   0  0  0  0  0  0  0  0  0  0  0  0
   38.9450   23.3100   37.8830 C   0  0  0  0  0  0  0  0  0  0  0  0
   40.2060   22.5080   37.5280 C   0  0  0  0  0  0  0  0  0  0  0  0
   40.9400   23.0500   36.3830 C   0  0  0  0  0  0  0  0  0  0  0  0
   40.3140   24.1570   35.6440 C   0  0  1  0  0  0  0  0  0  0  0  0
   38.6210   25.2710   36.1260 H   0  0  0  0  0  0  0  0  0  0  0  0
   38.3220   22.1730   36.5420 H   0  0  0  0  0  0  0  0  0  0  0  0
   37.1120   23.5220   36.8670 H   0  0  0  0  0  0  0  0  0  0  0  0
   38.4260   22.7960   38.7070 H   0  0  0  0  0  0  0  0  0  0  0  0
   39.2140   24.3520   38.1200 H   0  0  0  0  0  0  0  0  0  0  0  0
   39.7910   21.4820   37.2930 H   0  0  0  0  0  0  0  0  0  0  0  0
   40.7270   22.3850   38.4720 H   0  0  0  0  0  0  0  0  0  0  0  0
   41.1290   22.2200   35.6400 H   0  0  0  0  0  0  0  0  0  0  0  0
   41.9630   23.3170   36.7290 H   0  0  0  0  0  0  0  0  0  0  0  0
   40.7460   25.0860   36.0530 H   0  0  0  0  0  0  0  0  0  0  0  0
   38.3180   26.9620   34.5400 Cl  0  0  0  0  0  0  0  0  0  0  0  0
   37.8590   25.4610   33.7870 C   0  0  0  0  0  0  0  0  0  0  0  0
   37.2330   25.6080   32.5780 C   0  0  0  0  0  0  0  0  0  0  0  0
   36.8860   24.4550   31.8860 C   0  0  0  0  0  0  0  0  0  0  0  0
   37.1950   23.2290   32.4580 C   0  0  0  0  0  0  0  0  0  0  0  0
   37.8290   23.1700   33.6820 C   0  0  0  0  0  0  0  0  0  0  0  0
   38.1860   24.2800   34.3960 C   0  0  0  0  0  0  0  0  0  0  0  0
   36.3880   24.5120   30.9270 H   0  0  0  0  0  0  0  0  0  0  0  0
   36.9310   22.3080   31.9300 H   0  0  0  0  0  0  0  0  0  0  0  0
   38.0440   22.1780   34.0670 H   0  0  0  0  0  0  0  0  0  0  0  0
   37.7010   28.6610   30.6220 C   0  0  0  0  0  0  0  0  0  0  0  0
   36.5870   29.4380   30.8980 C   0  0  0  0  0  0  0  0  0  0  0  0
   35.6610   28.8810   31.7740 C   0  0  0  0  0  0  0  0  0  0  0  0
   35.8810   27.6360   32.3050 N   0  0  0  0  0  0  0  0  0  0  0  0
   36.9810   26.9360   31.9980 C   0  0  0  0  0  0  0  0  0  0  0  0
   37.8990   27.4520   31.1490 N   0  0  0  0  0  0  0  0  0  0  0  0
   38.4820   29.0120   29.9480 H   0  0  0  0  0  0  0  0  0  0  0  0
   36.4580   30.4160   30.4540 H   0  0  0  0  0  0  0  0  0  0  0  0
   34.7960   29.4570   32.0030 H   0  0  0  0  0  0  0  0  0  0  0  0
   40.7320   24.1070   34.1980 C   0  0  0  0  0  3  0  0  0  0  0  0
   41.4940   24.9850   33.5710 C   0  0  0  0  0  3  0  0  0  0  0  0
   42.0020   26.1460   34.3450 C   0  0  0  0  0  2  0  0  0  0  0  0
   41.2360   26.6570   34.9410 H   0  0  0  0  0  0  0  0  0  0  0  0
  1  7  1  1  0  0  0
  1  2  1  0  0  0  0
  2  9  1  0  0  0  0
  2  3  1  0  0  0  0
  3 11  1  0  0  0  0
  3 10  1  0  0  0  0
  4  3  1  0  0  0  0
  4 13  1  0  0  0  0
  5 15  1  0  0  0  0
  5  4  1  0  0  0  0
  6  1  1  0  0  0  0
  6 16  1  1  0  0  0
  6  5  1  0  0  0  0
  8  2  1  0  0  0  0
 12  4  1  0  0  0  0
 14  5  1  0  0  0  0
 18 23  1  0  0  0  0
 18 17  1  0  0  0  0
 19 18  2  0  0  0  0
 20 21  2  0  0  0  0
 20 19  1  0  0  0  0
 21 22  1  0  0  0  0
 22 26  1  0  0  0  0
 22 23  2  0  0  0  0
 23  1  1  0  0  0  0
 24 20  1  0  0  0  0
 25 21  1  0  0  0  0
 27 28  2  0  0  0  0
 27 32  1  0  0  0  0
 28 29  1  0  0  0  0
 29 35  1  0  0  0  0
 29 30  2  0  0  0  0
 31 30  1  0  0  0  0
 31 19  1  0  0  0  0
 32 31  2  0  0  0  0
 33 27  1  0  0  0  0
 34 28  1  0  0  0  0
 36  6  1  0  0  0  0
 37 36  2  0  0  0  0
 37 38  1  0  0  0  0
 38 39  1  0  0  0  0
M  END
>  <minimizedAffinity>
-5.1041398

$$$$

 OpenBabel03272500333D

 39 41  0  0  1  0  0  0  0  0999 V2000
   38.9450   26.2300   32.1480 C   0  0  1  0  0  0  0  0  0  0  0  0
   38.9340   26.2270   30.6940 C   0  0  0  0  0  0  0  0  0  0  0  0
   39.2140   27.6960   30.3580 C   0  0  0  0  0  0  0  0  0  0  0  0
   37.8420   28.3460   30.6000 C   0  0  0  0  0  0  0  0  0  0  0  0
   37.3440   28.1650   31.9650 C   0  0  0  0  0  0  0  0  0  0  0  0
   38.1130   27.2790   32.8530 C   0  0  1  0  0  0  0  0  0  0  0  0
   39.9830   26.4130   32.5490 H   0  0  0  0  0  0  0  0  0  0  0  0
   38.0480   26.2670   30.0800 H   0  0  0  0  0  0  0  0  0  0  0  0
   39.7820   25.6710   30.2480 H   0  0  0  0  0  0  0  0  0  0  0  0
   39.4780   27.8260   29.2970 H   0  0  0  0  0  0  0  0  0  0  0  0
   39.9610   28.1220   31.0480 H   0  0  0  0  0  0  0  0  0  0  0  0
   37.1800   27.8150   29.8540 H   0  0  0  0  0  0  0  0  0  0  0  0
   37.9450   29.3540   30.2110 H   0  0  0  0  0  0  0  0  0  0  0  0
   36.2910   27.7570   31.9200 H   0  0  0  0  0  0  0  0  0  0  0  0
   37.2060   29.1730   32.4140 H   0  0  0  0  0  0  0  0  0  0  0  0
   38.7790   27.9330   33.4410 H   0  0  0  0  0  0  0  0  0  0  0  0
   40.7310   25.1750   34.3570 Cl  0  0  0  0  0  0  0  0  0  0  0  0
   39.4310   24.2730   33.6290 C   0  0  0  0  0  0  0  0  0  0  0  0
   39.2730   23.0100   34.1340 C   0  0  0  0  0  0  0  0  0  0  0  0
   38.2220   22.2460   33.6450 C   0  0  0  0  0  0  0  0  0  0  0  0
   37.3960   22.8070   32.6810 C   0  0  0  0  0  0  0  0  0  0  0  0
   37.6250   24.0900   32.2280 C   0  0  0  0  0  0  0  0  0  0  0  0
   38.6490   24.8740   32.6800 C   0  0  0  0  0  0  0  0  0  0  0  0
   38.0510   21.2410   34.0060 H   0  0  0  0  0  0  0  0  0  0  0  0
   36.5620   22.2230   32.2820 H   0  0  0  0  0  0  0  0  0  0  0  0
   36.9370   24.4660   31.4760 H   0  0  0  0  0  0  0  0  0  0  0  0
   42.0740   21.3310   35.7790 C   0  0  0  0  0  0  0  0  0  0  0  0
   41.8220   21.4570   37.1350 C   0  0  0  0  0  0  0  0  0  0  0  0
   40.6590   22.1440   37.4740 C   0  0  0  0  0  0  0  0  0  0  0  0
   39.8470   22.6460   36.4900 N   0  0  0  0  0  0  0  0  0  0  0  0
   40.1490   22.4890   35.1950 C   0  0  0  0  0  0  0  0  0  0  0  0
   41.2720   21.8260   34.8350 N   0  0  0  0  0  0  0  0  0  0  0  0
   42.9590   20.8090   35.4140 H   0  0  0  0  0  0  0  0  0  0  0  0
   42.4930   21.0420   37.8740 H   0  0  0  0  0  0  0  0  0  0  0  0
   40.4410   22.2550   38.5100 H   0  0  0  0  0  0  0  0  0  0  0  0
   37.1900   26.6250   33.8450 C   0  0  0  0  0  3  0  0  0  0  0  0
   37.2610   26.7160   35.1610 C   0  0  0  0  0  3  0  0  0  0  0  0
   38.3500   27.5400   35.7450 C   0  0  0  0  0  2  0  0  0  0  0  0
   39.3410   27.3400   35.3180 H   0  0  0  0  0  0  0  0  0  0  0  0
  1  7  1  1  0  0  0
  1 23  1  0  0  0  0
  1  6  1  0  0  0  0
  2  1  1  0  0  0  0
  3  4  1  0  0  0  0
  3  2  1  0  0  0  0
  3 11  1  0  0  0  0
  4  5  1  0  0  0  0
  5 15  1  0  0  0  0
  5  6  1  0  0  0  0
  6 16  1  1  0  0  0
  6 36  1  0  0  0  0
  8  2  1  0  0  0  0
  9  2  1  0  0  0  0
 10  3  1  0  0  0  0
 12  4  1  0  0  0  0
 13  4  1  0  0  0  0
 14  5  1  0  0  0  0
 18 19  1  0  0  0  0
 18 17  1  0  0  0  0
 19 31  1  0  0  0  0
 20 24  1  0  0  0  0
 20 19  2  0  0  0  0
 21 20  1  0  0  0  0
 22 23  1  0  0  0  0
 22 21  2  0  0  0  0
 23 18  2  0  0  0  0
 25 21  1  0  0  0  0
 26 22  1  0  0  0  0
 27 28  1  0  0  0  0
 28 29  2  0  0  0  0
 28 34  1  0  0  0  0
 29 35  1  0  0  0  0
 30 29  1  0  0  0  0
 31 30  2  0  0  0  0
 32 31  1  0  0  0  0
 32 27  2  0  0  0  0
 33 27  1  0  0  0  0
 36 37  2  0  0  0  0
 37 38  1  0  0  0  0
 39 38  1  0  0  0  0
M  END
>  <minimizedAffinity>
-5.05234385

$$$$

 OpenBabel03272500333D

 39 41  0  0  1  0  0  0  0  0999 V2000
   38.4520   26.6300   32.1300 C   0  0  1  0  0  0  0  0  0  0  0  0
   37.9040   26.7830   30.7910 C   0  0  0  0  0  0  0  0  0  0  0  0
   37.5720   28.2790   30.7400 C   0  0  0  0  0  0  0  0  0  0  0  0
   36.2590   28.3410   31.5370 C   0  0  0  0  0  0  0  0  0  0  0  0
   36.3840   27.8380   32.9070 C   0  0  0  0  0  0  0  0  0  0  0  0
   37.6600   27.2090   33.2810 C   0  0  1  0  0  0  0  0  0  0  0  0
   39.4530   27.1400   32.2230 H   0  0  0  0  0  0  0  0  0  0  0  0
   36.8880   26.5590   30.5070 H   0  0  0  0  0  0  0  0  0  0  0  0
   38.6530   26.6360   29.9890 H   0  0  0  0  0  0  0  0  0  0  0  0
   37.3690   28.6130   29.7110 H   0  0  0  0  0  0  0  0  0  0  0  0
   38.3500   28.8720   31.2460 H   0  0  0  0  0  0  0  0  0  0  0  0
   35.5660   27.6880   30.9280 H   0  0  0  0  0  0  0  0  0  0  0  0
   35.8930   29.3510   31.3830 H   0  0  0  0  0  0  0  0  0  0  0  0
   35.5710   27.0760   33.0940 H   0  0  0  0  0  0  0  0  0  0  0  0
   36.1180   28.6660   33.6000 H   0  0  0  0  0  0  0  0  0  0  0  0
   38.2600   27.9940   33.7720 H   0  0  0  0  0  0  0  0  0  0  0  0
   36.3530   24.5280   31.5330 Cl  0  0  0  0  0  0  0  0  0  0  0  0
   37.9140   24.1880   32.2240 C   0  0  0  0  0  0  0  0  0  0  0  0
   38.1320   22.8640   32.4970 C   0  0  0  0  0  0  0  0  0  0  0  0
   39.3750   22.5030   32.9970 C   0  0  0  0  0  0  0  0  0  0  0  0
   40.3200   23.5010   33.1880 C   0  0  0  0  0  0  0  0  0  0  0  0
   40.0200   24.8130   32.8850 C   0  0  0  0  0  0  0  0  0  0  0  0
   38.8090   25.2110   32.3930 C   0  0  0  0  0  0  0  0  0  0  0  0
   39.6010   21.4710   33.2320 H   0  0  0  0  0  0  0  0  0  0  0  0
   41.3070   23.2380   33.5810 H   0  0  0  0  0  0  0  0  0  0  0  0
   40.8090   25.5400   33.0540 H   0  0  0  0  0  0  0  0  0  0  0  0
   35.3330   20.5660   33.0010 C   0  0  0  0  0  0  0  0  0  0  0  0
   35.1830   19.9120   31.7890 C   0  0  0  0  0  0  0  0  0  0  0  0
   36.0690   20.2870   30.7840 C   0  0  0  0  0  0  0  0  0  0  0  0
   37.0150   21.2490   31.0270 N   0  0  0  0  0  0  0  0  0  0  0  0
   37.1070   21.8430   32.2230 C   0  0  0  0  0  0  0  0  0  0  0  0
   36.2600   21.5000   33.2190 N   0  0  0  0  0  0  0  0  0  0  0  0
   34.6860   20.3410   33.8490 H   0  0  0  0  0  0  0  0  0  0  0  0
   34.4200   19.1580   31.6460 H   0  0  0  0  0  0  0  0  0  0  0  0
   35.9760   19.7990   29.8420 H   0  0  0  0  0  0  0  0  0  0  0  0
   37.4210   26.1530   34.3270 C   0  0  0  0  0  3  0  0  0  0  0  0
   37.8460   26.1780   35.5780 C   0  0  0  0  0  3  0  0  0  0  0  0
   38.6380   27.3530   36.0220 C   0  0  0  0  0  2  0  0  0  0  0  0
   39.4460   27.6340   35.3350 H   0  0  0  0  0  0  0  0  0  0  0  0
  1  7  1  6  0  0  0
  1 23  1  0  0  0  0
  1  6  1  0  0  0  0
  2  1  1  0  0  0  0
  3  2  1  0  0  0  0
  3 11  1  0  0  0  0
  3  4  1  0  0  0  0
  4  5  1  0  0  0  0
  5 14  1  0  0  0  0
  5  6  1  0  0  0  0
  5 15  1  0  0  0  0
  6 16  1  1  0  0  0
  6 36  1  0  0  0  0
  8  2  1  0  0  0  0
  9  2  1  0  0  0  0
 10  3  1  0  0  0  0
 12  4  1  0  0  0  0
 13  4  1  0  0  0  0
 17 18  1  0  0  0  0
 18 23  2  0  0  0  0
 18 19  1  0  0  0  0
 19 20  2  0  0  0  0
 20 21  1  0  0  0  0
 20 24  1  0  0  0  0
 21 25  1  0  0  0  0
 22 26  1  0  0  0  0
 22 21  2  0  0  0  0
 23 22  1  0  0  0  0
 27 32  1  0  0  0  0
 27 33  1  0  0  0  0
 28 27  2  0  0  0  0
 29 30  2  0  0  0  0
 29 28  1  0  0  0  0
 30 31  1  0  0  0  0
 31 19  1  0  0  0  0
 31 32  2  0  0  0  0
 34 28  1  0  0  0  0
 35 29  1  0  0  0  0
 36 37  2  0  0  0  0
 37 38  1  0  0  0  0
 39 38  1  0  0  0  0
M  END
>  <minimizedAffinity>
-4.99284124

$$$$

 OpenBabel03272500333D

 39 41  0  0  1  0  0  0  0  0999 V2000
   36.5370   20.7720   32.6130 C   0  0  1  0  0  0  0  0  0  0  0  0
   35.1930   20.2140   32.5740 C   0  0  0  0  0  0  0  0  0  0  0  0
   35.4420   18.7340   32.8870 C   0  0  0  0  0  0  0  0  0  0  0  0
   35.9530   18.2040   31.5380 C   0  0  0  0  0  0  0  0  0  0  0  0
   37.1560   18.8880   31.0610 C   0  0  0  0  0  0  0  0  0  0  0  0
   37.6130   20.0610   31.8220 C   0  0  1  0  0  0  0  0  0  0  0  0
   36.9480   20.7750   33.6630 H   0  0  0  0  0  0  0  0  0  0  0  0
   34.6670   19.9250   31.6780 H   0  0  0  0  0  0  0  0  0  0  0  0
   34.5450   20.5700   33.3980 H   0  0  0  0  0  0  0  0  0  0  0  0
   34.5050   18.2100   33.1330 H   0  0  0  0  0  0  0  0  0  0  0  0
   36.2210   18.6200   33.6580 H   0  0  0  0  0  0  0  0  0  0  0  0
   35.0780   18.3950   30.8480 H   0  0  0  0  0  0  0  0  0  0  0  0
   35.9790   17.1250   31.6600 H   0  0  0  0  0  0  0  0  0  0  0  0
   36.9880   19.2280   29.9960 H   0  0  0  0  0  0  0  0  0  0  0  0
   37.9620   18.1280   30.9580 H   0  0  0  0  0  0  0  0  0  0  0  0
   38.3890   19.6960   32.5170 H   0  0  0  0  0  0  0  0  0  0  0  0
   38.2910   22.5990   34.2740 Cl  0  0  0  0  0  0  0  0  0  0  0  0
   37.2140   23.1450   33.0200 C   0  0  0  0  0  0  0  0  0  0  0  0
   37.2080   24.5030   32.8370 C   0  0  0  0  0  0  0  0  0  0  0  0
   36.4160   25.0120   31.8160 C   0  0  0  0  0  0  0  0  0  0  0  0
   35.6850   24.1200   31.0450 C   0  0  0  0  0  0  0  0  0  0  0  0
   35.7500   22.7650   31.2960 C   0  0  0  0  0  0  0  0  0  0  0  0
   36.5140   22.2230   32.2910 C   0  0  0  0  0  0  0  0  0  0  0  0
   36.3710   26.0770   31.6280 H   0  0  0  0  0  0  0  0  0  0  0  0
   35.0550   24.5010   30.2350 H   0  0  0  0  0  0  0  0  0  0  0  0
   35.1550   22.1260   30.6500 H   0  0  0  0  0  0  0  0  0  0  0  0
   38.2720   26.6990   35.5590 C   0  0  0  0  0  0  0  0  0  0  0  0
   39.5540   27.0980   35.2180 C   0  0  0  0  0  0  0  0  0  0  0  0
   40.0510   26.5850   34.0230 C   0  0  0  0  0  0  0  0  0  0  0  0
   39.2810   25.7400   33.2660 N   0  0  0  0  0  0  0  0  0  0  0  0
   38.0470   25.3940   33.6530 C   0  0  0  0  0  0  0  0  0  0  0  0
   37.5370   25.8770   34.8090 N   0  0  0  0  0  0  0  0  0  0  0  0
   37.7960   27.0480   36.4750 H   0  0  0  0  0  0  0  0  0  0  0  0
   40.1230   27.7680   35.8480 H   0  0  0  0  0  0  0  0  0  0  0  0
   41.0340   26.8760   33.7370 H   0  0  0  0  0  0  0  0  0  0  0  0
   38.3030   21.0310   30.9010 C   0  0  0  0  0  3  0  0  0  0  0  0
   39.5910   21.3230   30.8910 C   0  0  0  0  0  3  0  0  0  0  0  0
   40.4680   20.6390   31.8770 C   0  0  0  0  0  2  0  0  0  0  0  0
   40.0790   20.6450   32.9030 H   0  0  0  0  0  0  0  0  0  0  0  0
  1  7  1  1  0  0  0
  2  1  1  0  0  0  0
  2  3  1  0  0  0  0
  2  9  1  0  0  0  0
  3 10  1  0  0  0  0
  3 11  1  0  0  0  0
  4 13  1  0  0  0  0
  4  3  1  0  0  0  0
  5  4  1  0  0  0  0
  5  6  1  0  0  0  0
  6 16  1  1  0  0  0
  6  1  1  0  0  0  0
  8  2  1  0  0  0  0
 12  4  1  0  0  0  0
 14  5  1  0  0  0  0
 15  5  1  0  0  0  0
 18 17  1  0  0  0  0
 19 18  1  0  0  0  0
 19 31  1  0  0  0  0
 20 19  2  0  0  0  0
 21 22  2  0  0  0  0
 21 20  1  0  0  0  0
 22 23  1  0  0  0  0
 23  1  1  0  0  0  0
 23 18  2  0  0  0  0
 24 20  1  0  0  0  0
 25 21  1  0  0  0  0
 26 22  1  0  0  0  0
 27 33  1  0  0  0  0
 28 27  1  0  0  0  0
 28 34  1  0  0  0  0
 29 28  2  0  0  0  0
 30 31  2  0  0  0  0
 30 29  1  0  0  0  0
 31 32  1  0  0  0  0
 32 27  2  0  0  0  0
 35 29  1  0  0  0  0
 36  6  1  0  0  0  0
 37 36  2  0  0  0  0
 37 38  1  0  0  0  0
 38 39  1  0  0  0  0
M  END
>  <minimizedAffinity>
-4.97993183

$$$$
