
 OpenBabel03272505543D

 29 30  0  0  1  0  0  0  0  0999 V2000
   35.5110   30.2180   49.8590 C   0  0  2  0  0  0  0  0  0  0  0  0
   36.2850   31.2990   49.1300 C   0  0  0  0  0  0  0  0  0  0  0  0
   37.7680   31.0860   49.1740 C   0  0  2  0  0  0  0  0  0  0  0  0
   38.3040   30.9080   50.5710 C   0  0  0  0  0  0  0  0  0  0  0  0
   37.4160   30.0760   51.4460 C   0  0  0  0  0  0  0  0  0  0  0  0
   36.3880   29.3040   50.6430 C   0  0  0  0  0  0  0  0  0  0  0  0
   34.7780   30.7180   50.5180 H   0  0  0  0  0  0  0  0  0  0  0  0
   35.9800   31.3000   48.0820 H   0  0  0  0  0  0  0  0  0  0  0  0
   36.0870   32.2920   49.5710 H   0  0  0  0  0  0  0  0  0  0  0  0
   37.9940   30.2010   48.5500 H   0  0  0  0  0  0  0  0  0  0  0  0
   39.2550   30.3150   50.4520 H   0  0  0  0  0  0  0  0  0  0  0  0
   38.6170   31.8660   51.0270 H   0  0  0  0  0  0  0  0  0  0  0  0
   37.9480   29.4040   52.1330 H   0  0  0  0  0  0  0  0  0  0  0  0
   36.8080   30.8120   52.0490 H   0  0  0  0  0  0  0  0  0  0  0  0
   36.9660   28.6150   49.9870 H   0  0  0  0  0  0  0  0  0  0  0  0
   35.8140   28.7050   51.3600 H   0  0  0  0  0  0  0  0  0  0  0  0
   34.7450   29.3960   48.8770 C   0  0  0  0  0  0  0  0  0  0  0  0
   34.4590   30.0060   47.6430 C   0  0  0  0  0  0  0  0  0  0  0  0
   33.7340   29.2490   46.7220 C   0  0  0  0  0  0  0  0  0  0  0  0
   33.3450   27.9700   47.0650 N   0  0  0  0  0  0  0  0  0  0  0  0
   33.6430   27.4250   48.2640 C   0  0  0  0  0  0  0  0  0  0  0  0
   34.3430   28.1520   49.1530 N   0  0  0  0  0  0  0  0  0  0  0  0
   34.7310   30.9880   47.3280 H   0  0  0  0  0  0  0  0  0  0  0  0
   33.4790   29.6610   45.7520 H   0  0  0  0  0  0  0  0  0  0  0  0
   33.2920   26.4170   48.4330 H   0  0  0  0  0  0  0  0  0  0  0  0
   38.3960   32.3370   48.6570 C   0  0  0  0  0  3  0  0  0  0  0  0
   39.0030   32.4490   47.4910 C   0  0  0  0  0  3  0  0  0  0  0  0
   39.0690   31.2490   46.6230 C   0  0  0  0  0  2  0  0  0  0  0  0
   38.0420   30.8360   46.5200 H   0  0  0  0  0  0  0  0  0  0  0  0
  1  7  1  1  0  0  0
  1  6  1  0  0  0  0
  2  3  1  0  0  0  0
  2  9  1  0  0  0  0
  2  1  1  0  0  0  0
  3 10  1  6  0  0  0
  3  4  1  0  0  0  0
  4 12  1  0  0  0  0
  4  5  1  0  0  0  0
  5 14  1  0  0  0  0
  5 13  1  0  0  0  0
  6 16  1  0  0  0  0
  6  5  1  0  0  0  0
  8  2  1  0  0  0  0
 11  4  1  0  0  0  0
 15  6  1  0  0  0  0
 17 22  1  0  0  0  0
 17  1  1  0  0  0  0
 18 17  2  0  0  0  0
 19 20  2  0  0  0  0
 19 18  1  0  0  0  0
 20 21  1  0  0  0  0
 21 25  1  0  0  0  0
 21 22  2  0  0  0  0
 23 18  1  0  0  0  0
 24 19  1  0  0  0  0
 26  3  1  0  0  0  0
 27 26  2  0  0  0  0
 28 27  1  0  0  0  0
 29 28  1  0  0  0  0
M  END
>  <minimizedAffinity>
-5.79872751

>  <minimizedRMSD>
0.460161686

$$$$
