
 OpenBabel03272507373D

 14 14  0  0  0  0  0  0  0  0999 V2000
   38.6480   23.3430   37.8530 C   0  0  0  0  0  0  0  0  0  0  0  0
   39.7820   22.9960   37.1250 C   0  0  0  0  0  0  0  0  0  0  0  0
   40.0090   23.6300   35.9150 C   0  0  0  0  0  0  0  0  0  0  0  0
   39.1170   24.5600   35.4920 N   0  0  0  0  0  0  0  0  0  0  0  0
   38.0110   24.8910   36.2120 C   0  0  0  0  0  0  0  0  0  0  0  0
   37.8070   24.2720   37.3730 N   0  0  0  0  0  0  0  0  0  0  0  0
   40.8270   23.4710   35.2520 H   0  0  0  0  0  0  0  0  0  0  0  0
   37.3020   25.6320   35.8720 H   0  0  0  0  0  0  0  0  0  0  0  0
   38.5380   22.6400   39.0350 O   0  0  0  0  0  0  0  0  0  0  0  0
   37.6440   22.3670   39.4600 H   0  0  0  0  0  0  0  0  0  0  0  0
   40.7520   21.9970   37.5600 C   0  0  0  0  0  3  0  0  0  0  0  0
   41.6670   21.4970   36.7500 C   0  0  0  0  0  3  0  0  0  0  0  0
   42.6750   20.4980   37.0960 C   0  0  0  0  0  2  0  0  0  0  0  0
   42.4990   19.5690   36.5120 H   0  0  0  0  0  0  0  0  0  0  0  0
  1  9  1  0  0  0  0
  2 11  1  0  0  0  0
  2  1  2  0  0  0  0
  3  2  1  0  0  0  0
  4  3  2  0  0  0  0
  4  5  1  0  0  0  0
  5  6  2  0  0  0  0
  6  1  1  0  0  0  0
  7  3  1  0  0  0  0
  8  5  1  0  0  0  0
  9 10  1  0  0  0  0
 12 13  1  0  0  0  0
 12 11  2  0  0  0  0
 14 13  1  0  0  0  0
M  END
>  <minimizedAffinity>
-4.00784063

$$$$

 OpenBabel03272507373D

 14 14  0  0  0  0  0  0  0  0999 V2000
   39.5940   22.7030   37.7320 C   0  0  0  0  0  0  0  0  0  0  0  0
   39.3660   22.9810   36.3880 C   0  0  0  0  0  0  0  0  0  0  0  0
   38.4280   23.9470   36.0650 C   0  0  0  0  0  0  0  0  0  0  0  0
   37.7730   24.5800   37.0700 N   0  0  0  0  0  0  0  0  0  0  0  0
   38.0050   24.2990   38.3810 C   0  0  0  0  0  0  0  0  0  0  0  0
   38.9090   23.3670   38.6760 N   0  0  0  0  0  0  0  0  0  0  0  0
   38.1470   24.2670   35.0880 H   0  0  0  0  0  0  0  0  0  0  0  0
   37.4810   24.8040   39.1810 H   0  0  0  0  0  0  0  0  0  0  0  0
   40.5480   21.7230   37.9190 O   0  0  0  0  0  0  0  0  0  0  0  0
   40.5370   21.0510   38.6960 H   0  0  0  0  0  0  0  0  0  0  0  0
   40.0550   22.3110   35.2910 C   0  0  0  0  0  3  0  0  0  0  0  0
   39.4990   22.1320   34.1070 C   0  0  0  0  0  3  0  0  0  0  0  0
   40.1120   21.4760   32.9550 C   0  0  0  0  0  2  0  0  0  0  0  0
   39.5460   20.5520   32.7050 H   0  0  0  0  0  0  0  0  0  0  0  0
  1  9  1  0  0  0  0
  1  6  1  0  0  0  0
  2  1  2  0  0  0  0
  3  2  1  0  0  0  0
  3  4  2  0  0  0  0
  4  5  1  0  0  0  0
  5  6  2  0  0  0  0
  5  8  1  0  0  0  0
  7  3  1  0  0  0  0
  9 10  1  0  0  0  0
 11  2  1  0  0  0  0
 12 11  2  0  0  0  0
 13 12  1  0  0  0  0
 14 13  1  0  0  0  0
M  END
>  <minimizedAffinity>
-3.50588846

$$$$

 OpenBabel03272507373D

 14 14  0  0  0  0  0  0  0  0999 V2000
   38.0660   27.1200   35.2850 C   0  0  0  0  0  0  0  0  0  0  0  0
   38.1420   25.7300   35.2930 C   0  0  0  0  0  0  0  0  0  0  0  0
   37.6590   25.0370   34.1960 C   0  0  0  0  0  0  0  0  0  0  0  0
   37.1320   25.7410   33.1630 N   0  0  0  0  0  0  0  0  0  0  0  0
   37.0630   27.1000   33.1670 C   0  0  0  0  0  0  0  0  0  0  0  0
   37.5320   27.7510   34.2290 N   0  0  0  0  0  0  0  0  0  0  0  0
   37.6490   23.9810   34.0580 H   0  0  0  0  0  0  0  0  0  0  0  0
   36.6430   27.6580   32.3420 H   0  0  0  0  0  0  0  0  0  0  0  0
   38.5790   27.6870   36.4330 O   0  0  0  0  0  0  0  0  0  0  0  0
   38.2230   28.5550   36.8530 H   0  0  0  0  0  0  0  0  0  0  0  0
   38.7010   24.9530   36.3940 C   0  0  0  0  0  3  0  0  0  0  0  0
   37.9450   24.3530   37.2950 C   0  0  0  0  0  3  0  0  0  0  0  0
   38.4140   23.5570   38.4260 C   0  0  0  0  0  2  0  0  0  0  0  0
   38.1290   24.0550   39.3780 H   0  0  0  0  0  0  0  0  0  0  0  0
  1  2  1  0  0  0  0
  1  9  1  0  0  0  0
  2 11  1  0  0  0  0
  3  2  2  0  0  0  0
  4  5  2  0  0  0  0
  4  3  1  0  0  0  0
  5  6  1  0  0  0  0
  6  1  2  0  0  0  0
  7  3  1  0  0  0  0
  8  5  1  0  0  0  0
  9 10  1  0  0  0  0
 11 12  2  0  0  0  0
 12 13  1  0  0  0  0
 13 14  1  0  0  0  0
M  END
>  <minimizedAffinity>
-3.49127531

$$$$

 OpenBabel03272507373D

 14 14  0  0  0  0  0  0  0  0999 V2000
   40.0620   22.5420   37.6080 C   0  0  0  0  0  0  0  0  0  0  0  0
   39.7920   23.3160   36.4830 C   0  0  0  0  0  0  0  0  0  0  0  0
   40.6210   23.1870   35.3810 C   0  0  0  0  0  0  0  0  0  0  0  0
   41.6580   22.3150   35.4450 N   0  0  0  0  0  0  0  0  0  0  0  0
   41.9120   21.5650   36.5510 C   0  0  0  0  0  0  0  0  0  0  0  0
   41.1060   21.6990   37.6030 N   0  0  0  0  0  0  0  0  0  0  0  0
   40.5410   23.7080   34.4560 H   0  0  0  0  0  0  0  0  0  0  0  0
   42.7390   20.8710   36.6000 H   0  0  0  0  0  0  0  0  0  0  0  0
   39.1660   22.7640   38.6340 O   0  0  0  0  0  0  0  0  0  0  0  0
   39.4090   22.7090   39.6310 H   0  0  0  0  0  0  0  0  0  0  0  0
   38.6860   24.2610   36.3940 C   0  0  0  0  0  3  0  0  0  0  0  0
   38.7170   25.3190   35.6040 C   0  0  0  0  0  3  0  0  0  0  0  0
   37.6600   26.3150   35.4500 C   0  0  0  0  0  2  0  0  0  0  0  0
   38.0220   27.3040   35.8060 H   0  0  0  0  0  0  0  0  0  0  0  0
  1  9  1  0  0  0  0
  2  1  2  0  0  0  0
  3  4  2  0  0  0  0
  3  2  1  0  0  0  0
  4  5  1  0  0  0  0
  5  8  1  0  0  0  0
  5  6  2  0  0  0  0
  6  1  1  0  0  0  0
  7  3  1  0  0  0  0
  9 10  1  0  0  0  0
 11  2  1  0  0  0  0
 12 11  2  0  0  0  0
 13 12  1  0  0  0  0
 13 14  1  0  0  0  0
M  END
>  <minimizedAffinity>
-3.48590374

$$$$

 OpenBabel03272507373D

 14 14  0  0  0  0  0  0  0  0999 V2000
   35.4470   25.8930   31.0450 C   0  0  0  0  0  0  0  0  0  0  0  0
   36.1700   24.8210   31.5610 C   0  0  0  0  0  0  0  0  0  0  0  0
   37.0710   25.0650   32.5830 C   0  0  0  0  0  0  0  0  0  0  0  0
   37.2110   26.3350   33.0370 N   0  0  0  0  0  0  0  0  0  0  0  0
   36.4990   27.3750   32.5240 C   0  0  0  0  0  0  0  0  0  0  0  0
   35.6370   27.1250   31.5420 N   0  0  0  0  0  0  0  0  0  0  0  0
   37.6900   24.3510   33.0750 H   0  0  0  0  0  0  0  0  0  0  0  0
   36.6140   28.3870   32.8870 H   0  0  0  0  0  0  0  0  0  0  0  0
   34.5870   25.5180   30.0330 O   0  0  0  0  0  0  0  0  0  0  0  0
   34.3440   26.1160   29.2340 H   0  0  0  0  0  0  0  0  0  0  0  0
   36.0370   23.4480   31.0860 C   0  0  0  0  0  3  0  0  0  0  0  0
   35.5340   22.4840   31.8340 C   0  0  0  0  0  3  0  0  0  0  0  0
   35.3630   21.0870   31.4450 C   0  0  0  0  0  2  0  0  0  0  0  0
   36.0060   20.4390   32.0790 H   0  0  0  0  0  0  0  0  0  0  0  0
  1  6  2  0  0  0  0
  1  2  1  0  0  0  0
  2  3  2  0  0  0  0
  3  4  1  0  0  0  0
  3  7  1  0  0  0  0
  5  8  1  0  0  0  0
  5  4  2  0  0  0  0
  6  5  1  0  0  0  0
  9  1  1  0  0  0  0
 10  9  1  0  0  0  0
 11  2  1  0  0  0  0
 11 12  2  0  0  0  0
 13 12  1  0  0  0  0
 13 14  1  0  0  0  0
M  END
>  <minimizedAffinity>
-3.4543817

$$$$

 OpenBabel03272507373D

 14 14  0  0  0  0  0  0  0  0999 V2000
   35.9240   20.9780   35.6880 C   0  0  0  0  0  0  0  0  0  0  0  0
   36.9930   21.8650   35.7780 C   0  0  0  0  0  0  0  0  0  0  0  0
   37.6570   22.2170   34.6140 C   0  0  0  0  0  0  0  0  0  0  0  0
   37.2380   21.6830   33.4400 N   0  0  0  0  0  0  0  0  0  0  0  0
   36.1920   20.8170   33.3650 C   0  0  0  0  0  0  0  0  0  0  0  0
   35.5640   20.4890   34.4920 N   0  0  0  0  0  0  0  0  0  0  0  0
   38.4860   22.8790   34.5250 H   0  0  0  0  0  0  0  0  0  0  0  0
   35.8600   20.3920   32.4280 H   0  0  0  0  0  0  0  0  0  0  0  0
   35.3510   20.7100   36.9140 O   0  0  0  0  0  0  0  0  0  0  0  0
   34.9280   19.8080   37.1650 H   0  0  0  0  0  0  0  0  0  0  0  0
   37.4620   22.4480   37.0290 C   0  0  0  0  0  3  0  0  0  0  0  0
   37.5530   23.7520   37.2150 C   0  0  0  0  0  3  0  0  0  0  0  0
   38.0100   24.4230   38.4290 C   0  0  0  0  0  2  0  0  0  0  0  0
   38.9470   24.9830   38.2190 H   0  0  0  0  0  0  0  0  0  0  0  0
  1  2  1  0  0  0  0
  1  9  1  0  0  0  0
  2 11  1  0  0  0  0
  3  2  2  0  0  0  0
  4  3  1  0  0  0  0
  5  4  2  0  0  0  0
  5  6  1  0  0  0  0
  6  1  2  0  0  0  0
  7  3  1  0  0  0  0
  8  5  1  0  0  0  0
  9 10  1  0  0  0  0
 11 12  2  0  0  0  0
 12 13  1  0  0  0  0
 14 13  1  0  0  0  0
M  END
>  <minimizedAffinity>
-3.44149232

$$$$

 OpenBabel03272507373D

 14 14  0  0  0  0  0  0  0  0999 V2000
   38.5340   26.7240   35.5070 C   0  0  0  0  0  0  0  0  0  0  0  0
   37.5130   26.9800   34.5970 C   0  0  0  0  0  0  0  0  0  0  0  0
   37.2540   26.0390   33.6150 C   0  0  0  0  0  0  0  0  0  0  0  0
   38.0060   24.9110   33.5810 N   0  0  0  0  0  0  0  0  0  0  0  0
   39.0020   24.6720   34.4770 C   0  0  0  0  0  0  0  0  0  0  0  0
   39.2380   25.5860   35.4150 N   0  0  0  0  0  0  0  0  0  0  0  0
   36.5100   26.0950   32.8550 H   0  0  0  0  0  0  0  0  0  0  0  0
   39.6000   23.7720   34.4470 H   0  0  0  0  0  0  0  0  0  0  0  0
   38.6900   27.7370   36.4310 O   0  0  0  0  0  0  0  0  0  0  0  0
   39.5920   28.0030   36.8440 H   0  0  0  0  0  0  0  0  0  0  0  0
   36.6940   28.1870   34.6130 C   0  0  0  0  0  3  0  0  0  0  0  0
   36.0550   28.6260   33.5440 C   0  0  0  0  0  3  0  0  0  0  0  0
   35.2160   29.8190   33.4670 C   0  0  0  0  0  2  0  0  0  0  0  0
   35.6720   30.5540   32.7690 H   0  0  0  0  0  0  0  0  0  0  0  0
  1  9  1  0  0  0  0
  2 11  1  0  0  0  0
  2  1  2  0  0  0  0
  3  2  1  0  0  0  0
  4  3  2  0  0  0  0
  4  5  1  0  0  0  0
  5  6  2  0  0  0  0
  6  1  1  0  0  0  0
  7  3  1  0  0  0  0
  8  5  1  0  0  0  0
  9 10  1  0  0  0  0
 12 11  2  0  0  0  0
 13 12  1  0  0  0  0
 14 13  1  0  0  0  0
M  END
>  <minimizedAffinity>
-3.36508203

$$$$

 OpenBabel03272507373D

 14 14  0  0  0  0  0  0  0  0999 V2000
   38.6550   26.5110   36.0230 C   0  0  0  0  0  0  0  0  0  0  0  0
   39.4690   26.1400   34.9570 C   0  0  0  0  0  0  0  0  0  0  0  0
   39.6330   24.7900   34.6920 C   0  0  0  0  0  0  0  0  0  0  0  0
   38.9950   23.8900   35.4810 N   0  0  0  0  0  0  0  0  0  0  0  0
   38.2020   24.2660   36.5210 C   0  0  0  0  0  0  0  0  0  0  0  0
   38.0540   25.5670   36.7620 N   0  0  0  0  0  0  0  0  0  0  0  0
   40.2200   24.3560   33.9170 H   0  0  0  0  0  0  0  0  0  0  0  0
   37.6950   23.5470   37.1480 H   0  0  0  0  0  0  0  0  0  0  0  0
   38.5750   27.8790   36.1800 O   0  0  0  0  0  0  0  0  0  0  0  0
   38.4680   28.3480   37.0880 H   0  0  0  0  0  0  0  0  0  0  0  0
   40.1670   27.0890   34.0980 C   0  0  0  0  0  3  0  0  0  0  0  0
   41.3680   26.8510   33.6050 C   0  0  0  0  0  3  0  0  0  0  0  0
   42.1400   27.7400   32.7390 C   0  0  0  0  0  2  0  0  0  0  0  0
   43.0650   28.0640   33.2640 H   0  0  0  0  0  0  0  0  0  0  0  0
  1  9  1  0  0  0  0
  1  6  1  0  0  0  0
  2  1  2  0  0  0  0
  3  2  1  0  0  0  0
  3  4  2  0  0  0  0
  4  5  1  0  0  0  0
  5  6  2  0  0  0  0
  5  8  1  0  0  0  0
  7  3  1  0  0  0  0
  9 10  1  0  0  0  0
 11  2  1  0  0  0  0
 12 11  2  0  0  0  0
 13 14  1  0  0  0  0
 13 12  1  0  0  0  0
M  END
>  <minimizedAffinity>
-3.32620811

$$$$

 OpenBabel03272507373D

 14 14  0  0  0  0  0  0  0  0999 V2000
   38.1640   27.5450   35.2630 C   0  0  0  0  0  0  0  0  0  0  0  0
   39.1670   27.0730   34.4220 C   0  0  0  0  0  0  0  0  0  0  0  0
   38.8910   26.9520   33.0700 C   0  0  0  0  0  0  0  0  0  0  0  0
   37.6570   27.2980   32.6250 N   0  0  0  0  0  0  0  0  0  0  0  0
   36.6840   27.7580   33.4580 C   0  0  0  0  0  0  0  0  0  0  0  0
   36.9660   27.8680   34.7550 N   0  0  0  0  0  0  0  0  0  0  0  0
   39.5520   26.6090   32.3090 H   0  0  0  0  0  0  0  0  0  0  0  0
   35.7010   28.0320   33.1010 H   0  0  0  0  0  0  0  0  0  0  0  0
   38.5660   27.6170   36.5810 O   0  0  0  0  0  0  0  0  0  0  0  0
   37.9400   27.4640   37.3810 H   0  0  0  0  0  0  0  0  0  0  0  0
   40.4990   26.6930   34.8780 C   0  0  0  0  0  3  0  0  0  0  0  0
   41.4580   26.3300   34.0460 C   0  0  0  0  0  3  0  0  0  0  0  0
   42.8160   25.9360   34.4120 C   0  0  0  0  0  2  0  0  0  0  0  0
   42.9850   24.8720   34.1370 H   0  0  0  0  0  0  0  0  0  0  0  0
  1  9  1  0  0  0  0
  2 11  1  0  0  0  0
  2  1  2  0  0  0  0
  3  2  1  0  0  0  0
  4  3  2  0  0  0  0
  4  5  1  0  0  0  0
  5  6  2  0  0  0  0
  6  1  1  0  0  0  0
  7  3  1  0  0  0  0
  8  5  1  0  0  0  0
  9 10  1  0  0  0  0
 12 13  1  0  0  0  0
 12 11  2  0  0  0  0
 14 13  1  0  0  0  0
M  END
>  <minimizedAffinity>
-3.32334757

$$$$
