
 OpenBabel03272509373D

 25 26  0  0  0  0  0  0  0  0999 V2000
   35.5320   29.2730   48.9410 C   0  0  0  0  0  0  0  0  0  0  0  0
   35.2990   29.0170   50.2980 C   0  0  0  0  0  0  0  0  0  0  0  0
   36.0760   29.5790   51.3030 C   0  0  0  0  0  0  0  0  0  0  0  0
   37.1290   30.4290   50.9770 C   0  0  0  0  0  0  0  0  0  0  0  0
   37.3460   30.6700   49.6420 C   0  0  0  0  0  0  0  0  0  0  0  0
   36.5670   30.1070   48.6610 C   0  0  0  0  0  0  0  0  0  0  0  0
   34.4790   28.3560   50.5490 H   0  0  0  0  0  0  0  0  0  0  0  0
   35.7970   29.3070   52.3060 H   0  0  0  0  0  0  0  0  0  0  0  0
   37.6720   30.8110   51.8300 H   0  0  0  0  0  0  0  0  0  0  0  0
   38.1880   31.3410   49.5510 H   0  0  0  0  0  0  0  0  0  0  0  0
   34.6680   28.6490   47.9610 C   0  0  0  0  0  0  0  0  0  0  0  0
   34.3850   27.4230   48.2210 O   0  0  0  0  0  0  0  0  0  0  0  0
   32.6830   30.9730   46.0070 C   0  0  0  0  0  0  0  0  0  0  0  0
   33.0360   30.6980   44.6920 C   0  0  0  0  0  0  0  0  0  0  0  0
   33.9640   29.6980   44.4680 C   0  0  0  0  0  0  0  0  0  0  0  0
   34.4930   29.0260   45.5280 N   0  0  0  0  0  0  0  0  0  0  0  0
   34.1400   29.3080   46.7740 C   0  0  0  0  0  0  0  0  0  0  0  0
   33.2350   30.2820   47.0020 N   0  0  0  0  0  0  0  0  0  0  0  0
   31.9620   31.7450   46.2480 H   0  0  0  0  0  0  0  0  0  0  0  0
   32.5330   31.3130   43.9580 H   0  0  0  0  0  0  0  0  0  0  0  0
   34.2200   29.5040   43.4420 H   0  0  0  0  0  0  0  0  0  0  0  0
   36.9340   30.4620   47.3100 C   0  0  0  0  0  3  0  0  0  0  0  0
   38.1420   30.6970   46.8400 C   0  0  0  0  0  3  0  0  0  0  0  0
   38.6900   31.0620   45.5290 C   0  0  0  0  0  2  0  0  0  0  0  0
   38.9420   32.1590   45.4840 H   0  0  0  0  0  0  0  0  0  0  0  0
  1  2  1  0  0  0  0
  2  7  1  0  0  0  0
  2  3  2  0  0  0  0
  3  8  1  0  0  0  0
  4  3  1  0  0  0  0
  4  9  1  0  0  0  0
  5  4  2  0  0  0  0
  6  1  2  0  0  0  0
  6  5  1  0  0  0  0
 10  5  1  0  0  0  0
 11 12  2  0  0  0  0
 11  1  1  0  0  0  0
 13 19  1  0  0  0  0
 13 18  1  0  0  0  0
 14 13  2  0  0  0  0
 15 14  1  0  0  0  0
 15 16  2  0  0  0  0
 16 17  1  0  0  0  0
 17 18  2  0  0  0  0
 17 11  1  0  0  0  0
 20 14  1  0  0  0  0
 21 15  1  0  0  0  0
 22  6  1  0  0  0  0
 23 22  2  0  0  0  0
 24 23  1  0  0  0  0
 25 24  1  0  0  0  0
M  END
>  <minimizedAffinity>
-4.96997404

>  <minimizedRMSD>
1.4136318

$$$$
