
 OpenBabel03272505543D

 29 30  0  0  1  0  0  0  0  0999 V2000
   35.3310   30.3930   49.6090 C   0  0  2  0  0  0  0  0  0  0  0  0
   36.3180   31.0430   48.6590 C   0  0  0  0  0  0  0  0  0  0  0  0
   37.7070   30.4960   48.7950 C   0  0  2  0  0  0  0  0  0  0  0  0
   38.2310   30.5420   50.2080 C   0  0  0  0  0  0  0  0  0  0  0  0
   37.1980   30.1890   51.2350 C   0  0  0  0  0  0  0  0  0  0  0  0
   35.9880   29.5140   50.6170 C   0  0  0  0  0  0  0  0  0  0  0  0
   34.7620   31.2000   50.1040 H   0  0  0  0  0  0  0  0  0  0  0  0
   35.9880   30.8610   47.6350 H   0  0  0  0  0  0  0  0  0  0  0  0
   36.3790   32.1310   48.8370 H   0  0  0  0  0  0  0  0  0  0  0  0
   37.6930   29.4570   48.4140 H   0  0  0  0  0  0  0  0  0  0  0  0
   39.0060   29.7270   50.2650 H   0  0  0  0  0  0  0  0  0  0  0  0
   38.7790   31.4780   50.4230 H   0  0  0  0  0  0  0  0  0  0  0  0
   37.5740   29.5980   52.0800 H   0  0  0  0  0  0  0  0  0  0  0  0
   36.8050   31.1740   51.6220 H   0  0  0  0  0  0  0  0  0  0  0  0
   36.3610   28.5680   50.1670 H   0  0  0  0  0  0  0  0  0  0  0  0
   35.3110   29.2670   51.4430 H   0  0  0  0  0  0  0  0  0  0  0  0
   34.3590   29.5650   48.8380 C   0  0  0  0  0  0  0  0  0  0  0  0
   34.1960   29.8970   47.4810 C   0  0  0  0  0  0  0  0  0  0  0  0
   33.2800   29.1360   46.7540 C   0  0  0  0  0  0  0  0  0  0  0  0
   32.5980   28.1200   47.3930 N   0  0  0  0  0  0  0  0  0  0  0  0
   32.7880   27.8360   48.6990 C   0  0  0  0  0  0  0  0  0  0  0  0
   33.6700   28.5680   49.4020 N   0  0  0  0  0  0  0  0  0  0  0  0
   34.6920   30.6700   46.9410 H   0  0  0  0  0  0  0  0  0  0  0  0
   33.1070   29.3400   45.7040 H   0  0  0  0  0  0  0  0  0  0  0  0
   32.2040   27.0210   49.1020 H   0  0  0  0  0  0  0  0  0  0  0  0
   38.6000   31.3930   48.0050 C   0  0  0  0  0  3  0  0  0  0  0  0
   38.7740   32.6800   48.2390 C   0  0  0  0  0  3  0  0  0  0  0  0
   38.0320   33.2870   49.3700 C   0  0  0  0  0  2  0  0  0  0  0  0
   38.2120   32.6710   50.2780 H   0  0  0  0  0  0  0  0  0  0  0  0
  1  7  1  1  0  0  0
  1  6  1  0  0  0  0
  2  3  1  0  0  0  0
  2  9  1  0  0  0  0
  2  1  1  0  0  0  0
  3 10  1  6  0  0  0
  3  4  1  0  0  0  0
  4 11  1  0  0  0  0
  4 12  1  0  0  0  0
  4  5  1  0  0  0  0
  5 14  1  0  0  0  0
  5 13  1  0  0  0  0
  6  5  1  0  0  0  0
  6 16  1  0  0  0  0
  8  2  1  0  0  0  0
 15  6  1  0  0  0  0
 17 22  1  0  0  0  0
 17  1  1  0  0  0  0
 18 17  2  0  0  0  0
 19 20  2  0  0  0  0
 19 18  1  0  0  0  0
 20 21  1  0  0  0  0
 21 25  1  0  0  0  0
 21 22  2  0  0  0  0
 23 18  1  0  0  0  0
 24 19  1  0  0  0  0
 26 27  2  0  0  0  0
 26  3  1  0  0  0  0
 27 28  1  0  0  0  0
 28 29  1  0  0  0  0
M  END
>  <minimizedAffinity>
-5.93852711

>  <minimizedRMSD>
0.727813363

$$$$
