
 OpenBabel03272504513D

 37 39  0  0  1  0  0  0  0  0999 V2000
   38.5950   24.3100   36.1130 N   0  0  0  0  0  0  0  0  0  0  0  0
   38.1020   24.2870   37.4640 C   0  0  0  0  0  0  0  0  0  0  0  0
   38.7050   23.2260   38.3160 C   0  0  0  0  0  0  0  0  0  0  0  0
   40.0960   22.8470   37.8680 C   0  0  0  0  0  0  0  0  0  0  0  0
   39.8940   22.2610   36.4730 C   0  0  0  0  0  0  0  0  0  0  0  0
   39.5380   23.3770   35.5420 C   0  0  2  0  0  0  0  0  0  0  0  0
   38.2760   25.3100   37.8800 H   0  0  0  0  0  0  0  0  0  0  0  0
   37.0080   24.1060   37.4410 H   0  0  0  0  0  0  0  0  0  0  0  0
   38.8300   23.6360   39.3590 H   0  0  0  0  0  0  0  0  0  0  0  0
   38.0980   22.3200   38.4090 H   0  0  0  0  0  0  0  0  0  0  0  0
   40.5360   22.1290   38.5710 H   0  0  0  0  0  0  0  0  0  0  0  0
   40.7210   23.7650   37.8150 H   0  0  0  0  0  0  0  0  0  0  0  0
   39.0320   21.5430   36.5920 H   0  0  0  0  0  0  0  0  0  0  0  0
   40.8150   21.7610   36.1250 H   0  0  0  0  0  0  0  0  0  0  0  0
   39.1190   22.9690   34.5870 H   0  0  0  0  0  0  0  0  0  0  0  0
   37.6950   25.0610   33.9660 C   0  0  0  0  0  0  0  0  0  0  0  0
   38.1060   25.3470   35.2760 C   0  0  0  0  0  0  0  0  0  0  0  0
   38.0070   26.6720   35.7160 C   0  0  0  0  0  0  0  0  0  0  0  0
   37.5180   27.6080   34.8470 N   0  0  0  0  0  0  0  0  0  0  0  0
   37.1380   27.2950   33.6070 C   0  0  0  0  0  0  0  0  0  0  0  0
   37.2220   26.0210   33.1530 N   0  0  0  0  0  0  0  0  0  0  0  0
   37.7410   24.0720   33.5550 H   0  0  0  0  0  0  0  0  0  0  0  0
   38.3050   26.9380   36.6970 H   0  0  0  0  0  0  0  0  0  0  0  0
   36.6150   28.3220   32.7130 C   0  0  0  0  0  0  0  0  0  0  0  0
   35.7840   29.2980   33.1720 C   0  0  0  0  0  0  0  0  0  0  0  0
   35.2680   30.2870   32.3660 C   0  0  0  0  0  0  0  0  0  0  0  0
   35.6530   30.2230   31.0450 C   0  0  0  0  0  0  0  0  0  0  0  0
   36.5010   29.2440   30.5210 C   0  0  0  0  0  0  0  0  0  0  0  0
   36.9660   28.3000   31.4010 N   0  0  0  0  0  0  0  0  0  0  0  0
   35.5400   29.2640   34.2250 H   0  0  0  0  0  0  0  0  0  0  0  0
   34.6140   31.0530   32.7390 H   0  0  0  0  0  0  0  0  0  0  0  0
   35.2960   30.9600   30.3370 H   0  0  0  0  0  0  0  0  0  0  0  0
   36.7840   29.2220   29.4800 H   0  0  0  0  0  0  0  0  0  0  0  0
   40.8110   24.1240   35.3300 C   0  0  0  0  0  3  0  0  0  0  0  0
   41.4120   24.1150   34.1460 C   0  0  0  0  0  3  0  0  0  0  0  0
   40.9730   23.4230   32.9150 C   0  0  0  0  0  2  0  0  0  0  0  0
   40.0240   22.8930   33.0780 H   0  0  0  0  0  0  0  0  0  0  0  0
  1  2  1  0  0  0  0
  2  7  1  0  0  0  0
  2  3  1  0  0  0  0
  3 10  1  0  0  0  0
  3  9  1  0  0  0  0
  4  3  1  0  0  0  0
  4 11  1  0  0  0  0
  5 13  1  0  0  0  0
  5  4  1  0  0  0  0
  6 15  1  6  0  0  0
  6  1  1  0  0  0  0
  6  5  1  0  0  0  0
  8  2  1  0  0  0  0
 12  4  1  0  0  0  0
 14  5  1  0  0  0  0
 16 17  1  0  0  0  0
 17 18  2  0  0  0  0
 17  1  1  0  0  0  0
 18 23  1  0  0  0  0
 19 18  1  0  0  0  0
 20 19  2  0  0  0  0
 21 20  1  0  0  0  0
 21 16  2  0  0  0  0
 22 16  1  0  0  0  0
 24 25  1  0  0  0  0
 24 20  1  0  0  0  0
 25 30  1  0  0  0  0
 26 31  1  0  0  0  0
 26 25  2  0  0  0  0
 27 26  1  0  0  0  0
 28 27  2  0  0  0  0
 28 29  1  0  0  0  0
 29 24  2  0  0  0  0
 32 27  1  0  0  0  0
 33 28  1  0  0  0  0
 34  6  1  0  0  0  0
 35 34  2  0  0  0  0
 36 37  1  0  0  0  0
 36 35  1  0  0  0  0
M  END
>  <minimizedAffinity>
-5.17975903

$$$$

 OpenBabel03272504513D

 37 39  0  0  1  0  0  0  0  0999 V2000
   34.9520   30.4270   34.8210 N   0  0  0  0  0  0  0  0  0  0  0  0
   35.9140   31.1040   35.6470 C   0  0  0  0  0  0  0  0  0  0  0  0
   35.3360   32.1730   36.5060 C   0  0  0  0  0  0  0  0  0  0  0  0
   33.8880   31.9180   36.8500 C   0  0  0  0  0  0  0  0  0  0  0  0
   33.1700   31.9660   35.5030 C   0  0  0  0  0  0  0  0  0  0  0  0
   33.5460   30.7440   34.7260 C   0  0  2  0  0  0  0  0  0  0  0  0
   36.4260   30.3130   36.2480 H   0  0  0  0  0  0  0  0  0  0  0  0
   36.6710   31.5840   34.9940 H   0  0  0  0  0  0  0  0  0  0  0  0
   35.8800   32.1700   37.4940 H   0  0  0  0  0  0  0  0  0  0  0  0
   35.4350   33.1850   36.1000 H   0  0  0  0  0  0  0  0  0  0  0  0
   33.5270   32.6800   37.5520 H   0  0  0  0  0  0  0  0  0  0  0  0
   33.7970   30.9050   37.3000 H   0  0  0  0  0  0  0  0  0  0  0  0
   33.5640   32.8990   35.0080 H   0  0  0  0  0  0  0  0  0  0  0  0
   32.0750   31.9960   35.6490 H   0  0  0  0  0  0  0  0  0  0  0  0
   33.2690   30.8680   33.6480 H   0  0  0  0  0  0  0  0  0  0  0  0
   36.3430   28.4290   34.5800 C   0  0  0  0  0  0  0  0  0  0  0  0
   35.4380   29.3500   34.0330 C   0  0  0  0  0  0  0  0  0  0  0  0
   35.0380   29.1610   32.7050 C   0  0  0  0  0  0  0  0  0  0  0  0
   35.5490   28.0940   32.0200 N   0  0  0  0  0  0  0  0  0  0  0  0
   36.4090   27.2390   32.5770 C   0  0  0  0  0  0  0  0  0  0  0  0
   36.8150   27.3970   33.8610 N   0  0  0  0  0  0  0  0  0  0  0  0
   36.6980   28.5050   35.5880 H   0  0  0  0  0  0  0  0  0  0  0  0
   34.3560   29.8300   32.2480 H   0  0  0  0  0  0  0  0  0  0  0  0
   36.9260   26.1090   31.8140 C   0  0  0  0  0  0  0  0  0  0  0  0
   36.1820   24.9850   31.6300 C   0  0  0  0  0  0  0  0  0  0  0  0
   36.6280   23.8960   30.9160 C   0  0  0  0  0  0  0  0  0  0  0  0
   37.8960   24.0200   30.3950 C   0  0  0  0  0  0  0  0  0  0  0  0
   38.7040   25.1500   30.5540 C   0  0  0  0  0  0  0  0  0  0  0  0
   38.1730   26.1850   31.2810 N   0  0  0  0  0  0  0  0  0  0  0  0
   35.1980   24.9820   32.0780 H   0  0  0  0  0  0  0  0  0  0  0  0
   36.0310   23.0140   30.7760 H   0  0  0  0  0  0  0  0  0  0  0  0
   38.3300   23.2130   29.8190 H   0  0  0  0  0  0  0  0  0  0  0  0
   39.6940   25.2150   30.1310 H   0  0  0  0  0  0  0  0  0  0  0  0
   32.8050   29.6270   35.3790 C   0  0  0  0  0  3  0  0  0  0  0  0
   31.8160   29.0100   34.7430 C   0  0  0  0  0  3  0  0  0  0  0  0
   31.3030   29.2860   33.3840 C   0  0  0  0  0  2  0  0  0  0  0  0
   31.8700   30.0970   32.9070 H   0  0  0  0  0  0  0  0  0  0  0  0
  1  2  1  0  0  0  0
  2  7  1  0  0  0  0
  2  3  1  0  0  0  0
  3  4  1  0  0  0  0
  3  9  1  0  0  0  0
  4 12  1  0  0  0  0
  4 11  1  0  0  0  0
  5 14  1  0  0  0  0
  5  4  1  0  0  0  0
  6 15  1  6  0  0  0
  6  1  1  0  0  0  0
  6 34  1  0  0  0  0
  6  5  1  0  0  0  0
  8  2  1  0  0  0  0
 10  3  1  0  0  0  0
 13  5  1  0  0  0  0
 16 22  1  0  0  0  0
 17 16  1  0  0  0  0
 17  1  1  0  0  0  0
 18 17  2  0  0  0  0
 19 20  2  0  0  0  0
 19 18  1  0  0  0  0
 20 21  1  0  0  0  0
 21 16  2  0  0  0  0
 23 18  1  0  0  0  0
 24 20  1  0  0  0  0
 25 24  1  0  0  0  0
 25 30  1  0  0  0  0
 26 25  2  0  0  0  0
 27 28  2  0  0  0  0
 27 26  1  0  0  0  0
 28 29  1  0  0  0  0
 29 24  2  0  0  0  0
 31 26  1  0  0  0  0
 32 27  1  0  0  0  0
 33 28  1  0  0  0  0
 35 34  2  0  0  0  0
 36 35  1  0  0  0  0
 37 36  1  0  0  0  0
M  END
>  <minimizedAffinity>
-5.16777754

$$$$

 OpenBabel03272504513D

 37 39  0  0  1  0  0  0  0  0999 V2000
   38.6520   24.2340   36.0940 N   0  0  0  0  0  0  0  0  0  0  0  0
   38.1250   24.2190   37.4320 C   0  0  0  0  0  0  0  0  0  0  0  0
   38.7550   23.2080   38.3240 C   0  0  0  0  0  0  0  0  0  0  0  0
   40.1730   22.8850   37.9200 C   0  0  0  0  0  0  0  0  0  0  0  0
   40.0350   22.2590   36.5350 C   0  0  0  0  0  0  0  0  0  0  0  0
   39.6520   23.3350   35.5680 C   0  0  2  0  0  0  0  0  0  0  0  0
   38.2400   25.2590   37.8270 H   0  0  0  0  0  0  0  0  0  0  0  0
   37.0420   23.9860   37.3870 H   0  0  0  0  0  0  0  0  0  0  0  0
   38.8340   23.6470   39.3600 H   0  0  0  0  0  0  0  0  0  0  0  0
   38.1900   22.2760   38.4240 H   0  0  0  0  0  0  0  0  0  0  0  0
   40.6280   22.2050   38.6510 H   0  0  0  0  0  0  0  0  0  0  0  0
   40.7560   23.8310   37.8600 H   0  0  0  0  0  0  0  0  0  0  0  0
   39.2050   21.5040   36.6500 H   0  0  0  0  0  0  0  0  0  0  0  0
   40.9870   21.7950   36.2220 H   0  0  0  0  0  0  0  0  0  0  0  0
   39.2770   22.8850   34.6130 H   0  0  0  0  0  0  0  0  0  0  0  0
   37.9800   26.5470   35.6670 C   0  0  0  0  0  0  0  0  0  0  0  0
   38.1360   25.2270   35.2200 C   0  0  0  0  0  0  0  0  0  0  0  0
   37.7740   24.9390   33.8990 C   0  0  0  0  0  0  0  0  0  0  0  0
   37.2910   25.9570   33.1220 N   0  0  0  0  0  0  0  0  0  0  0  0
   37.1580   27.2010   33.5860 C   0  0  0  0  0  0  0  0  0  0  0  0
   37.5000   27.5100   34.8610 N   0  0  0  0  0  0  0  0  0  0  0  0
   38.2330   26.8480   36.6630 H   0  0  0  0  0  0  0  0  0  0  0  0
   37.8730   23.9570   33.5150 H   0  0  0  0  0  0  0  0  0  0  0  0
   36.6460   28.2590   32.7230 C   0  0  0  0  0  0  0  0  0  0  0  0
   37.1040   28.4130   31.4510 C   0  0  0  0  0  0  0  0  0  0  0  0
   36.6490   29.3960   30.6020 C   0  0  0  0  0  0  0  0  0  0  0  0
   35.6870   30.2260   31.1320 C   0  0  0  0  0  0  0  0  0  0  0  0
   35.1830   30.1140   32.4310 C   0  0  0  0  0  0  0  0  0  0  0  0
   35.6970   29.1040   33.2030 N   0  0  0  0  0  0  0  0  0  0  0  0
   37.8590   27.7120   31.1250 H   0  0  0  0  0  0  0  0  0  0  0  0
   37.0170   29.5070   29.5980 H   0  0  0  0  0  0  0  0  0  0  0  0
   35.2700   31.0280   30.5360 H   0  0  0  0  0  0  0  0  0  0  0  0
   34.4280   30.7810   32.8160 H   0  0  0  0  0  0  0  0  0  0  0  0
   40.8930   24.1360   35.3710 C   0  0  0  0  0  3  0  0  0  0  0  0
   41.5050   24.1550   34.1920 C   0  0  0  0  0  3  0  0  0  0  0  0
   41.1090   23.4460   32.9560 C   0  0  0  0  0  2  0  0  0  0  0  0
   40.1830   22.8750   33.1100 H   0  0  0  0  0  0  0  0  0  0  0  0
  1  2  1  0  0  0  0
  2  7  1  0  0  0  0
  2  3  1  0  0  0  0
  3 10  1  0  0  0  0
  3  9  1  0  0  0  0
  4  3  1  0  0  0  0
  4 11  1  0  0  0  0
  5 13  1  0  0  0  0
  5  4  1  0  0  0  0
  6 15  1  6  0  0  0
  6  1  1  0  0  0  0
  6  5  1  0  0  0  0
  8  2  1  0  0  0  0
 12  4  1  0  0  0  0
 14  5  1  0  0  0  0
 16 22  1  0  0  0  0
 17 16  1  0  0  0  0
 17  1  1  0  0  0  0
 18 17  2  0  0  0  0
 19 20  2  0  0  0  0
 19 18  1  0  0  0  0
 20 21  1  0  0  0  0
 21 16  2  0  0  0  0
 23 18  1  0  0  0  0
 24 29  1  0  0  0  0
 24 20  1  0  0  0  0
 25 24  2  0  0  0  0
 26 27  2  0  0  0  0
 26 25  1  0  0  0  0
 27 28  1  0  0  0  0
 28 33  1  0  0  0  0
 28 29  2  0  0  0  0
 30 25  1  0  0  0  0
 31 26  1  0  0  0  0
 32 27  1  0  0  0  0
 34  6  1  0  0  0  0
 35 34  2  0  0  0  0
 36 37  1  0  0  0  0
 36 35  1  0  0  0  0
M  END
>  <minimizedAffinity>
-5.14331627

$$$$

 OpenBabel03272504513D

 37 39  0  0  1  0  0  0  0  0999 V2000
   36.3210   27.9360   30.7980 N   0  0  0  0  0  0  0  0  0  0  0  0
   37.0980   28.3570   29.6640 C   0  0  0  0  0  0  0  0  0  0  0  0
   37.1530   29.8330   29.4770 C   0  0  0  0  0  0  0  0  0  0  0  0
   36.9880   30.5860   30.7750 C   0  0  0  0  0  0  0  0  0  0  0  0
   35.5780   30.2300   31.2380 C   0  0  0  0  0  0  0  0  0  0  0  0
   35.5750   28.8010   31.6810 C   0  0  2  0  0  0  0  0  0  0  0  0
   38.1150   27.9120   29.7960 H   0  0  0  0  0  0  0  0  0  0  0  0
   36.6510   27.9280   28.7450 H   0  0  0  0  0  0  0  0  0  0  0  0
   38.1820   30.1060   29.1040 H   0  0  0  0  0  0  0  0  0  0  0  0
   36.4430   30.2240   28.7430 H   0  0  0  0  0  0  0  0  0  0  0  0
   37.1220   31.6610   30.6070 H   0  0  0  0  0  0  0  0  0  0  0  0
   37.7400   30.2150   31.5060 H   0  0  0  0  0  0  0  0  0  0  0  0
   34.9380   30.3710   30.3190 H   0  0  0  0  0  0  0  0  0  0  0  0
   35.2670   30.8830   32.0720 H   0  0  0  0  0  0  0  0  0  0  0  0
   34.5240   28.4220   31.7670 H   0  0  0  0  0  0  0  0  0  0  0  0
   37.4820   25.8510   31.3350 C   0  0  0  0  0  0  0  0  0  0  0  0
   36.2920   26.5410   31.0640 C   0  0  0  0  0  0  0  0  0  0  0  0
   35.0980   25.8110   31.0750 C   0  0  0  0  0  0  0  0  0  0  0  0
   35.1590   24.4720   31.3480 N   0  0  0  0  0  0  0  0  0  0  0  0
   36.3130   23.8520   31.6000 C   0  0  0  0  0  0  0  0  0  0  0  0
   37.4860   24.5320   31.5970 N   0  0  0  0  0  0  0  0  0  0  0  0
   38.4370   26.3370   31.3450 H   0  0  0  0  0  0  0  0  0  0  0  0
   34.1730   26.2880   30.8760 H   0  0  0  0  0  0  0  0  0  0  0  0
   36.3350   22.4230   31.8940 C   0  0  0  0  0  0  0  0  0  0  0  0
   35.1870   21.7400   32.1520 C   0  0  0  0  0  0  0  0  0  0  0  0
   35.1600   20.3930   32.4330 C   0  0  0  0  0  0  0  0  0  0  0  0
   36.3890   19.7730   32.4350 C   0  0  0  0  0  0  0  0  0  0  0  0
   37.5980   20.4260   32.1780 C   0  0  0  0  0  0  0  0  0  0  0  0
   37.5250   21.7680   31.9080 N   0  0  0  0  0  0  0  0  0  0  0  0
   34.2710   22.3150   32.1270 H   0  0  0  0  0  0  0  0  0  0  0  0
   34.2470   19.8640   32.6340 H   0  0  0  0  0  0  0  0  0  0  0  0
   36.4650   18.7140   32.6460 H   0  0  0  0  0  0  0  0  0  0  0  0
   38.5450   19.9100   32.1870 H   0  0  0  0  0  0  0  0  0  0  0  0
   36.2870   28.8010   32.9900 C   0  0  0  0  0  3  0  0  0  0  0  0
   35.6370   29.0810   34.1140 C   0  0  0  0  0  3  0  0  0  0  0  0
   34.2050   29.4170   34.2700 C   0  0  0  0  0  2  0  0  0  0  0  0
   33.6870   29.3940   33.3010 H   0  0  0  0  0  0  0  0  0  0  0  0
  1 17  1  0  0  0  0
  1  6  1  0  0  0  0
  2  7  1  0  0  0  0
  2  1  1  0  0  0  0
  3  2  1  0  0  0  0
  3  4  1  0  0  0  0
  4  5  1  0  0  0  0
  4 12  1  0  0  0  0
  5  6  1  0  0  0  0
  5 14  1  0  0  0  0
  6 15  1  1  0  0  0
  6 34  1  0  0  0  0
  8  2  1  0  0  0  0
  9  3  1  0  0  0  0
 10  3  1  0  0  0  0
 11  4  1  0  0  0  0
 13  5  1  0  0  0  0
 16 22  1  0  0  0  0
 16 21  1  0  0  0  0
 17 18  1  0  0  0  0
 17 16  2  0  0  0  0
 18 19  2  0  0  0  0
 19 20  1  0  0  0  0
 20 24  1  0  0  0  0
 21 20  2  0  0  0  0
 23 18  1  0  0  0  0
 24 29  2  0  0  0  0
 24 25  1  0  0  0  0
 25 26  2  0  0  0  0
 26 27  1  0  0  0  0
 26 31  1  0  0  0  0
 27 32  1  0  0  0  0
 28 33  1  0  0  0  0
 28 27  2  0  0  0  0
 29 28  1  0  0  0  0
 30 25  1  0  0  0  0
 34 35  2  0  0  0  0
 35 36  1  0  0  0  0
 37 36  1  0  0  0  0
M  END
>  <minimizedAffinity>
-5.13781595

$$$$

 OpenBabel03272504513D

 37 39  0  0  1  0  0  0  0  0999 V2000
   38.1570   25.9860   31.6150 N   0  0  0  0  0  0  0  0  0  0  0  0
   39.2740   26.4570   30.8410 C   0  0  0  0  0  0  0  0  0  0  0  0
   39.9370   25.4030   30.0250 C   0  0  0  0  0  0  0  0  0  0  0  0
   38.9930   24.2900   29.6420 C   0  0  0  0  0  0  0  0  0  0  0  0
   38.5960   23.6610   30.9750 C   0  0  0  0  0  0  0  0  0  0  0  0
   37.7020   24.6190   31.6990 C   0  0  2  0  0  0  0  0  0  0  0  0
   38.8900   27.2970   30.2120 H   0  0  0  0  0  0  0  0  0  0  0  0
   40.0400   26.8660   31.5310 H   0  0  0  0  0  0  0  0  0  0  0  0
   40.2650   25.8630   29.0490 H   0  0  0  0  0  0  0  0  0  0  0  0
   40.8340   24.9730   30.4820 H   0  0  0  0  0  0  0  0  0  0  0  0
   39.4960   23.5820   28.9720 H   0  0  0  0  0  0  0  0  0  0  0  0
   38.1020   24.7270   29.1410 H   0  0  0  0  0  0  0  0  0  0  0  0
   39.5720   23.5240   31.5230 H   0  0  0  0  0  0  0  0  0  0  0  0
   38.0670   22.7050   30.8110 H   0  0  0  0  0  0  0  0  0  0  0  0
   37.6100   24.3270   32.7770 H   0  0  0  0  0  0  0  0  0  0  0  0
   37.2660   26.8080   33.7400 C   0  0  0  0  0  0  0  0  0  0  0  0
   37.4440   26.9640   32.3580 C   0  0  0  0  0  0  0  0  0  0  0  0
   36.9030   28.1070   31.7560 C   0  0  0  0  0  0  0  0  0  0  0  0
   36.2360   29.0010   32.5470 N   0  0  0  0  0  0  0  0  0  0  0  0
   36.0890   28.8160   33.8600 C   0  0  0  0  0  0  0  0  0  0  0  0
   36.6010   27.7190   34.4700 N   0  0  0  0  0  0  0  0  0  0  0  0
   37.6490   25.9610   34.2740 H   0  0  0  0  0  0  0  0  0  0  0  0
   37.0110   28.2690   30.7150 H   0  0  0  0  0  0  0  0  0  0  0  0
   35.3760   29.7980   34.6690 C   0  0  0  0  0  0  0  0  0  0  0  0
   36.0490   30.7130   35.4180 C   0  0  0  0  0  0  0  0  0  0  0  0
   35.4190   31.6590   36.1950 C   0  0  0  0  0  0  0  0  0  0  0  0
   34.0430   31.6160   36.1640 C   0  0  0  0  0  0  0  0  0  0  0  0
   33.3030   30.6970   35.4150 C   0  0  0  0  0  0  0  0  0  0  0  0
   34.0180   29.7940   34.6720 N   0  0  0  0  0  0  0  0  0  0  0  0
   37.1290   30.6680   35.3760 H   0  0  0  0  0  0  0  0  0  0  0  0
   35.9610   32.3780   36.7820 H   0  0  0  0  0  0  0  0  0  0  0  0
   33.4630   32.3220   36.7450 H   0  0  0  0  0  0  0  0  0  0  0  0
   32.2240   30.6910   35.4130 H   0  0  0  0  0  0  0  0  0  0  0  0
   36.3990   24.5500   30.9780 C   0  0  0  0  0  3  0  0  0  0  0  0
   35.5690   23.5330   31.1770 C   0  0  0  0  0  3  0  0  0  0  0  0
   35.7600   22.3720   32.0720 C   0  0  0  0  0  2  0  0  0  0  0  0
   36.7150   22.4440   32.6120 H   0  0  0  0  0  0  0  0  0  0  0  0
  1  6  1  0  0  0  0
  1 17  1  0  0  0  0
  2  8  1  0  0  0  0
  2  1  1  0  0  0  0
  3 10  1  0  0  0  0
  3  2  1  0  0  0  0
  4  3  1  0  0  0  0
  4  5  1  0  0  0  0
  5 13  1  0  0  0  0
  5  6  1  0  0  0  0
  6 15  1  1  0  0  0
  7  2  1  0  0  0  0
  9  3  1  0  0  0  0
 11  4  1  0  0  0  0
 12  4  1  0  0  0  0
 14  5  1  0  0  0  0
 16 22  1  0  0  0  0
 16 21  1  0  0  0  0
 17 16  2  0  0  0  0
 18 17  1  0  0  0  0
 18 19  2  0  0  0  0
 19 20  1  0  0  0  0
 20 21  2  0  0  0  0
 20 24  1  0  0  0  0
 23 18  1  0  0  0  0
 24 29  2  0  0  0  0
 24 25  1  0  0  0  0
 25 26  2  0  0  0  0
 26 31  1  0  0  0  0
 27 26  1  0  0  0  0
 27 32  1  0  0  0  0
 28 27  2  0  0  0  0
 29 28  1  0  0  0  0
 30 25  1  0  0  0  0
 33 28  1  0  0  0  0
 34 35  2  0  0  0  0
 34  6  1  0  0  0  0
 35 36  1  0  0  0  0
 36 37  1  0  0  0  0
M  END
>  <minimizedAffinity>
-4.93561792

$$$$

 OpenBabel03272504513D

 37 39  0  0  1  0  0  0  0  0999 V2000
   39.4340   24.7070   34.6810 N   0  0  0  0  0  0  0  0  0  0  0  0
   40.2170   24.3060   33.5430 C   0  0  0  0  0  0  0  0  0  0  0  0
   41.1230   23.1540   33.8010 C   0  0  0  0  0  0  0  0  0  0  0  0
   40.6070   22.2470   34.8920 C   0  0  0  0  0  0  0  0  0  0  0  0
   40.6080   23.1260   36.1410 C   0  0  0  0  0  0  0  0  0  0  0  0
   39.5140   24.1370   36.0050 C   0  0  2  0  0  0  0  0  0  0  0  0
   39.4910   24.0940   32.7190 H   0  0  0  0  0  0  0  0  0  0  0  0
   40.8530   25.1590   33.2290 H   0  0  0  0  0  0  0  0  0  0  0  0
   41.1560   22.5130   32.8740 H   0  0  0  0  0  0  0  0  0  0  0  0
   42.1570   23.4320   34.0240 H   0  0  0  0  0  0  0  0  0  0  0  0
   41.2560   21.3690   34.9900 H   0  0  0  0  0  0  0  0  0  0  0  0
   39.5700   21.9340   34.6420 H   0  0  0  0  0  0  0  0  0  0  0  0
   41.6210   23.6220   36.1330 H   0  0  0  0  0  0  0  0  0  0  0  0
   40.4450   22.5140   37.0460 H   0  0  0  0  0  0  0  0  0  0  0  0
   39.6490   24.9600   36.7520 H   0  0  0  0  0  0  0  0  0  0  0  0
   38.4160   26.8180   35.3840 C   0  0  0  0  0  0  0  0  0  0  0  0
   38.5010   25.7560   34.4710 C   0  0  0  0  0  0  0  0  0  0  0  0
   37.6460   25.7810   33.3620 C   0  0  0  0  0  0  0  0  0  0  0  0
   36.7820   26.8330   33.2330 N   0  0  0  0  0  0  0  0  0  0  0  0
   36.7330   27.8240   34.1250 C   0  0  0  0  0  0  0  0  0  0  0  0
   37.5480   27.8280   35.2080 N   0  0  0  0  0  0  0  0  0  0  0  0
   39.0350   26.8720   36.2570 H   0  0  0  0  0  0  0  0  0  0  0  0
   37.6720   25.0020   32.6450 H   0  0  0  0  0  0  0  0  0  0  0  0
   35.8010   28.9320   33.9470 C   0  0  0  0  0  0  0  0  0  0  0  0
   35.7880   29.9850   34.8090 C   0  0  0  0  0  0  0  0  0  0  0  0
   34.9280   31.0520   34.6790 C   0  0  0  0  0  0  0  0  0  0  0  0
   34.0700   30.9830   33.6050 C   0  0  0  0  0  0  0  0  0  0  0  0
   34.0410   29.9260   32.6900 C   0  0  0  0  0  0  0  0  0  0  0  0
   34.9350   28.9070   32.9020 N   0  0  0  0  0  0  0  0  0  0  0  0
   36.5000   29.9490   35.6220 H   0  0  0  0  0  0  0  0  0  0  0  0
   34.9270   31.8790   35.3660 H   0  0  0  0  0  0  0  0  0  0  0  0
   33.3580   31.7780   33.4230 H   0  0  0  0  0  0  0  0  0  0  0  0
   33.3560   29.9020   31.8580 H   0  0  0  0  0  0  0  0  0  0  0  0
   38.2530   23.3720   36.2240 C   0  0  0  0  0  3  0  0  0  0  0  0
   37.5800   23.4890   37.3630 C   0  0  0  0  0  3  0  0  0  0  0  0
   37.9230   24.3270   38.5330 C   0  0  0  0  0  2  0  0  0  0  0  0
   38.8430   24.9000   38.3520 H   0  0  0  0  0  0  0  0  0  0  0  0
  1  6  1  0  0  0  0
  2  3  1  0  0  0  0
  2  1  1  0  0  0  0
  3 10  1  0  0  0  0
  3  4  1  0  0  0  0
  4 11  1  0  0  0  0
  4  5  1  0  0  0  0
  5 14  1  0  0  0  0
  6  5  1  0  0  0  0
  6 34  1  0  0  0  0
  6 15  1  1  0  0  0
  7  2  1  0  0  0  0
  8  2  1  0  0  0  0
  9  3  1  0  0  0  0
 12  4  1  0  0  0  0
 13  5  1  0  0  0  0
 16 22  1  0  0  0  0
 17  1  1  0  0  0  0
 17 16  2  0  0  0  0
 18 17  1  0  0  0  0
 19 18  2  0  0  0  0
 19 20  1  0  0  0  0
 20 21  2  0  0  0  0
 21 16  1  0  0  0  0
 23 18  1  0  0  0  0
 24 20  1  0  0  0  0
 24 25  1  0  0  0  0
 25 30  1  0  0  0  0
 26 25  2  0  0  0  0
 26 31  1  0  0  0  0
 27 26  1  0  0  0  0
 28 29  1  0  0  0  0
 28 27  2  0  0  0  0
 29 24  2  0  0  0  0
 32 27  1  0  0  0  0
 33 28  1  0  0  0  0
 34 35  2  0  0  0  0
 35 36  1  0  0  0  0
 37 36  1  0  0  0  0
M  END
>  <minimizedAffinity>
-4.90177965

$$$$

 OpenBabel03272504513D

 37 39  0  0  1  0  0  0  0  0999 V2000
   38.1760   27.8990   31.5250 N   0  0  0  0  0  0  0  0  0  0  0  0
   36.9780   28.6920   31.4630 C   0  0  0  0  0  0  0  0  0  0  0  0
   36.8110   29.4460   30.1910 C   0  0  0  0  0  0  0  0  0  0  0  0
   37.4960   28.7730   29.0260 C   0  0  0  0  0  0  0  0  0  0  0  0
   38.9770   28.8060   29.3930 C   0  0  0  0  0  0  0  0  0  0  0  0
   39.2060   27.8420   30.5150 C   0  0  2  0  0  0  0  0  0  0  0  0
   36.1260   27.9930   31.6520 H   0  0  0  0  0  0  0  0  0  0  0  0
   37.0000   29.4370   32.2840 H   0  0  0  0  0  0  0  0  0  0  0  0
   35.7150   29.4570   29.9240 H   0  0  0  0  0  0  0  0  0  0  0  0
   37.1290   30.4920   30.2380 H   0  0  0  0  0  0  0  0  0  0  0  0
   37.2760   29.3120   28.0960 H   0  0  0  0  0  0  0  0  0  0  0  0
   37.1390   27.7220   28.9550 H   0  0  0  0  0  0  0  0  0  0  0  0
   39.1600   29.8670   29.7280 H   0  0  0  0  0  0  0  0  0  0  0  0
   39.5990   28.5250   28.5240 H   0  0  0  0  0  0  0  0  0  0  0  0
   40.2010   28.0290   30.9930 H   0  0  0  0  0  0  0  0  0  0  0  0
   37.3160   26.2680   33.1330 C   0  0  0  0  0  0  0  0  0  0  0  0
   38.3500   27.1040   32.6880 C   0  0  0  0  0  0  0  0  0  0  0  0
   39.5420   27.1140   33.4240 C   0  0  0  0  0  0  0  0  0  0  0  0
   39.6280   26.3120   34.5280 N   0  0  0  0  0  0  0  0  0  0  0  0
   38.6200   25.5310   34.9180 C   0  0  0  0  0  0  0  0  0  0  0  0
   37.4550   25.5000   34.2270 N   0  0  0  0  0  0  0  0  0  0  0  0
   36.3740   26.2040   32.6260 H   0  0  0  0  0  0  0  0  0  0  0  0
   40.3520   27.7290   33.1280 H   0  0  0  0  0  0  0  0  0  0  0  0
   38.7550   24.6840   36.0990 C   0  0  0  0  0  0  0  0  0  0  0  0
   37.9670   24.8710   37.1920 C   0  0  0  0  0  0  0  0  0  0  0  0
   38.0590   24.0960   38.3260 C   0  0  0  0  0  0  0  0  0  0  0  0
   39.0150   23.1060   38.2810 C   0  0  0  0  0  0  0  0  0  0  0  0
   39.8510   22.8720   37.1850 C   0  0  0  0  0  0  0  0  0  0  0  0
   39.6860   23.6950   36.1010 N   0  0  0  0  0  0  0  0  0  0  0  0
   37.2450   25.6730   37.1320 H   0  0  0  0  0  0  0  0  0  0  0  0
   37.4310   24.2520   39.1840 H   0  0  0  0  0  0  0  0  0  0  0  0
   39.1590   22.4480   39.1280 H   0  0  0  0  0  0  0  0  0  0  0  0
   40.5910   22.0870   37.1820 H   0  0  0  0  0  0  0  0  0  0  0  0
   39.1210   26.4920   29.8870 C   0  0  0  0  0  3  0  0  0  0  0  0
   40.1880   25.7040   29.8330 C   0  0  0  0  0  3  0  0  0  0  0  0
   41.5480   25.9860   30.3410 C   0  0  0  0  0  2  0  0  0  0  0  0
   41.5920   26.9750   30.8190 H   0  0  0  0  0  0  0  0  0  0  0  0
  1 17  1  0  0  0  0
  2  1  1  0  0  0  0
  2  7  1  0  0  0  0
  2  8  1  0  0  0  0
  3 10  1  0  0  0  0
  3  2  1  0  0  0  0
  4  5  1  0  0  0  0
  4  3  1  0  0  0  0
  5 13  1  0  0  0  0
  5  6  1  0  0  0  0
  6 15  1  1  0  0  0
  6  1  1  0  0  0  0
  9  3  1  0  0  0  0
 11  4  1  0  0  0  0
 12  4  1  0  0  0  0
 14  5  1  0  0  0  0
 16 21  1  0  0  0  0
 17 16  2  0  0  0  0
 17 18  1  0  0  0  0
 18 19  2  0  0  0  0
 19 20  1  0  0  0  0
 20 24  1  0  0  0  0
 21 20  2  0  0  0  0
 22 16  1  0  0  0  0
 23 18  1  0  0  0  0
 24 29  2  0  0  0  0
 24 25  1  0  0  0  0
 25 26  2  0  0  0  0
 26 31  1  0  0  0  0
 27 26  1  0  0  0  0
 27 32  1  0  0  0  0
 28 27  2  0  0  0  0
 29 28  1  0  0  0  0
 30 25  1  0  0  0  0
 33 28  1  0  0  0  0
 34  6  1  0  0  0  0
 35 34  2  0  0  0  0
 35 36  1  0  0  0  0
 36 37  1  0  0  0  0
M  END
>  <minimizedAffinity>
-4.89030313

$$$$

 OpenBabel03272504513D

 37 39  0  0  1  0  0  0  0  0999 V2000
   36.3940   26.4430   32.1720 N   0  0  0  0  0  0  0  0  0  0  0  0
   35.7660   27.1230   31.0720 C   0  0  0  0  0  0  0  0  0  0  0  0
   35.8540   28.6070   31.1420 C   0  0  0  0  0  0  0  0  0  0  0  0
   37.0690   29.0780   31.9050 C   0  0  0  0  0  0  0  0  0  0  0  0
   36.8440   28.5590   33.3240 C   0  0  0  0  0  0  0  0  0  0  0  0
   37.0140   27.0730   33.3130 C   0  0  2  0  0  0  0  0  0  0  0  0
   36.2340   26.7180   30.1410 H   0  0  0  0  0  0  0  0  0  0  0  0
   34.6880   26.8610   31.0580 H   0  0  0  0  0  0  0  0  0  0  0  0
   35.9890   29.0060   30.0960 H   0  0  0  0  0  0  0  0  0  0  0  0
   34.9640   29.0970   31.5490 H   0  0  0  0  0  0  0  0  0  0  0  0
   37.1440   30.1710   31.8590 H   0  0  0  0  0  0  0  0  0  0  0  0
   37.9770   28.6110   31.4630 H   0  0  0  0  0  0  0  0  0  0  0  0
   35.7780   28.8440   33.5600 H   0  0  0  0  0  0  0  0  0  0  0  0
   37.5670   29.0160   34.0230 H   0  0  0  0  0  0  0  0  0  0  0  0
   36.5960   26.6270   34.2520 H   0  0  0  0  0  0  0  0  0  0  0  0
   35.5920   24.3490   31.1930 C   0  0  0  0  0  0  0  0  0  0  0  0
   36.4000   25.0240   32.1190 C   0  0  0  0  0  0  0  0  0  0  0  0
   37.2030   24.2520   32.9680 C   0  0  0  0  0  0  0  0  0  0  0  0
   37.1540   22.8910   32.8460 N   0  0  0  0  0  0  0  0  0  0  0  0
   36.3700   22.2870   31.9510 C   0  0  0  0  0  0  0  0  0  0  0  0
   35.5820   23.0070   31.1170 N   0  0  0  0  0  0  0  0  0  0  0  0
   34.9490   24.8670   30.5100 H   0  0  0  0  0  0  0  0  0  0  0  0
   37.8310   24.7160   33.6840 H   0  0  0  0  0  0  0  0  0  0  0  0
   36.3520   20.8320   31.8490 C   0  0  0  0  0  0  0  0  0  0  0  0
   35.7070   20.0690   32.7730 C   0  0  0  0  0  0  0  0  0  0  0  0
   35.6630   18.6950   32.7150 C   0  0  0  0  0  0  0  0  0  0  0  0
   36.3240   18.1340   31.6450 C   0  0  0  0  0  0  0  0  0  0  0  0
   37.0020   18.8700   30.6690 C   0  0  0  0  0  0  0  0  0  0  0  0
   36.9910   20.2340   30.8110 N   0  0  0  0  0  0  0  0  0  0  0  0
   35.2170   20.6010   33.5760 H   0  0  0  0  0  0  0  0  0  0  0  0
   35.1500   18.1030   33.4500 H   0  0  0  0  0  0  0  0  0  0  0  0
   36.3420   17.0590   31.5180 H   0  0  0  0  0  0  0  0  0  0  0  0
   37.5100   18.3990   29.8420 H   0  0  0  0  0  0  0  0  0  0  0  0
   38.4830   26.8530   33.1840 C   0  0  0  0  0  3  0  0  0  0  0  0
   39.2710   26.9120   34.2510 C   0  0  0  0  0  3  0  0  0  0  0  0
   38.8800   27.1830   35.6510 C   0  0  0  0  0  2  0  0  0  0  0  0
   37.7930   27.3240   35.7360 H   0  0  0  0  0  0  0  0  0  0  0  0
  1  6  1  0  0  0  0
  2  3  1  0  0  0  0
  2  1  1  0  0  0  0
  3 10  1  0  0  0  0
  3  4  1  0  0  0  0
  4  5  1  0  0  0  0
  5 13  1  0  0  0  0
  5 14  1  0  0  0  0
  6  5  1  0  0  0  0
  6 15  1  1  0  0  0
  7  2  1  0  0  0  0
  8  2  1  0  0  0  0
  9  3  1  0  0  0  0
 11  4  1  0  0  0  0
 12  4  1  0  0  0  0
 16 17  1  0  0  0  0
 17  1  1  0  0  0  0
 17 18  2  0  0  0  0
 18 23  1  0  0  0  0
 19 18  1  0  0  0  0
 20 19  2  0  0  0  0
 21 16  2  0  0  0  0
 21 20  1  0  0  0  0
 22 16  1  0  0  0  0
 24 20  1  0  0  0  0
 24 25  1  0  0  0  0
 25 30  1  0  0  0  0
 26 25  2  0  0  0  0
 26 31  1  0  0  0  0
 27 26  1  0  0  0  0
 28 29  1  0  0  0  0
 28 27  2  0  0  0  0
 29 24  2  0  0  0  0
 32 27  1  0  0  0  0
 33 28  1  0  0  0  0
 34  6  1  0  0  0  0
 34 35  2  0  0  0  0
 35 36  1  0  0  0  0
 36 37  1  0  0  0  0
M  END
>  <minimizedAffinity>
-4.88797474

$$$$

 OpenBabel03272504513D

 37 39  0  0  1  0  0  0  0  0999 V2000
   38.5780   24.2760   35.8450 N   0  0  0  0  0  0  0  0  0  0  0  0
   37.7870   24.3950   37.0400 C   0  0  0  0  0  0  0  0  0  0  0  0
   38.1490   23.4260   38.1100 C   0  0  0  0  0  0  0  0  0  0  0  0
   39.5950   22.9990   38.0370 C   0  0  0  0  0  0  0  0  0  0  0  0
   39.7040   22.2730   36.6990 C   0  0  0  0  0  0  0  0  0  0  0  0
   39.6030   23.2870   35.6040 C   0  0  2  0  0  0  0  0  0  0  0  0
   37.8870   25.4550   37.3800 H   0  0  0  0  0  0  0  0  0  0  0  0
   36.7230   24.2150   36.7820 H   0  0  0  0  0  0  0  0  0  0  0  0
   38.0410   23.9410   39.1080 H   0  0  0  0  0  0  0  0  0  0  0  0
   37.5140   22.5360   38.1500 H   0  0  0  0  0  0  0  0  0  0  0  0
   39.8420   22.3570   38.8920 H   0  0  0  0  0  0  0  0  0  0  0  0
   40.2400   23.9050   38.0390 H   0  0  0  0  0  0  0  0  0  0  0  0
   38.8190   21.5730   36.6870 H   0  0  0  0  0  0  0  0  0  0  0  0
   40.6670   21.7360   36.6270 H   0  0  0  0  0  0  0  0  0  0  0  0
   39.4040   22.7830   34.6240 H   0  0  0  0  0  0  0  0  0  0  0  0
   38.1420   24.7940   33.4940 C   0  0  0  0  0  0  0  0  0  0  0  0
   38.3230   25.2220   34.8180 C   0  0  0  0  0  0  0  0  0  0  0  0
   38.2330   26.5950   35.0770 C   0  0  0  0  0  0  0  0  0  0  0  0
   37.9770   27.4370   34.0300 N   0  0  0  0  0  0  0  0  0  0  0  0
   37.8130   26.9890   32.7840 C   0  0  0  0  0  0  0  0  0  0  0  0
   37.8930   25.6660   32.5020 N   0  0  0  0  0  0  0  0  0  0  0  0
   38.1960   23.7620   33.2150 H   0  0  0  0  0  0  0  0  0  0  0  0
   38.3620   26.9660   36.0600 H   0  0  0  0  0  0  0  0  0  0  0  0
   37.5330   27.9200   31.6960 C   0  0  0  0  0  0  0  0  0  0  0  0
   36.6270   28.9250   31.8450 C   0  0  0  0  0  0  0  0  0  0  0  0
   36.3340   29.8260   30.8460 C   0  0  0  0  0  0  0  0  0  0  0  0
   37.0260   29.6410   29.6710 C   0  0  0  0  0  0  0  0  0  0  0  0
   37.9660   28.6260   29.4640 C   0  0  0  0  0  0  0  0  0  0  0  0
   38.1920   27.7770   30.5170 N   0  0  0  0  0  0  0  0  0  0  0  0
   36.1350   28.9880   32.8050 H   0  0  0  0  0  0  0  0  0  0  0  0
   35.6170   30.6160   30.9750 H   0  0  0  0  0  0  0  0  0  0  0  0
   36.8600   30.3030   28.8310 H   0  0  0  0  0  0  0  0  0  0  0  0
   38.4920   28.5090   28.5300 H   0  0  0  0  0  0  0  0  0  0  0  0
   40.9100   24.0040   35.6200 C   0  0  0  0  0  3  0  0  0  0  0  0
   41.7560   23.8900   34.6030 C   0  0  0  0  0  3  0  0  0  0  0  0
   41.5820   23.0980   33.3660 C   0  0  0  0  0  2  0  0  0  0  0  0
   40.6070   22.5910   33.3580 H   0  0  0  0  0  0  0  0  0  0  0  0
  1  2  1  0  0  0  0
  2  7  1  0  0  0  0
  2  3  1  0  0  0  0
  3 10  1  0  0  0  0
  3  9  1  0  0  0  0
  4 12  1  0  0  0  0
  4  3  1  0  0  0  0
  4 11  1  0  0  0  0
  5  4  1  0  0  0  0
  6 15  1  6  0  0  0
  6 34  1  0  0  0  0
  6  1  1  0  0  0  0
  6  5  1  0  0  0  0
  8  2  1  0  0  0  0
 13  5  1  0  0  0  0
 14  5  1  0  0  0  0
 16 17  1  0  0  0  0
 17 18  2  0  0  0  0
 17  1  1  0  0  0  0
 18 23  1  0  0  0  0
 19 18  1  0  0  0  0
 20 19  2  0  0  0  0
 21 20  1  0  0  0  0
 21 16  2  0  0  0  0
 22 16  1  0  0  0  0
 24 25  1  0  0  0  0
 24 20  1  0  0  0  0
 25 30  1  0  0  0  0
 26 31  1  0  0  0  0
 26 25  2  0  0  0  0
 27 26  1  0  0  0  0
 28 27  2  0  0  0  0
 28 29  1  0  0  0  0
 29 24  2  0  0  0  0
 32 27  1  0  0  0  0
 33 28  1  0  0  0  0
 35 34  2  0  0  0  0
 36 35  1  0  0  0  0
 37 36  1  0  0  0  0
M  END
>  <minimizedAffinity>
-4.82538033

$$$$
