
 OpenBabel03272508413D

 37 39  0  0  1  0  0  0  0  0999 V2000
   33.2950   29.3790   44.8600 N   0  0  0  0  0  0  0  0  0  0  0  0
   33.9060   29.7530   46.1320 C   0  0  0  0  0  0  0  0  0  0  0  0
   35.2860   30.2230   46.0260 C   0  0  2  0  0  0  0  0  0  0  0  0
   36.1000   29.3660   45.1220 N   0  0  0  0  0  0  0  0  0  0  0  0
   35.3960   29.3100   43.8270 C   0  0  0  0  0  0  0  0  0  0  0  0
   34.1550   28.5070   44.1420 C   0  0  0  0  0  0  0  0  0  0  0  0
   33.2300   30.4350   46.6350 H   0  0  0  0  0  0  0  0  0  0  0  0
   33.9500   28.7230   46.6260 H   0  0  0  0  0  0  0  0  0  0  0  0
   35.4300   31.1950   45.5200 H   0  0  0  0  0  0  0  0  0  0  0  0
   36.1360   28.4160   45.5210 H   0  0  0  0  0  0  0  0  0  0  0  0
   35.1750   30.3130   43.4590 H   0  0  0  0  0  0  0  0  0  0  0  0
   36.0280   28.6960   43.1680 H   0  0  0  0  0  0  0  0  0  0  0  0
   34.4710   27.6260   44.7380 H   0  0  0  0  0  0  0  0  0  0  0  0
   33.7050   28.1190   43.2110 H   0  0  0  0  0  0  0  0  0  0  0  0
   37.6280   32.0380   46.2890 Cl  0  0  0  0  0  0  0  0  0  0  0  0
   36.9800   31.0640   47.6090 C   0  0  0  0  0  0  0  0  0  0  0  0
   35.9150   30.2510   47.3340 C   0  0  0  0  0  0  0  0  0  0  0  0
   35.2970   29.4230   48.2820 C   0  0  0  0  0  0  0  0  0  0  0  0
   35.8400   29.4650   49.5730 C   0  0  0  0  0  0  0  0  0  0  0  0
   36.9330   30.2940   49.8600 C   0  0  0  0  0  0  0  0  0  0  0  0
   37.4870   31.0820   48.8730 C   0  0  0  0  0  0  0  0  0  0  0  0
   34.4910   28.7330   48.3400 H   0  0  0  0  0  0  0  0  0  0  0  0
   35.5380   28.9230   50.4560 H   0  0  0  0  0  0  0  0  0  0  0  0
   37.4050   30.3780   50.8260 H   0  0  0  0  0  0  0  0  0  0  0  0
   38.6200   31.9530   49.1410 C   0  0  0  0  0  3  0  0  0  0  0  0
   38.4890   33.2410   49.3690 C   0  0  0  0  0  3  0  0  0  0  0  0
   39.6070   34.1730   49.6460 C   0  0  0  0  0  2  0  0  0  0  0  0
   39.8050   34.8910   48.8300 H   0  0  0  0  0  0  0  0  0  0  0  0
   32.0150   29.8420   44.4610 C   0  0  0  0  0  0  0  0  0  0  0  0
   31.7340   30.1970   43.1380 C   0  0  0  0  0  0  0  0  0  0  0  0
   30.4520   30.6410   42.8270 C   0  0  0  0  0  0  0  0  0  0  0  0
   29.5200   30.7090   43.8540 N   0  0  0  0  0  0  0  0  0  0  0  0
   29.8450   30.3550   45.1120 C   0  0  0  0  0  0  0  0  0  0  0  0
   31.0590   29.9300   45.4250 N   0  0  0  0  0  0  0  0  0  0  0  0
   32.5000   30.1230   42.3870 H   0  0  0  0  0  0  0  0  0  0  0  0
   30.1780   30.9260   41.8240 H   0  0  0  0  0  0  0  0  0  0  0  0
   29.1160   30.4090   45.9060 H   0  0  0  0  0  0  0  0  0  0  0  0
  1  2  1  0  0  0  0
  2  8  1  0  0  0  0
  2  7  1  0  0  0  0
  3  9  1  6  0  0  0
  3  2  1  0  0  0  0
  3 17  1  0  0  0  0
  4 10  1  0  0  0  0
  4  3  1  0  0  0  0
  5  6  1  0  0  0  0
  5  4  1  0  0  0  0
  6 13  1  0  0  0  0
  6  1  1  0  0  0  0
 11  5  1  0  0  0  0
 12  5  1  0  0  0  0
 14  6  1  0  0  0  0
 15 16  1  0  0  0  0
 16 21  1  0  0  0  0
 17 16  2  0  0  0  0
 17 18  1  0  0  0  0
 18 22  1  0  0  0  0
 18 19  2  0  0  0  0
 19 20  1  0  0  0  0
 19 23  1  0  0  0  0
 20 24  1  0  0  0  0
 21 25  1  0  0  0  0
 21 20  2  0  0  0  0
 25 26  2  0  0  0  0
 26 27  1  0  0  0  0
 28 27  1  0  0  0  0
 29  1  1  0  0  0  0
 29 34  1  0  0  0  0
 30 29  2  0  0  0  0
 31 30  1  0  0  0  0
 31 32  2  0  0  0  0
 32 33  1  0  0  0  0
 33 34  2  0  0  0  0
 33 37  1  0  0  0  0
 35 30  1  0  0  0  0
 36 31  1  0  0  0  0
M  END
>  <minimizedAffinity>
-4.80006409

>  <minimizedRMSD>
1.78356433

$$$$
