
 OpenBabel03272509533D

 38 40  0  0  0  0  0  0  0  0999 V2000
   37.3730   30.1900   51.5620 C   0  0  0  0  0  0  0  0  0  0  0  0
   38.0970   30.8790   50.5590 C   0  0  0  0  0  0  0  0  0  0  0  0
   37.7160   30.6620   49.2440 C   0  0  0  0  0  0  0  0  0  0  0  0
   36.6690   29.8000   49.0300 N   0  0  0  0  0  0  0  0  0  0  0  0
   36.0090   29.1700   49.9980 C   0  0  0  0  0  0  0  0  0  0  0  0
   36.3750   29.3750   51.2820 N   0  0  0  0  0  0  0  0  0  0  0  0
   37.7310   30.4120   52.5660 H   0  0  0  0  0  0  0  0  0  0  0  0
   38.9210   31.5560   50.7320 H   0  0  0  0  0  0  0  0  0  0  0  0
   38.9550   33.2700   49.0400 F   0  0  0  0  0  0  0  0  0  0  0  0
   38.9100   32.4800   47.9700 C   0  0  0  0  0  0  0  0  0  0  0  0
   38.3270   31.2670   48.0840 C   0  0  0  0  0  0  0  0  0  0  0  0
   38.3370   30.5330   46.9080 C   0  0  0  0  0  0  0  0  0  0  0  0
   38.8880   31.0000   45.7420 C   0  0  0  0  0  0  0  0  0  0  0  0
   39.4660   32.2330   45.6710 C   0  0  0  0  0  0  0  0  0  0  0  0
   39.4730   32.9840   46.8180 C   0  0  0  0  0  0  0  0  0  0  0  0
   37.9080   29.5270   46.8190 H   0  0  0  0  0  0  0  0  0  0  0  0
   38.8930   30.4150   44.8140 H   0  0  0  0  0  0  0  0  0  0  0  0
   39.9060   32.6230   44.7640 H   0  0  0  0  0  0  0  0  0  0  0  0
   39.9250   33.9660   46.7880 H   0  0  0  0  0  0  0  0  0  0  0  0
   35.0150   28.3720   49.5380 O   0  0  0  0  0  0  0  0  0  0  0  0
   34.5320   28.5740   48.2080 C   0  0  0  0  0  0  0  0  0  0  0  0
   35.3670   28.7580   47.5050 H   0  0  0  0  0  0  0  0  0  0  0  0
   33.9300   29.5060   48.2490 H   0  0  0  0  0  0  0  0  0  0  0  0
   33.6320   27.4540   47.8000 C   0  0  0  0  0  0  0  0  0  0  0  0
   33.7850   26.5210   48.3520 H   0  0  0  0  0  0  0  0  0  0  0  0
   33.9050   27.2040   46.7320 H   0  0  0  0  0  0  0  0  0  0  0  0
   32.2000   27.8490   47.7370 C   0  0  0  0  0  0  0  0  0  0  0  0
   31.3490   27.3760   48.7410 C   0  0  0  0  0  0  0  0  0  0  0  0
   30.0200   27.6950   48.7540 C   0  0  0  0  0  0  0  0  0  0  0  0
   29.5210   28.4600   47.8060 N   0  0  0  0  0  0  0  0  0  0  0  0
   30.3550   28.9210   46.8250 C   0  0  0  0  0  0  0  0  0  0  0  0
   31.6680   28.6360   46.7690 N   0  0  0  0  0  0  0  0  0  0  0  0
   31.7740   26.7450   49.5170 H   0  0  0  0  0  0  0  0  0  0  0  0
   29.3360   27.3380   49.5260 H   0  0  0  0  0  0  0  0  0  0  0  0
   29.7530   29.7660   45.7970 C   0  0  0  0  0  3  0  0  0  0  0  0
   30.4450   30.6070   45.0860 C   0  0  0  0  0  3  0  0  0  0  0  0
   29.8430   31.4800   44.0290 C   0  0  0  0  0  2  0  0  0  0  0  0
   28.7420   31.3740   44.1310 H   0  0  0  0  0  0  0  0  0  0  0  0
  1  7  1  0  0  0  0
  2  8  1  0  0  0  0
  2  1  2  0  0  0  0
  3  2  1  0  0  0  0
  4  3  2  0  0  0  0
  4  5  1  0  0  0  0
  5  6  2  0  0  0  0
  6  1  1  0  0  0  0
 10 11  1  0  0  0  0
 10  9  1  0  0  0  0
 11  3  1  0  0  0  0
 12 11  2  0  0  0  0
 13 12  1  0  0  0  0
 14 13  2  0  0  0  0
 14 15  1  0  0  0  0
 15 10  2  0  0  0  0
 16 12  1  0  0  0  0
 17 13  1  0  0  0  0
 18 14  1  0  0  0  0
 19 15  1  0  0  0  0
 20  5  1  0  0  0  0
 21 23  1  0  0  0  0
 21 20  1  0  0  0  0
 22 21  1  0  0  0  0
 24 21  1  0  0  0  0
 24 25  1  0  0  0  0
 26 24  1  0  0  0  0
 27 24  1  0  0  0  0
 27 28  1  0  0  0  0
 28 29  2  0  0  0  0
 28 33  1  0  0  0  0
 29 34  1  0  0  0  0
 30 29  1  0  0  0  0
 31 30  2  0  0  0  0
 32 31  1  0  0  0  0
 32 27  2  0  0  0  0
 35 31  1  0  0  0  0
 36 35  2  0  0  0  0
 37 38  1  0  0  0  0
 37 36  1  0  0  0  0
M  END
>  <minimizedAffinity>
-6.29118729

>  <minimizedRMSD>
0.179311633

$$$$
