
 OpenBabel03272509383D

 25 26  0  0  0  0  0  0  0  0999 V2000
   36.0660   29.5310   49.1440 C   0  0  0  0  0  0  0  0  0  0  0  0
   36.1220   29.5230   50.5430 C   0  0  0  0  0  0  0  0  0  0  0  0
   37.1070   30.2010   51.2490 C   0  0  0  0  0  0  0  0  0  0  0  0
   38.0850   30.9190   50.5660 C   0  0  0  0  0  0  0  0  0  0  0  0
   38.0170   30.9170   49.1940 C   0  0  0  0  0  0  0  0  0  0  0  0
   37.0350   30.2420   48.5120 C   0  0  0  0  0  0  0  0  0  0  0  0
   35.3600   28.9640   51.0720 H   0  0  0  0  0  0  0  0  0  0  0  0
   37.0440   30.1200   52.3200 H   0  0  0  0  0  0  0  0  0  0  0  0
   38.8060   31.4080   51.2060 H   0  0  0  0  0  0  0  0  0  0  0  0
   38.8350   31.5110   48.8130 H   0  0  0  0  0  0  0  0  0  0  0  0
   34.9980   28.8010   48.4910 C   0  0  0  0  0  0  0  0  0  0  0  0
   34.6780   27.7060   49.0820 O   0  0  0  0  0  0  0  0  0  0  0  0
   32.9840   30.9020   46.3260 C   0  0  0  0  0  0  0  0  0  0  0  0
   32.9870   30.2350   45.1070 C   0  0  0  0  0  0  0  0  0  0  0  0
   33.6850   29.0450   45.0240 C   0  0  0  0  0  0  0  0  0  0  0  0
   34.3360   28.5720   46.1240 N   0  0  0  0  0  0  0  0  0  0  0  0
   34.3180   29.2290   47.2760 C   0  0  0  0  0  0  0  0  0  0  0  0
   33.6390   30.3910   47.3660 N   0  0  0  0  0  0  0  0  0  0  0  0
   32.4550   31.8390   46.4540 H   0  0  0  0  0  0  0  0  0  0  0  0
   32.4260   30.7310   44.3270 H   0  0  0  0  0  0  0  0  0  0  0  0
   33.6720   28.5470   44.0720 H   0  0  0  0  0  0  0  0  0  0  0  0
   37.1120   30.3400   47.0730 C   0  0  0  0  0  3  0  0  0  0  0  0
   38.1780   30.5900   46.3400 C   0  0  0  0  0  3  0  0  0  0  0  0
   38.4370   30.7240   44.9020 C   0  0  0  0  0  2  0  0  0  0  0  0
   38.5250   31.8070   44.6050 H   0  0  0  0  0  0  0  0  0  0  0  0
  1  2  1  0  0  0  0
  2  7  1  0  0  0  0
  2  3  2  0  0  0  0
  3  8  1  0  0  0  0
  4  9  1  0  0  0  0
  4  3  1  0  0  0  0
  5  4  2  0  0  0  0
  6  1  2  0  0  0  0
  6  5  1  0  0  0  0
 10  5  1  0  0  0  0
 11 12  2  0  0  0  0
 11  1  1  0  0  0  0
 13 19  1  0  0  0  0
 13 18  1  0  0  0  0
 14 13  2  0  0  0  0
 15 14  1  0  0  0  0
 15 16  2  0  0  0  0
 16 17  1  0  0  0  0
 17 18  2  0  0  0  0
 17 11  1  0  0  0  0
 20 14  1  0  0  0  0
 21 15  1  0  0  0  0
 22  6  1  0  0  0  0
 23 22  2  0  0  0  0
 24 23  1  0  0  0  0
 25 24  1  0  0  0  0
M  END
>  <minimizedAffinity>
-5.01517153

>  <minimizedRMSD>
0.868757904

$$$$
