
 OpenBabel03272509523D

 38 40  0  0  0  0  0  0  0  0999 V2000
   37.3240   30.1700   51.5150 C   0  0  0  0  0  0  0  0  0  0  0  0
   38.0630   30.8610   50.5230 C   0  0  0  0  0  0  0  0  0  0  0  0
   37.6990   30.6480   49.2030 C   0  0  0  0  0  0  0  0  0  0  0  0
   36.6540   29.7880   48.9720 N   0  0  0  0  0  0  0  0  0  0  0  0
   35.9800   29.1550   49.9290 C   0  0  0  0  0  0  0  0  0  0  0  0
   36.3290   29.3570   51.2190 N   0  0  0  0  0  0  0  0  0  0  0  0
   37.6690   30.3880   52.5240 H   0  0  0  0  0  0  0  0  0  0  0  0
   38.8840   31.5370   50.7100 H   0  0  0  0  0  0  0  0  0  0  0  0
   38.9410   33.2570   49.0230 F   0  0  0  0  0  0  0  0  0  0  0  0
   38.9100   32.4700   47.9510 C   0  0  0  0  0  0  0  0  0  0  0  0
   38.3270   31.2570   48.0530 C   0  0  0  0  0  0  0  0  0  0  0  0
   38.3530   30.5250   46.8750 C   0  0  0  0  0  0  0  0  0  0  0  0
   38.9220   30.9960   45.7190 C   0  0  0  0  0  0  0  0  0  0  0  0
   39.5000   32.2290   45.6590 C   0  0  0  0  0  0  0  0  0  0  0  0
   39.4900   32.9770   46.8080 C   0  0  0  0  0  0  0  0  0  0  0  0
   37.9260   29.5200   46.7780 H   0  0  0  0  0  0  0  0  0  0  0  0
   38.9400   30.4120   44.7900 H   0  0  0  0  0  0  0  0  0  0  0  0
   39.9530   32.6210   44.7590 H   0  0  0  0  0  0  0  0  0  0  0  0
   39.9420   33.9600   46.7870 H   0  0  0  0  0  0  0  0  0  0  0  0
   34.9930   28.3600   49.4530 O   0  0  0  0  0  0  0  0  0  0  0  0
   34.4420   28.6450   48.1650 C   0  0  0  0  0  0  0  0  0  0  0  0
   35.2380   28.9000   47.4400 H   0  0  0  0  0  0  0  0  0  0  0  0
   33.8220   29.5560   48.3020 H   0  0  0  0  0  0  0  0  0  0  0  0
   33.5490   27.5340   47.7170 C   0  0  0  0  0  0  0  0  0  0  0  0
   33.7520   26.5670   48.1890 H   0  0  0  0  0  0  0  0  0  0  0  0
   33.7720   27.3730   46.6220 H   0  0  0  0  0  0  0  0  0  0  0  0
   32.1070   27.8920   47.7560 C   0  0  0  0  0  0  0  0  0  0  0  0
   31.3580   27.4660   48.8570 C   0  0  0  0  0  0  0  0  0  0  0  0
   30.0270   27.7550   48.9670 C   0  0  0  0  0  0  0  0  0  0  0  0
   29.4270   28.4480   48.0210 N   0  0  0  0  0  0  0  0  0  0  0  0
   30.1610   28.8650   46.9440 C   0  0  0  0  0  0  0  0  0  0  0  0
   31.4720   28.6050   46.7920 N   0  0  0  0  0  0  0  0  0  0  0  0
   31.8660   26.8950   49.6300 H   0  0  0  0  0  0  0  0  0  0  0  0
   29.4220   27.4330   49.8160 H   0  0  0  0  0  0  0  0  0  0  0  0
   29.4510   29.6290   45.9230 C   0  0  0  0  0  3  0  0  0  0  0  0
   29.1090   29.1200   44.7760 C   0  0  0  0  0  3  0  0  0  0  0  0
   28.3810   29.8920   43.7200 C   0  0  0  0  0  2  0  0  0  0  0  0
   28.3780   30.9500   44.0560 H   0  0  0  0  0  0  0  0  0  0  0  0
  1  7  1  0  0  0  0
  2  8  1  0  0  0  0
  2  1  2  0  0  0  0
  3  2  1  0  0  0  0
  4  3  2  0  0  0  0
  4  5  1  0  0  0  0
  5  6  2  0  0  0  0
  6  1  1  0  0  0  0
 10 11  1  0  0  0  0
 10  9  1  0  0  0  0
 11  3  1  0  0  0  0
 12 11  2  0  0  0  0
 13 12  1  0  0  0  0
 14 13  2  0  0  0  0
 14 15  1  0  0  0  0
 15 10  2  0  0  0  0
 16 12  1  0  0  0  0
 17 13  1  0  0  0  0
 18 14  1  0  0  0  0
 19 15  1  0  0  0  0
 20  5  1  0  0  0  0
 21 23  1  0  0  0  0
 21 20  1  0  0  0  0
 22 21  1  0  0  0  0
 24 27  1  0  0  0  0
 24 21  1  0  0  0  0
 24 25  1  0  0  0  0
 26 24  1  0  0  0  0
 27 28  1  0  0  0  0
 28 29  2  0  0  0  0
 28 33  1  0  0  0  0
 29 34  1  0  0  0  0
 30 29  1  0  0  0  0
 31 30  2  0  0  0  0
 32 31  1  0  0  0  0
 32 27  2  0  0  0  0
 35 31  1  0  0  0  0
 36 35  2  0  0  0  0
 37 38  1  0  0  0  0
 37 36  1  0  0  0  0
M  END
>  <minimizedAffinity>
-6.25140333

>  <minimizedRMSD>
0.0952996835

$$$$
