
 OpenBabel03272509533D

 38 40  0  0  0  0  0  0  0  0999 V2000
   37.1420   30.0170   51.6010 C   0  0  0  0  0  0  0  0  0  0  0  0
   37.9190   30.7370   50.6610 C   0  0  0  0  0  0  0  0  0  0  0  0
   37.5790   30.6000   49.3240 C   0  0  0  0  0  0  0  0  0  0  0  0
   36.5180   29.7800   49.0290 N   0  0  0  0  0  0  0  0  0  0  0  0
   35.8080   29.1180   49.9400 C   0  0  0  0  0  0  0  0  0  0  0  0
   36.1340   29.2460   51.2450 N   0  0  0  0  0  0  0  0  0  0  0  0
   37.4710   30.1760   52.6270 H   0  0  0  0  0  0  0  0  0  0  0  0
   38.7540   31.3810   50.8980 H   0  0  0  0  0  0  0  0  0  0  0  0
   38.7930   33.2270   49.2690 F   0  0  0  0  0  0  0  0  0  0  0  0
   38.8170   32.4710   48.1750 C   0  0  0  0  0  0  0  0  0  0  0  0
   38.2460   31.2480   48.2200 C   0  0  0  0  0  0  0  0  0  0  0  0
   38.3310   30.5500   47.0240 C   0  0  0  0  0  0  0  0  0  0  0  0
   38.9410   31.0600   45.9050 C   0  0  0  0  0  0  0  0  0  0  0  0
   39.5050   32.3010   45.9040 C   0  0  0  0  0  0  0  0  0  0  0  0
   39.4370   33.0160   47.0730 C   0  0  0  0  0  0  0  0  0  0  0  0
   37.9210   29.5430   46.8810 H   0  0  0  0  0  0  0  0  0  0  0  0
   39.0050   30.5030   44.9620 H   0  0  0  0  0  0  0  0  0  0  0  0
   39.9900   32.7240   45.0360 H   0  0  0  0  0  0  0  0  0  0  0  0
   39.8780   34.0040   47.0980 H   0  0  0  0  0  0  0  0  0  0  0  0
   34.8110   28.3740   49.4050 O   0  0  0  0  0  0  0  0  0  0  0  0
   34.2970   28.7350   48.1210 C   0  0  0  0  0  0  0  0  0  0  0  0
   35.1120   29.0450   47.4390 H   0  0  0  0  0  0  0  0  0  0  0  0
   33.6610   29.6270   48.2950 H   0  0  0  0  0  0  0  0  0  0  0  0
   33.4340   27.6440   47.5750 C   0  0  0  0  0  0  0  0  0  0  0  0
   33.7280   26.6340   47.8770 H   0  0  0  0  0  0  0  0  0  0  0  0
   33.5750   27.6620   46.4540 H   0  0  0  0  0  0  0  0  0  0  0  0
   31.9820   27.8960   47.7710 C   0  0  0  0  0  0  0  0  0  0  0  0
   31.3820   27.3830   48.9260 C   0  0  0  0  0  0  0  0  0  0  0  0
   30.0520   27.5720   49.1800 C   0  0  0  0  0  0  0  0  0  0  0  0
   29.3120   28.2470   48.3250 N   0  0  0  0  0  0  0  0  0  0  0  0
   29.9010   28.7480   47.1970 C   0  0  0  0  0  0  0  0  0  0  0  0
   31.2030   28.5890   46.9040 N   0  0  0  0  0  0  0  0  0  0  0  0
   32.0050   26.8280   49.6220 H   0  0  0  0  0  0  0  0  0  0  0  0
   29.5620   27.1820   50.0730 H   0  0  0  0  0  0  0  0  0  0  0  0
   29.0370   29.4890   46.2810 C   0  0  0  0  0  3  0  0  0  0  0  0
   27.8490   29.9000   46.6150 C   0  0  0  0  0  3  0  0  0  0  0  0
   26.9540   30.6610   45.6880 C   0  0  0  0  0  2  0  0  0  0  0  0
   27.4350   30.6190   44.6880 H   0  0  0  0  0  0  0  0  0  0  0  0
  1  7  1  0  0  0  0
  2  8  1  0  0  0  0
  2  1  2  0  0  0  0
  3  2  1  0  0  0  0
  4  3  2  0  0  0  0
  4  5  1  0  0  0  0
  5  6  2  0  0  0  0
  6  1  1  0  0  0  0
 10 11  1  0  0  0  0
 10  9  1  0  0  0  0
 11  3  1  0  0  0  0
 12 11  2  0  0  0  0
 13 12  1  0  0  0  0
 14 13  2  0  0  0  0
 14 15  1  0  0  0  0
 15 19  1  0  0  0  0
 15 10  2  0  0  0  0
 16 12  1  0  0  0  0
 17 13  1  0  0  0  0
 18 14  1  0  0  0  0
 20  5  1  0  0  0  0
 21 23  1  0  0  0  0
 21 20  1  0  0  0  0
 22 21  1  0  0  0  0
 24 27  1  0  0  0  0
 24 25  1  0  0  0  0
 24 21  1  0  0  0  0
 26 24  1  0  0  0  0
 27 28  1  0  0  0  0
 28 29  2  0  0  0  0
 28 33  1  0  0  0  0
 29 34  1  0  0  0  0
 30 29  1  0  0  0  0
 31 30  2  0  0  0  0
 32 31  1  0  0  0  0
 32 27  2  0  0  0  0
 35 36  2  0  0  0  0
 35 31  1  0  0  0  0
 37 36  1  0  0  0  0
 38 37  1  0  0  0  0
M  END
>  <minimizedAffinity>
-6.40422487

>  <minimizedRMSD>
0.696893275

$$$$
