
 OpenBabel03272500583D

 30 31  0  0  0  0  0  0  0  0999 V2000
   38.1700   31.8180   47.4040 C   0  0  0  0  0  0  0  0  0  0  0  0
   38.7590   32.5990   48.3600 C   0  0  0  0  0  0  0  0  0  0  0  0
   38.3140   32.6160   49.6870 C   0  0  0  0  0  0  0  0  0  0  0  0
   37.1900   31.7620   50.0190 C   0  0  0  0  0  0  0  0  0  0  0  0
   36.6550   31.0140   49.0250 C   0  0  0  0  0  0  0  0  0  0  0  0
   37.0870   31.0050   47.7530 C   0  0  0  0  0  0  0  0  0  0  0  0
   39.6140   33.2540   48.1280 H   0  0  0  0  0  0  0  0  0  0  0  0
   38.8300   33.2640   50.3950 H   0  0  0  0  0  0  0  0  0  0  0  0
   36.9710   31.8830   51.0500 H   0  0  0  0  0  0  0  0  0  0  0  0
   35.8690   30.4520   49.5040 H   0  0  0  0  0  0  0  0  0  0  0  0
   40.0010   31.2520   45.8930 C   0  0  0  0  0  0  0  0  0  0  0  0
   38.7580   31.8930   46.0830 C   0  0  0  0  0  0  0  0  0  0  0  0
   38.2540   32.5140   44.9670 C   0  0  0  0  0  0  0  0  0  0  0  0
   38.9320   32.4840   43.8030 N   0  0  0  0  0  0  0  0  0  0  0  0
   40.0870   31.8830   43.6460 C   0  0  0  0  0  0  0  0  0  0  0  0
   40.6200   31.2680   44.6900 N   0  0  0  0  0  0  0  0  0  0  0  0
   40.4750   30.7370   46.7190 H   0  0  0  0  0  0  0  0  0  0  0  0
   37.2900   33.0110   45.1140 H   0  0  0  0  0  0  0  0  0  0  0  0
   40.6120   31.8740   42.7010 H   0  0  0  0  0  0  0  0  0  0  0  0
   35.0520   30.1070   46.9940 C   0  0  0  0  0  0  0  0  0  0  0  0
   34.5270   30.6570   48.0430 O   0  0  0  0  0  0  0  0  0  0  0  0
   36.4820   30.2400   46.7890 N   0  0  0  0  0  0  0  0  0  0  0  0
   36.9730   29.8040   46.0070 H   0  0  0  0  0  0  0  0  0  0  0  0
   34.2430   29.4250   46.1270 O   0  0  0  0  0  0  0  0  0  0  0  0
   33.2330   29.9960   45.3620 C   0  0  0  0  0  0  0  0  0  0  0  0
   33.4850   30.5940   44.2160 O   0  0  0  0  0  0  0  0  0  0  0  0
   31.8130   29.9410   45.7850 C   0  0  0  0  0  3  0  0  0  0  0  0
   31.3030   28.9400   46.4590 C   0  0  0  0  0  3  0  0  0  0  0  0
   29.8890   28.8370   46.9050 C   0  0  0  0  0  2  0  0  0  0  0  0
   29.2570   29.6730   46.5750 H   0  0  0  0  0  0  0  0  0  0  0  0
  1  6  2  0  0  0  0
  1  2  1  0  0  0  0
  2  3  2  0  0  0  0
  3  4  1  0  0  0  0
  3  8  1  0  0  0  0
  4  9  1  0  0  0  0
  5 10  1  0  0  0  0
  5  4  2  0  0  0  0
  6  5  1  0  0  0  0
  7  2  1  0  0  0  0
 11 12  1  0  0  0  0
 11 17  1  0  0  0  0
 12  1  1  0  0  0  0
 13 18  1  0  0  0  0
 13 12  2  0  0  0  0
 14 13  1  0  0  0  0
 15 14  2  0  0  0  0
 15 16  1  0  0  0  0
 16 11  2  0  0  0  0
 19 15  1  0  0  0  0
 20 21  2  0  0  0  0
 22 20  1  0  0  0  0
 22  6  1  0  0  0  0
 23 22  1  0  0  0  0
 24 20  1  0  0  0  0
 25 27  1  0  0  0  0
 25 24  1  0  0  0  0
 26 25  2  0  0  0  0
 27 28  2  0  0  0  0
 28 29  1  0  0  0  0
 30 29  1  0  0  0  0
M  END
>  <minimizedAffinity>
-5.32951832

>  <minimizedRMSD>
0.991890967

$$$$
