
 OpenBabel03272509113D

 23 24  0  0  0  0  0  0  0  0999 V2000
   38.0660   30.6070   50.1400 C   0  0  0  0  0  3  0  0  0  0  0  0
   37.1430   30.2760   49.1170 C   0  0  0  0  0  0  0  0  0  0  0  0
   35.9810   29.6330   49.4470 C   0  0  0  0  0  0  0  0  0  0  0  0
   35.8060   29.3520   50.7520 N   0  0  0  0  0  0  0  0  0  0  0  0
   36.6910   29.6670   51.7190 C   0  0  0  0  0  0  0  0  0  0  0  0
   37.8060   30.2880   51.4140 N   0  0  0  0  0  0  0  0  0  0  0  0
   39.0070   31.1140   49.9990 H   0  0  0  0  0  0  0  0  0  0  0  0
   36.4180   29.3810   52.6970 H   0  0  0  0  0  0  0  0  0  0  0  0
   34.9500   29.2480   48.5010 C   0  0  0  0  0  0  0  0  0  0  0  0
   34.4160   30.2770   47.7300 C   0  0  0  0  0  0  0  0  0  0  0  0
   33.4570   30.0320   46.7640 C   0  0  0  0  0  0  0  0  0  0  0  0
   33.0610   28.7070   46.6160 C   0  0  0  0  0  0  0  0  0  0  0  0
   33.5630   27.6340   47.3680 C   0  0  0  0  0  0  0  0  0  0  0  0
   34.5350   27.9420   48.3320 C   0  0  0  0  0  0  0  0  0  0  0  0
   34.5910   31.3400   47.7520 H   0  0  0  0  0  0  0  0  0  0  0  0
   32.9770   30.7250   46.1130 H   0  0  0  0  0  0  0  0  0  0  0  0
   32.3030   28.3900   45.8780 H   0  0  0  0  0  0  0  0  0  0  0  0
   33.2240   26.6260   47.2180 H   0  0  0  0  0  0  0  0  0  0  0  0
   34.9730   27.1820   48.9510 H   0  0  0  0  0  0  0  0  0  0  0  0
   37.4860   30.5290   47.7720 C   0  0  0  0  0  0  0  0  0  0  0  0
   37.7740   30.8630   46.5720 C   0  0  0  0  0  3  0  0  0  0  0  0
   37.9130   31.8350   45.4770 C   0  0  0  0  0  2  0  0  0  0  0  0
   37.2140   31.5870   44.6550 H   0  0  0  0  0  0  0  0  0  0  0  0
  1  6  1  0  0  0  0
  2  3  1  0  0  0  0
  2  1  1  0  0  0  0
  3  4  2  0  0  0  0
  4  5  1  0  0  0  0
  5  8  1  0  0  0  0
  6  5  2  0  0  0  0
  7  1  1  0  0  0  0
  9  3  1  0  0  0  0
 10 15  1  0  0  0  0
 10  9  2  0  0  0  0
 11 10  1  0  0  0  0
 12 11  2  0  0  0  0
 12 13  1  0  0  0  0
 13 14  2  0  0  0  0
 14  9  1  0  0  0  0
 14 19  1  0  0  0  0
 16 11  1  0  0  0  0
 17 12  1  0  0  0  0
 18 13  1  0  0  0  0
 20  2  2  0  0  0  0
 21 20  2  0  0  0  0
 22 21  1  0  0  0  0
 23 22  1  0  0  0  0
M  END
>  <minimizedAffinity>
-5.00363731

>  <minimizedRMSD>
4.76937294

$$$$
