
 OpenBabel03272509383D

 25 26  0  0  0  0  0  0  0  0999 V2000
   36.0440   29.5170   49.1160 C   0  0  0  0  0  0  0  0  0  0  0  0
   36.1600   29.4430   50.5090 C   0  0  0  0  0  0  0  0  0  0  0  0
   37.1610   30.1070   51.2050 C   0  0  0  0  0  0  0  0  0  0  0  0
   38.0940   30.8800   50.5190 C   0  0  0  0  0  0  0  0  0  0  0  0
   37.9670   30.9430   49.1520 C   0  0  0  0  0  0  0  0  0  0  0  0
   36.9700   30.2800   48.4800 C   0  0  0  0  0  0  0  0  0  0  0  0
   35.4330   28.8420   51.0400 H   0  0  0  0  0  0  0  0  0  0  0  0
   37.1450   29.9730   52.2730 H   0  0  0  0  0  0  0  0  0  0  0  0
   38.8320   31.3530   51.1520 H   0  0  0  0  0  0  0  0  0  0  0  0
   38.7560   31.5730   48.7680 H   0  0  0  0  0  0  0  0  0  0  0  0
   34.9650   28.7970   48.4720 C   0  0  0  0  0  0  0  0  0  0  0  0
   34.6290   27.7130   49.0750 O   0  0  0  0  0  0  0  0  0  0  0  0
   32.9430   30.8850   46.3010 C   0  0  0  0  0  0  0  0  0  0  0  0
   32.9600   30.2220   45.0800 C   0  0  0  0  0  0  0  0  0  0  0  0
   33.6710   29.0390   44.9980 C   0  0  0  0  0  0  0  0  0  0  0  0
   34.3190   28.5690   46.1010 N   0  0  0  0  0  0  0  0  0  0  0  0
   34.2870   29.2220   47.2540 C   0  0  0  0  0  0  0  0  0  0  0  0
   33.5960   30.3770   47.3430 N   0  0  0  0  0  0  0  0  0  0  0  0
   32.4040   31.8160   46.4290 H   0  0  0  0  0  0  0  0  0  0  0  0
   32.4000   30.7150   44.2980 H   0  0  0  0  0  0  0  0  0  0  0  0
   33.6690   28.5450   44.0440 H   0  0  0  0  0  0  0  0  0  0  0  0
   36.9840   30.4490   47.0450 C   0  0  0  0  0  3  0  0  0  0  0  0
   37.6040   31.3830   46.3520 C   0  0  0  0  0  3  0  0  0  0  0  0
   37.7250   31.7040   44.9250 C   0  0  0  0  0  2  0  0  0  0  0  0
   37.0570   32.5650   44.6440 H   0  0  0  0  0  0  0  0  0  0  0  0
  1  2  1  0  0  0  0
  2  7  1  0  0  0  0
  2  3  2  0  0  0  0
  3  8  1  0  0  0  0
  4  9  1  0  0  0  0
  4  3  1  0  0  0  0
  5  4  2  0  0  0  0
  6  1  2  0  0  0  0
  6  5  1  0  0  0  0
 10  5  1  0  0  0  0
 11 12  2  0  0  0  0
 11  1  1  0  0  0  0
 13 19  1  0  0  0  0
 13 18  1  0  0  0  0
 14 13  2  0  0  0  0
 15 14  1  0  0  0  0
 15 16  2  0  0  0  0
 16 17  1  0  0  0  0
 17 18  2  0  0  0  0
 17 11  1  0  0  0  0
 20 14  1  0  0  0  0
 21 15  1  0  0  0  0
 22  6  1  0  0  0  0
 23 22  2  0  0  0  0
 24 23  1  0  0  0  0
 25 24  1  0  0  0  0
M  END
>  <minimizedAffinity>
-5.13649511

>  <minimizedRMSD>
0.469690144

$$$$
