
 OpenBabel03272506343D

 14 14  0  0  0  0  0  0  0  0999 V2000
   37.4270   29.9170   50.9490 C   0  0  0  0  0  0  0  0  0  0  0  0
   38.1430   30.8990   50.2430 C   0  0  0  0  0  0  0  0  0  0  0  0
   37.7760   31.1730   48.9330 C   0  0  0  0  0  0  0  0  0  0  0  0
   36.7420   30.4830   48.3910 N   0  0  0  0  0  0  0  0  0  0  0  0
   36.0610   29.5370   49.0910 C   0  0  0  0  0  0  0  0  0  0  0  0
   36.4080   29.2670   50.3520 N   0  0  0  0  0  0  0  0  0  0  0  0
   38.9750   31.4670   50.6470 H   0  0  0  0  0  0  0  0  0  0  0  0
   38.2800   31.9080   48.3370 H   0  0  0  0  0  0  0  0  0  0  0  0
   37.8960   29.7480   52.2340 O   0  0  0  0  0  0  0  0  0  0  0  0
   38.2790   28.8400   52.4650 H   0  0  0  0  0  0  0  0  0  0  0  0
   34.9510   28.8040   48.4930 C   0  0  0  0  0  3  0  0  0  0  0  0
   33.8970   28.4030   49.1880 C   0  0  0  0  0  3  0  0  0  0  0  0
   32.7790   27.6490   48.5180 C   0  0  0  0  0  2  0  0  0  0  0  0
   31.8270   27.9020   48.9960 H   0  0  0  0  0  0  0  0  0  0  0  0
  1  9  1  0  0  0  0
  2  7  1  0  0  0  0
  2  1  2  0  0  0  0
  3  2  1  0  0  0  0
  4  3  2  0  0  0  0
  4  5  1  0  0  0  0
  5  6  2  0  0  0  0
  6  1  1  0  0  0  0
  8  3  1  0  0  0  0
  9 10  1  0  0  0  0
 11  5  1  0  0  0  0
 11 12  2  0  0  0  0
 13 14  1  0  0  0  0
 13 12  1  0  0  0  0
M  END
>  <minimizedAffinity>
-4.2366209

>  <minimizedRMSD>
1.28670013

$$$$
