
 OpenBabel03272500593D

 30 31  0  0  0  0  0  0  0  0999 V2000
   39.8120   25.6460   34.3740 C   0  0  0  0  0  0  0  0  0  0  0  0
   40.7350   26.5940   34.7250 C   0  0  0  0  0  0  0  0  0  0  0  0
   41.3660   27.4070   33.7770 C   0  0  0  0  0  0  0  0  0  0  0  0
   41.0020   27.2070   32.3870 C   0  0  0  0  0  0  0  0  0  0  0  0
   40.0820   26.2530   32.1100 C   0  0  0  0  0  0  0  0  0  0  0  0
   39.4820   25.4760   33.0270 C   0  0  0  0  0  0  0  0  0  0  0  0
   41.0250   26.7610   35.7750 H   0  0  0  0  0  0  0  0  0  0  0  0
   42.0910   28.1400   34.1270 H   0  0  0  0  0  0  0  0  0  0  0  0
   41.5580   27.8890   31.7940 H   0  0  0  0  0  0  0  0  0  0  0  0
   39.9530   26.3050   31.0400 H   0  0  0  0  0  0  0  0  0  0  0  0
   39.9190   23.7440   35.8990 C   0  0  0  0  0  0  0  0  0  0  0  0
   39.2320   24.9000   35.4710 C   0  0  0  0  0  0  0  0  0  0  0  0
   38.0810   25.1770   36.1660 C   0  0  0  0  0  0  0  0  0  0  0  0
   37.6810   24.3760   37.1730 N   0  0  0  0  0  0  0  0  0  0  0  0
   38.3330   23.3050   37.5570 C   0  0  0  0  0  0  0  0  0  0  0  0
   39.4500   22.9900   36.9210 N   0  0  0  0  0  0  0  0  0  0  0  0
   40.8370   23.4470   35.4080 H   0  0  0  0  0  0  0  0  0  0  0  0
   37.5480   26.0740   35.8340 H   0  0  0  0  0  0  0  0  0  0  0  0
   37.9900   22.6780   38.3690 H   0  0  0  0  0  0  0  0  0  0  0  0
   37.2410   25.0390   32.4680 C   0  0  0  0  0  0  0  0  0  0  0  0
   37.0420   26.3020   32.6760 O   0  0  0  0  0  0  0  0  0  0  0  0
   38.5750   24.5090   32.6740 N   0  0  0  0  0  0  0  0  0  0  0  0
   38.8020   23.5190   32.5660 H   0  0  0  0  0  0  0  0  0  0  0  0
   36.1910   24.2590   32.0670 O   0  0  0  0  0  0  0  0  0  0  0  0
   36.3050   22.9720   31.5540 C   0  0  0  0  0  0  0  0  0  0  0  0
   37.2720   22.6390   30.7250 O   0  0  0  0  0  0  0  0  0  0  0  0
   35.3550   21.8990   31.9320 C   0  0  0  0  0  3  0  0  0  0  0  0
   35.5820   20.6280   31.7110 C   0  0  0  0  0  3  0  0  0  0  0  0
   34.6630   19.5150   32.0700 C   0  0  0  0  0  2  0  0  0  0  0  0
   33.7140   19.8500   32.5120 H   0  0  0  0  0  0  0  0  0  0  0  0
  1  2  1  0  0  0  0
  1 12  1  0  0  0  0
  2  7  1  0  0  0  0
  3  8  1  0  0  0  0
  3  2  2  0  0  0  0
  4  3  1  0  0  0  0
  5  4  2  0  0  0  0
  5  6  1  0  0  0  0
  6  1  2  0  0  0  0
  9  4  1  0  0  0  0
 10  5  1  0  0  0  0
 11 16  1  0  0  0  0
 12 11  2  0  0  0  0
 12 13  1  0  0  0  0
 13 14  2  0  0  0  0
 14 15  1  0  0  0  0
 15 19  1  0  0  0  0
 16 15  2  0  0  0  0
 17 11  1  0  0  0  0
 18 13  1  0  0  0  0
 20 22  1  0  0  0  0
 20 21  2  0  0  0  0
 22  6  1  0  0  0  0
 23 22  1  0  0  0  0
 24 20  1  0  0  0  0
 25 27  1  0  0  0  0
 25 24  1  0  0  0  0
 26 25  2  0  0  0  0
 28 27  2  0  0  0  0
 28 29  1  0  0  0  0
 29 30  1  0  0  0  0
M  END
>  <minimizedAffinity>
-4.88543034

$$$$

 OpenBabel03272500593D

 30 31  0  0  0  0  0  0  0  0999 V2000
   39.5090   26.2260   32.7730 C   0  0  0  0  0  0  0  0  0  0  0  0
   40.2030   27.1220   32.0060 C   0  0  0  0  0  0  0  0  0  0  0  0
   41.4270   27.6640   32.4160 C   0  0  0  0  0  0  0  0  0  0  0  0
   41.9420   27.2350   33.7020 C   0  0  0  0  0  0  0  0  0  0  0  0
   41.2060   26.3460   34.4090 C   0  0  0  0  0  0  0  0  0  0  0  0
   40.0310   25.8320   34.0080 C   0  0  0  0  0  0  0  0  0  0  0  0
   39.8280   27.4600   31.0260 H   0  0  0  0  0  0  0  0  0  0  0  0
   41.9230   28.3730   31.7540 H   0  0  0  0  0  0  0  0  0  0  0  0
   42.8670   27.7270   33.8720 H   0  0  0  0  0  0  0  0  0  0  0  0
   41.7890   26.1580   35.2960 H   0  0  0  0  0  0  0  0  0  0  0  0
   38.3560   24.6410   31.3190 C   0  0  0  0  0  0  0  0  0  0  0  0
   38.2710   25.7390   32.2030 C   0  0  0  0  0  0  0  0  0  0  0  0
   36.9990   26.2100   32.4150 C   0  0  0  0  0  0  0  0  0  0  0  0
   35.9460   25.6340   31.8040 N   0  0  0  0  0  0  0  0  0  0  0  0
   36.0440   24.6140   30.9860 C   0  0  0  0  0  0  0  0  0  0  0  0
   37.2480   24.1190   30.7440 N   0  0  0  0  0  0  0  0  0  0  0  0
   39.3200   24.2040   31.0910 H   0  0  0  0  0  0  0  0  0  0  0  0
   36.9330   27.0610   33.1000 H   0  0  0  0  0  0  0  0  0  0  0  0
   35.1820   24.1690   30.5070 H   0  0  0  0  0  0  0  0  0  0  0  0
   38.6130   25.6070   35.8700 C   0  0  0  0  0  0  0  0  0  0  0  0
   38.7520   26.8870   36.0110 O   0  0  0  0  0  0  0  0  0  0  0  0
   39.3230   24.9520   34.7880 N   0  0  0  0  0  0  0  0  0  0  0  0
   39.2930   23.9440   34.6350 H   0  0  0  0  0  0  0  0  0  0  0  0
   37.8080   24.9270   36.7420 O   0  0  0  0  0  0  0  0  0  0  0  0
   37.9780   23.5980   37.1110 C   0  0  0  0  0  0  0  0  0  0  0  0
   37.0120   22.7120   36.9780 O   0  0  0  0  0  0  0  0  0  0  0  0
   39.2650   23.1000   37.6540 C   0  0  0  0  0  3  0  0  0  0  0  0
   40.0390   22.2630   37.0100 C   0  0  0  0  0  3  0  0  0  0  0  0
   41.3370   21.7350   37.5090 C   0  0  0  0  0  2  0  0  0  0  0  0
   41.5920   22.0730   38.5230 H   0  0  0  0  0  0  0  0  0  0  0  0
  1  6  1  0  0  0  0
  2  3  1  0  0  0  0
  2  1  2  0  0  0  0
  3  4  2  0  0  0  0
  4  9  1  0  0  0  0
  4  5  1  0  0  0  0
  5 10  1  0  0  0  0
  6  5  2  0  0  0  0
  6 22  1  0  0  0  0
  7  2  1  0  0  0  0
  8  3  1  0  0  0  0
 11 12  1  0  0  0  0
 12 13  2  0  0  0  0
 12  1  1  0  0  0  0
 13 18  1  0  0  0  0
 14 13  1  0  0  0  0
 15 14  2  0  0  0  0
 16 15  1  0  0  0  0
 16 11  2  0  0  0  0
 17 11  1  0  0  0  0
 19 15  1  0  0  0  0
 20 21  2  0  0  0  0
 20 24  1  0  0  0  0
 22 20  1  0  0  0  0
 23 22  1  0  0  0  0
 24 25  1  0  0  0  0
 25 27  1  0  0  0  0
 26 25  2  0  0  0  0
 28 29  1  0  0  0  0
 28 27  2  0  0  0  0
 29 30  1  0  0  0  0
M  END
>  <minimizedAffinity>
-4.86497402

$$$$

 OpenBabel03272500593D

 30 31  0  0  0  0  0  0  0  0999 V2000
   40.1660   25.0320   34.6430 C   0  0  0  0  0  0  0  0  0  0  0  0
   41.4820   24.7420   34.8800 C   0  0  0  0  0  0  0  0  0  0  0  0
   42.5070   25.6600   34.6230 C   0  0  0  0  0  0  0  0  0  0  0  0
   42.1190   26.9520   34.0890 C   0  0  0  0  0  0  0  0  0  0  0  0
   40.7990   27.1740   33.8790 C   0  0  0  0  0  0  0  0  0  0  0  0
   39.8230   26.2850   34.1270 C   0  0  0  0  0  0  0  0  0  0  0  0
   41.7970   23.7670   35.2850 H   0  0  0  0  0  0  0  0  0  0  0  0
   43.5320   25.3610   34.8350 H   0  0  0  0  0  0  0  0  0  0  0  0
   42.9950   27.5330   33.9480 H   0  0  0  0  0  0  0  0  0  0  0  0
   40.7510   28.1880   33.5150 H   0  0  0  0  0  0  0  0  0  0  0  0
   38.7830   23.9250   36.3200 C   0  0  0  0  0  0  0  0  0  0  0  0
   39.2220   23.9880   34.9800 C   0  0  0  0  0  0  0  0  0  0  0  0
   38.6840   23.0340   34.1520 C   0  0  0  0  0  0  0  0  0  0  0  0
   37.8070   22.1300   34.6290 N   0  0  0  0  0  0  0  0  0  0  0  0
   37.4100   22.0870   35.8790 C   0  0  0  0  0  0  0  0  0  0  0  0
   37.8980   22.9830   36.7220 N   0  0  0  0  0  0  0  0  0  0  0  0
   39.1560   24.6370   37.0450 H   0  0  0  0  0  0  0  0  0  0  0  0
   39.0250   23.0840   33.1130 H   0  0  0  0  0  0  0  0  0  0  0  0
   36.7050   21.3500   36.2380 H   0  0  0  0  0  0  0  0  0  0  0  0
   37.8620   27.2920   34.9460 C   0  0  0  0  0  0  0  0  0  0  0  0
   38.5510   27.5430   36.0140 O   0  0  0  0  0  0  0  0  0  0  0  0
   38.5060   26.5680   33.8660 N   0  0  0  0  0  0  0  0  0  0  0  0
   38.0190   26.3000   33.0100 H   0  0  0  0  0  0  0  0  0  0  0  0
   36.5630   27.7140   34.8790 O   0  0  0  0  0  0  0  0  0  0  0  0
   36.0860   28.6890   34.0110 C   0  0  0  0  0  0  0  0  0  0  0  0
   36.0800   28.5130   32.7060 O   0  0  0  0  0  0  0  0  0  0  0  0
   35.5360   29.9720   34.5100 C   0  0  0  0  0  3  0  0  0  0  0  0
   36.0570   30.6340   35.5140 C   0  0  0  0  0  3  0  0  0  0  0  0
   35.5440   31.9220   36.0520 C   0  0  0  0  0  2  0  0  0  0  0  0
   34.6270   32.2740   35.5600 H   0  0  0  0  0  0  0  0  0  0  0  0
  1  2  1  0  0  0  0
  1 12  1  0  0  0  0
  2  7  1  0  0  0  0
  3  8  1  0  0  0  0
  3  2  2  0  0  0  0
  4  3  1  0  0  0  0
  5  4  2  0  0  0  0
  5  6  1  0  0  0  0
  6  1  2  0  0  0  0
  9  4  1  0  0  0  0
 10  5  1  0  0  0  0
 11 16  1  0  0  0  0
 11 17  1  0  0  0  0
 12 11  2  0  0  0  0
 13 14  2  0  0  0  0
 13 12  1  0  0  0  0
 14 15  1  0  0  0  0
 15 19  1  0  0  0  0
 15 16  2  0  0  0  0
 18 13  1  0  0  0  0
 20 21  2  0  0  0  0
 22  6  1  0  0  0  0
 22 20  1  0  0  0  0
 23 22  1  0  0  0  0
 24 20  1  0  0  0  0
 25 27  1  0  0  0  0
 25 24  1  0  0  0  0
 26 25  2  0  0  0  0
 27 28  2  0  0  0  0
 28 29  1  0  0  0  0
 30 29  1  0  0  0  0
M  END
>  <minimizedAffinity>
-4.8644166

$$$$

 OpenBabel03272500593D

 30 31  0  0  0  0  0  0  0  0999 V2000
   39.8970   23.2910   36.4540 C   0  0  0  0  0  0  0  0  0  0  0  0
   40.0140   23.0260   37.7910 C   0  0  0  0  0  0  0  0  0  0  0  0
   38.9810   23.2890   38.6970 C   0  0  0  0  0  0  0  0  0  0  0  0
   37.7610   23.8620   38.1600 C   0  0  0  0  0  0  0  0  0  0  0  0
   37.7120   24.0980   36.8280 C   0  0  0  0  0  0  0  0  0  0  0  0
   38.7100   23.8430   35.9660 C   0  0  0  0  0  0  0  0  0  0  0  0
   40.9320   22.5910   38.2180 H   0  0  0  0  0  0  0  0  0  0  0  0
   39.1440   23.0540   39.7480 H   0  0  0  0  0  0  0  0  0  0  0  0
   37.0780   24.0040   38.9600 H   0  0  0  0  0  0  0  0  0  0  0  0
   36.7200   24.4890   36.6600 H   0  0  0  0  0  0  0  0  0  0  0  0
   42.0560   23.9160   35.5050 C   0  0  0  0  0  0  0  0  0  0  0  0
   41.0440   22.9410   35.6430 C   0  0  0  0  0  0  0  0  0  0  0  0
   41.2850   21.7630   34.9810 C   0  0  0  0  0  0  0  0  0  0  0  0
   42.4160   21.5970   34.2680 N   0  0  0  0  0  0  0  0  0  0  0  0
   43.3460   22.5150   34.1510 C   0  0  0  0  0  0  0  0  0  0  0  0
   43.1660   23.6720   34.7680 N   0  0  0  0  0  0  0  0  0  0  0  0
   41.9520   24.8770   35.9910 H   0  0  0  0  0  0  0  0  0  0  0  0
   40.5000   21.0070   35.0890 H   0  0  0  0  0  0  0  0  0  0  0  0
   44.2460   22.3580   33.5720 H   0  0  0  0  0  0  0  0  0  0  0  0
   37.9690   23.0670   33.8740 C   0  0  0  0  0  0  0  0  0  0  0  0
   37.6310   21.9850   34.5030 O   0  0  0  0  0  0  0  0  0  0  0  0
   38.6020   24.1320   34.6290 N   0  0  0  0  0  0  0  0  0  0  0  0
   38.9300   24.9970   34.1990 H   0  0  0  0  0  0  0  0  0  0  0  0
   37.7190   23.1610   32.5330 O   0  0  0  0  0  0  0  0  0  0  0  0
   36.4550   23.2410   31.9620 C   0  0  0  0  0  0  0  0  0  0  0  0
   35.8520   24.3970   31.7690 O   0  0  0  0  0  0  0  0  0  0  0  0
   35.7260   22.0300   31.5160 C   0  0  0  0  0  3  0  0  0  0  0  0
   35.1560   21.1890   32.3430 C   0  0  0  0  0  3  0  0  0  0  0  0
   34.4150   19.9630   31.9470 C   0  0  0  0  0  2  0  0  0  0  0  0
   34.4180   19.7730   30.8650 H   0  0  0  0  0  0  0  0  0  0  0  0
  1  2  1  0  0  0  0
  2  7  1  0  0  0  0
  2  3  2  0  0  0  0
  3  8  1  0  0  0  0
  4  3  1  0  0  0  0
  4  9  1  0  0  0  0
  5  4  2  0  0  0  0
  6  1  2  0  0  0  0
  6  5  1  0  0  0  0
 10  5  1  0  0  0  0
 11 12  1  0  0  0  0
 11 17  1  0  0  0  0
 12  1  1  0  0  0  0
 13 18  1  0  0  0  0
 13 12  2  0  0  0  0
 14 13  1  0  0  0  0
 15 14  2  0  0  0  0
 15 16  1  0  0  0  0
 16 11  2  0  0  0  0
 19 15  1  0  0  0  0
 20 21  2  0  0  0  0
 20 22  1  0  0  0  0
 22  6  1  0  0  0  0
 23 22  1  0  0  0  0
 24 20  1  0  0  0  0
 25 24  1  0  0  0  0
 26 25  2  0  0  0  0
 27 25  1  0  0  0  0
 27 28  2  0  0  0  0
 29 28  1  0  0  0  0
 30 29  1  0  0  0  0
M  END
>  <minimizedAffinity>
-4.84548044

$$$$

 OpenBabel03272500593D

 30 31  0  0  0  0  0  0  0  0999 V2000
   36.7580   22.8750   32.3080 C   0  0  0  0  0  0  0  0  0  0  0  0
   35.9530   23.7300   31.6070 C   0  0  0  0  0  0  0  0  0  0  0  0
   36.2730   25.0810   31.4300 C   0  0  0  0  0  0  0  0  0  0  0  0
   37.5090   25.5500   32.0250 C   0  0  0  0  0  0  0  0  0  0  0  0
   38.2600   24.6510   32.7050 C   0  0  0  0  0  0  0  0  0  0  0  0
   37.9430   23.3560   32.8710 C   0  0  0  0  0  0  0  0  0  0  0  0
   35.0100   23.3920   31.1470 H   0  0  0  0  0  0  0  0  0  0  0  0
   35.5840   25.7040   30.8610 H   0  0  0  0  0  0  0  0  0  0  0  0
   37.6140   26.5840   31.8090 H   0  0  0  0  0  0  0  0  0  0  0  0
   39.1250   25.2100   33.0250 H   0  0  0  0  0  0  0  0  0  0  0  0
   36.4350   20.7150   31.2200 C   0  0  0  0  0  0  0  0  0  0  0  0
   36.3020   21.5030   32.3830 C   0  0  0  0  0  0  0  0  0  0  0  0
   35.7510   20.8530   33.4590 C   0  0  0  0  0  0  0  0  0  0  0  0
   35.3820   19.5610   33.3620 N   0  0  0  0  0  0  0  0  0  0  0  0
   35.5120   18.8440   32.2720 C   0  0  0  0  0  0  0  0  0  0  0  0
   36.0380   19.4210   31.2030 N   0  0  0  0  0  0  0  0  0  0  0  0
   36.8580   21.1440   30.3210 H   0  0  0  0  0  0  0  0  0  0  0  0
   35.6480   21.4640   34.3620 H   0  0  0  0  0  0  0  0  0  0  0  0
   35.2080   17.8080   32.2190 H   0  0  0  0  0  0  0  0  0  0  0  0
   38.6120   22.6980   35.0270 C   0  0  0  0  0  0  0  0  0  0  0  0
   37.8350   23.6430   35.4530 O   0  0  0  0  0  0  0  0  0  0  0  0
   38.7390   22.5050   33.5950 N   0  0  0  0  0  0  0  0  0  0  0  0
   39.3600   21.8070   33.1820 H   0  0  0  0  0  0  0  0  0  0  0  0
   39.2800   21.9270   35.9370 O   0  0  0  0  0  0  0  0  0  0  0  0
   40.0430   22.4180   36.9900 C   0  0  0  0  0  0  0  0  0  0  0  0
   39.4890   22.9380   38.0650 O   0  0  0  0  0  0  0  0  0  0  0  0
   41.5250   22.3600   36.9680 C   0  0  0  0  0  3  0  0  0  0  0  0
   42.2700   23.2540   36.3670 C   0  0  0  0  0  3  0  0  0  0  0  0
   43.7560   23.2410   36.3160 C   0  0  0  0  0  2  0  0  0  0  0  0
   44.2080   22.3630   36.7980 H   0  0  0  0  0  0  0  0  0  0  0  0
  1 12  1  0  0  0  0
  1  6  1  0  0  0  0
  2  1  2  0  0  0  0
  3  2  1  0  0  0  0
  3  4  2  0  0  0  0
  4  5  1  0  0  0  0
  5  6  2  0  0  0  0
  5 10  1  0  0  0  0
  6 22  1  0  0  0  0
  7  2  1  0  0  0  0
  8  3  1  0  0  0  0
  9  4  1  0  0  0  0
 11 12  1  0  0  0  0
 12 13  2  0  0  0  0
 13 18  1  0  0  0  0
 14 13  1  0  0  0  0
 15 14  2  0  0  0  0
 16 11  2  0  0  0  0
 16 15  1  0  0  0  0
 17 11  1  0  0  0  0
 19 15  1  0  0  0  0
 20 21  2  0  0  0  0
 20 24  1  0  0  0  0
 22 20  1  0  0  0  0
 23 22  1  0  0  0  0
 24 25  1  0  0  0  0
 25 26  2  0  0  0  0
 27 25  1  0  0  0  0
 28 27  2  0  0  0  0
 29 28  1  0  0  0  0
 29 30  1  0  0  0  0
M  END
>  <minimizedAffinity>
-4.79021978

$$$$

 OpenBabel03272500593D

 30 31  0  0  0  0  0  0  0  0999 V2000
   37.0780   26.9320   32.4790 C   0  0  0  0  0  0  0  0  0  0  0  0
   36.6050   28.0410   31.8330 C   0  0  0  0  0  0  0  0  0  0  0  0
   36.0640   29.1320   32.5210 C   0  0  0  0  0  0  0  0  0  0  0  0
   36.0210   29.0460   33.9690 C   0  0  0  0  0  0  0  0  0  0  0  0
   36.5070   27.9210   34.5450 C   0  0  0  0  0  0  0  0  0  0  0  0
   37.0240   26.8770   33.8750 C   0  0  0  0  0  0  0  0  0  0  0  0
   36.6280   28.1260   30.7340 H   0  0  0  0  0  0  0  0  0  0  0  0
   35.7050   29.9820   31.9410 H   0  0  0  0  0  0  0  0  0  0  0  0
   35.5890   29.9390   34.3450 H   0  0  0  0  0  0  0  0  0  0  0  0
   36.4000   28.0920   35.6040 H   0  0  0  0  0  0  0  0  0  0  0  0
   38.9480   26.0790   31.1650 C   0  0  0  0  0  0  0  0  0  0  0  0
   37.6280   25.8970   31.6300 C   0  0  0  0  0  0  0  0  0  0  0  0
   37.0250   24.7370   31.2110 C   0  0  0  0  0  0  0  0  0  0  0  0
   37.6850   23.8700   30.4200 N   0  0  0  0  0  0  0  0  0  0  0  0
   38.9130   24.0560   29.9970 C   0  0  0  0  0  0  0  0  0  0  0  0
   39.5430   25.1590   30.3700 N   0  0  0  0  0  0  0  0  0  0  0  0
   39.5020   26.9660   31.4440 H   0  0  0  0  0  0  0  0  0  0  0  0
   36.0010   24.5960   31.5720 H   0  0  0  0  0  0  0  0  0  0  0  0
   39.4220   23.3440   29.3610 H   0  0  0  0  0  0  0  0  0  0  0  0
   38.8060   25.9230   35.0760 C   0  0  0  0  0  0  0  0  0  0  0  0
   39.4200   27.0450   34.8690 O   0  0  0  0  0  0  0  0  0  0  0  0
   37.4760   25.7550   34.5220 N   0  0  0  0  0  0  0  0  0  0  0  0
   36.9440   24.8880   34.6100 H   0  0  0  0  0  0  0  0  0  0  0  0
   39.4330   24.9470   35.8000 O   0  0  0  0  0  0  0  0  0  0  0  0
   38.7900   24.0200   36.6110 C   0  0  0  0  0  0  0  0  0  0  0  0
   37.5310   24.1660   36.9690 O   0  0  0  0  0  0  0  0  0  0  0  0
   39.4810   22.8020   37.0970 C   0  0  0  0  0  3  0  0  0  0  0  0
   40.7830   22.6560   37.0700 C   0  0  0  0  0  3  0  0  0  0  0  0
   41.5240   21.4570   37.5450 C   0  0  0  0  0  2  0  0  0  0  0  0
   40.8730   20.6430   37.8930 H   0  0  0  0  0  0  0  0  0  0  0  0
  1  6  1  0  0  0  0
  2  1  2  0  0  0  0
  2  3  1  0  0  0  0
  3  4  2  0  0  0  0
  4  9  1  0  0  0  0
  4  5  1  0  0  0  0
  5 10  1  0  0  0  0
  6 22  1  0  0  0  0
  6  5  2  0  0  0  0
  7  2  1  0  0  0  0
  8  3  1  0  0  0  0
 11 17  1  0  0  0  0
 11 12  1  0  0  0  0
 12  1  1  0  0  0  0
 13 18  1  0  0  0  0
 13 12  2  0  0  0  0
 14 13  1  0  0  0  0
 15 16  1  0  0  0  0
 15 14  2  0  0  0  0
 16 11  2  0  0  0  0
 19 15  1  0  0  0  0
 20 24  1  0  0  0  0
 21 20  2  0  0  0  0
 22 23  1  0  0  0  0
 22 20  1  0  0  0  0
 24 25  1  0  0  0  0
 25 26  2  0  0  0  0
 25 27  1  0  0  0  0
 28 27  2  0  0  0  0
 28 29  1  0  0  0  0
 29 30  1  0  0  0  0
M  END
>  <minimizedAffinity>
-4.74437284

$$$$

 OpenBabel03272500593D

 30 31  0  0  0  0  0  0  0  0999 V2000
   36.4250   22.2570   32.1560 C   0  0  0  0  0  0  0  0  0  0  0  0
   35.6820   21.5450   31.2550 C   0  0  0  0  0  0  0  0  0  0  0  0
   35.1510   20.2850   31.5560 C   0  0  0  0  0  0  0  0  0  0  0  0
   35.4190   19.7530   32.8780 C   0  0  0  0  0  0  0  0  0  0  0  0
   36.1600   20.5100   33.7210 C   0  0  0  0  0  0  0  0  0  0  0  0
   36.6680   21.7180   33.4230 C   0  0  0  0  0  0  0  0  0  0  0  0
   35.4670   21.9310   30.2460 H   0  0  0  0  0  0  0  0  0  0  0  0
   34.5700   19.7740   30.7890 H   0  0  0  0  0  0  0  0  0  0  0  0
   34.9570   18.8010   32.9560 H   0  0  0  0  0  0  0  0  0  0  0  0
   36.2030   19.9360   34.6330 H   0  0  0  0  0  0  0  0  0  0  0  0
   38.0580   23.5820   30.9200 C   0  0  0  0  0  0  0  0  0  0  0  0
   36.8850   23.5530   31.7050 C   0  0  0  0  0  0  0  0  0  0  0  0
   36.3180   24.7810   31.9390 C   0  0  0  0  0  0  0  0  0  0  0  0
   36.8760   25.8990   31.4360 N   0  0  0  0  0  0  0  0  0  0  0  0
   37.9670   25.9070   30.7080 C   0  0  0  0  0  0  0  0  0  0  0  0
   38.5560   24.7500   30.4510 N   0  0  0  0  0  0  0  0  0  0  0  0
   38.5740   22.6610   30.6840 H   0  0  0  0  0  0  0  0  0  0  0  0
   35.4090   24.7580   32.5480 H   0  0  0  0  0  0  0  0  0  0  0  0
   38.3960   26.8190   30.3160 H   0  0  0  0  0  0  0  0  0  0  0  0
   38.8460   22.1090   34.2160 C   0  0  0  0  0  0  0  0  0  0  0  0
   39.2160   21.2050   33.3650 O   0  0  0  0  0  0  0  0  0  0  0  0
   37.4330   22.4220   34.3180 N   0  0  0  0  0  0  0  0  0  0  0  0
   37.0600   23.0940   34.9900 H   0  0  0  0  0  0  0  0  0  0  0  0
   39.7950   22.7270   34.9820 O   0  0  0  0  0  0  0  0  0  0  0  0
   40.1830   22.3200   36.2530 C   0  0  0  0  0  0  0  0  0  0  0  0
   41.1220   21.4140   36.4350 O   0  0  0  0  0  0  0  0  0  0  0  0
   39.5760   22.9020   37.4740 C   0  0  0  0  0  3  0  0  0  0  0  0
   38.6020   23.7770   37.4450 C   0  0  0  0  0  3  0  0  0  0  0  0
   37.9600   24.3890   38.6390 C   0  0  0  0  0  2  0  0  0  0  0  0
   38.4120   24.0800   39.5920 H   0  0  0  0  0  0  0  0  0  0  0  0
  1  6  1  0  0  0  0
  2  3  1  0  0  0  0
  2  1  2  0  0  0  0
  3  4  2  0  0  0  0
  4  9  1  0  0  0  0
  4  5  1  0  0  0  0
  5 10  1  0  0  0  0
  6  5  2  0  0  0  0
  6 22  1  0  0  0  0
  7  2  1  0  0  0  0
  8  3  1  0  0  0  0
 11 12  1  0  0  0  0
 12 13  2  0  0  0  0
 12  1  1  0  0  0  0
 13 18  1  0  0  0  0
 14 13  1  0  0  0  0
 15 14  2  0  0  0  0
 16 15  1  0  0  0  0
 16 11  2  0  0  0  0
 17 11  1  0  0  0  0
 19 15  1  0  0  0  0
 20 22  1  0  0  0  0
 20 24  1  0  0  0  0
 21 20  2  0  0  0  0
 22 23  1  0  0  0  0
 24 25  1  0  0  0  0
 25 26  2  0  0  0  0
 25 27  1  0  0  0  0
 28 27  2  0  0  0  0
 28 29  1  0  0  0  0
 29 30  1  0  0  0  0
M  END
>  <minimizedAffinity>
-4.74279833

$$$$

 OpenBabel03272500593D

 30 31  0  0  0  0  0  0  0  0999 V2000
   39.3620   26.2800   33.1980 C   0  0  0  0  0  0  0  0  0  0  0  0
   39.4020   27.1350   32.1310 C   0  0  0  0  0  0  0  0  0  0  0  0
   38.2520   27.7490   31.6220 C   0  0  0  0  0  0  0  0  0  0  0  0
   36.9950   27.4420   32.2770 C   0  0  0  0  0  0  0  0  0  0  0  0
   37.0250   26.5890   33.3280 C   0  0  0  0  0  0  0  0  0  0  0  0
   38.1350   26.0030   33.8080 C   0  0  0  0  0  0  0  0  0  0  0  0
   40.3480   27.3800   31.6200 H   0  0  0  0  0  0  0  0  0  0  0  0
   38.3590   28.4180   30.7690 H   0  0  0  0  0  0  0  0  0  0  0  0
   36.2210   27.9760   31.7830 H   0  0  0  0  0  0  0  0  0  0  0  0
   36.0020   26.5370   33.6630 H   0  0  0  0  0  0  0  0  0  0  0  0
   41.0620   24.5390   33.0180 C   0  0  0  0  0  0  0  0  0  0  0  0
   40.6380   25.7430   33.6210 C   0  0  0  0  0  0  0  0  0  0  0  0
   41.5100   26.2620   34.5450 C   0  0  0  0  0  0  0  0  0  0  0  0
   42.6690   25.6340   34.8200 N   0  0  0  0  0  0  0  0  0  0  0  0
   43.0470   24.5150   34.2500 C   0  0  0  0  0  0  0  0  0  0  0  0
   42.2440   23.9690   33.3500 N   0  0  0  0  0  0  0  0  0  0  0  0
   40.4370   24.0560   32.2780 H   0  0  0  0  0  0  0  0  0  0  0  0
   41.1810   27.1960   35.0120 H   0  0  0  0  0  0  0  0  0  0  0  0
   43.9830   24.0300   34.4880 H   0  0  0  0  0  0  0  0  0  0  0  0
   38.2000   25.7890   36.1490 C   0  0  0  0  0  0  0  0  0  0  0  0
   38.3690   27.0740   36.1650 O   0  0  0  0  0  0  0  0  0  0  0  0
   38.0900   25.1270   34.8630 N   0  0  0  0  0  0  0  0  0  0  0  0
   37.9940   24.1150   34.7660 H   0  0  0  0  0  0  0  0  0  0  0  0
   38.1340   25.1130   37.3350 O   0  0  0  0  0  0  0  0  0  0  0  0
   38.1540   23.7290   37.4650 C   0  0  0  0  0  0  0  0  0  0  0  0
   37.1050   22.9890   37.1720 O   0  0  0  0  0  0  0  0  0  0  0  0
   39.3680   23.0090   37.9200 C   0  0  0  0  0  3  0  0  0  0  0  0
   40.2140   22.4390   37.0990 C   0  0  0  0  0  3  0  0  0  0  0  0
   41.4440   21.7070   37.5040 C   0  0  0  0  0  2  0  0  0  0  0  0
   41.5760   21.6310   38.5930 H   0  0  0  0  0  0  0  0  0  0  0  0
  1 12  1  0  0  0  0
  1  6  1  0  0  0  0
  2  1  2  0  0  0  0
  3  2  1  0  0  0  0
  3  4  2  0  0  0  0
  4  5  1  0  0  0  0
  5 10  1  0  0  0  0
  5  6  2  0  0  0  0
  6 22  1  0  0  0  0
  7  2  1  0  0  0  0
  8  3  1  0  0  0  0
  9  4  1  0  0  0  0
 11 16  2  0  0  0  0
 11 12  1  0  0  0  0
 12 13  2  0  0  0  0
 13 14  1  0  0  0  0
 13 18  1  0  0  0  0
 15 19  1  0  0  0  0
 15 14  2  0  0  0  0
 16 15  1  0  0  0  0
 17 11  1  0  0  0  0
 20 21  2  0  0  0  0
 20 24  1  0  0  0  0
 22 20  1  0  0  0  0
 23 22  1  0  0  0  0
 24 25  1  0  0  0  0
 25 27  1  0  0  0  0
 26 25  2  0  0  0  0
 28 29  1  0  0  0  0
 28 27  2  0  0  0  0
 29 30  1  0  0  0  0
M  END
>  <minimizedAffinity>
-4.67266178

$$$$

 OpenBabel03272500593D

 30 31  0  0  0  0  0  0  0  0999 V2000
   38.5260   24.7490   35.9090 C   0  0  0  0  0  0  0  0  0  0  0  0
   38.0930   25.3280   37.0700 C   0  0  0  0  0  0  0  0  0  0  0  0
   38.1110   24.6490   38.2940 C   0  0  0  0  0  0  0  0  0  0  0  0
   38.6140   23.2890   38.2890 C   0  0  0  0  0  0  0  0  0  0  0  0
   39.0280   22.7770   37.1060 C   0  0  0  0  0  0  0  0  0  0  0  0
   39.0050   23.4360   35.9350 C   0  0  0  0  0  0  0  0  0  0  0  0
   37.7080   26.3600   37.0950 H   0  0  0  0  0  0  0  0  0  0  0  0
   37.7490   25.1720   39.1790 H   0  0  0  0  0  0  0  0  0  0  0  0
   38.5650   22.9100   39.2790 H   0  0  0  0  0  0  0  0  0  0  0  0
   39.3780   21.7870   37.3480 H   0  0  0  0  0  0  0  0  0  0  0  0
   39.5940   26.3880   34.4510 C   0  0  0  0  0  0  0  0  0  0  0  0
   38.4660   25.5860   34.7300 C   0  0  0  0  0  0  0  0  0  0  0  0
   37.4390   25.7030   33.8270 C   0  0  0  0  0  0  0  0  0  0  0  0
   37.5470   26.5320   32.7710 N   0  0  0  0  0  0  0  0  0  0  0  0
   38.6040   27.2700   32.5270 C   0  0  0  0  0  0  0  0  0  0  0  0
   39.6250   27.1970   33.3660 N   0  0  0  0  0  0  0  0  0  0  0  0
   40.4520   26.3620   35.1090 H   0  0  0  0  0  0  0  0  0  0  0  0
   36.5640   25.0810   34.0440 H   0  0  0  0  0  0  0  0  0  0  0  0
   38.6670   27.9290   31.6720 H   0  0  0  0  0  0  0  0  0  0  0  0
   38.4100   21.9750   34.1910 C   0  0  0  0  0  0  0  0  0  0  0  0
   37.2980   21.8120   34.8360 O   0  0  0  0  0  0  0  0  0  0  0  0
   39.4170   22.8470   34.7660 N   0  0  0  0  0  0  0  0  0  0  0  0
   40.3310   22.9960   34.3380 H   0  0  0  0  0  0  0  0  0  0  0  0
   38.5910   21.3210   33.0040 O   0  0  0  0  0  0  0  0  0  0  0  0
   37.7650   21.4430   31.8930 C   0  0  0  0  0  0  0  0  0  0  0  0
   37.4180   20.3990   31.1690 O   0  0  0  0  0  0  0  0  0  0  0  0
   37.2120   22.7540   31.4770 C   0  0  0  0  0  3  0  0  0  0  0  0
   35.9310   23.0270   31.4830 C   0  0  0  0  0  3  0  0  0  0  0  0
   35.3270   24.3240   31.0770 C   0  0  0  0  0  2  0  0  0  0  0  0
   36.0570   25.0570   30.7070 H   0  0  0  0  0  0  0  0  0  0  0  0
  1  6  2  0  0  0  0
  1  2  1  0  0  0  0
  2  7  1  0  0  0  0
  2  3  2  0  0  0  0
  3  8  1  0  0  0  0
  4  3  1  0  0  0  0
  4  9  1  0  0  0  0
  5 10  1  0  0  0  0
  5  4  2  0  0  0  0
  6  5  1  0  0  0  0
 11 12  1  0  0  0  0
 11 17  1  0  0  0  0
 12  1  1  0  0  0  0
 13 18  1  0  0  0  0
 13 12  2  0  0  0  0
 14 13  1  0  0  0  0
 15 14  2  0  0  0  0
 15 16  1  0  0  0  0
 16 11  2  0  0  0  0
 19 15  1  0  0  0  0
 20 22  1  0  0  0  0
 20 21  2  0  0  0  0
 22  6  1  0  0  0  0
 23 22  1  0  0  0  0
 24 20  1  0  0  0  0
 25 24  1  0  0  0  0
 26 25  2  0  0  0  0
 27 28  2  0  0  0  0
 27 25  1  0  0  0  0
 29 28  1  0  0  0  0
 30 29  1  0  0  0  0
M  END
>  <minimizedAffinity>
-4.67206717

$$$$
