
 OpenBabel03272509533D

 38 40  0  0  0  0  0  0  0  0999 V2000
   37.3400   30.1770   51.5220 C   0  0  0  0  0  0  0  0  0  0  0  0
   38.0770   30.8690   50.5290 C   0  0  0  0  0  0  0  0  0  0  0  0
   37.7120   30.6560   49.2090 C   0  0  0  0  0  0  0  0  0  0  0  0
   36.6670   29.7960   48.9800 N   0  0  0  0  0  0  0  0  0  0  0  0
   35.9950   29.1620   49.9380 C   0  0  0  0  0  0  0  0  0  0  0  0
   36.3450   29.3640   51.2270 N   0  0  0  0  0  0  0  0  0  0  0  0
   37.6860   30.3960   52.5310 H   0  0  0  0  0  0  0  0  0  0  0  0
   38.8990   31.5450   50.7150 H   0  0  0  0  0  0  0  0  0  0  0  0
   38.9390   33.2710   49.0240 F   0  0  0  0  0  0  0  0  0  0  0  0
   38.9140   32.4820   47.9540 C   0  0  0  0  0  0  0  0  0  0  0  0
   38.3370   31.2650   48.0590 C   0  0  0  0  0  0  0  0  0  0  0  0
   38.3690   30.5300   46.8830 C   0  0  0  0  0  0  0  0  0  0  0  0
   38.9360   31.0010   45.7260 C   0  0  0  0  0  0  0  0  0  0  0  0
   39.5080   32.2370   45.6630 C   0  0  0  0  0  0  0  0  0  0  0  0
   39.4920   32.9880   46.8100 C   0  0  0  0  0  0  0  0  0  0  0  0
   37.9470   29.5220   46.7880 H   0  0  0  0  0  0  0  0  0  0  0  0
   38.9590   30.4150   44.7980 H   0  0  0  0  0  0  0  0  0  0  0  0
   39.9600   32.6300   44.7630 H   0  0  0  0  0  0  0  0  0  0  0  0
   39.9400   33.9730   46.7870 H   0  0  0  0  0  0  0  0  0  0  0  0
   35.0070   28.3670   49.4630 O   0  0  0  0  0  0  0  0  0  0  0  0
   34.4660   28.6410   48.1690 C   0  0  0  0  0  0  0  0  0  0  0  0
   35.2670   28.8950   47.4490 H   0  0  0  0  0  0  0  0  0  0  0  0
   33.8400   29.5490   48.2940 H   0  0  0  0  0  0  0  0  0  0  0  0
   33.5830   27.5220   47.7200 C   0  0  0  0  0  0  0  0  0  0  0  0
   33.7790   26.5620   48.2080 H   0  0  0  0  0  0  0  0  0  0  0  0
   33.8250   27.3470   46.6310 H   0  0  0  0  0  0  0  0  0  0  0  0
   32.1400   27.8790   47.7290 C   0  0  0  0  0  0  0  0  0  0  0  0
   31.3580   27.4070   48.7880 C   0  0  0  0  0  0  0  0  0  0  0  0
   30.0230   27.6920   48.8680 C   0  0  0  0  0  0  0  0  0  0  0  0
   29.4530   28.4230   47.9330 N   0  0  0  0  0  0  0  0  0  0  0  0
   30.2190   28.8830   46.8980 C   0  0  0  0  0  0  0  0  0  0  0  0
   31.5340   28.6300   46.7760 N   0  0  0  0  0  0  0  0  0  0  0  0
   31.8420   26.8050   49.5530 H   0  0  0  0  0  0  0  0  0  0  0  0
   29.3930   27.3360   49.6850 H   0  0  0  0  0  0  0  0  0  0  0  0
   29.5390   29.6890   45.8880 C   0  0  0  0  0  3  0  0  0  0  0  0
   30.1710   30.5210   45.1110 C   0  0  0  0  0  3  0  0  0  0  0  0
   29.4880   31.3530   44.0730 C   0  0  0  0  0  2  0  0  0  0  0  0
   28.3980   31.2330   44.2460 H   0  0  0  0  0  0  0  0  0  0  0  0
  1  7  1  0  0  0  0
  2  8  1  0  0  0  0
  2  1  2  0  0  0  0
  3  2  1  0  0  0  0
  4  3  2  0  0  0  0
  4  5  1  0  0  0  0
  5  6  2  0  0  0  0
  6  1  1  0  0  0  0
 10 11  1  0  0  0  0
 10  9  1  0  0  0  0
 11  3  1  0  0  0  0
 12 11  2  0  0  0  0
 13 12  1  0  0  0  0
 14 13  2  0  0  0  0
 14 15  1  0  0  0  0
 15 10  2  0  0  0  0
 16 12  1  0  0  0  0
 17 13  1  0  0  0  0
 18 14  1  0  0  0  0
 19 15  1  0  0  0  0
 20  5  1  0  0  0  0
 21 23  1  0  0  0  0
 21 20  1  0  0  0  0
 22 21  1  0  0  0  0
 24 27  1  0  0  0  0
 24 21  1  0  0  0  0
 24 25  1  0  0  0  0
 26 24  1  0  0  0  0
 27 28  1  0  0  0  0
 28 29  2  0  0  0  0
 28 33  1  0  0  0  0
 29 34  1  0  0  0  0
 30 29  1  0  0  0  0
 31 30  2  0  0  0  0
 32 31  1  0  0  0  0
 32 27  2  0  0  0  0
 35 31  1  0  0  0  0
 36 35  2  0  0  0  0
 37 38  1  0  0  0  0
 37 36  1  0  0  0  0
M  END
>  <minimizedAffinity>
-6.30083132

>  <minimizedRMSD>
0.0832024887

$$$$
