
 OpenBabel03272500583D

 30 31  0  0  0  0  0  0  0  0999 V2000
   38.1600   31.8720   47.3970 C   0  0  0  0  0  0  0  0  0  0  0  0
   38.6840   32.7450   48.3110 C   0  0  0  0  0  0  0  0  0  0  0  0
   38.2190   32.8120   49.6300 C   0  0  0  0  0  0  0  0  0  0  0  0
   37.1450   31.9100   49.9980 C   0  0  0  0  0  0  0  0  0  0  0  0
   36.6730   31.0720   49.0450 C   0  0  0  0  0  0  0  0  0  0  0  0
   37.1250   31.0160   47.7810 C   0  0  0  0  0  0  0  0  0  0  0  0
   39.5010   33.4370   48.0510 H   0  0  0  0  0  0  0  0  0  0  0  0
   38.6830   33.5320   50.3040 H   0  0  0  0  0  0  0  0  0  0  0  0
   36.9020   32.0780   51.0180 H   0  0  0  0  0  0  0  0  0  0  0  0
   35.9160   30.4910   49.5480 H   0  0  0  0  0  0  0  0  0  0  0  0
   40.0040   31.2520   45.9230 C   0  0  0  0  0  0  0  0  0  0  0  0
   38.7630   31.9060   46.0810 C   0  0  0  0  0  0  0  0  0  0  0  0
   38.2760   32.4990   44.9420 C   0  0  0  0  0  0  0  0  0  0  0  0
   38.9650   32.4320   43.7880 N   0  0  0  0  0  0  0  0  0  0  0  0
   40.1180   31.8190   43.6600 C   0  0  0  0  0  0  0  0  0  0  0  0
   40.6360   31.2300   44.7260 N   0  0  0  0  0  0  0  0  0  0  0  0
   40.4650   30.7580   46.7680 H   0  0  0  0  0  0  0  0  0  0  0  0
   37.3130   33.0060   45.0650 H   0  0  0  0  0  0  0  0  0  0  0  0
   40.6530   31.7790   42.7210 H   0  0  0  0  0  0  0  0  0  0  0  0
   35.1440   30.0290   46.9880 C   0  0  0  0  0  0  0  0  0  0  0  0
   34.5540   30.6680   47.9480 O   0  0  0  0  0  0  0  0  0  0  0  0
   36.5830   30.1590   46.8570 N   0  0  0  0  0  0  0  0  0  0  0  0
   37.1240   29.6580   46.1510 H   0  0  0  0  0  0  0  0  0  0  0  0
   34.3930   29.2610   46.1410 O   0  0  0  0  0  0  0  0  0  0  0  0
   33.1570   29.6240   45.6210 C   0  0  0  0  0  0  0  0  0  0  0  0
   33.0500   30.4100   44.5690 O   0  0  0  0  0  0  0  0  0  0  0  0
   31.8900   29.1260   46.2090 C   0  0  0  0  0  3  0  0  0  0  0  0
   30.7330   29.7100   46.0200 C   0  0  0  0  0  3  0  0  0  0  0  0
   29.4370   29.2520   46.5860 C   0  0  0  0  0  2  0  0  0  0  0  0
   29.5250   28.3770   47.2460 H   0  0  0  0  0  0  0  0  0  0  0  0
  1  6  2  0  0  0  0
  1  2  1  0  0  0  0
  2  3  2  0  0  0  0
  3  4  1  0  0  0  0
  3  8  1  0  0  0  0
  4  9  1  0  0  0  0
  5 10  1  0  0  0  0
  5  4  2  0  0  0  0
  6  5  1  0  0  0  0
  7  2  1  0  0  0  0
 11 12  1  0  0  0  0
 11 17  1  0  0  0  0
 12  1  1  0  0  0  0
 13 18  1  0  0  0  0
 13 12  2  0  0  0  0
 14 13  1  0  0  0  0
 15 14  2  0  0  0  0
 15 16  1  0  0  0  0
 16 11  2  0  0  0  0
 19 15  1  0  0  0  0
 20 21  2  0  0  0  0
 22 20  1  0  0  0  0
 22  6  1  0  0  0  0
 23 22  1  0  0  0  0
 24 20  1  0  0  0  0
 25 24  1  0  0  0  0
 25 27  1  0  0  0  0
 26 25  2  0  0  0  0
 28 27  2  0  0  0  0
 28 29  1  0  0  0  0
 29 30  1  0  0  0  0
M  END
>  <minimizedAffinity>
-5.28416014

>  <minimizedRMSD>
0.731020451

$$$$
