
 OpenBabel03272506343D

 14 14  0  0  0  0  0  0  0  0999 V2000
   37.3120   29.9300   51.3390 C   0  0  0  0  0  0  0  0  0  0  0  0
   37.8430   30.9620   50.5470 C   0  0  0  0  0  0  0  0  0  0  0  0
   37.1090   31.4040   49.4560 C   0  0  0  0  0  0  0  0  0  0  0  0
   35.9110   30.8220   49.2010 N   0  0  0  0  0  0  0  0  0  0  0  0
   35.4140   29.8250   49.9800 C   0  0  0  0  0  0  0  0  0  0  0  0
   36.1140   29.3940   51.0320 N   0  0  0  0  0  0  0  0  0  0  0  0
   38.7980   31.4470   50.7230 H   0  0  0  0  0  0  0  0  0  0  0  0
   37.4560   32.1860   48.8090 H   0  0  0  0  0  0  0  0  0  0  0  0
   38.1430   29.5910   52.3860 O   0  0  0  0  0  0  0  0  0  0  0  0
   38.5120   28.6480   52.3900 H   0  0  0  0  0  0  0  0  0  0  0  0
   34.1230   29.2110   49.6930 C   0  0  0  0  0  0  0  0  0  0  0  0
   33.9670   28.2600   48.7840 C   0  0  0  0  0  0  0  0  0  0  0  0
   32.6090   27.6610   48.5280 C   0  0  0  0  0  0  0  0  0  0  0  0
   32.7180   26.6070   48.2550 H   0  0  0  0  0  0  0  0  0  0  0  0
  1  9  1  0  0  0  0
  2  7  1  0  0  0  0
  2  1  2  0  0  0  0
  3  2  1  0  0  0  0
  4  3  2  0  0  0  0
  4  5  1  0  0  0  0
  5  6  2  0  0  0  0
  6  1  1  0  0  0  0
  8  3  1  0  0  0  0
  9 10  1  0  0  0  0
 11  5  1  0  0  0  0
 12 11  2  0  0  0  0
 13 12  1  0  0  0  0
 14 13  1  0  0  0  0
M  END
>  <minimizedAffinity>
-4.28487682

>  <minimizedRMSD>
0.337102652

$$$$
