
 OpenBabel03272509533D

 38 40  0  0  0  0  0  0  0  0999 V2000
   37.3420   30.1780   51.5210 C   0  0  0  0  0  0  0  0  0  0  0  0
   38.0790   30.8690   50.5280 C   0  0  0  0  0  0  0  0  0  0  0  0
   37.7120   30.6570   49.2080 C   0  0  0  0  0  0  0  0  0  0  0  0
   36.6660   29.7980   48.9800 N   0  0  0  0  0  0  0  0  0  0  0  0
   35.9940   29.1660   49.9390 C   0  0  0  0  0  0  0  0  0  0  0  0
   36.3460   29.3670   51.2270 N   0  0  0  0  0  0  0  0  0  0  0  0
   37.6910   30.3970   52.5300 H   0  0  0  0  0  0  0  0  0  0  0  0
   38.9020   31.5440   50.7130 H   0  0  0  0  0  0  0  0  0  0  0  0
   38.9430   33.2710   49.0210 F   0  0  0  0  0  0  0  0  0  0  0  0
   38.9160   32.4810   47.9510 C   0  0  0  0  0  0  0  0  0  0  0  0
   38.3370   31.2650   48.0570 C   0  0  0  0  0  0  0  0  0  0  0  0
   38.3670   30.5300   46.8810 C   0  0  0  0  0  0  0  0  0  0  0  0
   38.9330   31.0000   45.7230 C   0  0  0  0  0  0  0  0  0  0  0  0
   39.5070   32.2360   45.6600 C   0  0  0  0  0  0  0  0  0  0  0  0
   39.4930   32.9870   46.8070 C   0  0  0  0  0  0  0  0  0  0  0  0
   37.9440   29.5230   46.7870 H   0  0  0  0  0  0  0  0  0  0  0  0
   38.9540   30.4140   44.7960 H   0  0  0  0  0  0  0  0  0  0  0  0
   39.9580   32.6270   44.7590 H   0  0  0  0  0  0  0  0  0  0  0  0
   39.9420   33.9710   46.7840 H   0  0  0  0  0  0  0  0  0  0  0  0
   35.0040   28.3720   49.4650 O   0  0  0  0  0  0  0  0  0  0  0  0
   34.4690   28.6410   48.1670 C   0  0  0  0  0  0  0  0  0  0  0  0
   35.2740   28.8910   47.4490 H   0  0  0  0  0  0  0  0  0  0  0  0
   33.8440   29.5510   48.2860 H   0  0  0  0  0  0  0  0  0  0  0  0
   33.5860   27.5210   47.7200 C   0  0  0  0  0  0  0  0  0  0  0  0
   33.7830   26.5620   48.2090 H   0  0  0  0  0  0  0  0  0  0  0  0
   33.8280   27.3450   46.6310 H   0  0  0  0  0  0  0  0  0  0  0  0
   32.1420   27.8780   47.7290 C   0  0  0  0  0  0  0  0  0  0  0  0
   31.3610   27.4040   48.7870 C   0  0  0  0  0  0  0  0  0  0  0  0
   30.0260   27.6880   48.8670 C   0  0  0  0  0  0  0  0  0  0  0  0
   29.4550   28.4210   47.9340 N   0  0  0  0  0  0  0  0  0  0  0  0
   30.2220   28.8840   46.9000 C   0  0  0  0  0  0  0  0  0  0  0  0
   31.5370   28.6310   46.7780 N   0  0  0  0  0  0  0  0  0  0  0  0
   31.8440   26.8000   49.5500 H   0  0  0  0  0  0  0  0  0  0  0  0
   29.3950   27.3300   49.6830 H   0  0  0  0  0  0  0  0  0  0  0  0
   29.5420   29.6910   45.8910 C   0  0  0  0  0  3  0  0  0  0  0  0
   30.1750   30.5190   45.1110 C   0  0  0  0  0  3  0  0  0  0  0  0
   29.4920   31.3540   44.0740 C   0  0  0  0  0  2  0  0  0  0  0  0
   28.4030   31.2400   44.2520 H   0  0  0  0  0  0  0  0  0  0  0  0
  1  7  1  0  0  0  0
  2  8  1  0  0  0  0
  2  1  2  0  0  0  0
  3  2  1  0  0  0  0
  4  3  2  0  0  0  0
  4  5  1  0  0  0  0
  5  6  2  0  0  0  0
  6  1  1  0  0  0  0
 10 11  1  0  0  0  0
 10  9  1  0  0  0  0
 11  3  1  0  0  0  0
 12 11  2  0  0  0  0
 13 12  1  0  0  0  0
 14 13  2  0  0  0  0
 14 15  1  0  0  0  0
 15 10  2  0  0  0  0
 16 12  1  0  0  0  0
 17 13  1  0  0  0  0
 18 14  1  0  0  0  0
 19 15  1  0  0  0  0
 20  5  1  0  0  0  0
 21 23  1  0  0  0  0
 21 20  1  0  0  0  0
 22 21  1  0  0  0  0
 24 27  1  0  0  0  0
 24 21  1  0  0  0  0
 24 25  1  0  0  0  0
 26 24  1  0  0  0  0
 27 28  1  0  0  0  0
 28 29  2  0  0  0  0
 28 33  1  0  0  0  0
 29 34  1  0  0  0  0
 30 29  1  0  0  0  0
 31 30  2  0  0  0  0
 32 31  1  0  0  0  0
 32 27  2  0  0  0  0
 35 31  1  0  0  0  0
 36 35  2  0  0  0  0
 37 38  1  0  0  0  0
 37 36  1  0  0  0  0
M  END
>  <minimizedAffinity>
-6.29984999

>  <minimizedRMSD>
0.14649196

$$$$
