
 OpenBabel03262523553D

 29 30  0  0  1  0  0  0  0  0999 V2000
   38.5160   25.9690   33.1550 C   0  0  1  0  0  0  0  0  0  0  0  0
   39.2940   27.0920   32.6270 C   0  0  0  0  0  0  0  0  0  0  0  0
   40.6140   27.1330   33.3510 C   0  0  0  0  0  0  0  0  0  0  0  0
   40.4460   26.8530   34.8030 C   0  0  0  0  0  0  0  0  0  0  0  0
   39.0760   27.0530   35.3340 C   0  0  0  0  0  0  0  0  0  0  0  0
   37.9990   26.3960   34.5320 C   0  0  1  0  0  0  0  0  0  0  0  0
   39.1640   25.0870   33.3280 H   0  0  0  0  0  0  0  0  0  0  0  0
   39.5360   26.8890   31.5460 H   0  0  0  0  0  0  0  0  0  0  0  0
   38.8040   28.0740   32.6540 H   0  0  0  0  0  0  0  0  0  0  0  0
   40.9850   28.1840   33.2650 H   0  0  0  0  0  0  0  0  0  0  0  0
   41.3400   26.4910   32.8390 H   0  0  0  0  0  0  0  0  0  0  0  0
   40.7040   25.7690   34.9520 H   0  0  0  0  0  0  0  0  0  0  0  0
   41.1790   27.3980   35.4150 H   0  0  0  0  0  0  0  0  0  0  0  0
   39.0500   26.7900   36.4070 H   0  0  0  0  0  0  0  0  0  0  0  0
   38.8910   28.1670   35.3170 H   0  0  0  0  0  0  0  0  0  0  0  0
   37.7540   25.4590   35.0660 H   0  0  0  0  0  0  0  0  0  0  0  0
   35.8830   23.8010   31.6540 C   0  0  0  0  0  0  0  0  0  0  0  0
   37.0020   24.1890   32.4210 C   0  0  0  0  0  0  0  0  0  0  0  0
   37.3530   25.5340   32.3760 C   0  0  0  0  0  0  0  0  0  0  0  0
   36.6160   26.4070   31.6080 N   0  0  0  0  0  0  0  0  0  0  0  0
   35.5540   25.9900   30.8890 C   0  0  0  0  0  0  0  0  0  0  0  0
   35.1900   24.6880   30.9150 N   0  0  0  0  0  0  0  0  0  0  0  0
   35.5320   22.7770   31.6230 H   0  0  0  0  0  0  0  0  0  0  0  0
   37.4740   23.3940   32.9660 H   0  0  0  0  0  0  0  0  0  0  0  0
   35.0270   26.7290   30.3130 H   0  0  0  0  0  0  0  0  0  0  0  0
   36.7650   27.2140   34.4550 C   0  0  0  0  0  3  0  0  0  0  0  0
   36.5740   28.5520   34.5170 C   0  0  0  0  0  3  0  0  0  0  0  0
   35.3030   29.3590   34.4340 C   0  0  0  0  0  2  0  0  0  0  0  0
   35.3500   29.9170   33.4890 H   0  0  0  0  0  0  0  0  0  0  0  0
  1  7  1  1  0  0  0
  1  6  1  0  0  0  0
  2  9  1  0  0  0  0
  2  1  1  0  0  0  0
  2  3  1  0  0  0  0
  3  4  1  0  0  0  0
  4 12  1  0  0  0  0
  4  5  1  0  0  0  0
  4 13  1  0  0  0  0
  5 14  1  0  0  0  0
  6 16  1  1  0  0  0
  6  5  1  0  0  0  0
  8  2  1  0  0  0  0
 10  3  1  0  0  0  0
 11  3  1  0  0  0  0
 15  5  1  0  0  0  0
 17 18  1  0  0  0  0
 18 24  1  0  0  0  0
 19 18  2  0  0  0  0
 19  1  1  0  0  0  0
 20 19  1  0  0  0  0
 21 22  1  0  0  0  0
 21 20  2  0  0  0  0
 22 17  2  0  0  0  0
 23 17  1  0  0  0  0
 25 21  1  0  0  0  0
 26 27  2  0  0  0  0
 26  6  1  0  0  0  0
 28 27  1  0  0  0  0
 29 28  1  0  0  0  0
M  END
>  <minimizedAffinity>
-4.44657707

$$$$

 OpenBabel03262523553D

 29 30  0  0  1  0  0  0  0  0999 V2000
   35.9430   21.4790   31.4740 C   0  0  1  0  0  0  0  0  0  0  0  0
   36.7640   20.3940   30.9320 C   0  0  0  0  0  0  0  0  0  0  0  0
   35.9430   19.1310   30.9400 C   0  0  0  0  0  0  0  0  0  0  0  0
   35.1380   19.0160   32.1860 C   0  0  0  0  0  0  0  0  0  0  0  0
   35.6100   19.8380   33.3270 C   0  0  0  0  0  0  0  0  0  0  0  0
   35.8760   21.2700   32.9900 C   0  0  1  0  0  0  0  0  0  0  0  0
   34.9000   21.4070   31.1060 H   0  0  0  0  0  0  0  0  0  0  0  0
   36.9880   20.6150   29.8510 H   0  0  0  0  0  0  0  0  0  0  0  0
   37.7340   20.2330   31.4210 H   0  0  0  0  0  0  0  0  0  0  0  0
   36.6730   18.2850   30.9460 H   0  0  0  0  0  0  0  0  0  0  0  0
   35.3680   19.0550   30.0100 H   0  0  0  0  0  0  0  0  0  0  0  0
   34.1010   19.3690   31.9320 H   0  0  0  0  0  0  0  0  0  0  0  0
   35.0060   17.9690   32.4950 H   0  0  0  0  0  0  0  0  0  0  0  0
   34.9310   19.7050   34.1880 H   0  0  0  0  0  0  0  0  0  0  0  0
   36.5830   19.3750   33.6670 H   0  0  0  0  0  0  0  0  0  0  0  0
   34.9870   21.8300   33.3330 H   0  0  0  0  0  0  0  0  0  0  0  0
   36.0020   25.2000   31.2730 C   0  0  0  0  0  0  0  0  0  0  0  0
   35.5240   23.8920   31.5050 C   0  0  0  0  0  0  0  0  0  0  0  0
   36.4100   22.8510   31.2510 C   0  0  0  0  0  0  0  0  0  0  0  0
   37.6800   23.1290   30.7960 N   0  0  0  0  0  0  0  0  0  0  0  0
   38.0920   24.3950   30.5870 C   0  0  0  0  0  0  0  0  0  0  0  0
   37.2520   25.4270   30.8260 N   0  0  0  0  0  0  0  0  0  0  0  0
   35.3890   26.0760   31.4400 H   0  0  0  0  0  0  0  0  0  0  0  0
   34.5130   23.8370   31.8580 H   0  0  0  0  0  0  0  0  0  0  0  0
   39.0970   24.5340   30.2310 H   0  0  0  0  0  0  0  0  0  0  0  0
   37.0600   21.8130   33.6990 C   0  0  0  0  0  3  0  0  0  0  0  0
   37.4070   21.7910   35.0060 C   0  0  0  0  0  3  0  0  0  0  0  0
   38.6220   22.3530   35.7000 C   0  0  0  0  0  2  0  0  0  0  0  0
   39.2060   21.4900   36.0510 H   0  0  0  0  0  0  0  0  0  0  0  0
  1  7  1  6  0  0  0
  1  6  1  0  0  0  0
  2  3  1  0  0  0  0
  2  9  1  0  0  0  0
  2  1  1  0  0  0  0
  3 10  1  0  0  0  0
  3  4  1  0  0  0  0
  4 13  1  0  0  0  0
  4  5  1  0  0  0  0
  5 15  1  0  0  0  0
  5 14  1  0  0  0  0
  6  5  1  0  0  0  0
  6 16  1  1  0  0  0
  6 26  1  0  0  0  0
  8  2  1  0  0  0  0
 11  3  1  0  0  0  0
 12  4  1  0  0  0  0
 17 23  1  0  0  0  0
 17 18  1  0  0  0  0
 18 24  1  0  0  0  0
 19  1  1  0  0  0  0
 19 18  2  0  0  0  0
 20 19  1  0  0  0  0
 21 20  2  0  0  0  0
 21 22  1  0  0  0  0
 22 17  2  0  0  0  0
 25 21  1  0  0  0  0
 26 27  2  0  0  0  0
 27 28  1  0  0  0  0
 28 29  1  0  0  0  0
M  END
>  <minimizedAffinity>
-4.34721136

$$$$

 OpenBabel03262523553D

 29 30  0  0  1  0  0  0  0  0999 V2000
   38.7530   22.8860   36.0180 C   0  0  1  0  0  0  0  0  0  0  0  0
   40.1010   23.1890   36.5090 C   0  0  0  0  0  0  0  0  0  0  0  0
   40.1790   22.7770   37.9550 C   0  0  0  0  0  0  0  0  0  0  0  0
   38.9330   23.1290   38.6880 C   0  0  0  0  0  0  0  0  0  0  0  0
   38.0960   24.1760   38.0530 C   0  0  0  0  0  0  0  0  0  0  0  0
   37.8200   23.9510   36.6010 C   0  0  1  0  0  0  0  0  0  0  0  0
   38.3980   21.9140   36.4130 H   0  0  0  0  0  0  0  0  0  0  0  0
   40.8400   22.5420   35.9580 H   0  0  0  0  0  0  0  0  0  0  0  0
   40.4410   24.2240   36.3780 H   0  0  0  0  0  0  0  0  0  0  0  0
   41.0030   23.3810   38.4070 H   0  0  0  0  0  0  0  0  0  0  0  0
   40.4740   21.7230   38.0270 H   0  0  0  0  0  0  0  0  0  0  0  0
   38.3120   22.1930   38.7340 H   0  0  0  0  0  0  0  0  0  0  0  0
   39.1320   23.3820   39.7400 H   0  0  0  0  0  0  0  0  0  0  0  0
   37.1850   24.3420   38.6560 H   0  0  0  0  0  0  0  0  0  0  0  0
   38.6730   25.1430   38.1500 H   0  0  0  0  0  0  0  0  0  0  0  0
   36.8030   23.5200   36.5510 H   0  0  0  0  0  0  0  0  0  0  0  0
   39.3260   23.4250   32.3750 C   0  0  0  0  0  0  0  0  0  0  0  0
   39.5540   23.4310   33.7680 C   0  0  0  0  0  0  0  0  0  0  0  0
   38.5520   22.8880   34.5660 C   0  0  0  0  0  0  0  0  0  0  0  0
   37.4120   22.3840   33.9820 N   0  0  0  0  0  0  0  0  0  0  0  0
   37.2370   22.4020   32.6450 C   0  0  0  0  0  0  0  0  0  0  0  0
   38.1960   22.9220   31.8460 N   0  0  0  0  0  0  0  0  0  0  0  0
   40.0460   23.8240   31.6720 H   0  0  0  0  0  0  0  0  0  0  0  0
   40.4890   23.8590   34.0710 H   0  0  0  0  0  0  0  0  0  0  0  0
   36.3210   21.9900   32.2610 H   0  0  0  0  0  0  0  0  0  0  0  0
   37.8230   25.2100   35.8180 C   0  0  0  0  0  3  0  0  0  0  0  0
   38.2490   26.4550   36.1280 C   0  0  0  0  0  3  0  0  0  0  0  0
   38.2400   27.7210   35.3080 C   0  0  0  0  0  2  0  0  0  0  0  0
   39.2910   27.9600   35.0930 H   0  0  0  0  0  0  0  0  0  0  0  0
  1  7  1  1  0  0  0
  1  2  1  0  0  0  0
  1  6  1  0  0  0  0
  2  3  1  0  0  0  0
  3 11  1  0  0  0  0
  3 10  1  0  0  0  0
  3  4  1  0  0  0  0
  4 12  1  0  0  0  0
  4 13  1  0  0  0  0
  5 15  1  0  0  0  0
  5 14  1  0  0  0  0
  5  4  1  0  0  0  0
  6 16  1  6  0  0  0
  6  5  1  0  0  0  0
  8  2  1  0  0  0  0
  9  2  1  0  0  0  0
 17 18  1  0  0  0  0
 18 24  1  0  0  0  0
 18 19  2  0  0  0  0
 19  1  1  0  0  0  0
 20 19  1  0  0  0  0
 21 20  2  0  0  0  0
 22 17  2  0  0  0  0
 22 21  1  0  0  0  0
 23 17  1  0  0  0  0
 25 21  1  0  0  0  0
 26 27  2  0  0  0  0
 26  6  1  0  0  0  0
 28 27  1  0  0  0  0
 29 28  1  0  0  0  0
M  END
>  <minimizedAffinity>
-4.32825661

$$$$

 OpenBabel03262523553D

 29 30  0  0  1  0  0  0  0  0999 V2000
   35.2190   28.7820   32.7740 C   0  0  1  0  0  0  0  0  0  0  0  0
   36.4780   28.9510   32.0440 C   0  0  0  0  0  0  0  0  0  0  0  0
   37.3400   27.7430   32.3030 C   0  0  0  0  0  0  0  0  0  0  0  0
   37.2600   27.3150   33.7250 C   0  0  0  0  0  0  0  0  0  0  0  0
   36.7800   28.3480   34.6750 C   0  0  0  0  0  0  0  0  0  0  0  0
   35.5260   29.0430   34.2520 C   0  0  1  0  0  0  0  0  0  0  0  0
   34.8650   27.7330   32.7120 H   0  0  0  0  0  0  0  0  0  0  0  0
   36.2590   28.9480   30.9390 H   0  0  0  0  0  0  0  0  0  0  0  0
   37.0330   29.8770   32.2450 H   0  0  0  0  0  0  0  0  0  0  0  0
   38.3940   28.0670   32.1200 H   0  0  0  0  0  0  0  0  0  0  0  0
   37.1120   26.9590   31.5710 H   0  0  0  0  0  0  0  0  0  0  0  0
   36.5260   26.4640   33.7640 H   0  0  0  0  0  0  0  0  0  0  0  0
   38.2060   26.8790   34.0770 H   0  0  0  0  0  0  0  0  0  0  0  0
   36.7280   27.9230   35.6930 H   0  0  0  0  0  0  0  0  0  0  0  0
   37.6010   29.1230   34.7390 H   0  0  0  0  0  0  0  0  0  0  0  0
   34.7090   28.5600   34.8180 H   0  0  0  0  0  0  0  0  0  0  0  0
   31.8150   30.2870   32.6100 C   0  0  0  0  0  0  0  0  0  0  0  0
   32.8670   29.4280   32.9930 C   0  0  0  0  0  0  0  0  0  0  0  0
   34.1060   29.6610   32.4050 C   0  0  0  0  0  0  0  0  0  0  0  0
   34.2510   30.6890   31.5000 N   0  0  0  0  0  0  0  0  0  0  0  0
   33.2150   31.4830   31.1640 C   0  0  0  0  0  0  0  0  0  0  0  0
   32.0000   31.2800   31.7210 N   0  0  0  0  0  0  0  0  0  0  0  0
   30.8140   30.1870   33.0110 H   0  0  0  0  0  0  0  0  0  0  0  0
   32.5980   28.6740   33.7060 H   0  0  0  0  0  0  0  0  0  0  0  0
   33.4050   32.2660   30.4510 H   0  0  0  0  0  0  0  0  0  0  0  0
   35.5290   30.4850   34.5930 C   0  0  0  0  0  3  0  0  0  0  0  0
   35.9560   31.1420   35.6950 C   0  0  0  0  0  3  0  0  0  0  0  0
   35.9480   32.6160   36.0150 C   0  0  0  0  0  2  0  0  0  0  0  0
   36.9980   32.9360   36.0330 H   0  0  0  0  0  0  0  0  0  0  0  0
  1  7  1  6  0  0  0
  1  6  1  0  0  0  0
  2  9  1  0  0  0  0
  2  3  1  0  0  0  0
  2  1  1  0  0  0  0
  3  4  1  0  0  0  0
  4 12  1  0  0  0  0
  4 13  1  0  0  0  0
  4  5  1  0  0  0  0
  5 15  1  0  0  0  0
  5 14  1  0  0  0  0
  6 26  1  0  0  0  0
  6  5  1  0  0  0  0
  6 16  1  1  0  0  0
  8  2  1  0  0  0  0
 10  3  1  0  0  0  0
 11  3  1  0  0  0  0
 17 18  1  0  0  0  0
 17 23  1  0  0  0  0
 18 24  1  0  0  0  0
 19  1  1  0  0  0  0
 19 18  2  0  0  0  0
 20 19  1  0  0  0  0
 21 20  2  0  0  0  0
 21 22  1  0  0  0  0
 22 17  2  0  0  0  0
 25 21  1  0  0  0  0
 26 27  2  0  0  0  0
 27 28  1  0  0  0  0
 28 29  1  0  0  0  0
M  END
>  <minimizedAffinity>
-4.30533981

$$$$

 OpenBabel03262523553D

 29 30  0  0  1  0  0  0  0  0999 V2000
   38.5960   22.9020   36.2680 C   0  0  1  0  0  0  0  0  0  0  0  0
   39.6270   22.9370   37.3090 C   0  0  0  0  0  0  0  0  0  0  0  0
   38.9580   23.2400   38.6240 C   0  0  0  0  0  0  0  0  0  0  0  0
   37.9020   24.2760   38.4700 C   0  0  0  0  0  0  0  0  0  0  0  0
   38.0110   25.1200   37.2550 C   0  0  0  0  0  0  0  0  0  0  0  0
   38.2020   24.3540   35.9860 C   0  0  1  0  0  0  0  0  0  0  0  0
   37.6800   22.3990   36.6360 H   0  0  0  0  0  0  0  0  0  0  0  0
   40.0720   21.9070   37.4130 H   0  0  0  0  0  0  0  0  0  0  0  0
   40.4680   23.6200   37.1320 H   0  0  0  0  0  0  0  0  0  0  0  0
   39.7480   23.6770   39.2820 H   0  0  0  0  0  0  0  0  0  0  0  0
   38.6250   22.3070   39.0960 H   0  0  0  0  0  0  0  0  0  0  0  0
   36.9220   23.7290   38.4050 H   0  0  0  0  0  0  0  0  0  0  0  0
   37.8090   24.9040   39.3680 H   0  0  0  0  0  0  0  0  0  0  0  0
   37.1680   25.8320   37.2200 H   0  0  0  0  0  0  0  0  0  0  0  0
   38.9210   25.7730   37.4060 H   0  0  0  0  0  0  0  0  0  0  0  0
   37.2060   24.3080   35.5090 H   0  0  0  0  0  0  0  0  0  0  0  0
   38.3200   21.3390   32.8960 C   0  0  0  0  0  0  0  0  0  0  0  0
   37.9360   21.9230   34.1220 C   0  0  0  0  0  0  0  0  0  0  0  0
   38.9610   22.2990   34.9820 C   0  0  0  0  0  0  0  0  0  0  0  0
   40.2720   22.0910   34.6150 N   0  0  0  0  0  0  0  0  0  0  0  0
   40.5920   21.5260   33.4340 C   0  0  0  0  0  0  0  0  0  0  0  0
   39.6150   21.1530   32.5770 N   0  0  0  0  0  0  0  0  0  0  0  0
   37.5960   21.0130   32.1600 H   0  0  0  0  0  0  0  0  0  0  0  0
   36.8770   22.0180   34.2650 H   0  0  0  0  0  0  0  0  0  0  0  0
   41.6370   21.3960   33.2150 H   0  0  0  0  0  0  0  0  0  0  0  0
   39.1280   25.0300   35.0450 C   0  0  0  0  0  3  0  0  0  0  0  0
   39.6570   26.2750   35.0510 C   0  0  0  0  0  3  0  0  0  0  0  0
   40.6000   26.9360   34.0790 C   0  0  0  0  0  2  0  0  0  0  0  0
   41.5500   27.0760   34.6130 H   0  0  0  0  0  0  0  0  0  0  0  0
  1  7  1  1  0  0  0
  1  2  1  0  0  0  0
  2  8  1  0  0  0  0
  2  3  1  0  0  0  0
  3 11  1  0  0  0  0
  3 10  1  0  0  0  0
  4  3  1  0  0  0  0
  4 13  1  0  0  0  0
  5 15  1  0  0  0  0
  5  4  1  0  0  0  0
  6 16  1  6  0  0  0
  6  1  1  0  0  0  0
  6  5  1  0  0  0  0
  9  2  1  0  0  0  0
 12  4  1  0  0  0  0
 14  5  1  0  0  0  0
 17 18  1  0  0  0  0
 18 24  1  0  0  0  0
 18 19  2  0  0  0  0
 19  1  1  0  0  0  0
 20 19  1  0  0  0  0
 21 20  2  0  0  0  0
 22 17  2  0  0  0  0
 22 21  1  0  0  0  0
 23 17  1  0  0  0  0
 25 21  1  0  0  0  0
 26 27  2  0  0  0  0
 26  6  1  0  0  0  0
 28 29  1  0  0  0  0
 28 27  1  0  0  0  0
M  END
>  <minimizedAffinity>
-4.30276394

$$$$

 OpenBabel03262523553D

 29 30  0  0  1  0  0  0  0  0999 V2000
   38.8790   24.8290   36.1250 C   0  0  1  0  0  0  0  0  0  0  0  0
   37.7330   24.4690   36.9640 C   0  0  0  0  0  0  0  0  0  0  0  0
   38.2550   23.9120   38.2620 C   0  0  0  0  0  0  0  0  0  0  0  0
   39.4280   23.0250   38.0400 C   0  0  0  0  0  0  0  0  0  0  0  0
   39.5680   22.4890   36.6630 C   0  0  0  0  0  0  0  0  0  0  0  0
   39.4610   23.5190   35.5850 C   0  0  1  0  0  0  0  0  0  0  0  0
   39.6800   25.2960   36.7310 H   0  0  0  0  0  0  0  0  0  0  0  0
   37.1700   25.4080   37.2290 H   0  0  0  0  0  0  0  0  0  0  0  0
   36.9990   23.7870   36.5130 H   0  0  0  0  0  0  0  0  0  0  0  0
   37.4380   23.2730   38.6780 H   0  0  0  0  0  0  0  0  0  0  0  0
   38.4220   24.7280   38.9760 H   0  0  0  0  0  0  0  0  0  0  0  0
   40.3430   23.6440   38.2480 H   0  0  0  0  0  0  0  0  0  0  0  0
   39.4720   22.2090   38.7760 H   0  0  0  0  0  0  0  0  0  0  0  0
   40.4810   21.8710   36.5950 H   0  0  0  0  0  0  0  0  0  0  0  0
   38.7220   21.7520   36.5250 H   0  0  0  0  0  0  0  0  0  0  0  0
   40.4990   23.7510   35.2860 H   0  0  0  0  0  0  0  0  0  0  0  0
   39.4270   27.0730   33.2010 C   0  0  0  0  0  0  0  0  0  0  0  0
   39.7110   26.2410   34.3050 C   0  0  0  0  0  0  0  0  0  0  0  0
   38.6190   25.6910   34.9680 C   0  0  0  0  0  0  0  0  0  0  0  0
   37.3430   25.9730   34.5350 N   0  0  0  0  0  0  0  0  0  0  0  0
   37.1200   26.7770   33.4750 C   0  0  0  0  0  0  0  0  0  0  0  0
   38.1630   27.3230   32.8110 N   0  0  0  0  0  0  0  0  0  0  0  0
   40.2080   27.5470   32.6200 H   0  0  0  0  0  0  0  0  0  0  0  0
   40.7540   26.1170   34.5210 H   0  0  0  0  0  0  0  0  0  0  0  0
   36.0960   26.9510   33.1950 H   0  0  0  0  0  0  0  0  0  0  0  0
   38.7420   23.0200   34.3880 C   0  0  0  0  0  3  0  0  0  0  0  0
   37.8930   21.9790   34.2250 C   0  0  0  0  0  3  0  0  0  0  0  0
   37.1740   21.4930   32.9920 C   0  0  0  0  0  2  0  0  0  0  0  0
   36.1050   21.6860   33.1600 H   0  0  0  0  0  0  0  0  0  0  0  0
  1  7  1  1  0  0  0
  1  2  1  0  0  0  0
  2  8  1  0  0  0  0
  2  3  1  0  0  0  0
  3 10  1  0  0  0  0
  3 11  1  0  0  0  0
  4 12  1  0  0  0  0
  4  3  1  0  0  0  0
  4 13  1  0  0  0  0
  5  4  1  0  0  0  0
  6 16  1  6  0  0  0
  6  1  1  0  0  0  0
  6  5  1  0  0  0  0
  9  2  1  0  0  0  0
 14  5  1  0  0  0  0
 15  5  1  0  0  0  0
 17 18  1  0  0  0  0
 18 24  1  0  0  0  0
 18 19  2  0  0  0  0
 19  1  1  0  0  0  0
 20 19  1  0  0  0  0
 21 20  2  0  0  0  0
 22 17  2  0  0  0  0
 22 21  1  0  0  0  0
 23 17  1  0  0  0  0
 25 21  1  0  0  0  0
 26  6  1  0  0  0  0
 27 26  2  0  0  0  0
 28 29  1  0  0  0  0
 28 27  1  0  0  0  0
M  END
>  <minimizedAffinity>
-4.1932888

$$$$

 OpenBabel03262523553D

 29 30  0  0  1  0  0  0  0  0999 V2000
   37.3700   26.1070   34.2510 C   0  0  1  0  0  0  0  0  0  0  0  0
   37.2600   27.3670   34.9910 C   0  0  0  0  0  0  0  0  0  0  0  0
   36.3700   28.2970   34.2080 C   0  0  0  0  0  0  0  0  0  0  0  0
   36.6490   28.2160   32.7490 C   0  0  0  0  0  0  0  0  0  0  0  0
   37.9730   27.6540   32.3860 C   0  0  0  0  0  0  0  0  0  0  0  0
   38.3090   26.3680   33.0690 C   0  0  1  0  0  0  0  0  0  0  0  0
   36.3940   25.8200   33.8130 H   0  0  0  0  0  0  0  0  0  0  0  0
   36.7290   27.1700   35.9640 H   0  0  0  0  0  0  0  0  0  0  0  0
   38.2060   27.8590   35.2510 H   0  0  0  0  0  0  0  0  0  0  0  0
   36.6380   29.3320   34.5330 H   0  0  0  0  0  0  0  0  0  0  0  0
   35.3220   28.1320   34.4870 H   0  0  0  0  0  0  0  0  0  0  0  0
   35.8700   27.5350   32.3110 H   0  0  0  0  0  0  0  0  0  0  0  0
   36.4890   29.1800   32.2460 H   0  0  0  0  0  0  0  0  0  0  0  0
   38.0690   27.6090   31.2860 H   0  0  0  0  0  0  0  0  0  0  0  0
   38.7390   28.4240   32.7000 H   0  0  0  0  0  0  0  0  0  0  0  0
   38.0950   25.5710   32.3340 H   0  0  0  0  0  0  0  0  0  0  0  0
   38.7040   23.9660   36.9940 C   0  0  0  0  0  0  0  0  0  0  0  0
   38.1840   25.0970   36.3290 C   0  0  0  0  0  0  0  0  0  0  0  0
   37.9040   24.9490   34.9750 C   0  0  0  0  0  0  0  0  0  0  0  0
   38.1380   23.7410   34.3560 N   0  0  0  0  0  0  0  0  0  0  0  0
   38.6380   22.6880   35.0330 C   0  0  0  0  0  0  0  0  0  0  0  0
   38.9190   22.8040   36.3510 N   0  0  0  0  0  0  0  0  0  0  0  0
   38.9540   23.9810   38.0480 H   0  0  0  0  0  0  0  0  0  0  0  0
   38.0580   25.9660   36.9450 H   0  0  0  0  0  0  0  0  0  0  0  0
   38.7940   21.7770   34.4830 H   0  0  0  0  0  0  0  0  0  0  0  0
   39.7410   26.2750   33.4400 C   0  0  0  0  0  3  0  0  0  0  0  0
   40.7200   27.2080   33.4670 C   0  0  0  0  0  3  0  0  0  0  0  0
   42.1730   27.0850   33.8510 C   0  0  0  0  0  2  0  0  0  0  0  0
   42.2980   27.6550   34.7820 H   0  0  0  0  0  0  0  0  0  0  0  0
  1  7  1  6  0  0  0
  1 19  1  0  0  0  0
  1  2  1  0  0  0  0
  2  9  1  0  0  0  0
  2  8  1  0  0  0  0
  3 11  1  0  0  0  0
  3 10  1  0  0  0  0
  3  2  1  0  0  0  0
  4  3  1  0  0  0  0
  5 15  1  0  0  0  0
  5  4  1  0  0  0  0
  5  6  1  0  0  0  0
  6 16  1  6  0  0  0
  6 26  1  0  0  0  0
  6  1  1  0  0  0  0
 12  4  1  0  0  0  0
 13  4  1  0  0  0  0
 14  5  1  0  0  0  0
 17 23  1  0  0  0  0
 18 24  1  0  0  0  0
 18 17  2  0  0  0  0
 19 18  1  0  0  0  0
 20 19  2  0  0  0  0
 20 21  1  0  0  0  0
 21 22  2  0  0  0  0
 22 17  1  0  0  0  0
 25 21  1  0  0  0  0
 26 27  2  0  0  0  0
 27 28  1  0  0  0  0
 28 29  1  0  0  0  0
M  END
>  <minimizedAffinity>
-4.1894474

$$$$

 OpenBabel03262523553D

 29 30  0  0  1  0  0  0  0  0999 V2000
   38.1910   27.2450   33.4100 C   0  0  1  0  0  0  0  0  0  0  0  0
   37.3660   27.6050   34.5660 C   0  0  0  0  0  0  0  0  0  0  0  0
   38.1430   27.2870   35.8170 C   0  0  0  0  0  0  0  0  0  0  0  0
   38.8700   25.9950   35.6910 C   0  0  0  0  0  0  0  0  0  0  0  0
   38.3590   25.0790   34.6410 C   0  0  0  0  0  0  0  0  0  0  0  0
   38.1620   25.7170   33.3050 C   0  0  1  0  0  0  0  0  0  0  0  0
   39.2510   27.5230   33.5790 H   0  0  0  0  0  0  0  0  0  0  0  0
   37.2140   28.7210   34.5680 H   0  0  0  0  0  0  0  0  0  0  0  0
   36.3650   27.1580   34.6030 H   0  0  0  0  0  0  0  0  0  0  0  0
   37.3860   27.1550   36.6290 H   0  0  0  0  0  0  0  0  0  0  0  0
   38.7690   28.1430   36.0960 H   0  0  0  0  0  0  0  0  0  0  0  0
   39.9310   26.2490   35.4200 H   0  0  0  0  0  0  0  0  0  0  0  0
   38.9480   25.4700   36.6540 H   0  0  0  0  0  0  0  0  0  0  0  0
   38.9820   24.1670   34.6080 H   0  0  0  0  0  0  0  0  0  0  0  0
   37.3530   24.7140   35.0040 H   0  0  0  0  0  0  0  0  0  0  0  0
   39.0480   25.4400   32.7040 H   0  0  0  0  0  0  0  0  0  0  0  0
   38.2160   28.0940   29.7820 C   0  0  0  0  0  0  0  0  0  0  0  0
   38.6330   27.5660   31.0230 C   0  0  0  0  0  0  0  0  0  0  0  0
   37.7840   27.7730   32.1050 C   0  0  0  0  0  0  0  0  0  0  0  0
   36.6070   28.4650   31.9280 N   0  0  0  0  0  0  0  0  0  0  0  0
   36.2510   28.9530   30.7230 C   0  0  0  0  0  0  0  0  0  0  0  0
   37.0560   28.7650   29.6530 N   0  0  0  0  0  0  0  0  0  0  0  0
   38.8060   27.9850   28.8810 H   0  0  0  0  0  0  0  0  0  0  0  0
   39.5740   27.0530   31.0020 H   0  0  0  0  0  0  0  0  0  0  0  0
   35.3160   29.4830   30.6610 H   0  0  0  0  0  0  0  0  0  0  0  0
   36.9580   25.2120   32.6030 C   0  0  0  0  0  3  0  0  0  0  0  0
   36.7570   24.1010   31.8580 C   0  0  0  0  0  3  0  0  0  0  0  0
   35.5170   23.6100   31.1540 C   0  0  0  0  0  2  0  0  0  0  0  0
   35.1980   22.7020   31.6840 H   0  0  0  0  0  0  0  0  0  0  0  0
  1  7  1  1  0  0  0
  1  2  1  0  0  0  0
  2  8  1  0  0  0  0
  2  9  1  0  0  0  0
  2  3  1  0  0  0  0
  3 11  1  0  0  0  0
  3 10  1  0  0  0  0
  4  3  1  0  0  0  0
  4 13  1  0  0  0  0
  5 15  1  0  0  0  0
  5  4  1  0  0  0  0
  6 16  1  6  0  0  0
  6  1  1  0  0  0  0
  6  5  1  0  0  0  0
 12  4  1  0  0  0  0
 14  5  1  0  0  0  0
 17 18  1  0  0  0  0
 18 19  2  0  0  0  0
 19  1  1  0  0  0  0
 20 19  1  0  0  0  0
 21 20  2  0  0  0  0
 22 17  2  0  0  0  0
 22 21  1  0  0  0  0
 23 17  1  0  0  0  0
 24 18  1  0  0  0  0
 25 21  1  0  0  0  0
 26  6  1  0  0  0  0
 27 26  2  0  0  0  0
 28 29  1  0  0  0  0
 28 27  1  0  0  0  0
M  END
>  <minimizedAffinity>
-4.13491297

$$$$

 OpenBabel03262523553D

 29 30  0  0  1  0  0  0  0  0999 V2000
   37.2000   21.0630   33.0670 C   0  0  1  0  0  0  0  0  0  0  0  0
   35.8990   20.7600   33.6690 C   0  0  0  0  0  0  0  0  0  0  0  0
   35.3750   19.4930   33.0460 C   0  0  0  0  0  0  0  0  0  0  0  0
   35.6360   19.4600   31.5810 C   0  0  0  0  0  0  0  0  0  0  0  0
   35.9010   20.7780   30.9530 C   0  0  0  0  0  0  0  0  0  0  0  0
   36.9220   21.6080   31.6630 C   0  0  1  0  0  0  0  0  0  0  0  0
   37.7960   20.1390   32.9280 H   0  0  0  0  0  0  0  0  0  0  0  0
   36.0510   20.5320   34.7620 H   0  0  0  0  0  0  0  0  0  0  0  0
   35.1470   21.5590   33.6230 H   0  0  0  0  0  0  0  0  0  0  0  0
   34.2650   19.5170   33.1770 H   0  0  0  0  0  0  0  0  0  0  0  0
   35.7470   18.6230   33.6000 H   0  0  0  0  0  0  0  0  0  0  0  0
   36.5570   18.8330   31.4340 H   0  0  0  0  0  0  0  0  0  0  0  0
   34.8460   18.9260   31.0340 H   0  0  0  0  0  0  0  0  0  0  0  0
   36.1120   20.6420   29.8770 H   0  0  0  0  0  0  0  0  0  0  0  0
   34.9210   21.3400   30.9750 H   0  0  0  0  0  0  0  0  0  0  0  0
   37.8630   21.4770   31.0970 H   0  0  0  0  0  0  0  0  0  0  0  0
   40.0690   23.2980   33.8790 C   0  0  0  0  0  0  0  0  0  0  0  0
   39.2800   22.3500   33.1930 C   0  0  0  0  0  0  0  0  0  0  0  0
   38.0420   22.0500   33.7500 C   0  0  0  0  0  0  0  0  0  0  0  0
   37.6490   22.6690   34.9160 N   0  0  0  0  0  0  0  0  0  0  0  0
   38.4390   23.5670   35.5380 C   0  0  0  0  0  0  0  0  0  0  0  0
   39.6470   23.8790   35.0170 N   0  0  0  0  0  0  0  0  0  0  0  0
   41.0480   23.5980   33.5250 H   0  0  0  0  0  0  0  0  0  0  0  0
   39.7230   21.9550   32.3000 H   0  0  0  0  0  0  0  0  0  0  0  0
   38.0640   24.0100   36.4440 H   0  0  0  0  0  0  0  0  0  0  0  0
   36.5850   23.0510   31.6620 C   0  0  0  0  0  3  0  0  0  0  0  0
   35.5240   23.7220   31.1560 C   0  0  0  0  0  3  0  0  0  0  0  0
   35.2070   25.1960   31.1710 C   0  0  0  0  0  2  0  0  0  0  0  0
   34.3320   25.3190   31.8250 H   0  0  0  0  0  0  0  0  0  0  0  0
  1  7  1  6  0  0  0
  1  2  1  0  0  0  0
  1 19  1  0  0  0  0
  2  8  1  0  0  0  0
  3 10  1  0  0  0  0
  3 11  1  0  0  0  0
  3  2  1  0  0  0  0
  4  3  1  0  0  0  0
  5 15  1  0  0  0  0
  5  4  1  0  0  0  0
  5  6  1  0  0  0  0
  6 16  1  6  0  0  0
  6  1  1  0  0  0  0
  9  2  1  0  0  0  0
 12  4  1  0  0  0  0
 13  4  1  0  0  0  0
 14  5  1  0  0  0  0
 17 22  1  0  0  0  0
 18 19  1  0  0  0  0
 18 17  2  0  0  0  0
 19 20  2  0  0  0  0
 20 21  1  0  0  0  0
 21 25  1  0  0  0  0
 22 21  2  0  0  0  0
 23 17  1  0  0  0  0
 24 18  1  0  0  0  0
 26  6  1  0  0  0  0
 27 28  1  0  0  0  0
 27 26  2  0  0  0  0
 28 29  1  0  0  0  0
M  END
>  <minimizedAffinity>
-4.10554934

$$$$
