
 OpenBabel03272506533D

 39 41  0  0  1  0  0  0  0  0999 V2000
   35.3190   30.5090   48.1630 C   0  0  1  0  0  0  0  0  0  0  0  0
   33.9520   30.5900   47.7080 C   0  0  0  0  0  0  0  0  0  0  0  0
   33.2580   29.2750   47.4290 C   0  0  0  0  0  0  0  0  0  0  0  0
   33.5040   28.1880   48.3670 C   0  0  2  0  0  0  0  0  0  0  0  0
   34.9140   28.0900   48.9330 C   0  0  0  0  0  0  0  0  0  0  0  0
   35.4740   29.4580   49.2320 C   0  0  0  0  0  0  0  0  0  0  0  0
   35.5610   31.4710   48.7220 H   0  0  0  0  0  0  0  0  0  0  0  0
   33.3280   31.0370   48.5380 H   0  0  0  0  0  0  0  0  0  0  0  0
   33.7360   31.2350   46.8530 H   0  0  0  0  0  0  0  0  0  0  0  0
   33.7860   28.9670   46.4610 H   0  0  0  0  0  0  0  0  0  0  0  0
   32.1930   29.4420   47.2600 H   0  0  0  0  0  0  0  0  0  0  0  0
   32.8620   28.1880   49.2680 H   0  0  0  0  0  0  0  0  0  0  0  0
   34.8800   27.6890   49.9450 H   0  0  0  0  0  0  0  0  0  0  0  0
   35.5930   27.5940   48.2350 H   0  0  0  0  0  0  0  0  0  0  0  0
   36.5640   29.3250   49.3980 H   0  0  0  0  0  0  0  0  0  0  0  0
   35.0890   29.8920   50.2020 H   0  0  0  0  0  0  0  0  0  0  0  0
   33.2500   26.9110   47.6520 C   0  0  0  0  0  0  0  0  0  0  0  0
   34.1860   26.4790   46.7220 C   0  0  0  0  0  0  0  0  0  0  0  0
   34.0080   25.3140   46.0020 C   0  0  0  0  0  0  0  0  0  0  0  0
   32.8840   24.5780   46.2190 C   0  0  0  0  0  0  0  0  0  0  0  0
   31.9420   24.9960   47.1380 C   0  0  0  0  0  0  0  0  0  0  0  0
   32.1360   26.1740   47.8510 C   0  0  0  0  0  0  0  0  0  0  0  0
   35.1110   26.9330   46.4030 H   0  0  0  0  0  0  0  0  0  0  0  0
   34.7060   24.9260   45.2620 H   0  0  0  0  0  0  0  0  0  0  0  0
   32.7340   23.6430   45.6510 H   0  0  0  0  0  0  0  0  0  0  0  0
   31.0990   24.3250   47.2030 H   0  0  0  0  0  0  0  0  0  0  0  0
   31.0070   26.5630   48.6160 C   0  0  0  0  0  3  0  0  0  0  0  0
   29.9970   27.3980   48.5270 C   0  0  0  0  0  3  0  0  0  0  0  0
   29.6100   28.3610   47.4650 C   0  0  0  0  0  2  0  0  0  0  0  0
   30.1860   29.2960   47.4740 H   0  0  0  0  0  0  0  0  0  0  0  0
   36.1450   30.3190   45.8150 C   0  0  0  0  0  0  0  0  0  0  0  0
   36.3980   30.4660   47.1680 C   0  0  0  0  0  0  0  0  0  0  0  0
   37.7370   30.5810   47.5610 C   0  0  0  0  0  0  0  0  0  0  0  0
   38.7110   30.5420   46.6100 N   0  0  0  0  0  0  0  0  0  0  0  0
   38.4130   30.3950   45.2950 C   0  0  0  0  0  0  0  0  0  0  0  0
   37.1140   30.2820   44.8980 N   0  0  0  0  0  0  0  0  0  0  0  0
   35.1940   30.2350   45.3240 H   0  0  0  0  0  0  0  0  0  0  0  0
   37.9870   30.6980   48.6030 H   0  0  0  0  0  0  0  0  0  0  0  0
   39.2570   30.3770   44.6270 H   0  0  0  0  0  0  0  0  0  0  0  0
  1  7  1  1  0  0  0
  1  6  1  0  0  0  0
  2  1  1  0  0  0  0
  2  8  1  0  0  0  0
  3  2  1  0  0  0  0
  3  4  1  0  0  0  0
  4  5  1  0  0  0  0
  4 12  1  1  0  0  0
  5  6  1  0  0  0  0
  5 13  1  0  0  0  0
  6 15  1  0  0  0  0
  6 16  1  0  0  0  0
  9  2  1  0  0  0  0
 10  3  1  0  0  0  0
 11  3  1  0  0  0  0
 14  5  1  0  0  0  0
 17 22  1  0  0  0  0
 17  4  1  0  0  0  0
 18 17  2  0  0  0  0
 19 20  2  0  0  0  0
 19 18  1  0  0  0  0
 20 21  1  0  0  0  0
 21 26  1  0  0  0  0
 21 22  2  0  0  0  0
 22 27  1  0  0  0  0
 23 18  1  0  0  0  0
 24 19  1  0  0  0  0
 25 20  1  0  0  0  0
 28 27  2  0  0  0  0
 29 30  1  0  0  0  0
 29 28  1  0  0  0  0
 31 32  1  0  0  0  0
 32 33  2  0  0  0  0
 32  1  1  0  0  0  0
 33 38  1  0  0  0  0
 34 33  1  0  0  0  0
 35 34  2  0  0  0  0
 36 35  1  0  0  0  0
 36 31  2  0  0  0  0
 37 31  1  0  0  0  0
 39 35  1  0  0  0  0
M  END
>  <minimizedAffinity>
-4.66576576

>  <minimizedRMSD>
2.37950492

$$$$
