
 OpenBabel03272502063D

 34 36  0  0  0  0  0  0  0  0999 V2000
   34.4940   30.1180   47.8560 F   0  0  0  0  0  0  0  0  0  0  0  0
   34.9210   29.8530   46.5790 C   0  0  0  0  0  0  0  0  0  0  0  0
   34.1180   29.2040   45.6600 C   0  0  0  0  0  0  0  0  0  0  0  0
   34.6100   28.9850   44.3890 C   0  0  0  0  0  0  0  0  0  0  0  0
   35.8950   29.4120   44.0360 C   0  0  0  0  0  0  0  0  0  0  0  0
   36.6450   30.0560   45.0070 C   0  0  0  0  0  0  0  0  0  0  0  0
   36.2040   30.2880   46.2540 C   0  0  0  0  0  0  0  0  0  0  0  0
   33.9320   28.4750   43.7280 H   0  0  0  0  0  0  0  0  0  0  0  0
   36.2340   29.2200   43.0360 H   0  0  0  0  0  0  0  0  0  0  0  0
   37.6250   30.3550   44.6620 H   0  0  0  0  0  0  0  0  0  0  0  0
   38.1930   32.4690   45.2060 Br  0  0  0  0  0  0  0  0  0  0  0  0
   37.9630   31.9570   47.0270 C   0  0  0  0  0  0  0  0  0  0  0  0
   37.0500   30.9550   47.2250 C   0  0  0  0  0  0  0  0  0  0  0  0
   36.8550   30.4940   48.5390 C   0  0  0  0  0  0  0  0  0  0  0  0
   37.5540   31.0310   49.5740 C   0  0  0  0  0  0  0  0  0  0  0  0
   38.4540   32.0340   49.3050 C   0  0  0  0  0  0  0  0  0  0  0  0
   38.6770   32.5220   48.0050 C   0  0  0  0  0  0  0  0  0  0  0  0
   36.1560   29.7080   48.7920 H   0  0  0  0  0  0  0  0  0  0  0  0
   37.4500   30.7190   50.6090 H   0  0  0  0  0  0  0  0  0  0  0  0
   39.0380   32.4950   50.1050 H   0  0  0  0  0  0  0  0  0  0  0  0
   39.5470   33.5100   47.6670 O   0  0  0  0  0  0  0  0  0  0  0  0
   40.5360   33.4620   47.5500 H   0  0  0  0  0  0  0  0  0  0  0  0
   32.6950   27.5480   46.6720 C   0  0  0  0  0  0  0  0  0  0  0  0
   32.8250   28.8170   46.1420 C   0  0  0  0  0  0  0  0  0  0  0  0
   31.7020   29.6210   46.1230 C   0  0  0  0  0  0  0  0  0  0  0  0
   30.5260   29.1550   46.6150 N   0  0  0  0  0  0  0  0  0  0  0  0
   30.4360   27.9290   47.1170 C   0  0  0  0  0  0  0  0  0  0  0  0
   31.5000   27.1280   47.1520 N   0  0  0  0  0  0  0  0  0  0  0  0
   33.5060   26.8180   46.7450 H   0  0  0  0  0  0  0  0  0  0  0  0
   31.8450   30.5990   45.7010 H   0  0  0  0  0  0  0  0  0  0  0  0
   29.1500   27.4470   47.6450 C   0  0  0  0  0  0  0  0  0  0  0  0
   28.8840   27.4630   48.9430 C   0  0  0  0  0  0  0  0  0  0  0  0
   29.8550   27.9630   49.9260 C   0  0  0  0  0  0  0  0  0  0  0  0
   30.0910   29.0390   49.8490 H   0  0  0  0  0  0  0  0  0  0  0  0
  2  1  1  0  0  0  0
  3 24  1  0  0  0  0
  3  2  2  0  0  0  0
  4  3  1  0  0  0  0
  5  4  2  0  0  0  0
  5  6  1  0  0  0  0
  6  7  2  0  0  0  0
  7  2  1  0  0  0  0
  7 13  1  0  0  0  0
  8  4  1  0  0  0  0
  9  5  1  0  0  0  0
 10  6  1  0  0  0  0
 11 12  1  0  0  0  0
 12 13  2  0  0  0  0
 12 17  1  0  0  0  0
 13 14  1  0  0  0  0
 14 18  1  0  0  0  0
 14 15  2  0  0  0  0
 15 19  1  0  0  0  0
 16 15  1  0  0  0  0
 16 20  1  0  0  0  0
 17 16  2  0  0  0  0
 21 17  1  0  0  0  0
 22 21  1  0  0  0  0
 23 29  1  0  0  0  0
 23 28  1  0  0  0  0
 24 23  2  0  0  0  0
 25 24  1  0  0  0  0
 25 26  2  0  0  0  0
 26 27  1  0  0  0  0
 27 28  2  0  0  0  0
 27 31  1  0  0  0  0
 30 25  1  0  0  0  0
 31 32  2  0  0  0  0
 32 33  1  0  0  0  0
 34 33  1  0  0  0  0
M  END
>  <minimizedAffinity>
-5.99539995

>  <minimizedRMSD>
1.0337137

$$$$
