
 OpenBabel03272505543D

 29 30  0  0  1  0  0  0  0  0999 V2000
   35.4510   30.3070   49.4770 C   0  0  2  0  0  0  0  0  0  0  0  0
   36.4380   31.0100   48.5680 C   0  0  0  0  0  0  0  0  0  0  0  0
   37.8550   30.5770   48.7960 C   0  0  2  0  0  0  0  0  0  0  0  0
   38.2910   30.6930   50.2340 C   0  0  0  0  0  0  0  0  0  0  0  0
   37.2300   30.2830   51.2100 C   0  0  0  0  0  0  0  0  0  0  0  0
   36.1130   29.5040   50.5430 C   0  0  0  0  0  0  0  0  0  0  0  0
   34.7940   31.0770   49.9190 H   0  0  0  0  0  0  0  0  0  0  0  0
   36.1830   30.7810   47.5320 H   0  0  0  0  0  0  0  0  0  0  0  0
   36.4060   32.1040   48.7210 H   0  0  0  0  0  0  0  0  0  0  0  0
   37.9420   29.5320   48.4410 H   0  0  0  0  0  0  0  0  0  0  0  0
   39.1210   29.9420   50.3560 H   0  0  0  0  0  0  0  0  0  0  0  0
   38.7520   31.6730   50.4550 H   0  0  0  0  0  0  0  0  0  0  0  0
   37.6010   29.7410   52.0900 H   0  0  0  0  0  0  0  0  0  0  0  0
   36.7410   31.2430   51.5490 H   0  0  0  0  0  0  0  0  0  0  0  0
   36.5830   28.5790   50.1400 H   0  0  0  0  0  0  0  0  0  0  0  0
   35.4100   29.2220   51.3360 H   0  0  0  0  0  0  0  0  0  0  0  0
   34.5900   29.3890   48.6750 C   0  0  0  0  0  0  0  0  0  0  0  0
   34.0980   29.9010   47.4610 C   0  0  0  0  0  0  0  0  0  0  0  0
   33.2830   29.0540   46.7080 C   0  0  0  0  0  0  0  0  0  0  0  0
   33.0100   27.7880   47.1860 N   0  0  0  0  0  0  0  0  0  0  0  0
   33.5070   27.3390   48.3590 C   0  0  0  0  0  0  0  0  0  0  0  0
   34.2930   28.1530   49.0860 N   0  0  0  0  0  0  0  0  0  0  0  0
   34.2730   30.8670   47.0470 H   0  0  0  0  0  0  0  0  0  0  0  0
   32.8700   29.3870   45.7630 H   0  0  0  0  0  0  0  0  0  0  0  0
   33.2330   26.3330   48.6410 H   0  0  0  0  0  0  0  0  0  0  0  0
   38.7210   31.5230   48.0340 C   0  0  0  0  0  3  0  0  0  0  0  0
   38.8170   32.8160   48.2760 C   0  0  0  0  0  3  0  0  0  0  0  0
   38.0080   33.3800   49.3830 C   0  0  0  0  0  2  0  0  0  0  0  0
   38.1950   32.7710   50.2960 H   0  0  0  0  0  0  0  0  0  0  0  0
  1  7  1  1  0  0  0
  1  6  1  0  0  0  0
  2  9  1  0  0  0  0
  2  3  1  0  0  0  0
  2  1  1  0  0  0  0
  3 10  1  6  0  0  0
  3  4  1  0  0  0  0
  4 11  1  0  0  0  0
  4 12  1  0  0  0  0
  4  5  1  0  0  0  0
  5 14  1  0  0  0  0
  5 13  1  0  0  0  0
  6  5  1  0  0  0  0
  6 16  1  0  0  0  0
  8  2  1  0  0  0  0
 15  6  1  0  0  0  0
 17 22  1  0  0  0  0
 17  1  1  0  0  0  0
 18 17  2  0  0  0  0
 19 20  2  0  0  0  0
 19 18  1  0  0  0  0
 20 21  1  0  0  0  0
 21 25  1  0  0  0  0
 21 22  2  0  0  0  0
 23 18  1  0  0  0  0
 24 19  1  0  0  0  0
 26 27  2  0  0  0  0
 26  3  1  0  0  0  0
 27 28  1  0  0  0  0
 28 29  1  0  0  0  0
M  END
>  <minimizedAffinity>
-5.84030247

>  <minimizedRMSD>
0.490193367

$$$$
