
 OpenBabel03272500583D

 30 31  0  0  0  0  0  0  0  0999 V2000
   38.1610   31.8740   47.3980 C   0  0  0  0  0  0  0  0  0  0  0  0
   38.6840   32.7470   48.3120 C   0  0  0  0  0  0  0  0  0  0  0  0
   38.2190   32.8160   49.6300 C   0  0  0  0  0  0  0  0  0  0  0  0
   37.1460   31.9130   50.0000 C   0  0  0  0  0  0  0  0  0  0  0  0
   36.6740   31.0740   49.0470 C   0  0  0  0  0  0  0  0  0  0  0  0
   37.1260   31.0170   47.7840 C   0  0  0  0  0  0  0  0  0  0  0  0
   39.5000   33.4410   48.0510 H   0  0  0  0  0  0  0  0  0  0  0  0
   38.6820   33.5360   50.3040 H   0  0  0  0  0  0  0  0  0  0  0  0
   36.9030   32.0820   51.0190 H   0  0  0  0  0  0  0  0  0  0  0  0
   35.9180   30.4930   49.5500 H   0  0  0  0  0  0  0  0  0  0  0  0
   40.0040   31.2520   45.9250 C   0  0  0  0  0  0  0  0  0  0  0  0
   38.7630   31.9070   46.0820 C   0  0  0  0  0  0  0  0  0  0  0  0
   38.2760   32.4990   44.9430 C   0  0  0  0  0  0  0  0  0  0  0  0
   38.9660   32.4310   43.7890 N   0  0  0  0  0  0  0  0  0  0  0  0
   40.1180   31.8180   43.6610 C   0  0  0  0  0  0  0  0  0  0  0  0
   40.6360   31.2290   44.7280 N   0  0  0  0  0  0  0  0  0  0  0  0
   40.4660   30.7580   46.7700 H   0  0  0  0  0  0  0  0  0  0  0  0
   37.3140   33.0070   45.0660 H   0  0  0  0  0  0  0  0  0  0  0  0
   40.6530   31.7780   42.7220 H   0  0  0  0  0  0  0  0  0  0  0  0
   35.1460   30.0290   46.9900 C   0  0  0  0  0  0  0  0  0  0  0  0
   34.5550   30.6680   47.9490 O   0  0  0  0  0  0  0  0  0  0  0  0
   36.5850   30.1580   46.8600 N   0  0  0  0  0  0  0  0  0  0  0  0
   37.1260   29.6570   46.1550 H   0  0  0  0  0  0  0  0  0  0  0  0
   34.3960   29.2590   46.1450 O   0  0  0  0  0  0  0  0  0  0  0  0
   33.1600   29.6220   45.6230 C   0  0  0  0  0  0  0  0  0  0  0  0
   33.0540   30.4070   44.5700 O   0  0  0  0  0  0  0  0  0  0  0  0
   31.8920   29.1240   46.2100 C   0  0  0  0  0  3  0  0  0  0  0  0
   30.7360   29.7090   46.0200 C   0  0  0  0  0  3  0  0  0  0  0  0
   29.4380   29.2520   46.5860 C   0  0  0  0  0  2  0  0  0  0  0  0
   29.5260   28.3770   47.2450 H   0  0  0  0  0  0  0  0  0  0  0  0
  1  6  2  0  0  0  0
  1  2  1  0  0  0  0
  2  3  2  0  0  0  0
  3  4  1  0  0  0  0
  3  8  1  0  0  0  0
  4  9  1  0  0  0  0
  5 10  1  0  0  0  0
  5  4  2  0  0  0  0
  6  5  1  0  0  0  0
  7  2  1  0  0  0  0
 11 12  1  0  0  0  0
 11 17  1  0  0  0  0
 12  1  1  0  0  0  0
 13 18  1  0  0  0  0
 13 12  2  0  0  0  0
 14 13  1  0  0  0  0
 15 14  2  0  0  0  0
 15 16  1  0  0  0  0
 16 11  2  0  0  0  0
 19 15  1  0  0  0  0
 20 21  2  0  0  0  0
 22 20  1  0  0  0  0
 22  6  1  0  0  0  0
 23 22  1  0  0  0  0
 24 20  1  0  0  0  0
 25 24  1  0  0  0  0
 25 27  1  0  0  0  0
 26 25  2  0  0  0  0
 28 27  2  0  0  0  0
 28 29  1  0  0  0  0
 29 30  1  0  0  0  0
M  END
>  <minimizedAffinity>
-5.28320789

>  <minimizedRMSD>
0.512557387

$$$$
