
 OpenBabel03272509113D

 23 24  0  0  0  0  0  0  0  0999 V2000
   35.7380   30.8070   48.4810 C   0  0  0  0  0  3  0  0  0  0  0  0
   36.9420   31.3020   47.9200 C   0  0  0  0  0  0  0  0  0  0  0  0
   37.2510   30.9940   46.6230 C   0  0  0  0  0  0  0  0  0  0  0  0
   36.3650   30.2190   45.9680 N   0  0  0  0  0  0  0  0  0  0  0  0
   35.2250   29.7500   46.5100 C   0  0  0  0  0  0  0  0  0  0  0  0
   34.9160   30.0420   47.7520 N   0  0  0  0  0  0  0  0  0  0  0  0
   35.3910   30.9870   49.4870 H   0  0  0  0  0  0  0  0  0  0  0  0
   34.6300   29.1520   45.8750 H   0  0  0  0  0  0  0  0  0  0  0  0
   38.4410   31.4440   45.9260 C   0  0  0  0  0  0  0  0  0  0  0  0
   38.2820   32.5570   45.1060 C   0  0  0  0  0  0  0  0  0  0  0  0
   39.3510   33.1080   44.4210 C   0  0  0  0  0  0  0  0  0  0  0  0
   40.5800   32.4830   44.6000 C   0  0  0  0  0  0  0  0  0  0  0  0
   40.7940   31.3580   45.4110 C   0  0  0  0  0  0  0  0  0  0  0  0
   39.6750   30.8440   46.0820 C   0  0  0  0  0  0  0  0  0  0  0  0
   37.4030   33.1210   44.8420 H   0  0  0  0  0  0  0  0  0  0  0  0
   39.3600   33.9520   43.7710 H   0  0  0  0  0  0  0  0  0  0  0  0
   41.5040   32.8310   44.1050 H   0  0  0  0  0  0  0  0  0  0  0  0
   41.7640   30.9080   45.5150 H   0  0  0  0  0  0  0  0  0  0  0  0
   39.7490   29.9850   46.7230 H   0  0  0  0  0  0  0  0  0  0  0  0
   37.8400   32.0180   48.7390 C   0  0  0  0  0  0  0  0  0  0  0  0
   38.6470   32.7480   49.4110 C   0  0  0  0  0  3  0  0  0  0  0  0
   39.4200   33.9770   49.6440 C   0  0  0  0  0  2  0  0  0  0  0  0
   40.5050   33.7550   49.6300 H   0  0  0  0  0  0  0  0  0  0  0  0
  1  7  1  0  0  0  0
  2  1  1  0  0  0  0
  2 20  2  0  0  0  0
  3  2  1  0  0  0  0
  4  5  1  0  0  0  0
  4  3  2  0  0  0  0
  5  6  2  0  0  0  0
  6  1  1  0  0  0  0
  8  5  1  0  0  0  0
  9 14  1  0  0  0  0
  9  3  1  0  0  0  0
 10  9  2  0  0  0  0
 11 12  2  0  0  0  0
 11 10  1  0  0  0  0
 12 13  1  0  0  0  0
 13 18  1  0  0  0  0
 13 14  2  0  0  0  0
 14 19  1  0  0  0  0
 15 10  1  0  0  0  0
 16 11  1  0  0  0  0
 17 12  1  0  0  0  0
 20 21  2  0  0  0  0
 21 22  1  0  0  0  0
 23 22  1  0  0  0  0
M  END
>  <minimizedAffinity>
-5.12717581

>  <minimizedRMSD>
2.81317186

$$$$
