
 OpenBabel03272506533D

 39 41  0  0  1  0  0  0  0  0999 V2000
   34.6090   30.2350   48.4450 C   0  0  1  0  0  0  0  0  0  0  0  0
   33.6010   30.4420   47.4340 C   0  0  0  0  0  0  0  0  0  0  0  0
   33.3690   29.2960   46.4730 C   0  0  0  0  0  0  0  0  0  0  0  0
   33.3730   27.9530   47.0360 C   0  0  2  0  0  0  0  0  0  0  0  0
   34.3730   27.6920   48.1540 C   0  0  0  0  0  0  0  0  0  0  0  0
   34.4690   28.8770   49.0820 C   0  0  0  0  0  0  0  0  0  0  0  0
   34.3880   30.9420   49.3110 H   0  0  0  0  0  0  0  0  0  0  0  0
   32.6000   30.5500   47.9470 H   0  0  0  0  0  0  0  0  0  0  0  0
   33.6700   31.3430   46.8200 H   0  0  0  0  0  0  0  0  0  0  0  0
   34.3200   29.3640   45.8410 H   0  0  0  0  0  0  0  0  0  0  0  0
   32.4810   29.4880   45.8690 H   0  0  0  0  0  0  0  0  0  0  0  0
   32.4100   27.6180   47.4650 H   0  0  0  0  0  0  0  0  0  0  0  0
   33.9690   26.9570   48.8490 H   0  0  0  0  0  0  0  0  0  0  0  0
   35.3730   27.4920   47.7610 H   0  0  0  0  0  0  0  0  0  0  0  0
   35.3730   28.7180   49.7070 H   0  0  0  0  0  0  0  0  0  0  0  0
   33.6160   28.9290   49.8240 H   0  0  0  0  0  0  0  0  0  0  0  0
   33.7130   27.0080   45.9410 C   0  0  0  0  0  0  0  0  0  0  0  0
   34.4120   27.4940   44.8440 C   0  0  0  0  0  0  0  0  0  0  0  0
   34.7450   26.6810   43.7790 C   0  0  0  0  0  0  0  0  0  0  0  0
   34.3740   25.3730   43.8160 C   0  0  0  0  0  0  0  0  0  0  0  0
   33.6760   24.8750   44.8980 C   0  0  0  0  0  0  0  0  0  0  0  0
   33.3460   25.7090   45.9600 C   0  0  0  0  0  0  0  0  0  0  0  0
   34.7650   28.4910   44.6300 H   0  0  0  0  0  0  0  0  0  0  0  0
   35.2900   27.0060   42.8940 H   0  0  0  0  0  0  0  0  0  0  0  0
   34.6370   24.7140   42.9690 H   0  0  0  0  0  0  0  0  0  0  0  0
   33.4380   23.8260   44.7930 H   0  0  0  0  0  0  0  0  0  0  0  0
   32.4770   25.1030   46.9040 C   0  0  0  0  0  3  0  0  0  0  0  0
   32.4680   24.0650   47.7080 C   0  0  0  0  0  3  0  0  0  0  0  0
   33.4820   23.0110   47.9640 C   0  0  0  0  0  2  0  0  0  0  0  0
   33.5190   22.2260   47.1980 H   0  0  0  0  0  0  0  0  0  0  0  0
   36.4970   30.5550   46.8440 C   0  0  0  0  0  0  0  0  0  0  0  0
   36.0040   30.5730   48.1370 C   0  0  0  0  0  0  0  0  0  0  0  0
   36.8930   30.9360   49.1570 C   0  0  0  0  0  0  0  0  0  0  0  0
   38.1790   31.2480   48.8330 N   0  0  0  0  0  0  0  0  0  0  0  0
   38.6150   31.2150   47.5490 C   0  0  0  0  0  0  0  0  0  0  0  0
   37.7610   30.8640   46.5470 N   0  0  0  0  0  0  0  0  0  0  0  0
   35.9700   30.3240   45.9370 H   0  0  0  0  0  0  0  0  0  0  0  0
   36.5580   30.9670   50.1800 H   0  0  0  0  0  0  0  0  0  0  0  0
   39.6490   31.4800   47.4030 H   0  0  0  0  0  0  0  0  0  0  0  0
  1  6  1  0  0  0  0
  1  7  1  1  0  0  0
  2  8  1  0  0  0  0
  2  1  1  0  0  0  0
  3  4  1  0  0  0  0
  3  2  1  0  0  0  0
  4 12  1  1  0  0  0
  4  5  1  0  0  0  0
  5 13  1  0  0  0  0
  5  6  1  0  0  0  0
  6 15  1  0  0  0  0
  6 16  1  0  0  0  0
  9  2  1  0  0  0  0
 10  3  1  0  0  0  0
 11  3  1  0  0  0  0
 14  5  1  0  0  0  0
 17 22  1  0  0  0  0
 17  4  1  0  0  0  0
 18 17  2  0  0  0  0
 19 20  2  0  0  0  0
 19 18  1  0  0  0  0
 20 21  1  0  0  0  0
 21 22  2  0  0  0  0
 22 27  1  0  0  0  0
 23 18  1  0  0  0  0
 24 19  1  0  0  0  0
 25 20  1  0  0  0  0
 26 21  1  0  0  0  0
 27 28  2  0  0  0  0
 28 29  1  0  0  0  0
 30 29  1  0  0  0  0
 31 32  1  0  0  0  0
 32  1  1  0  0  0  0
 32 33  2  0  0  0  0
 33 38  1  0  0  0  0
 34 33  1  0  0  0  0
 35 34  2  0  0  0  0
 36 31  2  0  0  0  0
 36 35  1  0  0  0  0
 37 31  1  0  0  0  0
 39 35  1  0  0  0  0
M  END
>  <minimizedAffinity>
-4.20398951

>  <minimizedRMSD>
1.18457496

$$$$
