
 OpenBabel03272509533D

 38 40  0  0  0  0  0  0  0  0999 V2000
   37.2640   30.1230   51.4750 C   0  0  0  0  0  0  0  0  0  0  0  0
   38.0270   30.8300   50.5140 C   0  0  0  0  0  0  0  0  0  0  0  0
   37.6810   30.6570   49.1830 C   0  0  0  0  0  0  0  0  0  0  0  0
   36.6280   29.8180   48.9130 N   0  0  0  0  0  0  0  0  0  0  0  0
   35.9310   29.1690   49.8440 C   0  0  0  0  0  0  0  0  0  0  0  0
   36.2630   29.3320   51.1430 N   0  0  0  0  0  0  0  0  0  0  0  0
   37.5960   30.3100   52.4950 H   0  0  0  0  0  0  0  0  0  0  0  0
   38.8550   31.4890   50.7310 H   0  0  0  0  0  0  0  0  0  0  0  0
   38.8820   33.2880   49.0660 F   0  0  0  0  0  0  0  0  0  0  0  0
   38.8990   32.5110   47.9860 C   0  0  0  0  0  0  0  0  0  0  0  0
   38.3340   31.2870   48.0590 C   0  0  0  0  0  0  0  0  0  0  0  0
   38.4100   30.5670   46.8760 C   0  0  0  0  0  0  0  0  0  0  0  0
   39.0070   31.0580   45.7420 C   0  0  0  0  0  0  0  0  0  0  0  0
   39.5660   32.3010   45.7120 C   0  0  0  0  0  0  0  0  0  0  0  0
   39.5060   33.0380   46.8670 C   0  0  0  0  0  0  0  0  0  0  0  0
   38.0040   29.5550   46.7570 H   0  0  0  0  0  0  0  0  0  0  0  0
   39.0640   30.4830   44.8100 H   0  0  0  0  0  0  0  0  0  0  0  0
   40.0390   32.7090   44.8310 H   0  0  0  0  0  0  0  0  0  0  0  0
   39.9420   34.0280   46.8690 H   0  0  0  0  0  0  0  0  0  0  0  0
   34.9410   28.4000   49.3320 O   0  0  0  0  0  0  0  0  0  0  0  0
   34.3370   28.7900   48.0960 C   0  0  0  0  0  0  0  0  0  0  0  0
   35.0990   29.1440   47.3760 H   0  0  0  0  0  0  0  0  0  0  0  0
   33.6920   29.6590   48.3410 H   0  0  0  0  0  0  0  0  0  0  0  0
   33.4680   27.6950   47.5670 C   0  0  0  0  0  0  0  0  0  0  0  0
   33.7650   26.6880   47.8750 H   0  0  0  0  0  0  0  0  0  0  0  0
   33.5970   27.7050   46.4450 H   0  0  0  0  0  0  0  0  0  0  0  0
   32.0180   27.9490   47.7780 C   0  0  0  0  0  0  0  0  0  0  0  0
   31.4400   27.4860   48.9630 C   0  0  0  0  0  0  0  0  0  0  0  0
   30.1140   27.6790   49.2310 C   0  0  0  0  0  0  0  0  0  0  0  0
   29.3560   28.3130   48.3610 N   0  0  0  0  0  0  0  0  0  0  0  0
   29.9230   28.7660   47.2010 C   0  0  0  0  0  0  0  0  0  0  0  0
   31.2220   28.6000   46.8930 N   0  0  0  0  0  0  0  0  0  0  0  0
   32.0770   26.9640   49.6730 H   0  0  0  0  0  0  0  0  0  0  0  0
   29.6410   27.3270   50.1490 H   0  0  0  0  0  0  0  0  0  0  0  0
   29.0400   29.4620   46.2690 C   0  0  0  0  0  3  0  0  0  0  0  0
   27.8650   29.9010   46.6120 C   0  0  0  0  0  3  0  0  0  0  0  0
   26.9490   30.6160   45.6680 C   0  0  0  0  0  2  0  0  0  0  0  0
   27.4030   30.5160   44.6590 H   0  0  0  0  0  0  0  0  0  0  0  0
  1  7  1  0  0  0  0
  2  8  1  0  0  0  0
  2  1  2  0  0  0  0
  3  2  1  0  0  0  0
  4  3  2  0  0  0  0
  4  5  1  0  0  0  0
  5  6  2  0  0  0  0
  6  1  1  0  0  0  0
 10 11  1  0  0  0  0
 10  9  1  0  0  0  0
 11  3  1  0  0  0  0
 12 11  2  0  0  0  0
 13 12  1  0  0  0  0
 14 13  2  0  0  0  0
 14 15  1  0  0  0  0
 15 19  1  0  0  0  0
 15 10  2  0  0  0  0
 16 12  1  0  0  0  0
 17 13  1  0  0  0  0
 18 14  1  0  0  0  0
 20  5  1  0  0  0  0
 21 23  1  0  0  0  0
 21 20  1  0  0  0  0
 22 21  1  0  0  0  0
 24 27  1  0  0  0  0
 24 25  1  0  0  0  0
 24 21  1  0  0  0  0
 26 24  1  0  0  0  0
 27 28  1  0  0  0  0
 28 29  2  0  0  0  0
 28 33  1  0  0  0  0
 29 34  1  0  0  0  0
 30 29  1  0  0  0  0
 31 30  2  0  0  0  0
 32 31  1  0  0  0  0
 32 27  2  0  0  0  0
 35 36  2  0  0  0  0
 35 31  1  0  0  0  0
 37 36  1  0  0  0  0
 38 37  1  0  0  0  0
M  END
>  <minimizedAffinity>
-6.41533136

>  <minimizedRMSD>
0.453433603

$$$$
