
 OpenBabel03272505543D

 29 30  0  0  1  0  0  0  0  0999 V2000
   35.3310   30.3920   49.6080 C   0  0  2  0  0  0  0  0  0  0  0  0
   36.3170   31.0420   48.6580 C   0  0  0  0  0  0  0  0  0  0  0  0
   37.7070   30.4960   48.7940 C   0  0  2  0  0  0  0  0  0  0  0  0
   38.2300   30.5420   50.2080 C   0  0  0  0  0  0  0  0  0  0  0  0
   37.1970   30.1890   51.2340 C   0  0  0  0  0  0  0  0  0  0  0  0
   35.9870   29.5140   50.6170 C   0  0  0  0  0  0  0  0  0  0  0  0
   34.7610   31.1990   50.1030 H   0  0  0  0  0  0  0  0  0  0  0  0
   35.9880   30.8600   47.6340 H   0  0  0  0  0  0  0  0  0  0  0  0
   36.3780   32.1300   48.8360 H   0  0  0  0  0  0  0  0  0  0  0  0
   37.6920   29.4570   48.4140 H   0  0  0  0  0  0  0  0  0  0  0  0
   39.0050   29.7270   50.2650 H   0  0  0  0  0  0  0  0  0  0  0  0
   38.7770   31.4780   50.4220 H   0  0  0  0  0  0  0  0  0  0  0  0
   37.5730   29.5980   52.0800 H   0  0  0  0  0  0  0  0  0  0  0  0
   36.8030   31.1740   51.6210 H   0  0  0  0  0  0  0  0  0  0  0  0
   36.3600   28.5670   50.1670 H   0  0  0  0  0  0  0  0  0  0  0  0
   35.3100   29.2660   51.4420 H   0  0  0  0  0  0  0  0  0  0  0  0
   34.3580   29.5640   48.8370 C   0  0  0  0  0  0  0  0  0  0  0  0
   34.1960   29.8960   47.4800 C   0  0  0  0  0  0  0  0  0  0  0  0
   33.2810   29.1340   46.7530 C   0  0  0  0  0  0  0  0  0  0  0  0
   32.5980   28.1180   47.3910 N   0  0  0  0  0  0  0  0  0  0  0  0
   32.7870   27.8350   48.6990 C   0  0  0  0  0  0  0  0  0  0  0  0
   33.6690   28.5680   49.4010 N   0  0  0  0  0  0  0  0  0  0  0  0
   34.6930   30.6680   46.9390 H   0  0  0  0  0  0  0  0  0  0  0  0
   33.1080   29.3370   45.7020 H   0  0  0  0  0  0  0  0  0  0  0  0
   32.2030   27.0210   49.1010 H   0  0  0  0  0  0  0  0  0  0  0  0
   38.5990   31.3930   48.0040 C   0  0  0  0  0  3  0  0  0  0  0  0
   38.7730   32.6790   48.2400 C   0  0  0  0  0  3  0  0  0  0  0  0
   38.0310   33.2870   49.3700 C   0  0  0  0  0  2  0  0  0  0  0  0
   38.2120   32.6700   50.2780 H   0  0  0  0  0  0  0  0  0  0  0  0
  1  7  1  1  0  0  0
  1  6  1  0  0  0  0
  2  3  1  0  0  0  0
  2  9  1  0  0  0  0
  2  1  1  0  0  0  0
  3 10  1  6  0  0  0
  3  4  1  0  0  0  0
  4 11  1  0  0  0  0
  4 12  1  0  0  0  0
  4  5  1  0  0  0  0
  5 14  1  0  0  0  0
  5 13  1  0  0  0  0
  6  5  1  0  0  0  0
  6 16  1  0  0  0  0
  8  2  1  0  0  0  0
 15  6  1  0  0  0  0
 17 22  1  0  0  0  0
 17  1  1  0  0  0  0
 18 17  2  0  0  0  0
 19 20  2  0  0  0  0
 19 18  1  0  0  0  0
 20 21  1  0  0  0  0
 21 25  1  0  0  0  0
 21 22  2  0  0  0  0
 23 18  1  0  0  0  0
 24 19  1  0  0  0  0
 26 27  2  0  0  0  0
 26  3  1  0  0  0  0
 27 28  1  0  0  0  0
 28 29  1  0  0  0  0
M  END
>  <minimizedAffinity>
-5.93890762

>  <minimizedRMSD>
0.654308677

$$$$
