
 OpenBabel03272509383D

 25 26  0  0  0  0  0  0  0  0999 V2000
   34.9240   29.0600   48.5420 C   0  0  0  0  0  0  0  0  0  0  0  0
   34.6210   28.7210   49.8650 C   0  0  0  0  0  0  0  0  0  0  0  0
   35.3390   29.2240   50.9420 C   0  0  0  0  0  0  0  0  0  0  0  0
   36.4020   30.0970   50.7250 C   0  0  0  0  0  0  0  0  0  0  0  0
   36.6870   30.4190   49.4210 C   0  0  0  0  0  0  0  0  0  0  0  0
   35.9660   29.9130   48.3680 C   0  0  0  0  0  0  0  0  0  0  0  0
   33.7940   28.0410   50.0320 H   0  0  0  0  0  0  0  0  0  0  0  0
   35.0100   28.8890   51.9110 H   0  0  0  0  0  0  0  0  0  0  0  0
   36.8960   30.4280   51.6280 H   0  0  0  0  0  0  0  0  0  0  0  0
   37.5280   31.0980   49.4160 H   0  0  0  0  0  0  0  0  0  0  0  0
   34.1170   28.4930   47.4810 C   0  0  0  0  0  0  0  0  0  0  0  0
   34.5130   27.3360   47.0860 O   0  0  0  0  0  0  0  0  0  0  0  0
   32.2060   31.0210   45.7160 C   0  0  0  0  0  0  0  0  0  0  0  0
   30.9160   30.5070   45.6780 C   0  0  0  0  0  0  0  0  0  0  0  0
   30.6940   29.2770   46.2700 C   0  0  0  0  0  0  0  0  0  0  0  0
   31.7310   28.6220   46.8620 N   0  0  0  0  0  0  0  0  0  0  0  0
   32.9530   29.1350   46.8830 C   0  0  0  0  0  0  0  0  0  0  0  0
   33.1790   30.3340   46.3080 N   0  0  0  0  0  0  0  0  0  0  0  0
   32.4440   31.9790   45.2700 H   0  0  0  0  0  0  0  0  0  0  0  0
   30.1990   31.1400   45.1750 H   0  0  0  0  0  0  0  0  0  0  0  0
   29.6880   28.9010   46.2290 H   0  0  0  0  0  0  0  0  0  0  0  0
   36.4010   30.3520   47.0620 C   0  0  0  0  0  3  0  0  0  0  0  0
   37.3880   31.1780   46.7790 C   0  0  0  0  0  3  0  0  0  0  0  0
   37.9580   31.7230   45.5420 C   0  0  0  0  0  2  0  0  0  0  0  0
   37.6140   32.7810   45.3680 H   0  0  0  0  0  0  0  0  0  0  0  0
  1  2  1  0  0  0  0
  2  7  1  0  0  0  0
  2  3  2  0  0  0  0
  3  8  1  0  0  0  0
  4  3  1  0  0  0  0
  4  9  1  0  0  0  0
  5  4  2  0  0  0  0
  6  1  2  0  0  0  0
  6  5  1  0  0  0  0
 10  5  1  0  0  0  0
 11  1  1  0  0  0  0
 12 11  2  0  0  0  0
 13 18  1  0  0  0  0
 14 13  2  0  0  0  0
 14 15  1  0  0  0  0
 15 16  2  0  0  0  0
 16 17  1  0  0  0  0
 17 11  1  0  0  0  0
 18 17  2  0  0  0  0
 19 13  1  0  0  0  0
 20 14  1  0  0  0  0
 21 15  1  0  0  0  0
 22  6  1  0  0  0  0
 23 22  2  0  0  0  0
 24 23  1  0  0  0  0
 25 24  1  0  0  0  0
M  END
>  <minimizedAffinity>
-4.65048695

>  <minimizedRMSD>
2.00340605

$$$$
