
 OpenBabel03272507363D

 14 14  0  0  0  0  0  0  0  0999 V2000
   36.8730   29.9800   51.0800 C   0  0  0  0  0  0  0  0  0  0  0  0
   37.0270   30.8630   50.0150 C   0  0  0  0  0  0  0  0  0  0  0  0
   36.0080   30.9550   49.0820 C   0  0  0  0  0  0  0  0  0  0  0  0
   34.9050   30.1810   49.2460 N   0  0  0  0  0  0  0  0  0  0  0  0
   34.7660   29.3220   50.2910 C   0  0  0  0  0  0  0  0  0  0  0  0
   35.7550   29.2460   51.1800 N   0  0  0  0  0  0  0  0  0  0  0  0
   35.9820   31.5800   48.2210 H   0  0  0  0  0  0  0  0  0  0  0  0
   33.8870   28.7070   50.4190 H   0  0  0  0  0  0  0  0  0  0  0  0
   37.9560   29.9840   51.9340 O   0  0  0  0  0  0  0  0  0  0  0  0
   38.2830   29.1580   52.4510 H   0  0  0  0  0  0  0  0  0  0  0  0
   38.2040   31.7010   49.8170 C   0  0  0  0  0  3  0  0  0  0  0  0
   38.1250   32.9490   49.3950 C   0  0  0  0  0  3  0  0  0  0  0  0
   39.2450   33.8590   49.1690 C   0  0  0  0  0  2  0  0  0  0  0  0
   39.3060   34.1190   48.0900 H   0  0  0  0  0  0  0  0  0  0  0  0
  1  6  1  0  0  0  0
  1  9  1  0  0  0  0
  2  1  2  0  0  0  0
  3  4  2  0  0  0  0
  3  2  1  0  0  0  0
  4  5  1  0  0  0  0
  5  8  1  0  0  0  0
  5  6  2  0  0  0  0
  7  3  1  0  0  0  0
  9 10  1  0  0  0  0
 11  2  1  0  0  0  0
 12 11  2  0  0  0  0
 13 12  1  0  0  0  0
 14 13  1  0  0  0  0
M  END
>  <minimizedAffinity>
-4.85044527

>  <minimizedRMSD>
1.7944876

$$$$
