
 OpenBabel03272504033D

 36 38  0  0  0  0  0  0  0  0999 V2000
   35.9470   29.9860   50.3310 C   0  0  0  0  0  0  0  0  0  0  0  0
   36.9380   29.7870   51.2990 C   0  0  0  0  0  0  0  0  0  0  0  0
   38.0280   30.5270   50.9240 C   0  0  0  0  0  0  0  0  0  0  0  0
   37.7080   31.1450   49.7800 N   0  0  0  0  0  0  0  0  0  0  0  0
   36.4790   30.8050   49.4590 N   0  0  0  0  0  0  0  0  0  0  0  0
   36.9950   29.1980   52.2220 H   0  0  0  0  0  0  0  0  0  0  0  0
   39.0100   30.7020   51.3250 H   0  0  0  0  0  0  0  0  0  0  0  0
   38.4390   32.0340   48.9380 C   0  0  0  0  0  0  0  0  0  0  0  0
   38.8130   33.2270   49.5020 C   0  0  0  0  0  0  0  0  0  0  0  0
   39.5300   34.2220   48.8400 C   0  0  0  0  0  0  0  0  0  0  0  0
   39.8620   33.9360   47.5230 C   0  0  0  0  0  0  0  0  0  0  0  0
   39.4940   32.7400   46.9330 C   0  0  0  0  0  0  0  0  0  0  0  0
   38.7810   31.7740   47.6240 C   0  0  0  0  0  0  0  0  0  0  0  0
   38.5620   33.4690   50.5330 H   0  0  0  0  0  0  0  0  0  0  0  0
   39.8130   35.1540   49.3070 H   0  0  0  0  0  0  0  0  0  0  0  0
   40.4250   34.6540   46.9150 H   0  0  0  0  0  0  0  0  0  0  0  0
   39.7480   32.5040   45.9030 H   0  0  0  0  0  0  0  0  0  0  0  0
   38.4680   30.8250   47.2130 H   0  0  0  0  0  0  0  0  0  0  0  0
   34.6330   29.3260   50.4330 C   0  0  0  0  0  0  0  0  0  0  0  0
   34.3620   29.0530   51.4490 H   0  0  0  0  0  0  0  0  0  0  0  0
   33.8860   30.1200   50.1370 H   0  0  0  0  0  0  0  0  0  0  0  0
   34.4570   28.2210   49.4560 C   0  0  0  0  0  0  0  0  0  0  0  0
   34.1690   27.3170   50.0440 H   0  0  0  0  0  0  0  0  0  0  0  0
   35.4690   27.9740   49.0680 H   0  0  0  0  0  0  0  0  0  0  0  0
   33.4560   28.3830   48.4260 C   0  0  0  0  0  0  0  0  0  0  0  0
   32.2800   27.7030   48.4650 C   0  0  0  0  0  0  0  0  0  0  0  0
   31.3240   27.8760   47.4510 C   0  0  0  0  0  0  0  0  0  0  0  0
   31.6640   28.7590   46.4510 N   0  0  0  0  0  0  0  0  0  0  0  0
   32.8410   29.4210   46.4390 C   0  0  0  0  0  0  0  0  0  0  0  0
   33.7050   29.2080   47.4380 N   0  0  0  0  0  0  0  0  0  0  0  0
   32.0650   27.0220   49.2750 H   0  0  0  0  0  0  0  0  0  0  0  0
   30.3930   27.3450   47.4710 H   0  0  0  0  0  0  0  0  0  0  0  0
   33.1700   30.3500   45.3640 C   0  0  0  0  0  0  0  0  0  0  0  0
   33.8880   29.9950   44.3130 C   0  0  0  0  0  0  0  0  0  0  0  0
   34.4200   28.6220   44.1400 C   0  0  0  0  0  0  0  0  0  0  0  0
   33.5910   27.8830   44.0710 H   0  0  0  0  0  0  0  0  0  0  0  0
  1 19  1  0  0  0  0
  1  2  1  0  0  0  0
  2  6  1  0  0  0  0
  3  2  2  0  0  0  0
  3  7  1  0  0  0  0
  4  3  1  0  0  0  0
  5  4  1  0  0  0  0
  5  1  2  0  0  0  0
  8  9  1  0  0  0  0
  8  4  1  0  0  0  0
  9 14  1  0  0  0  0
 10 15  1  0  0  0  0
 10  9  2  0  0  0  0
 11 10  1  0  0  0  0
 12 11  2  0  0  0  0
 12 13  1  0  0  0  0
 13  8  2  0  0  0  0
 16 11  1  0  0  0  0
 17 12  1  0  0  0  0
 18 13  1  0  0  0  0
 19 20  1  0  0  0  0
 21 19  1  0  0  0  0
 22 23  1  0  0  0  0
 22 19  1  0  0  0  0
 24 22  1  0  0  0  0
 25 26  1  0  0  0  0
 25 22  1  0  0  0  0
 26 31  1  0  0  0  0
 27 32  1  0  0  0  0
 27 26  2  0  0  0  0
 28 27  1  0  0  0  0
 29 28  2  0  0  0  0
 29 30  1  0  0  0  0
 30 25  2  0  0  0  0
 33 29  1  0  0  0  0
 34 33  2  0  0  0  0
 35 34  1  0  0  0  0
 36 35  1  0  0  0  0
M  END
>  <minimizedAffinity>
-5.91222334

>  <minimizedRMSD>
2.13417792

$$$$
