
 OpenBabel03272504273D

 37 39  0  0  0  0  0  0  0  0999 V2000
   35.6630   29.5660   48.4030 C   0  0  0  0  0  0  0  0  0  0  0  0
   35.3680   28.7900   49.4700 C   0  0  0  0  0  0  0  0  0  0  0  0
   34.4630   27.8090   49.3950 C   0  0  0  0  0  0  0  0  0  0  0  0
   33.8300   27.5960   48.2120 N   0  0  0  0  0  0  0  0  0  0  0  0
   34.1230   28.3590   47.1670 C   0  0  0  0  0  0  0  0  0  0  0  0
   35.0290   29.3430   47.2390 N   0  0  0  0  0  0  0  0  0  0  0  0
   35.8960   28.9930   50.3980 H   0  0  0  0  0  0  0  0  0  0  0  0
   34.2700   27.2210   50.2880 H   0  0  0  0  0  0  0  0  0  0  0  0
   32.0310   27.7910   46.0030 C   0  0  0  0  0  0  0  0  0  0  0  0
   33.4100   28.0260   45.9560 C   0  0  0  0  0  0  0  0  0  0  0  0
   34.1700   27.9350   44.8050 C   0  0  0  0  0  0  0  0  0  0  0  0
   33.5520   27.5910   43.6200 C   0  0  0  0  0  0  0  0  0  0  0  0
   32.1980   27.3400   43.5730 C   0  0  0  0  0  0  0  0  0  0  0  0
   31.5310   27.4540   44.7540 C   0  0  0  0  0  0  0  0  0  0  0  0
   35.2340   28.1280   44.8180 H   0  0  0  0  0  0  0  0  0  0  0  0
   34.1480   27.5200   42.7170 H   0  0  0  0  0  0  0  0  0  0  0  0
   31.6810   27.0690   42.6640 H   0  0  0  0  0  0  0  0  0  0  0  0
   30.4560   27.2560   44.7170 H   0  0  0  0  0  0  0  0  0  0  0  0
   31.0830   27.9200   47.3690 S   0  0  0  0  0  0  0  0  0  0  0  0
   30.1360   26.7160   47.0460 O   0  0  0  0  0  0  0  0  0  0  0  0
   30.2920   29.1960   47.2460 O   0  0  0  0  0  0  0  0  0  0  0  0
   30.7860   27.6570   48.9130 C   0  0  0  0  0  0  0  0  0  0  0  0
   30.3050   26.4440   49.4550 F   0  0  0  0  0  0  0  0  0  0  0  0
   29.5280   28.3150   49.2950 F   0  0  0  0  0  0  0  0  0  0  0  0
   31.4020   28.4350   49.9360 F   0  0  0  0  0  0  0  0  0  0  0  0
   37.5460   32.5500   49.3910 C   0  0  0  0  0  0  0  0  0  0  0  0
   38.5800   32.5840   48.4450 C   0  0  0  0  0  0  0  0  0  0  0  0
   38.6110   31.5780   47.4790 C   0  0  0  0  0  0  0  0  0  0  0  0
   37.6250   30.6440   47.5380 N   0  0  0  0  0  0  0  0  0  0  0  0
   36.6460   30.6340   48.4560 C   0  0  0  0  0  0  0  0  0  0  0  0
   36.6230   31.5950   49.3730 N   0  0  0  0  0  0  0  0  0  0  0  0
   37.5320   33.3440   50.1460 H   0  0  0  0  0  0  0  0  0  0  0  0
   39.3230   33.3410   48.4530 H   0  0  0  0  0  0  0  0  0  0  0  0
   39.6060   31.4630   46.4240 C   0  0  0  0  0  0  0  0  0  0  0  0
   40.0490   32.3050   45.5180 C   0  0  0  0  0  0  0  0  0  0  0  0
   40.0340   33.6390   44.8800 C   0  0  0  0  0  0  0  0  0  0  0  0
   40.9820   34.1600   45.1440 H   0  0  0  0  0  0  0  0  0  0  0  0
  1 30  1  0  0  0  0
  1  2  1  0  0  0  0
  2  7  1  0  0  0  0
  3  2  2  0  0  0  0
  3  8  1  0  0  0  0
  4  3  1  0  0  0  0
  5  6  1  0  0  0  0
  5  4  2  0  0  0  0
  6  1  2  0  0  0  0
  9 19  1  0  0  0  0
 10  9  1  0  0  0  0
 10  5  1  0  0  0  0
 11 15  1  0  0  0  0
 11 10  2  0  0  0  0
 12 11  1  0  0  0  0
 13 12  2  0  0  0  0
 13 14  1  0  0  0  0
 14  9  2  0  0  0  0
 16 12  1  0  0  0  0
 17 13  1  0  0  0  0
 18 14  1  0  0  0  0
 19 22  1  0  0  0  0
 20 19  2  0  0  0  0
 21 19  2  0  0  0  0
 22 24  1  0  0  0  0
 22 23  1  0  0  0  0
 22 25  1  0  0  0  0
 26 32  1  0  0  0  0
 27 33  1  0  0  0  0
 27 26  2  0  0  0  0
 28 29  2  0  0  0  0
 28 27  1  0  0  0  0
 29 30  1  0  0  0  0
 30 31  2  0  0  0  0
 31 26  1  0  0  0  0
 34 28  1  0  0  0  0
 35 34  2  0  0  0  0
 36 37  1  0  0  0  0
 36 35  1  0  0  0  0
M  END
>  <minimizedAffinity>
-5.93525839

>  <minimizedRMSD>
0.695401788

$$$$
