
 OpenBabel03272507363D

 14 14  0  0  0  0  0  0  0  0999 V2000
   37.0700   30.9500   48.1840 C   0  0  0  0  0  0  0  0  0  0  0  0
   36.2770   30.0560   48.8970 C   0  0  0  0  0  0  0  0  0  0  0  0
   36.5700   29.8350   50.2330 C   0  0  0  0  0  0  0  0  0  0  0  0
   37.6150   30.4990   50.7870 N   0  0  0  0  0  0  0  0  0  0  0  0
   38.3830   31.3710   50.0790 C   0  0  0  0  0  0  0  0  0  0  0  0
   38.0890   31.5730   48.7960 N   0  0  0  0  0  0  0  0  0  0  0  0
   36.0580   29.1850   50.9020 H   0  0  0  0  0  0  0  0  0  0  0  0
   39.2160   31.8990   50.5230 H   0  0  0  0  0  0  0  0  0  0  0  0
   36.6750   31.0790   46.8690 O   0  0  0  0  0  0  0  0  0  0  0  0
   37.3200   31.2610   46.0900 H   0  0  0  0  0  0  0  0  0  0  0  0
   35.1520   29.3290   48.3210 C   0  0  0  0  0  3  0  0  0  0  0  0
   34.6510   28.2410   48.8760 C   0  0  0  0  0  3  0  0  0  0  0  0
   33.5290   27.4510   48.3710 C   0  0  0  0  0  2  0  0  0  0  0  0
   33.8820   26.4350   48.0920 H   0  0  0  0  0  0  0  0  0  0  0  0
  1  6  2  0  0  0  0
  1  2  1  0  0  0  0
  2  3  2  0  0  0  0
  3  4  1  0  0  0  0
  3  7  1  0  0  0  0
  5  8  1  0  0  0  0
  5  4  2  0  0  0  0
  6  5  1  0  0  0  0
  9  1  1  0  0  0  0
 10  9  1  0  0  0  0
 11 12  2  0  0  0  0
 11  2  1  0  0  0  0
 13 12  1  0  0  0  0
 14 13  1  0  0  0  0
M  END
>  <minimizedAffinity>
-3.98491359

>  <minimizedRMSD>
5.0151515

$$$$
