
 OpenBabel03272508413D

 37 39  0  0  1  0  0  0  0  0999 V2000
   35.2330   29.4550   33.9310 N   0  0  0  0  0  0  0  0  0  0  0  0
   35.8830   28.1910   34.2600 C   0  0  0  0  0  0  0  0  0  0  0  0
   37.0720   27.8950   33.4620 C   0  0  2  0  0  0  0  0  0  0  0  0
   36.8590   28.1790   32.0170 N   0  0  0  0  0  0  0  0  0  0  0  0
   36.4130   29.5810   31.9120 C   0  0  0  0  0  0  0  0  0  0  0  0
   35.0340   29.5520   32.5290 C   0  0  0  0  0  0  0  0  0  0  0  0
   36.0370   28.1680   35.3320 H   0  0  0  0  0  0  0  0  0  0  0  0
   35.0690   27.4670   33.9110 H   0  0  0  0  0  0  0  0  0  0  0  0
   37.9490   28.5440   33.6410 H   0  0  0  0  0  0  0  0  0  0  0  0
   36.1070   27.5640   31.6730 H   0  0  0  0  0  0  0  0  0  0  0  0
   37.1010   30.2500   32.4320 H   0  0  0  0  0  0  0  0  0  0  0  0
   36.2890   29.7770   30.8360 H   0  0  0  0  0  0  0  0  0  0  0  0
   34.4990   28.6770   32.1070 H   0  0  0  0  0  0  0  0  0  0  0  0
   34.4640   30.4500   32.2290 H   0  0  0  0  0  0  0  0  0  0  0  0
   38.4810   27.2130   35.9910 Cl  0  0  0  0  0  0  0  0  0  0  0  0
   38.0750   26.0380   34.7390 C   0  0  0  0  0  0  0  0  0  0  0  0
   37.4510   26.5020   33.6130 C   0  0  0  0  0  0  0  0  0  0  0  0
   37.0690   25.6860   32.5390 C   0  0  0  0  0  0  0  0  0  0  0  0
   37.3670   24.3240   32.6720 C   0  0  0  0  0  0  0  0  0  0  0  0
   38.0080   23.8440   33.8220 C   0  0  0  0  0  0  0  0  0  0  0  0
   38.3520   24.7090   34.8390 C   0  0  0  0  0  0  0  0  0  0  0  0
   36.5870   25.7760   31.5950 H   0  0  0  0  0  0  0  0  0  0  0  0
   37.1720   23.5140   31.9850 H   0  0  0  0  0  0  0  0  0  0  0  0
   38.2700   22.8120   33.9950 H   0  0  0  0  0  0  0  0  0  0  0  0
   39.0170   24.2400   36.0450 C   0  0  0  0  0  3  0  0  0  0  0  0
   38.3600   23.8000   37.0940 C   0  0  0  0  0  3  0  0  0  0  0  0
   38.9850   23.3110   38.3450 C   0  0  0  0  0  2  0  0  0  0  0  0
   38.8360   23.9820   39.2120 H   0  0  0  0  0  0  0  0  0  0  0  0
   34.8640   30.4050   34.9180 C   0  0  0  0  0  0  0  0  0  0  0  0
   35.8070   31.2180   35.5530 C   0  0  0  0  0  0  0  0  0  0  0  0
   35.3640   32.1270   36.5100 C   0  0  0  0  0  0  0  0  0  0  0  0
   34.0030   32.1740   36.7810 N   0  0  0  0  0  0  0  0  0  0  0  0
   33.1370   31.3670   36.1390 C   0  0  0  0  0  0  0  0  0  0  0  0
   33.5420   30.4970   35.2260 N   0  0  0  0  0  0  0  0  0  0  0  0
   36.8480   31.1340   35.2990 H   0  0  0  0  0  0  0  0  0  0  0  0
   36.0450   32.7790   37.0310 H   0  0  0  0  0  0  0  0  0  0  0  0
   32.0800   31.4080   36.3540 H   0  0  0  0  0  0  0  0  0  0  0  0
  1  2  1  0  0  0  0
  1 29  1  0  0  0  0
  2  7  1  0  0  0  0
  3 17  1  0  0  0  0
  3  9  1  1  0  0  0
  3  2  1  0  0  0  0
  4  3  1  0  0  0  0
  5  4  1  0  0  0  0
  5 11  1  0  0  0  0
  5  6  1  0  0  0  0
  6  1  1  0  0  0  0
  8  2  1  0  0  0  0
 10  4  1  0  0  0  0
 12  5  1  0  0  0  0
 13  6  1  0  0  0  0
 14  6  1  0  0  0  0
 16 21  1  0  0  0  0
 16 15  1  0  0  0  0
 17 16  2  0  0  0  0
 18 19  2  0  0  0  0
 18 17  1  0  0  0  0
 19 20  1  0  0  0  0
 20 24  1  0  0  0  0
 20 21  2  0  0  0  0
 21 25  1  0  0  0  0
 22 18  1  0  0  0  0
 23 19  1  0  0  0  0
 25 26  2  0  0  0  0
 26 27  1  0  0  0  0
 27 28  1  0  0  0  0
 29 34  2  0  0  0  0
 29 30  1  0  0  0  0
 30 31  2  0  0  0  0
 31 32  1  0  0  0  0
 31 36  1  0  0  0  0
 33 37  1  0  0  0  0
 33 32  2  0  0  0  0
 34 33  1  0  0  0  0
 35 30  1  0  0  0  0
M  END
>  <minimizedAffinity>
-5.51351452

$$$$

 OpenBabel03272508413D

 37 39  0  0  1  0  0  0  0  0999 V2000
   37.4350   24.3560   32.5520 N   0  0  0  0  0  0  0  0  0  0  0  0
   36.7070   25.5950   32.2980 C   0  0  0  0  0  0  0  0  0  0  0  0
   37.5540   26.7410   31.9740 C   0  0  2  0  0  0  0  0  0  0  0  0
   38.7340   26.8350   32.8770 N   0  0  0  0  0  0  0  0  0  0  0  0
   39.4400   25.5410   32.8030 C   0  0  0  0  0  0  0  0  0  0  0  0
   38.4830   24.5880   33.4810 C   0  0  0  0  0  0  0  0  0  0  0  0
   35.9340   25.3800   31.5690 H   0  0  0  0  0  0  0  0  0  0  0  0
   36.2900   25.7840   33.3460 H   0  0  0  0  0  0  0  0  0  0  0  0
   38.0800   26.6960   31.0040 H   0  0  0  0  0  0  0  0  0  0  0  0
   38.3950   26.9750   33.8400 H   0  0  0  0  0  0  0  0  0  0  0  0
   39.6530   25.2710   31.7680 H   0  0  0  0  0  0  0  0  0  0  0  0
   40.3210   25.6430   33.4550 H   0  0  0  0  0  0  0  0  0  0  0  0
   38.1330   25.0740   34.4140 H   0  0  0  0  0  0  0  0  0  0  0  0
   39.0130   23.6660   33.7800 H   0  0  0  0  0  0  0  0  0  0  0  0
   36.6780   27.5080   34.7110 Cl  0  0  0  0  0  0  0  0  0  0  0  0
   36.3590   28.4690   33.2660 C   0  0  0  0  0  0  0  0  0  0  0  0
   36.7970   27.9760   32.0680 C   0  0  0  0  0  0  0  0  0  0  0  0
   36.6150   28.6290   30.8400 C   0  0  0  0  0  0  0  0  0  0  0  0
   35.9370   29.8540   30.8970 C   0  0  0  0  0  0  0  0  0  0  0  0
   35.4830   30.3620   32.1210 C   0  0  0  0  0  0  0  0  0  0  0  0
   35.7020   29.6620   33.2890 C   0  0  0  0  0  0  0  0  0  0  0  0
   36.8480   28.4850   29.8130 H   0  0  0  0  0  0  0  0  0  0  0  0
   35.6830   30.5280   30.0930 H   0  0  0  0  0  0  0  0  0  0  0  0
   34.9550   31.2940   32.2420 H   0  0  0  0  0  0  0  0  0  0  0  0
   35.2440   30.1640   34.5740 C   0  0  0  0  0  3  0  0  0  0  0  0
   35.7600   31.2300   35.1460 C   0  0  0  0  0  3  0  0  0  0  0  0
   35.3320   31.7840   36.4520 C   0  0  0  0  0  2  0  0  0  0  0  0
   36.0790   31.6600   37.2570 H   0  0  0  0  0  0  0  0  0  0  0  0
   37.0880   23.1250   31.9380 C   0  0  0  0  0  0  0  0  0  0  0  0
   35.7600   22.7130   31.8010 C   0  0  0  0  0  0  0  0  0  0  0  0
   35.5020   21.4910   31.1850 C   0  0  0  0  0  0  0  0  0  0  0  0
   36.5870   20.7470   30.7410 N   0  0  0  0  0  0  0  0  0  0  0  0
   37.8480   21.1910   30.8990 C   0  0  0  0  0  0  0  0  0  0  0  0
   38.1100   22.3500   31.4830 N   0  0  0  0  0  0  0  0  0  0  0  0
   34.9630   23.3360   32.1670 H   0  0  0  0  0  0  0  0  0  0  0  0
   34.4990   21.1240   31.0520 H   0  0  0  0  0  0  0  0  0  0  0  0
   38.6860   20.6070   30.5510 H   0  0  0  0  0  0  0  0  0  0  0  0
  1  6  1  0  0  0  0
  2  1  1  0  0  0  0
  2  8  1  0  0  0  0
  3  9  1  6  0  0  0
  3 17  1  0  0  0  0
  3  2  1  0  0  0  0
  3  4  1  0  0  0  0
  4 10  1  0  0  0  0
  5  4  1  0  0  0  0
  5 12  1  0  0  0  0
  5  6  1  0  0  0  0
  6 14  1  0  0  0  0
  6 13  1  0  0  0  0
  7  2  1  0  0  0  0
 11  5  1  0  0  0  0
 16 21  1  0  0  0  0
 16 15  1  0  0  0  0
 17 16  2  0  0  0  0
 18 19  2  0  0  0  0
 18 17  1  0  0  0  0
 19 20  1  0  0  0  0
 20 24  1  0  0  0  0
 20 21  2  0  0  0  0
 21 25  1  0  0  0  0
 22 18  1  0  0  0  0
 23 19  1  0  0  0  0
 25 26  2  0  0  0  0
 26 27  1  0  0  0  0
 27 28  1  0  0  0  0
 29  1  1  0  0  0  0
 30 29  1  0  0  0  0
 30 35  1  0  0  0  0
 31 30  2  0  0  0  0
 32 33  2  0  0  0  0
 32 31  1  0  0  0  0
 33 34  1  0  0  0  0
 34 29  2  0  0  0  0
 36 31  1  0  0  0  0
 37 33  1  0  0  0  0
M  END
>  <minimizedAffinity>
-5.39946461

$$$$

 OpenBabel03272508413D

 37 39  0  0  1  0  0  0  0  0999 V2000
   37.0120   27.4690   33.4580 N   0  0  0  0  0  0  0  0  0  0  0  0
   36.4160   28.3680   34.4400 C   0  0  0  0  0  0  0  0  0  0  0  0
   35.2090   29.0530   33.9810 C   0  0  2  0  0  0  0  0  0  0  0  0
   35.3600   29.5830   32.5980 N   0  0  0  0  0  0  0  0  0  0  0  0
   35.7560   28.4490   31.7410 C   0  0  0  0  0  0  0  0  0  0  0  0
   37.1570   28.1340   32.2120 C   0  0  0  0  0  0  0  0  0  0  0  0
   36.3010   27.8160   35.3660 H   0  0  0  0  0  0  0  0  0  0  0  0
   37.2400   29.1590   34.4920 H   0  0  0  0  0  0  0  0  0  0  0  0
   34.3190   28.4170   33.8280 H   0  0  0  0  0  0  0  0  0  0  0  0
   36.1190   30.2800   32.5990 H   0  0  0  0  0  0  0  0  0  0  0  0
   35.0670   27.6120   31.8570 H   0  0  0  0  0  0  0  0  0  0  0  0
   35.8350   28.8570   30.7220 H   0  0  0  0  0  0  0  0  0  0  0  0
   37.7040   29.0950   32.2960 H   0  0  0  0  0  0  0  0  0  0  0  0
   37.6860   27.5300   31.4530 H   0  0  0  0  0  0  0  0  0  0  0  0
   32.3240   29.3570   34.6390 Cl  0  0  0  0  0  0  0  0  0  0  0  0
   33.5990   30.3930   35.2840 C   0  0  0  0  0  0  0  0  0  0  0  0
   34.8800   30.1540   34.8680 C   0  0  0  0  0  0  0  0  0  0  0  0
   35.9920   30.8940   35.2960 C   0  0  0  0  0  0  0  0  0  0  0  0
   35.7220   31.9310   36.1990 C   0  0  0  0  0  0  0  0  0  0  0  0
   34.4120   32.1820   36.6250 C   0  0  0  0  0  0  0  0  0  0  0  0
   33.3690   31.4080   36.1620 C   0  0  0  0  0  0  0  0  0  0  0  0
   37.0450   30.9180   35.1490 H   0  0  0  0  0  0  0  0  0  0  0  0
   36.4070   32.6270   36.6600 H   0  0  0  0  0  0  0  0  0  0  0  0
   34.1270   32.9610   37.3160 H   0  0  0  0  0  0  0  0  0  0  0  0
   31.9980   31.6440   36.5860 C   0  0  0  0  0  3  0  0  0  0  0  0
   31.2960   32.6790   36.1800 C   0  0  0  0  0  3  0  0  0  0  0  0
   29.8990   32.9670   36.5800 C   0  0  0  0  0  2  0  0  0  0  0  0
   29.7960   33.8470   37.2420 H   0  0  0  0  0  0  0  0  0  0  0  0
   37.3860   26.1360   33.7680 C   0  0  0  0  0  0  0  0  0  0  0  0
   37.3600   25.1170   32.8110 C   0  0  0  0  0  0  0  0  0  0  0  0
   37.7430   23.8350   33.1950 C   0  0  0  0  0  0  0  0  0  0  0  0
   38.1300   23.6400   34.5140 N   0  0  0  0  0  0  0  0  0  0  0  0
   38.1360   24.6580   35.3950 C   0  0  0  0  0  0  0  0  0  0  0  0
   37.7750   25.8830   35.0470 N   0  0  0  0  0  0  0  0  0  0  0  0
   37.0490   25.3320   31.8040 H   0  0  0  0  0  0  0  0  0  0  0  0
   37.7430   23.0110   32.5010 H   0  0  0  0  0  0  0  0  0  0  0  0
   38.4390   24.5000   36.4190 H   0  0  0  0  0  0  0  0  0  0  0  0
  1 29  1  0  0  0  0
  1  2  1  0  0  0  0
  2  8  1  0  0  0  0
  2  7  1  0  0  0  0
  3  9  1  1  0  0  0
  3  2  1  0  0  0  0
  3 17  1  0  0  0  0
  4 10  1  0  0  0  0
  4  3  1  0  0  0  0
  5 11  1  0  0  0  0
  5  6  1  0  0  0  0
  5  4  1  0  0  0  0
  6 13  1  0  0  0  0
  6  1  1  0  0  0  0
 12  5  1  0  0  0  0
 14  6  1  0  0  0  0
 15 16  1  0  0  0  0
 16 21  1  0  0  0  0
 17 16  2  0  0  0  0
 17 18  1  0  0  0  0
 18 19  2  0  0  0  0
 19 20  1  0  0  0  0
 19 23  1  0  0  0  0
 20 24  1  0  0  0  0
 21 25  1  0  0  0  0
 21 20  2  0  0  0  0
 22 18  1  0  0  0  0
 26 27  1  0  0  0  0
 26 25  2  0  0  0  0
 27 28  1  0  0  0  0
 29 34  1  0  0  0  0
 30 31  1  0  0  0  0
 30 29  2  0  0  0  0
 31 32  2  0  0  0  0
 32 33  1  0  0  0  0
 33 37  1  0  0  0  0
 34 33  2  0  0  0  0
 35 30  1  0  0  0  0
 36 31  1  0  0  0  0
M  END
>  <minimizedAffinity>
-5.30873919

$$$$

 OpenBabel03272508413D

 37 39  0  0  1  0  0  0  0  0999 V2000
   37.5600   25.1280   32.9160 N   0  0  0  0  0  0  0  0  0  0  0  0
   37.4910   26.5500   32.5960 C   0  0  0  0  0  0  0  0  0  0  0  0
   36.2840   26.9500   31.8730 C   0  0  2  0  0  0  0  0  0  0  0  0
   35.9510   26.0020   30.7750 N   0  0  0  0  0  0  0  0  0  0  0  0
   35.8600   24.6580   31.3760 C   0  0  0  0  0  0  0  0  0  0  0  0
   37.2890   24.3520   31.7580 C   0  0  0  0  0  0  0  0  0  0  0  0
   37.6790   27.1030   33.5080 H   0  0  0  0  0  0  0  0  0  0  0  0
   38.3540   26.6140   31.8480 H   0  0  0  0  0  0  0  0  0  0  0  0
   35.3380   26.8970   32.4420 H   0  0  0  0  0  0  0  0  0  0  0  0
   36.7250   26.0100   30.0940 H   0  0  0  0  0  0  0  0  0  0  0  0
   35.1790   24.6560   32.2280 H   0  0  0  0  0  0  0  0  0  0  0  0
   35.5860   23.9800   30.5530 H   0  0  0  0  0  0  0  0  0  0  0  0
   37.9300   24.6260   30.8950 H   0  0  0  0  0  0  0  0  0  0  0  0
   37.4170   23.2670   31.9190 H   0  0  0  0  0  0  0  0  0  0  0  0
   35.4890   29.2030   33.6440 Cl  0  0  0  0  0  0  0  0  0  0  0  0
   36.1530   29.4080   32.0230 C   0  0  0  0  0  0  0  0  0  0  0  0
   36.4460   28.2780   31.3100 C   0  0  0  0  0  0  0  0  0  0  0  0
   36.9780   28.2880   30.0130 C   0  0  0  0  0  0  0  0  0  0  0  0
   37.2030   29.5530   29.4560 C   0  0  0  0  0  0  0  0  0  0  0  0
   36.9020   30.7140   30.1800 C   0  0  0  0  0  0  0  0  0  0  0  0
   36.3820   30.6240   31.4550 C   0  0  0  0  0  0  0  0  0  0  0  0
   37.2930   27.5950   29.2700 H   0  0  0  0  0  0  0  0  0  0  0  0
   37.6000   29.8090   28.4850 H   0  0  0  0  0  0  0  0  0  0  0  0
   37.0450   31.7200   29.8190 H   0  0  0  0  0  0  0  0  0  0  0  0
   36.0600   31.8110   32.2310 C   0  0  0  0  0  3  0  0  0  0  0  0
   36.8640   32.8480   32.3120 C   0  0  0  0  0  3  0  0  0  0  0  0
   36.5870   34.0800   33.0860 C   0  0  0  0  0  2  0  0  0  0  0  0
   37.2280   34.2010   33.9790 H   0  0  0  0  0  0  0  0  0  0  0  0
   37.8730   24.6500   34.2150 C   0  0  0  0  0  0  0  0  0  0  0  0
   37.9190   25.4980   35.3250 C   0  0  0  0  0  0  0  0  0  0  0  0
   38.2320   24.9510   36.5660 C   0  0  0  0  0  0  0  0  0  0  0  0
   38.4840   23.5880   36.6310 N   0  0  0  0  0  0  0  0  0  0  0  0
   38.4270   22.8160   35.5280 C   0  0  0  0  0  0  0  0  0  0  0  0
   38.1300   23.3200   34.3410 N   0  0  0  0  0  0  0  0  0  0  0  0
   37.7140   26.5480   35.2100 H   0  0  0  0  0  0  0  0  0  0  0  0
   38.2820   25.5560   37.4560 H   0  0  0  0  0  0  0  0  0  0  0  0
   38.6230   21.7570   35.5860 H   0  0  0  0  0  0  0  0  0  0  0  0
  1 29  1  0  0  0  0
  2  1  1  0  0  0  0
  2  7  1  0  0  0  0
  3  9  1  1  0  0  0
  3  2  1  0  0  0  0
  4  5  1  0  0  0  0
  4  3  1  0  0  0  0
  5  6  1  0  0  0  0
  5 11  1  0  0  0  0
  6 14  1  0  0  0  0
  6  1  1  0  0  0  0
  8  2  1  0  0  0  0
 10  4  1  0  0  0  0
 12  5  1  0  0  0  0
 13  6  1  0  0  0  0
 16 15  1  0  0  0  0
 17  3  1  0  0  0  0
 17 16  2  0  0  0  0
 18 17  1  0  0  0  0
 19 18  2  0  0  0  0
 19 20  1  0  0  0  0
 20 21  2  0  0  0  0
 21 16  1  0  0  0  0
 21 25  1  0  0  0  0
 22 18  1  0  0  0  0
 23 19  1  0  0  0  0
 24 20  1  0  0  0  0
 25 26  2  0  0  0  0
 26 27  1  0  0  0  0
 27 28  1  0  0  0  0
 29 34  2  0  0  0  0
 29 30  1  0  0  0  0
 30 31  2  0  0  0  0
 31 32  1  0  0  0  0
 31 36  1  0  0  0  0
 33 37  1  0  0  0  0
 33 32  2  0  0  0  0
 34 33  1  0  0  0  0
 35 30  1  0  0  0  0
M  END
>  <minimizedAffinity>
-5.26745033

$$$$

 OpenBabel03272508413D

 37 39  0  0  1  0  0  0  0  0999 V2000
   36.1800   28.5910   32.8790 N   0  0  0  0  0  0  0  0  0  0  0  0
   35.4320   28.9110   34.0900 C   0  0  0  0  0  0  0  0  0  0  0  0
   34.1530   29.5800   33.8540 C   0  0  2  0  0  0  0  0  0  0  0  0
   34.2690   30.6610   32.8370 N   0  0  0  0  0  0  0  0  0  0  0  0
   34.8490   30.0540   31.6240 C   0  0  0  0  0  0  0  0  0  0  0  0
   36.2650   29.7340   32.0410 C   0  0  0  0  0  0  0  0  0  0  0  0
   35.3690   28.0090   34.6870 H   0  0  0  0  0  0  0  0  0  0  0  0
   36.1320   29.6950   34.5390 H   0  0  0  0  0  0  0  0  0  0  0  0
   33.3680   28.9700   33.3720 H   0  0  0  0  0  0  0  0  0  0  0  0
   34.9200   31.3750   33.1960 H   0  0  0  0  0  0  0  0  0  0  0  0
   34.2830   29.1730   31.3190 H   0  0  0  0  0  0  0  0  0  0  0  0
   34.8990   30.8630   30.8790 H   0  0  0  0  0  0  0  0  0  0  0  0
   36.6670   30.6240   32.5670 H   0  0  0  0  0  0  0  0  0  0  0  0
   36.8990   29.5760   31.1500 H   0  0  0  0  0  0  0  0  0  0  0  0
   35.6970   31.8800   34.9370 Cl  0  0  0  0  0  0  0  0  0  0  0  0
   34.2330   31.2350   35.6810 C   0  0  0  0  0  0  0  0  0  0  0  0
   33.6450   30.1530   35.0870 C   0  0  0  0  0  0  0  0  0  0  0  0
   32.4790   29.5360   35.5650 C   0  0  0  0  0  0  0  0  0  0  0  0
   31.9250   30.0960   36.7230 C   0  0  0  0  0  0  0  0  0  0  0  0
   32.5260   31.2030   37.3380 C   0  0  0  0  0  0  0  0  0  0  0  0
   33.6710   31.7570   36.8060 C   0  0  0  0  0  0  0  0  0  0  0  0
   31.8360   28.7290   35.3090 H   0  0  0  0  0  0  0  0  0  0  0  0
   31.0430   29.7970   37.2690 H   0  0  0  0  0  0  0  0  0  0  0  0
   32.1590   31.6870   38.2290 H   0  0  0  0  0  0  0  0  0  0  0  0
   34.3170   32.9070   37.4210 C   0  0  0  0  0  3  0  0  0  0  0  0
   33.6880   34.0390   37.6450 C   0  0  0  0  0  3  0  0  0  0  0  0
   34.2960   35.2390   38.2670 C   0  0  0  0  0  2  0  0  0  0  0  0
   34.4350   36.0840   37.5670 H   0  0  0  0  0  0  0  0  0  0  0  0
   36.7300   27.3060   32.6360 C   0  0  0  0  0  0  0  0  0  0  0  0
   37.5290   26.6520   33.5780 C   0  0  0  0  0  0  0  0  0  0  0  0
   38.0310   25.3920   33.2650 C   0  0  0  0  0  0  0  0  0  0  0  0
   37.7070   24.8540   32.0260 N   0  0  0  0  0  0  0  0  0  0  0  0
   36.9330   25.5280   31.1550 C   0  0  0  0  0  0  0  0  0  0  0  0
   36.4480   26.7270   31.4370 N   0  0  0  0  0  0  0  0  0  0  0  0
   37.7450   27.1230   34.5210 H   0  0  0  0  0  0  0  0  0  0  0  0
   38.6510   24.8410   33.9520 H   0  0  0  0  0  0  0  0  0  0  0  0
   36.6850   25.1040   30.1940 H   0  0  0  0  0  0  0  0  0  0  0  0
  1  2  1  0  0  0  0
  2  8  1  0  0  0  0
  2  7  1  0  0  0  0
  3  9  1  6  0  0  0
  3  2  1  0  0  0  0
  3 17  1  0  0  0  0
  4 10  1  0  0  0  0
  4  3  1  0  0  0  0
  5  6  1  0  0  0  0
  5  4  1  0  0  0  0
  6 13  1  0  0  0  0
  6  1  1  0  0  0  0
 11  5  1  0  0  0  0
 12  5  1  0  0  0  0
 14  6  1  0  0  0  0
 15 16  1  0  0  0  0
 16 21  1  0  0  0  0
 17 18  1  0  0  0  0
 17 16  2  0  0  0  0
 18 19  2  0  0  0  0
 19 23  1  0  0  0  0
 19 20  1  0  0  0  0
 20 24  1  0  0  0  0
 21 20  2  0  0  0  0
 21 25  1  0  0  0  0
 22 18  1  0  0  0  0
 25 26  2  0  0  0  0
 26 27  1  0  0  0  0
 28 27  1  0  0  0  0
 29  1  1  0  0  0  0
 29 30  1  0  0  0  0
 30 35  1  0  0  0  0
 31 30  2  0  0  0  0
 31 36  1  0  0  0  0
 32 31  1  0  0  0  0
 33 34  1  0  0  0  0
 33 32  2  0  0  0  0
 34 29  2  0  0  0  0
 37 33  1  0  0  0  0
M  END
>  <minimizedAffinity>
-5.25063086

$$$$

 OpenBabel03272508413D

 37 39  0  0  1  0  0  0  0  0999 V2000
   36.4960   27.9950   32.4010 N   0  0  0  0  0  0  0  0  0  0  0  0
   35.9120   28.6450   33.5700 C   0  0  0  0  0  0  0  0  0  0  0  0
   34.9970   29.7430   33.2590 C   0  0  2  0  0  0  0  0  0  0  0  0
   35.5380   30.6360   32.1990 N   0  0  0  0  0  0  0  0  0  0  0  0
   35.8550   29.7860   31.0360 C   0  0  0  0  0  0  0  0  0  0  0  0
   37.0300   28.9680   31.5160 C   0  0  0  0  0  0  0  0  0  0  0  0
   35.4960   27.8720   34.2050 H   0  0  0  0  0  0  0  0  0  0  0  0
   36.8550   29.1220   34.0070 H   0  0  0  0  0  0  0  0  0  0  0  0
   34.0440   29.4570   32.7780 H   0  0  0  0  0  0  0  0  0  0  0  0
   36.4090   31.0620   32.5470 H   0  0  0  0  0  0  0  0  0  0  0  0
   34.9960   29.1770   30.7510 H   0  0  0  0  0  0  0  0  0  0  0  0
   36.2260   30.4700   30.2570 H   0  0  0  0  0  0  0  0  0  0  0  0
   37.7380   29.6620   32.0150 H   0  0  0  0  0  0  0  0  0  0  0  0
   37.5660   28.5280   30.6560 H   0  0  0  0  0  0  0  0  0  0  0  0
   32.1260   30.1390   33.9240 Cl  0  0  0  0  0  0  0  0  0  0  0  0
   33.4600   30.7700   34.8910 C   0  0  0  0  0  0  0  0  0  0  0  0
   34.7320   30.5340   34.4460 C   0  0  0  0  0  0  0  0  0  0  0  0
   35.8860   30.9730   35.1100 C   0  0  0  0  0  0  0  0  0  0  0  0
   35.6720   31.6930   36.2930 C   0  0  0  0  0  0  0  0  0  0  0  0
   34.3710   31.9400   36.7510 C   0  0  0  0  0  0  0  0  0  0  0  0
   33.2830   31.4730   36.0440 C   0  0  0  0  0  0  0  0  0  0  0  0
   36.9420   30.9260   34.9990 H   0  0  0  0  0  0  0  0  0  0  0  0
   36.3960   32.1270   36.9660 H   0  0  0  0  0  0  0  0  0  0  0  0
   34.1280   32.4860   37.6490 H   0  0  0  0  0  0  0  0  0  0  0  0
   31.9220   31.7130   36.4950 C   0  0  0  0  0  3  0  0  0  0  0  0
   31.2840   32.8380   36.2620 C   0  0  0  0  0  3  0  0  0  0  0  0
   29.8990   33.1350   36.6970 C   0  0  0  0  0  2  0  0  0  0  0  0
   29.8340   33.8970   37.4960 H   0  0  0  0  0  0  0  0  0  0  0  0
   36.5090   26.5860   32.2370 C   0  0  0  0  0  0  0  0  0  0  0  0
   37.4170   25.7690   32.9170 C   0  0  0  0  0  0  0  0  0  0  0  0
   37.3640   24.3940   32.7020 C   0  0  0  0  0  0  0  0  0  0  0  0
   36.4080   23.9110   31.8190 N   0  0  0  0  0  0  0  0  0  0  0  0
   35.5570   24.7440   31.1900 C   0  0  0  0  0  0  0  0  0  0  0  0
   35.5940   26.0530   31.3820 N   0  0  0  0  0  0  0  0  0  0  0  0
   38.1350   26.2040   33.5890 H   0  0  0  0  0  0  0  0  0  0  0  0
   38.0370   23.7160   33.1990 H   0  0  0  0  0  0  0  0  0  0  0  0
   34.8160   24.3610   30.5050 H   0  0  0  0  0  0  0  0  0  0  0  0
  1  2  1  0  0  0  0
  2  8  1  0  0  0  0
  2  7  1  0  0  0  0
  3  9  1  6  0  0  0
  3  2  1  0  0  0  0
  3 17  1  0  0  0  0
  4 10  1  0  0  0  0
  4  3  1  0  0  0  0
  5  6  1  0  0  0  0
  5  4  1  0  0  0  0
  6 13  1  0  0  0  0
  6  1  1  0  0  0  0
 11  5  1  0  0  0  0
 12  5  1  0  0  0  0
 14  6  1  0  0  0  0
 15 16  1  0  0  0  0
 16 21  1  0  0  0  0
 17 16  2  0  0  0  0
 17 18  1  0  0  0  0
 18 19  2  0  0  0  0
 19 20  1  0  0  0  0
 19 23  1  0  0  0  0
 20 24  1  0  0  0  0
 21 25  1  0  0  0  0
 21 20  2  0  0  0  0
 22 18  1  0  0  0  0
 26 25  2  0  0  0  0
 26 27  1  0  0  0  0
 27 28  1  0  0  0  0
 29  1  1  0  0  0  0
 29 30  1  0  0  0  0
 30 35  1  0  0  0  0
 31 30  2  0  0  0  0
 31 36  1  0  0  0  0
 32 31  1  0  0  0  0
 33 34  1  0  0  0  0
 33 32  2  0  0  0  0
 34 29  2  0  0  0  0
 37 33  1  0  0  0  0
M  END
>  <minimizedAffinity>
-5.20455647

$$$$

 OpenBabel03272508413D

 37 39  0  0  1  0  0  0  0  0999 V2000
   35.6030   30.1070   32.5340 N   0  0  0  0  0  0  0  0  0  0  0  0
   35.8180   28.6720   32.6890 C   0  0  0  0  0  0  0  0  0  0  0  0
   36.6790   28.0740   31.6680 C   0  0  2  0  0  0  0  0  0  0  0  0
   36.3390   28.5540   30.3020 N   0  0  0  0  0  0  0  0  0  0  0  0
   36.3980   30.0280   30.3320 C   0  0  0  0  0  0  0  0  0  0  0  0
   35.2190   30.4020   31.2000 C   0  0  0  0  0  0  0  0  0  0  0  0
   36.1320   28.4930   33.7100 H   0  0  0  0  0  0  0  0  0  0  0  0
   34.7570   28.3010   32.4770 H   0  0  0  0  0  0  0  0  0  0  0  0
   37.7430   28.3700   31.6980 H   0  0  0  0  0  0  0  0  0  0  0  0
   35.3730   28.2640   30.0870 H   0  0  0  0  0  0  0  0  0  0  0  0
   37.3510   30.3730   30.7340 H   0  0  0  0  0  0  0  0  0  0  0  0
   36.1710   30.3590   29.3070 H   0  0  0  0  0  0  0  0  0  0  0  0
   34.3500   29.8030   30.8590 H   0  0  0  0  0  0  0  0  0  0  0  0
   34.9550   31.4640   31.0470 H   0  0  0  0  0  0  0  0  0  0  0  0
   38.8520   26.6470   33.1120 Cl  0  0  0  0  0  0  0  0  0  0  0  0
   37.4780   25.8430   32.3520 C   0  0  0  0  0  0  0  0  0  0  0  0
   36.5690   26.6270   31.6950 C   0  0  0  0  0  0  0  0  0  0  0  0
   35.4300   26.1280   31.0470 C   0  0  0  0  0  0  0  0  0  0  0  0
   35.2590   24.7390   31.1000 C   0  0  0  0  0  0  0  0  0  0  0  0
   36.1890   23.9310   31.7680 C   0  0  0  0  0  0  0  0  0  0  0  0
   37.2850   24.4960   32.3850 C   0  0  0  0  0  0  0  0  0  0  0  0
   34.5970   26.4920   30.4970 H   0  0  0  0  0  0  0  0  0  0  0  0
   34.4700   24.1340   30.6790 H   0  0  0  0  0  0  0  0  0  0  0  0
   36.1250   22.8570   31.8490 H   0  0  0  0  0  0  0  0  0  0  0  0
   38.2660   23.6840   33.0870 C   0  0  0  0  0  3  0  0  0  0  0  0
   38.0070   23.0810   34.2260 C   0  0  0  0  0  3  0  0  0  0  0  0
   38.9670   22.2430   34.9810 C   0  0  0  0  0  2  0  0  0  0  0  0
   39.3120   22.7000   35.9270 H   0  0  0  0  0  0  0  0  0  0  0  0
   35.7590   31.0230   33.6060 C   0  0  0  0  0  0  0  0  0  0  0  0
   35.9720   32.3880   33.3890 C   0  0  0  0  0  0  0  0  0  0  0  0
   36.1140   33.2220   34.4950 C   0  0  0  0  0  0  0  0  0  0  0  0
   36.0350   32.6480   35.7570 N   0  0  0  0  0  0  0  0  0  0  0  0
   35.8280   31.3260   35.9080 C   0  0  0  0  0  0  0  0  0  0  0  0
   35.6920   30.5180   34.8680 N   0  0  0  0  0  0  0  0  0  0  0  0
   36.0240   32.7720   32.3860 H   0  0  0  0  0  0  0  0  0  0  0  0
   36.2790   34.2810   34.3890 H   0  0  0  0  0  0  0  0  0  0  0  0
   35.7670   30.8860   36.8920 H   0  0  0  0  0  0  0  0  0  0  0  0
  1  2  1  0  0  0  0
  1 29  1  0  0  0  0
  2  7  1  0  0  0  0
  3 17  1  0  0  0  0
  3  9  1  1  0  0  0
  3  2  1  0  0  0  0
  4  5  1  0  0  0  0
  4  3  1  0  0  0  0
  5 11  1  0  0  0  0
  5  6  1  0  0  0  0
  6  1  1  0  0  0  0
  8  2  1  0  0  0  0
 10  4  1  0  0  0  0
 12  5  1  0  0  0  0
 13  6  1  0  0  0  0
 14  6  1  0  0  0  0
 16 21  1  0  0  0  0
 16 15  1  0  0  0  0
 17 16  2  0  0  0  0
 18 19  2  0  0  0  0
 18 17  1  0  0  0  0
 19 20  1  0  0  0  0
 20 24  1  0  0  0  0
 20 21  2  0  0  0  0
 21 25  1  0  0  0  0
 22 18  1  0  0  0  0
 23 19  1  0  0  0  0
 25 26  2  0  0  0  0
 26 27  1  0  0  0  0
 27 28  1  0  0  0  0
 29 34  1  0  0  0  0
 30 29  2  0  0  0  0
 30 31  1  0  0  0  0
 31 32  2  0  0  0  0
 32 33  1  0  0  0  0
 33 37  1  0  0  0  0
 34 33  2  0  0  0  0
 35 30  1  0  0  0  0
 36 31  1  0  0  0  0
M  END
>  <minimizedAffinity>
-5.15233755

$$$$

 OpenBabel03272508413D

 37 39  0  0  1  0  0  0  0  0999 V2000
   37.5680   22.5230   31.9390 N   0  0  0  0  0  0  0  0  0  0  0  0
   37.3150   23.6190   32.8690 C   0  0  0  0  0  0  0  0  0  0  0  0
   37.2490   24.9400   32.2450 C   0  0  2  0  0  0  0  0  0  0  0  0
   38.3410   25.1440   31.2550 N   0  0  0  0  0  0  0  0  0  0  0  0
   38.2630   24.0320   30.2880 C   0  0  0  0  0  0  0  0  0  0  0  0
   38.6770   22.8330   31.1090 C   0  0  0  0  0  0  0  0  0  0  0  0
   36.4490   23.3530   33.4640 H   0  0  0  0  0  0  0  0  0  0  0  0
   38.2910   23.5880   33.4620 H   0  0  0  0  0  0  0  0  0  0  0  0
   36.3800   25.1220   31.5870 H   0  0  0  0  0  0  0  0  0  0  0  0
   39.2420   25.0910   31.7510 H   0  0  0  0  0  0  0  0  0  0  0  0
   37.2580   23.9430   29.8760 H   0  0  0  0  0  0  0  0  0  0  0  0
   39.0600   24.2190   29.5520 H   0  0  0  0  0  0  0  0  0  0  0  0
   39.5810   23.1190   31.6850 H   0  0  0  0  0  0  0  0  0  0  0  0
   38.9710   22.0000   30.4450 H   0  0  0  0  0  0  0  0  0  0  0  0
   35.5930   27.3560   31.7330 Cl  0  0  0  0  0  0  0  0  0  0  0  0
   36.5990   27.1340   33.1650 C   0  0  0  0  0  0  0  0  0  0  0  0
   37.3310   25.9820   33.2520 C   0  0  0  0  0  0  0  0  0  0  0  0
   38.1720   25.6690   34.3300 C   0  0  0  0  0  0  0  0  0  0  0  0
   38.2350   26.6260   35.3510 C   0  0  0  0  0  0  0  0  0  0  0  0
   37.4890   27.8090   35.2660 C   0  0  0  0  0  0  0  0  0  0  0  0
   36.6810   28.0450   34.1730 C   0  0  0  0  0  0  0  0  0  0  0  0
   38.8160   24.8830   34.6430 H   0  0  0  0  0  0  0  0  0  0  0  0
   38.8060   26.6080   36.2670 H   0  0  0  0  0  0  0  0  0  0  0  0
   37.4870   28.5910   36.0090 H   0  0  0  0  0  0  0  0  0  0  0  0
   35.8950   29.2630   34.0570 C   0  0  0  0  0  3  0  0  0  0  0  0
   35.8960   30.2010   34.9780 C   0  0  0  0  0  3  0  0  0  0  0  0
   35.1170   31.4590   34.9110 C   0  0  0  0  0  2  0  0  0  0  0  0
   34.2830   31.5080   35.6360 H   0  0  0  0  0  0  0  0  0  0  0  0
   36.7900   21.3360   31.9250 C   0  0  0  0  0  0  0  0  0  0  0  0
   35.3980   21.3610   32.0520 C   0  0  0  0  0  0  0  0  0  0  0  0
   34.7070   20.1530   32.0270 C   0  0  0  0  0  0  0  0  0  0  0  0
   35.4440   18.9860   31.8770 N   0  0  0  0  0  0  0  0  0  0  0  0
   36.7850   19.0200   31.7590 C   0  0  0  0  0  0  0  0  0  0  0  0
   37.4570   20.1590   31.7810 N   0  0  0  0  0  0  0  0  0  0  0  0
   34.8840   22.2990   32.1660 H   0  0  0  0  0  0  0  0  0  0  0  0
   33.6350   20.1110   32.1200 H   0  0  0  0  0  0  0  0  0  0  0  0
   37.3510   18.1080   31.6420 H   0  0  0  0  0  0  0  0  0  0  0  0
  1  2  1  0  0  0  0
  2  8  1  0  0  0  0
  2  7  1  0  0  0  0
  3  9  1  6  0  0  0
  3  2  1  0  0  0  0
  3 17  1  0  0  0  0
  4 10  1  0  0  0  0
  4  3  1  0  0  0  0
  5  6  1  0  0  0  0
  5  4  1  0  0  0  0
  6 13  1  0  0  0  0
  6  1  1  0  0  0  0
 11  5  1  0  0  0  0
 12  5  1  0  0  0  0
 14  6  1  0  0  0  0
 15 16  1  0  0  0  0
 16 17  2  0  0  0  0
 16 21  1  0  0  0  0
 17 18  1  0  0  0  0
 18 22  1  0  0  0  0
 18 19  2  0  0  0  0
 19 23  1  0  0  0  0
 20 19  1  0  0  0  0
 20 24  1  0  0  0  0
 21 20  2  0  0  0  0
 25 21  1  0  0  0  0
 25 26  2  0  0  0  0
 27 26  1  0  0  0  0
 27 28  1  0  0  0  0
 29  1  1  0  0  0  0
 29 30  1  0  0  0  0
 30 35  1  0  0  0  0
 31 30  2  0  0  0  0
 31 36  1  0  0  0  0
 32 31  1  0  0  0  0
 33 34  1  0  0  0  0
 33 32  2  0  0  0  0
 34 29  2  0  0  0  0
 37 33  1  0  0  0  0
M  END
>  <minimizedAffinity>
-5.14678478

$$$$

 OpenBabel03272508413D

 37 39  0  0  1  0  0  0  0  0999 V2000
   38.5150   24.2140   34.4620 N   0  0  0  0  0  0  0  0  0  0  0  0
   38.2570   25.5510   33.9370 C   0  0  0  0  0  0  0  0  0  0  0  0
   37.1750   25.6180   32.9550 C   0  0  2  0  0  0  0  0  0  0  0  0
   37.2570   24.5150   31.9600 N   0  0  0  0  0  0  0  0  0  0  0  0
   37.2870   23.2490   32.7170 C   0  0  0  0  0  0  0  0  0  0  0  0
   38.6360   23.2850   33.3960 C   0  0  0  0  0  0  0  0  0  0  0  0
   38.1470   26.2220   34.7810 H   0  0  0  0  0  0  0  0  0  0  0  0
   39.2300   25.7150   33.3600 H   0  0  0  0  0  0  0  0  0  0  0  0
   36.1570   25.4300   33.3420 H   0  0  0  0  0  0  0  0  0  0  0  0
   38.1410   24.6130   31.4390 H   0  0  0  0  0  0  0  0  0  0  0  0
   36.4550   23.1950   33.4200 H   0  0  0  0  0  0  0  0  0  0  0  0
   37.3190   22.4490   31.9620 H   0  0  0  0  0  0  0  0  0  0  0  0
   39.3830   23.5950   32.6360 H   0  0  0  0  0  0  0  0  0  0  0  0
   38.9220   22.2720   33.7300 H   0  0  0  0  0  0  0  0  0  0  0  0
   39.3430   25.9140   30.9410 Cl  0  0  0  0  0  0  0  0  0  0  0  0
   38.1280   27.1490   31.2730 C   0  0  0  0  0  0  0  0  0  0  0  0
   37.2080   26.8860   32.2500 C   0  0  0  0  0  0  0  0  0  0  0  0
   36.1860   27.7720   32.6200 C   0  0  0  0  0  0  0  0  0  0  0  0
   36.1490   28.9850   31.9210 C   0  0  0  0  0  0  0  0  0  0  0  0
   37.0910   29.2610   30.9210 C   0  0  0  0  0  0  0  0  0  0  0  0
   38.0670   28.3380   30.6110 C   0  0  0  0  0  0  0  0  0  0  0  0
   35.3720   27.8170   33.3030 H   0  0  0  0  0  0  0  0  0  0  0  0
   35.4630   29.8130   32.0290 H   0  0  0  0  0  0  0  0  0  0  0  0
   37.1270   30.1710   30.3430 H   0  0  0  0  0  0  0  0  0  0  0  0
   39.0580   28.5950   29.5780 C   0  0  0  0  0  3  0  0  0  0  0  0
   38.8010   28.4580   28.2960 C   0  0  0  0  0  3  0  0  0  0  0  0
   39.7710   28.7070   27.2040 C   0  0  0  0  0  2  0  0  0  0  0  0
   40.1000   27.7900   26.6810 H   0  0  0  0  0  0  0  0  0  0  0  0
   38.6310   23.9470   35.8510 C   0  0  0  0  0  0  0  0  0  0  0  0
   37.7760   24.5280   36.7920 C   0  0  0  0  0  0  0  0  0  0  0  0
   37.9550   24.2130   38.1360 C   0  0  0  0  0  0  0  0  0  0  0  0
   38.9780   23.3360   38.4670 N   0  0  0  0  0  0  0  0  0  0  0  0
   39.7730   22.8040   37.5190 C   0  0  0  0  0  0  0  0  0  0  0  0
   39.6180   23.0930   36.2370 N   0  0  0  0  0  0  0  0  0  0  0  0
   37.0020   25.2020   36.4710 H   0  0  0  0  0  0  0  0  0  0  0  0
   37.3260   24.6310   38.9050 H   0  0  0  0  0  0  0  0  0  0  0  0
   40.5670   22.1220   37.7840 H   0  0  0  0  0  0  0  0  0  0  0  0
  1 29  1  0  0  0  0
  2  1  1  0  0  0  0
  2  7  1  0  0  0  0
  3  9  1  1  0  0  0
  3  2  1  0  0  0  0
  4  5  1  0  0  0  0
  4  3  1  0  0  0  0
  5  6  1  0  0  0  0
  5 11  1  0  0  0  0
  6 14  1  0  0  0  0
  6  1  1  0  0  0  0
  8  2  1  0  0  0  0
 10  4  1  0  0  0  0
 12  5  1  0  0  0  0
 13  6  1  0  0  0  0
 15 16  1  0  0  0  0
 16 17  1  0  0  0  0
 17 18  2  0  0  0  0
 17  3  1  0  0  0  0
 18 22  1  0  0  0  0
 19 23  1  0  0  0  0
 19 18  1  0  0  0  0
 20 19  2  0  0  0  0
 21 20  1  0  0  0  0
 21 16  2  0  0  0  0
 24 20  1  0  0  0  0
 25 21  1  0  0  0  0
 26 25  2  0  0  0  0
 27 26  1  0  0  0  0
 28 27  1  0  0  0  0
 29 34  2  0  0  0  0
 29 30  1  0  0  0  0
 30 31  2  0  0  0  0
 31 32  1  0  0  0  0
 31 36  1  0  0  0  0
 33 37  1  0  0  0  0
 33 32  2  0  0  0  0
 34 33  1  0  0  0  0
 35 30  1  0  0  0  0
M  END
>  <minimizedAffinity>
-5.14254522

$$$$
