
 OpenBabel03272509533D

 38 40  0  0  0  0  0  0  0  0999 V2000
   37.2700   30.1360   51.4480 C   0  0  0  0  0  0  0  0  0  0  0  0
   38.0340   30.8260   50.4750 C   0  0  0  0  0  0  0  0  0  0  0  0
   37.6820   30.6390   49.1480 C   0  0  0  0  0  0  0  0  0  0  0  0
   36.6230   29.8030   48.8920 N   0  0  0  0  0  0  0  0  0  0  0  0
   35.9260   29.1700   49.8330 C   0  0  0  0  0  0  0  0  0  0  0  0
   36.2630   29.3460   51.1290 N   0  0  0  0  0  0  0  0  0  0  0  0
   37.6070   30.3330   52.4640 H   0  0  0  0  0  0  0  0  0  0  0  0
   38.8660   31.4830   50.6810 H   0  0  0  0  0  0  0  0  0  0  0  0
   38.9180   33.2520   49.0010 F   0  0  0  0  0  0  0  0  0  0  0  0
   38.9160   32.4670   47.9270 C   0  0  0  0  0  0  0  0  0  0  0  0
   38.3350   31.2510   48.0140 C   0  0  0  0  0  0  0  0  0  0  0  0
   38.3920   30.5210   46.8360 C   0  0  0  0  0  0  0  0  0  0  0  0
   38.9860   30.9950   45.6940 C   0  0  0  0  0  0  0  0  0  0  0  0
   39.5620   32.2300   45.6500 C   0  0  0  0  0  0  0  0  0  0  0  0
   39.5210   32.9770   46.7990 C   0  0  0  0  0  0  0  0  0  0  0  0
   37.9710   29.5140   46.7280 H   0  0  0  0  0  0  0  0  0  0  0  0
   39.0290   30.4130   44.7650 H   0  0  0  0  0  0  0  0  0  0  0  0
   40.0340   32.6250   44.7620 H   0  0  0  0  0  0  0  0  0  0  0  0
   39.9710   33.9610   46.7900 H   0  0  0  0  0  0  0  0  0  0  0  0
   34.9290   28.4010   49.3340 O   0  0  0  0  0  0  0  0  0  0  0  0
   34.3270   28.7760   48.0920 C   0  0  0  0  0  0  0  0  0  0  0  0
   35.0910   29.1170   47.3670 H   0  0  0  0  0  0  0  0  0  0  0  0
   33.6860   29.6510   48.3250 H   0  0  0  0  0  0  0  0  0  0  0  0
   33.4540   27.6780   47.5790 C   0  0  0  0  0  0  0  0  0  0  0  0
   33.7480   26.6730   47.8980 H   0  0  0  0  0  0  0  0  0  0  0  0
   33.5810   27.6730   46.4560 H   0  0  0  0  0  0  0  0  0  0  0  0
   32.0050   27.9380   47.7890 C   0  0  0  0  0  0  0  0  0  0  0  0
   31.4270   27.4830   48.9780 C   0  0  0  0  0  0  0  0  0  0  0  0
   30.1010   27.6830   49.2460 C   0  0  0  0  0  0  0  0  0  0  0  0
   29.3450   28.3160   48.3730 N   0  0  0  0  0  0  0  0  0  0  0  0
   29.9130   28.7610   47.2110 C   0  0  0  0  0  0  0  0  0  0  0  0
   31.2110   28.5880   46.9030 N   0  0  0  0  0  0  0  0  0  0  0  0
   32.0620   26.9620   49.6900 H   0  0  0  0  0  0  0  0  0  0  0  0
   29.6280   27.3370   50.1660 H   0  0  0  0  0  0  0  0  0  0  0  0
   29.0320   29.4560   46.2760 C   0  0  0  0  0  3  0  0  0  0  0  0
   27.8590   29.9030   46.6180 C   0  0  0  0  0  3  0  0  0  0  0  0
   26.9460   30.6180   45.6720 C   0  0  0  0  0  2  0  0  0  0  0  0
   27.3970   30.5080   44.6630 H   0  0  0  0  0  0  0  0  0  0  0  0
  1  7  1  0  0  0  0
  2  8  1  0  0  0  0
  2  1  2  0  0  0  0
  3  2  1  0  0  0  0
  4  3  2  0  0  0  0
  4  5  1  0  0  0  0
  5  6  2  0  0  0  0
  6  1  1  0  0  0  0
 10 11  1  0  0  0  0
 10  9  1  0  0  0  0
 11  3  1  0  0  0  0
 12 11  2  0  0  0  0
 13 12  1  0  0  0  0
 14 13  2  0  0  0  0
 14 15  1  0  0  0  0
 15 10  2  0  0  0  0
 16 12  1  0  0  0  0
 17 13  1  0  0  0  0
 18 14  1  0  0  0  0
 19 15  1  0  0  0  0
 20  5  1  0  0  0  0
 21 23  1  0  0  0  0
 21 20  1  0  0  0  0
 22 21  1  0  0  0  0
 24 27  1  0  0  0  0
 24 25  1  0  0  0  0
 24 21  1  0  0  0  0
 26 24  1  0  0  0  0
 27 28  1  0  0  0  0
 28 29  2  0  0  0  0
 28 33  1  0  0  0  0
 29 34  1  0  0  0  0
 30 29  1  0  0  0  0
 31 30  2  0  0  0  0
 32 31  1  0  0  0  0
 32 27  2  0  0  0  0
 35 36  2  0  0  0  0
 35 31  1  0  0  0  0
 37 36  1  0  0  0  0
 38 37  1  0  0  0  0
M  END
>  <minimizedAffinity>
-6.41092682

>  <minimizedRMSD>
0.521029353

$$$$
