
 OpenBabel03272509533D

 38 40  0  0  0  0  0  0  0  0999 V2000
   37.3240   30.1700   51.5150 C   0  0  0  0  0  0  0  0  0  0  0  0
   38.0620   30.8610   50.5220 C   0  0  0  0  0  0  0  0  0  0  0  0
   37.6970   30.6480   49.2020 C   0  0  0  0  0  0  0  0  0  0  0  0
   36.6520   29.7880   48.9720 N   0  0  0  0  0  0  0  0  0  0  0  0
   35.9790   29.1550   49.9310 C   0  0  0  0  0  0  0  0  0  0  0  0
   36.3290   29.3570   51.2200 N   0  0  0  0  0  0  0  0  0  0  0  0
   37.6710   30.3890   52.5240 H   0  0  0  0  0  0  0  0  0  0  0  0
   38.8840   31.5370   50.7080 H   0  0  0  0  0  0  0  0  0  0  0  0
   38.9460   33.2530   49.0220 F   0  0  0  0  0  0  0  0  0  0  0  0
   38.9100   32.4680   47.9490 C   0  0  0  0  0  0  0  0  0  0  0  0
   38.3240   31.2560   48.0520 C   0  0  0  0  0  0  0  0  0  0  0  0
   38.3450   30.5260   46.8730 C   0  0  0  0  0  0  0  0  0  0  0  0
   38.9120   30.9960   45.7150 C   0  0  0  0  0  0  0  0  0  0  0  0
   39.4940   32.2280   45.6560 C   0  0  0  0  0  0  0  0  0  0  0  0
   39.4880   32.9740   46.8060 C   0  0  0  0  0  0  0  0  0  0  0  0
   37.9150   29.5220   46.7750 H   0  0  0  0  0  0  0  0  0  0  0  0
   38.9260   30.4140   44.7860 H   0  0  0  0  0  0  0  0  0  0  0  0
   39.9450   32.6200   44.7550 H   0  0  0  0  0  0  0  0  0  0  0  0
   39.9440   33.9560   46.7850 H   0  0  0  0  0  0  0  0  0  0  0  0
   34.9910   28.3600   49.4560 O   0  0  0  0  0  0  0  0  0  0  0  0
   34.4390   28.6440   48.1680 C   0  0  0  0  0  0  0  0  0  0  0  0
   35.2340   28.8990   47.4420 H   0  0  0  0  0  0  0  0  0  0  0  0
   33.8190   29.5550   48.3050 H   0  0  0  0  0  0  0  0  0  0  0  0
   33.5460   27.5330   47.7220 C   0  0  0  0  0  0  0  0  0  0  0  0
   33.7520   26.5660   48.1900 H   0  0  0  0  0  0  0  0  0  0  0  0
   33.7640   27.3750   46.6250 H   0  0  0  0  0  0  0  0  0  0  0  0
   32.1030   27.8900   47.7680 C   0  0  0  0  0  0  0  0  0  0  0  0
   31.3630   27.4730   48.8790 C   0  0  0  0  0  0  0  0  0  0  0  0
   30.0320   27.7620   48.9960 C   0  0  0  0  0  0  0  0  0  0  0  0
   29.4250   28.4440   48.0470 N   0  0  0  0  0  0  0  0  0  0  0  0
   30.1500   28.8500   46.9610 C   0  0  0  0  0  0  0  0  0  0  0  0
   31.4600   28.5910   46.8020 N   0  0  0  0  0  0  0  0  0  0  0  0
   31.8780   26.9110   49.6540 H   0  0  0  0  0  0  0  0  0  0  0  0
   29.4350   27.4480   49.8530 H   0  0  0  0  0  0  0  0  0  0  0  0
   29.4300   29.6030   45.9370 C   0  0  0  0  0  3  0  0  0  0  0  0
   29.3330   29.1970   44.7060 C   0  0  0  0  0  3  0  0  0  0  0  0
   28.5980   29.9570   43.6470 C   0  0  0  0  0  2  0  0  0  0  0  0
   28.3510   30.9450   44.0890 H   0  0  0  0  0  0  0  0  0  0  0  0
  1  7  1  0  0  0  0
  2  8  1  0  0  0  0
  2  1  2  0  0  0  0
  3  2  1  0  0  0  0
  4  3  2  0  0  0  0
  4  5  1  0  0  0  0
  5  6  2  0  0  0  0
  6  1  1  0  0  0  0
 10 11  1  0  0  0  0
 10  9  1  0  0  0  0
 11  3  1  0  0  0  0
 12 11  2  0  0  0  0
 13 12  1  0  0  0  0
 14 13  2  0  0  0  0
 14 15  1  0  0  0  0
 15 10  2  0  0  0  0
 16 12  1  0  0  0  0
 17 13  1  0  0  0  0
 18 14  1  0  0  0  0
 19 15  1  0  0  0  0
 20  5  1  0  0  0  0
 21 23  1  0  0  0  0
 21 20  1  0  0  0  0
 22 21  1  0  0  0  0
 24 27  1  0  0  0  0
 24 21  1  0  0  0  0
 24 25  1  0  0  0  0
 26 24  1  0  0  0  0
 27 28  1  0  0  0  0
 28 29  2  0  0  0  0
 28 33  1  0  0  0  0
 29 34  1  0  0  0  0
 30 29  1  0  0  0  0
 31 30  2  0  0  0  0
 32 31  1  0  0  0  0
 32 27  2  0  0  0  0
 35 31  1  0  0  0  0
 36 35  2  0  0  0  0
 37 38  1  0  0  0  0
 37 36  1  0  0  0  0
M  END
>  <minimizedAffinity>
-6.24398708

>  <minimizedRMSD>
0.103912033

$$$$
