
 OpenBabel03272509533D

 38 40  0  0  0  0  0  0  0  0999 V2000
   37.3500   30.1800   51.5320 C   0  0  0  0  0  0  0  0  0  0  0  0
   38.0850   30.8710   50.5380 C   0  0  0  0  0  0  0  0  0  0  0  0
   37.7140   30.6590   49.2190 C   0  0  0  0  0  0  0  0  0  0  0  0
   36.6670   29.8000   48.9930 N   0  0  0  0  0  0  0  0  0  0  0  0
   35.9980   29.1680   49.9530 C   0  0  0  0  0  0  0  0  0  0  0  0
   36.3530   29.3680   51.2410 N   0  0  0  0  0  0  0  0  0  0  0  0
   37.7010   30.3980   52.5400 H   0  0  0  0  0  0  0  0  0  0  0  0
   38.9080   31.5460   50.7210 H   0  0  0  0  0  0  0  0  0  0  0  0
   38.9420   33.2740   49.0290 F   0  0  0  0  0  0  0  0  0  0  0  0
   38.9130   32.4840   47.9590 C   0  0  0  0  0  0  0  0  0  0  0  0
   38.3360   31.2680   48.0660 C   0  0  0  0  0  0  0  0  0  0  0  0
   38.3640   30.5330   46.8900 C   0  0  0  0  0  0  0  0  0  0  0  0
   38.9280   31.0030   45.7310 C   0  0  0  0  0  0  0  0  0  0  0  0
   39.5000   32.2390   45.6670 C   0  0  0  0  0  0  0  0  0  0  0  0
   39.4880   32.9900   46.8140 C   0  0  0  0  0  0  0  0  0  0  0  0
   37.9420   29.5250   46.7970 H   0  0  0  0  0  0  0  0  0  0  0  0
   38.9480   30.4170   44.8040 H   0  0  0  0  0  0  0  0  0  0  0  0
   39.9490   32.6310   44.7650 H   0  0  0  0  0  0  0  0  0  0  0  0
   39.9360   33.9750   46.7890 H   0  0  0  0  0  0  0  0  0  0  0  0
   35.0070   28.3730   49.4820 O   0  0  0  0  0  0  0  0  0  0  0  0
   34.4800   28.6320   48.1780 C   0  0  0  0  0  0  0  0  0  0  0  0
   35.2900   28.8710   47.4620 H   0  0  0  0  0  0  0  0  0  0  0  0
   33.8600   29.5470   48.2850 H   0  0  0  0  0  0  0  0  0  0  0  0
   33.5920   27.5140   47.7380 C   0  0  0  0  0  0  0  0  0  0  0  0
   33.7690   26.5630   48.2500 H   0  0  0  0  0  0  0  0  0  0  0  0
   33.8530   27.3120   46.6580 H   0  0  0  0  0  0  0  0  0  0  0  0
   32.1530   27.8870   47.7120 C   0  0  0  0  0  0  0  0  0  0  0  0
   31.3390   27.4150   48.7470 C   0  0  0  0  0  0  0  0  0  0  0  0
   30.0060   27.7140   48.7950 C   0  0  0  0  0  0  0  0  0  0  0  0
   29.4680   28.4590   47.8520 N   0  0  0  0  0  0  0  0  0  0  0  0
   30.2660   28.9200   46.8410 C   0  0  0  0  0  0  0  0  0  0  0  0
   31.5810   28.6530   46.7510 N   0  0  0  0  0  0  0  0  0  0  0  0
   31.7960   26.8000   49.5180 H   0  0  0  0  0  0  0  0  0  0  0  0
   29.3510   27.3570   49.5910 H   0  0  0  0  0  0  0  0  0  0  0  0
   29.6220   29.7420   45.8210 C   0  0  0  0  0  3  0  0  0  0  0  0
   30.2790   30.5910   45.0850 C   0  0  0  0  0  3  0  0  0  0  0  0
   29.6330   31.4390   44.0360 C   0  0  0  0  0  2  0  0  0  0  0  0
   28.5390   31.3130   44.1660 H   0  0  0  0  0  0  0  0  0  0  0  0
  1  7  1  0  0  0  0
  2  8  1  0  0  0  0
  2  1  2  0  0  0  0
  3  2  1  0  0  0  0
  4  3  2  0  0  0  0
  4  5  1  0  0  0  0
  5  6  2  0  0  0  0
  6  1  1  0  0  0  0
 10 11  1  0  0  0  0
 10  9  1  0  0  0  0
 11  3  1  0  0  0  0
 12 11  2  0  0  0  0
 13 12  1  0  0  0  0
 14 13  2  0  0  0  0
 14 15  1  0  0  0  0
 15 10  2  0  0  0  0
 16 12  1  0  0  0  0
 17 13  1  0  0  0  0
 18 14  1  0  0  0  0
 19 15  1  0  0  0  0
 20  5  1  0  0  0  0
 21 23  1  0  0  0  0
 21 20  1  0  0  0  0
 22 21  1  0  0  0  0
 24 21  1  0  0  0  0
 24 25  1  0  0  0  0
 26 24  1  0  0  0  0
 27 24  1  0  0  0  0
 27 28  1  0  0  0  0
 28 29  2  0  0  0  0
 28 33  1  0  0  0  0
 29 34  1  0  0  0  0
 30 29  1  0  0  0  0
 31 30  2  0  0  0  0
 32 31  1  0  0  0  0
 32 27  2  0  0  0  0
 35 31  1  0  0  0  0
 36 35  2  0  0  0  0
 37 38  1  0  0  0  0
 37 36  1  0  0  0  0
M  END
>  <minimizedAffinity>
-6.29182053

>  <minimizedRMSD>
0.169290036

$$$$
