
 OpenBabel03272509293D

 29 30  0  0  1  0  0  0  0  0999 V2000
   39.1050   25.6290   34.6820 C   0  0  2  0  0  0  0  0  0  0  0  0
   39.1510   26.9660   35.3820 C   0  0  0  0  0  0  0  0  0  0  0  0
   37.7990   27.5930   35.5220 C   0  0  0  0  0  0  0  0  0  0  0  0
   37.0680   27.7350   34.2260 C   0  0  0  0  0  0  0  0  0  0  0  0
   37.1490   26.5150   33.3670 C   0  0  0  0  0  0  0  0  0  0  0  0
   37.7880   25.3270   34.0720 C   0  0  1  0  0  0  0  0  0  0  0  0
   39.9530   25.6190   33.9410 H   0  0  0  0  0  0  0  0  0  0  0  0
   39.5420   26.8460   36.4340 H   0  0  0  0  0  0  0  0  0  0  0  0
   39.7860   27.6700   34.8170 H   0  0  0  0  0  0  0  0  0  0  0  0
   37.1940   26.9660   36.2220 H   0  0  0  0  0  0  0  0  0  0  0  0
   37.9420   28.6180   35.9310 H   0  0  0  0  0  0  0  0  0  0  0  0
   36.0280   28.0290   34.3990 H   0  0  0  0  0  0  0  0  0  0  0  0
   37.5300   28.5990   33.6640 H   0  0  0  0  0  0  0  0  0  0  0  0
   36.1510   26.1700   33.0440 H   0  0  0  0  0  0  0  0  0  0  0  0
   37.7230   26.7320   32.4160 H   0  0  0  0  0  0  0  0  0  0  0  0
   37.0870   25.0190   34.8730 H   0  0  0  0  0  0  0  0  0  0  0  0
   39.4210   24.5430   35.6560 C   0  0  0  0  0  0  0  0  0  0  0  0
   38.4670   24.3060   36.6630 C   0  0  0  0  0  0  0  0  0  0  0  0
   38.7630   23.3110   37.5840 C   0  0  0  0  0  0  0  0  0  0  0  0
   39.9490   22.6130   37.4790 N   0  0  0  0  0  0  0  0  0  0  0  0
   40.8440   22.8740   36.4890 C   0  0  0  0  0  0  0  0  0  0  0  0
   40.5470   23.8380   35.6030 N   0  0  0  0  0  0  0  0  0  0  0  0
   37.5420   24.8090   36.7970 H   0  0  0  0  0  0  0  0  0  0  0  0
   38.0720   23.0670   38.3960 H   0  0  0  0  0  0  0  0  0  0  0  0
   41.7480   22.2820   36.4780 H   0  0  0  0  0  0  0  0  0  0  0  0
   37.8750   24.2010   33.0900 C   0  0  0  0  0  3  0  0  0  0  0  0
   37.0440   23.6560   32.1710 C   0  0  0  0  0  3  0  0  0  0  0  0
   35.7060   23.7050   31.5380 C   0  0  0  0  0  2  0  0  0  0  0  0
   35.0030   24.4270   32.0120 H   0  0  0  0  0  0  0  0  0  0  0  0
  1  7  1  6  0  0  0
  1  2  1  0  0  0  0
  1 17  1  0  0  0  0
  2  3  1  0  0  0  0
  2  8  1  0  0  0  0
  3 11  1  0  0  0  0
  3 10  1  0  0  0  0
  4 12  1  0  0  0  0
  4  3  1  0  0  0  0
  5  6  1  0  0  0  0
  5  4  1  0  0  0  0
  6  1  1  0  0  0  0
  6 16  1  1  0  0  0
  9  2  1  0  0  0  0
 13  4  1  0  0  0  0
 14  5  1  0  0  0  0
 15  5  1  0  0  0  0
 17 18  1  0  0  0  0
 18 23  1  0  0  0  0
 18 19  2  0  0  0  0
 19 24  1  0  0  0  0
 20 19  1  0  0  0  0
 21 20  2  0  0  0  0
 22 17  2  0  0  0  0
 22 21  1  0  0  0  0
 25 21  1  0  0  0  0
 26  6  1  0  0  0  0
 27 26  2  0  0  0  0
 28 29  1  0  0  0  0
 28 27  1  0  0  0  0
M  END
>  <minimizedAffinity>
-4.57923126

$$$$

 OpenBabel03272509293D

 29 30  0  0  1  0  0  0  0  0999 V2000
   39.1350   25.5910   34.6930 C   0  0  2  0  0  0  0  0  0  0  0  0
   39.1880   26.9300   35.3890 C   0  0  0  0  0  0  0  0  0  0  0  0
   37.8370   27.5550   35.5440 C   0  0  0  0  0  0  0  0  0  0  0  0
   37.0900   27.6930   34.2560 C   0  0  0  0  0  0  0  0  0  0  0  0
   37.1620   26.4700   33.4000 C   0  0  0  0  0  0  0  0  0  0  0  0
   37.8110   25.2850   34.1010 C   0  0  1  0  0  0  0  0  0  0  0  0
   39.9740   25.5800   33.9420 H   0  0  0  0  0  0  0  0  0  0  0  0
   39.5930   26.8140   36.4370 H   0  0  0  0  0  0  0  0  0  0  0  0
   39.8150   27.6340   34.8140 H   0  0  0  0  0  0  0  0  0  0  0  0
   37.2420   26.9300   36.2530 H   0  0  0  0  0  0  0  0  0  0  0  0
   37.9840   28.5820   35.9480 H   0  0  0  0  0  0  0  0  0  0  0  0
   36.0510   27.9860   34.4420 H   0  0  0  0  0  0  0  0  0  0  0  0
   37.5430   28.5560   33.6870 H   0  0  0  0  0  0  0  0  0  0  0  0
   36.1600   26.1240   33.0900 H   0  0  0  0  0  0  0  0  0  0  0  0
   37.7240   26.6860   32.4410 H   0  0  0  0  0  0  0  0  0  0  0  0
   37.1210   24.9790   34.9110 H   0  0  0  0  0  0  0  0  0  0  0  0
   39.4650   24.5080   35.6660 C   0  0  0  0  0  0  0  0  0  0  0  0
   40.6970   23.8530   35.4810 C   0  0  0  0  0  0  0  0  0  0  0  0
   41.0030   22.8320   36.3700 C   0  0  0  0  0  0  0  0  0  0  0  0
   40.1110   22.5080   37.3710 N   0  0  0  0  0  0  0  0  0  0  0  0
   38.9300   23.1670   37.5150 C   0  0  0  0  0  0  0  0  0  0  0  0
   38.6450   24.1530   36.6500 N   0  0  0  0  0  0  0  0  0  0  0  0
   41.4210   24.0540   34.7310 H   0  0  0  0  0  0  0  0  0  0  0  0
   41.9410   22.2760   36.2920 H   0  0  0  0  0  0  0  0  0  0  0  0
   38.2880   22.8510   38.3250 H   0  0  0  0  0  0  0  0  0  0  0  0
   37.8880   24.1570   33.1210 C   0  0  0  0  0  3  0  0  0  0  0  0
   37.0550   23.6240   32.1970 C   0  0  0  0  0  3  0  0  0  0  0  0
   35.7230   23.6920   31.5540 C   0  0  0  0  0  2  0  0  0  0  0  0
   35.0270   24.4260   32.0220 H   0  0  0  0  0  0  0  0  0  0  0  0
  1  7  1  6  0  0  0
  1  2  1  0  0  0  0
  1 17  1  0  0  0  0
  2  3  1  0  0  0  0
  2  8  1  0  0  0  0
  3 11  1  0  0  0  0
  3 10  1  0  0  0  0
  4 12  1  0  0  0  0
  4  3  1  0  0  0  0
  5  6  1  0  0  0  0
  5  4  1  0  0  0  0
  6  1  1  0  0  0  0
  6 16  1  1  0  0  0
  9  2  1  0  0  0  0
 13  4  1  0  0  0  0
 14  5  1  0  0  0  0
 15  5  1  0  0  0  0
 17 22  1  0  0  0  0
 18 17  2  0  0  0  0
 18 19  1  0  0  0  0
 19 20  2  0  0  0  0
 20 21  1  0  0  0  0
 21 25  1  0  0  0  0
 22 21  2  0  0  0  0
 23 18  1  0  0  0  0
 24 19  1  0  0  0  0
 26  6  1  0  0  0  0
 27 26  2  0  0  0  0
 28 29  1  0  0  0  0
 28 27  1  0  0  0  0
M  END
>  <minimizedAffinity>
-4.50472784

$$$$

 OpenBabel03272509293D

 29 30  0  0  1  0  0  0  0  0999 V2000
   36.4650   21.7260   33.3800 C   0  0  2  0  0  0  0  0  0  0  0  0
   35.7370   20.5960   34.0680 C   0  0  0  0  0  0  0  0  0  0  0  0
   35.4960   19.4280   33.1640 C   0  0  0  0  0  0  0  0  0  0  0  0
   34.7780   19.7860   31.9010 C   0  0  0  0  0  0  0  0  0  0  0  0
   35.3050   21.0280   31.2570 C   0  0  0  0  0  0  0  0  0  0  0  0
   36.5760   21.5500   31.9130 C   0  0  1  0  0  0  0  0  0  0  0  0
   35.9440   22.6790   33.6780 H   0  0  0  0  0  0  0  0  0  0  0  0
   36.3510   20.1960   34.9260 H   0  0  0  0  0  0  0  0  0  0  0  0
   34.7530   20.9420   34.4330 H   0  0  0  0  0  0  0  0  0  0  0  0
   36.4830   18.9710   32.9120 H   0  0  0  0  0  0  0  0  0  0  0  0
   34.8510   18.7040   33.7110 H   0  0  0  0  0  0  0  0  0  0  0  0
   34.7840   18.9440   31.2020 H   0  0  0  0  0  0  0  0  0  0  0  0
   33.6910   19.9500   32.1580 H   0  0  0  0  0  0  0  0  0  0  0  0
   35.5610   20.8650   30.1950 H   0  0  0  0  0  0  0  0  0  0  0  0
   34.5220   21.8450   31.2650 H   0  0  0  0  0  0  0  0  0  0  0  0
   37.3700   20.8070   31.7020 H   0  0  0  0  0  0  0  0  0  0  0  0
   37.8450   21.8430   33.9360 C   0  0  0  0  0  0  0  0  0  0  0  0
   37.9510   22.3240   35.2540 C   0  0  0  0  0  0  0  0  0  0  0  0
   39.2330   22.4540   35.7710 C   0  0  0  0  0  0  0  0  0  0  0  0
   40.3220   22.1170   34.9930 N   0  0  0  0  0  0  0  0  0  0  0  0
   40.1740   21.6560   33.7220 C   0  0  0  0  0  0  0  0  0  0  0  0
   38.9300   21.5340   33.2330 N   0  0  0  0  0  0  0  0  0  0  0  0
   37.1550   22.6010   35.9000 H   0  0  0  0  0  0  0  0  0  0  0  0
   39.3980   22.8200   36.7890 H   0  0  0  0  0  0  0  0  0  0  0  0
   41.0780   21.4150   33.1800 H   0  0  0  0  0  0  0  0  0  0  0  0
   36.9560   22.8250   31.2270 C   0  0  0  0  0  3  0  0  0  0  0  0
   36.3450   24.0070   30.9800 C   0  0  0  0  0  3  0  0  0  0  0  0
   35.1130   24.8140   31.1390 C   0  0  0  0  0  2  0  0  0  0  0  0
   34.2560   24.2550   31.5800 H   0  0  0  0  0  0  0  0  0  0  0  0
  1  7  1  1  0  0  0
  1 17  1  0  0  0  0
  1  2  1  0  0  0  0
  2  9  1  0  0  0  0
  2  8  1  0  0  0  0
  3 11  1  0  0  0  0
  3  2  1  0  0  0  0
  4 13  1  0  0  0  0
  4  3  1  0  0  0  0
  5 15  1  0  0  0  0
  5  4  1  0  0  0  0
  5  6  1  0  0  0  0
  6 16  1  6  0  0  0
  6  1  1  0  0  0  0
 10  3  1  0  0  0  0
 12  4  1  0  0  0  0
 14  5  1  0  0  0  0
 17 18  1  0  0  0  0
 18 19  2  0  0  0  0
 18 23  1  0  0  0  0
 19 24  1  0  0  0  0
 20 19  1  0  0  0  0
 21 20  2  0  0  0  0
 22 21  1  0  0  0  0
 22 17  2  0  0  0  0
 25 21  1  0  0  0  0
 26  6  1  0  0  0  0
 27 28  1  0  0  0  0
 27 26  2  0  0  0  0
 28 29  1  0  0  0  0
M  END
>  <minimizedAffinity>
-4.39341974

$$$$

 OpenBabel03272509293D

 29 30  0  0  1  0  0  0  0  0999 V2000
   34.6400   30.6750   34.2050 C   0  0  2  0  0  0  0  0  0  0  0  0
   35.7030   31.6790   34.5820 C   0  0  0  0  0  0  0  0  0  0  0  0
   35.8650   31.8220   36.0630 C   0  0  0  0  0  0  0  0  0  0  0  0
   34.5920   32.1530   36.7750 C   0  0  0  0  0  0  0  0  0  0  0  0
   33.4280   31.3400   36.3090 C   0  0  0  0  0  0  0  0  0  0  0  0
   33.8220   30.2220   35.3540 C   0  0  1  0  0  0  0  0  0  0  0  0
   34.0320   31.1380   33.3780 H   0  0  0  0  0  0  0  0  0  0  0  0
   36.7110   31.3500   34.1950 H   0  0  0  0  0  0  0  0  0  0  0  0
   35.4470   32.6750   34.1790 H   0  0  0  0  0  0  0  0  0  0  0  0
   36.2750   30.8630   36.4640 H   0  0  0  0  0  0  0  0  0  0  0  0
   36.5700   32.6620   36.2470 H   0  0  0  0  0  0  0  0  0  0  0  0
   34.7230   32.0710   37.8590 H   0  0  0  0  0  0  0  0  0  0  0  0
   34.3670   33.2430   36.5860 H   0  0  0  0  0  0  0  0  0  0  0  0
   32.9050   30.8480   37.1480 H   0  0  0  0  0  0  0  0  0  0  0  0
   32.6560   31.9990   35.8070 H   0  0  0  0  0  0  0  0  0  0  0  0
   34.4100   29.4930   35.9450 H   0  0  0  0  0  0  0  0  0  0  0  0
   35.2810   29.4730   33.5940 C   0  0  0  0  0  0  0  0  0  0  0  0
   36.1190   28.7150   34.4340 C   0  0  0  0  0  0  0  0  0  0  0  0
   36.7340   27.6070   33.8680 C   0  0  0  0  0  0  0  0  0  0  0  0
   36.5070   27.3020   32.5410 N   0  0  0  0  0  0  0  0  0  0  0  0
   35.6900   28.0630   31.7650 C   0  0  0  0  0  0  0  0  0  0  0  0
   35.0990   29.1310   32.3230 N   0  0  0  0  0  0  0  0  0  0  0  0
   36.3340   28.8990   35.4570 H   0  0  0  0  0  0  0  0  0  0  0  0
   37.3990   26.9670   34.4550 H   0  0  0  0  0  0  0  0  0  0  0  0
   35.5660   27.7550   30.7360 H   0  0  0  0  0  0  0  0  0  0  0  0
   32.5690   29.5360   34.9080 C   0  0  0  0  0  3  0  0  0  0  0  0
   31.7280   28.6200   35.4430 C   0  0  0  0  0  3  0  0  0  0  0  0
   31.4240   27.7580   36.6090 C   0  0  0  0  0  2  0  0  0  0  0  0
   32.2160   27.7560   37.3920 H   0  0  0  0  0  0  0  0  0  0  0  0
  1  7  1  6  0  0  0
  1  2  1  0  0  0  0
  1  6  1  0  0  0  0
  2  3  1  0  0  0  0
  3 11  1  0  0  0  0
  3 10  1  0  0  0  0
  3  4  1  0  0  0  0
  4 12  1  0  0  0  0
  5  4  1  0  0  0  0
  5 14  1  0  0  0  0
  6 16  1  1  0  0  0
  6  5  1  0  0  0  0
  8  2  1  0  0  0  0
  9  2  1  0  0  0  0
 13  4  1  0  0  0  0
 15  5  1  0  0  0  0
 17  1  1  0  0  0  0
 17 18  1  0  0  0  0
 18 23  1  0  0  0  0
 19 18  2  0  0  0  0
 19 24  1  0  0  0  0
 20 19  1  0  0  0  0
 21 22  1  0  0  0  0
 21 20  2  0  0  0  0
 22 17  2  0  0  0  0
 25 21  1  0  0  0  0
 26  6  1  0  0  0  0
 26 27  2  0  0  0  0
 27 28  1  0  0  0  0
 28 29  1  0  0  0  0
M  END
>  <minimizedAffinity>
-4.37001038

$$$$

 OpenBabel03272509293D

 29 30  0  0  1  0  0  0  0  0999 V2000
   36.0860   30.2470   33.8830 C   0  0  2  0  0  0  0  0  0  0  0  0
   35.8030   30.9870   32.5970 C   0  0  0  0  0  0  0  0  0  0  0  0
   35.2250   30.1020   31.5360 C   0  0  0  0  0  0  0  0  0  0  0  0
   36.0590   28.8960   31.2430 C   0  0  0  0  0  0  0  0  0  0  0  0
   36.5630   28.2150   32.4750 C   0  0  0  0  0  0  0  0  0  0  0  0
   35.9640   28.7760   33.7570 C   0  0  1  0  0  0  0  0  0  0  0  0
   37.1020   30.5840   34.2350 H   0  0  0  0  0  0  0  0  0  0  0  0
   35.0360   31.7970   32.7680 H   0  0  0  0  0  0  0  0  0  0  0  0
   36.7340   31.4230   32.1940 H   0  0  0  0  0  0  0  0  0  0  0  0
   34.2090   29.7780   31.8660 H   0  0  0  0  0  0  0  0  0  0  0  0
   35.1670   30.6940   30.5960 H   0  0  0  0  0  0  0  0  0  0  0  0
   35.5160   28.1970   30.6000 H   0  0  0  0  0  0  0  0  0  0  0  0
   36.9470   29.2320   30.6310 H   0  0  0  0  0  0  0  0  0  0  0  0
   36.3240   27.1370   32.4780 H   0  0  0  0  0  0  0  0  0  0  0  0
   37.6920   28.2810   32.5350 H   0  0  0  0  0  0  0  0  0  0  0  0
   34.8900   28.5070   33.7490 H   0  0  0  0  0  0  0  0  0  0  0  0
   35.1350   30.7000   34.9400 C   0  0  0  0  0  0  0  0  0  0  0  0
   35.6580   31.5510   35.9310 C   0  0  0  0  0  0  0  0  0  0  0  0
   34.7850   31.9610   36.9290 C   0  0  0  0  0  0  0  0  0  0  0  0
   33.4740   31.5290   36.9100 N   0  0  0  0  0  0  0  0  0  0  0  0
   33.0090   30.7060   35.9310 C   0  0  0  0  0  0  0  0  0  0  0  0
   33.8630   30.3170   34.9720 N   0  0  0  0  0  0  0  0  0  0  0  0
   36.6530   31.9140   36.0020 H   0  0  0  0  0  0  0  0  0  0  0  0
   35.1150   32.6230   37.7340 H   0  0  0  0  0  0  0  0  0  0  0  0
   31.9700   30.4140   35.9900 H   0  0  0  0  0  0  0  0  0  0  0  0
   36.5990   28.0650   34.9100 C   0  0  0  0  0  3  0  0  0  0  0  0
   37.7960   27.4760   35.1400 C   0  0  0  0  0  3  0  0  0  0  0  0
   39.1260   27.1320   34.5870 C   0  0  0  0  0  2  0  0  0  0  0  0
   39.2430   27.3630   33.5030 H   0  0  0  0  0  0  0  0  0  0  0  0
  1  7  1  1  0  0  0
  1 17  1  0  0  0  0
  2  8  1  0  0  0  0
  2  1  1  0  0  0  0
  3 10  1  0  0  0  0
  3  2  1  0  0  0  0
  4  3  1  0  0  0  0
  4  5  1  0  0  0  0
  5 14  1  0  0  0  0
  5 15  1  0  0  0  0
  5  6  1  0  0  0  0
  6 16  1  1  0  0  0
  6  1  1  0  0  0  0
  6 26  1  0  0  0  0
  9  2  1  0  0  0  0
 11  3  1  0  0  0  0
 12  4  1  0  0  0  0
 13  4  1  0  0  0  0
 17 22  2  0  0  0  0
 17 18  1  0  0  0  0
 18 23  1  0  0  0  0
 18 19  2  0  0  0  0
 19 24  1  0  0  0  0
 20 19  1  0  0  0  0
 21 25  1  0  0  0  0
 21 20  2  0  0  0  0
 22 21  1  0  0  0  0
 26 27  2  0  0  0  0
 28 27  1  0  0  0  0
 29 28  1  0  0  0  0
M  END
>  <minimizedAffinity>
-4.32255316

$$$$

 OpenBabel03272509293D

 29 30  0  0  1  0  0  0  0  0999 V2000
   38.5110   24.6730   34.8040 C   0  0  2  0  0  0  0  0  0  0  0  0
   38.7250   23.5530   33.8140 C   0  0  0  0  0  0  0  0  0  0  0  0
   40.0030   23.6950   33.0480 C   0  0  0  0  0  0  0  0  0  0  0  0
   40.1390   25.0100   32.3490 C   0  0  0  0  0  0  0  0  0  0  0  0
   39.7410   26.1720   33.1990 C   0  0  0  0  0  0  0  0  0  0  0  0
   39.4710   25.7910   34.6480 C   0  0  1  0  0  0  0  0  0  0  0  0
   37.4340   24.9910   34.7090 H   0  0  0  0  0  0  0  0  0  0  0  0
   38.8000   22.5620   34.3500 H   0  0  0  0  0  0  0  0  0  0  0  0
   37.9000   23.5280   33.0810 H   0  0  0  0  0  0  0  0  0  0  0  0
   40.8540   23.5640   33.7600 H   0  0  0  0  0  0  0  0  0  0  0  0
   40.0170   22.9050   32.2640 H   0  0  0  0  0  0  0  0  0  0  0  0
   41.1530   25.1360   31.9560 H   0  0  0  0  0  0  0  0  0  0  0  0
   39.4700   24.9860   31.4390 H   0  0  0  0  0  0  0  0  0  0  0  0
   40.5280   26.9470   33.2350 H   0  0  0  0  0  0  0  0  0  0  0  0
   38.8240   26.6830   32.7740 H   0  0  0  0  0  0  0  0  0  0  0  0
   40.4430   25.4890   35.0830 H   0  0  0  0  0  0  0  0  0  0  0  0
   38.6420   24.1440   36.1940 C   0  0  0  0  0  0  0  0  0  0  0  0
   39.7880   23.3730   36.4650 C   0  0  0  0  0  0  0  0  0  0  0  0
   39.9080   22.8620   37.7500 C   0  0  0  0  0  0  0  0  0  0  0  0
   38.9250   23.1210   38.6840 N   0  0  0  0  0  0  0  0  0  0  0  0
   37.8330   23.8720   38.3790 C   0  0  0  0  0  0  0  0  0  0  0  0
   37.7280   24.3620   37.1340 N   0  0  0  0  0  0  0  0  0  0  0  0
   40.5740   23.1370   35.7920 H   0  0  0  0  0  0  0  0  0  0  0  0
   40.7700   22.2540   38.0390 H   0  0  0  0  0  0  0  0  0  0  0  0
   37.1100   24.0280   39.1680 H   0  0  0  0  0  0  0  0  0  0  0  0
   39.0150   27.0200   35.3690 C   0  0  0  0  0  3  0  0  0  0  0  0
   37.9230   27.8180   35.3200 C   0  0  0  0  0  3  0  0  0  0  0  0
   36.6130   28.0760   34.6800 C   0  0  0  0  0  2  0  0  0  0  0  0
   36.3910   27.4130   33.8130 H   0  0  0  0  0  0  0  0  0  0  0  0
  1  7  1  6  0  0  0
  1 17  1  0  0  0  0
  2  8  1  0  0  0  0
  2  1  1  0  0  0  0
  3 10  1  0  0  0  0
  3  2  1  0  0  0  0
  4  3  1  0  0  0  0
  4  5  1  0  0  0  0
  5 14  1  0  0  0  0
  5  6  1  0  0  0  0
  6  1  1  0  0  0  0
  6 16  1  1  0  0  0
  6 26  1  0  0  0  0
  9  2  1  0  0  0  0
 11  3  1  0  0  0  0
 12  4  1  0  0  0  0
 13  4  1  0  0  0  0
 15  5  1  0  0  0  0
 17 18  2  0  0  0  0
 17 22  1  0  0  0  0
 18 19  1  0  0  0  0
 19 24  1  0  0  0  0
 19 20  2  0  0  0  0
 21 20  1  0  0  0  0
 21 25  1  0  0  0  0
 22 21  2  0  0  0  0
 23 18  1  0  0  0  0
 27 26  2  0  0  0  0
 28 27  1  0  0  0  0
 29 28  1  0  0  0  0
M  END
>  <minimizedAffinity>
-4.30823374

$$$$

 OpenBabel03272509293D

 29 30  0  0  1  0  0  0  0  0999 V2000
   39.2830   26.2080   35.2140 C   0  0  2  0  0  0  0  0  0  0  0  0
   40.6310   26.7380   34.7890 C   0  0  0  0  0  0  0  0  0  0  0  0
   41.4640   25.7090   34.0910 C   0  0  0  0  0  0  0  0  0  0  0  0
   41.6490   24.4520   34.8800 C   0  0  0  0  0  0  0  0  0  0  0  0
   40.3870   23.9670   35.5180 C   0  0  0  0  0  0  0  0  0  0  0  0
   39.1540   24.7390   35.0720 C   0  0  1  0  0  0  0  0  0  0  0  0
   39.1050   26.5730   36.2650 H   0  0  0  0  0  0  0  0  0  0  0  0
   40.5080   27.5830   34.0500 H   0  0  0  0  0  0  0  0  0  0  0  0
   41.2010   27.0830   35.6700 H   0  0  0  0  0  0  0  0  0  0  0  0
   40.9740   25.4650   33.1170 H   0  0  0  0  0  0  0  0  0  0  0  0
   42.4750   26.1440   33.9280 H   0  0  0  0  0  0  0  0  0  0  0  0
   42.1060   23.6720   34.2640 H   0  0  0  0  0  0  0  0  0  0  0  0
   42.4020   24.6660   35.6940 H   0  0  0  0  0  0  0  0  0  0  0  0
   40.1830   22.9090   35.2760 H   0  0  0  0  0  0  0  0  0  0  0  0
   40.4650   24.0160   36.6460 H   0  0  0  0  0  0  0  0  0  0  0  0
   38.9990   24.4970   34.0020 H   0  0  0  0  0  0  0  0  0  0  0  0
   38.2130   26.8460   34.3910 C   0  0  0  0  0  0  0  0  0  0  0  0
   37.3410   27.7210   35.0660 C   0  0  0  0  0  0  0  0  0  0  0  0
   36.3320   28.3030   34.3120 C   0  0  0  0  0  0  0  0  0  0  0  0
   36.2260   28.0080   32.9680 N   0  0  0  0  0  0  0  0  0  0  0  0
   37.0910   27.1560   32.3550 C   0  0  0  0  0  0  0  0  0  0  0  0
   38.0630   26.6000   33.0940 N   0  0  0  0  0  0  0  0  0  0  0  0
   37.3690   27.9850   36.0940 H   0  0  0  0  0  0  0  0  0  0  0  0
   35.6150   28.9950   34.7630 H   0  0  0  0  0  0  0  0  0  0  0  0
   36.9380   26.9790   31.2990 H   0  0  0  0  0  0  0  0  0  0  0  0
   37.9790   24.2080   35.8310 C   0  0  0  0  0  3  0  0  0  0  0  0
   37.6390   24.1090   37.1370 C   0  0  0  0  0  3  0  0  0  0  0  0
   38.0400   24.3750   38.5380 C   0  0  0  0  0  2  0  0  0  0  0  0
   39.0810   24.7530   38.6500 H   0  0  0  0  0  0  0  0  0  0  0  0
  1  7  1  1  0  0  0
  2  1  1  0  0  0  0
  2  9  1  0  0  0  0
  3  2  1  0  0  0  0
  3  4  1  0  0  0  0
  4  5  1  0  0  0  0
  4 13  1  0  0  0  0
  5 15  1  0  0  0  0
  6 16  1  6  0  0  0
  6  1  1  0  0  0  0
  6  5  1  0  0  0  0
  6 26  1  0  0  0  0
  8  2  1  0  0  0  0
 10  3  1  0  0  0  0
 11  3  1  0  0  0  0
 12  4  1  0  0  0  0
 14  5  1  0  0  0  0
 17 18  1  0  0  0  0
 17  1  1  0  0  0  0
 18 23  1  0  0  0  0
 19 24  1  0  0  0  0
 19 18  2  0  0  0  0
 20 19  1  0  0  0  0
 21 20  2  0  0  0  0
 21 22  1  0  0  0  0
 22 17  2  0  0  0  0
 25 21  1  0  0  0  0
 26 27  2  0  0  0  0
 27 28  1  0  0  0  0
 28 29  1  0  0  0  0
M  END
>  <minimizedAffinity>
-4.27645397

$$$$

 OpenBabel03272509293D

 29 30  0  0  1  0  0  0  0  0999 V2000
   38.9290   23.9460   35.3190 C   0  0  2  0  0  0  0  0  0  0  0  0
   38.1470   23.3050   36.4400 C   0  0  0  0  0  0  0  0  0  0  0  0
   38.9080   23.2670   37.7290 C   0  0  0  0  0  0  0  0  0  0  0  0
   40.2450   22.6070   37.6150 C   0  0  0  0  0  0  0  0  0  0  0  0
   41.0100   23.0320   36.4030 C   0  0  0  0  0  0  0  0  0  0  0  0
   40.3530   24.1830   35.6530 C   0  0  1  0  0  0  0  0  0  0  0  0
   38.7850   23.2980   34.4090 H   0  0  0  0  0  0  0  0  0  0  0  0
   37.2100   23.8980   36.6570 H   0  0  0  0  0  0  0  0  0  0  0  0
   37.8860   22.2650   36.1780 H   0  0  0  0  0  0  0  0  0  0  0  0
   39.0420   24.3170   38.0860 H   0  0  0  0  0  0  0  0  0  0  0  0
   38.3110   22.6730   38.4570 H   0  0  0  0  0  0  0  0  0  0  0  0
   40.8310   22.7610   38.5260 H   0  0  0  0  0  0  0  0  0  0  0  0
   40.0740   21.4920   37.5570 H   0  0  0  0  0  0  0  0  0  0  0  0
   42.0260   23.3810   36.6580 H   0  0  0  0  0  0  0  0  0  0  0  0
   41.1510   22.1610   35.6930 H   0  0  0  0  0  0  0  0  0  0  0  0
   40.4220   25.0700   36.3120 H   0  0  0  0  0  0  0  0  0  0  0  0
   38.3140   25.2600   34.9660 C   0  0  0  0  0  0  0  0  0  0  0  0
   38.4790   26.2990   35.9000 C   0  0  0  0  0  0  0  0  0  0  0  0
   37.8940   27.5180   35.5890 C   0  0  0  0  0  0  0  0  0  0  0  0
   37.1910   27.6580   34.4090 N   0  0  0  0  0  0  0  0  0  0  0  0
   37.0570   26.6260   33.5340 C   0  0  0  0  0  0  0  0  0  0  0  0
   37.6280   25.4520   33.8450 N   0  0  0  0  0  0  0  0  0  0  0  0
   39.0030   26.2530   36.8220 H   0  0  0  0  0  0  0  0  0  0  0  0
   37.9770   28.3750   36.2630 H   0  0  0  0  0  0  0  0  0  0  0  0
   36.4910   26.8190   32.6330 H   0  0  0  0  0  0  0  0  0  0  0  0
   41.1720   24.4610   34.4320 C   0  0  0  0  0  3  0  0  0  0  0  0
   41.6140   25.5740   33.8000 C   0  0  0  0  0  3  0  0  0  0  0  0
   41.6490   27.0540   33.7920 C   0  0  0  0  0  2  0  0  0  0  0  0
   41.0010   27.5300   34.5630 H   0  0  0  0  0  0  0  0  0  0  0  0
  1  7  1  6  0  0  0
  1  6  1  0  0  0  0
  1  2  1  0  0  0  0
  2  8  1  0  0  0  0
  2  3  1  0  0  0  0
  3 10  1  0  0  0  0
  3 11  1  0  0  0  0
  4  3  1  0  0  0  0
  4 12  1  0  0  0  0
  5 14  1  0  0  0  0
  5  4  1  0  0  0  0
  6 16  1  1  0  0  0
  6  5  1  0  0  0  0
  9  2  1  0  0  0  0
 13  4  1  0  0  0  0
 15  5  1  0  0  0  0
 17  1  1  0  0  0  0
 17 18  1  0  0  0  0
 18 23  1  0  0  0  0
 19 18  2  0  0  0  0
 19 24  1  0  0  0  0
 20 19  1  0  0  0  0
 21 22  1  0  0  0  0
 21 20  2  0  0  0  0
 22 17  2  0  0  0  0
 25 21  1  0  0  0  0
 26  6  1  0  0  0  0
 27 26  2  0  0  0  0
 28 27  1  0  0  0  0
 28 29  1  0  0  0  0
M  END
>  <minimizedAffinity>
-4.26099157

$$$$

 OpenBabel03272509293D

 29 30  0  0  1  0  0  0  0  0999 V2000
   36.0610   29.5620   33.1490 C   0  0  2  0  0  0  0  0  0  0  0  0
   36.2090   30.1980   31.7870 C   0  0  0  0  0  0  0  0  0  0  0  0
   36.4160   29.1920   30.6980 C   0  0  0  0  0  0  0  0  0  0  0  0
   37.5690   28.2720   30.9450 C   0  0  0  0  0  0  0  0  0  0  0  0
   37.6190   27.7540   32.3460 C   0  0  0  0  0  0  0  0  0  0  0  0
   36.3860   28.1160   33.1630 C   0  0  1  0  0  0  0  0  0  0  0  0
   36.6860   30.1690   33.8620 H   0  0  0  0  0  0  0  0  0  0  0  0
   35.2690   30.7580   31.5100 H   0  0  0  0  0  0  0  0  0  0  0  0
   37.0760   30.8810   31.7770 H   0  0  0  0  0  0  0  0  0  0  0  0
   35.4790   28.5930   30.5930 H   0  0  0  0  0  0  0  0  0  0  0  0
   36.6380   29.7490   29.7610 H   0  0  0  0  0  0  0  0  0  0  0  0
   37.5700   27.4520   30.2200 H   0  0  0  0  0  0  0  0  0  0  0  0
   38.5180   28.8480   30.7420 H   0  0  0  0  0  0  0  0  0  0  0  0
   37.6860   26.6520   32.3770 H   0  0  0  0  0  0  0  0  0  0  0  0
   38.5410   28.1350   32.8800 H   0  0  0  0  0  0  0  0  0  0  0  0
   35.5390   27.5560   32.7230 H   0  0  0  0  0  0  0  0  0  0  0  0
   34.6550   29.7220   33.6260 C   0  0  0  0  0  0  0  0  0  0  0  0
   34.4720   30.4970   34.7860 C   0  0  0  0  0  0  0  0  0  0  0  0
   33.1700   30.6350   35.2470 C   0  0  0  0  0  0  0  0  0  0  0  0
   32.1360   30.0220   34.5680 N   0  0  0  0  0  0  0  0  0  0  0  0
   32.3580   29.2810   33.4490 C   0  0  0  0  0  0  0  0  0  0  0  0
   33.6210   29.1560   33.0120 N   0  0  0  0  0  0  0  0  0  0  0  0
   35.2230   30.9890   35.3520 H   0  0  0  0  0  0  0  0  0  0  0  0
   32.9450   31.2220   36.1420 H   0  0  0  0  0  0  0  0  0  0  0  0
   31.4930   28.8350   32.9780 H   0  0  0  0  0  0  0  0  0  0  0  0
   36.5920   27.6070   34.5550 C   0  0  0  0  0  3  0  0  0  0  0  0
   37.6640   27.2750   35.3130 C   0  0  0  0  0  3  0  0  0  0  0  0
   39.1390   27.1670   35.3800 C   0  0  0  0  0  2  0  0  0  0  0  0
   39.6540   27.3570   34.4110 H   0  0  0  0  0  0  0  0  0  0  0  0
  1  6  1  0  0  0  0
  1 17  1  0  0  0  0
  1  7  1  1  0  0  0
  2  1  1  0  0  0  0
  3  4  1  0  0  0  0
  3  2  1  0  0  0  0
  4  5  1  0  0  0  0
  5 14  1  0  0  0  0
  5 15  1  0  0  0  0
  5  6  1  0  0  0  0
  6 16  1  6  0  0  0
  6 26  1  0  0  0  0
  8  2  1  0  0  0  0
  9  2  1  0  0  0  0
 10  3  1  0  0  0  0
 11  3  1  0  0  0  0
 12  4  1  0  0  0  0
 13  4  1  0  0  0  0
 17 18  1  0  0  0  0
 18 19  2  0  0  0  0
 18 23  1  0  0  0  0
 19 24  1  0  0  0  0
 20 19  1  0  0  0  0
 21 20  2  0  0  0  0
 22 21  1  0  0  0  0
 22 17  2  0  0  0  0
 25 21  1  0  0  0  0
 26 27  2  0  0  0  0
 27 28  1  0  0  0  0
 29 28  1  0  0  0  0
M  END
>  <minimizedAffinity>
-4.25221825

$$$$
