
 OpenBabel03272500583D

 30 31  0  0  0  0  0  0  0  0999 V2000
   38.1230   31.8940   47.4330 C   0  0  0  0  0  0  0  0  0  0  0  0
   38.6000   32.8020   48.3390 C   0  0  0  0  0  0  0  0  0  0  0  0
   38.1070   32.8800   49.6470 C   0  0  0  0  0  0  0  0  0  0  0  0
   37.0570   31.9490   50.0150 C   0  0  0  0  0  0  0  0  0  0  0  0
   36.6320   31.0770   49.0700 C   0  0  0  0  0  0  0  0  0  0  0  0
   37.1090   31.0110   47.8160 C   0  0  0  0  0  0  0  0  0  0  0  0
   39.3970   33.5170   48.0790 H   0  0  0  0  0  0  0  0  0  0  0  0
   38.5330   33.6280   50.3150 H   0  0  0  0  0  0  0  0  0  0  0  0
   36.7900   32.1290   51.0260 H   0  0  0  0  0  0  0  0  0  0  0  0
   35.8860   30.4810   49.5710 H   0  0  0  0  0  0  0  0  0  0  0  0
   40.0020   31.2850   46.0010 C   0  0  0  0  0  0  0  0  0  0  0  0
   38.7490   31.9220   46.1280 C   0  0  0  0  0  0  0  0  0  0  0  0
   38.2740   32.4940   44.9740 C   0  0  0  0  0  0  0  0  0  0  0  0
   38.9860   32.4240   43.8330 N   0  0  0  0  0  0  0  0  0  0  0  0
   40.1490   31.8270   43.7330 C   0  0  0  0  0  0  0  0  0  0  0  0
   40.6560   31.2580   44.8160 N   0  0  0  0  0  0  0  0  0  0  0  0
   40.4550   30.8070   46.8600 H   0  0  0  0  0  0  0  0  0  0  0  0
   37.3020   32.9890   45.0730 H   0  0  0  0  0  0  0  0  0  0  0  0
   40.7020   31.7850   42.8050 H   0  0  0  0  0  0  0  0  0  0  0  0
   35.1700   29.9910   46.9630 C   0  0  0  0  0  0  0  0  0  0  0  0
   34.5330   30.6660   47.8660 O   0  0  0  0  0  0  0  0  0  0  0  0
   36.6150   30.1170   46.9010 N   0  0  0  0  0  0  0  0  0  0  0  0
   37.1900   29.5900   46.2430 H   0  0  0  0  0  0  0  0  0  0  0  0
   34.4630   29.1890   46.1110 O   0  0  0  0  0  0  0  0  0  0  0  0
   33.2710   29.5420   45.4890 C   0  0  0  0  0  0  0  0  0  0  0  0
   33.2470   30.3110   44.4200 O   0  0  0  0  0  0  0  0  0  0  0  0
   31.9620   29.0520   45.9840 C   0  0  0  0  0  3  0  0  0  0  0  0
   30.8740   29.7800   45.9750 C   0  0  0  0  0  3  0  0  0  0  0  0
   29.5400   29.3370   46.4600 C   0  0  0  0  0  2  0  0  0  0  0  0
   29.5370   28.3260   46.8930 H   0  0  0  0  0  0  0  0  0  0  0  0
  1  6  2  0  0  0  0
  1  2  1  0  0  0  0
  2  3  2  0  0  0  0
  3  4  1  0  0  0  0
  3  8  1  0  0  0  0
  4  9  1  0  0  0  0
  5 10  1  0  0  0  0
  5  4  2  0  0  0  0
  6  5  1  0  0  0  0
  7  2  1  0  0  0  0
 11 12  1  0  0  0  0
 11 17  1  0  0  0  0
 12  1  1  0  0  0  0
 13 18  1  0  0  0  0
 13 12  2  0  0  0  0
 14 13  1  0  0  0  0
 15 14  2  0  0  0  0
 15 16  1  0  0  0  0
 16 11  2  0  0  0  0
 19 15  1  0  0  0  0
 20 21  2  0  0  0  0
 22 20  1  0  0  0  0
 22  6  1  0  0  0  0
 23 22  1  0  0  0  0
 24 20  1  0  0  0  0
 25 27  1  0  0  0  0
 25 24  1  0  0  0  0
 26 25  2  0  0  0  0
 28 27  2  0  0  0  0
 28 29  1  0  0  0  0
 29 30  1  0  0  0  0
M  END
>  <minimizedAffinity>
-5.2262001

>  <minimizedRMSD>
0.429682016

$$$$
