
 OpenBabel03272506533D

 39 41  0  0  1  0  0  0  0  0999 V2000
   34.4190   30.1250   48.2770 C   0  0  1  0  0  0  0  0  0  0  0  0
   33.5690   30.2120   47.1150 C   0  0  0  0  0  0  0  0  0  0  0  0
   33.5190   28.9880   46.2260 C   0  0  0  0  0  0  0  0  0  0  0  0
   33.4800   27.6930   46.8920 C   0  0  2  0  0  0  0  0  0  0  0  0
   34.3070   27.5600   48.1620 C   0  0  0  0  0  0  0  0  0  0  0  0
   34.2270   28.8160   48.9950 C   0  0  0  0  0  0  0  0  0  0  0  0
   34.0500   30.8860   49.0400 H   0  0  0  0  0  0  0  0  0  0  0  0
   32.4990   30.3170   47.4640 H   0  0  0  0  0  0  0  0  0  0  0  0
   33.7020   31.0660   46.4460 H   0  0  0  0  0  0  0  0  0  0  0  0
   34.5520   29.0470   45.7380 H   0  0  0  0  0  0  0  0  0  0  0  0
   32.7260   29.0950   45.4840 H   0  0  0  0  0  0  0  0  0  0  0  0
   32.4730   27.3510   47.2000 H   0  0  0  0  0  0  0  0  0  0  0  0
   33.8260   26.8640   48.8470 H   0  0  0  0  0  0  0  0  0  0  0  0
   35.3600   27.3730   47.9380 H   0  0  0  0  0  0  0  0  0  0  0  0
   35.0310   28.7430   49.7570 H   0  0  0  0  0  0  0  0  0  0  0  0
   33.2710   28.8880   49.5960 H   0  0  0  0  0  0  0  0  0  0  0  0
   34.0090   26.6820   45.9400 C   0  0  0  0  0  0  0  0  0  0  0  0
   34.4510   27.1150   44.6970 C   0  0  0  0  0  0  0  0  0  0  0  0
   34.9350   26.2330   43.7520 C   0  0  0  0  0  0  0  0  0  0  0  0
   34.9770   24.9080   44.0580 C   0  0  0  0  0  0  0  0  0  0  0  0
   34.5380   24.4600   45.2880 C   0  0  0  0  0  0  0  0  0  0  0  0
   34.0490   25.3630   46.2260 C   0  0  0  0  0  0  0  0  0  0  0  0
   34.4730   28.1070   44.2730 H   0  0  0  0  0  0  0  0  0  0  0  0
   35.2940   26.5140   42.7630 H   0  0  0  0  0  0  0  0  0  0  0  0
   35.3650   24.1940   43.3100 H   0  0  0  0  0  0  0  0  0  0  0  0
   34.6180   23.3890   45.3940 H   0  0  0  0  0  0  0  0  0  0  0  0
   33.4710   24.7390   47.3610 C   0  0  0  0  0  3  0  0  0  0  0  0
   32.5590   23.8340   47.6280 C   0  0  0  0  0  3  0  0  0  0  0  0
   31.6890   23.0220   46.7380 C   0  0  0  0  0  2  0  0  0  0  0  0
   30.8200   23.5630   46.3450 H   0  0  0  0  0  0  0  0  0  0  0  0
   36.4620   30.5990   46.9210 C   0  0  0  0  0  0  0  0  0  0  0  0
   35.8340   30.4980   48.1510 C   0  0  0  0  0  0  0  0  0  0  0  0
   36.6040   30.7730   49.2880 C   0  0  0  0  0  0  0  0  0  0  0  0
   37.9120   31.1200   49.1330 N   0  0  0  0  0  0  0  0  0  0  0  0
   38.4830   31.2050   47.9050 C   0  0  0  0  0  0  0  0  0  0  0  0
   37.7450   30.9400   46.7900 N   0  0  0  0  0  0  0  0  0  0  0  0
   36.0380   30.4460   45.9470 H   0  0  0  0  0  0  0  0  0  0  0  0
   36.1620   30.7100   50.2680 H   0  0  0  0  0  0  0  0  0  0  0  0
   39.5220   31.4870   47.8950 H   0  0  0  0  0  0  0  0  0  0  0  0
  1  6  1  0  0  0  0
  1  7  1  1  0  0  0
  2  8  1  0  0  0  0
  2  1  1  0  0  0  0
  3  4  1  0  0  0  0
  3  2  1  0  0  0  0
  4 12  1  1  0  0  0
  4  5  1  0  0  0  0
  5 13  1  0  0  0  0
  5  6  1  0  0  0  0
  6 16  1  0  0  0  0
  6 15  1  0  0  0  0
  9  2  1  0  0  0  0
 10  3  1  0  0  0  0
 11  3  1  0  0  0  0
 14  5  1  0  0  0  0
 17 22  1  0  0  0  0
 17  4  1  0  0  0  0
 18 17  2  0  0  0  0
 19 20  2  0  0  0  0
 19 18  1  0  0  0  0
 20 21  1  0  0  0  0
 21 26  1  0  0  0  0
 21 22  2  0  0  0  0
 22 27  1  0  0  0  0
 23 18  1  0  0  0  0
 24 19  1  0  0  0  0
 25 20  1  0  0  0  0
 27 28  2  0  0  0  0
 29 28  1  0  0  0  0
 30 29  1  0  0  0  0
 31 32  1  0  0  0  0
 32  1  1  0  0  0  0
 32 33  2  0  0  0  0
 33 38  1  0  0  0  0
 34 33  1  0  0  0  0
 35 34  2  0  0  0  0
 36 31  2  0  0  0  0
 36 35  1  0  0  0  0
 37 31  1  0  0  0  0
 39 35  1  0  0  0  0
M  END
>  <minimizedAffinity>
-4.50647831

>  <minimizedRMSD>
1.04756999

$$$$
