
 OpenBabel03272508403D

 37 39  0  0  1  0  0  0  0  0999 V2000
   32.8500   29.5890   46.6680 N   0  0  0  0  0  0  0  0  0  0  0  0
   33.9380   30.0830   47.5070 C   0  0  0  0  0  0  0  0  0  0  0  0
   34.9570   29.0860   47.8280 C   0  0  2  0  0  0  0  0  0  0  0  0
   34.3570   27.7800   48.2140 N   0  0  0  0  0  0  0  0  0  0  0  0
   33.4600   27.3730   47.1170 C   0  0  0  0  0  0  0  0  0  0  0  0
   32.3350   28.3780   47.2000 C   0  0  0  0  0  0  0  0  0  0  0  0
   34.3170   30.9920   47.0550 H   0  0  0  0  0  0  0  0  0  0  0  0
   33.3550   30.2750   48.4720 H   0  0  0  0  0  0  0  0  0  0  0  0
   35.5860   28.7470   46.9850 H   0  0  0  0  0  0  0  0  0  0  0  0
   33.7970   27.9200   49.0680 H   0  0  0  0  0  0  0  0  0  0  0  0
   33.9810   27.3920   46.1590 H   0  0  0  0  0  0  0  0  0  0  0  0
   33.0510   26.3940   47.4110 H   0  0  0  0  0  0  0  0  0  0  0  0
   32.0440   28.4640   48.2670 H   0  0  0  0  0  0  0  0  0  0  0  0
   31.4490   28.0040   46.6560 H   0  0  0  0  0  0  0  0  0  0  0  0
   37.1150   30.9820   47.0580 Cl  0  0  0  0  0  0  0  0  0  0  0  0
   36.8100   30.4520   48.7130 C   0  0  0  0  0  0  0  0  0  0  0  0
   35.8000   29.5520   48.9140 C   0  0  0  0  0  0  0  0  0  0  0  0
   35.4440   29.0440   50.1720 C   0  0  0  0  0  0  0  0  0  0  0  0
   36.1990   29.5150   51.2540 C   0  0  0  0  0  0  0  0  0  0  0  0
   37.2360   30.4340   51.0540 C   0  0  0  0  0  0  0  0  0  0  0  0
   37.5260   30.8910   49.7850 C   0  0  0  0  0  0  0  0  0  0  0  0
   34.7330   28.3760   50.5950 H   0  0  0  0  0  0  0  0  0  0  0  0
   36.1110   29.2700   52.3020 H   0  0  0  0  0  0  0  0  0  0  0  0
   37.8600   30.8390   51.8350 H   0  0  0  0  0  0  0  0  0  0  0  0
   38.5970   31.8460   49.5450 C   0  0  0  0  0  3  0  0  0  0  0  0
   38.3820   33.1370   49.4210 C   0  0  0  0  0  3  0  0  0  0  0  0
   39.4320   34.1530   49.1760 C   0  0  0  0  0  2  0  0  0  0  0  0
   39.3960   34.6020   48.1670 H   0  0  0  0  0  0  0  0  0  0  0  0
   32.4080   30.2740   45.5080 C   0  0  0  0  0  0  0  0  0  0  0  0
   33.2800   30.6100   44.4680 C   0  0  0  0  0  0  0  0  0  0  0  0
   32.7670   31.2810   43.3610 C   0  0  0  0  0  0  0  0  0  0  0  0
   31.4110   31.5810   43.3540 N   0  0  0  0  0  0  0  0  0  0  0  0
   30.6160   31.2340   44.3840 C   0  0  0  0  0  0  0  0  0  0  0  0
   31.0870   30.5960   45.4430 N   0  0  0  0  0  0  0  0  0  0  0  0
   34.3210   30.3500   44.5330 H   0  0  0  0  0  0  0  0  0  0  0  0
   33.3910   31.5650   42.5300 H   0  0  0  0  0  0  0  0  0  0  0  0
   29.5630   31.4700   44.3710 H   0  0  0  0  0  0  0  0  0  0  0  0
  1  6  1  0  0  0  0
  1  2  1  0  0  0  0
  2  3  1  0  0  0  0
  2  8  1  0  0  0  0
  3  9  1  6  0  0  0
  3  4  1  0  0  0  0
  3 17  1  0  0  0  0
  4 10  1  0  0  0  0
  5  6  1  0  0  0  0
  5 12  1  0  0  0  0
  5  4  1  0  0  0  0
  6 13  1  0  0  0  0
  7  2  1  0  0  0  0
 11  5  1  0  0  0  0
 14  6  1  0  0  0  0
 15 16  1  0  0  0  0
 16 17  2  0  0  0  0
 16 21  1  0  0  0  0
 17 18  1  0  0  0  0
 18 22  1  0  0  0  0
 18 19  2  0  0  0  0
 19 23  1  0  0  0  0
 20 19  1  0  0  0  0
 20 24  1  0  0  0  0
 21 20  2  0  0  0  0
 25 21  1  0  0  0  0
 26 25  2  0  0  0  0
 27 26  1  0  0  0  0
 28 27  1  0  0  0  0
 29  1  1  0  0  0  0
 30 35  1  0  0  0  0
 30 29  2  0  0  0  0
 31 30  1  0  0  0  0
 32 31  2  0  0  0  0
 32 33  1  0  0  0  0
 33 34  2  0  0  0  0
 34 29  1  0  0  0  0
 36 31  1  0  0  0  0
 37 33  1  0  0  0  0
M  END
>  <minimizedAffinity>
-6.53714418

>  <minimizedRMSD>
2.27927232

$$$$
