
 OpenBabel03272500583D

 30 31  0  0  0  0  0  0  0  0999 V2000
   38.1120   31.8940   47.4280 C   0  0  0  0  0  0  0  0  0  0  0  0
   38.6360   32.8240   48.2840 C   0  0  0  0  0  0  0  0  0  0  0  0
   38.2150   32.9350   49.6140 C   0  0  0  0  0  0  0  0  0  0  0  0
   37.1880   32.0140   50.0610 C   0  0  0  0  0  0  0  0  0  0  0  0
   36.7140   31.1170   49.1640 C   0  0  0  0  0  0  0  0  0  0  0  0
   37.1230   31.0200   47.8880 C   0  0  0  0  0  0  0  0  0  0  0  0
   39.4170   33.5320   47.9640 H   0  0  0  0  0  0  0  0  0  0  0  0
   38.6750   33.7000   50.2390 H   0  0  0  0  0  0  0  0  0  0  0  0
   36.9750   32.2180   51.0810 H   0  0  0  0  0  0  0  0  0  0  0  0
   35.9970   30.5330   49.7180 H   0  0  0  0  0  0  0  0  0  0  0  0
   39.9100   31.2450   45.9120 C   0  0  0  0  0  0  0  0  0  0  0  0
   38.6670   31.8890   46.0910 C   0  0  0  0  0  0  0  0  0  0  0  0
   38.1310   32.4350   44.9510 C   0  0  0  0  0  0  0  0  0  0  0  0
   38.7800   32.3360   43.7750 N   0  0  0  0  0  0  0  0  0  0  0  0
   39.9360   31.7330   43.6270 C   0  0  0  0  0  0  0  0  0  0  0  0
   40.4990   31.1890   44.6940 N   0  0  0  0  0  0  0  0  0  0  0  0
   40.4090   30.7860   46.7560 H   0  0  0  0  0  0  0  0  0  0  0  0
   37.1670   32.9340   45.0910 H   0  0  0  0  0  0  0  0  0  0  0  0
   40.4370   31.6680   42.6720 H   0  0  0  0  0  0  0  0  0  0  0  0
   35.1510   29.9380   47.2040 C   0  0  0  0  0  0  0  0  0  0  0  0
   34.5700   30.6050   48.1500 O   0  0  0  0  0  0  0  0  0  0  0  0
   36.5810   30.1030   47.0230 N   0  0  0  0  0  0  0  0  0  0  0  0
   37.1150   29.5850   46.3250 H   0  0  0  0  0  0  0  0  0  0  0  0
   34.3990   29.1080   46.4190 O   0  0  0  0  0  0  0  0  0  0  0  0
   33.2440   29.4810   45.7410 C   0  0  0  0  0  0  0  0  0  0  0  0
   33.1740   30.6040   45.0560 O   0  0  0  0  0  0  0  0  0  0  0  0
   32.0360   28.6220   45.7350 C   0  0  0  0  0  3  0  0  0  0  0  0
   30.8200   29.0960   45.6320 C   0  0  0  0  0  3  0  0  0  0  0  0
   29.5770   28.2790   45.6220 C   0  0  0  0  0  2  0  0  0  0  0  0
   29.7520   27.2020   45.7630 H   0  0  0  0  0  0  0  0  0  0  0  0
  1  6  2  0  0  0  0
  1  2  1  0  0  0  0
  2  3  2  0  0  0  0
  3  4  1  0  0  0  0
  3  8  1  0  0  0  0
  4  9  1  0  0  0  0
  5 10  1  0  0  0  0
  5  4  2  0  0  0  0
  6  5  1  0  0  0  0
  7  2  1  0  0  0  0
 11 12  1  0  0  0  0
 11 17  1  0  0  0  0
 12  1  1  0  0  0  0
 13 18  1  0  0  0  0
 13 12  2  0  0  0  0
 14 13  1  0  0  0  0
 15 14  2  0  0  0  0
 15 16  1  0  0  0  0
 16 11  2  0  0  0  0
 19 15  1  0  0  0  0
 20 21  2  0  0  0  0
 22 20  1  0  0  0  0
 22  6  1  0  0  0  0
 23 22  1  0  0  0  0
 24 20  1  0  0  0  0
 25 24  1  0  0  0  0
 26 25  2  0  0  0  0
 27 25  1  0  0  0  0
 28 27  2  0  0  0  0
 29 28  1  0  0  0  0
 29 30  1  0  0  0  0
M  END
>  <minimizedAffinity>
-5.03016901

>  <minimizedRMSD>
0.341900408

$$$$
