
 OpenBabel03272506343D

 14 14  0  0  0  0  0  0  0  0999 V2000
   37.4530   29.9970   50.9080 C   0  0  0  0  0  0  0  0  0  0  0  0
   38.1600   31.0390   50.2830 C   0  0  0  0  0  0  0  0  0  0  0  0
   37.7920   31.4120   48.9990 C   0  0  0  0  0  0  0  0  0  0  0  0
   36.7650   30.7560   48.4020 N   0  0  0  0  0  0  0  0  0  0  0  0
   36.0930   29.7500   49.0240 C   0  0  0  0  0  0  0  0  0  0  0  0
   36.4420   29.3860   50.2600 N   0  0  0  0  0  0  0  0  0  0  0  0
   38.9850   31.5820   50.7320 H   0  0  0  0  0  0  0  0  0  0  0  0
   38.2890   32.1970   48.4640 H   0  0  0  0  0  0  0  0  0  0  0  0
   37.9230   29.7320   52.1770 O   0  0  0  0  0  0  0  0  0  0  0  0
   38.3150   28.8120   52.3370 H   0  0  0  0  0  0  0  0  0  0  0  0
   34.9920   29.0560   48.3680 C   0  0  0  0  0  3  0  0  0  0  0  0
   34.3780   28.0130   48.9050 C   0  0  0  0  0  3  0  0  0  0  0  0
   33.2450   27.3340   48.1820 C   0  0  0  0  0  2  0  0  0  0  0  0
   32.5210   26.9520   48.9080 H   0  0  0  0  0  0  0  0  0  0  0  0
  1  9  1  0  0  0  0
  2  7  1  0  0  0  0
  2  1  1  0  0  0  0
  3  2  2  0  0  0  0
  4  3  1  0  0  0  0
  4  5  2  0  0  0  0
  5  6  1  0  0  0  0
  6  1  2  0  0  0  0
  8  3  1  0  0  0  0
  9 10  1  0  0  0  0
 11 12  2  0  0  0  0
 11  5  1  0  0  0  0
 13 12  1  0  0  0  0
 13 14  1  0  0  0  0
M  END
>  <minimizedAffinity>
-4.27064133

>  <minimizedRMSD>
1.29266524

$$$$
