
 OpenBabel03272507363D

 14 14  0  0  0  0  0  0  0  0999 V2000
   36.8730   29.9810   51.0790 C   0  0  0  0  0  0  0  0  0  0  0  0
   37.0270   30.8630   50.0140 C   0  0  0  0  0  0  0  0  0  0  0  0
   36.0080   30.9550   49.0810 C   0  0  0  0  0  0  0  0  0  0  0  0
   34.9050   30.1810   49.2450 N   0  0  0  0  0  0  0  0  0  0  0  0
   34.7660   29.3220   50.2900 C   0  0  0  0  0  0  0  0  0  0  0  0
   35.7550   29.2460   51.1790 N   0  0  0  0  0  0  0  0  0  0  0  0
   35.9820   31.5800   48.2190 H   0  0  0  0  0  0  0  0  0  0  0  0
   33.8870   28.7070   50.4180 H   0  0  0  0  0  0  0  0  0  0  0  0
   37.9560   29.9840   51.9340 O   0  0  0  0  0  0  0  0  0  0  0  0
   38.2820   29.1580   52.4510 H   0  0  0  0  0  0  0  0  0  0  0  0
   38.2040   31.7010   49.8170 C   0  0  0  0  0  3  0  0  0  0  0  0
   38.1250   32.9490   49.3950 C   0  0  0  0  0  3  0  0  0  0  0  0
   39.2450   33.8590   49.1690 C   0  0  0  0  0  2  0  0  0  0  0  0
   39.3050   34.1200   48.0910 H   0  0  0  0  0  0  0  0  0  0  0  0
  1  6  1  0  0  0  0
  1  9  1  0  0  0  0
  2  1  2  0  0  0  0
  3  4  2  0  0  0  0
  3  2  1  0  0  0  0
  4  5  1  0  0  0  0
  5  8  1  0  0  0  0
  5  6  2  0  0  0  0
  7  3  1  0  0  0  0
  9 10  1  0  0  0  0
 11  2  1  0  0  0  0
 12 11  2  0  0  0  0
 13 12  1  0  0  0  0
 14 13  1  0  0  0  0
M  END
>  <minimizedAffinity>
-4.8506074

>  <minimizedRMSD>
1.29116344

$$$$
