
 OpenBabel03272506533D

 39 41  0  0  1  0  0  0  0  0999 V2000
   34.3490   30.1190   48.1810 C   0  0  1  0  0  0  0  0  0  0  0  0
   33.5430   30.1900   46.9870 C   0  0  0  0  0  0  0  0  0  0  0  0
   33.5270   28.9550   46.1130 C   0  0  0  0  0  0  0  0  0  0  0  0
   33.4630   27.6680   46.7930 C   0  0  2  0  0  0  0  0  0  0  0  0
   34.2430   27.5520   48.0950 C   0  0  0  0  0  0  0  0  0  0  0  0
   34.1300   28.8180   48.9080 C   0  0  0  0  0  0  0  0  0  0  0  0
   33.9500   30.8890   48.9200 H   0  0  0  0  0  0  0  0  0  0  0  0
   32.4600   30.2980   47.2940 H   0  0  0  0  0  0  0  0  0  0  0  0
   33.7000   31.0350   46.3130 H   0  0  0  0  0  0  0  0  0  0  0  0
   34.5780   29.0090   45.6630 H   0  0  0  0  0  0  0  0  0  0  0  0
   32.7620   29.0520   45.3400 H   0  0  0  0  0  0  0  0  0  0  0  0
   32.4470   27.3290   47.0670 H   0  0  0  0  0  0  0  0  0  0  0  0
   33.7370   26.8650   48.7710 H   0  0  0  0  0  0  0  0  0  0  0  0
   35.3040   27.3640   47.9140 H   0  0  0  0  0  0  0  0  0  0  0  0
   34.9050   28.7570   49.7010 H   0  0  0  0  0  0  0  0  0  0  0  0
   33.1530   28.8970   49.4720 H   0  0  0  0  0  0  0  0  0  0  0  0
   34.0290   26.6460   45.8750 C   0  0  0  0  0  0  0  0  0  0  0  0
   34.4840   27.0580   44.6300 C   0  0  0  0  0  0  0  0  0  0  0  0
   35.0020   26.1630   43.7150 C   0  0  0  0  0  0  0  0  0  0  0  0
   35.0630   24.8470   44.0520 C   0  0  0  0  0  0  0  0  0  0  0  0
   34.6110   24.4200   45.2850 C   0  0  0  0  0  0  0  0  0  0  0  0
   34.0890   25.3350   46.1930 C   0  0  0  0  0  0  0  0  0  0  0  0
   34.4950   28.0400   44.1830 H   0  0  0  0  0  0  0  0  0  0  0  0
   35.3730   26.4280   42.7260 H   0  0  0  0  0  0  0  0  0  0  0  0
   35.4790   24.1240   43.3280 H   0  0  0  0  0  0  0  0  0  0  0  0
   34.7100   23.3530   45.4180 H   0  0  0  0  0  0  0  0  0  0  0  0
   33.5030   24.7270   47.3320 C   0  0  0  0  0  3  0  0  0  0  0  0
   32.5710   23.8420   47.6060 C   0  0  0  0  0  3  0  0  0  0  0  0
   31.6790   23.0500   46.7220 C   0  0  0  0  0  2  0  0  0  0  0  0
   30.8200   23.6080   46.3320 H   0  0  0  0  0  0  0  0  0  0  0  0
   36.4390   30.5820   46.8970 C   0  0  0  0  0  0  0  0  0  0  0  0
   35.7670   30.4920   48.1040 C   0  0  0  0  0  0  0  0  0  0  0  0
   36.4950   30.7770   49.2660 C   0  0  0  0  0  0  0  0  0  0  0  0
   37.8070   31.1240   49.1560 N   0  0  0  0  0  0  0  0  0  0  0  0
   38.4230   31.1980   47.9490 C   0  0  0  0  0  0  0  0  0  0  0  0
   37.7260   30.9230   46.8100 N   0  0  0  0  0  0  0  0  0  0  0  0
   36.0510   30.4210   45.9090 H   0  0  0  0  0  0  0  0  0  0  0  0
   36.0170   30.7220   50.2300 H   0  0  0  0  0  0  0  0  0  0  0  0
   39.4620   31.4810   47.9740 H   0  0  0  0  0  0  0  0  0  0  0  0
  1  6  1  0  0  0  0
  1  7  1  1  0  0  0
  2  8  1  0  0  0  0
  2  1  1  0  0  0  0
  3  4  1  0  0  0  0
  3  2  1  0  0  0  0
  4 12  1  1  0  0  0
  4  5  1  0  0  0  0
  5 13  1  0  0  0  0
  5  6  1  0  0  0  0
  6 16  1  0  0  0  0
  6 15  1  0  0  0  0
  9  2  1  0  0  0  0
 10  3  1  0  0  0  0
 11  3  1  0  0  0  0
 14  5  1  0  0  0  0
 17 22  1  0  0  0  0
 17  4  1  0  0  0  0
 18 17  2  0  0  0  0
 19 20  2  0  0  0  0
 19 18  1  0  0  0  0
 20 21  1  0  0  0  0
 21 26  1  0  0  0  0
 21 22  2  0  0  0  0
 22 27  1  0  0  0  0
 23 18  1  0  0  0  0
 24 19  1  0  0  0  0
 25 20  1  0  0  0  0
 27 28  2  0  0  0  0
 29 28  1  0  0  0  0
 30 29  1  0  0  0  0
 31 32  1  0  0  0  0
 32  1  1  0  0  0  0
 32 33  2  0  0  0  0
 33 38  1  0  0  0  0
 34 33  1  0  0  0  0
 35 39  1  0  0  0  0
 35 34  2  0  0  0  0
 36 31  2  0  0  0  0
 36 35  1  0  0  0  0
 37 31  1  0  0  0  0
M  END
>  <minimizedAffinity>
-4.50920105

>  <minimizedRMSD>
1.08854413

$$$$
