
 OpenBabel03272509503D

 28 29  0  0  0  0  0  0  0  0999 V2000
   33.7850   28.6170   48.7470 C   0  0  0  0  0  0  0  0  0  0  0  0
   34.2700   29.1160   47.9010 H   0  0  0  0  0  0  0  0  0  0  0  0
   33.1490   29.3870   49.2590 H   0  0  0  0  0  0  0  0  0  0  0  0
   32.8890   27.4920   48.3380 C   0  0  0  0  0  0  0  0  0  0  0  0
   33.1750   27.1160   47.3170 H   0  0  0  0  0  0  0  0  0  0  0  0
   32.9870   26.6140   49.0210 H   0  0  0  0  0  0  0  0  0  0  0  0
   31.4590   27.8900   48.2640 C   0  0  0  0  0  0  0  0  0  0  0  0
   30.7050   27.7240   49.3980 C   0  0  0  0  0  0  0  0  0  0  0  0
   29.3680   28.0560   49.4580 C   0  0  0  0  0  0  0  0  0  0  0  0
   28.7830   28.5560   48.3760 N   0  0  0  0  0  0  0  0  0  0  0  0
   29.5280   28.7230   47.2470 C   0  0  0  0  0  0  0  0  0  0  0  0
   30.8350   28.4010   47.1810 N   0  0  0  0  0  0  0  0  0  0  0  0
   31.1380   27.3190   50.3090 H   0  0  0  0  0  0  0  0  0  0  0  0
   28.7960   27.9170   50.3590 H   0  0  0  0  0  0  0  0  0  0  0  0
   29.1200   29.1250   46.3230 H   0  0  0  0  0  0  0  0  0  0  0  0
   34.7190   28.1850   49.7300 O   0  0  0  0  0  0  0  0  0  0  0  0
   37.2360   30.1790   51.3940 C   0  0  0  0  0  0  0  0  0  0  0  0
   37.9190   30.6870   50.2840 C   0  0  0  0  0  0  0  0  0  0  0  0
   37.4830   30.3220   49.0070 C   0  0  0  0  0  0  0  0  0  0  0  0
   36.4000   29.4770   48.9310 N   0  0  0  0  0  0  0  0  0  0  0  0
   35.7700   29.0090   50.0240 C   0  0  0  0  0  0  0  0  0  0  0  0
   36.2000   29.3690   51.2520 N   0  0  0  0  0  0  0  0  0  0  0  0
   37.6180   30.4970   52.3560 H   0  0  0  0  0  0  0  0  0  0  0  0
   38.7720   31.3530   50.3390 H   0  0  0  0  0  0  0  0  0  0  0  0
   38.1190   30.7920   47.7660 C   0  0  0  0  0  3  0  0  0  0  0  0
   38.7800   31.9370   47.7060 C   0  0  0  0  0  3  0  0  0  0  0  0
   39.3810   32.3050   46.3910 C   0  0  0  0  0  2  0  0  0  0  0  0
   38.6750   32.0230   45.5910 H   0  0  0  0  0  0  0  0  0  0  0  0
  1  3  1  0  0  0  0
  1 16  1  0  0  0  0
  2  1  1  0  0  0  0
  4  1  1  0  0  0  0
  4  6  1  0  0  0  0
  5  4  1  0  0  0  0
  7  4  1  0  0  0  0
  7  8  1  0  0  0  0
  8  9  2  0  0  0  0
  8 13  1  0  0  0  0
  9 14  1  0  0  0  0
 10  9  1  0  0  0  0
 11 10  2  0  0  0  0
 12 11  1  0  0  0  0
 12  7  2  0  0  0  0
 15 11  1  0  0  0  0
 16 21  1  0  0  0  0
 17 23  1  0  0  0  0
 18 24  1  0  0  0  0
 18 17  2  0  0  0  0
 19 18  1  0  0  0  0
 20 19  2  0  0  0  0
 20 21  1  0  0  0  0
 21 22  2  0  0  0  0
 22 17  1  0  0  0  0
 25 19  1  0  0  0  0
 26 25  2  0  0  0  0
 27 26  1  0  0  0  0
 28 27  1  0  0  0  0
M  END
>  <minimizedAffinity>
-5.2726779

>  <minimizedRMSD>
0.414378911

$$$$
