
 OpenBabel03272509533D

 38 40  0  0  0  0  0  0  0  0999 V2000
   37.3120   30.1600   51.4980 C   0  0  0  0  0  0  0  0  0  0  0  0
   38.0540   30.8520   50.5100 C   0  0  0  0  0  0  0  0  0  0  0  0
   37.6940   30.6410   49.1880 C   0  0  0  0  0  0  0  0  0  0  0  0
   36.6480   29.7830   48.9530 N   0  0  0  0  0  0  0  0  0  0  0  0
   35.9710   29.1500   49.9080 C   0  0  0  0  0  0  0  0  0  0  0  0
   36.3160   29.3490   51.1980 N   0  0  0  0  0  0  0  0  0  0  0  0
   37.6550   30.3770   52.5090 H   0  0  0  0  0  0  0  0  0  0  0  0
   38.8770   31.5260   50.7000 H   0  0  0  0  0  0  0  0  0  0  0  0
   38.9400   33.2480   49.0140 F   0  0  0  0  0  0  0  0  0  0  0  0
   38.9110   32.4630   47.9410 C   0  0  0  0  0  0  0  0  0  0  0  0
   38.3260   31.2500   48.0410 C   0  0  0  0  0  0  0  0  0  0  0  0
   38.3540   30.5200   46.8620 C   0  0  0  0  0  0  0  0  0  0  0  0
   38.9260   30.9910   45.7070 C   0  0  0  0  0  0  0  0  0  0  0  0
   39.5070   32.2230   45.6510 C   0  0  0  0  0  0  0  0  0  0  0  0
   39.4950   32.9700   46.8010 C   0  0  0  0  0  0  0  0  0  0  0  0
   37.9250   29.5150   46.7620 H   0  0  0  0  0  0  0  0  0  0  0  0
   38.9460   30.4090   44.7780 H   0  0  0  0  0  0  0  0  0  0  0  0
   39.9620   32.6160   44.7530 H   0  0  0  0  0  0  0  0  0  0  0  0
   39.9490   33.9520   46.7820 H   0  0  0  0  0  0  0  0  0  0  0  0
   34.9830   28.3570   49.4280 O   0  0  0  0  0  0  0  0  0  0  0  0
   34.4200   28.6590   48.1490 C   0  0  0  0  0  0  0  0  0  0  0  0
   35.2080   28.9290   47.4210 H   0  0  0  0  0  0  0  0  0  0  0  0
   33.7960   29.5640   48.3050 H   0  0  0  0  0  0  0  0  0  0  0  0
   33.5290   27.5490   47.6920 C   0  0  0  0  0  0  0  0  0  0  0  0
   33.7480   26.5750   48.1390 H   0  0  0  0  0  0  0  0  0  0  0  0
   33.7350   27.4140   46.5900 H   0  0  0  0  0  0  0  0  0  0  0  0
   32.0850   27.8940   47.7630 C   0  0  0  0  0  0  0  0  0  0  0  0
   31.3700   27.4810   48.8910 C   0  0  0  0  0  0  0  0  0  0  0  0
   30.0390   27.7590   49.0310 C   0  0  0  0  0  0  0  0  0  0  0  0
   29.4080   28.4290   48.0880 N   0  0  0  0  0  0  0  0  0  0  0  0
   30.1090   28.8320   46.9860 C   0  0  0  0  0  0  0  0  0  0  0  0
   31.4180   28.5830   46.8030 N   0  0  0  0  0  0  0  0  0  0  0  0
   31.9030   26.9290   49.6610 H   0  0  0  0  0  0  0  0  0  0  0  0
   29.4600   27.4470   49.9010 H   0  0  0  0  0  0  0  0  0  0  0  0
   29.3630   29.5710   45.9700 C   0  0  0  0  0  3  0  0  0  0  0  0
   29.5570   29.4010   44.6950 C   0  0  0  0  0  3  0  0  0  0  0  0
   28.8010   30.1510   43.6430 C   0  0  0  0  0  2  0  0  0  0  0  0
   28.2320   30.9420   44.1750 H   0  0  0  0  0  0  0  0  0  0  0  0
  1  7  1  0  0  0  0
  2  8  1  0  0  0  0
  2  1  2  0  0  0  0
  3  2  1  0  0  0  0
  4  3  2  0  0  0  0
  4  5  1  0  0  0  0
  5  6  2  0  0  0  0
  6  1  1  0  0  0  0
 10 11  1  0  0  0  0
 10  9  1  0  0  0  0
 11  3  1  0  0  0  0
 12 11  2  0  0  0  0
 13 12  1  0  0  0  0
 14 13  2  0  0  0  0
 14 15  1  0  0  0  0
 15 10  2  0  0  0  0
 16 12  1  0  0  0  0
 17 13  1  0  0  0  0
 18 14  1  0  0  0  0
 19 15  1  0  0  0  0
 20  5  1  0  0  0  0
 21 23  1  0  0  0  0
 21 20  1  0  0  0  0
 22 21  1  0  0  0  0
 24 27  1  0  0  0  0
 24 25  1  0  0  0  0
 24 21  1  0  0  0  0
 26 24  1  0  0  0  0
 27 28  1  0  0  0  0
 28 29  2  0  0  0  0
 28 33  1  0  0  0  0
 29 34  1  0  0  0  0
 30 29  1  0  0  0  0
 31 30  2  0  0  0  0
 32 31  1  0  0  0  0
 32 27  2  0  0  0  0
 35 31  1  0  0  0  0
 36 35  2  0  0  0  0
 37 38  1  0  0  0  0
 37 36  1  0  0  0  0
M  END
>  <minimizedAffinity>
-6.24930906

>  <minimizedRMSD>
0.127097011

$$$$
