
 OpenBabel03272508413D

 37 39  0  0  1  0  0  0  0  0999 V2000
   33.2610   29.7890   44.2430 N   0  0  0  0  0  0  0  0  0  0  0  0
   33.8710   30.1270   45.5240 C   0  0  0  0  0  0  0  0  0  0  0  0
   35.3290   30.2300   45.4930 C   0  0  2  0  0  0  0  0  0  0  0  0
   35.9510   29.1130   44.7320 N   0  0  0  0  0  0  0  0  0  0  0  0
   35.3320   29.1030   43.3930 C   0  0  0  0  0  0  0  0  0  0  0  0
   33.9130   28.6650   43.6720 C   0  0  0  0  0  0  0  0  0  0  0  0
   33.3620   31.0010   45.9130 H   0  0  0  0  0  0  0  0  0  0  0  0
   33.6250   29.1730   46.1050 H   0  0  0  0  0  0  0  0  0  0  0  0
   35.7420   31.0820   44.9220 H   0  0  0  0  0  0  0  0  0  0  0  0
   35.7240   28.2290   45.2100 H   0  0  0  0  0  0  0  0  0  0  0  0
   35.3930   30.0870   42.9270 H   0  0  0  0  0  0  0  0  0  0  0  0
   35.8260   28.2880   42.8400 H   0  0  0  0  0  0  0  0  0  0  0  0
   33.9620   27.7980   44.3620 H   0  0  0  0  0  0  0  0  0  0  0  0
   33.4350   28.3080   42.7420 H   0  0  0  0  0  0  0  0  0  0  0  0
   37.6950   31.9800   45.9270 Cl  0  0  0  0  0  0  0  0  0  0  0  0
   36.9330   31.0170   47.1940 C   0  0  0  0  0  0  0  0  0  0  0  0
   35.8680   30.2340   46.8400 C   0  0  0  0  0  0  0  0  0  0  0  0
   35.1650   29.4190   47.7390 C   0  0  0  0  0  0  0  0  0  0  0  0
   35.6200   29.4390   49.0630 C   0  0  0  0  0  0  0  0  0  0  0  0
   36.7120   30.2360   49.4300 C   0  0  0  0  0  0  0  0  0  0  0  0
   37.3520   31.0150   48.4890 C   0  0  0  0  0  0  0  0  0  0  0  0
   34.3380   28.7500   47.7370 H   0  0  0  0  0  0  0  0  0  0  0  0
   35.2430   28.9010   49.9200 H   0  0  0  0  0  0  0  0  0  0  0  0
   37.1190   30.3020   50.4270 H   0  0  0  0  0  0  0  0  0  0  0  0
   38.4880   31.8530   48.8400 C   0  0  0  0  0  3  0  0  0  0  0  0
   38.3590   33.1110   49.1960 C   0  0  0  0  0  3  0  0  0  0  0  0
   39.4790   34.0100   49.5620 C   0  0  0  0  0  2  0  0  0  0  0  0
   39.6750   34.8060   48.8210 H   0  0  0  0  0  0  0  0  0  0  0  0
   32.1640   30.5100   43.7040 C   0  0  0  0  0  0  0  0  0  0  0  0
   32.1310   30.9200   42.3680 C   0  0  0  0  0  0  0  0  0  0  0  0
   31.0180   31.6220   41.9150 C   0  0  0  0  0  0  0  0  0  0  0  0
   29.9980   31.8790   42.8220 N   0  0  0  0  0  0  0  0  0  0  0  0
   30.0820   31.4600   44.1000 C   0  0  0  0  0  0  0  0  0  0  0  0
   31.1330   30.7910   44.5460 N   0  0  0  0  0  0  0  0  0  0  0  0
   32.9540   30.6910   41.7140 H   0  0  0  0  0  0  0  0  0  0  0  0
   30.9370   31.9620   40.8960 H   0  0  0  0  0  0  0  0  0  0  0  0
   29.2850   31.6620   44.7990 H   0  0  0  0  0  0  0  0  0  0  0  0
  1  2  1  0  0  0  0
  2  7  1  0  0  0  0
  2  8  1  0  0  0  0
  3  9  1  6  0  0  0
  3  2  1  0  0  0  0
  3 17  1  0  0  0  0
  4 10  1  0  0  0  0
  4  3  1  0  0  0  0
  5  6  1  0  0  0  0
  5  4  1  0  0  0  0
  6  1  1  0  0  0  0
  6 13  1  0  0  0  0
 11  5  1  0  0  0  0
 12  5  1  0  0  0  0
 14  6  1  0  0  0  0
 15 16  1  0  0  0  0
 16 21  1  0  0  0  0
 17 16  2  0  0  0  0
 17 18  1  0  0  0  0
 18 19  2  0  0  0  0
 19 20  1  0  0  0  0
 19 23  1  0  0  0  0
 20 24  1  0  0  0  0
 21 25  1  0  0  0  0
 21 20  2  0  0  0  0
 22 18  1  0  0  0  0
 25 26  2  0  0  0  0
 26 27  1  0  0  0  0
 28 27  1  0  0  0  0
 29  1  1  0  0  0  0
 29 34  1  0  0  0  0
 30 29  2  0  0  0  0
 31 30  1  0  0  0  0
 31 32  2  0  0  0  0
 32 33  1  0  0  0  0
 33 34  2  0  0  0  0
 33 37  1  0  0  0  0
 35 30  1  0  0  0  0
 36 31  1  0  0  0  0
M  END
>  <minimizedAffinity>
-4.72116709

>  <minimizedRMSD>
2.37586117

$$$$
