
 OpenBabel03272509373D

 25 26  0  0  0  0  0  0  0  0999 V2000
   36.0540   29.5280   49.1250 C   0  0  0  0  0  0  0  0  0  0  0  0
   36.1400   29.4950   50.5220 C   0  0  0  0  0  0  0  0  0  0  0  0
   37.1330   30.1690   51.2200 C   0  0  0  0  0  0  0  0  0  0  0  0
   38.0890   30.9100   50.5300 C   0  0  0  0  0  0  0  0  0  0  0  0
   37.9920   30.9330   49.1600 C   0  0  0  0  0  0  0  0  0  0  0  0
   37.0020   30.2610   48.4860 C   0  0  0  0  0  0  0  0  0  0  0  0
   35.3950   28.9170   51.0560 H   0  0  0  0  0  0  0  0  0  0  0  0
   37.0930   30.0670   52.2900 H   0  0  0  0  0  0  0  0  0  0  0  0
   38.8190   31.3940   51.1640 H   0  0  0  0  0  0  0  0  0  0  0  0
   38.7960   31.5420   48.7740 H   0  0  0  0  0  0  0  0  0  0  0  0
   34.9800   28.8000   48.4810 C   0  0  0  0  0  0  0  0  0  0  0  0
   34.6550   27.7110   49.0810 O   0  0  0  0  0  0  0  0  0  0  0  0
   32.9540   30.8880   46.3130 C   0  0  0  0  0  0  0  0  0  0  0  0
   32.9620   30.2200   45.0950 C   0  0  0  0  0  0  0  0  0  0  0  0
   33.6670   29.0340   45.0130 C   0  0  0  0  0  0  0  0  0  0  0  0
   34.3200   28.5660   46.1140 N   0  0  0  0  0  0  0  0  0  0  0  0
   34.2970   29.2230   47.2650 C   0  0  0  0  0  0  0  0  0  0  0  0
   33.6120   30.3810   47.3540 N   0  0  0  0  0  0  0  0  0  0  0  0
   32.4200   31.8220   46.4410 H   0  0  0  0  0  0  0  0  0  0  0  0
   32.3990   30.7120   44.3140 H   0  0  0  0  0  0  0  0  0  0  0  0
   33.6570   28.5360   44.0610 H   0  0  0  0  0  0  0  0  0  0  0  0
   37.0480   30.3870   47.0480 C   0  0  0  0  0  3  0  0  0  0  0  0
   38.0880   30.6910   46.3000 C   0  0  0  0  0  3  0  0  0  0  0  0
   38.3150   30.8600   44.8600 C   0  0  0  0  0  2  0  0  0  0  0  0
   38.3550   31.9510   44.5800 H   0  0  0  0  0  0  0  0  0  0  0  0
  1  2  1  0  0  0  0
  2  7  1  0  0  0  0
  2  3  2  0  0  0  0
  3  8  1  0  0  0  0
  4  9  1  0  0  0  0
  4  3  1  0  0  0  0
  5  4  2  0  0  0  0
  6  1  2  0  0  0  0
  6  5  1  0  0  0  0
 10  5  1  0  0  0  0
 11 12  2  0  0  0  0
 11  1  1  0  0  0  0
 13 19  1  0  0  0  0
 13 18  1  0  0  0  0
 14 13  2  0  0  0  0
 15 14  1  0  0  0  0
 15 16  2  0  0  0  0
 16 17  1  0  0  0  0
 17 18  2  0  0  0  0
 17 11  1  0  0  0  0
 20 14  1  0  0  0  0
 21 15  1  0  0  0  0
 22  6  1  0  0  0  0
 23 22  2  0  0  0  0
 24 23  1  0  0  0  0
 25 24  1  0  0  0  0
M  END
>  <minimizedAffinity>
-5.06494904

>  <minimizedRMSD>
0.660600305

$$$$
