
 OpenBabel03272506353D

 14 14  0  0  0  0  0  0  0  0999 V2000
   39.7470   22.8410   37.4850 C   0  0  0  0  0  0  0  0  0  0  0  0
   38.6980   23.1940   38.3520 C   0  0  0  0  0  0  0  0  0  0  0  0
   37.8980   24.2770   38.0170 C   0  0  0  0  0  0  0  0  0  0  0  0
   38.1630   24.9480   36.8680 N   0  0  0  0  0  0  0  0  0  0  0  0
   39.1830   24.5900   36.0430 C   0  0  0  0  0  0  0  0  0  0  0  0
   39.9570   23.5490   36.3580 N   0  0  0  0  0  0  0  0  0  0  0  0
   38.4610   22.6790   39.2770 H   0  0  0  0  0  0  0  0  0  0  0  0
   37.0830   24.6000   38.6330 H   0  0  0  0  0  0  0  0  0  0  0  0
   40.4580   21.7490   37.9390 O   0  0  0  0  0  0  0  0  0  0  0  0
   41.4340   21.9000   38.1600 H   0  0  0  0  0  0  0  0  0  0  0  0
   39.4520   25.3220   34.8110 C   0  0  0  0  0  3  0  0  0  0  0  0
   40.1390   26.4550   34.7840 C   0  0  0  0  0  3  0  0  0  0  0  0
   40.3880   27.1700   33.4830 C   0  0  0  0  0  2  0  0  0  0  0  0
   41.3610   27.6690   33.5180 H   0  0  0  0  0  0  0  0  0  0  0  0
  1  9  1  0  0  0  0
  1  2  1  0  0  0  0
  2  7  1  0  0  0  0
  3  2  2  0  0  0  0
  3  8  1  0  0  0  0
  4  3  1  0  0  0  0
  5  6  1  0  0  0  0
  5  4  2  0  0  0  0
  6  1  2  0  0  0  0
  9 10  1  0  0  0  0
 11  5  1  0  0  0  0
 12 11  2  0  0  0  0
 13 14  1  0  0  0  0
 13 12  1  0  0  0  0
M  END
>  <minimizedAffinity>
-3.91829276

$$$$

 OpenBabel03272506353D

 14 14  0  0  0  0  0  0  0  0999 V2000
   38.8680   23.2320   37.8630 C   0  0  0  0  0  0  0  0  0  0  0  0
   40.0850   22.7670   37.3360 C   0  0  0  0  0  0  0  0  0  0  0  0
   40.5240   23.2850   36.1260 C   0  0  0  0  0  0  0  0  0  0  0  0
   39.7600   24.2180   35.5050 N   0  0  0  0  0  0  0  0  0  0  0  0
   38.5860   24.6560   36.0320 C   0  0  0  0  0  0  0  0  0  0  0  0
   38.1560   24.1610   37.1950 N   0  0  0  0  0  0  0  0  0  0  0  0
   40.7180   22.0210   37.8070 H   0  0  0  0  0  0  0  0  0  0  0  0
   41.4420   22.9740   35.6670 H   0  0  0  0  0  0  0  0  0  0  0  0
   38.5550   22.6340   39.0660 O   0  0  0  0  0  0  0  0  0  0  0  0
   37.7110   22.0740   39.0920 H   0  0  0  0  0  0  0  0  0  0  0  0
   37.7770   25.6600   35.3510 C   0  0  0  0  0  3  0  0  0  0  0  0
   37.9250   26.9610   35.5570 C   0  0  0  0  0  3  0  0  0  0  0  0
   37.0620   27.9550   34.8270 C   0  0  0  0  0  2  0  0  0  0  0  0
   37.6340   28.8680   34.6370 H   0  0  0  0  0  0  0  0  0  0  0  0
  1  9  1  0  0  0  0
  2  7  1  0  0  0  0
  2  1  1  0  0  0  0
  3  2  2  0  0  0  0
  4  5  2  0  0  0  0
  4  3  1  0  0  0  0
  5  6  1  0  0  0  0
  6  1  2  0  0  0  0
  8  3  1  0  0  0  0
  9 10  1  0  0  0  0
 11 12  2  0  0  0  0
 11  5  1  0  0  0  0
 13 12  1  0  0  0  0
 14 13  1  0  0  0  0
M  END
>  <minimizedAffinity>
-3.86591029

$$$$

 OpenBabel03272506353D

 14 14  0  0  0  0  0  0  0  0999 V2000
   38.5920   24.3430   35.9700 C   0  0  0  0  0  0  0  0  0  0  0  0
   37.7730   24.7520   37.0360 C   0  0  0  0  0  0  0  0  0  0  0  0
   37.9790   24.1850   38.2850 C   0  0  0  0  0  0  0  0  0  0  0  0
   38.9630   23.2610   38.4230 N   0  0  0  0  0  0  0  0  0  0  0  0
   39.7450   22.8780   37.3790 C   0  0  0  0  0  0  0  0  0  0  0  0
   39.5520   23.4200   36.1740 N   0  0  0  0  0  0  0  0  0  0  0  0
   36.9780   25.4870   36.9590 H   0  0  0  0  0  0  0  0  0  0  0  0
   37.3900   24.4500   39.1410 H   0  0  0  0  0  0  0  0  0  0  0  0
   38.2780   24.9860   34.7910 O   0  0  0  0  0  0  0  0  0  0  0  0
   37.9480   24.4070   34.0280 H   0  0  0  0  0  0  0  0  0  0  0  0
   40.7990   21.8840   37.5450 C   0  0  0  0  0  3  0  0  0  0  0  0
   41.7060   21.6370   36.6120 C   0  0  0  0  0  3  0  0  0  0  0  0
   42.7720   20.5980   36.8360 C   0  0  0  0  0  2  0  0  0  0  0  0
   43.6940   20.9020   36.3300 H   0  0  0  0  0  0  0  0  0  0  0  0
  1  6  2  0  0  0  0
  1  2  1  0  0  0  0
  2  3  2  0  0  0  0
  3  4  1  0  0  0  0
  3  8  1  0  0  0  0
  5 11  1  0  0  0  0
  5  4  2  0  0  0  0
  6  5  1  0  0  0  0
  7  2  1  0  0  0  0
  9  1  1  0  0  0  0
 10  9  1  0  0  0  0
 12 13  1  0  0  0  0
 12 11  2  0  0  0  0
 14 13  1  0  0  0  0
M  END
>  <minimizedAffinity>
-3.54451132

$$$$

 OpenBabel03272506353D

 14 14  0  0  0  0  0  0  0  0999 V2000
   35.4150   25.2000   30.9530 C   0  0  0  0  0  0  0  0  0  0  0  0
   35.6930   23.8240   31.0260 C   0  0  0  0  0  0  0  0  0  0  0  0
   36.6150   23.3840   31.9650 C   0  0  0  0  0  0  0  0  0  0  0  0
   37.2080   24.3000   32.7710 N   0  0  0  0  0  0  0  0  0  0  0  0
   36.9250   25.6270   32.6850 C   0  0  0  0  0  0  0  0  0  0  0  0
   36.0390   26.0590   31.7840 N   0  0  0  0  0  0  0  0  0  0  0  0
   35.2380   23.0670   30.3960 H   0  0  0  0  0  0  0  0  0  0  0  0
   36.8750   22.3500   32.0730 H   0  0  0  0  0  0  0  0  0  0  0  0
   34.4830   25.4960   29.9800 O   0  0  0  0  0  0  0  0  0  0  0  0
   34.7920   26.0850   29.2160 H   0  0  0  0  0  0  0  0  0  0  0  0
   37.5700   26.5990   33.5600 C   0  0  0  0  0  3  0  0  0  0  0  0
   37.6670   26.4300   34.8700 C   0  0  0  0  0  3  0  0  0  0  0  0
   38.3440   27.4670   35.7280 C   0  0  0  0  0  2  0  0  0  0  0  0
   38.8450   26.9780   36.5690 H   0  0  0  0  0  0  0  0  0  0  0  0
  1  2  2  0  0  0  0
  1  6  1  0  0  0  0
  2  3  1  0  0  0  0
  3  8  1  0  0  0  0
  3  4  2  0  0  0  0
  5  4  1  0  0  0  0
  5 11  1  0  0  0  0
  6  5  2  0  0  0  0
  7  2  1  0  0  0  0
  9  1  1  0  0  0  0
 10  9  1  0  0  0  0
 11 12  2  0  0  0  0
 12 13  1  0  0  0  0
 13 14  1  0  0  0  0
M  END
>  <minimizedAffinity>
-3.49020171

$$$$

 OpenBabel03272506353D

 14 14  0  0  0  0  0  0  0  0999 V2000
   38.2230   23.5310   37.7590 C   0  0  0  0  0  0  0  0  0  0  0  0
   39.5780   23.1950   37.9290 C   0  0  0  0  0  0  0  0  0  0  0  0
   40.1830   22.3800   36.9840 C   0  0  0  0  0  0  0  0  0  0  0  0
   39.4420   21.9430   35.9350 N   0  0  0  0  0  0  0  0  0  0  0  0
   38.1320   22.2780   35.7870 C   0  0  0  0  0  0  0  0  0  0  0  0
   37.5430   23.0620   36.6930 N   0  0  0  0  0  0  0  0  0  0  0  0
   40.1970   23.5280   38.7560 H   0  0  0  0  0  0  0  0  0  0  0  0
   41.2110   22.0850   37.0530 H   0  0  0  0  0  0  0  0  0  0  0  0
   37.7530   24.3440   38.7680 O   0  0  0  0  0  0  0  0  0  0  0  0
   37.0110   23.9700   39.3480 H   0  0  0  0  0  0  0  0  0  0  0  0
   37.3500   21.8000   34.6540 C   0  0  0  0  0  3  0  0  0  0  0  0
   36.2970   21.0080   34.7910 C   0  0  0  0  0  3  0  0  0  0  0  0
   35.5260   20.5430   33.5840 C   0  0  0  0  0  2  0  0  0  0  0  0
   34.4680   20.4380   33.8420 H   0  0  0  0  0  0  0  0  0  0  0  0
  1  2  1  0  0  0  0
  1  9  1  0  0  0  0
  2  7  1  0  0  0  0
  3  8  1  0  0  0  0
  3  2  2  0  0  0  0
  4  3  1  0  0  0  0
  5  4  2  0  0  0  0
  5  6  1  0  0  0  0
  6  1  2  0  0  0  0
  9 10  1  0  0  0  0
 11 12  2  0  0  0  0
 11  5  1  0  0  0  0
 13 14  1  0  0  0  0
 13 12  1  0  0  0  0
M  END
>  <minimizedAffinity>
-3.48187256

$$$$

 OpenBabel03272506353D

 14 14  0  0  0  0  0  0  0  0999 V2000
   38.4660   23.7120   37.9910 C   0  0  0  0  0  0  0  0  0  0  0  0
   37.6980   23.5410   36.8270 C   0  0  0  0  0  0  0  0  0  0  0  0
   38.1840   22.7100   35.8280 C   0  0  0  0  0  0  0  0  0  0  0  0
   39.3800   22.0990   36.0180 N   0  0  0  0  0  0  0  0  0  0  0  0
   40.1090   22.2770   37.1520 C   0  0  0  0  0  0  0  0  0  0  0  0
   39.6480   23.0750   38.1180 N   0  0  0  0  0  0  0  0  0  0  0  0
   36.7390   24.0160   36.6440 H   0  0  0  0  0  0  0  0  0  0  0  0
   37.6500   22.5370   34.9150 H   0  0  0  0  0  0  0  0  0  0  0  0
   37.8660   24.5610   38.8970 O   0  0  0  0  0  0  0  0  0  0  0  0
   38.3570   25.4180   39.1160 H   0  0  0  0  0  0  0  0  0  0  0  0
   41.3920   21.6110   37.3400 C   0  0  0  0  0  3  0  0  0  0  0  0
   42.1190   21.1550   36.3310 C   0  0  0  0  0  3  0  0  0  0  0  0
   43.4380   20.4740   36.5840 C   0  0  0  0  0  2  0  0  0  0  0  0
   44.1270   20.6890   35.7610 H   0  0  0  0  0  0  0  0  0  0  0  0
  1  6  1  0  0  0  0
  1  9  1  0  0  0  0
  2  1  2  0  0  0  0
  3  4  2  0  0  0  0
  3  2  1  0  0  0  0
  4  5  1  0  0  0  0
  5 11  1  0  0  0  0
  5  6  2  0  0  0  0
  7  2  1  0  0  0  0
  8  3  1  0  0  0  0
  9 10  1  0  0  0  0
 12 13  1  0  0  0  0
 12 11  2  0  0  0  0
 14 13  1  0  0  0  0
M  END
>  <minimizedAffinity>
-3.47384977

$$$$

 OpenBabel03272506353D

 14 14  0  0  0  0  0  0  0  0999 V2000
   36.5860   28.3350   30.6160 C   0  0  0  0  0  0  0  0  0  0  0  0
   35.8880   29.5280   30.8730 C   0  0  0  0  0  0  0  0  0  0  0  0
   35.6680   29.8950   32.1930 C   0  0  0  0  0  0  0  0  0  0  0  0
   36.1360   29.0870   33.1770 N   0  0  0  0  0  0  0  0  0  0  0  0
   36.8100   27.9370   32.9080 C   0  0  0  0  0  0  0  0  0  0  0  0
   37.0250   27.5770   31.6400 N   0  0  0  0  0  0  0  0  0  0  0  0
   35.5000   30.1940   30.1100 H   0  0  0  0  0  0  0  0  0  0  0  0
   35.1420   30.7900   32.4600 H   0  0  0  0  0  0  0  0  0  0  0  0
   36.7330   28.0940   29.2660 O   0  0  0  0  0  0  0  0  0  0  0  0
   36.2900   27.2600   28.9000 H   0  0  0  0  0  0  0  0  0  0  0  0
   37.3070   27.0810   33.9780 C   0  0  0  0  0  3  0  0  0  0  0  0
   37.8020   27.5610   35.1090 C   0  0  0  0  0  3  0  0  0  0  0  0
   38.3030   26.6300   36.1820 C   0  0  0  0  0  2  0  0  0  0  0  0
   38.1170   27.0700   37.1660 H   0  0  0  0  0  0  0  0  0  0  0  0
  1  2  2  0  0  0  0
  1  6  1  0  0  0  0
  2  3  1  0  0  0  0
  3  8  1  0  0  0  0
  3  4  2  0  0  0  0
  5  4  1  0  0  0  0
  5 11  1  0  0  0  0
  6  5  2  0  0  0  0
  7  2  1  0  0  0  0
  9  1  1  0  0  0  0
 10  9  1  0  0  0  0
 11 12  2  0  0  0  0
 12 13  1  0  0  0  0
 13 14  1  0  0  0  0
M  END
>  <minimizedAffinity>
-3.36770248

$$$$

 OpenBabel03272506353D

 14 14  0  0  0  0  0  0  0  0999 V2000
   35.8260   24.8060   31.1270 C   0  0  0  0  0  0  0  0  0  0  0  0
   36.7730   25.4160   31.9680 C   0  0  0  0  0  0  0  0  0  0  0  0
   37.5130   24.6130   32.8240 C   0  0  0  0  0  0  0  0  0  0  0  0
   37.2900   23.2750   32.8120 N   0  0  0  0  0  0  0  0  0  0  0  0
   36.3690   22.7040   31.9920 C   0  0  0  0  0  0  0  0  0  0  0  0
   35.6530   23.4700   31.1650 N   0  0  0  0  0  0  0  0  0  0  0  0
   36.9740   26.4810   32.0010 H   0  0  0  0  0  0  0  0  0  0  0  0
   38.2500   25.0120   33.4920 H   0  0  0  0  0  0  0  0  0  0  0  0
   35.1660   25.7180   30.3320 O   0  0  0  0  0  0  0  0  0  0  0  0
   34.1660   25.8050   30.4680 H   0  0  0  0  0  0  0  0  0  0  0  0
   36.1430   21.2630   31.9910 C   0  0  0  0  0  3  0  0  0  0  0  0
   34.9430   20.7250   32.1430 C   0  0  0  0  0  3  0  0  0  0  0  0
   34.7670   19.2290   32.1360 C   0  0  0  0  0  2  0  0  0  0  0  0
   33.7980   18.9750   31.6950 H   0  0  0  0  0  0  0  0  0  0  0  0
  1  6  2  0  0  0  0
  1  2  1  0  0  0  0
  2  7  1  0  0  0  0
  2  3  2  0  0  0  0
  3  8  1  0  0  0  0
  4  3  1  0  0  0  0
  5  4  2  0  0  0  0
  6  5  1  0  0  0  0
  9 10  1  0  0  0  0
  9  1  1  0  0  0  0
 11  5  1  0  0  0  0
 11 12  2  0  0  0  0
 13 12  1  0  0  0  0
 14 13  1  0  0  0  0
M  END
>  <minimizedAffinity>
-3.33032489

$$$$

 OpenBabel03272506353D

 14 14  0  0  0  0  0  0  0  0999 V2000
   38.4300   23.1900   37.5550 C   0  0  0  0  0  0  0  0  0  0  0  0
   38.1050   24.5570   37.5150 C   0  0  0  0  0  0  0  0  0  0  0  0
   37.9400   25.1630   36.2780 C   0  0  0  0  0  0  0  0  0  0  0  0
   38.0990   24.4110   35.1610 N   0  0  0  0  0  0  0  0  0  0  0  0
   38.4140   23.0890   35.2200 C   0  0  0  0  0  0  0  0  0  0  0  0
   38.5740   22.4990   36.4070 N   0  0  0  0  0  0  0  0  0  0  0  0
   37.9720   25.1860   38.3890 H   0  0  0  0  0  0  0  0  0  0  0  0
   37.6930   26.2010   36.1760 H   0  0  0  0  0  0  0  0  0  0  0  0
   38.5630   22.7200   38.8440 O   0  0  0  0  0  0  0  0  0  0  0  0
   39.4770   22.3740   39.1130 H   0  0  0  0  0  0  0  0  0  0  0  0
   38.5800   22.2950   34.0090 C   0  0  0  0  0  3  0  0  0  0  0  0
   37.6260   21.5130   33.5260 C   0  0  0  0  0  3  0  0  0  0  0  0
   37.8520   20.7130   32.2710 C   0  0  0  0  0  2  0  0  0  0  0  0
   36.9130   20.6250   31.7170 H   0  0  0  0  0  0  0  0  0  0  0  0
  1  9  1  0  0  0  0
  2  1  1  0  0  0  0
  2  7  1  0  0  0  0
  3  2  2  0  0  0  0
  4  5  2  0  0  0  0
  4  3  1  0  0  0  0
  5  6  1  0  0  0  0
  6  1  2  0  0  0  0
  8  3  1  0  0  0  0
  9 10  1  0  0  0  0
 11  5  1  0  0  0  0
 12 11  2  0  0  0  0
 13 12  1  0  0  0  0
 14 13  1  0  0  0  0
M  END
>  <minimizedAffinity>
-3.31604719

$$$$
