
 OpenBabel03272509503D

 28 29  0  0  0  0  0  0  0  0999 V2000
   34.2820   28.5930   48.3550 C   0  0  0  0  0  0  0  0  0  0  0  0
   34.9090   28.9650   47.5360 H   0  0  0  0  0  0  0  0  0  0  0  0
   33.6340   29.4490   48.6850 H   0  0  0  0  0  0  0  0  0  0  0  0
   33.3780   27.4740   47.9470 C   0  0  0  0  0  0  0  0  0  0  0  0
   33.6740   27.0810   46.9360 H   0  0  0  0  0  0  0  0  0  0  0  0
   33.4560   26.6040   48.6430 H   0  0  0  0  0  0  0  0  0  0  0  0
   31.9550   27.8880   47.8480 C   0  0  0  0  0  0  0  0  0  0  0  0
   31.1330   27.5590   48.8970 C   0  0  0  0  0  0  0  0  0  0  0  0
   29.7940   27.8870   48.9260 C   0  0  0  0  0  0  0  0  0  0  0  0
   29.2750   28.5480   47.8980 N   0  0  0  0  0  0  0  0  0  0  0  0
   30.0870   28.8780   46.8530 C   0  0  0  0  0  0  0  0  0  0  0  0
   31.3960   28.5610   46.8190 N   0  0  0  0  0  0  0  0  0  0  0  0
   31.5110   27.0190   49.7610 H   0  0  0  0  0  0  0  0  0  0  0  0
   29.1690   27.6180   49.7590 H   0  0  0  0  0  0  0  0  0  0  0  0
   29.7350   29.4170   45.9780 H   0  0  0  0  0  0  0  0  0  0  0  0
   35.0450   28.2330   49.5020 O   0  0  0  0  0  0  0  0  0  0  0  0
   37.3430   30.2240   51.4600 C   0  0  0  0  0  0  0  0  0  0  0  0
   38.0350   30.8790   50.4350 C   0  0  0  0  0  0  0  0  0  0  0  0
   37.6800   30.6070   49.1100 C   0  0  0  0  0  0  0  0  0  0  0  0
   36.6620   29.7030   48.9060 N   0  0  0  0  0  0  0  0  0  0  0  0
   36.0220   29.0940   49.9190 C   0  0  0  0  0  0  0  0  0  0  0  0
   36.3730   29.3640   51.1950 N   0  0  0  0  0  0  0  0  0  0  0  0
   37.6610   30.4740   52.4640 H   0  0  0  0  0  0  0  0  0  0  0  0
   38.8360   31.5910   50.5910 H   0  0  0  0  0  0  0  0  0  0  0  0
   38.3330   31.2320   47.9490 C   0  0  0  0  0  3  0  0  0  0  0  0
   38.3700   30.6450   46.7640 C   0  0  0  0  0  3  0  0  0  0  0  0
   39.0610   31.3780   45.6650 C   0  0  0  0  0  2  0  0  0  0  0  0
   39.9630   31.8630   46.0780 H   0  0  0  0  0  0  0  0  0  0  0  0
  1  3  1  0  0  0  0
  1 16  1  0  0  0  0
  2  1  1  0  0  0  0
  4  1  1  0  0  0  0
  4  6  1  0  0  0  0
  5  4  1  0  0  0  0
  7  4  1  0  0  0  0
  7  8  1  0  0  0  0
  8  9  2  0  0  0  0
  8 13  1  0  0  0  0
  9 14  1  0  0  0  0
 10  9  1  0  0  0  0
 11 10  2  0  0  0  0
 12 11  1  0  0  0  0
 12  7  2  0  0  0  0
 15 11  1  0  0  0  0
 16 21  1  0  0  0  0
 17 23  1  0  0  0  0
 18 24  1  0  0  0  0
 18 17  2  0  0  0  0
 19 18  1  0  0  0  0
 20 19  2  0  0  0  0
 20 21  1  0  0  0  0
 21 22  2  0  0  0  0
 22 17  1  0  0  0  0
 25 19  1  0  0  0  0
 26 25  2  0  0  0  0
 27 28  1  0  0  0  0
 27 26  1  0  0  0  0
M  END
>  <minimizedAffinity>
-5.03166246

>  <minimizedRMSD>
0.700295985

$$$$
