
 OpenBabel03272509503D

 28 29  0  0  0  0  0  0  0  0999 V2000
   33.7100   28.5900   48.6840 C   0  0  0  0  0  0  0  0  0  0  0  0
   34.2480   28.9830   47.8150 H   0  0  0  0  0  0  0  0  0  0  0  0
   33.0820   29.4290   49.0870 H   0  0  0  0  0  0  0  0  0  0  0  0
   32.7890   27.4590   48.3490 C   0  0  0  0  0  0  0  0  0  0  0  0
   33.0140   27.0630   47.3210 H   0  0  0  0  0  0  0  0  0  0  0  0
   32.9270   26.5950   49.0420 H   0  0  0  0  0  0  0  0  0  0  0  0
   31.3580   27.8590   48.3520 C   0  0  0  0  0  0  0  0  0  0  0  0
   30.6780   27.7380   49.5380 C   0  0  0  0  0  0  0  0  0  0  0  0
   29.3470   28.0760   49.6710 C   0  0  0  0  0  0  0  0  0  0  0  0
   28.6960   28.5390   48.6100 N   0  0  0  0  0  0  0  0  0  0  0  0
   29.3680   28.6610   47.4300 C   0  0  0  0  0  0  0  0  0  0  0  0
   30.6670   28.3330   47.2930 N   0  0  0  0  0  0  0  0  0  0  0  0
   31.1670   27.3650   50.4330 H   0  0  0  0  0  0  0  0  0  0  0  0
   28.8340   27.9720   50.6110 H   0  0  0  0  0  0  0  0  0  0  0  0
   28.9020   29.0310   46.5210 H   0  0  0  0  0  0  0  0  0  0  0  0
   34.5850   28.2290   49.7470 O   0  0  0  0  0  0  0  0  0  0  0  0
   37.1660   30.1380   51.4130 C   0  0  0  0  0  0  0  0  0  0  0  0
   37.6780   30.8570   50.3260 C   0  0  0  0  0  0  0  0  0  0  0  0
   37.1120   30.6540   49.0650 C   0  0  0  0  0  0  0  0  0  0  0  0
   36.0780   29.7500   48.9790 N   0  0  0  0  0  0  0  0  0  0  0  0
   35.6150   29.0770   50.0470 C   0  0  0  0  0  0  0  0  0  0  0  0
   36.1690   29.2820   51.2610 N   0  0  0  0  0  0  0  0  0  0  0  0
   37.6440   30.3360   52.3640 H   0  0  0  0  0  0  0  0  0  0  0  0
   38.4920   31.5690   50.3900 H   0  0  0  0  0  0  0  0  0  0  0  0
   37.5630   31.3510   47.8500 C   0  0  0  0  0  3  0  0  0  0  0  0
   38.4950   30.8450   47.0570 C   0  0  0  0  0  3  0  0  0  0  0  0
   38.8680   31.6460   45.8540 C   0  0  0  0  0  2  0  0  0  0  0  0
   38.8900   32.7120   46.1350 H   0  0  0  0  0  0  0  0  0  0  0  0
  1  3  1  0  0  0  0
  1 16  1  0  0  0  0
  2  1  1  0  0  0  0
  4  7  1  0  0  0  0
  4  1  1  0  0  0  0
  4  6  1  0  0  0  0
  5  4  1  0  0  0  0
  7  8  1  0  0  0  0
  8  9  2  0  0  0  0
  8 13  1  0  0  0  0
  9 14  1  0  0  0  0
 10  9  1  0  0  0  0
 11 10  2  0  0  0  0
 12 11  1  0  0  0  0
 12  7  2  0  0  0  0
 15 11  1  0  0  0  0
 16 21  1  0  0  0  0
 17 23  1  0  0  0  0
 18 24  1  0  0  0  0
 18 17  2  0  0  0  0
 19 18  1  0  0  0  0
 20 19  2  0  0  0  0
 20 21  1  0  0  0  0
 21 22  2  0  0  0  0
 22 17  1  0  0  0  0
 25 19  1  0  0  0  0
 26 25  2  0  0  0  0
 27 28  1  0  0  0  0
 27 26  1  0  0  0  0
M  END
>  <minimizedAffinity>
-4.95758247

>  <minimizedRMSD>
0.506064951

$$$$
