
 OpenBabel03272502293D

 18 18  0  0  0  0  0  0  0  0999 V2000
   37.4090   30.2410   51.3240 C   0  0  0  0  0  0  0  0  0  0  0  0
   37.9490   30.5410   50.0720 C   0  0  0  0  0  0  0  0  0  0  0  0
   37.2710   30.1380   48.9380 C   0  0  0  0  0  0  0  0  0  0  0  0
   36.0970   29.4580   49.0840 N   0  0  0  0  0  0  0  0  0  0  0  0
   35.5950   29.1790   50.3020 C   0  0  0  0  0  0  0  0  0  0  0  0
   36.2510   29.5700   51.4110 N   0  0  0  0  0  0  0  0  0  0  0  0
   37.9070   30.5380   52.2420 H   0  0  0  0  0  0  0  0  0  0  0  0
   38.8910   31.0880   50.0300 H   0  0  0  0  0  0  0  0  0  0  0  0
   34.6520   28.6340   50.3600 H   0  0  0  0  0  0  0  0  0  0  0  0
   37.7800   30.4200   47.6310 C   0  0  0  0  0  3  0  0  0  0  0  0
   38.8180   31.1900   47.4280 C   0  0  0  0  0  3  0  0  0  0  0  0
   39.3690   31.5010   46.0730 C   0  0  0  0  0  0  0  0  0  0  0  0
   40.0850   30.6990   45.8310 H   0  0  0  0  0  0  0  0  0  0  0  0
   38.5070   31.3870   45.3650 H   0  0  0  0  0  0  0  0  0  0  0  0
   39.9200   32.8600   45.9980 C   0  0  0  0  0  3  0  0  0  0  0  0
   40.0500   33.6220   44.9150 C   0  0  0  0  0  3  0  0  0  0  0  0
   39.5930   33.0570   43.6230 C   0  0  0  0  0  2  0  0  0  0  0  0
   38.4810   33.2080   43.5120 H   0  0  0  0  0  0  0  0  0  0  0  0
  1  6  1  0  0  0  0
  1  7  1  0  0  0  0
  2  1  2  0  0  0  0
  3  4  2  0  0  0  0
  3  2  1  0  0  0  0
  4  5  1  0  0  0  0
  5  9  1  0  0  0  0
  5  6  2  0  0  0  0
  8  2  1  0  0  0  0
 10  3  1  0  0  0  0
 11 10  2  0  0  0  0
 12 11  1  0  0  0  0
 13 12  1  0  0  0  0
 14 12  1  0  0  0  0
 15 12  1  0  0  0  0
 16 15  2  0  0  0  0
 17 16  1  0  0  0  0
 18 17  1  0  0  0  0
M  END
>  <minimizedAffinity>
-4.609972

>  <minimizedRMSD>
0.847761393

$$$$
