
 OpenBabel03272502323D

 22 22  0  0  1  0  0  0  0  0999 V2000
   37.6520   22.0290   34.7300 C   0  0  0  0  0  3  0  0  0  0  0  0
   38.9520   22.2910   34.7250 C   0  0  0  0  0  3  0  0  0  0  0  0
   35.1210   20.1870   32.7180 C   0  0  0  0  0  0  0  0  0  0  0  0
   35.8130   20.7470   33.8010 C   0  0  0  0  0  0  0  0  0  0  0  0
   36.9800   21.4490   33.6020 C   0  0  0  0  0  0  0  0  0  0  0  0
   37.4370   21.5820   32.3220 N   0  0  0  0  0  0  0  0  0  0  0  0
   36.7660   21.0460   31.3090 C   0  0  0  0  0  0  0  0  0  0  0  0
   35.6150   20.3490   31.4950 N   0  0  0  0  0  0  0  0  0  0  0  0
   34.1830   19.6240   32.8360 H   0  0  0  0  0  0  0  0  0  0  0  0
   35.3180   20.5500   34.7320 H   0  0  0  0  0  0  0  0  0  0  0  0
   37.1180   21.1460   30.2800 H   0  0  0  0  0  0  0  0  0  0  0  0
   39.5340   22.8070   35.9850 C   0  0  1  0  0  0  0  0  0  0  0  0
   39.3620   21.8780   36.7520 H   0  0  0  0  0  0  0  0  0  0  0  0
   40.9240   23.0580   36.0860 C   0  0  0  0  0  3  0  0  0  0  0  0
   41.9810   22.4670   36.6040 C   0  0  0  0  0  3  0  0  0  0  0  0
   41.9810   21.1790   37.3260 C   0  0  0  0  0  2  0  0  0  0  0  0
   43.0350   20.8900   37.5100 H   0  0  0  0  0  0  0  0  0  0  0  0
   38.3880   24.0490   36.6560 S   0  0  0  0  0  0  0  0  0  0  0  0
   38.1870   23.8430   38.4270 C   0  0  0  0  0  0  0  0  0  0  0  0
   37.9130   25.0470   39.0720 F   0  0  0  0  0  0  0  0  0  0  0  0
   37.2790   22.8580   38.7380 F   0  0  0  0  0  0  0  0  0  0  0  0
   39.4410   23.4010   38.9270 F   0  0  0  0  0  0  0  0  0  0  0  0
  2  1  2  0  0  0  0
  2 12  1  0  0  0  0
  3  9  1  0  0  0  0
  3  4  1  0  0  0  0
  4 10  1  0  0  0  0
  5  4  2  0  0  0  0
  5  1  1  0  0  0  0
  6  5  1  0  0  0  0
  7  8  1  0  0  0  0
  7  6  2  0  0  0  0
  8  3  2  0  0  0  0
 11  7  1  0  0  0  0
 12 14  1  0  0  0  0
 12 18  1  0  0  0  0
 12 13  1  1  0  0  0
 14 15  2  0  0  0  0
 15 16  1  0  0  0  0
 16 17  1  0  0  0  0
 18 19  1  0  0  0  0
 19 21  1  0  0  0  0
 19 22  1  0  0  0  0
 19 20  1  0  0  0  0
M  END
>  <minimizedAffinity>
-4.73961449

$$$$

 OpenBabel03272502323D

 22 22  0  0  1  0  0  0  0  0999 V2000
   37.9740   22.2540   34.4720 C   0  0  0  0  0  3  0  0  0  0  0  0
   36.8650   21.5800   34.1970 C   0  0  0  0  0  3  0  0  0  0  0  0
   40.0890   22.5990   37.5140 C   0  0  0  0  0  0  0  0  0  0  0  0
   39.6610   22.2880   36.2150 C   0  0  0  0  0  0  0  0  0  0  0  0
   38.3730   22.5640   35.8150 C   0  0  0  0  0  0  0  0  0  0  0  0
   37.5320   23.1470   36.7190 N   0  0  0  0  0  0  0  0  0  0  0  0
   37.9570   23.4340   37.9440 C   0  0  0  0  0  0  0  0  0  0  0  0
   39.2250   23.1650   38.3500 N   0  0  0  0  0  0  0  0  0  0  0  0
   41.1110   22.3980   37.8690 H   0  0  0  0  0  0  0  0  0  0  0  0
   40.4440   21.8380   35.6370 H   0  0  0  0  0  0  0  0  0  0  0  0
   37.2960   23.9030   38.6770 H   0  0  0  0  0  0  0  0  0  0  0  0
   36.6170   21.2530   32.7750 C   0  0  1  0  0  0  0  0  0  0  0  0
   37.3630   20.3090   32.5890 H   0  0  0  0  0  0  0  0  0  0  0  0
   35.3580   20.7580   32.3590 C   0  0  0  0  0  3  0  0  0  0  0  0
   34.7600   19.5890   32.2580 C   0  0  0  0  0  3  0  0  0  0  0  0
   35.3520   18.2840   32.6170 C   0  0  0  0  0  2  0  0  0  0  0  0
   34.5550   17.5170   32.5520 H   0  0  0  0  0  0  0  0  0  0  0  0
   37.4080   22.5420   31.7640 S   0  0  0  0  0  0  0  0  0  0  0  0
   36.4270   24.0440   31.7600 C   0  0  0  0  0  0  0  0  0  0  0  0
   35.0590   23.7830   31.7500 F   0  0  0  0  0  0  0  0  0  0  0  0
   36.7940   24.9090   32.7650 F   0  0  0  0  0  0  0  0  0  0  0  0
   36.7140   24.7100   30.5380 F   0  0  0  0  0  0  0  0  0  0  0  0
  1  5  1  0  0  0  0
  2  1  2  0  0  0  0
  3  9  1  0  0  0  0
  3  8  1  0  0  0  0
  4  3  2  0  0  0  0
  5  4  1  0  0  0  0
  5  6  2  0  0  0  0
  6  7  1  0  0  0  0
  7  8  2  0  0  0  0
  7 11  1  0  0  0  0
 10  4  1  0  0  0  0
 12 13  1  6  0  0  0
 12  2  1  0  0  0  0
 14 12  1  0  0  0  0
 15 14  2  0  0  0  0
 15 16  1  0  0  0  0
 17 16  1  0  0  0  0
 18 12  1  0  0  0  0
 19 18  1  0  0  0  0
 19 21  1  0  0  0  0
 20 19  1  0  0  0  0
 22 19  1  0  0  0  0
M  END
>  <minimizedAffinity>
-4.60363579

$$$$

 OpenBabel03272502323D

 22 22  0  0  1  0  0  0  0  0999 V2000
   37.7170   22.4820   34.6740 C   0  0  0  0  0  3  0  0  0  0  0  0
   38.0940   21.7100   33.6630 C   0  0  0  0  0  3  0  0  0  0  0  0
   40.5570   22.2290   37.0660 C   0  0  0  0  0  0  0  0  0  0  0  0
   39.7720   22.1100   35.9090 C   0  0  0  0  0  0  0  0  0  0  0  0
   38.4860   22.5990   35.8810 C   0  0  0  0  0  0  0  0  0  0  0  0
   38.0030   23.2000   37.0070 N   0  0  0  0  0  0  0  0  0  0  0  0
   38.7620   23.3030   38.0920 C   0  0  0  0  0  0  0  0  0  0  0  0
   40.0320   22.8230   38.1320 N   0  0  0  0  0  0  0  0  0  0  0  0
   41.5900   21.8560   37.1260 H   0  0  0  0  0  0  0  0  0  0  0  0
   40.3030   21.6160   35.1190 H   0  0  0  0  0  0  0  0  0  0  0  0
   38.3900   23.7830   39.0000 H   0  0  0  0  0  0  0  0  0  0  0  0
   37.2540   21.7480   32.4450 C   0  0  1  0  0  0  0  0  0  0  0  0
   36.1810   22.1260   32.8790 H   0  0  0  0  0  0  0  0  0  0  0  0
   37.5290   22.6740   31.4100 C   0  0  0  0  0  3  0  0  0  0  0  0
   36.9370   23.7110   30.8540 C   0  0  0  0  0  3  0  0  0  0  0  0
   35.6210   24.2610   31.2370 C   0  0  0  0  0  2  0  0  0  0  0  0
   35.4710   25.2080   30.6810 H   0  0  0  0  0  0  0  0  0  0  0  0
   36.8720   20.0320   31.9810 S   0  0  0  0  0  0  0  0  0  0  0  0
   35.3210   19.5010   32.7100 C   0  0  0  0  0  0  0  0  0  0  0  0
   34.2350   20.2320   32.2350 F   0  0  0  0  0  0  0  0  0  0  0  0
   35.1330   18.1430   32.6030 F   0  0  0  0  0  0  0  0  0  0  0  0
   35.4120   19.7810   34.1000 F   0  0  0  0  0  0  0  0  0  0  0  0
  1  5  1  0  0  0  0
  2  1  2  0  0  0  0
  3  9  1  0  0  0  0
  3  8  1  0  0  0  0
  4  3  2  0  0  0  0
  5  4  1  0  0  0  0
  5  6  2  0  0  0  0
  6  7  1  0  0  0  0
  7  8  2  0  0  0  0
  7 11  1  0  0  0  0
 10  4  1  0  0  0  0
 12 13  1  1  0  0  0
 12  2  1  0  0  0  0
 14 12  1  0  0  0  0
 15 16  1  0  0  0  0
 15 14  2  0  0  0  0
 17 16  1  0  0  0  0
 18 12  1  0  0  0  0
 18 19  1  0  0  0  0
 19 22  1  0  0  0  0
 20 19  1  0  0  0  0
 21 19  1  0  0  0  0
M  END
>  <minimizedAffinity>
-4.43718672

$$$$

 OpenBabel03272502323D

 22 22  0  0  1  0  0  0  0  0999 V2000
   38.1070   22.3260   34.5440 C   0  0  0  0  0  3  0  0  0  0  0  0
   37.8040   22.4340   35.8310 C   0  0  0  0  0  3  0  0  0  0  0  0
   35.3920   20.1830   33.1700 C   0  0  0  0  0  0  0  0  0  0  0  0
   36.1400   21.0020   34.0300 C   0  0  0  0  0  0  0  0  0  0  0  0
   37.3760   21.4720   33.6500 C   0  0  0  0  0  0  0  0  0  0  0  0
   37.8470   21.1180   32.4190 N   0  0  0  0  0  0  0  0  0  0  0  0
   37.1230   20.3430   31.6200 C   0  0  0  0  0  0  0  0  0  0  0  0
   35.9020   19.8720   31.9840 N   0  0  0  0  0  0  0  0  0  0  0  0
   34.3980   19.7920   33.4360 H   0  0  0  0  0  0  0  0  0  0  0  0
   35.6250   21.1830   34.9530 H   0  0  0  0  0  0  0  0  0  0  0  0
   37.4850   20.0540   30.6310 H   0  0  0  0  0  0  0  0  0  0  0  0
   38.5820   23.4150   36.6200 C   0  0  1  0  0  0  0  0  0  0  0  0
   37.7170   23.9750   37.2670 H   0  0  0  0  0  0  0  0  0  0  0  0
   39.4960   22.9800   37.6090 C   0  0  0  0  0  3  0  0  0  0  0  0
   40.6360   22.3210   37.6550 C   0  0  0  0  0  3  0  0  0  0  0  0
   41.3710   21.7870   36.4900 C   0  0  0  0  0  2  0  0  0  0  0  0
   42.3520   21.4150   36.8450 H   0  0  0  0  0  0  0  0  0  0  0  0
   39.1070   24.7420   35.4930 S   0  0  0  0  0  0  0  0  0  0  0  0
   38.3630   26.3080   35.9570 C   0  0  0  0  0  0  0  0  0  0  0  0
   39.2050   27.3880   35.7070 F   0  0  0  0  0  0  0  0  0  0  0  0
   37.1130   26.4730   35.4090 F   0  0  0  0  0  0  0  0  0  0  0  0
   38.1780   26.2650   37.3650 F   0  0  0  0  0  0  0  0  0  0  0  0
  1  2  2  0  0  0  0
  2 12  1  0  0  0  0
  3  9  1  0  0  0  0
  3  4  1  0  0  0  0
  4 10  1  0  0  0  0
  5  4  2  0  0  0  0
  5  1  1  0  0  0  0
  6  5  1  0  0  0  0
  7  8  1  0  0  0  0
  7  6  2  0  0  0  0
  8  3  2  0  0  0  0
 11  7  1  0  0  0  0
 12 13  1  1  0  0  0
 12 14  1  0  0  0  0
 14 15  2  0  0  0  0
 16 17  1  0  0  0  0
 16 15  1  0  0  0  0
 18 19  1  0  0  0  0
 18 12  1  0  0  0  0
 19 22  1  0  0  0  0
 20 19  1  0  0  0  0
 21 19  1  0  0  0  0
M  END
>  <minimizedAffinity>
-4.41733837

$$$$

 OpenBabel03272502323D

 22 22  0  0  1  0  0  0  0  0999 V2000
   37.7840   22.4570   34.7720 C   0  0  0  0  0  3  0  0  0  0  0  0
   38.7760   23.2730   34.4430 C   0  0  0  0  0  3  0  0  0  0  0  0
   37.5240   20.1250   31.8830 C   0  0  0  0  0  0  0  0  0  0  0  0
   38.0090   21.0860   32.7820 C   0  0  0  0  0  0  0  0  0  0  0  0
   37.2490   21.4880   33.8570 C   0  0  0  0  0  0  0  0  0  0  0  0
   36.0160   20.9240   34.0170 N   0  0  0  0  0  0  0  0  0  0  0  0
   35.5750   20.0160   33.1550 C   0  0  0  0  0  0  0  0  0  0  0  0
   36.3160   19.6120   32.0900 N   0  0  0  0  0  0  0  0  0  0  0  0
   38.1030   19.7750   31.0150 H   0  0  0  0  0  0  0  0  0  0  0  0
   38.9900   21.4230   32.5110 H   0  0  0  0  0  0  0  0  0  0  0  0
   34.5920   19.5540   33.2720 H   0  0  0  0  0  0  0  0  0  0  0  0
   39.2890   24.1630   35.5080 C   0  0  1  0  0  0  0  0  0  0  0  0
   39.9860   23.4110   36.1640 H   0  0  0  0  0  0  0  0  0  0  0  0
   40.1680   25.2280   35.1950 C   0  0  0  0  0  3  0  0  0  0  0  0
   40.0900   26.4190   34.6380 C   0  0  0  0  0  3  0  0  0  0  0  0
   38.8590   27.0490   34.1180 C   0  0  0  0  0  2  0  0  0  0  0  0
   39.0980   28.0960   33.8460 H   0  0  0  0  0  0  0  0  0  0  0  0
   37.9230   24.4910   36.6630 S   0  0  0  0  0  0  0  0  0  0  0  0
   38.3180   23.8940   38.3080 C   0  0  0  0  0  0  0  0  0  0  0  0
   39.5400   23.2260   38.3500 F   0  0  0  0  0  0  0  0  0  0  0  0
   38.2230   24.8830   39.2580 F   0  0  0  0  0  0  0  0  0  0  0  0
   37.3270   22.9290   38.6360 F   0  0  0  0  0  0  0  0  0  0  0  0
  2  1  2  0  0  0  0
  2 12  1  0  0  0  0
  3  8  2  0  0  0  0
  3  4  1  0  0  0  0
  4  5  2  0  0  0  0
  5  6  1  0  0  0  0
  5  1  1  0  0  0  0
  7 11  1  0  0  0  0
  7  6  2  0  0  0  0
  8  7  1  0  0  0  0
  9  3  1  0  0  0  0
 10  4  1  0  0  0  0
 12 13  1  1  0  0  0
 12 18  1  0  0  0  0
 14 12  1  0  0  0  0
 15 14  2  0  0  0  0
 16 15  1  0  0  0  0
 17 16  1  0  0  0  0
 18 19  1  0  0  0  0
 19 20  1  0  0  0  0
 19 22  1  0  0  0  0
 19 21  1  0  0  0  0
M  END
>  <minimizedAffinity>
-4.3951993

$$$$

 OpenBabel03272502323D

 22 22  0  0  1  0  0  0  0  0999 V2000
   38.0220   25.3290   34.6310 C   0  0  0  0  0  3  0  0  0  0  0  0
   38.0450   24.0050   34.5500 C   0  0  0  0  0  3  0  0  0  0  0  0
   36.2760   28.2740   33.1730 C   0  0  0  0  0  0  0  0  0  0  0  0
   36.9870   27.4460   34.0550 C   0  0  0  0  0  0  0  0  0  0  0  0
   37.2730   26.1430   33.7160 C   0  0  0  0  0  0  0  0  0  0  0  0
   36.8460   25.6870   32.5030 N   0  0  0  0  0  0  0  0  0  0  0  0
   36.1750   26.4870   31.6820 C   0  0  0  0  0  0  0  0  0  0  0  0
   35.8850   27.7740   32.0060 N   0  0  0  0  0  0  0  0  0  0  0  0
   36.0320   29.3210   33.4050 H   0  0  0  0  0  0  0  0  0  0  0  0
   37.2460   27.9600   34.9590 H   0  0  0  0  0  0  0  0  0  0  0  0
   35.8290   26.1370   30.7070 H   0  0  0  0  0  0  0  0  0  0  0  0
   38.7870   23.2850   35.6090 C   0  0  1  0  0  0  0  0  0  0  0  0
   38.8280   22.1490   35.1720 H   0  0  0  0  0  0  0  0  0  0  0  0
   40.1470   23.5820   35.8650 C   0  0  0  0  0  3  0  0  0  0  0  0
   41.1590   23.0280   36.5010 C   0  0  0  0  0  3  0  0  0  0  0  0
   41.1220   21.7410   37.2240 C   0  0  0  0  0  2  0  0  0  0  0  0
   42.1580   21.4880   37.5260 H   0  0  0  0  0  0  0  0  0  0  0  0
   37.6710   23.0860   37.0310 S   0  0  0  0  0  0  0  0  0  0  0  0
   38.1060   24.2210   38.3500 C   0  0  0  0  0  0  0  0  0  0  0  0
   39.1820   23.7660   39.1080 F   0  0  0  0  0  0  0  0  0  0  0  0
   38.2870   25.5060   37.8930 F   0  0  0  0  0  0  0  0  0  0  0  0
   36.9900   24.2650   39.2300 F   0  0  0  0  0  0  0  0  0  0  0  0
  2  1  2  0  0  0  0
  2 12  1  0  0  0  0
  3  9  1  0  0  0  0
  3  4  1  0  0  0  0
  4 10  1  0  0  0  0
  5  4  2  0  0  0  0
  5  1  1  0  0  0  0
  6  5  1  0  0  0  0
  7  8  1  0  0  0  0
  7  6  2  0  0  0  0
  8  3  2  0  0  0  0
 11  7  1  0  0  0  0
 12 13  1  6  0  0  0
 12 14  1  0  0  0  0
 12 18  1  0  0  0  0
 14 15  2  0  0  0  0
 15 16  1  0  0  0  0
 16 17  1  0  0  0  0
 18 19  1  0  0  0  0
 19 20  1  0  0  0  0
 19 22  1  0  0  0  0
 21 19  1  0  0  0  0
M  END
>  <minimizedAffinity>
-4.31148815

$$$$

 OpenBabel03272502323D

 22 22  0  0  1  0  0  0  0  0999 V2000
   35.5880   29.1440   34.0110 C   0  0  0  0  0  3  0  0  0  0  0  0
   36.5830   28.3730   34.4270 C   0  0  0  0  0  3  0  0  0  0  0  0
   35.4460   32.0510   36.3300 C   0  0  0  0  0  0  0  0  0  0  0  0
   35.9250   30.9810   35.5600 C   0  0  0  0  0  0  0  0  0  0  0  0
   35.0630   30.2180   34.8060 C   0  0  0  0  0  0  0  0  0  0  0  0
   33.7350   30.5360   34.8330 N   0  0  0  0  0  0  0  0  0  0  0  0
   33.3020   31.5530   35.5680 C   0  0  0  0  0  0  0  0  0  0  0  0
   34.1440   32.3120   36.3170 N   0  0  0  0  0  0  0  0  0  0  0  0
   36.1040   32.6870   36.9410 H   0  0  0  0  0  0  0  0  0  0  0  0
   36.9880   30.8710   35.6520 H   0  0  0  0  0  0  0  0  0  0  0  0
   32.2440   31.8210   35.5970 H   0  0  0  0  0  0  0  0  0  0  0  0
   37.0850   27.3580   33.4730 C   0  0  1  0  0  0  0  0  0  0  0  0
   36.0650   27.0000   32.9130 H   0  0  0  0  0  0  0  0  0  0  0  0
   37.9290   27.7340   32.4000 C   0  0  0  0  0  3  0  0  0  0  0  0
   37.7920   28.1610   31.1610 C   0  0  0  0  0  3  0  0  0  0  0  0
   36.5090   28.3950   30.4670 C   0  0  0  0  0  2  0  0  0  0  0  0
   36.7290   28.8810   29.4960 H   0  0  0  0  0  0  0  0  0  0  0  0
   37.5180   25.8700   34.4230 S   0  0  0  0  0  0  0  0  0  0  0  0
   38.8660   26.2060   35.5600 C   0  0  0  0  0  0  0  0  0  0  0  0
   39.6050   25.0640   35.8550 F   0  0  0  0  0  0  0  0  0  0  0  0
   39.6530   27.2520   35.1400 F   0  0  0  0  0  0  0  0  0  0  0  0
   38.2700   26.6210   36.7810 F   0  0  0  0  0  0  0  0  0  0  0  0
  1  2  2  0  0  0  0
  1  5  1  0  0  0  0
  3  9  1  0  0  0  0
  4 10  1  0  0  0  0
  4  3  2  0  0  0  0
  5  6  2  0  0  0  0
  5  4  1  0  0  0  0
  6  7  1  0  0  0  0
  7 11  1  0  0  0  0
  7  8  2  0  0  0  0
  8  3  1  0  0  0  0
 12 13  1  6  0  0  0
 12 18  1  0  0  0  0
 12  2  1  0  0  0  0
 14 12  1  0  0  0  0
 15 14  2  0  0  0  0
 16 15  1  0  0  0  0
 17 16  1  0  0  0  0
 18 19  1  0  0  0  0
 19 20  1  0  0  0  0
 19 22  1  0  0  0  0
 21 19  1  0  0  0  0
M  END
>  <minimizedAffinity>
-4.22332668

$$$$

 OpenBabel03272502323D

 22 22  0  0  1  0  0  0  0  0999 V2000
   37.7710   25.6800   35.6690 C   0  0  0  0  0  3  0  0  0  0  0  0
   37.7370   25.6530   34.3430 C   0  0  0  0  0  3  0  0  0  0  0  0
   38.6440   23.4210   38.4950 C   0  0  0  0  0  0  0  0  0  0  0  0
   38.0180   24.4100   37.7220 C   0  0  0  0  0  0  0  0  0  0  0  0
   38.4480   24.6770   36.4420 C   0  0  0  0  0  0  0  0  0  0  0  0
   39.4970   23.9530   35.9540 N   0  0  0  0  0  0  0  0  0  0  0  0
   40.0760   23.0200   36.7010 C   0  0  0  0  0  0  0  0  0  0  0  0
   39.6600   22.7490   37.9660 N   0  0  0  0  0  0  0  0  0  0  0  0
   38.3260   23.1750   39.5190 H   0  0  0  0  0  0  0  0  0  0  0  0
   37.2140   24.8800   38.2540 H   0  0  0  0  0  0  0  0  0  0  0  0
   40.9140   22.4310   36.3230 H   0  0  0  0  0  0  0  0  0  0  0  0
   37.0780   26.7950   33.6690 C   0  0  1  0  0  0  0  0  0  0  0  0
   35.9960   26.3280   33.3630 H   0  0  0  0  0  0  0  0  0  0  0  0
   36.7340   27.9590   34.3970 C   0  0  0  0  0  3  0  0  0  0  0  0
   35.8940   28.9660   34.2760 C   0  0  0  0  0  3  0  0  0  0  0  0
   34.9390   29.1640   33.1670 C   0  0  0  0  0  2  0  0  0  0  0  0
   34.2850   30.0190   33.4270 H   0  0  0  0  0  0  0  0  0  0  0  0
   37.8580   27.0010   32.0400 S   0  0  0  0  0  0  0  0  0  0  0  0
   39.6430   27.1110   32.1930 C   0  0  0  0  0  0  0  0  0  0  0  0
   40.2200   27.8290   31.1490 F   0  0  0  0  0  0  0  0  0  0  0  0
   40.0320   27.5700   33.4300 F   0  0  0  0  0  0  0  0  0  0  0  0
   40.1400   25.7840   32.0860 F   0  0  0  0  0  0  0  0  0  0  0  0
  1  5  1  0  0  0  0
  2  1  2  0  0  0  0
  3  9  1  0  0  0  0
  4 10  1  0  0  0  0
  4  3  2  0  0  0  0
  5  4  1  0  0  0  0
  6  5  2  0  0  0  0
  6  7  1  0  0  0  0
  7  8  2  0  0  0  0
  8  3  1  0  0  0  0
 11  7  1  0  0  0  0
 12 13  1  6  0  0  0
 12  2  1  0  0  0  0
 12 14  1  0  0  0  0
 15 14  2  0  0  0  0
 16 17  1  0  0  0  0
 16 15  1  0  0  0  0
 18 19  1  0  0  0  0
 18 12  1  0  0  0  0
 19 21  1  0  0  0  0
 20 19  1  0  0  0  0
 22 19  1  0  0  0  0
M  END
>  <minimizedAffinity>
-4.19399595

$$$$

 OpenBabel03272502323D

 22 22  0  0  1  0  0  0  0  0999 V2000
   38.3890   24.7460   34.7050 C   0  0  0  0  0  3  0  0  0  0  0  0
   37.6990   25.8510   34.4540 C   0  0  0  0  0  3  0  0  0  0  0  0
   39.8010   22.8710   37.5920 C   0  0  0  0  0  0  0  0  0  0  0  0
   39.6030   23.3800   36.3000 C   0  0  0  0  0  0  0  0  0  0  0  0
   38.5500   24.2250   36.0330 C   0  0  0  0  0  0  0  0  0  0  0  0
   37.7110   24.5480   37.0600 N   0  0  0  0  0  0  0  0  0  0  0  0
   37.9150   24.0570   38.2760 C   0  0  0  0  0  0  0  0  0  0  0  0
   38.9510   23.2210   38.5510 N   0  0  0  0  0  0  0  0  0  0  0  0
   40.6330   22.1980   37.8470 H   0  0  0  0  0  0  0  0  0  0  0  0
   40.3500   23.0280   35.6170 H   0  0  0  0  0  0  0  0  0  0  0  0
   37.2540   24.3090   39.1080 H   0  0  0  0  0  0  0  0  0  0  0  0
   37.5390   26.2290   33.0320 C   0  0  1  0  0  0  0  0  0  0  0  0
   36.3470   26.0610   32.8500 H   0  0  0  0  0  0  0  0  0  0  0  0
   37.7450   27.5670   32.6150 C   0  0  0  0  0  3  0  0  0  0  0  0
   37.3860   28.3350   31.6080 C   0  0  0  0  0  3  0  0  0  0  0  0
   36.5330   27.9280   30.4730 C   0  0  0  0  0  2  0  0  0  0  0  0
   36.3020   28.8320   29.8760 H   0  0  0  0  0  0  0  0  0  0  0  0
   38.2510   24.8970   32.0200 S   0  0  0  0  0  0  0  0  0  0  0  0
   36.9590   23.9120   31.2570 C   0  0  0  0  0  0  0  0  0  0  0  0
   36.0010   24.6970   30.6210 F   0  0  0  0  0  0  0  0  0  0  0  0
   37.4670   22.9300   30.4400 F   0  0  0  0  0  0  0  0  0  0  0  0
   36.2850   23.2410   32.3140 F   0  0  0  0  0  0  0  0  0  0  0  0
  1  5  1  0  0  0  0
  2  1  2  0  0  0  0
  3  9  1  0  0  0  0
  3  8  1  0  0  0  0
  4  3  2  0  0  0  0
  5  4  1  0  0  0  0
  5  6  2  0  0  0  0
  6  7  1  0  0  0  0
  7  8  2  0  0  0  0
  7 11  1  0  0  0  0
 10  4  1  0  0  0  0
 12 13  1  6  0  0  0
 12  2  1  0  0  0  0
 14 12  1  0  0  0  0
 15 14  2  0  0  0  0
 16 15  1  0  0  0  0
 17 16  1  0  0  0  0
 18 12  1  0  0  0  0
 19 18  1  0  0  0  0
 19 22  1  0  0  0  0
 20 19  1  0  0  0  0
 21 19  1  0  0  0  0
M  END
>  <minimizedAffinity>
-4.11402416

$$$$
