
 OpenBabel03262520323D

 18 18  0  0  0  0  0  0  0  0999 V2000
   37.3610   30.2570   51.4580 C   0  0  0  0  0  0  0  0  0  0  0  0
   38.1290   30.7750   50.4010 C   0  0  0  0  0  0  0  0  0  0  0  0
   37.7620   30.4500   49.0700 C   0  0  0  0  0  0  0  0  0  0  0  0
   36.6680   29.6430   48.9090 N   0  0  0  0  0  0  0  0  0  0  0  0
   35.9670   29.1730   49.9660 C   0  0  0  0  0  0  0  0  0  0  0  0
   36.3100   29.4770   51.2120 N   0  0  0  0  0  0  0  0  0  0  0  0
   37.5930   30.4700   52.4930 H   0  0  0  0  0  0  0  0  0  0  0  0
   38.9740   31.4020   50.6020 H   0  0  0  0  0  0  0  0  0  0  0  0
   38.3290   30.8310   48.2330 H   0  0  0  0  0  0  0  0  0  0  0  0
   34.8300   28.3270   49.6590 C   0  0  0  0  0  3  0  0  0  0  0  0
   34.4790   28.1630   48.4220 C   0  0  0  0  0  3  0  0  0  0  0  0
   33.3750   27.3650   47.8600 C   0  0  0  0  0  0  0  0  0  0  0  0
   32.4530   27.9890   47.8830 H   0  0  0  0  0  0  0  0  0  0  0  0
   33.2460   26.4830   48.5480 H   0  0  0  0  0  0  0  0  0  0  0  0
   33.6900   26.8270   46.5160 C   0  0  0  0  0  3  0  0  0  0  0  0
   33.9400   25.5710   46.2420 C   0  0  0  0  0  3  0  0  0  0  0  0
   33.9160   24.5660   47.3330 C   0  0  0  0  0  2  0  0  0  0  0  0
   33.0910   24.6810   48.0480 H   0  0  0  0  0  0  0  0  0  0  0  0
  1  7  1  0  0  0  0
  2  8  1  0  0  0  0
  2  1  2  0  0  0  0
  3  2  1  0  0  0  0
  4  3  2  0  0  0  0
  4  5  1  0  0  0  0
  5  6  2  0  0  0  0
  6  1  1  0  0  0  0
  9  3  1  0  0  0  0
 10  5  1  0  0  0  0
 11 10  2  0  0  0  0
 12 13  1  0  0  0  0
 12 11  1  0  0  0  0
 12 14  1  0  0  0  0
 15 12  1  0  0  0  0
 16 15  2  0  0  0  0
 16 17  1  0  0  0  0
 17 18  1  0  0  0  0
M  END
>  <minimizedAffinity>
-4.18681479

>  <minimizedRMSD>
0.836747646

$$$$
