
 OpenBabel03272509403D

 30 31  0  0  1  0  0  0  0  0999 V2000
   37.0760   30.9550   49.0570 C   0  0  0  0  0  0  0  0  0  0  0  0
   36.8310   31.9210   50.0420 C   0  0  0  0  0  0  0  0  0  0  0  0
   37.4380   33.1580   50.0600 C   0  0  0  0  0  0  0  0  0  0  0  0
   38.3450   33.4780   49.0540 C   0  0  0  0  0  0  0  0  0  0  0  0
   38.5850   32.5380   48.0930 C   0  0  0  0  0  0  0  0  0  0  0  0
   37.9670   31.3210   48.1020 C   0  0  0  0  0  0  0  0  0  0  0  0
   36.1470   31.7400   50.8450 H   0  0  0  0  0  0  0  0  0  0  0  0
   37.2300   33.8830   50.8330 H   0  0  0  0  0  0  0  0  0  0  0  0
   38.8070   34.4500   49.0870 H   0  0  0  0  0  0  0  0  0  0  0  0
   39.3040   32.8680   47.3460 H   0  0  0  0  0  0  0  0  0  0  0  0
   36.3830   29.6880   49.1340 C   0  0  2  0  0  3  0  0  0  0  0  0
   36.9170   28.8440   49.9530 O   0  0  0  0  0  1  0  0  0  0  0  0
   33.6140   30.1460   46.8440 C   0  0  0  0  0  0  0  0  0  0  0  0
   32.9530   28.9200   46.8680 C   0  0  0  0  0  0  0  0  0  0  0  0
   33.4600   27.9240   47.6770 C   0  0  0  0  0  0  0  0  0  0  0  0
   34.5720   28.1720   48.4130 N   0  0  0  0  0  0  0  0  0  0  0  0
   35.1930   29.3360   48.3850 C   0  0  0  0  0  0  0  0  0  0  0  0
   34.6970   30.3200   47.5900 N   0  0  0  0  0  0  0  0  0  0  0  0
   33.1810   30.8980   46.1950 H   0  0  0  0  0  0  0  0  0  0  0  0
   32.0710   28.7210   46.2850 H   0  0  0  0  0  0  0  0  0  0  0  0
   32.9840   26.9590   47.7290 H   0  0  0  0  0  0  0  0  0  0  0  0
   38.3250   30.4260   47.0110 C   0  0  0  0  0  3  0  0  0  0  0  0
   38.8720   30.7780   45.8630 C   0  0  0  0  0  3  0  0  0  0  0  0
   39.2870   30.0120   44.6860 C   0  0  0  0  0  0  0  0  0  0  0  0
   38.9650   28.9400   44.8320 H   0  0  0  0  0  0  0  0  0  0  0  0
   40.3650   30.0510   44.4530 H   0  0  0  0  0  0  0  0  0  0  0  0
   38.4930   30.4650   43.4950 C   0  0  0  0  0  3  0  0  0  0  0  0
   37.1640   30.4550   43.4900 C   0  0  0  0  0  3  0  0  0  0  0  0
   36.3390   30.8930   42.3370 C   0  0  0  0  0  2  0  0  0  0  0  0
   36.8750   30.7570   41.3640 H   0  0  0  0  0  0  0  0  0  0  0  0
  1 11  1  0  0  0  0
  1  2  1  0  0  0  0
  2  3  2  0  0  0  0
  2  7  1  0  0  0  0
  3  8  1  0  0  0  0
  4  9  1  0  0  0  0
  4  3  1  0  0  0  0
  5  6  1  0  0  0  0
  5  4  2  0  0  0  0
  6  1  2  0  0  0  0
 10  5  1  0  0  0  0
 11 12  1  6  0  0  0
 13 14  2  0  0  0  0
 13 18  1  0  0  0  0
 14 15  1  0  0  0  0
 15 21  1  0  0  0  0
 15 16  2  0  0  0  0
 17 16  1  0  0  0  0
 17 11  1  0  0  0  0
 18 17  2  0  0  0  0
 19 13  1  0  0  0  0
 20 14  1  0  0  0  0
 22  6  1  0  0  0  0
 23 22  2  0  0  0  0
 24 25  1  0  0  0  0
 24 23  1  0  0  0  0
 26 24  1  0  0  0  0
 27 24  1  0  0  0  0
 28 27  2  0  0  0  0
 29 28  1  0  0  0  0
 30 29  1  0  0  0  0
M  END
>  <minimizedAffinity>
-5.33350945

>  <minimizedRMSD>
0.122668564

$$$$
