
 OpenBabel03272509403D

 30 31  0  0  1  0  0  0  0  0999 V2000
   37.0760   30.9560   49.0630 C   0  0  0  0  0  0  0  0  0  0  0  0
   36.8320   31.9200   50.0500 C   0  0  0  0  0  0  0  0  0  0  0  0
   37.4370   33.1580   50.0670 C   0  0  0  0  0  0  0  0  0  0  0  0
   38.3410   33.4810   49.0590 C   0  0  0  0  0  0  0  0  0  0  0  0
   38.5790   32.5420   48.0960 C   0  0  0  0  0  0  0  0  0  0  0  0
   37.9620   31.3230   48.1060 C   0  0  0  0  0  0  0  0  0  0  0  0
   36.1500   31.7380   50.8550 H   0  0  0  0  0  0  0  0  0  0  0  0
   37.2310   33.8820   50.8410 H   0  0  0  0  0  0  0  0  0  0  0  0
   38.8020   34.4530   49.0910 H   0  0  0  0  0  0  0  0  0  0  0  0
   39.2950   32.8730   47.3470 H   0  0  0  0  0  0  0  0  0  0  0  0
   36.3840   29.6880   49.1420 C   0  0  2  0  0  3  0  0  0  0  0  0
   36.9200   28.8460   49.9620 O   0  0  0  0  0  1  0  0  0  0  0  0
   33.6110   30.1400   46.8560 C   0  0  0  0  0  0  0  0  0  0  0  0
   32.9550   28.9120   46.8780 C   0  0  0  0  0  0  0  0  0  0  0  0
   33.4670   27.9160   47.6840 C   0  0  0  0  0  0  0  0  0  0  0  0
   34.5790   28.1660   48.4190 N   0  0  0  0  0  0  0  0  0  0  0  0
   35.1950   29.3320   48.3940 C   0  0  0  0  0  0  0  0  0  0  0  0
   34.6940   30.3160   47.6010 N   0  0  0  0  0  0  0  0  0  0  0  0
   33.1750   30.8920   46.2100 H   0  0  0  0  0  0  0  0  0  0  0  0
   32.0730   28.7110   46.2950 H   0  0  0  0  0  0  0  0  0  0  0  0
   32.9940   26.9490   47.7340 H   0  0  0  0  0  0  0  0  0  0  0  0
   38.3190   30.4300   47.0140 C   0  0  0  0  0  3  0  0  0  0  0  0
   38.8890   30.7790   45.8770 C   0  0  0  0  0  3  0  0  0  0  0  0
   39.3060   30.0140   44.6990 C   0  0  0  0  0  0  0  0  0  0  0  0
   39.5800   28.9720   45.0360 H   0  0  0  0  0  0  0  0  0  0  0  0
   40.1360   30.4520   44.1210 H   0  0  0  0  0  0  0  0  0  0  0  0
   38.1200   29.7990   43.8030 C   0  0  0  0  0  3  0  0  0  0  0  0
   37.3100   30.7930   43.4550 C   0  0  0  0  0  3  0  0  0  0  0  0
   36.1290   30.6250   42.5730 C   0  0  0  0  0  2  0  0  0  0  0  0
   35.7060   29.5910   42.6330 H   0  0  0  0  0  0  0  0  0  0  0  0
  1 11  1  0  0  0  0
  1  2  1  0  0  0  0
  2  3  2  0  0  0  0
  2  7  1  0  0  0  0
  3  8  1  0  0  0  0
  4  9  1  0  0  0  0
  4  3  1  0  0  0  0
  5  6  1  0  0  0  0
  5  4  2  0  0  0  0
  6  1  2  0  0  0  0
 10  5  1  0  0  0  0
 11 12  1  6  0  0  0
 13 14  2  0  0  0  0
 13 18  1  0  0  0  0
 14 15  1  0  0  0  0
 15 21  1  0  0  0  0
 15 16  2  0  0  0  0
 17 16  1  0  0  0  0
 17 11  1  0  0  0  0
 18 17  2  0  0  0  0
 19 13  1  0  0  0  0
 20 14  1  0  0  0  0
 22  6  1  0  0  0  0
 23 22  2  0  0  0  0
 24 25  1  0  0  0  0
 24 23  1  0  0  0  0
 26 24  1  0  0  0  0
 27 24  1  0  0  0  0
 28 27  2  0  0  0  0
 29 30  1  0  0  0  0
 29 28  1  0  0  0  0
M  END
>  <minimizedAffinity>
-5.35195398

>  <minimizedRMSD>
0.74416554

$$$$
