
 OpenBabel03272509403D

 30 31  0  0  1  0  0  0  0  0999 V2000
   37.0680   30.9530   49.0540 C   0  0  0  0  0  0  0  0  0  0  0  0
   36.8300   31.9050   50.0540 C   0  0  0  0  0  0  0  0  0  0  0  0
   37.4370   33.1420   50.0840 C   0  0  0  0  0  0  0  0  0  0  0  0
   38.3360   33.4770   49.0760 C   0  0  0  0  0  0  0  0  0  0  0  0
   38.5680   32.5500   48.1000 C   0  0  0  0  0  0  0  0  0  0  0  0
   37.9510   31.3330   48.0970 C   0  0  0  0  0  0  0  0  0  0  0  0
   36.1520   31.7130   50.8600 H   0  0  0  0  0  0  0  0  0  0  0  0
   37.2350   33.8560   50.8690 H   0  0  0  0  0  0  0  0  0  0  0  0
   38.7980   34.4480   49.1180 H   0  0  0  0  0  0  0  0  0  0  0  0
   39.2810   32.8900   47.3520 H   0  0  0  0  0  0  0  0  0  0  0  0
   36.3760   29.6850   49.1190 C   0  0  2  0  0  3  0  0  0  0  0  0
   36.9110   28.8340   49.9300 O   0  0  0  0  0  1  0  0  0  0  0  0
   33.6080   30.1610   46.8310 C   0  0  0  0  0  0  0  0  0  0  0  0
   32.9460   28.9350   46.8470 C   0  0  0  0  0  0  0  0  0  0  0  0
   33.4520   27.9340   47.6500 C   0  0  0  0  0  0  0  0  0  0  0  0
   34.5640   28.1750   48.3870 N   0  0  0  0  0  0  0  0  0  0  0  0
   35.1860   29.3380   48.3680 C   0  0  0  0  0  0  0  0  0  0  0  0
   34.6910   30.3280   47.5790 N   0  0  0  0  0  0  0  0  0  0  0  0
   33.1760   30.9170   46.1870 H   0  0  0  0  0  0  0  0  0  0  0  0
   32.0640   28.7410   46.2620 H   0  0  0  0  0  0  0  0  0  0  0  0
   32.9750   26.9680   47.6950 H   0  0  0  0  0  0  0  0  0  0  0  0
   38.3010   30.4530   46.9920 C   0  0  0  0  0  3  0  0  0  0  0  0
   38.9020   30.8100   45.8730 C   0  0  0  0  0  3  0  0  0  0  0  0
   39.3180   30.0590   44.6860 C   0  0  0  0  0  0  0  0  0  0  0  0
   38.6710   29.1370   44.6090 H   0  0  0  0  0  0  0  0  0  0  0  0
   40.3830   29.7730   44.6570 H   0  0  0  0  0  0  0  0  0  0  0  0
   38.9680   30.8440   43.4550 C   0  0  0  0  0  3  0  0  0  0  0  0
   38.4200   32.0530   43.5220 C   0  0  0  0  0  3  0  0  0  0  0  0
   38.0590   32.8620   42.3320 C   0  0  0  0  0  2  0  0  0  0  0  0
   37.8260   32.2210   41.4460 H   0  0  0  0  0  0  0  0  0  0  0  0
  1 11  1  0  0  0  0
  1  2  1  0  0  0  0
  2  3  2  0  0  0  0
  2  7  1  0  0  0  0
  3  8  1  0  0  0  0
  4  9  1  0  0  0  0
  4  3  1  0  0  0  0
  5  4  2  0  0  0  0
  6  5  1  0  0  0  0
  6  1  2  0  0  0  0
 10  5  1  0  0  0  0
 11 12  1  6  0  0  0
 13 14  2  0  0  0  0
 13 18  1  0  0  0  0
 14 15  1  0  0  0  0
 15 21  1  0  0  0  0
 15 16  2  0  0  0  0
 17 16  1  0  0  0  0
 17 11  1  0  0  0  0
 18 17  2  0  0  0  0
 19 13  1  0  0  0  0
 20 14  1  0  0  0  0
 22  6  1  0  0  0  0
 23 22  2  0  0  0  0
 24 23  1  0  0  0  0
 25 24  1  0  0  0  0
 26 24  1  0  0  0  0
 27 28  2  0  0  0  0
 27 24  1  0  0  0  0
 29 28  1  0  0  0  0
 30 29  1  0  0  0  0
M  END
>  <minimizedAffinity>
-5.44562674

>  <minimizedRMSD>
0.906405628

$$$$
