
 OpenBabel03272509403D

 30 31  0  0  1  0  0  0  0  0999 V2000
   37.0730   30.9520   49.0530 C   0  0  0  0  0  0  0  0  0  0  0  0
   36.8360   31.9170   50.0420 C   0  0  0  0  0  0  0  0  0  0  0  0
   37.4460   33.1530   50.0560 C   0  0  0  0  0  0  0  0  0  0  0  0
   38.3450   33.4730   49.0440 C   0  0  0  0  0  0  0  0  0  0  0  0
   38.5760   32.5340   48.0790 C   0  0  0  0  0  0  0  0  0  0  0  0
   37.9560   31.3180   48.0920 C   0  0  0  0  0  0  0  0  0  0  0  0
   36.1580   31.7370   50.8500 H   0  0  0  0  0  0  0  0  0  0  0  0
   37.2450   33.8770   50.8320 H   0  0  0  0  0  0  0  0  0  0  0  0
   38.8100   34.4440   49.0740 H   0  0  0  0  0  0  0  0  0  0  0  0
   39.2890   32.8630   47.3270 H   0  0  0  0  0  0  0  0  0  0  0  0
   36.3780   29.6860   49.1340 C   0  0  1  0  0  3  0  0  0  0  0  0
   36.9090   28.8450   49.9580 O   0  0  0  0  0  1  0  0  0  0  0  0
   33.6040   30.1430   46.8490 C   0  0  0  0  0  0  0  0  0  0  0  0
   32.9490   28.9140   46.8680 C   0  0  0  0  0  0  0  0  0  0  0  0
   33.4610   27.9160   47.6730 C   0  0  0  0  0  0  0  0  0  0  0  0
   34.5730   28.1650   48.4080 N   0  0  0  0  0  0  0  0  0  0  0  0
   35.1890   29.3320   48.3850 C   0  0  0  0  0  0  0  0  0  0  0  0
   34.6870   30.3170   47.5950 N   0  0  0  0  0  0  0  0  0  0  0  0
   33.1680   30.8950   46.2040 H   0  0  0  0  0  0  0  0  0  0  0  0
   32.0670   28.7130   46.2850 H   0  0  0  0  0  0  0  0  0  0  0  0
   32.9890   26.9490   47.7200 H   0  0  0  0  0  0  0  0  0  0  0  0
   38.3040   30.4230   46.9970 C   0  0  0  0  0  3  0  0  0  0  0  0
   38.8930   30.7680   45.8680 C   0  0  0  0  0  3  0  0  0  0  0  0
   39.3050   30.0010   44.6900 C   0  0  0  0  0  0  0  0  0  0  0  0
   38.5170   29.2200   44.4850 H   0  0  0  0  0  0  0  0  0  0  0  0
   40.2970   29.5240   44.7600 H   0  0  0  0  0  0  0  0  0  0  0  0
   39.2530   30.8880   43.4790 C   0  0  0  0  0  3  0  0  0  0  0  0
   39.2550   32.2130   43.5750 C   0  0  0  0  0  3  0  0  0  0  0  0
   39.2030   33.1260   42.4080 C   0  0  0  0  0  2  0  0  0  0  0  0
   38.6840   32.6580   41.5330 H   0  0  0  0  0  0  0  0  0  0  0  0
  1 11  1  0  0  0  0
  1  2  1  0  0  0  0
  2  3  2  0  0  0  0
  2  7  1  0  0  0  0
  3  8  1  0  0  0  0
  4  9  1  0  0  0  0
  4  3  1  0  0  0  0
  5  6  1  0  0  0  0
  5  4  2  0  0  0  0
  6  1  2  0  0  0  0
 10  5  1  0  0  0  0
 11 12  1  1  0  0  0
 13 14  2  0  0  0  0
 13 18  1  0  0  0  0
 14 15  1  0  0  0  0
 15 21  1  0  0  0  0
 15 16  2  0  0  0  0
 17 16  1  0  0  0  0
 17 11  1  0  0  0  0
 18 17  2  0  0  0  0
 19 13  1  0  0  0  0
 20 14  1  0  0  0  0
 22  6  1  0  0  0  0
 23 22  2  0  0  0  0
 24 26  1  0  0  0  0
 24 23  1  0  0  0  0
 25 24  1  0  0  0  0
 27 28  2  0  0  0  0
 27 24  1  0  0  0  0
 29 28  1  0  0  0  0
 30 29  1  0  0  0  0
M  END
>  <minimizedAffinity>
-5.53679037

>  <minimizedRMSD>
0.612491488

$$$$
