
 OpenBabel03272509403D

 30 31  0  0  1  0  0  0  0  0999 V2000
   37.0730   30.9530   49.0530 C   0  0  0  0  0  0  0  0  0  0  0  0
   36.8360   31.9180   50.0410 C   0  0  0  0  0  0  0  0  0  0  0  0
   37.4460   33.1530   50.0560 C   0  0  0  0  0  0  0  0  0  0  0  0
   38.3460   33.4740   49.0440 C   0  0  0  0  0  0  0  0  0  0  0  0
   38.5770   32.5340   48.0800 C   0  0  0  0  0  0  0  0  0  0  0  0
   37.9560   31.3180   48.0920 C   0  0  0  0  0  0  0  0  0  0  0  0
   36.1580   31.7370   50.8490 H   0  0  0  0  0  0  0  0  0  0  0  0
   37.2450   33.8780   50.8310 H   0  0  0  0  0  0  0  0  0  0  0  0
   38.8100   34.4440   49.0740 H   0  0  0  0  0  0  0  0  0  0  0  0
   39.2910   32.8640   47.3280 H   0  0  0  0  0  0  0  0  0  0  0  0
   36.3780   29.6870   49.1330 C   0  0  1  0  0  3  0  0  0  0  0  0
   36.9090   28.8460   49.9570 O   0  0  0  0  0  1  0  0  0  0  0  0
   33.6050   30.1440   46.8470 C   0  0  0  0  0  0  0  0  0  0  0  0
   32.9490   28.9150   46.8670 C   0  0  0  0  0  0  0  0  0  0  0  0
   33.4610   27.9180   47.6720 C   0  0  0  0  0  0  0  0  0  0  0  0
   34.5720   28.1670   48.4070 N   0  0  0  0  0  0  0  0  0  0  0  0
   35.1890   29.3330   48.3840 C   0  0  0  0  0  0  0  0  0  0  0  0
   34.6880   30.3180   47.5930 N   0  0  0  0  0  0  0  0  0  0  0  0
   33.1700   30.8960   46.2020 H   0  0  0  0  0  0  0  0  0  0  0  0
   32.0680   28.7150   46.2840 H   0  0  0  0  0  0  0  0  0  0  0  0
   32.9880   26.9510   47.7200 H   0  0  0  0  0  0  0  0  0  0  0  0
   38.3050   30.4240   46.9980 C   0  0  0  0  0  3  0  0  0  0  0  0
   38.8930   30.7680   45.8680 C   0  0  0  0  0  3  0  0  0  0  0  0
   39.3060   30.0020   44.6900 C   0  0  0  0  0  0  0  0  0  0  0  0
   38.5170   29.2200   44.4850 H   0  0  0  0  0  0  0  0  0  0  0  0
   40.2980   29.5250   44.7600 H   0  0  0  0  0  0  0  0  0  0  0  0
   39.2530   30.8880   43.4790 C   0  0  0  0  0  3  0  0  0  0  0  0
   39.2550   32.2140   43.5750 C   0  0  0  0  0  3  0  0  0  0  0  0
   39.2030   33.1260   42.4080 C   0  0  0  0  0  2  0  0  0  0  0  0
   38.6850   32.6580   41.5330 H   0  0  0  0  0  0  0  0  0  0  0  0
  1 11  1  0  0  0  0
  1  2  1  0  0  0  0
  2  3  2  0  0  0  0
  2  7  1  0  0  0  0
  3  8  1  0  0  0  0
  4  9  1  0  0  0  0
  4  3  1  0  0  0  0
  5  6  1  0  0  0  0
  5  4  2  0  0  0  0
  6  1  2  0  0  0  0
 10  5  1  0  0  0  0
 11 12  1  1  0  0  0
 13 14  2  0  0  0  0
 13 18  1  0  0  0  0
 14 15  1  0  0  0  0
 15 21  1  0  0  0  0
 15 16  2  0  0  0  0
 17 16  1  0  0  0  0
 17 11  1  0  0  0  0
 18 17  2  0  0  0  0
 19 13  1  0  0  0  0
 20 14  1  0  0  0  0
 22  6  1  0  0  0  0
 23 22  2  0  0  0  0
 24 26  1  0  0  0  0
 24 23  1  0  0  0  0
 25 24  1  0  0  0  0
 27 28  2  0  0  0  0
 27 24  1  0  0  0  0
 29 28  1  0  0  0  0
 30 29  1  0  0  0  0
M  END
>  <minimizedAffinity>
-5.54234028

>  <minimizedRMSD>
0.585045099

$$$$
