
 OpenBabel03272502293D

 18 18  0  0  0  0  0  0  0  0999 V2000
   37.4070   30.2780   51.3520 C   0  0  0  0  0  0  0  0  0  0  0  0
   38.0730   30.8010   50.2420 C   0  0  0  0  0  0  0  0  0  0  0  0
   37.6500   30.4400   48.9790 C   0  0  0  0  0  0  0  0  0  0  0  0
   36.5950   29.5820   48.8610 N   0  0  0  0  0  0  0  0  0  0  0  0
   35.9680   29.0890   49.9470 C   0  0  0  0  0  0  0  0  0  0  0  0
   36.3750   29.4380   51.1810 N   0  0  0  0  0  0  0  0  0  0  0  0
   37.7050   30.5350   52.3650 H   0  0  0  0  0  0  0  0  0  0  0  0
   38.9070   31.4830   50.4110 H   0  0  0  0  0  0  0  0  0  0  0  0
   35.1310   28.4070   49.7940 H   0  0  0  0  0  0  0  0  0  0  0  0
   38.2960   30.9470   47.8070 C   0  0  0  0  0  3  0  0  0  0  0  0
   38.8500   32.1310   47.7630 C   0  0  0  0  0  3  0  0  0  0  0  0
   39.5310   32.6850   46.5530 C   0  0  0  0  0  0  0  0  0  0  0  0
   39.7350   33.7480   46.7630 H   0  0  0  0  0  0  0  0  0  0  0  0
   40.5270   32.1700   46.5060 H   0  0  0  0  0  0  0  0  0  0  0  0
   38.7650   32.4370   45.3240 C   0  0  0  0  0  3  0  0  0  0  0  0
   39.1720   31.7920   44.2350 C   0  0  0  0  0  3  0  0  0  0  0  0
   40.5530   31.2530   44.2330 C   0  0  0  0  0  2  0  0  0  0  0  0
   40.5700   30.2500   44.7490 H   0  0  0  0  0  0  0  0  0  0  0  0
  1  7  1  0  0  0  0
  2  8  1  0  0  0  0
  2  1  2  0  0  0  0
  3  2  1  0  0  0  0
  4  3  2  0  0  0  0
  4  5  1  0  0  0  0
  5  6  2  0  0  0  0
  6  1  1  0  0  0  0
  9  5  1  0  0  0  0
 10  3  1  0  0  0  0
 11 10  2  0  0  0  0
 12 13  1  0  0  0  0
 12 11  1  0  0  0  0
 14 12  1  0  0  0  0
 15 12  1  0  0  0  0
 16 15  2  0  0  0  0
 17 16  1  0  0  0  0
 17 18  1  0  0  0  0
M  END
>  <minimizedAffinity>
-4.48061609

>  <minimizedRMSD>
1.24895906

$$$$
