
 OpenBabel03272502293D

 18 18  0  0  0  0  0  0  0  0999 V2000
   37.4290   30.3090   51.2730 C   0  0  0  0  0  0  0  0  0  0  0  0
   37.9800   30.6220   50.0290 C   0  0  0  0  0  0  0  0  0  0  0  0
   37.3470   30.1750   48.8870 C   0  0  0  0  0  0  0  0  0  0  0  0
   36.2030   29.4410   49.0160 N   0  0  0  0  0  0  0  0  0  0  0  0
   35.6900   29.1510   50.2270 C   0  0  0  0  0  0  0  0  0  0  0  0
   36.3020   29.5850   51.3440 N   0  0  0  0  0  0  0  0  0  0  0  0
   37.8920   30.6400   52.1980 H   0  0  0  0  0  0  0  0  0  0  0  0
   38.8960   31.2130   50.0010 H   0  0  0  0  0  0  0  0  0  0  0  0
   34.7730   28.5610   50.2710 H   0  0  0  0  0  0  0  0  0  0  0  0
   37.8690   30.4670   47.5870 C   0  0  0  0  0  3  0  0  0  0  0  0
   38.9360   31.2010   47.4030 C   0  0  0  0  0  3  0  0  0  0  0  0
   39.5020   31.5220   46.0570 C   0  0  0  0  0  0  0  0  0  0  0  0
   40.2710   30.7610   45.8470 H   0  0  0  0  0  0  0  0  0  0  0  0
   38.6660   31.3440   45.3300 H   0  0  0  0  0  0  0  0  0  0  0  0
   39.9730   32.9110   45.9710 C   0  0  0  0  0  3  0  0  0  0  0  0
   40.0440   33.6750   44.8860 C   0  0  0  0  0  3  0  0  0  0  0  0
   39.6050   33.0800   43.5990 C   0  0  0  0  0  2  0  0  0  0  0  0
   38.4850   33.1670   43.5030 H   0  0  0  0  0  0  0  0  0  0  0  0
  1  6  1  0  0  0  0
  1  7  1  0  0  0  0
  2  1  2  0  0  0  0
  3  4  2  0  0  0  0
  3  2  1  0  0  0  0
  4  5  1  0  0  0  0
  5  9  1  0  0  0  0
  5  6  2  0  0  0  0
  8  2  1  0  0  0  0
 10  3  1  0  0  0  0
 11 10  2  0  0  0  0
 12 11  1  0  0  0  0
 13 12  1  0  0  0  0
 14 12  1  0  0  0  0
 15 12  1  0  0  0  0
 16 15  2  0  0  0  0
 17 16  1  0  0  0  0
 18 17  1  0  0  0  0
M  END
>  <minimizedAffinity>
-4.59534645

>  <minimizedRMSD>
0.857674301

$$$$
