
 OpenBabel03272510043D

 32 33  0  0  0  0  0  0  0  0999 V2000
   37.3600   30.1310   44.4250 C   0  0  0  0  0  0  0  0  0  0  0  0
   36.1680   29.5010   44.2460 C   0  0  0  0  0  0  0  0  0  0  0  0
   35.9470   28.7620   43.0900 C   0  0  0  0  0  0  0  0  0  0  0  0
   36.8990   28.6360   42.0960 C   0  0  0  0  0  0  0  0  0  0  0  0
   38.1090   29.2600   42.2420 C   0  0  0  0  0  0  0  0  0  0  0  0
   38.2960   29.9810   43.3960 C   0  0  0  0  0  0  0  0  0  0  0  0
   34.9740   28.2610   42.9730 H   0  0  0  0  0  0  0  0  0  0  0  0
   36.6280   28.0450   41.2530 H   0  0  0  0  0  0  0  0  0  0  0  0
   38.8260   29.1410   41.4450 H   0  0  0  0  0  0  0  0  0  0  0  0
   39.2960   30.4350   43.3950 H   0  0  0  0  0  0  0  0  0  0  0  0
   32.9980   30.5290   45.7960 C   0  0  0  0  0  0  0  0  0  0  0  0
   34.0420   30.3880   44.8930 C   0  0  0  0  0  0  0  0  0  0  0  0
   35.1150   29.6090   45.1970 C   0  0  0  0  0  0  0  0  0  0  0  0
   35.1070   28.9860   46.4080 N   0  0  0  0  0  0  0  0  0  0  0  0
   34.1020   29.1150   47.2810 C   0  0  0  0  0  0  0  0  0  0  0  0
   33.0570   29.8870   46.9700 N   0  0  0  0  0  0  0  0  0  0  0  0
   32.0910   31.0950   45.7230 H   0  0  0  0  0  0  0  0  0  0  0  0
   33.7310   30.9580   44.0500 H   0  0  0  0  0  0  0  0  0  0  0  0
   34.1970   28.3220   48.5350 C   0  0  0  0  0  0  0  0  0  0  0  0
   33.1220   28.5480   49.3720 F   0  0  0  0  0  0  0  0  0  0  0  0
   34.0450   26.9210   48.2040 F   0  0  0  0  0  0  0  0  0  0  0  0
   35.3360   28.3590   49.1890 F   0  0  0  0  0  0  0  0  0  0  0  0
   37.7650   31.0390   45.8210 S   0  0  0  0  0  0  0  0  0  0  0  0
   37.8540   32.4910   45.5210 O   0  0  0  0  0  0  0  0  0  0  0  0
   39.2570   30.7780   45.8360 O   0  0  0  0  0  0  0  0  0  0  0  0
   37.7650   30.5490   47.4450 C   0  0  0  0  0  0  0  0  0  0  0  0
   38.7550   30.2110   47.8020 H   0  0  0  0  0  0  0  0  0  0  0  0
   37.2270   29.5180   47.4230 H   0  0  0  0  0  0  0  0  0  0  0  0
   36.9320   31.2800   48.3850 C   0  0  0  0  0  3  0  0  0  0  0  0
   36.8720   31.4300   49.7040 C   0  0  0  0  0  3  0  0  0  0  0  0
   37.8920   30.6870   50.4920 C   0  0  0  0  0  2  0  0  0  0  0  0
   37.5630   29.6100   50.5340 H   0  0  0  0  0  0  0  0  0  0  0  0
  1 23  1  0  0  0  0
  2  1  1  0  0  0  0
  2 13  1  0  0  0  0
  3  2  2  0  0  0  0
  4  5  2  0  0  0  0
  4  3  1  0  0  0  0
  5  6  1  0  0  0  0
  6  1  2  0  0  0  0
  7  3  1  0  0  0  0
  8  4  1  0  0  0  0
  9  5  1  0  0  0  0
 10  6  1  0  0  0  0
 11 16  1  0  0  0  0
 12 13  1  0  0  0  0
 12 11  2  0  0  0  0
 13 14  2  0  0  0  0
 14 15  1  0  0  0  0
 15 19  1  0  0  0  0
 16 15  2  0  0  0  0
 17 11  1  0  0  0  0
 18 12  1  0  0  0  0
 19 22  1  0  0  0  0
 19 20  1  0  0  0  0
 21 19  1  0  0  0  0
 23 25  2  0  0  0  0
 23 26  1  0  0  0  0
 24 23  2  0  0  0  0
 26 27  1  0  0  0  0
 26 29  1  0  0  0  0
 28 26  1  0  0  0  0
 29 30  2  0  0  0  0
 30 31  1  0  0  0  0
 31 32  1  0  0  0  0
M  END
>  <minimizedAffinity>
-4.64431143

>  <minimizedRMSD>
4.52405977

$$$$
