
 OpenBabel03272509473D

 20 20  0  0  0  0  0  0  0  0999 V2000
   34.7290   28.3020   49.7750 O   0  0  0  0  0  0  0  0  0  0  0  0
   37.3310   30.2190   51.4180 C   0  0  0  0  0  0  0  0  0  0  0  0
   38.0500   30.6580   50.3070 C   0  0  0  0  0  0  0  0  0  0  0  0
   37.6150   30.2800   49.0440 C   0  0  0  0  0  0  0  0  0  0  0  0
   36.4980   29.4940   48.9730 N   0  0  0  0  0  0  0  0  0  0  0  0
   35.8310   29.0910   50.0710 C   0  0  0  0  0  0  0  0  0  0  0  0
   36.2630   29.4640   51.2940 N   0  0  0  0  0  0  0  0  0  0  0  0
   37.6880   30.5260   52.4020 H   0  0  0  0  0  0  0  0  0  0  0  0
   38.9430   31.2880   50.3750 H   0  0  0  0  0  0  0  0  0  0  0  0
   38.1310   30.5900   48.1580 H   0  0  0  0  0  0  0  0  0  0  0  0
   34.2000   28.3870   48.4750 C   0  0  0  0  0  0  0  0  0  0  0  0
   34.9370   28.8500   47.7710 H   0  0  0  0  0  0  0  0  0  0  0  0
   33.2570   28.9790   48.5190 H   0  0  0  0  0  0  0  0  0  0  0  0
   33.8810   27.0230   47.9180 C   0  0  0  0  0  0  0  0  0  0  0  0
   34.8100   26.4300   47.7970 H   0  0  0  0  0  0  0  0  0  0  0  0
   33.1730   26.5400   48.6500 H   0  0  0  0  0  0  0  0  0  0  0  0
   33.1490   27.1800   46.6310 C   0  0  0  0  0  3  0  0  0  0  0  0
   32.0800   27.9540   46.4290 C   0  0  0  0  0  3  0  0  0  0  0  0
   31.3230   28.1360   45.1530 C   0  0  0  0  0  2  0  0  0  0  0  0
   32.0390   28.0880   44.2820 H   0  0  0  0  0  0  0  0  0  0  0  0
  1  6  1  0  0  0  0
  2  8  1  0  0  0  0
  3  9  1  0  0  0  0
  3  2  2  0  0  0  0
  4  3  1  0  0  0  0
  5  4  2  0  0  0  0
  5  6  1  0  0  0  0
  6  7  2  0  0  0  0
  7  2  1  0  0  0  0
 10  4  1  0  0  0  0
 11 13  1  0  0  0  0
 11  1  1  0  0  0  0
 12 11  1  0  0  0  0
 14 11  1  0  0  0  0
 14 16  1  0  0  0  0
 15 14  1  0  0  0  0
 17 14  1  0  0  0  0
 18 17  2  0  0  0  0
 19 18  1  0  0  0  0
 20 19  1  0  0  0  0
M  END
>  <minimizedAffinity>
-3.491853

>  <minimizedRMSD>
0.374175668

$$$$
