
 OpenBabel03272509473D

 20 20  0  0  0  0  0  0  0  0999 V2000
   34.7260   28.3030   49.8260 O   0  0  0  0  0  0  0  0  0  0  0  0
   37.3510   30.2340   51.4140 C   0  0  0  0  0  0  0  0  0  0  0  0
   38.0550   30.6620   50.2900 C   0  0  0  0  0  0  0  0  0  0  0  0
   37.6030   30.2720   49.0370 C   0  0  0  0  0  0  0  0  0  0  0  0
   36.4850   29.4860   48.9890 N   0  0  0  0  0  0  0  0  0  0  0  0
   35.8330   29.0940   50.1000 C   0  0  0  0  0  0  0  0  0  0  0  0
   36.2810   29.4780   51.3130 N   0  0  0  0  0  0  0  0  0  0  0  0
   37.7230   30.5500   52.3910 H   0  0  0  0  0  0  0  0  0  0  0  0
   38.9500   31.2920   50.3390 H   0  0  0  0  0  0  0  0  0  0  0  0
   38.1070   30.5730   48.1410 H   0  0  0  0  0  0  0  0  0  0  0  0
   34.1420   28.4210   48.5530 C   0  0  0  0  0  0  0  0  0  0  0  0
   34.8290   28.9490   47.8440 H   0  0  0  0  0  0  0  0  0  0  0  0
   33.1750   28.9650   48.6600 H   0  0  0  0  0  0  0  0  0  0  0  0
   33.8630   27.0700   47.9460 C   0  0  0  0  0  0  0  0  0  0  0  0
   34.7760   26.4420   47.9670 H   0  0  0  0  0  0  0  0  0  0  0  0
   33.0320   26.6140   48.5560 H   0  0  0  0  0  0  0  0  0  0  0  0
   33.3460   27.2550   46.5620 C   0  0  0  0  0  3  0  0  0  0  0  0
   32.1560   27.7640   46.2320 C   0  0  0  0  0  3  0  0  0  0  0  0
   31.6070   27.9640   44.8570 C   0  0  0  0  0  2  0  0  0  0  0  0
   32.4470   28.2390   44.1550 H   0  0  0  0  0  0  0  0  0  0  0  0
  1  6  1  0  0  0  0
  2  8  1  0  0  0  0
  3  9  1  0  0  0  0
  3  2  2  0  0  0  0
  4  3  1  0  0  0  0
  5  4  2  0  0  0  0
  5  6  1  0  0  0  0
  6  7  2  0  0  0  0
  7  2  1  0  0  0  0
 10  4  1  0  0  0  0
 11 13  1  0  0  0  0
 11  1  1  0  0  0  0
 12 11  1  0  0  0  0
 14 15  1  0  0  0  0
 14 11  1  0  0  0  0
 14 16  1  0  0  0  0
 17 14  1  0  0  0  0
 18 17  2  0  0  0  0
 19 18  1  0  0  0  0
 20 19  1  0  0  0  0
M  END
>  <minimizedAffinity>
-3.4883585

>  <minimizedRMSD>
0.0802081078

$$$$
