
 OpenBabel03272509483D

 20 20  0  0  0  0  0  0  0  0999 V2000
   37.9130   23.1930   34.8110 O   0  0  0  0  0  0  0  0  0  0  0  0
   37.8900   24.1070   38.3190 C   0  0  0  0  0  0  0  0  0  0  0  0
   39.0680   23.4940   38.7400 C   0  0  0  0  0  0  0  0  0  0  0  0
   39.8210   22.7940   37.8070 C   0  0  0  0  0  0  0  0  0  0  0  0
   39.3500   22.7530   36.5240 N   0  0  0  0  0  0  0  0  0  0  0  0
   38.2060   23.3590   36.1570 C   0  0  0  0  0  0  0  0  0  0  0  0
   37.4820   24.0370   37.0720 N   0  0  0  0  0  0  0  0  0  0  0  0
   37.3120   24.6530   39.0670 H   0  0  0  0  0  0  0  0  0  0  0  0
   39.4370   23.5330   39.7700 H   0  0  0  0  0  0  0  0  0  0  0  0
   40.7340   22.3040   38.0780 H   0  0  0  0  0  0  0  0  0  0  0  0
   37.6270   21.8910   34.3640 C   0  0  0  0  0  0  0  0  0  0  0  0
   38.5080   21.2150   34.5090 H   0  0  0  0  0  0  0  0  0  0  0  0
   37.3330   21.9460   33.2900 H   0  0  0  0  0  0  0  0  0  0  0  0
   36.4900   21.2780   35.1390 C   0  0  0  0  0  0  0  0  0  0  0  0
   36.8800   20.6400   35.9570 H   0  0  0  0  0  0  0  0  0  0  0  0
   35.8790   22.1370   35.5390 H   0  0  0  0  0  0  0  0  0  0  0  0
   35.6190   20.5130   34.2040 C   0  0  0  0  0  3  0  0  0  0  0  0
   35.3950   20.8120   32.9220 C   0  0  0  0  0  3  0  0  0  0  0  0
   34.5300   20.0670   31.9580 C   0  0  0  0  0  2  0  0  0  0  0  0
   34.5870   18.9620   32.1800 H   0  0  0  0  0  0  0  0  0  0  0  0
  1  6  1  0  0  0  0
  2  3  1  0  0  0  0
  2  8  1  0  0  0  0
  3  9  1  0  0  0  0
  4 10  1  0  0  0  0
  4  3  2  0  0  0  0
  5  4  1  0  0  0  0
  6  5  2  0  0  0  0
  6  7  1  0  0  0  0
  7  2  2  0  0  0  0
 11 12  1  0  0  0  0
 11  1  1  0  0  0  0
 11 14  1  0  0  0  0
 13 11  1  0  0  0  0
 14 16  1  0  0  0  0
 14 15  1  0  0  0  0
 17 14  1  0  0  0  0
 18 17  2  0  0  0  0
 19 20  1  0  0  0  0
 19 18  1  0  0  0  0
M  END
>  <minimizedAffinity>
-3.77029157

$$$$

 OpenBabel03272509483D

 20 20  0  0  0  0  0  0  0  0999 V2000
   37.8610   24.9090   35.0950 O   0  0  0  0  0  0  0  0  0  0  0  0
   38.6400   23.3870   38.2910 C   0  0  0  0  0  0  0  0  0  0  0  0
   39.8550   22.7780   37.9840 C   0  0  0  0  0  0  0  0  0  0  0  0
   40.3570   22.9130   36.6960 C   0  0  0  0  0  0  0  0  0  0  0  0
   39.6170   23.6430   35.8070 N   0  0  0  0  0  0  0  0  0  0  0  0
   38.4460   24.2160   36.1450 C   0  0  0  0  0  0  0  0  0  0  0  0
   37.9680   24.0780   37.3990 N   0  0  0  0  0  0  0  0  0  0  0  0
   38.2610   23.2690   39.3080 H   0  0  0  0  0  0  0  0  0  0  0  0
   40.4400   22.1960   38.7030 H   0  0  0  0  0  0  0  0  0  0  0  0
   41.2850   22.4650   36.4070 H   0  0  0  0  0  0  0  0  0  0  0  0
   37.4550   26.2330   35.3370 C   0  0  0  0  0  0  0  0  0  0  0  0
   36.7680   26.2870   36.2190 H   0  0  0  0  0  0  0  0  0  0  0  0
   36.9620   26.6220   34.4160 H   0  0  0  0  0  0  0  0  0  0  0  0
   38.6300   27.1210   35.6590 C   0  0  0  0  0  0  0  0  0  0  0  0
   38.2810   28.1320   35.9480 H   0  0  0  0  0  0  0  0  0  0  0  0
   39.1870   26.6170   36.5000 H   0  0  0  0  0  0  0  0  0  0  0  0
   39.5450   27.1620   34.4850 C   0  0  0  0  0  3  0  0  0  0  0  0
   40.8470   26.8640   34.4950 C   0  0  0  0  0  3  0  0  0  0  0  0
   41.7910   26.8950   33.3370 C   0  0  0  0  0  2  0  0  0  0  0  0
   41.2450   26.5840   32.4000 H   0  0  0  0  0  0  0  0  0  0  0  0
  1 11  1  0  0  0  0
  1  6  1  0  0  0  0
  2  8  1  0  0  0  0
  3  2  1  0  0  0  0
  3  9  1  0  0  0  0
  4  3  2  0  0  0  0
  5  6  2  0  0  0  0
  5  4  1  0  0  0  0
  6  7  1  0  0  0  0
  7  2  2  0  0  0  0
 10  4  1  0  0  0  0
 11 14  1  0  0  0  0
 11 12  1  0  0  0  0
 13 11  1  0  0  0  0
 14 15  1  0  0  0  0
 14 16  1  0  0  0  0
 17 18  2  0  0  0  0
 17 14  1  0  0  0  0
 19 18  1  0  0  0  0
 20 19  1  0  0  0  0
M  END
>  <minimizedAffinity>
-3.62407732

$$$$

 OpenBabel03272509483D

 20 20  0  0  0  0  0  0  0  0999 V2000
   38.1570   24.3950   36.9680 O   0  0  0  0  0  0  0  0  0  0  0  0
   40.8270   22.0040   37.5130 C   0  0  0  0  0  0  0  0  0  0  0  0
   41.2420   21.7960   36.1990 C   0  0  0  0  0  0  0  0  0  0  0  0
   40.5910   22.4810   35.1820 C   0  0  0  0  0  0  0  0  0  0  0  0
   39.5760   23.3240   35.5420 N   0  0  0  0  0  0  0  0  0  0  0  0
   39.2060   23.4970   36.8240 C   0  0  0  0  0  0  0  0  0  0  0  0
   39.8450   22.8260   37.8050 N   0  0  0  0  0  0  0  0  0  0  0  0
   41.3500   21.4560   38.2990 H   0  0  0  0  0  0  0  0  0  0  0  0
   42.0560   21.1180   35.9210 H   0  0  0  0  0  0  0  0  0  0  0  0
   40.8700   22.3570   34.1550 H   0  0  0  0  0  0  0  0  0  0  0  0
   37.8850   25.2530   35.8880 C   0  0  0  0  0  0  0  0  0  0  0  0
   36.7860   25.3020   35.6820 H   0  0  0  0  0  0  0  0  0  0  0  0
   38.4470   24.8860   34.9980 H   0  0  0  0  0  0  0  0  0  0  0  0
   38.3260   26.6650   36.1810 C   0  0  0  0  0  0  0  0  0  0  0  0
   37.4440   27.3220   36.3200 H   0  0  0  0  0  0  0  0  0  0  0  0
   38.9570   26.6130   37.1130 H   0  0  0  0  0  0  0  0  0  0  0  0
   39.2040   27.1390   35.0760 C   0  0  0  0  0  3  0  0  0  0  0  0
   40.4430   26.7090   34.8200 C   0  0  0  0  0  3  0  0  0  0  0  0
   41.3490   27.1620   33.7220 C   0  0  0  0  0  2  0  0  0  0  0  0
   40.7360   27.4030   32.8060 H   0  0  0  0  0  0  0  0  0  0  0  0
  2  7  1  0  0  0  0
  2  8  1  0  0  0  0
  3  2  2  0  0  0  0
  4  5  2  0  0  0  0
  4  3  1  0  0  0  0
  5  6  1  0  0  0  0
  6  1  1  0  0  0  0
  6  7  2  0  0  0  0
  9  3  1  0  0  0  0
 10  4  1  0  0  0  0
 11 14  1  0  0  0  0
 11  1  1  0  0  0  0
 12 11  1  0  0  0  0
 13 11  1  0  0  0  0
 14 15  1  0  0  0  0
 14 16  1  0  0  0  0
 17 14  1  0  0  0  0
 18 17  2  0  0  0  0
 19 18  1  0  0  0  0
 20 19  1  0  0  0  0
M  END
>  <minimizedAffinity>
-3.61523342

$$$$

 OpenBabel03272509483D

 20 20  0  0  0  0  0  0  0  0999 V2000
   37.3010   27.3670   33.1340 O   0  0  0  0  0  0  0  0  0  0  0  0
   35.1400   25.4890   30.9100 C   0  0  0  0  0  0  0  0  0  0  0  0
   35.6010   24.1960   31.1550 C   0  0  0  0  0  0  0  0  0  0  0  0
   36.6310   24.0210   32.0690 C   0  0  0  0  0  0  0  0  0  0  0  0
   37.1290   25.1410   32.6750 N   0  0  0  0  0  0  0  0  0  0  0  0
   36.6560   26.3730   32.4110 C   0  0  0  0  0  0  0  0  0  0  0  0
   35.6550   26.5320   31.5210 N   0  0  0  0  0  0  0  0  0  0  0  0
   34.3300   25.6060   30.1880 H   0  0  0  0  0  0  0  0  0  0  0  0
   35.1950   23.3060   30.6640 H   0  0  0  0  0  0  0  0  0  0  0  0
   37.0220   23.0500   32.2930 H   0  0  0  0  0  0  0  0  0  0  0  0
   37.0410   27.4380   34.5140 C   0  0  0  0  0  0  0  0  0  0  0  0
   36.4870   26.5320   34.8660 H   0  0  0  0  0  0  0  0  0  0  0  0
   36.4620   28.3690   34.7140 H   0  0  0  0  0  0  0  0  0  0  0  0
   38.3180   27.4910   35.3140 C   0  0  0  0  0  0  0  0  0  0  0  0
   39.1930   27.3200   34.6550 H   0  0  0  0  0  0  0  0  0  0  0  0
   38.3520   28.5120   35.7910 H   0  0  0  0  0  0  0  0  0  0  0  0
   38.2460   26.4900   36.4140 C   0  0  0  0  0  3  0  0  0  0  0  0
   38.0420   25.1780   36.2670 C   0  0  0  0  0  3  0  0  0  0  0  0
   37.9650   24.1480   37.3470 C   0  0  0  0  0  2  0  0  0  0  0  0
   38.6760   24.4230   38.1780 H   0  0  0  0  0  0  0  0  0  0  0  0
  1 11  1  0  0  0  0
  2  3  2  0  0  0  0
  2  7  1  0  0  0  0
  3  4  1  0  0  0  0
  4 10  1  0  0  0  0
  4  5  2  0  0  0  0
  6  5  1  0  0  0  0
  6  1  1  0  0  0  0
  7  6  2  0  0  0  0
  8  2  1  0  0  0  0
  9  3  1  0  0  0  0
 11 13  1  0  0  0  0
 11 12  1  0  0  0  0
 11 14  1  0  0  0  0
 14 16  1  0  0  0  0
 14 17  1  0  0  0  0
 15 14  1  0  0  0  0
 18 17  2  0  0  0  0
 18 19  1  0  0  0  0
 19 20  1  0  0  0  0
M  END
>  <minimizedAffinity>
-3.59817982

$$$$

 OpenBabel03272509483D

 20 20  0  0  0  0  0  0  0  0999 V2000
   38.3570   24.8380   34.7250 O   0  0  0  0  0  0  0  0  0  0  0  0
   39.7030   22.8710   37.4570 C   0  0  0  0  0  0  0  0  0  0  0  0
   38.8890   23.3110   38.5000 C   0  0  0  0  0  0  0  0  0  0  0  0
   37.9150   24.2610   38.2250 C   0  0  0  0  0  0  0  0  0  0  0  0
   37.8180   24.7060   36.9360 N   0  0  0  0  0  0  0  0  0  0  0  0
   38.6240   24.2560   35.9560 C   0  0  0  0  0  0  0  0  0  0  0  0
   39.5680   23.3330   36.2340 N   0  0  0  0  0  0  0  0  0  0  0  0
   40.4640   22.1250   37.6930 H   0  0  0  0  0  0  0  0  0  0  0  0
   38.9750   22.9470   39.5290 H   0  0  0  0  0  0  0  0  0  0  0  0
   37.2640   24.6320   38.9900 H   0  0  0  0  0  0  0  0  0  0  0  0
   37.5910   26.0170   34.7170 C   0  0  0  0  0  0  0  0  0  0  0  0
   38.1670   26.8730   35.1490 H   0  0  0  0  0  0  0  0  0  0  0  0
   36.6540   25.8290   35.2910 H   0  0  0  0  0  0  0  0  0  0  0  0
   37.2160   26.4220   33.3140 C   0  0  0  0  0  0  0  0  0  0  0  0
   38.0940   26.3380   32.6420 H   0  0  0  0  0  0  0  0  0  0  0  0
   36.3830   25.7320   32.9960 H   0  0  0  0  0  0  0  0  0  0  0  0
   36.6630   27.8040   33.3370 C   0  0  0  0  0  3  0  0  0  0  0  0
   36.2220   28.4530   34.4190 C   0  0  0  0  0  3  0  0  0  0  0  0
   35.6630   29.8370   34.4770 C   0  0  0  0  0  2  0  0  0  0  0  0
   36.1920   30.4870   33.7220 H   0  0  0  0  0  0  0  0  0  0  0  0
  1  6  1  0  0  0  0
  2  8  1  0  0  0  0
  2  3  1  0  0  0  0
  3  9  1  0  0  0  0
  4  3  2  0  0  0  0
  4 10  1  0  0  0  0
  5  4  1  0  0  0  0
  6  7  1  0  0  0  0
  6  5  2  0  0  0  0
  7  2  2  0  0  0  0
 11  1  1  0  0  0  0
 11 12  1  0  0  0  0
 11 13  1  0  0  0  0
 14 17  1  0  0  0  0
 14 11  1  0  0  0  0
 15 14  1  0  0  0  0
 16 14  1  0  0  0  0
 17 18  2  0  0  0  0
 18 19  1  0  0  0  0
 20 19  1  0  0  0  0
M  END
>  <minimizedAffinity>
-3.54682922

$$$$

 OpenBabel03272509483D

 20 20  0  0  0  0  0  0  0  0999 V2000
   38.6290   24.2880   34.7110 O   0  0  0  0  0  0  0  0  0  0  0  0
   39.8170   22.8310   37.8100 C   0  0  0  0  0  0  0  0  0  0  0  0
   38.8600   23.3230   38.6950 C   0  0  0  0  0  0  0  0  0  0  0  0
   37.8490   24.1320   38.1950 C   0  0  0  0  0  0  0  0  0  0  0  0
   37.8600   24.3950   36.8530 N   0  0  0  0  0  0  0  0  0  0  0  0
   38.8040   23.9000   36.0310 C   0  0  0  0  0  0  0  0  0  0  0  0
   39.7820   23.1140   36.5280 N   0  0  0  0  0  0  0  0  0  0  0  0
   40.6050   22.1970   38.2220 H   0  0  0  0  0  0  0  0  0  0  0  0
   38.8590   23.1070   39.7690 H   0  0  0  0  0  0  0  0  0  0  0  0
   37.0880   24.5360   38.8320 H   0  0  0  0  0  0  0  0  0  0  0  0
   39.6480   25.0550   34.1190 C   0  0  0  0  0  0  0  0  0  0  0  0
   39.4740   25.1740   33.0200 H   0  0  0  0  0  0  0  0  0  0  0  0
   40.6240   24.5560   34.3210 H   0  0  0  0  0  0  0  0  0  0  0  0
   39.6970   26.4470   34.6950 C   0  0  0  0  0  0  0  0  0  0  0  0
   39.7090   26.4050   35.8020 H   0  0  0  0  0  0  0  0  0  0  0  0
   40.6310   26.9270   34.2860 H   0  0  0  0  0  0  0  0  0  0  0  0
   38.5380   27.2280   34.1800 C   0  0  0  0  0  3  0  0  0  0  0  0
   37.4640   27.5920   34.8860 C   0  0  0  0  0  3  0  0  0  0  0  0
   36.2860   28.3740   34.4020 C   0  0  0  0  0  2  0  0  0  0  0  0
   36.6280   29.1330   33.6410 H   0  0  0  0  0  0  0  0  0  0  0  0
  1  6  1  0  0  0  0
  2  8  1  0  0  0  0
  2  3  1  0  0  0  0
  3  9  1  0  0  0  0
  4  3  2  0  0  0  0
  4 10  1  0  0  0  0
  5  4  1  0  0  0  0
  6  7  1  0  0  0  0
  6  5  2  0  0  0  0
  7  2  2  0  0  0  0
 11 13  1  0  0  0  0
 11 14  1  0  0  0  0
 11  1  1  0  0  0  0
 12 11  1  0  0  0  0
 14 15  1  0  0  0  0
 16 14  1  0  0  0  0
 17 14  1  0  0  0  0
 17 18  2  0  0  0  0
 19 18  1  0  0  0  0
 20 19  1  0  0  0  0
M  END
>  <minimizedAffinity>
-3.49558496

$$$$

 OpenBabel03272509483D

 20 20  0  0  0  0  0  0  0  0999 V2000
   38.1090   25.0950   34.9030 O   0  0  0  0  0  0  0  0  0  0  0  0
   38.0830   23.7780   38.2800 C   0  0  0  0  0  0  0  0  0  0  0  0
   39.2490   23.0150   38.2550 C   0  0  0  0  0  0  0  0  0  0  0  0
   39.9940   22.9830   37.0840 C   0  0  0  0  0  0  0  0  0  0  0  0
   39.5300   23.7100   36.0230 N   0  0  0  0  0  0  0  0  0  0  0  0
   38.3980   24.4350   36.0890 C   0  0  0  0  0  0  0  0  0  0  0  0
   37.6800   24.4590   37.2320 N   0  0  0  0  0  0  0  0  0  0  0  0
   37.5100   23.7910   39.2090 H   0  0  0  0  0  0  0  0  0  0  0  0
   39.6130   22.4360   39.1100 H   0  0  0  0  0  0  0  0  0  0  0  0
   40.8980   22.4120   37.0110 H   0  0  0  0  0  0  0  0  0  0  0  0
   38.7490   26.3260   34.6730 C   0  0  0  0  0  0  0  0  0  0  0  0
   38.7490   26.5800   33.5820 H   0  0  0  0  0  0  0  0  0  0  0  0
   39.7870   26.2620   35.0730 H   0  0  0  0  0  0  0  0  0  0  0  0
   38.0380   27.4570   35.3720 C   0  0  0  0  0  0  0  0  0  0  0  0
   37.7770   27.1650   36.4080 H   0  0  0  0  0  0  0  0  0  0  0  0
   38.7440   28.3350   35.3520 H   0  0  0  0  0  0  0  0  0  0  0  0
   36.8350   27.8380   34.5820 C   0  0  0  0  0  3  0  0  0  0  0  0
   36.7850   27.9960   33.2560 C   0  0  0  0  0  3  0  0  0  0  0  0
   35.5970   28.3760   32.4340 C   0  0  0  0  0  2  0  0  0  0  0  0
   34.6680   27.9260   32.8890 H   0  0  0  0  0  0  0  0  0  0  0  0
  1  6  1  0  0  0  0
  2  8  1  0  0  0  0
  3  2  1  0  0  0  0
  3  9  1  0  0  0  0
  4  3  2  0  0  0  0
  5  6  2  0  0  0  0
  5  4  1  0  0  0  0
  6  7  1  0  0  0  0
  7  2  2  0  0  0  0
 10  4  1  0  0  0  0
 11  1  1  0  0  0  0
 11 13  1  0  0  0  0
 11 14  1  0  0  0  0
 12 11  1  0  0  0  0
 14 15  1  0  0  0  0
 16 14  1  0  0  0  0
 17 14  1  0  0  0  0
 18 17  2  0  0  0  0
 19 20  1  0  0  0  0
 19 18  1  0  0  0  0
M  END
>  <minimizedAffinity>
-3.48834872

$$$$

 OpenBabel03272509483D

 20 20  0  0  0  0  0  0  0  0999 V2000
   37.6410   23.9860   36.4490 O   0  0  0  0  0  0  0  0  0  0  0  0
   38.9140   27.2860   35.6530 C   0  0  0  0  0  0  0  0  0  0  0  0
   39.6830   26.9870   34.5300 C   0  0  0  0  0  0  0  0  0  0  0  0
   39.7350   25.6710   34.0930 C   0  0  0  0  0  0  0  0  0  0  0  0
   39.0190   24.7450   34.8000 N   0  0  0  0  0  0  0  0  0  0  0  0
   38.2870   25.0740   35.8810 C   0  0  0  0  0  0  0  0  0  0  0  0
   38.2440   26.3570   36.2980 N   0  0  0  0  0  0  0  0  0  0  0  0
   38.8860   28.3260   35.9820 H   0  0  0  0  0  0  0  0  0  0  0  0
   40.2530   27.7360   33.9710 H   0  0  0  0  0  0  0  0  0  0  0  0
   40.3120   25.3880   33.2360 H   0  0  0  0  0  0  0  0  0  0  0  0
   38.4100   22.8380   36.7120 C   0  0  0  0  0  0  0  0  0  0  0  0
   39.0960   22.6110   35.8570 H   0  0  0  0  0  0  0  0  0  0  0  0
   37.7160   21.9890   36.9100 H   0  0  0  0  0  0  0  0  0  0  0  0
   39.2880   23.0290   37.9220 C   0  0  0  0  0  0  0  0  0  0  0  0
   39.3610   24.1040   38.1800 H   0  0  0  0  0  0  0  0  0  0  0  0
   38.8150   22.4340   38.7540 H   0  0  0  0  0  0  0  0  0  0  0  0
   40.6250   22.4290   37.6540 C   0  0  0  0  0  3  0  0  0  0  0  0
   41.5170   22.8710   36.7630 C   0  0  0  0  0  3  0  0  0  0  0  0
   42.8630   22.2940   36.4690 C   0  0  0  0  0  2  0  0  0  0  0  0
   43.3120   21.8870   37.4210 H   0  0  0  0  0  0  0  0  0  0  0  0
  1 11  1  0  0  0  0
  2  8  1  0  0  0  0
  2  7  1  0  0  0  0
  3  2  2  0  0  0  0
  4  3  1  0  0  0  0
  4  5  2  0  0  0  0
  5  6  1  0  0  0  0
  6  7  2  0  0  0  0
  6  1  1  0  0  0  0
  9  3  1  0  0  0  0
 10  4  1  0  0  0  0
 11 13  1  0  0  0  0
 11 14  1  0  0  0  0
 12 11  1  0  0  0  0
 14 15  1  0  0  0  0
 14 16  1  0  0  0  0
 17 14  1  0  0  0  0
 18 17  2  0  0  0  0
 19 18  1  0  0  0  0
 19 20  1  0  0  0  0
M  END
>  <minimizedAffinity>
-3.47006655

$$$$

 OpenBabel03272509483D

 20 20  0  0  0  0  0  0  0  0999 V2000
   36.9230   21.6010   34.7320 O   0  0  0  0  0  0  0  0  0  0  0  0
   37.9870   23.2930   37.7570 C   0  0  0  0  0  0  0  0  0  0  0  0
   39.3660   23.1200   37.6630 C   0  0  0  0  0  0  0  0  0  0  0  0
   39.8750   22.4310   36.5700 C   0  0  0  0  0  0  0  0  0  0  0  0
   38.9780   21.9650   35.6490 N   0  0  0  0  0  0  0  0  0  0  0  0
   37.6520   22.1540   35.7760 C   0  0  0  0  0  0  0  0  0  0  0  0
   37.1680   22.8240   36.8430 N   0  0  0  0  0  0  0  0  0  0  0  0
   37.6060   23.8360   38.6240 H   0  0  0  0  0  0  0  0  0  0  0  0
   40.0760   23.4970   38.4070 H   0  0  0  0  0  0  0  0  0  0  0  0
   40.9270   22.2700   36.4500 H   0  0  0  0  0  0  0  0  0  0  0  0
   37.5160   21.6000   33.4570 C   0  0  0  0  0  0  0  0  0  0  0  0
   38.3800   20.8900   33.4170 H   0  0  0  0  0  0  0  0  0  0  0  0
   37.8360   22.6400   33.2190 H   0  0  0  0  0  0  0  0  0  0  0  0
   36.5440   21.1470   32.3980 C   0  0  0  0  0  0  0  0  0  0  0  0
   37.0890   20.7330   31.5260 H   0  0  0  0  0  0  0  0  0  0  0  0
   35.8860   20.3710   32.8820 H   0  0  0  0  0  0  0  0  0  0  0  0
   35.6710   22.2910   32.0160 C   0  0  0  0  0  3  0  0  0  0  0  0
   36.0830   23.4490   31.4920 C   0  0  0  0  0  3  0  0  0  0  0  0
   35.2360   24.6150   31.0980 C   0  0  0  0  0  2  0  0  0  0  0  0
   34.2490   24.2430   30.6970 H   0  0  0  0  0  0  0  0  0  0  0  0
  1  6  1  0  0  0  0
  2  8  1  0  0  0  0
  3  2  1  0  0  0  0
  3  9  1  0  0  0  0
  4  3  2  0  0  0  0
  5  6  2  0  0  0  0
  5  4  1  0  0  0  0
  6  7  1  0  0  0  0
  7  2  2  0  0  0  0
 10  4  1  0  0  0  0
 11  1  1  0  0  0  0
 12 11  1  0  0  0  0
 13 11  1  0  0  0  0
 14 16  1  0  0  0  0
 14 11  1  0  0  0  0
 15 14  1  0  0  0  0
 17 14  1  0  0  0  0
 18 17  2  0  0  0  0
 19 18  1  0  0  0  0
 20 19  1  0  0  0  0
M  END
>  <minimizedAffinity>
-3.46391606

$$$$
