
 OpenBabel03272509403D

 30 31  0  0  1  0  0  0  0  0999 V2000
   37.0610   30.9560   49.0530 C   0  0  0  0  0  0  0  0  0  0  0  0
   36.8110   31.9090   50.0490 C   0  0  0  0  0  0  0  0  0  0  0  0
   37.4130   33.1480   50.0820 C   0  0  0  0  0  0  0  0  0  0  0  0
   38.3190   33.4840   49.0810 C   0  0  0  0  0  0  0  0  0  0  0  0
   38.5640   32.5560   48.1090 C   0  0  0  0  0  0  0  0  0  0  0  0
   37.9500   31.3360   48.1030 C   0  0  0  0  0  0  0  0  0  0  0  0
   36.1270   31.7170   50.8490 H   0  0  0  0  0  0  0  0  0  0  0  0
   37.2020   33.8630   50.8630 H   0  0  0  0  0  0  0  0  0  0  0  0
   38.7780   34.4570   49.1250 H   0  0  0  0  0  0  0  0  0  0  0  0
   39.2820   32.8970   47.3660 H   0  0  0  0  0  0  0  0  0  0  0  0
   36.3720   29.6850   49.1150 C   0  0  2  0  0  3  0  0  0  0  0  0
   36.9110   28.8330   49.9220 O   0  0  0  0  0  1  0  0  0  0  0  0
   33.6070   30.1570   46.8240 C   0  0  0  0  0  0  0  0  0  0  0  0
   32.9430   28.9330   46.8430 C   0  0  0  0  0  0  0  0  0  0  0  0
   33.4480   27.9330   47.6500 C   0  0  0  0  0  0  0  0  0  0  0  0
   34.5590   28.1750   48.3870 N   0  0  0  0  0  0  0  0  0  0  0  0
   35.1830   29.3380   48.3640 C   0  0  0  0  0  0  0  0  0  0  0  0
   34.6890   30.3260   47.5710 N   0  0  0  0  0  0  0  0  0  0  0  0
   33.1760   30.9120   46.1770 H   0  0  0  0  0  0  0  0  0  0  0  0
   32.0610   28.7370   46.2580 H   0  0  0  0  0  0  0  0  0  0  0  0
   32.9690   26.9680   47.6970 H   0  0  0  0  0  0  0  0  0  0  0  0
   38.3130   30.4550   47.0030 C   0  0  0  0  0  3  0  0  0  0  0  0
   38.9630   30.8030   45.9090 C   0  0  0  0  0  3  0  0  0  0  0  0
   39.3980   30.0500   44.7300 C   0  0  0  0  0  0  0  0  0  0  0  0
   39.1210   28.9660   44.8840 H   0  0  0  0  0  0  0  0  0  0  0  0
   40.4710   30.1310   44.4870 H   0  0  0  0  0  0  0  0  0  0  0  0
   38.5760   30.4650   43.5450 C   0  0  0  0  0  3  0  0  0  0  0  0
   37.9350   29.5810   42.7870 C   0  0  0  0  0  3  0  0  0  0  0  0
   37.1120   29.9450   41.6080 C   0  0  0  0  0  2  0  0  0  0  0  0
   37.4590   30.8980   41.1350 H   0  0  0  0  0  0  0  0  0  0  0  0
  1 11  1  0  0  0  0
  1  2  1  0  0  0  0
  2  3  2  0  0  0  0
  2  7  1  0  0  0  0
  3  8  1  0  0  0  0
  4  9  1  0  0  0  0
  4  3  1  0  0  0  0
  5  4  2  0  0  0  0
  6  5  1  0  0  0  0
  6  1  2  0  0  0  0
 10  5  1  0  0  0  0
 11 12  1  6  0  0  0
 13 14  2  0  0  0  0
 13 18  1  0  0  0  0
 14 15  1  0  0  0  0
 15 21  1  0  0  0  0
 15 16  2  0  0  0  0
 17 16  1  0  0  0  0
 17 11  1  0  0  0  0
 18 17  2  0  0  0  0
 19 13  1  0  0  0  0
 20 14  1  0  0  0  0
 22  6  1  0  0  0  0
 23 22  2  0  0  0  0
 24 25  1  0  0  0  0
 24 23  1  0  0  0  0
 26 24  1  0  0  0  0
 27 24  1  0  0  0  0
 28 27  2  0  0  0  0
 29 28  1  0  0  0  0
 30 29  1  0  0  0  0
M  END
>  <minimizedAffinity>
-5.35252476

>  <minimizedRMSD>
0.175039187

$$$$
