
 OpenBabel03272509403D

 30 31  0  0  1  0  0  0  0  0999 V2000
   37.0680   30.9520   49.0560 C   0  0  0  0  0  0  0  0  0  0  0  0
   36.8310   31.9040   50.0570 C   0  0  0  0  0  0  0  0  0  0  0  0
   37.4380   33.1410   50.0860 C   0  0  0  0  0  0  0  0  0  0  0  0
   38.3360   33.4760   49.0760 C   0  0  0  0  0  0  0  0  0  0  0  0
   38.5670   32.5490   48.1000 C   0  0  0  0  0  0  0  0  0  0  0  0
   37.9490   31.3310   48.0980 C   0  0  0  0  0  0  0  0  0  0  0  0
   36.1550   31.7130   50.8630 H   0  0  0  0  0  0  0  0  0  0  0  0
   37.2370   33.8560   50.8700 H   0  0  0  0  0  0  0  0  0  0  0  0
   38.7980   34.4470   49.1180 H   0  0  0  0  0  0  0  0  0  0  0  0
   39.2790   32.8890   47.3510 H   0  0  0  0  0  0  0  0  0  0  0  0
   36.3760   29.6840   49.1230 C   0  0  2  0  0  3  0  0  0  0  0  0
   36.9110   28.8340   49.9340 O   0  0  0  0  0  1  0  0  0  0  0  0
   33.6060   30.1590   46.8370 C   0  0  0  0  0  0  0  0  0  0  0  0
   32.9460   28.9320   46.8510 C   0  0  0  0  0  0  0  0  0  0  0  0
   33.4540   27.9300   47.6530 C   0  0  0  0  0  0  0  0  0  0  0  0
   34.5660   28.1720   48.3890 N   0  0  0  0  0  0  0  0  0  0  0  0
   35.1860   29.3370   48.3720 C   0  0  0  0  0  0  0  0  0  0  0  0
   34.6890   30.3270   47.5840 N   0  0  0  0  0  0  0  0  0  0  0  0
   33.1730   30.9160   46.1950 H   0  0  0  0  0  0  0  0  0  0  0  0
   32.0640   28.7370   46.2670 H   0  0  0  0  0  0  0  0  0  0  0  0
   32.9780   26.9640   47.6960 H   0  0  0  0  0  0  0  0  0  0  0  0
   38.2980   30.4510   46.9920 C   0  0  0  0  0  3  0  0  0  0  0  0
   38.8960   30.8080   45.8720 C   0  0  0  0  0  3  0  0  0  0  0  0
   39.3100   30.0570   44.6850 C   0  0  0  0  0  0  0  0  0  0  0  0
   38.6810   29.1220   44.6240 H   0  0  0  0  0  0  0  0  0  0  0  0
   40.3800   29.7930   44.6420 H   0  0  0  0  0  0  0  0  0  0  0  0
   38.9270   30.8260   43.4530 C   0  0  0  0  0  3  0  0  0  0  0  0
   38.4310   32.0570   43.5180 C   0  0  0  0  0  3  0  0  0  0  0  0
   38.0400   32.8540   42.3280 C   0  0  0  0  0  2  0  0  0  0  0  0
   37.7340   32.2020   41.4720 H   0  0  0  0  0  0  0  0  0  0  0  0
  1 11  1  0  0  0  0
  1  2  1  0  0  0  0
  2  3  2  0  0  0  0
  2  7  1  0  0  0  0
  3  8  1  0  0  0  0
  4  9  1  0  0  0  0
  4  3  1  0  0  0  0
  5  4  2  0  0  0  0
  6  5  1  0  0  0  0
  6  1  2  0  0  0  0
 10  5  1  0  0  0  0
 11 12  1  6  0  0  0
 13 14  2  0  0  0  0
 13 18  1  0  0  0  0
 14 15  1  0  0  0  0
 15 21  1  0  0  0  0
 15 16  2  0  0  0  0
 17 16  1  0  0  0  0
 17 11  1  0  0  0  0
 18 17  2  0  0  0  0
 19 13  1  0  0  0  0
 20 14  1  0  0  0  0
 22  6  1  0  0  0  0
 23 22  2  0  0  0  0
 24 23  1  0  0  0  0
 25 24  1  0  0  0  0
 26 24  1  0  0  0  0
 27 28  2  0  0  0  0
 27 24  1  0  0  0  0
 29 28  1  0  0  0  0
 30 29  1  0  0  0  0
M  END
>  <minimizedAffinity>
-5.44165182

>  <minimizedRMSD>
0.524085045

$$$$
