
 OpenBabel03262521163D

 23 23  0  0  0  0  0  0  0  0999 V2000
   35.6380   30.2230   47.3720 C   0  0  0  0  0  0  0  0  0  0  0  0
   36.0200   29.4170   46.6840 H   0  0  0  0  0  0  0  0  0  0  0  0
   34.8930   30.7780   46.7330 H   0  0  0  0  0  0  0  0  0  0  0  0
   35.2490   29.8610   48.5850 C   0  0  0  0  0  0  0  0  0  0  0  0
   35.1380   30.7530   49.2820 H   0  0  0  0  0  0  0  0  0  0  0  0
   34.2170   29.4320   48.6200 H   0  0  0  0  0  0  0  0  0  0  0  0
   36.0290   28.8950   49.4430 C   0  0  0  0  0  0  0  0  0  0  0  0
   37.0230   28.6450   49.0270 H   0  0  0  0  0  0  0  0  0  0  0  0
   35.4330   27.9570   49.4490 H   0  0  0  0  0  0  0  0  0  0  0  0
   36.1030   29.4260   50.8220 C   0  0  0  0  0  3  0  0  0  0  0  0
   37.0490   30.2000   51.3290 C   0  0  0  0  0  3  0  0  0  0  0  0
   38.2420   30.7050   50.6260 C   0  0  0  0  0  2  0  0  0  0  0  0
   39.1250   30.0740   50.9190 H   0  0  0  0  0  0  0  0  0  0  0  0
   36.5910   31.1540   47.7460 O   0  0  0  0  0  0  0  0  0  0  0  0
   37.7380   31.2360   46.9680 C   0  0  0  0  0  0  0  0  0  0  0  0
   38.4900   32.3790   47.2380 C   0  0  0  0  0  0  0  0  0  0  0  0
   39.6660   32.5870   46.5290 C   0  0  0  0  0  0  0  0  0  0  0  0
   40.0260   31.6430   45.5880 N   0  0  0  0  0  0  0  0  0  0  0  0
   39.2730   30.5500   45.3540 C   0  0  0  0  0  0  0  0  0  0  0  0
   38.1490   30.3630   46.0410 N   0  0  0  0  0  0  0  0  0  0  0  0
   38.2110   33.1310   47.9810 H   0  0  0  0  0  0  0  0  0  0  0  0
   40.2880   33.4560   46.6990 H   0  0  0  0  0  0  0  0  0  0  0  0
   39.5780   29.8190   44.6080 H   0  0  0  0  0  0  0  0  0  0  0  0
  1 14  1  0  0  0  0
  1  4  1  0  0  0  0
  2  1  1  0  0  0  0
  3  1  1  0  0  0  0
  4  6  1  0  0  0  0
  4  5  1  0  0  0  0
  4  7  1  0  0  0  0
  7  9  1  0  0  0  0
  7 10  1  0  0  0  0
  8  7  1  0  0  0  0
 10 11  2  0  0  0  0
 12 13  1  0  0  0  0
 12 11  1  0  0  0  0
 15 16  1  0  0  0  0
 15 14  1  0  0  0  0
 16 21  1  0  0  0  0
 17 22  1  0  0  0  0
 17 16  2  0  0  0  0
 18 17  1  0  0  0  0
 19 18  2  0  0  0  0
 19 20  1  0  0  0  0
 20 15  2  0  0  0  0
 23 19  1  0  0  0  0
M  END
>  <minimizedAffinity>
-4.17836046

>  <minimizedRMSD>
2.51838589

$$$$
