
 OpenBabel03272509403D

 30 31  0  0  1  0  0  0  0  0999 V2000
   37.0760   30.9550   49.0600 C   0  0  0  0  0  0  0  0  0  0  0  0
   36.8320   31.9210   50.0450 C   0  0  0  0  0  0  0  0  0  0  0  0
   37.4390   33.1580   50.0620 C   0  0  0  0  0  0  0  0  0  0  0  0
   38.3440   33.4790   49.0540 C   0  0  0  0  0  0  0  0  0  0  0  0
   38.5820   32.5380   48.0920 C   0  0  0  0  0  0  0  0  0  0  0  0
   37.9640   31.3210   48.1030 C   0  0  0  0  0  0  0  0  0  0  0  0
   36.1500   31.7410   50.8500 H   0  0  0  0  0  0  0  0  0  0  0  0
   37.2330   33.8830   50.8350 H   0  0  0  0  0  0  0  0  0  0  0  0
   38.8060   34.4500   49.0850 H   0  0  0  0  0  0  0  0  0  0  0  0
   39.2990   32.8680   47.3430 H   0  0  0  0  0  0  0  0  0  0  0  0
   36.3840   29.6880   49.1390 C   0  0  2  0  0  3  0  0  0  0  0  0
   36.9170   28.8460   49.9600 O   0  0  0  0  0  1  0  0  0  0  0  0
   33.6120   30.1420   46.8500 C   0  0  0  0  0  0  0  0  0  0  0  0
   32.9550   28.9140   46.8730 C   0  0  0  0  0  0  0  0  0  0  0  0
   33.4650   27.9180   47.6810 C   0  0  0  0  0  0  0  0  0  0  0  0
   34.5770   28.1680   48.4160 N   0  0  0  0  0  0  0  0  0  0  0  0
   35.1950   29.3330   48.3900 C   0  0  0  0  0  0  0  0  0  0  0  0
   34.6950   30.3170   47.5960 N   0  0  0  0  0  0  0  0  0  0  0  0
   33.1770   30.8940   46.2030 H   0  0  0  0  0  0  0  0  0  0  0  0
   32.0730   28.7130   46.2900 H   0  0  0  0  0  0  0  0  0  0  0  0
   32.9910   26.9520   47.7310 H   0  0  0  0  0  0  0  0  0  0  0  0
   38.3210   30.4260   47.0120 C   0  0  0  0  0  3  0  0  0  0  0  0
   38.8760   30.7750   45.8670 C   0  0  0  0  0  3  0  0  0  0  0  0
   39.2910   30.0090   44.6900 C   0  0  0  0  0  0  0  0  0  0  0  0
   39.0700   28.9190   44.8850 H   0  0  0  0  0  0  0  0  0  0  0  0
   40.3460   30.1310   44.3950 H   0  0  0  0  0  0  0  0  0  0  0  0
   38.3970   30.3540   43.5340 C   0  0  0  0  0  3  0  0  0  0  0  0
   37.1150   30.0020   43.5050 C   0  0  0  0  0  3  0  0  0  0  0  0
   36.1960   30.3210   42.3850 C   0  0  0  0  0  2  0  0  0  0  0  0
   36.7420   30.4230   41.4130 H   0  0  0  0  0  0  0  0  0  0  0  0
  1 11  1  0  0  0  0
  1  2  1  0  0  0  0
  2  3  2  0  0  0  0
  2  7  1  0  0  0  0
  3  8  1  0  0  0  0
  4  9  1  0  0  0  0
  4  3  1  0  0  0  0
  5  6  1  0  0  0  0
  5  4  2  0  0  0  0
  6  1  2  0  0  0  0
 10  5  1  0  0  0  0
 11 12  1  6  0  0  0
 13 14  2  0  0  0  0
 13 18  1  0  0  0  0
 14 15  1  0  0  0  0
 15 21  1  0  0  0  0
 15 16  2  0  0  0  0
 17 16  1  0  0  0  0
 17 11  1  0  0  0  0
 18 17  2  0  0  0  0
 19 13  1  0  0  0  0
 20 14  1  0  0  0  0
 22  6  1  0  0  0  0
 23 22  2  0  0  0  0
 24 25  1  0  0  0  0
 24 23  1  0  0  0  0
 26 24  1  0  0  0  0
 27 24  1  0  0  0  0
 28 27  2  0  0  0  0
 29 28  1  0  0  0  0
 30 29  1  0  0  0  0
M  END
>  <minimizedAffinity>
-5.34473228

>  <minimizedRMSD>
0.115514696

$$$$
