
 OpenBabel03272509403D

 30 31  0  0  1  0  0  0  0  0999 V2000
   37.0690   30.9530   49.0560 C   0  0  0  0  0  0  0  0  0  0  0  0
   36.8310   31.9050   50.0560 C   0  0  0  0  0  0  0  0  0  0  0  0
   37.4380   33.1420   50.0850 C   0  0  0  0  0  0  0  0  0  0  0  0
   38.3360   33.4770   49.0760 C   0  0  0  0  0  0  0  0  0  0  0  0
   38.5690   32.5490   48.1010 C   0  0  0  0  0  0  0  0  0  0  0  0
   37.9510   31.3320   48.0990 C   0  0  0  0  0  0  0  0  0  0  0  0
   36.1530   31.7140   50.8620 H   0  0  0  0  0  0  0  0  0  0  0  0
   37.2360   33.8570   50.8690 H   0  0  0  0  0  0  0  0  0  0  0  0
   38.7980   34.4480   49.1180 H   0  0  0  0  0  0  0  0  0  0  0  0
   39.2810   32.8890   47.3520 H   0  0  0  0  0  0  0  0  0  0  0  0
   36.3770   29.6850   49.1220 C   0  0  2  0  0  3  0  0  0  0  0  0
   36.9110   28.8340   49.9340 O   0  0  0  0  0  1  0  0  0  0  0  0
   33.6070   30.1590   46.8350 C   0  0  0  0  0  0  0  0  0  0  0  0
   32.9470   28.9330   46.8500 C   0  0  0  0  0  0  0  0  0  0  0  0
   33.4540   27.9310   47.6520 C   0  0  0  0  0  0  0  0  0  0  0  0
   34.5660   28.1730   48.3890 N   0  0  0  0  0  0  0  0  0  0  0  0
   35.1870   29.3370   48.3710 C   0  0  0  0  0  0  0  0  0  0  0  0
   34.6910   30.3270   47.5830 N   0  0  0  0  0  0  0  0  0  0  0  0
   33.1750   30.9160   46.1930 H   0  0  0  0  0  0  0  0  0  0  0  0
   32.0650   28.7380   46.2660 H   0  0  0  0  0  0  0  0  0  0  0  0
   32.9780   26.9660   47.6960 H   0  0  0  0  0  0  0  0  0  0  0  0
   38.3010   30.4510   46.9940 C   0  0  0  0  0  3  0  0  0  0  0  0
   38.8950   30.8090   45.8710 C   0  0  0  0  0  3  0  0  0  0  0  0
   39.3100   30.0570   44.6850 C   0  0  0  0  0  0  0  0  0  0  0  0
   38.6760   29.1250   44.6200 H   0  0  0  0  0  0  0  0  0  0  0  0
   40.3780   29.7880   44.6460 H   0  0  0  0  0  0  0  0  0  0  0  0
   38.9360   30.8300   43.4530 C   0  0  0  0  0  3  0  0  0  0  0  0
   38.4290   32.0580   43.5180 C   0  0  0  0  0  3  0  0  0  0  0  0
   38.0460   32.8560   42.3290 C   0  0  0  0  0  2  0  0  0  0  0  0
   37.7560   32.2070   41.4650 H   0  0  0  0  0  0  0  0  0  0  0  0
  1 11  1  0  0  0  0
  1  2  1  0  0  0  0
  2  3  2  0  0  0  0
  2  7  1  0  0  0  0
  3  8  1  0  0  0  0
  4  9  1  0  0  0  0
  4  3  1  0  0  0  0
  5  4  2  0  0  0  0
  6  5  1  0  0  0  0
  6  1  2  0  0  0  0
 10  5  1  0  0  0  0
 11 12  1  6  0  0  0
 13 14  2  0  0  0  0
 13 18  1  0  0  0  0
 14 15  1  0  0  0  0
 15 21  1  0  0  0  0
 15 16  2  0  0  0  0
 17 16  1  0  0  0  0
 17 11  1  0  0  0  0
 18 17  2  0  0  0  0
 19 13  1  0  0  0  0
 20 14  1  0  0  0  0
 22  6  1  0  0  0  0
 23 22  2  0  0  0  0
 24 23  1  0  0  0  0
 25 24  1  0  0  0  0
 26 24  1  0  0  0  0
 27 28  2  0  0  0  0
 27 24  1  0  0  0  0
 29 28  1  0  0  0  0
 30 29  1  0  0  0  0
M  END
>  <minimizedAffinity>
-5.44346285

>  <minimizedRMSD>
0.444571108

$$$$
