
 OpenBabel03272510043D

 32 33  0  0  0  0  0  0  0  0999 V2000
   36.1310   30.3660   45.5020 C   0  0  0  0  0  0  0  0  0  0  0  0
   35.7200   30.1540   46.7800 C   0  0  0  0  0  0  0  0  0  0  0  0
   34.4790   29.5740   47.0170 C   0  0  0  0  0  0  0  0  0  0  0  0
   33.6280   29.1980   45.9950 C   0  0  0  0  0  0  0  0  0  0  0  0
   34.0080   29.4010   44.6960 C   0  0  0  0  0  0  0  0  0  0  0  0
   35.2400   29.9740   44.4960 C   0  0  0  0  0  0  0  0  0  0  0  0
   34.1740   29.4110   48.0620 H   0  0  0  0  0  0  0  0  0  0  0  0
   32.7020   28.7610   46.2860 H   0  0  0  0  0  0  0  0  0  0  0  0
   33.3180   29.0970   43.9250 H   0  0  0  0  0  0  0  0  0  0  0  0
   35.4290   30.0880   43.4200 H   0  0  0  0  0  0  0  0  0  0  0  0
   38.0520   32.0920   48.8560 C   0  0  0  0  0  0  0  0  0  0  0  0
   37.2580   31.6790   47.7960 C   0  0  0  0  0  0  0  0  0  0  0  0
   36.5120   30.5460   47.8950 C   0  0  0  0  0  0  0  0  0  0  0  0
   36.5820   29.8570   49.0680 N   0  0  0  0  0  0  0  0  0  0  0  0
   37.3430   30.2520   50.0940 C   0  0  0  0  0  0  0  0  0  0  0  0
   38.0740   31.3650   49.9800 N   0  0  0  0  0  0  0  0  0  0  0  0
   38.6960   32.9450   48.9470 H   0  0  0  0  0  0  0  0  0  0  0  0
   37.3940   32.4380   47.0620 H   0  0  0  0  0  0  0  0  0  0  0  0
   37.2690   29.4390   51.3370 C   0  0  0  0  0  0  0  0  0  0  0  0
   37.5640   30.1840   52.4620 F   0  0  0  0  0  0  0  0  0  0  0  0
   35.8870   29.0700   51.5610 F   0  0  0  0  0  0  0  0  0  0  0  0
   37.8970   28.2850   51.3420 F   0  0  0  0  0  0  0  0  0  0  0  0
   37.6510   31.0370   45.0820 S   0  0  0  0  0  0  0  0  0  0  0  0
   37.5050   32.3970   44.5030 O   0  0  0  0  0  0  0  0  0  0  0  0
   37.8620   30.3160   43.7670 O   0  0  0  0  0  0  0  0  0  0  0  0
   39.2030   30.5030   45.5080 C   0  0  0  0  0  0  0  0  0  0  0  0
   39.2810   29.4050   45.5960 H   0  0  0  0  0  0  0  0  0  0  0  0
   39.2890   30.7740   46.6350 H   0  0  0  0  0  0  0  0  0  0  0  0
   40.3490   31.2110   44.9620 C   0  0  0  0  0  3  0  0  0  0  0  0
   40.9330   32.3900   45.1510 C   0  0  0  0  0  3  0  0  0  0  0  0
   40.3060   33.2710   46.1720 C   0  0  0  0  0  2  0  0  0  0  0  0
   39.3910   33.7280   45.7030 H   0  0  0  0  0  0  0  0  0  0  0  0
  1  2  1  0  0  0  0
  2  3  2  0  0  0  0
  2 13  1  0  0  0  0
  3  7  1  0  0  0  0
  4  8  1  0  0  0  0
  4  3  1  0  0  0  0
  5  4  2  0  0  0  0
  6  5  1  0  0  0  0
  6  1  2  0  0  0  0
  9  5  1  0  0  0  0
 10  6  1  0  0  0  0
 11 17  1  0  0  0  0
 11 16  1  0  0  0  0
 12 13  1  0  0  0  0
 12 11  2  0  0  0  0
 13 14  2  0  0  0  0
 14 15  1  0  0  0  0
 15 19  1  0  0  0  0
 16 15  2  0  0  0  0
 18 12  1  0  0  0  0
 19 22  1  0  0  0  0
 19 21  1  0  0  0  0
 19 20  1  0  0  0  0
 23  1  1  0  0  0  0
 23 26  1  0  0  0  0
 24 23  2  0  0  0  0
 25 23  2  0  0  0  0
 26 27  1  0  0  0  0
 26 28  1  0  0  0  0
 29 30  2  0  0  0  0
 29 26  1  0  0  0  0
 30 31  1  0  0  0  0
 32 31  1  0  0  0  0
M  END
>  <minimizedAffinity>
-6.08676577

>  <minimizedRMSD>
2.13815475

$$$$
