
 OpenBabel03272505023D

 24 25  0  0  0  0  0  0  0  0999 V2000
   38.5520   30.5800   46.8060 Cl  0  0  0  0  0  0  0  0  0  0  0  0
   38.9160   32.0520   47.7000 C   0  0  0  0  0  0  0  0  0  0  0  0
   38.3610   32.2110   48.9320 C   0  0  0  0  0  0  0  0  0  0  0  0
   38.6950   33.3920   49.5710 C   0  0  0  0  0  0  0  0  0  0  0  0
   39.5340   34.3170   48.9630 C   0  0  0  0  0  0  0  0  0  0  0  0
   40.0560   34.1040   47.7320 C   0  0  0  0  0  0  0  0  0  0  0  0
   39.7390   32.9280   47.0720 C   0  0  0  0  0  0  0  0  0  0  0  0
   38.2890   33.5910   50.5620 H   0  0  0  0  0  0  0  0  0  0  0  0
   39.7640   35.2340   49.5140 H   0  0  0  0  0  0  0  0  0  0  0  0
   40.7020   34.8690   47.3240 H   0  0  0  0  0  0  0  0  0  0  0  0
   37.9280   30.4240   50.6090 C   0  0  0  0  0  0  0  0  0  0  0  0
   37.4720   31.2410   49.5860 C   0  0  0  0  0  0  0  0  0  0  0  0
   36.1380   31.1310   49.1760 C   0  0  0  0  0  0  0  0  0  0  0  0
   35.3680   30.2170   49.8190 N   0  0  0  0  0  0  0  0  0  0  0  0
   35.8170   29.4400   50.7980 C   0  0  0  0  0  0  0  0  0  0  0  0
   37.0950   29.5380   51.1980 N   0  0  0  0  0  0  0  0  0  0  0  0
   38.9670   30.5480   50.8900 H   0  0  0  0  0  0  0  0  0  0  0  0
   35.7910   31.7750   48.3740 H   0  0  0  0  0  0  0  0  0  0  0  0
   35.1940   28.7150   51.3040 H   0  0  0  0  0  0  0  0  0  0  0  0
   40.2810   32.7170   45.8040 O   0  0  0  0  0  0  0  0  0  0  0  0
   39.7260   33.3610   44.7230 C   0  0  0  0  0  3  0  0  0  0  0  0
   39.6630   32.7430   43.5590 C   0  0  0  0  0  3  0  0  0  0  0  0
   40.1690   31.3650   43.3480 C   0  0  0  0  0  2  0  0  0  0  0  0
   40.5730   31.2310   42.3110 H   0  0  0  0  0  0  0  0  0  0  0  0
  1  2  1  0  0  0  0
  2  3  1  0  0  0  0
  3  4  2  0  0  0  0
  3 12  1  0  0  0  0
  4  8  1  0  0  0  0
  5  9  1  0  0  0  0
  5  4  1  0  0  0  0
  6  5  2  0  0  0  0
  7  2  2  0  0  0  0
  7  6  1  0  0  0  0
 10  6  1  0  0  0  0
 11 17  1  0  0  0  0
 11 16  1  0  0  0  0
 12 11  2  0  0  0  0
 13 12  1  0  0  0  0
 13 14  2  0  0  0  0
 14 15  1  0  0  0  0
 15 16  2  0  0  0  0
 15 19  1  0  0  0  0
 18 13  1  0  0  0  0
 20  7  1  0  0  0  0
 21 20  1  0  0  0  0
 22 21  2  0  0  0  0
 23 22  1  0  0  0  0
 24 23  1  0  0  0  0
M  END
>  <minimizedAffinity>
-5.81206322

>  <minimizedRMSD>
0.649265289

$$$$
