
 OpenBabel03272505023D

 24 25  0  0  0  0  0  0  0  0999 V2000
   37.9210   30.6400   46.8490 Cl  0  0  0  0  0  0  0  0  0  0  0  0
   38.5170   32.0180   47.7700 C   0  0  0  0  0  0  0  0  0  0  0  0
   38.1650   32.1180   49.0800 C   0  0  0  0  0  0  0  0  0  0  0  0
   38.6710   33.2260   49.7340 C   0  0  0  0  0  0  0  0  0  0  0  0
   39.4730   34.1430   49.0660 C   0  0  0  0  0  0  0  0  0  0  0  0
   39.7900   33.9900   47.7580 C   0  0  0  0  0  0  0  0  0  0  0  0
   39.2960   32.8880   47.0800 C   0  0  0  0  0  0  0  0  0  0  0  0
   38.4330   33.3750   50.7860 H   0  0  0  0  0  0  0  0  0  0  0  0
   39.8460   35.0010   49.6330 H   0  0  0  0  0  0  0  0  0  0  0  0
   40.4190   34.7440   47.3060 H   0  0  0  0  0  0  0  0  0  0  0  0
   37.8110   30.4210   50.8660 C   0  0  0  0  0  0  0  0  0  0  0  0
   37.3180   31.1570   49.7990 C   0  0  0  0  0  0  0  0  0  0  0  0
   35.9860   30.9710   49.4080 C   0  0  0  0  0  0  0  0  0  0  0  0
   35.2550   30.0690   50.1120 N   0  0  0  0  0  0  0  0  0  0  0  0
   35.7400   29.3710   51.1320 C   0  0  0  0  0  0  0  0  0  0  0  0
   37.0160   29.5410   51.5150 N   0  0  0  0  0  0  0  0  0  0  0  0
   38.8460   30.6010   51.1300 H   0  0  0  0  0  0  0  0  0  0  0  0
   35.6100   31.5510   48.5720 H   0  0  0  0  0  0  0  0  0  0  0  0
   35.1480   28.6550   51.6860 H   0  0  0  0  0  0  0  0  0  0  0  0
   39.6270   32.7400   45.7330 O   0  0  0  0  0  0  0  0  0  0  0  0
   40.8000   32.1020   45.3980 C   0  0  0  0  0  3  0  0  0  0  0  0
   40.8010   31.2120   44.4240 C   0  0  0  0  0  3  0  0  0  0  0  0
   39.5850   30.8540   43.6550 C   0  0  0  0  0  2  0  0  0  0  0  0
   39.6010   29.7790   43.3390 H   0  0  0  0  0  0  0  0  0  0  0  0
  1  2  1  0  0  0  0
  2  3  1  0  0  0  0
  3  4  2  0  0  0  0
  3 12  1  0  0  0  0
  4  8  1  0  0  0  0
  5  9  1  0  0  0  0
  5  4  1  0  0  0  0
  6  5  2  0  0  0  0
  7  6  1  0  0  0  0
  7  2  2  0  0  0  0
 10  6  1  0  0  0  0
 11 17  1  0  0  0  0
 11 16  1  0  0  0  0
 12 11  2  0  0  0  0
 13 12  1  0  0  0  0
 13 14  2  0  0  0  0
 14 15  1  0  0  0  0
 15 16  2  0  0  0  0
 15 19  1  0  0  0  0
 18 13  1  0  0  0  0
 20  7  1  0  0  0  0
 21 20  1  0  0  0  0
 22 21  2  0  0  0  0
 23 22  1  0  0  0  0
 24 23  1  0  0  0  0
M  END
>  <minimizedAffinity>
-5.74271441

>  <minimizedRMSD>
1.38302767

$$$$
