
 OpenBabel03272505033D

 24 25  0  0  0  0  0  0  0  0999 V2000
   38.3750   23.7240   33.1120 Cl  0  0  0  0  0  0  0  0  0  0  0  0
   37.9950   25.2690   33.8650 C   0  0  0  0  0  0  0  0  0  0  0  0
   38.3390   25.4520   35.1690 C   0  0  0  0  0  0  0  0  0  0  0  0
   38.0070   26.6900   35.6880 C   0  0  0  0  0  0  0  0  0  0  0  0
   37.3710   27.6430   34.9040 C   0  0  0  0  0  0  0  0  0  0  0  0
   37.0520   27.4040   33.6100 C   0  0  0  0  0  0  0  0  0  0  0  0
   37.3740   26.1720   33.0650 C   0  0  0  0  0  0  0  0  0  0  0  0
   38.2510   26.9110   36.7260 H   0  0  0  0  0  0  0  0  0  0  0  0
   37.1320   28.6060   35.3670 H   0  0  0  0  0  0  0  0  0  0  0  0
   36.5580   28.1950   33.0630 H   0  0  0  0  0  0  0  0  0  0  0  0
   40.2800   23.9880   35.6980 C   0  0  0  0  0  0  0  0  0  0  0  0
   39.0110   24.4520   36.0090 C   0  0  0  0  0  0  0  0  0  0  0  0
   38.3690   23.9510   37.1480 C   0  0  0  0  0  0  0  0  0  0  0  0
   39.0420   23.0300   37.8830 N   0  0  0  0  0  0  0  0  0  0  0  0
   40.2580   22.5930   37.5740 C   0  0  0  0  0  0  0  0  0  0  0  0
   40.8830   23.0670   36.4840 N   0  0  0  0  0  0  0  0  0  0  0  0
   40.7350   24.4060   34.8080 H   0  0  0  0  0  0  0  0  0  0  0  0
   37.3760   24.3210   37.3830 H   0  0  0  0  0  0  0  0  0  0  0  0
   40.7860   21.8590   38.1670 H   0  0  0  0  0  0  0  0  0  0  0  0
   37.0410   25.9330   31.7320 O   0  0  0  0  0  0  0  0  0  0  0  0
   35.7480   26.1510   31.3150 C   0  0  0  0  0  3  0  0  0  0  0  0
   34.9740   25.1220   31.0310 C   0  0  0  0  0  3  0  0  0  0  0  0
   35.4290   23.7150   31.1370 C   0  0  0  0  0  2  0  0  0  0  0  0
   34.9420   23.0660   30.3640 H   0  0  0  0  0  0  0  0  0  0  0  0
  1  2  1  0  0  0  0
  2  3  1  0  0  0  0
  3  4  2  0  0  0  0
  3 12  1  0  0  0  0
  4  8  1  0  0  0  0
  5  9  1  0  0  0  0
  5  4  1  0  0  0  0
  6  5  2  0  0  0  0
  7  6  1  0  0  0  0
  7  2  2  0  0  0  0
 10  6  1  0  0  0  0
 11 12  2  0  0  0  0
 11 16  1  0  0  0  0
 12 13  1  0  0  0  0
 13 18  1  0  0  0  0
 13 14  2  0  0  0  0
 15 14  1  0  0  0  0
 15 19  1  0  0  0  0
 16 15  2  0  0  0  0
 17 11  1  0  0  0  0
 20  7  1  0  0  0  0
 21 20  1  0  0  0  0
 22 23  1  0  0  0  0
 22 21  2  0  0  0  0
 24 23  1  0  0  0  0
M  END
>  <minimizedAffinity>
-4.88115311

$$$$

 OpenBabel03272505033D

 24 25  0  0  0  0  0  0  0  0999 V2000
   38.1540   23.9810   33.5270 Cl  0  0  0  0  0  0  0  0  0  0  0  0
   36.9140   24.6090   32.4470 C   0  0  0  0  0  0  0  0  0  0  0  0
   36.1690   23.7210   31.7350 C   0  0  0  0  0  0  0  0  0  0  0  0
   35.2160   24.2920   30.9110 C   0  0  0  0  0  0  0  0  0  0  0  0
   35.0670   25.6710   30.8440 C   0  0  0  0  0  0  0  0  0  0  0  0
   35.8390   26.5070   31.5780 C   0  0  0  0  0  0  0  0  0  0  0  0
   36.8000   25.9610   32.4130 C   0  0  0  0  0  0  0  0  0  0  0  0
   34.5810   23.6440   30.3090 H   0  0  0  0  0  0  0  0  0  0  0  0
   34.2970   26.0670   30.1750 H   0  0  0  0  0  0  0  0  0  0  0  0
   35.6630   27.5690   31.4740 H   0  0  0  0  0  0  0  0  0  0  0  0
   35.5450   21.4940   32.6550 C   0  0  0  0  0  0  0  0  0  0  0  0
   36.3180   22.2610   31.7950 C   0  0  0  0  0  0  0  0  0  0  0  0
   37.2540   21.6200   30.9740 C   0  0  0  0  0  0  0  0  0  0  0  0
   37.3430   20.2690   31.0760 N   0  0  0  0  0  0  0  0  0  0  0  0
   36.5980   19.5470   31.9040 C   0  0  0  0  0  0  0  0  0  0  0  0
   35.6970   20.1520   32.6960 N   0  0  0  0  0  0  0  0  0  0  0  0
   34.8360   22.0360   33.2680 H   0  0  0  0  0  0  0  0  0  0  0  0
   37.8540   22.2290   30.3060 H   0  0  0  0  0  0  0  0  0  0  0  0
   36.6770   18.4700   31.9770 H   0  0  0  0  0  0  0  0  0  0  0  0
   37.5910   26.8300   33.1640 O   0  0  0  0  0  0  0  0  0  0  0  0
   37.0790   27.3710   34.3210 C   0  0  0  0  0  3  0  0  0  0  0  0
   37.8440   27.4650   35.3900 C   0  0  0  0  0  3  0  0  0  0  0  0
   39.2560   27.0120   35.4160 C   0  0  0  0  0  2  0  0  0  0  0  0
   39.5440   26.6220   36.4260 H   0  0  0  0  0  0  0  0  0  0  0  0
  2  1  1  0  0  0  0
  3 12  1  0  0  0  0
  3  2  2  0  0  0  0
  4  3  1  0  0  0  0
  5  4  2  0  0  0  0
  5  6  1  0  0  0  0
  6  7  2  0  0  0  0
  7  2  1  0  0  0  0
  7 20  1  0  0  0  0
  8  4  1  0  0  0  0
  9  5  1  0  0  0  0
 10  6  1  0  0  0  0
 11 16  1  0  0  0  0
 11 17  1  0  0  0  0
 12 11  2  0  0  0  0
 13 14  2  0  0  0  0
 13 12  1  0  0  0  0
 14 15  1  0  0  0  0
 15 19  1  0  0  0  0
 15 16  2  0  0  0  0
 18 13  1  0  0  0  0
 20 21  1  0  0  0  0
 21 22  2  0  0  0  0
 22 23  1  0  0  0  0
 23 24  1  0  0  0  0
M  END
>  <minimizedAffinity>
-4.55977821

$$$$

 OpenBabel03272505033D

 24 25  0  0  0  0  0  0  0  0999 V2000
   37.9170   23.9170   33.3020 Cl  0  0  0  0  0  0  0  0  0  0  0  0
   37.8530   25.4410   34.1800 C   0  0  0  0  0  0  0  0  0  0  0  0
   38.4680   25.5130   35.3910 C   0  0  0  0  0  0  0  0  0  0  0  0
   38.3730   26.7430   36.0180 C   0  0  0  0  0  0  0  0  0  0  0  0
   37.6910   27.7950   35.4210 C   0  0  0  0  0  0  0  0  0  0  0  0
   37.0980   27.6640   34.2120 C   0  0  0  0  0  0  0  0  0  0  0  0
   37.1790   26.4430   33.5620 C   0  0  0  0  0  0  0  0  0  0  0  0
   38.8410   26.8780   36.9920 H   0  0  0  0  0  0  0  0  0  0  0  0
   37.6480   28.7450   35.9630 H   0  0  0  0  0  0  0  0  0  0  0  0
   36.5860   28.5280   33.8100 H   0  0  0  0  0  0  0  0  0  0  0  0
   38.6620   23.7450   37.1310 C   0  0  0  0  0  0  0  0  0  0  0  0
   39.1910   24.4080   36.0340 C   0  0  0  0  0  0  0  0  0  0  0  0
   40.4380   24.0080   35.5390 C   0  0  0  0  0  0  0  0  0  0  0  0
   41.0560   22.9800   36.1760 N   0  0  0  0  0  0  0  0  0  0  0  0
   40.5390   22.3540   37.2270 C   0  0  0  0  0  0  0  0  0  0  0  0
   39.3430   22.7300   37.7090 N   0  0  0  0  0  0  0  0  0  0  0  0
   37.6960   24.0910   37.4760 H   0  0  0  0  0  0  0  0  0  0  0  0
   40.8430   24.5330   34.6800 H   0  0  0  0  0  0  0  0  0  0  0  0
   41.0390   21.5360   37.7270 H   0  0  0  0  0  0  0  0  0  0  0  0
   36.5630   26.3170   32.3160 O   0  0  0  0  0  0  0  0  0  0  0  0
   35.8820   27.3920   31.7950 C   0  0  0  0  0  3  0  0  0  0  0  0
   36.4080   28.0740   30.7960 C   0  0  0  0  0  3  0  0  0  0  0  0
   37.7200   27.7370   30.1900 C   0  0  0  0  0  2  0  0  0  0  0  0
   38.2540   28.6550   29.8320 H   0  0  0  0  0  0  0  0  0  0  0  0
  1  2  1  0  0  0  0
  2  3  1  0  0  0  0
  3  4  2  0  0  0  0
  3 12  1  0  0  0  0
  4  8  1  0  0  0  0
  5  9  1  0  0  0  0
  5  4  1  0  0  0  0
  6  5  2  0  0  0  0
  7  2  2  0  0  0  0
  7  6  1  0  0  0  0
 10  6  1  0  0  0  0
 11 17  1  0  0  0  0
 11 16  1  0  0  0  0
 12 11  2  0  0  0  0
 13 12  1  0  0  0  0
 13 14  2  0  0  0  0
 14 15  1  0  0  0  0
 15 16  2  0  0  0  0
 15 19  1  0  0  0  0
 18 13  1  0  0  0  0
 20  7  1  0  0  0  0
 21 20  1  0  0  0  0
 22 21  2  0  0  0  0
 23 22  1  0  0  0  0
 24 23  1  0  0  0  0
M  END
>  <minimizedAffinity>
-4.53588438

$$$$

 OpenBabel03272505033D

 24 25  0  0  0  0  0  0  0  0999 V2000
   39.7470   25.5090   31.8740 Cl  0  0  0  0  0  0  0  0  0  0  0  0
   39.0410   26.2270   33.3180 C   0  0  0  0  0  0  0  0  0  0  0  0
   39.8750   26.5920   34.3300 C   0  0  0  0  0  0  0  0  0  0  0  0
   39.2450   27.1480   35.4290 C   0  0  0  0  0  0  0  0  0  0  0  0
   37.8650   27.3030   35.4560 C   0  0  0  0  0  0  0  0  0  0  0  0
   37.0860   26.9210   34.4170 C   0  0  0  0  0  0  0  0  0  0  0  0
   37.6910   26.3620   33.3030 C   0  0  0  0  0  0  0  0  0  0  0  0
   39.8470   27.4640   36.2800 H   0  0  0  0  0  0  0  0  0  0  0  0
   37.4210   27.7490   36.3510 H   0  0  0  0  0  0  0  0  0  0  0  0
   36.0190   27.0740   34.5100 H   0  0  0  0  0  0  0  0  0  0  0  0
   42.1480   27.3260   33.6340 C   0  0  0  0  0  0  0  0  0  0  0  0
   41.3350   26.4320   34.3150 C   0  0  0  0  0  0  0  0  0  0  0  0
   41.9280   25.3620   34.9960 C   0  0  0  0  0  0  0  0  0  0  0  0
   43.2810   25.2700   34.9450 N   0  0  0  0  0  0  0  0  0  0  0  0
   44.0490   26.1330   34.2890 C   0  0  0  0  0  0  0  0  0  0  0  0
   43.4900   27.1620   33.6320 N   0  0  0  0  0  0  0  0  0  0  0  0
   41.6430   28.1360   33.1240 H   0  0  0  0  0  0  0  0  0  0  0  0
   41.2830   24.6690   35.5250 H   0  0  0  0  0  0  0  0  0  0  0  0
   45.1270   26.0500   34.2540 H   0  0  0  0  0  0  0  0  0  0  0  0
   36.8800   25.9700   32.2380 O   0  0  0  0  0  0  0  0  0  0  0  0
   36.5180   24.6480   32.1230 C   0  0  0  0  0  3  0  0  0  0  0  0
   35.4680   24.3220   31.3950 C   0  0  0  0  0  3  0  0  0  0  0  0
   34.6410   25.3220   30.6770 C   0  0  0  0  0  2  0  0  0  0  0  0
   33.5660   25.0080   30.6300 H   0  0  0  0  0  0  0  0  0  0  0  0
  1  2  1  0  0  0  0
  2  3  1  0  0  0  0
  3  4  2  0  0  0  0
  4  5  1  0  0  0  0
  4  8  1  0  0  0  0
  5  9  1  0  0  0  0
  6 10  1  0  0  0  0
  6  5  2  0  0  0  0
  7  2  2  0  0  0  0
  7  6  1  0  0  0  0
 11 12  1  0  0  0  0
 12  3  1  0  0  0  0
 12 13  2  0  0  0  0
 13 18  1  0  0  0  0
 14 13  1  0  0  0  0
 15 14  2  0  0  0  0
 16 11  2  0  0  0  0
 16 15  1  0  0  0  0
 17 11  1  0  0  0  0
 19 15  1  0  0  0  0
 20  7  1  0  0  0  0
 21 20  1  0  0  0  0
 22 21  2  0  0  0  0
 23 22  1  0  0  0  0
 24 23  1  0  0  0  0
M  END
>  <minimizedAffinity>
-4.42700148

$$$$

 OpenBabel03272505033D

 24 25  0  0  0  0  0  0  0  0999 V2000
   37.6040   24.3260   32.8260 Cl  0  0  0  0  0  0  0  0  0  0  0  0
   37.8740   25.4650   34.1410 C   0  0  0  0  0  0  0  0  0  0  0  0
   37.7990   26.7950   33.8670 C   0  0  0  0  0  0  0  0  0  0  0  0
   38.0230   27.6250   34.9510 C   0  0  0  0  0  0  0  0  0  0  0  0
   38.3020   27.0970   36.2050 C   0  0  0  0  0  0  0  0  0  0  0  0
   38.3640   25.7620   36.4180 C   0  0  0  0  0  0  0  0  0  0  0  0
   38.1420   24.9080   35.3490 C   0  0  0  0  0  0  0  0  0  0  0  0
   37.9800   28.7040   34.8100 H   0  0  0  0  0  0  0  0  0  0  0  0
   38.4710   27.8000   37.0260 H   0  0  0  0  0  0  0  0  0  0  0  0
   38.5850   25.4260   37.4220 H   0  0  0  0  0  0  0  0  0  0  0  0
   38.5170   27.6080   31.6270 C   0  0  0  0  0  0  0  0  0  0  0  0
   37.5070   27.3660   32.5450 C   0  0  0  0  0  0  0  0  0  0  0  0
   36.1870   27.6760   32.1950 C   0  0  0  0  0  0  0  0  0  0  0  0
   35.9820   28.2000   30.9600 N   0  0  0  0  0  0  0  0  0  0  0  0
   36.9590   28.4280   30.0900 C   0  0  0  0  0  0  0  0  0  0  0  0
   38.2280   28.1340   30.4160 N   0  0  0  0  0  0  0  0  0  0  0  0
   39.5200   27.3500   31.9450 H   0  0  0  0  0  0  0  0  0  0  0  0
   35.4030   27.4830   32.9210 H   0  0  0  0  0  0  0  0  0  0  0  0
   36.7840   28.8460   29.1080 H   0  0  0  0  0  0  0  0  0  0  0  0
   38.2090   23.5340   35.5780 O   0  0  0  0  0  0  0  0  0  0  0  0
   39.3920   22.8730   35.3410 C   0  0  0  0  0  3  0  0  0  0  0  0
   40.1440   22.5010   36.3580 C   0  0  0  0  0  3  0  0  0  0  0  0
   39.7780   22.7610   37.7720 C   0  0  0  0  0  2  0  0  0  0  0  0
   40.6850   22.9330   38.4060 H   0  0  0  0  0  0  0  0  0  0  0  0
  1  2  1  0  0  0  0
  2  7  1  0  0  0  0
  3  2  2  0  0  0  0
  3  4  1  0  0  0  0
  4  5  2  0  0  0  0
  5  6  1  0  0  0  0
  5  9  1  0  0  0  0
  6 10  1  0  0  0  0
  7 20  1  0  0  0  0
  7  6  2  0  0  0  0
  8  4  1  0  0  0  0
 11 17  1  0  0  0  0
 11 12  1  0  0  0  0
 12  3  1  0  0  0  0
 13 12  2  0  0  0  0
 13 18  1  0  0  0  0
 14 13  1  0  0  0  0
 15 16  1  0  0  0  0
 15 14  2  0  0  0  0
 16 11  2  0  0  0  0
 19 15  1  0  0  0  0
 21 20  1  0  0  0  0
 21 22  2  0  0  0  0
 22 23  1  0  0  0  0
 23 24  1  0  0  0  0
M  END
>  <minimizedAffinity>
-4.41854048

$$$$

 OpenBabel03272505033D

 24 25  0  0  0  0  0  0  0  0999 V2000
   36.7170   25.3140   32.3890 Cl  0  0  0  0  0  0  0  0  0  0  0  0
   37.3610   26.0350   33.8600 C   0  0  0  0  0  0  0  0  0  0  0  0
   37.2140   27.3760   34.0380 C   0  0  0  0  0  0  0  0  0  0  0  0
   37.7470   27.8660   35.2170 C   0  0  0  0  0  0  0  0  0  0  0  0
   38.3750   27.0190   36.1200 C   0  0  0  0  0  0  0  0  0  0  0  0
   38.4910   25.6910   35.8890 C   0  0  0  0  0  0  0  0  0  0  0  0
   37.9660   25.1730   34.7160 C   0  0  0  0  0  0  0  0  0  0  0  0
   37.6680   28.9310   35.4300 H   0  0  0  0  0  0  0  0  0  0  0  0
   38.7780   27.4620   37.0370 H   0  0  0  0  0  0  0  0  0  0  0  0
   38.9930   25.0950   36.6390 H   0  0  0  0  0  0  0  0  0  0  0  0
   37.1010   28.5430   31.8430 C   0  0  0  0  0  0  0  0  0  0  0  0
   36.5530   28.2820   33.0900 C   0  0  0  0  0  0  0  0  0  0  0  0
   35.3470   28.9010   33.4410 C   0  0  0  0  0  0  0  0  0  0  0  0
   34.7860   29.7270   32.5220 N   0  0  0  0  0  0  0  0  0  0  0  0
   35.3210   29.9690   31.3310 C   0  0  0  0  0  0  0  0  0  0  0  0
   36.4780   29.3810   30.9850 N   0  0  0  0  0  0  0  0  0  0  0  0
   38.0340   28.0400   31.6190 H   0  0  0  0  0  0  0  0  0  0  0  0
   34.9270   28.6900   34.4190 H   0  0  0  0  0  0  0  0  0  0  0  0
   34.8650   30.6290   30.6060 H   0  0  0  0  0  0  0  0  0  0  0  0
   38.0910   23.8030   34.4850 O   0  0  0  0  0  0  0  0  0  0  0  0
   38.0160   22.9360   35.5500 C   0  0  0  0  0  3  0  0  0  0  0  0
   39.0710   22.2180   35.8800 C   0  0  0  0  0  3  0  0  0  0  0  0
   40.3620   22.2960   35.1530 C   0  0  0  0  0  2  0  0  0  0  0  0
   40.8890   21.3080   35.1450 H   0  0  0  0  0  0  0  0  0  0  0  0
  1  2  1  0  0  0  0
  2  3  2  0  0  0  0
  2  7  1  0  0  0  0
  3  4  1  0  0  0  0
  4  8  1  0  0  0  0
  4  5  2  0  0  0  0
  5  9  1  0  0  0  0
  6  5  1  0  0  0  0
  6 10  1  0  0  0  0
  7  6  2  0  0  0  0
 11 12  1  0  0  0  0
 12 13  2  0  0  0  0
 12  3  1  0  0  0  0
 13 18  1  0  0  0  0
 14 13  1  0  0  0  0
 15 14  2  0  0  0  0
 16 15  1  0  0  0  0
 16 11  2  0  0  0  0
 17 11  1  0  0  0  0
 19 15  1  0  0  0  0
 20  7  1  0  0  0  0
 20 21  1  0  0  0  0
 21 22  2  0  0  0  0
 23 22  1  0  0  0  0
 24 23  1  0  0  0  0
M  END
>  <minimizedAffinity>
-4.39794493

$$$$

 OpenBabel03272505033D

 24 25  0  0  0  0  0  0  0  0999 V2000
   35.0480   29.8830   34.6140 Cl  0  0  0  0  0  0  0  0  0  0  0  0
   34.3630   31.0450   35.7450 C   0  0  0  0  0  0  0  0  0  0  0  0
   33.0810   30.8590   36.1620 C   0  0  0  0  0  0  0  0  0  0  0  0
   32.6160   31.8130   37.0490 C   0  0  0  0  0  0  0  0  0  0  0  0
   33.4280   32.8640   37.4550 C   0  0  0  0  0  0  0  0  0  0  0  0
   34.6980   32.9970   37.0050 C   0  0  0  0  0  0  0  0  0  0  0  0
   35.1890   32.0550   36.1160 C   0  0  0  0  0  0  0  0  0  0  0  0
   31.5980   31.7320   37.4270 H   0  0  0  0  0  0  0  0  0  0  0  0
   33.0070   33.5900   38.1580 H   0  0  0  0  0  0  0  0  0  0  0  0
   35.2700   33.8410   37.3660 H   0  0  0  0  0  0  0  0  0  0  0  0
   31.6200   29.7430   34.4850 C   0  0  0  0  0  0  0  0  0  0  0  0
   32.2120   29.7530   35.7390 C   0  0  0  0  0  0  0  0  0  0  0  0
   31.9680   28.6850   36.6110 C   0  0  0  0  0  0  0  0  0  0  0  0
   31.1560   27.6940   36.1620 N   0  0  0  0  0  0  0  0  0  0  0  0
   30.5950   27.6960   34.9580 C   0  0  0  0  0  0  0  0  0  0  0  0
   30.8220   28.7160   34.1150 N   0  0  0  0  0  0  0  0  0  0  0  0
   31.8390   30.5910   33.8490 H   0  0  0  0  0  0  0  0  0  0  0  0
   32.4360   28.7020   37.5900 H   0  0  0  0  0  0  0  0  0  0  0  0
   29.9500   26.9010   34.6110 H   0  0  0  0  0  0  0  0  0  0  0  0
   36.4990   32.2000   35.6580 O   0  0  0  0  0  0  0  0  0  0  0  0
   36.9540   33.4540   35.3200 C   0  0  0  0  0  3  0  0  0  0  0  0
   36.9940   33.8110   34.0510 C   0  0  0  0  0  3  0  0  0  0  0  0
   36.5660   32.9200   32.9460 C   0  0  0  0  0  2  0  0  0  0  0  0
   37.1690   33.0960   32.0190 H   0  0  0  0  0  0  0  0  0  0  0  0
  1  2  1  0  0  0  0
  2  7  2  0  0  0  0
  2  3  1  0  0  0  0
  3  4  2  0  0  0  0
  4  8  1  0  0  0  0
  4  5  1  0  0  0  0
  5  9  1  0  0  0  0
  6 10  1  0  0  0  0
  6  5  2  0  0  0  0
  7  6  1  0  0  0  0
 11 12  1  0  0  0  0
 12  3  1  0  0  0  0
 12 13  2  0  0  0  0
 13 18  1  0  0  0  0
 14 13  1  0  0  0  0
 15 14  2  0  0  0  0
 16 11  2  0  0  0  0
 16 15  1  0  0  0  0
 17 11  1  0  0  0  0
 19 15  1  0  0  0  0
 20  7  1  0  0  0  0
 21 20  1  0  0  0  0
 22 21  2  0  0  0  0
 23 22  1  0  0  0  0
 24 23  1  0  0  0  0
M  END
>  <minimizedAffinity>
-4.36629772

$$$$

 OpenBabel03272505033D

 24 25  0  0  0  0  0  0  0  0999 V2000
   38.3630   27.1240   35.5720 Cl  0  0  0  0  0  0  0  0  0  0  0  0
   38.0420   25.9470   34.3030 C   0  0  0  0  0  0  0  0  0  0  0  0
   38.1360   24.6250   34.6120 C   0  0  0  0  0  0  0  0  0  0  0  0
   37.8690   23.7630   33.5630 C   0  0  0  0  0  0  0  0  0  0  0  0
   37.5370   24.2530   32.3070 C   0  0  0  0  0  0  0  0  0  0  0  0
   37.4600   25.5810   32.0580 C   0  0  0  0  0  0  0  0  0  0  0  0
   37.7210   26.4660   33.0920 C   0  0  0  0  0  0  0  0  0  0  0  0
   37.9240   22.6890   33.7340 H   0  0  0  0  0  0  0  0  0  0  0  0
   37.3370   23.5250   31.5150 H   0  0  0  0  0  0  0  0  0  0  0  0
   37.1940   25.8870   31.0550 H   0  0  0  0  0  0  0  0  0  0  0  0
   37.5930   24.1530   36.9940 C   0  0  0  0  0  0  0  0  0  0  0  0
   38.4870   24.0940   35.9360 C   0  0  0  0  0  0  0  0  0  0  0  0
   39.7450   23.5170   36.1450 C   0  0  0  0  0  0  0  0  0  0  0  0
   40.0090   23.0440   37.3900 N   0  0  0  0  0  0  0  0  0  0  0  0
   39.1440   23.1070   38.3960 C   0  0  0  0  0  0  0  0  0  0  0  0
   37.9350   23.6590   38.2050 N   0  0  0  0  0  0  0  0  0  0  0  0
   36.6330   24.6080   36.7820 H   0  0  0  0  0  0  0  0  0  0  0  0
   40.4380   23.4760   35.3110 H   0  0  0  0  0  0  0  0  0  0  0  0
   39.3650   22.7270   39.3840 H   0  0  0  0  0  0  0  0  0  0  0  0
   37.6390   27.8330   32.8260 O   0  0  0  0  0  0  0  0  0  0  0  0
   36.5390   28.3210   32.1590 C   0  0  0  0  0  3  0  0  0  0  0  0
   35.6240   29.0000   32.8220 C   0  0  0  0  0  3  0  0  0  0  0  0
   35.7170   29.2750   34.2760 C   0  0  0  0  0  2  0  0  0  0  0  0
   34.7040   29.3040   34.7540 H   0  0  0  0  0  0  0  0  0  0  0  0
  2  3  1  0  0  0  0
  2  1  1  0  0  0  0
  3 12  1  0  0  0  0
  4  8  1  0  0  0  0
  4  3  2  0  0  0  0
  5  4  1  0  0  0  0
  6  5  2  0  0  0  0
  6  7  1  0  0  0  0
  7  2  2  0  0  0  0
  9  5  1  0  0  0  0
 10  6  1  0  0  0  0
 11 16  1  0  0  0  0
 12 13  1  0  0  0  0
 12 11  2  0  0  0  0
 13 14  2  0  0  0  0
 14 15  1  0  0  0  0
 15 19  1  0  0  0  0
 16 15  2  0  0  0  0
 17 11  1  0  0  0  0
 18 13  1  0  0  0  0
 20  7  1  0  0  0  0
 21 22  2  0  0  0  0
 21 20  1  0  0  0  0
 22 23  1  0  0  0  0
 23 24  1  0  0  0  0
M  END
>  <minimizedAffinity>
-4.34712076

$$$$

 OpenBabel03272505033D

 24 25  0  0  0  0  0  0  0  0999 V2000
   37.8340   27.5940   35.2340 Cl  0  0  0  0  0  0  0  0  0  0  0  0
   37.8000   26.0740   34.3460 C   0  0  0  0  0  0  0  0  0  0  0  0
   37.4230   26.1000   33.0400 C   0  0  0  0  0  0  0  0  0  0  0  0
   37.4210   24.8670   32.4120 C   0  0  0  0  0  0  0  0  0  0  0  0
   37.7820   23.7170   33.1020 C   0  0  0  0  0  0  0  0  0  0  0  0
   38.1490   23.7530   34.4040 C   0  0  0  0  0  0  0  0  0  0  0  0
   38.1600   24.9760   35.0560 C   0  0  0  0  0  0  0  0  0  0  0  0
   37.1300   24.8070   31.3640 H   0  0  0  0  0  0  0  0  0  0  0  0
   37.7620   22.7690   32.5550 H   0  0  0  0  0  0  0  0  0  0  0  0
   38.4170   22.8170   34.8740 H   0  0  0  0  0  0  0  0  0  0  0  0
   35.7970   27.9000   32.4830 C   0  0  0  0  0  0  0  0  0  0  0  0
   37.0380   27.3090   32.2990 C   0  0  0  0  0  0  0  0  0  0  0  0
   37.9320   27.8830   31.3870 C   0  0  0  0  0  0  0  0  0  0  0  0
   37.5170   28.9990   30.7340 N   0  0  0  0  0  0  0  0  0  0  0  0
   36.3260   29.5550   30.9200 C   0  0  0  0  0  0  0  0  0  0  0  0
   35.4610   29.0120   31.7920 N   0  0  0  0  0  0  0  0  0  0  0  0
   35.1430   27.4190   33.1990 H   0  0  0  0  0  0  0  0  0  0  0  0
   38.9000   27.4120   31.2500 H   0  0  0  0  0  0  0  0  0  0  0  0
   36.0060   30.4450   30.3940 H   0  0  0  0  0  0  0  0  0  0  0  0
   38.5380   25.0040   36.3990 O   0  0  0  0  0  0  0  0  0  0  0  0
   37.7730   24.3310   37.3240 C   0  0  0  0  0  3  0  0  0  0  0  0
   38.3230   23.3830   38.0570 C   0  0  0  0  0  3  0  0  0  0  0  0
   39.7500   22.9950   37.9380 C   0  0  0  0  0  2  0  0  0  0  0  0
   39.8950   21.9020   38.1400 H   0  0  0  0  0  0  0  0  0  0  0  0
  2  7  1  0  0  0  0
  2  1  1  0  0  0  0
  3  2  2  0  0  0  0
  4  3  1  0  0  0  0
  4  5  2  0  0  0  0
  5  6  1  0  0  0  0
  6 10  1  0  0  0  0
  6  7  2  0  0  0  0
  7 20  1  0  0  0  0
  8  4  1  0  0  0  0
  9  5  1  0  0  0  0
 11 17  1  0  0  0  0
 12 11  1  0  0  0  0
 12  3  1  0  0  0  0
 13 12  2  0  0  0  0
 14 15  2  0  0  0  0
 14 13  1  0  0  0  0
 15 16  1  0  0  0  0
 16 11  2  0  0  0  0
 18 13  1  0  0  0  0
 19 15  1  0  0  0  0
 20 21  1  0  0  0  0
 21 22  2  0  0  0  0
 23 22  1  0  0  0  0
 23 24  1  0  0  0  0
M  END
>  <minimizedAffinity>
-4.34200382

$$$$
