
 OpenBabel03272505023D

 24 25  0  0  0  0  0  0  0  0999 V2000
   37.7120   30.4590   48.1990 Cl  0  0  0  0  0  0  0  0  0  0  0  0
   36.7240   30.3670   46.7440 C   0  0  0  0  0  0  0  0  0  0  0  0
   37.2450   30.8420   45.5810 C   0  0  0  0  0  0  0  0  0  0  0  0
   36.4090   30.7340   44.4840 C   0  0  0  0  0  0  0  0  0  0  0  0
   35.1420   30.1790   44.6070 C   0  0  0  0  0  0  0  0  0  0  0  0
   34.6770   29.7220   45.7930 C   0  0  0  0  0  0  0  0  0  0  0  0
   35.4940   29.8180   46.9070 C   0  0  0  0  0  0  0  0  0  0  0  0
   36.7570   31.0930   43.5160 H   0  0  0  0  0  0  0  0  0  0  0  0
   34.5240   30.1190   43.7060 H   0  0  0  0  0  0  0  0  0  0  0  0
   33.6800   29.3020   45.8100 H   0  0  0  0  0  0  0  0  0  0  0  0
   39.7260   30.6540   45.5340 C   0  0  0  0  0  0  0  0  0  0  0  0
   38.5830   31.4320   45.4380 C   0  0  0  0  0  0  0  0  0  0  0  0
   38.7180   32.8050   45.2000 C   0  0  0  0  0  0  0  0  0  0  0  0
   39.9800   33.2900   45.0770 N   0  0  0  0  0  0  0  0  0  0  0  0
   41.0670   32.5340   45.1710 C   0  0  0  0  0  0  0  0  0  0  0  0
   40.9480   31.2150   45.4000 N   0  0  0  0  0  0  0  0  0  0  0  0
   39.5690   29.5980   45.7180 H   0  0  0  0  0  0  0  0  0  0  0  0
   37.8170   33.4060   45.1260 H   0  0  0  0  0  0  0  0  0  0  0  0
   42.0680   32.9300   45.0720 H   0  0  0  0  0  0  0  0  0  0  0  0
   35.0060   29.3460   48.1260 O   0  0  0  0  0  0  0  0  0  0  0  0
   34.3270   30.2090   48.9540 C   0  0  0  0  0  3  0  0  0  0  0  0
   34.5490   30.1730   50.2530 C   0  0  0  0  0  3  0  0  0  0  0  0
   35.5090   29.2360   50.8840 C   0  0  0  0  0  2  0  0  0  0  0  0
   35.1690   28.9270   51.9070 H   0  0  0  0  0  0  0  0  0  0  0  0
  2  7  1  0  0  0  0
  2  1  1  0  0  0  0
  3  2  2  0  0  0  0
  4  5  2  0  0  0  0
  4  3  1  0  0  0  0
  5  6  1  0  0  0  0
  6 10  1  0  0  0  0
  6  7  2  0  0  0  0
  7 20  1  0  0  0  0
  8  4  1  0  0  0  0
  9  5  1  0  0  0  0
 11 17  1  0  0  0  0
 12 11  1  0  0  0  0
 12  3  1  0  0  0  0
 13 12  2  0  0  0  0
 14 15  2  0  0  0  0
 14 13  1  0  0  0  0
 15 16  1  0  0  0  0
 16 11  2  0  0  0  0
 18 13  1  0  0  0  0
 19 15  1  0  0  0  0
 20 21  1  0  0  0  0
 21 22  2  0  0  0  0
 22 23  1  0  0  0  0
 23 24  1  0  0  0  0
M  END
>  <minimizedAffinity>
-4.3732872

>  <minimizedRMSD>
6.50584078

$$$$
