
 OpenBabel03272502243D

 25 26  0  0  0  0  0  0  0  0999 V2000
   37.6710   30.3590   51.1140 C   0  0  0  0  0  0  0  0  0  0  0  0
   38.0970   30.9240   49.8970 C   0  0  0  0  0  0  0  0  0  0  0  0
   37.4130   30.5700   48.7480 C   0  0  0  0  0  0  0  0  0  0  0  0
   36.3800   29.7080   48.8540 N   0  0  0  0  0  0  0  0  0  0  0  0
   35.9890   29.1780   50.0350 C   0  0  0  0  0  0  0  0  0  0  0  0
   36.6420   29.5110   51.1570 N   0  0  0  0  0  0  0  0  0  0  0  0
   38.2320   30.6600   51.9890 H   0  0  0  0  0  0  0  0  0  0  0  0
   38.9270   31.6180   49.8030 H   0  0  0  0  0  0  0  0  0  0  0  0
   37.7370   31.0660   47.4140 C   0  0  0  0  0  0  0  0  0  0  0  0
   36.9930   30.7250   46.3030 C   0  0  0  0  0  0  0  0  0  0  0  0
   37.2930   31.1840   45.0350 C   0  0  0  0  0  0  0  0  0  0  0  0
   38.3640   32.0060   44.8640 N   0  0  0  0  0  0  0  0  0  0  0  0
   39.0680   32.3220   45.9490 C   0  0  0  0  0  0  0  0  0  0  0  0
   38.7920   31.8860   47.1920 N   0  0  0  0  0  0  0  0  0  0  0  0
   36.1400   30.0680   46.4510 H   0  0  0  0  0  0  0  0  0  0  0  0
   36.6610   30.8720   44.2120 H   0  0  0  0  0  0  0  0  0  0  0  0
   40.2400   33.2160   45.7940 C   0  0  0  0  0  0  0  0  0  0  0  0
   40.3770   33.9600   46.9610 F   0  0  0  0  0  0  0  0  0  0  0  0
   41.4040   32.4990   45.5590 F   0  0  0  0  0  0  0  0  0  0  0  0
   40.0690   34.1210   44.7790 F   0  0  0  0  0  0  0  0  0  0  0  0
   34.9150   28.3080   50.0020 O   0  0  0  0  0  0  0  0  0  0  0  0
   33.7820   28.5040   49.2580 C   0  0  0  0  0  2  0  0  0  0  0  0
   33.1370   27.9590   48.2360 C   0  0  0  0  0  2  0  0  0  0  0  0
   33.7920   26.7510   47.6670 C   0  0  0  0  0  2  0  0  0  0  0  0
   33.4240   26.5230   46.6470 H   0  0  0  0  0  0  0  0  0  0  0  0
  1  6  1  0  0  0  0
  1  7  1  0  0  0  0
  2  1  2  0  0  0  0
  3  4  2  0  0  0  0
  3  2  1  0  0  0  0
  4  5  1  0  0  0  0
  5  6  2  0  0  0  0
  8  2  1  0  0  0  0
  9  3  1  0  0  0  0
 10 15  1  0  0  0  0
 10  9  2  0  0  0  0
 11 10  1  0  0  0  0
 12 11  2  0  0  0  0
 12 13  1  0  0  0  0
 13 14  2  0  0  0  0
 14  9  1  0  0  0  0
 16 11  1  0  0  0  0
 17 13  1  0  0  0  0
 17 18  1  0  0  0  0
 19 17  1  0  0  0  0
 20 17  1  0  0  0  0
 21  5  1  0  0  0  0
 22 21  1  0  0  0  0
 23 22  1  0  0  0  0
 24 23  1  0  0  0  0
 25 24  1  0  0  0  0
M  END
>  <minimizedAffinity>
-6.34529495

>  <minimizedRMSD>
0.593257427

$$$$
