
 OpenBabel03272507163D

 21 22  0  0  1  0  0  0  0  0999 V2000
   36.7150   31.0160   50.5220 C   0  0  1  0  0  0  0  0  0  0  0  0
   36.0660   29.7450   50.7680 C   0  0  2  0  0  0  0  0  0  0  0  0
   37.4980   29.9100   51.2380 C   0  0  0  0  0  0  0  0  0  0  0  0
   36.6670   31.9130   51.1750 H   0  0  0  0  0  0  0  0  0  0  0  0
   35.2550   29.7030   51.5320 H   0  0  0  0  0  0  0  0  0  0  0  0
   37.6170   29.9530   52.3320 H   0  0  0  0  0  0  0  0  0  0  0  0
   38.2950   29.3860   50.6930 H   0  0  0  0  0  0  0  0  0  0  0  0
   37.3000   31.3450   49.1660 C   0  0  0  0  0  0  0  0  0  0  0  0
   38.3780   32.2300   49.1560 C   0  0  0  0  0  0  0  0  0  0  0  0
   38.8820   32.5320   47.8920 C   0  0  0  0  0  0  0  0  0  0  0  0
   38.3380   31.9850   46.7730 N   0  0  0  0  0  0  0  0  0  0  0  0
   37.2870   31.1280   46.8310 C   0  0  0  0  0  0  0  0  0  0  0  0
   36.7580   30.8010   48.0450 N   0  0  0  0  0  0  0  0  0  0  0  0
   38.7660   32.6320   50.0810 H   0  0  0  0  0  0  0  0  0  0  0  0
   39.7200   33.2160   47.8500 H   0  0  0  0  0  0  0  0  0  0  0  0
   36.8360   30.6800   45.9570 H   0  0  0  0  0  0  0  0  0  0  0  0
   35.8850   28.8510   49.7090 O   0  0  0  0  0  0  0  0  0  0  0  0
   34.7590   28.1640   49.3710 C   0  0  0  0  0  3  0  0  0  0  0  0
   34.2980   27.9590   48.1730 C   0  0  0  0  0  3  0  0  0  0  0  0
   33.0510   27.1870   47.9560 C   0  0  0  0  0  2  0  0  0  0  0  0
   32.8570   26.5850   48.8670 H   0  0  0  0  0  0  0  0  0  0  0  0
  1  2  1  0  0  0  0
  1  4  1  1  0  0  0
  1  3  1  0  0  0  0
  2  3  1  0  0  0  0
  2  5  1  1  0  0  0
  3  6  1  0  0  0  0
  7  3  1  0  0  0  0
  8  1  1  0  0  0  0
  9  8  1  0  0  0  0
  9 14  1  0  0  0  0
 10  9  2  0  0  0  0
 11 12  2  0  0  0  0
 11 10  1  0  0  0  0
 12 13  1  0  0  0  0
 13  8  2  0  0  0  0
 15 10  1  0  0  0  0
 16 12  1  0  0  0  0
 17  2  1  0  0  0  0
 18 17  1  0  0  0  0
 19 18  2  0  0  0  0
 20 19  1  0  0  0  0
 20 21  1  0  0  0  0
M  END
>  <minimizedAffinity>
-4.60986519

>  <minimizedRMSD>
1.22589529

$$$$
