
 OpenBabel03272502303D

 19 19  0  0  0  0  0  0  0  0999 V2000
   38.3130   30.9590   47.7800 C   0  0  0  0  0  0  0  0  0  0  0  0
   38.8360   32.1630   47.7630 C   0  0  0  0  0  0  0  0  0  0  0  0
   37.4290   30.2810   51.3190 C   0  0  0  0  0  0  0  0  0  0  0  0
   38.0580   30.7760   50.1760 C   0  0  0  0  0  0  0  0  0  0  0  0
   37.6250   30.4200   48.9180 C   0  0  0  0  0  0  0  0  0  0  0  0
   36.5650   29.5730   48.8220 N   0  0  0  0  0  0  0  0  0  0  0  0
   35.9750   29.1080   49.9270 C   0  0  0  0  0  0  0  0  0  0  0  0
   36.3900   29.4490   51.1730 N   0  0  0  0  0  0  0  0  0  0  0  0
   37.6970   30.5010   52.3470 H   0  0  0  0  0  0  0  0  0  0  0  0
   38.8780   31.4320   50.3420 H   0  0  0  0  0  0  0  0  0  0  0  0
   35.1190   28.4230   49.8170 H   0  0  0  0  0  0  0  0  0  0  0  0
   39.5330   32.6300   46.5190 C   0  0  0  0  0  0  0  0  0  0  0  0
   40.6380   32.4780   46.6810 H   0  0  0  0  0  0  0  0  0  0  0  0
   39.2980   33.6680   46.3100 H   0  0  0  0  0  0  0  0  0  0  0  0
   39.0570   31.5130   45.1710 S   0  0  0  0  0  0  0  0  0  0  0  0
   40.3930   31.0460   44.1230 C   0  0  0  0  0  0  0  0  0  0  0  0
   40.4920   30.1740   43.1110 C   0  0  0  0  0  0  0  0  0  0  0  0
   41.3410   29.5280   42.0540 C   0  0  0  0  0  0  0  0  0  0  0  0
   41.3710   28.4390   42.2960 H   0  0  0  0  0  0  0  0  0  0  0  0
  1  5  1  0  0  0  0
  2  1  2  0  0  0  0
  3  9  1  0  0  0  0
  4 10  1  0  0  0  0
  4  3  2  0  0  0  0
  5  4  1  0  0  0  0
  6  5  2  0  0  0  0
  6  7  1  0  0  0  0
  7  8  2  0  0  0  0
  8  3  1  0  0  0  0
 11  7  1  0  0  0  0
 12 13  1  0  0  0  0
 12  2  1  0  0  0  0
 14 12  1  0  0  0  0
 15 12  1  0  0  0  0
 16 15  1  0  0  0  0
 17 16  2  0  0  0  0
 18 19  1  0  0  0  0
 18 17  1  0  0  0  0
M  END
>  <minimizedAffinity>
-4.40619802

>  <minimizedRMSD>
1.70597649

$$$$
