
 OpenBabel03272507163D

 21 22  0  0  1  0  0  0  0  0999 V2000
   36.7140   31.0180   50.5210 C   0  0  1  0  0  0  0  0  0  0  0  0
   36.0660   29.7470   50.7680 C   0  0  2  0  0  0  0  0  0  0  0  0
   37.4970   29.9130   51.2390 C   0  0  0  0  0  0  0  0  0  0  0  0
   36.6650   31.9160   51.1740 H   0  0  0  0  0  0  0  0  0  0  0  0
   35.2530   29.7060   51.5320 H   0  0  0  0  0  0  0  0  0  0  0  0
   37.6150   29.9580   52.3330 H   0  0  0  0  0  0  0  0  0  0  0  0
   38.2940   29.3890   50.6950 H   0  0  0  0  0  0  0  0  0  0  0  0
   37.2990   31.3460   49.1660 C   0  0  0  0  0  0  0  0  0  0  0  0
   38.3780   32.2310   49.1550 C   0  0  0  0  0  0  0  0  0  0  0  0
   38.8830   32.5310   47.8910 C   0  0  0  0  0  0  0  0  0  0  0  0
   38.3390   31.9840   46.7720 N   0  0  0  0  0  0  0  0  0  0  0  0
   37.2880   31.1280   46.8310 C   0  0  0  0  0  0  0  0  0  0  0  0
   36.7570   30.8010   48.0440 N   0  0  0  0  0  0  0  0  0  0  0  0
   38.7660   32.6330   50.0800 H   0  0  0  0  0  0  0  0  0  0  0  0
   39.7210   33.2150   47.8490 H   0  0  0  0  0  0  0  0  0  0  0  0
   36.8360   30.6790   45.9560 H   0  0  0  0  0  0  0  0  0  0  0  0
   35.8860   28.8520   49.7100 O   0  0  0  0  0  0  0  0  0  0  0  0
   34.7590   28.1640   49.3720 C   0  0  0  0  0  3  0  0  0  0  0  0
   34.2980   27.9580   48.1730 C   0  0  0  0  0  3  0  0  0  0  0  0
   33.0530   27.1870   47.9560 C   0  0  0  0  0  2  0  0  0  0  0  0
   32.8570   26.5860   48.8670 H   0  0  0  0  0  0  0  0  0  0  0  0
  1  2  1  0  0  0  0
  1  4  1  1  0  0  0
  1  3  1  0  0  0  0
  2  3  1  0  0  0  0
  2  5  1  1  0  0  0
  3  6  1  0  0  0  0
  7  3  1  0  0  0  0
  8  1  1  0  0  0  0
  9  8  1  0  0  0  0
  9 14  1  0  0  0  0
 10  9  2  0  0  0  0
 11 12  2  0  0  0  0
 11 10  1  0  0  0  0
 12 13  1  0  0  0  0
 13  8  2  0  0  0  0
 15 10  1  0  0  0  0
 16 12  1  0  0  0  0
 17  2  1  0  0  0  0
 18 17  1  0  0  0  0
 19 18  2  0  0  0  0
 20 19  1  0  0  0  0
 20 21  1  0  0  0  0
M  END
>  <minimizedAffinity>
-4.60941887

>  <minimizedRMSD>
1.16340971

$$$$
