
 OpenBabel03262522273D

 41 43  0  0  0  0  0  0  0  0999 V2000
   38.4060   32.8190   48.4540 C   0  0  0  0  0  0  0  0  0  0  0  0
   38.8320   32.1420   47.3160 C   0  0  0  0  0  0  0  0  0  0  0  0
   38.4760   30.8230   47.2090 C   0  0  0  0  0  0  0  0  0  0  0  0
   37.7410   30.2570   48.2010 N   0  0  0  0  0  0  0  0  0  0  0  0
   37.3600   30.9330   49.2570 C   0  0  0  0  0  0  0  0  0  0  0  0
   37.6820   32.2630   49.4310 N   0  0  0  0  0  0  0  0  0  0  0  0
   38.6560   33.8620   48.5940 H   0  0  0  0  0  0  0  0  0  0  0  0
   38.7960   30.2630   46.3270 H   0  0  0  0  0  0  0  0  0  0  0  0
   39.5600   32.8120   46.3980 O   0  0  0  0  0  0  0  0  0  0  0  0
   39.4930   32.4470   45.0670 C   0  0  0  0  0  0  0  0  0  0  0  0
   40.4650   31.8480   44.3000 C   0  0  0  0  0  0  0  0  0  0  0  0
   40.2150   31.5610   42.9990 C   0  0  0  0  0  0  0  0  0  0  0  0
   39.0030   31.8760   42.4870 C   0  0  0  0  0  0  0  0  0  0  0  0
   38.0210   32.4810   43.2600 C   0  0  0  0  0  0  0  0  0  0  0  0
   38.2970   32.7540   44.5500 N   0  0  0  0  0  0  0  0  0  0  0  0
   41.3930   31.6430   44.8240 H   0  0  0  0  0  0  0  0  0  0  0  0
   40.9890   31.0860   42.4000 H   0  0  0  0  0  0  0  0  0  0  0  0
   38.7370   31.6770   41.4630 H   0  0  0  0  0  0  0  0  0  0  0  0
   36.6640   32.8250   42.6580 C   0  0  0  0  0  0  0  0  0  0  0  0
   36.6680   33.9100   42.4230 H   0  0  0  0  0  0  0  0  0  0  0  0
   35.9550   32.7220   43.5260 H   0  0  0  0  0  0  0  0  0  0  0  0
   36.4360   32.1700   41.8160 H   0  0  0  0  0  0  0  0  0  0  0  0
   36.3940   29.9320   50.4140 S   0  0  0  0  0  0  0  0  0  0  0  0
   34.6540   30.3010   49.9920 C   0  0  0  0  0  0  0  0  0  0  0  0
   34.4970   31.3960   49.8580 H   0  0  0  0  0  0  0  0  0  0  0  0
   33.9640   29.9060   50.7670 H   0  0  0  0  0  0  0  0  0  0  0  0
   34.4880   27.5610   49.8140 F   0  0  0  0  0  0  0  0  0  0  0  0
   34.3400   28.3110   48.6920 C   0  0  0  0  0  0  0  0  0  0  0  0
   34.4010   29.6950   48.6460 C   0  0  0  0  0  0  0  0  0  0  0  0
   34.2420   30.3770   47.4790 C   0  0  0  0  0  0  0  0  0  0  0  0
   34.0090   29.7020   46.2740 C   0  0  0  0  0  0  0  0  0  0  0  0
   33.9440   28.3130   46.2960 C   0  0  0  0  0  0  0  0  0  0  0  0
   34.1100   27.6380   47.5020 C   0  0  0  0  0  0  0  0  0  0  0  0
   34.3050   31.4520   47.5330 H   0  0  0  0  0  0  0  0  0  0  0  0
   33.8860   30.2750   45.3580 H   0  0  0  0  0  0  0  0  0  0  0  0
   33.7620   27.8260   45.3480 H   0  0  0  0  0  0  0  0  0  0  0  0
   34.0250   26.2650   47.4110 O   0  0  0  0  0  0  0  0  0  0  0  0
   33.2220   25.6030   46.5150 C   0  0  0  0  0  0  0  0  0  0  0  0
   33.7430   24.6400   45.7830 C   0  0  0  0  0  0  0  0  0  0  0  0
   35.1410   24.1980   45.8430 C   0  0  0  0  0  0  0  0  0  0  0  0
   35.2590   23.1800   46.2410 H   0  0  0  0  0  0  0  0  0  0  0  0
  1  7  1  0  0  0  0
  1  6  1  0  0  0  0
  2  1  2  0  0  0  0
  3  2  1  0  0  0  0
  3  4  2  0  0  0  0
  4  5  1  0  0  0  0
  5  6  2  0  0  0  0
  5 23  1  0  0  0  0
  8  3  1  0  0  0  0
  9  2  1  0  0  0  0
 10  9  1  0  0  0  0
 11 16  1  0  0  0  0
 11 10  2  0  0  0  0
 12 11  1  0  0  0  0
 13 12  2  0  0  0  0
 13 14  1  0  0  0  0
 14 15  2  0  0  0  0
 15 10  1  0  0  0  0
 17 12  1  0  0  0  0
 18 13  1  0  0  0  0
 19 14  1  0  0  0  0
 19 21  1  0  0  0  0
 20 19  1  0  0  0  0
 22 19  1  0  0  0  0
 24 23  1  0  0  0  0
 24 26  1  0  0  0  0
 25 24  1  0  0  0  0
 28 27  1  0  0  0  0
 29 28  1  0  0  0  0
 29 24  1  0  0  0  0
 30 34  1  0  0  0  0
 30 29  2  0  0  0  0
 31 32  2  0  0  0  0
 31 30  1  0  0  0  0
 32 33  1  0  0  0  0
 33 28  2  0  0  0  0
 35 31  1  0  0  0  0
 36 32  1  0  0  0  0
 37 33  1  0  0  0  0
 38 37  1  0  0  0  0
 39 40  1  0  0  0  0
 39 38  2  0  0  0  0
 40 41  1  0  0  0  0
M  END
>  <minimizedAffinity>
-5.68456459

>  <minimizedRMSD>
1.27164006

$$$$
