
 OpenBabel03272507163D

 21 22  0  0  1  0  0  0  0  0999 V2000
   36.5730   31.1410   50.4650 C   0  0  1  0  0  0  0  0  0  0  0  0
   35.7180   29.9920   50.2550 C   0  0  2  0  0  0  0  0  0  0  0  0
   36.9870   29.7900   51.0590 C   0  0  0  0  0  0  0  0  0  0  0  0
   36.4770   31.8880   51.2830 H   0  0  0  0  0  0  0  0  0  0  0  0
   34.7380   29.9570   50.7850 H   0  0  0  0  0  0  0  0  0  0  0  0
   36.8220   29.5980   52.1320 H   0  0  0  0  0  0  0  0  0  0  0  0
   37.8200   29.2420   50.6000 H   0  0  0  0  0  0  0  0  0  0  0  0
   37.5290   31.6110   49.3920 C   0  0  0  0  0  0  0  0  0  0  0  0
   38.4770   32.5600   49.7790 C   0  0  0  0  0  0  0  0  0  0  0  0
   39.3300   32.9900   48.7640 C   0  0  0  0  0  0  0  0  0  0  0  0
   39.2180   32.4990   47.5010 N   0  0  0  0  0  0  0  0  0  0  0  0
   38.2800   31.5770   47.1700 C   0  0  0  0  0  0  0  0  0  0  0  0
   37.4210   31.1240   48.1280 N   0  0  0  0  0  0  0  0  0  0  0  0
   38.5150   32.9110   50.8000 H   0  0  0  0  0  0  0  0  0  0  0  0
   40.0770   33.7260   49.0330 H   0  0  0  0  0  0  0  0  0  0  0  0
   38.1700   31.1720   46.1740 H   0  0  0  0  0  0  0  0  0  0  0  0
   35.7010   29.3710   49.0030 O   0  0  0  0  0  0  0  0  0  0  0  0
   34.8960   28.3580   48.5770 C   0  0  0  0  0  3  0  0  0  0  0  0
   35.1480   27.0820   48.6350 C   0  0  0  0  0  3  0  0  0  0  0  0
   34.1710   26.0890   48.1310 C   0  0  0  0  0  2  0  0  0  0  0  0
   33.1790   26.5800   48.0740 H   0  0  0  0  0  0  0  0  0  0  0  0
  1  3  1  0  0  0  0
  1  4  1  1  0  0  0
  2  1  1  0  0  0  0
  2  5  1  1  0  0  0
  2  3  1  0  0  0  0
  3  6  1  0  0  0  0
  7  3  1  0  0  0  0
  8  9  1  0  0  0  0
  8  1  1  0  0  0  0
  9 14  1  0  0  0  0
 10 15  1  0  0  0  0
 10  9  2  0  0  0  0
 11 10  1  0  0  0  0
 12 11  2  0  0  0  0
 12 13  1  0  0  0  0
 13  8  2  0  0  0  0
 16 12  1  0  0  0  0
 17  2  1  0  0  0  0
 18 19  2  0  0  0  0
 18 17  1  0  0  0  0
 20 19  1  0  0  0  0
 21 20  1  0  0  0  0
M  END
>  <minimizedAffinity>
-2.05318069

>  <minimizedRMSD>
1.24851596

$$$$
