
 OpenBabel03272504253D

 34 36  0  0  0  0  0  0  0  0999 V2000
   36.5760   24.1780   31.4740 C   0  0  0  0  0  0  0  0  0  0  0  0
   35.6630   25.0910   31.1400 C   0  0  0  0  0  0  0  0  0  0  0  0
   35.8560   26.3910   31.3280 C   0  0  0  0  0  0  0  0  0  0  0  0
   37.0250   26.7860   31.8720 N   0  0  0  0  0  0  0  0  0  0  0  0
   37.9640   25.8920   32.2120 C   0  0  0  0  0  0  0  0  0  0  0  0
   37.7490   24.5860   32.0170 N   0  0  0  0  0  0  0  0  0  0  0  0
   34.7150   24.8230   30.6980 H   0  0  0  0  0  0  0  0  0  0  0  0
   35.1400   27.1750   31.0750 H   0  0  0  0  0  0  0  0  0  0  0  0
   39.3070   26.4350   34.1780 C   0  0  0  0  0  0  0  0  0  0  0  0
   39.1960   26.3970   32.7870 C   0  0  0  0  0  0  0  0  0  0  0  0
   40.1980   26.7800   31.9300 C   0  0  0  0  0  0  0  0  0  0  0  0
   41.4130   27.2400   32.4240 C   0  0  0  0  0  0  0  0  0  0  0  0
   41.6040   27.3080   33.7970 C   0  0  0  0  0  0  0  0  0  0  0  0
   40.5490   26.9060   34.5680 C   0  0  0  0  0  0  0  0  0  0  0  0
   40.0460   26.7250   30.8470 H   0  0  0  0  0  0  0  0  0  0  0  0
   42.1690   27.5310   31.7120 H   0  0  0  0  0  0  0  0  0  0  0  0
   42.5200   27.6540   34.2050 H   0  0  0  0  0  0  0  0  0  0  0  0
   40.7340   26.9710   35.6530 H   0  0  0  0  0  0  0  0  0  0  0  0
   38.0760   25.9350   35.2470 S   0  0  0  0  0  0  0  0  0  0  0  0
   37.8240   24.5550   34.7270 O   0  0  0  0  0  0  0  0  0  0  0  0
   36.7610   26.5470   34.9730 O   0  0  0  0  0  0  0  0  0  0  0  0
   38.2630   25.0300   36.6890 C   0  0  0  0  0  3  0  0  0  0  0  0
   38.6820   23.9600   37.2810 C   0  0  0  0  0  3  0  0  0  0  0  0
   38.6850   23.4450   38.6770 C   0  0  0  0  0  2  0  0  0  0  0  0
   38.2100   22.4440   38.6650 H   0  0  0  0  0  0  0  0  0  0  0  0
   34.9850   20.8810   31.8730 C   0  0  0  0  0  0  0  0  0  0  0  0
   35.9290   20.0270   31.2420 C   0  0  0  0  0  0  0  0  0  0  0  0
   37.0930   20.6150   30.6910 C   0  0  0  0  0  0  0  0  0  0  0  0
   37.2550   21.9690   30.7900 N   0  0  0  0  0  0  0  0  0  0  0  0
   36.3540   22.7370   31.3850 C   0  0  0  0  0  0  0  0  0  0  0  0
   35.2160   22.1920   31.9290 N   0  0  0  0  0  0  0  0  0  0  0  0
   34.0750   20.5110   32.3170 H   0  0  0  0  0  0  0  0  0  0  0  0
   35.7340   18.9710   31.2030 H   0  0  0  0  0  0  0  0  0  0  0  0
   37.8180   19.9760   30.2090 H   0  0  0  0  0  0  0  0  0  0  0  0
  1  6  1  0  0  0  0
  2  3  1  0  0  0  0
  2  1  2  0  0  0  0
  3  4  2  0  0  0  0
  4  5  1  0  0  0  0
  5 10  1  0  0  0  0
  6  5  2  0  0  0  0
  7  2  1  0  0  0  0
  8  3  1  0  0  0  0
  9 14  1  0  0  0  0
  9 19  1  0  0  0  0
 10  9  2  0  0  0  0
 11 12  2  0  0  0  0
 11 10  1  0  0  0  0
 12 13  1  0  0  0  0
 13 17  1  0  0  0  0
 13 14  2  0  0  0  0
 14 18  1  0  0  0  0
 15 11  1  0  0  0  0
 16 12  1  0  0  0  0
 19 22  1  0  0  0  0
 20 19  2  0  0  0  0
 21 19  2  0  0  0  0
 22 23  2  0  0  0  0
 23 24  1  0  0  0  0
 25 24  1  0  0  0  0
 26 31  1  0  0  0  0
 26 32  1  0  0  0  0
 27 26  2  0  0  0  0
 28 29  2  0  0  0  0
 28 27  1  0  0  0  0
 29 30  1  0  0  0  0
 30  1  1  0  0  0  0
 30 31  2  0  0  0  0
 33 27  1  0  0  0  0
 34 28  1  0  0  0  0
M  END
>  <minimizedAffinity>
-5.69146919

$$$$

 OpenBabel03272504253D

 34 36  0  0  0  0  0  0  0  0999 V2000
   37.3090   23.8520   31.3040 C   0  0  0  0  0  0  0  0  0  0  0  0
   38.3420   24.1500   30.5150 C   0  0  0  0  0  0  0  0  0  0  0  0
   38.8000   25.3890   30.3790 C   0  0  0  0  0  0  0  0  0  0  0  0
   38.1880   26.3700   31.0750 N   0  0  0  0  0  0  0  0  0  0  0  0
   37.1510   26.1000   31.8800 C   0  0  0  0  0  0  0  0  0  0  0  0
   36.7040   24.8450   32.0010 N   0  0  0  0  0  0  0  0  0  0  0  0
   38.8660   23.3980   29.9420 H   0  0  0  0  0  0  0  0  0  0  0  0
   39.6380   25.6830   29.7450 H   0  0  0  0  0  0  0  0  0  0  0  0
   37.0260   27.4960   33.8800 C   0  0  0  0  0  0  0  0  0  0  0  0
   36.5510   27.2080   32.5990 C   0  0  0  0  0  0  0  0  0  0  0  0
   35.5700   27.9310   31.9660 C   0  0  0  0  0  0  0  0  0  0  0  0
   34.9830   29.0240   32.5930 C   0  0  0  0  0  0  0  0  0  0  0  0
   35.4000   29.3780   33.8680 C   0  0  0  0  0  0  0  0  0  0  0  0
   36.3800   28.5980   34.4160 C   0  0  0  0  0  0  0  0  0  0  0  0
   35.2440   27.6500   30.9590 H   0  0  0  0  0  0  0  0  0  0  0  0
   34.2170   29.5600   32.0560 H   0  0  0  0  0  0  0  0  0  0  0  0
   34.9710   30.2070   34.3740 H   0  0  0  0  0  0  0  0  0  0  0  0
   36.6880   28.9060   35.4290 H   0  0  0  0  0  0  0  0  0  0  0  0
   38.2620   26.6180   34.6600 S   0  0  0  0  0  0  0  0  0  0  0  0
   38.2810   27.3170   35.9830 O   0  0  0  0  0  0  0  0  0  0  0  0
   39.6200   26.9480   34.1870 O   0  0  0  0  0  0  0  0  0  0  0  0
   38.0730   25.2800   35.7120 C   0  0  0  0  0  3  0  0  0  0  0  0
   38.0700   24.8040   36.9140 C   0  0  0  0  0  3  0  0  0  0  0  0
   37.8490   23.4710   37.5330 C   0  0  0  0  0  2  0  0  0  0  0  0
   38.7300   23.2450   38.1660 H   0  0  0  0  0  0  0  0  0  0  0  0
   36.8030   20.2360   30.8240 C   0  0  0  0  0  0  0  0  0  0  0  0
   35.5900   20.0180   31.5320 C   0  0  0  0  0  0  0  0  0  0  0  0
   34.9800   21.1300   32.1610 C   0  0  0  0  0  0  0  0  0  0  0  0
   35.5790   22.3540   32.0600 N   0  0  0  0  0  0  0  0  0  0  0  0
   36.7100   22.5220   31.3920 C   0  0  0  0  0  0  0  0  0  0  0  0
   37.3250   21.4610   30.7710 N   0  0  0  0  0  0  0  0  0  0  0  0
   37.3290   19.4430   30.3180 H   0  0  0  0  0  0  0  0  0  0  0  0
   35.1780   19.0270   31.5680 H   0  0  0  0  0  0  0  0  0  0  0  0
   34.0570   20.9760   32.7020 H   0  0  0  0  0  0  0  0  0  0  0  0
  1 30  1  0  0  0  0
  1  6  1  0  0  0  0
  2  1  2  0  0  0  0
  3  2  1  0  0  0  0
  3  4  2  0  0  0  0
  4  5  1  0  0  0  0
  5  6  2  0  0  0  0
  5 10  1  0  0  0  0
  7  2  1  0  0  0  0
  8  3  1  0  0  0  0
  9 14  1  0  0  0  0
  9 19  1  0  0  0  0
 10  9  2  0  0  0  0
 11 12  2  0  0  0  0
 11 10  1  0  0  0  0
 12 13  1  0  0  0  0
 13 17  1  0  0  0  0
 13 14  2  0  0  0  0
 14 18  1  0  0  0  0
 15 11  1  0  0  0  0
 16 12  1  0  0  0  0
 19 22  1  0  0  0  0
 19 20  2  0  0  0  0
 21 19  2  0  0  0  0
 22 23  2  0  0  0  0
 23 24  1  0  0  0  0
 24 25  1  0  0  0  0
 26 27  1  0  0  0  0
 27 33  1  0  0  0  0
 27 28  2  0  0  0  0
 28 34  1  0  0  0  0
 29 28  1  0  0  0  0
 30 29  2  0  0  0  0
 31 26  2  0  0  0  0
 31 30  1  0  0  0  0
 32 26  1  0  0  0  0
M  END
>  <minimizedAffinity>
-5.63940001

$$$$

 OpenBabel03272504253D

 34 36  0  0  0  0  0  0  0  0999 V2000
   39.9790   22.4680   36.6250 C   0  0  0  0  0  0  0  0  0  0  0  0
   39.3810   23.0540   37.6640 C   0  0  0  0  0  0  0  0  0  0  0  0
   38.0720   23.2690   37.7030 C   0  0  0  0  0  0  0  0  0  0  0  0
   37.3330   22.8690   36.6470 N   0  0  0  0  0  0  0  0  0  0  0  0
   37.9050   22.2710   35.5920 C   0  0  0  0  0  0  0  0  0  0  0  0
   39.2270   22.0670   35.5720 N   0  0  0  0  0  0  0  0  0  0  0  0
   39.9300   23.3870   38.5330 H   0  0  0  0  0  0  0  0  0  0  0  0
   37.5380   23.7460   38.5260 H   0  0  0  0  0  0  0  0  0  0  0  0
   37.0970   22.5970   33.3110 C   0  0  0  0  0  0  0  0  0  0  0  0
   37.0420   21.8660   34.4990 C   0  0  0  0  0  0  0  0  0  0  0  0
   36.2410   20.7660   34.6840 C   0  0  0  0  0  0  0  0  0  0  0  0
   35.4180   20.3120   33.6600 C   0  0  0  0  0  0  0  0  0  0  0  0
   35.4140   20.9830   32.4460 C   0  0  0  0  0  0  0  0  0  0  0  0
   36.2430   22.0660   32.3580 C   0  0  0  0  0  0  0  0  0  0  0  0
   36.2460   20.2380   35.6430 H   0  0  0  0  0  0  0  0  0  0  0  0
   34.8060   19.4450   33.8530 H   0  0  0  0  0  0  0  0  0  0  0  0
   34.7970   20.6610   31.6450 H   0  0  0  0  0  0  0  0  0  0  0  0
   36.2170   22.5760   31.3800 H   0  0  0  0  0  0  0  0  0  0  0  0
   38.1080   23.9480   33.0670 S   0  0  0  0  0  0  0  0  0  0  0  0
   37.1130   24.9210   32.5180 O   0  0  0  0  0  0  0  0  0  0  0  0
   39.0010   23.8230   31.8980 O   0  0  0  0  0  0  0  0  0  0  0  0
   38.3520   25.2640   34.1350 C   0  0  0  0  0  3  0  0  0  0  0  0
   37.8880   26.0550   35.0460 C   0  0  0  0  0  3  0  0  0  0  0  0
   38.4170   27.1990   35.8350 C   0  0  0  0  0  2  0  0  0  0  0  0
   37.7250   28.0530   35.6900 H   0  0  0  0  0  0  0  0  0  0  0  0
   43.2970   20.8830   36.4130 C   0  0  0  0  0  0  0  0  0  0  0  0
   44.1490   22.0140   36.2850 C   0  0  0  0  0  0  0  0  0  0  0  0
   43.5510   23.2970   36.2720 C   0  0  0  0  0  0  0  0  0  0  0  0
   42.1920   23.3910   36.3820 N   0  0  0  0  0  0  0  0  0  0  0  0
   41.4270   22.3160   36.5010 C   0  0  0  0  0  0  0  0  0  0  0  0
   41.9800   21.0580   36.5170 N   0  0  0  0  0  0  0  0  0  0  0  0
   43.6740   19.8740   36.4320 H   0  0  0  0  0  0  0  0  0  0  0  0
   45.2090   21.8620   36.2030 H   0  0  0  0  0  0  0  0  0  0  0  0
   44.1890   24.1640   36.1750 H   0  0  0  0  0  0  0  0  0  0  0  0
  1  2  1  0  0  0  0
  2  3  2  0  0  0  0
  2  7  1  0  0  0  0
  3  8  1  0  0  0  0
  4  3  1  0  0  0  0
  5  4  2  0  0  0  0
  6  5  1  0  0  0  0
  6  1  2  0  0  0  0
  9 10  1  0  0  0  0
 10 11  2  0  0  0  0
 10  5  1  0  0  0  0
 11 15  1  0  0  0  0
 12 16  1  0  0  0  0
 12 11  1  0  0  0  0
 13 12  2  0  0  0  0
 14 13  1  0  0  0  0
 14  9  2  0  0  0  0
 17 13  1  0  0  0  0
 18 14  1  0  0  0  0
 19  9  1  0  0  0  0
 19 22  1  0  0  0  0
 20 19  2  0  0  0  0
 21 19  2  0  0  0  0
 22 23  2  0  0  0  0
 23 24  1  0  0  0  0
 25 24  1  0  0  0  0
 26 32  1  0  0  0  0
 26 31  1  0  0  0  0
 27 26  2  0  0  0  0
 28 27  1  0  0  0  0
 28 29  2  0  0  0  0
 29 30  1  0  0  0  0
 30 31  2  0  0  0  0
 30  1  1  0  0  0  0
 33 27  1  0  0  0  0
 34 28  1  0  0  0  0
M  END
>  <minimizedAffinity>
-5.52098465

$$$$

 OpenBabel03272504253D

 34 36  0  0  0  0  0  0  0  0999 V2000
   36.3430   23.8120   31.4000 C   0  0  0  0  0  0  0  0  0  0  0  0
   35.4060   24.6810   31.0160 C   0  0  0  0  0  0  0  0  0  0  0  0
   35.6050   25.9930   31.0280 C   0  0  0  0  0  0  0  0  0  0  0  0
   36.8060   26.4480   31.4410 N   0  0  0  0  0  0  0  0  0  0  0  0
   37.7690   25.5990   31.8250 C   0  0  0  0  0  0  0  0  0  0  0  0
   37.5470   24.2800   31.8090 N   0  0  0  0  0  0  0  0  0  0  0  0
   34.4320   24.3640   30.6740 H   0  0  0  0  0  0  0  0  0  0  0  0
   34.8710   26.7420   30.7270 H   0  0  0  0  0  0  0  0  0  0  0  0
   39.1140   26.7140   33.5320 C   0  0  0  0  0  0  0  0  0  0  0  0
   39.0350   26.1660   32.2500 C   0  0  0  0  0  0  0  0  0  0  0  0
   40.0950   26.1040   31.3790 C   0  0  0  0  0  0  0  0  0  0  0  0
   41.3400   26.6010   31.7450 C   0  0  0  0  0  0  0  0  0  0  0  0
   41.5020   27.1620   33.0030 C   0  0  0  0  0  0  0  0  0  0  0  0
   40.3910   27.1790   33.7990 C   0  0  0  0  0  0  0  0  0  0  0  0
   39.9640   25.6600   30.3860 H   0  0  0  0  0  0  0  0  0  0  0  0
   42.1410   26.5310   31.0260 H   0  0  0  0  0  0  0  0  0  0  0  0
   42.4400   27.5500   33.3130 H   0  0  0  0  0  0  0  0  0  0  0  0
   40.5540   27.6310   34.7920 H   0  0  0  0  0  0  0  0  0  0  0  0
   37.8090   26.7700   34.6280 S   0  0  0  0  0  0  0  0  0  0  0  0
   38.3800   27.6850   35.6650 O   0  0  0  0  0  0  0  0  0  0  0  0
   37.6550   25.5450   35.4380 O   0  0  0  0  0  0  0  0  0  0  0  0
   36.5720   27.9520   34.7030 C   0  0  0  0  0  3  0  0  0  0  0  0
   35.8890   28.8830   34.1230 C   0  0  0  0  0  3  0  0  0  0  0  0
   34.7820   29.7960   34.5130 C   0  0  0  0  0  2  0  0  0  0  0  0
   35.1110   30.8320   34.2980 H   0  0  0  0  0  0  0  0  0  0  0  0
   36.7830   20.1890   30.9080 C   0  0  0  0  0  0  0  0  0  0  0  0
   35.7100   19.6620   31.6770 C   0  0  0  0  0  0  0  0  0  0  0  0
   34.8630   20.5750   32.3500 C   0  0  0  0  0  0  0  0  0  0  0  0
   35.1120   21.9140   32.2300 N   0  0  0  0  0  0  0  0  0  0  0  0
   36.1220   22.3720   31.5050 C   0  0  0  0  0  0  0  0  0  0  0  0
   36.9600   21.5080   30.8410 N   0  0  0  0  0  0  0  0  0  0  0  0
   37.4710   19.5600   30.3680 H   0  0  0  0  0  0  0  0  0  0  0  0
   35.5760   18.5970   31.7250 H   0  0  0  0  0  0  0  0  0  0  0  0
   34.0440   20.1860   32.9370 H   0  0  0  0  0  0  0  0  0  0  0  0
  1 30  1  0  0  0  0
  1  6  1  0  0  0  0
  2  3  1  0  0  0  0
  2  1  2  0  0  0  0
  3  4  2  0  0  0  0
  4  5  1  0  0  0  0
  5 10  1  0  0  0  0
  6  5  2  0  0  0  0
  7  2  1  0  0  0  0
  8  3  1  0  0  0  0
  9 14  1  0  0  0  0
  9 19  1  0  0  0  0
 10  9  2  0  0  0  0
 11 12  2  0  0  0  0
 11 10  1  0  0  0  0
 12 13  1  0  0  0  0
 13 17  1  0  0  0  0
 13 14  2  0  0  0  0
 14 18  1  0  0  0  0
 15 11  1  0  0  0  0
 16 12  1  0  0  0  0
 19 22  1  0  0  0  0
 19 21  2  0  0  0  0
 19 20  2  0  0  0  0
 23 24  1  0  0  0  0
 23 22  2  0  0  0  0
 25 24  1  0  0  0  0
 26 27  1  0  0  0  0
 27 33  1  0  0  0  0
 27 28  2  0  0  0  0
 28 34  1  0  0  0  0
 29 28  1  0  0  0  0
 30 29  2  0  0  0  0
 31 26  2  0  0  0  0
 31 30  1  0  0  0  0
 32 26  1  0  0  0  0
M  END
>  <minimizedAffinity>
-5.47619867

$$$$

 OpenBabel03272504253D

 34 36  0  0  0  0  0  0  0  0999 V2000
   37.7380   22.4350   34.5940 C   0  0  0  0  0  0  0  0  0  0  0  0
   37.5820   22.3000   35.9130 C   0  0  0  0  0  0  0  0  0  0  0  0
   38.2420   23.0500   36.7870 C   0  0  0  0  0  0  0  0  0  0  0  0
   39.0940   23.9800   36.3080 N   0  0  0  0  0  0  0  0  0  0  0  0
   39.2660   24.1430   34.9890 C   0  0  0  0  0  0  0  0  0  0  0  0
   38.5930   23.3750   34.1240 N   0  0  0  0  0  0  0  0  0  0  0  0
   36.9090   21.5730   36.3420 H   0  0  0  0  0  0  0  0  0  0  0  0
   38.1520   22.9760   37.8720 H   0  0  0  0  0  0  0  0  0  0  0  0
   39.6710   26.3550   34.0370 C   0  0  0  0  0  0  0  0  0  0  0  0
   40.1950   25.1680   34.5530 C   0  0  0  0  0  0  0  0  0  0  0  0
   41.5390   24.9260   34.7020 C   0  0  0  0  0  0  0  0  0  0  0  0
   42.4740   25.8860   34.3320 C   0  0  0  0  0  0  0  0  0  0  0  0
   42.0350   27.0940   33.8110 C   0  0  0  0  0  0  0  0  0  0  0  0
   40.6810   27.2420   33.7010 C   0  0  0  0  0  0  0  0  0  0  0  0
   41.8830   23.9720   35.1140 H   0  0  0  0  0  0  0  0  0  0  0  0
   43.5180   25.6490   34.4680 H   0  0  0  0  0  0  0  0  0  0  0  0
   42.7240   27.8470   33.5200 H   0  0  0  0  0  0  0  0  0  0  0  0
   40.3660   28.2130   33.2840 H   0  0  0  0  0  0  0  0  0  0  0  0
   38.0040   26.6720   33.8740 S   0  0  0  0  0  0  0  0  0  0  0  0
   38.0290   27.5910   32.6940 O   0  0  0  0  0  0  0  0  0  0  0  0
   37.4680   27.5940   34.8940 O   0  0  0  0  0  0  0  0  0  0  0  0
   36.8950   25.8710   32.8440 C   0  0  0  0  0  3  0  0  0  0  0  0
   36.6710   25.1960   31.7650 C   0  0  0  0  0  3  0  0  0  0  0  0
   35.4770   24.6000   31.1080 C   0  0  0  0  0  2  0  0  0  0  0  0
   35.4370   24.9890   30.0710 H   0  0  0  0  0  0  0  0  0  0  0  0
   35.4240   19.9950   33.0930 C   0  0  0  0  0  0  0  0  0  0  0  0
   35.9380   19.8840   31.7730 C   0  0  0  0  0  0  0  0  0  0  0  0
   37.0720   20.6610   31.4350 C   0  0  0  0  0  0  0  0  0  0  0  0
   37.6180   21.4770   32.3860 N   0  0  0  0  0  0  0  0  0  0  0  0
   37.1140   21.5560   33.6090 C   0  0  0  0  0  0  0  0  0  0  0  0
   36.0130   20.8130   33.9640 N   0  0  0  0  0  0  0  0  0  0  0  0
   34.5640   19.4380   33.4280 H   0  0  0  0  0  0  0  0  0  0  0  0
   35.4550   19.2220   31.0790 H   0  0  0  0  0  0  0  0  0  0  0  0
   37.4730   20.5860   30.4340 H   0  0  0  0  0  0  0  0  0  0  0  0
  1  2  1  0  0  0  0
  2  7  1  0  0  0  0
  2  3  2  0  0  0  0
  3  8  1  0  0  0  0
  4  3  1  0  0  0  0
  5  4  2  0  0  0  0
  6  1  2  0  0  0  0
  6  5  1  0  0  0  0
  9 10  1  0  0  0  0
 10 11  2  0  0  0  0
 10  5  1  0  0  0  0
 11 15  1  0  0  0  0
 12 16  1  0  0  0  0
 12 11  1  0  0  0  0
 13 12  2  0  0  0  0
 14 13  1  0  0  0  0
 14  9  2  0  0  0  0
 17 13  1  0  0  0  0
 18 14  1  0  0  0  0
 19  9  1  0  0  0  0
 19 21  2  0  0  0  0
 20 19  2  0  0  0  0
 22 19  1  0  0  0  0
 23 22  2  0  0  0  0
 24 23  1  0  0  0  0
 25 24  1  0  0  0  0
 26 32  1  0  0  0  0
 26 31  1  0  0  0  0
 27 26  2  0  0  0  0
 28 27  1  0  0  0  0
 28 29  2  0  0  0  0
 29 30  1  0  0  0  0
 30 31  2  0  0  0  0
 30  1  1  0  0  0  0
 33 27  1  0  0  0  0
 34 28  1  0  0  0  0
M  END
>  <minimizedAffinity>
-5.35153961

$$$$

 OpenBabel03272504253D

 34 36  0  0  0  0  0  0  0  0999 V2000
   36.0050   23.4470   31.5680 C   0  0  0  0  0  0  0  0  0  0  0  0
   35.2210   24.2710   30.8690 C   0  0  0  0  0  0  0  0  0  0  0  0
   35.2650   25.5890   31.0150 C   0  0  0  0  0  0  0  0  0  0  0  0
   36.1440   26.0990   31.9040 N   0  0  0  0  0  0  0  0  0  0  0  0
   36.9480   25.2970   32.6150 C   0  0  0  0  0  0  0  0  0  0  0  0
   36.8860   23.9700   32.4550 N   0  0  0  0  0  0  0  0  0  0  0  0
   34.5060   23.9090   30.1440 H   0  0  0  0  0  0  0  0  0  0  0  0
   34.6440   26.3020   30.4710 H   0  0  0  0  0  0  0  0  0  0  0  0
   39.0610   26.4440   33.0410 C   0  0  0  0  0  0  0  0  0  0  0  0
   37.8690   25.9220   33.5450 C   0  0  0  0  0  0  0  0  0  0  0  0
   37.5020   25.9920   34.8670 C   0  0  0  0  0  0  0  0  0  0  0  0
   38.3300   26.6100   35.7980 C   0  0  0  0  0  0  0  0  0  0  0  0
   39.5330   27.1560   35.3760 C   0  0  0  0  0  0  0  0  0  0  0  0
   39.8120   27.0360   34.0440 C   0  0  0  0  0  0  0  0  0  0  0  0
   36.5510   25.5610   35.1960 H   0  0  0  0  0  0  0  0  0  0  0  0
   37.9980   26.6400   36.8240 H   0  0  0  0  0  0  0  0  0  0  0  0
   40.1870   27.6340   36.0630 H   0  0  0  0  0  0  0  0  0  0  0  0
   40.7750   27.4810   33.7430 H   0  0  0  0  0  0  0  0  0  0  0  0
   39.5110   26.3830   31.3970 S   0  0  0  0  0  0  0  0  0  0  0  0
   40.9740   26.1040   31.5390 O   0  0  0  0  0  0  0  0  0  0  0  0
   39.5740   27.7060   30.7450 O   0  0  0  0  0  0  0  0  0  0  0  0
   39.6490   24.9880   30.4140 C   0  0  0  0  0  3  0  0  0  0  0  0
   39.1040   24.1450   29.5990 C   0  0  0  0  0  3  0  0  0  0  0  0
   39.5500   22.9340   28.8610 C   0  0  0  0  0  2  0  0  0  0  0  0
   38.8520   22.1110   29.1170 H   0  0  0  0  0  0  0  0  0  0  0  0
   36.7610   19.9480   30.7060 C   0  0  0  0  0  0  0  0  0  0  0  0
   35.7250   19.2530   31.3860 C   0  0  0  0  0  0  0  0  0  0  0  0
   34.7920   20.0150   32.1300 C   0  0  0  0  0  0  0  0  0  0  0  0
   34.9280   21.3740   32.1600 N   0  0  0  0  0  0  0  0  0  0  0  0
   35.9060   21.9910   31.5130 C   0  0  0  0  0  0  0  0  0  0  0  0
   36.8260   21.2770   30.7840 N   0  0  0  0  0  0  0  0  0  0  0  0
   37.5100   19.4410   30.1190 H   0  0  0  0  0  0  0  0  0  0  0  0
   35.6820   18.1820   31.3170 H   0  0  0  0  0  0  0  0  0  0  0  0
   33.9990   19.4970   32.6510 H   0  0  0  0  0  0  0  0  0  0  0  0
  1  6  1  0  0  0  0
  2  3  1  0  0  0  0
  2  1  2  0  0  0  0
  3  4  2  0  0  0  0
  4  5  1  0  0  0  0
  5 10  1  0  0  0  0
  6  5  2  0  0  0  0
  7  2  1  0  0  0  0
  8  3  1  0  0  0  0
  9 10  2  0  0  0  0
  9 14  1  0  0  0  0
 10 11  1  0  0  0  0
 11 15  1  0  0  0  0
 11 12  2  0  0  0  0
 12 16  1  0  0  0  0
 13 12  1  0  0  0  0
 13 17  1  0  0  0  0
 14 13  2  0  0  0  0
 18 14  1  0  0  0  0
 19 20  2  0  0  0  0
 19  9  1  0  0  0  0
 21 19  2  0  0  0  0
 22 19  1  0  0  0  0
 23 22  2  0  0  0  0
 24 25  1  0  0  0  0
 24 23  1  0  0  0  0
 26 31  2  0  0  0  0
 26 27  1  0  0  0  0
 27 28  2  0  0  0  0
 28 29  1  0  0  0  0
 28 34  1  0  0  0  0
 30  1  1  0  0  0  0
 30 29  2  0  0  0  0
 31 30  1  0  0  0  0
 32 26  1  0  0  0  0
 33 27  1  0  0  0  0
M  END
>  <minimizedAffinity>
-5.33791399

$$$$

 OpenBabel03272504253D

 34 36  0  0  0  0  0  0  0  0999 V2000
   37.4360   22.8490   31.5530 C   0  0  0  0  0  0  0  0  0  0  0  0
   37.9930   23.2520   30.4100 C   0  0  0  0  0  0  0  0  0  0  0  0
   38.5700   24.4410   30.2800 C   0  0  0  0  0  0  0  0  0  0  0  0
   38.5870   25.2570   31.3540 N   0  0  0  0  0  0  0  0  0  0  0  0
   38.0410   24.8770   32.5170 C   0  0  0  0  0  0  0  0  0  0  0  0
   37.4620   23.6760   32.6260 N   0  0  0  0  0  0  0  0  0  0  0  0
   38.0070   22.6320   29.5250 H   0  0  0  0  0  0  0  0  0  0  0  0
   39.0350   24.8160   29.3670 H   0  0  0  0  0  0  0  0  0  0  0  0
   39.2060   25.7380   34.4830 C   0  0  0  0  0  0  0  0  0  0  0  0
   38.1050   25.8090   33.6270 C   0  0  0  0  0  0  0  0  0  0  0  0
   37.0950   26.7300   33.7550 C   0  0  0  0  0  0  0  0  0  0  0  0
   37.1210   27.6700   34.7800 C   0  0  0  0  0  0  0  0  0  0  0  0
   38.1820   27.6670   35.6730 C   0  0  0  0  0  0  0  0  0  0  0  0
   39.1380   26.7120   35.4660 C   0  0  0  0  0  0  0  0  0  0  0  0
   36.2590   26.7310   33.0470 H   0  0  0  0  0  0  0  0  0  0  0  0
   36.3050   28.3720   34.8390 H   0  0  0  0  0  0  0  0  0  0  0  0
   38.2310   28.3710   36.4660 H   0  0  0  0  0  0  0  0  0  0  0  0
   39.9660   26.7380   36.1930 H   0  0  0  0  0  0  0  0  0  0  0  0
   40.4760   24.6130   34.3140 S   0  0  0  0  0  0  0  0  0  0  0  0
   41.5110   25.2600   35.1790 O   0  0  0  0  0  0  0  0  0  0  0  0
   41.1660   24.6820   33.0110 O   0  0  0  0  0  0  0  0  0  0  0  0
   40.8500   23.3110   35.3620 C   0  0  0  0  0  3  0  0  0  0  0  0
   41.1480   22.8900   36.5470 C   0  0  0  0  0  3  0  0  0  0  0  0
   41.4360   21.5700   37.1690 C   0  0  0  0  0  2  0  0  0  0  0  0
   42.4160   21.6490   37.6800 H   0  0  0  0  0  0  0  0  0  0  0  0
   36.6070   19.2670   31.3570 C   0  0  0  0  0  0  0  0  0  0  0  0
   35.3160   19.2360   31.9520 C   0  0  0  0  0  0  0  0  0  0  0  0
   34.7670   20.4580   32.4090 C   0  0  0  0  0  0  0  0  0  0  0  0
   35.4970   21.6040   32.2590 N   0  0  0  0  0  0  0  0  0  0  0  0
   36.6970   21.5970   31.7000 C   0  0  0  0  0  0  0  0  0  0  0  0
   37.2550   20.4260   31.2470 N   0  0  0  0  0  0  0  0  0  0  0  0
   37.0940   18.3800   30.9840 H   0  0  0  0  0  0  0  0  0  0  0  0
   34.8030   18.2970   32.0360 H   0  0  0  0  0  0  0  0  0  0  0  0
   33.7860   20.4480   32.8630 H   0  0  0  0  0  0  0  0  0  0  0  0
  1 30  1  0  0  0  0
  1  6  1  0  0  0  0
  2  1  2  0  0  0  0
  3  2  1  0  0  0  0
  3  4  2  0  0  0  0
  4  5  1  0  0  0  0
  5  6  2  0  0  0  0
  5 10  1  0  0  0  0
  7  2  1  0  0  0  0
  8  3  1  0  0  0  0
  9 14  1  0  0  0  0
 10 11  1  0  0  0  0
 10  9  2  0  0  0  0
 11 12  2  0  0  0  0
 12 16  1  0  0  0  0
 12 13  1  0  0  0  0
 13 17  1  0  0  0  0
 14 13  2  0  0  0  0
 14 18  1  0  0  0  0
 15 11  1  0  0  0  0
 19  9  1  0  0  0  0
 19 20  2  0  0  0  0
 19 22  1  0  0  0  0
 21 19  2  0  0  0  0
 22 23  2  0  0  0  0
 23 24  1  0  0  0  0
 24 25  1  0  0  0  0
 26 27  1  0  0  0  0
 27 33  1  0  0  0  0
 27 28  2  0  0  0  0
 28 34  1  0  0  0  0
 29 28  1  0  0  0  0
 30 29  2  0  0  0  0
 31 26  2  0  0  0  0
 31 30  1  0  0  0  0
 32 26  1  0  0  0  0
M  END
>  <minimizedAffinity>
-5.29275274

$$$$

 OpenBabel03272504253D

 34 36  0  0  0  0  0  0  0  0999 V2000
   36.4900   28.3840   33.3300 C   0  0  0  0  0  0  0  0  0  0  0  0
   36.5140   28.9270   32.1120 C   0  0  0  0  0  0  0  0  0  0  0  0
   35.9540   30.1010   31.8460 C   0  0  0  0  0  0  0  0  0  0  0  0
   35.3470   30.7570   32.8570 N   0  0  0  0  0  0  0  0  0  0  0  0
   35.3140   30.2390   34.0920 C   0  0  0  0  0  0  0  0  0  0  0  0
   35.8820   29.0530   34.3390 N   0  0  0  0  0  0  0  0  0  0  0  0
   36.9910   28.4420   31.2730 H   0  0  0  0  0  0  0  0  0  0  0  0
   35.9430   30.5850   30.8670 H   0  0  0  0  0  0  0  0  0  0  0  0
   33.2520   31.0610   35.1120 C   0  0  0  0  0  0  0  0  0  0  0  0
   34.6480   31.0090   35.1260 C   0  0  0  0  0  0  0  0  0  0  0  0
   35.4260   31.6180   36.0790 C   0  0  0  0  0  0  0  0  0  0  0  0
   34.8410   32.3410   37.1130 C   0  0  0  0  0  0  0  0  0  0  0  0
   33.4590   32.4400   37.1710 C   0  0  0  0  0  0  0  0  0  0  0  0
   32.7700   31.8010   36.1790 C   0  0  0  0  0  0  0  0  0  0  0  0
   36.5170   31.5380   36.0310 H   0  0  0  0  0  0  0  0  0  0  0  0
   35.4940   32.8020   37.8370 H   0  0  0  0  0  0  0  0  0  0  0  0
   32.9820   32.9840   37.9480 H   0  0  0  0  0  0  0  0  0  0  0  0
   31.6740   31.8990   36.2560 H   0  0  0  0  0  0  0  0  0  0  0  0
   32.2800   30.2850   33.9470 S   0  0  0  0  0  0  0  0  0  0  0  0
   30.9560   30.9090   34.2570 O   0  0  0  0  0  0  0  0  0  0  0  0
   31.9690   28.8780   34.2680 O   0  0  0  0  0  0  0  0  0  0  0  0
   31.8540   30.8750   32.3970 C   0  0  0  0  0  3  0  0  0  0  0  0
   32.1670   31.5540   31.3430 C   0  0  0  0  0  3  0  0  0  0  0  0
   31.5010   31.8980   30.0590 C   0  0  0  0  0  2  0  0  0  0  0  0
   31.5230   33.0020   29.9560 H   0  0  0  0  0  0  0  0  0  0  0  0
   37.6150   24.9100   32.8580 C   0  0  0  0  0  0  0  0  0  0  0  0
   37.9340   24.5260   34.1890 C   0  0  0  0  0  0  0  0  0  0  0  0
   37.7540   25.4830   35.2170 C   0  0  0  0  0  0  0  0  0  0  0  0
   37.2850   26.7240   34.8860 N   0  0  0  0  0  0  0  0  0  0  0  0
   36.9980   27.0480   33.6340 C   0  0  0  0  0  0  0  0  0  0  0  0
   37.1620   26.1390   32.6160 N   0  0  0  0  0  0  0  0  0  0  0  0
   37.7250   24.2400   32.0200 H   0  0  0  0  0  0  0  0  0  0  0  0
   38.2980   23.5330   34.3720 H   0  0  0  0  0  0  0  0  0  0  0  0
   37.9920   25.2030   36.2330 H   0  0  0  0  0  0  0  0  0  0  0  0
  1 30  1  0  0  0  0
  1  6  1  0  0  0  0
  2  1  2  0  0  0  0
  3  2  1  0  0  0  0
  3  4  2  0  0  0  0
  4  5  1  0  0  0  0
  5  6  2  0  0  0  0
  5 10  1  0  0  0  0
  7  2  1  0  0  0  0
  8  3  1  0  0  0  0
  9 10  2  0  0  0  0
  9 14  1  0  0  0  0
 10 11  1  0  0  0  0
 11 12  2  0  0  0  0
 12 13  1  0  0  0  0
 12 16  1  0  0  0  0
 13 17  1  0  0  0  0
 14 18  1  0  0  0  0
 14 13  2  0  0  0  0
 15 11  1  0  0  0  0
 19 20  2  0  0  0  0
 19 21  2  0  0  0  0
 19  9  1  0  0  0  0
 22 19  1  0  0  0  0
 23 22  2  0  0  0  0
 24 23  1  0  0  0  0
 25 24  1  0  0  0  0
 26 27  1  0  0  0  0
 27 33  1  0  0  0  0
 27 28  2  0  0  0  0
 28 34  1  0  0  0  0
 29 28  1  0  0  0  0
 30 29  2  0  0  0  0
 31 26  2  0  0  0  0
 31 30  1  0  0  0  0
 32 26  1  0  0  0  0
M  END
>  <minimizedAffinity>
-5.17958879

$$$$

 OpenBabel03272504253D

 34 36  0  0  0  0  0  0  0  0999 V2000
   38.1210   27.1680   33.1930 C   0  0  0  0  0  0  0  0  0  0  0  0
   39.3920   27.1260   32.7880 C   0  0  0  0  0  0  0  0  0  0  0  0
   40.3060   26.3760   33.3910 C   0  0  0  0  0  0  0  0  0  0  0  0
   39.9180   25.6320   34.4480 N   0  0  0  0  0  0  0  0  0  0  0  0
   38.6470   25.6490   34.8730 C   0  0  0  0  0  0  0  0  0  0  0  0
   37.7420   26.4140   34.2530 N   0  0  0  0  0  0  0  0  0  0  0  0
   39.7480   27.7000   31.9450 H   0  0  0  0  0  0  0  0  0  0  0  0
   41.3560   26.3110   33.1010 H   0  0  0  0  0  0  0  0  0  0  0  0
   38.0830   23.4570   35.7900 C   0  0  0  0  0  0  0  0  0  0  0  0
   38.3080   24.8170   36.0120 C   0  0  0  0  0  0  0  0  0  0  0  0
   38.2580   25.4080   37.2500 C   0  0  0  0  0  0  0  0  0  0  0  0
   37.9710   24.6530   38.3820 C   0  0  0  0  0  0  0  0  0  0  0  0
   37.7350   23.2930   38.2470 C   0  0  0  0  0  0  0  0  0  0  0  0
   37.8060   22.7960   36.9750 C   0  0  0  0  0  0  0  0  0  0  0  0
   38.4450   26.4820   37.3540 H   0  0  0  0  0  0  0  0  0  0  0  0
   37.9410   25.1630   39.3320 H   0  0  0  0  0  0  0  0  0  0  0  0
   37.5140   22.6900   39.0910 H   0  0  0  0  0  0  0  0  0  0  0  0
   37.6150   21.7130   36.9040 H   0  0  0  0  0  0  0  0  0  0  0  0
   38.1700   22.7120   34.2590 S   0  0  0  0  0  0  0  0  0  0  0  0
   37.1750   21.6110   34.4490 O   0  0  0  0  0  0  0  0  0  0  0  0
   39.3910   21.9080   34.0530 O   0  0  0  0  0  0  0  0  0  0  0  0
   37.1480   22.9920   32.9130 C   0  0  0  0  0  3  0  0  0  0  0  0
   36.6760   23.8070   32.0280 C   0  0  0  0  0  3  0  0  0  0  0  0
   35.7140   23.7140   30.8980 C   0  0  0  0  0  2  0  0  0  0  0  0
   34.9420   24.4950   31.0510 H   0  0  0  0  0  0  0  0  0  0  0  0
   36.3890   29.3640   30.7980 C   0  0  0  0  0  0  0  0  0  0  0  0
   35.2460   29.7600   31.5440 C   0  0  0  0  0  0  0  0  0  0  0  0
   35.1030   29.2530   32.8580 C   0  0  0  0  0  0  0  0  0  0  0  0
   36.0630   28.4110   33.3470 N   0  0  0  0  0  0  0  0  0  0  0  0
   37.1160   28.0630   32.6240 C   0  0  0  0  0  0  0  0  0  0  0  0
   37.2810   28.5400   31.3460 N   0  0  0  0  0  0  0  0  0  0  0  0
   36.5700   29.7070   29.7920 H   0  0  0  0  0  0  0  0  0  0  0  0
   34.5330   30.4250   31.0940 H   0  0  0  0  0  0  0  0  0  0  0  0
   34.2380   29.5470   33.4360 H   0  0  0  0  0  0  0  0  0  0  0  0
  1  6  1  0  0  0  0
  2  1  2  0  0  0  0
  2  3  1  0  0  0  0
  3  4  2  0  0  0  0
  4  5  1  0  0  0  0
  5 10  1  0  0  0  0
  6  5  2  0  0  0  0
  7  2  1  0  0  0  0
  8  3  1  0  0  0  0
  9 10  2  0  0  0  0
  9 14  1  0  0  0  0
 10 11  1  0  0  0  0
 11 15  1  0  0  0  0
 11 12  2  0  0  0  0
 12 16  1  0  0  0  0
 13 12  1  0  0  0  0
 13 17  1  0  0  0  0
 14 13  2  0  0  0  0
 18 14  1  0  0  0  0
 19 20  2  0  0  0  0
 19  9  1  0  0  0  0
 21 19  2  0  0  0  0
 22 19  1  0  0  0  0
 23 22  2  0  0  0  0
 24 25  1  0  0  0  0
 24 23  1  0  0  0  0
 26 31  2  0  0  0  0
 26 27  1  0  0  0  0
 27 28  2  0  0  0  0
 28 29  1  0  0  0  0
 28 34  1  0  0  0  0
 30  1  1  0  0  0  0
 30 29  2  0  0  0  0
 31 30  1  0  0  0  0
 32 26  1  0  0  0  0
 33 27  1  0  0  0  0
M  END
>  <minimizedAffinity>
-5.14639235

$$$$
