
 OpenBabel03262521153D

 14 14  0  0  0  0  0  0  0  0999 V2000
   38.5660   24.6930   36.4380 C   0  0  0  0  0  0  0  0  0  0  0  0
   38.0800   24.3950   37.7200 C   0  0  0  0  0  0  0  0  0  0  0  0
   38.6690   23.3580   38.4400 C   0  0  0  0  0  0  0  0  0  0  0  0
   39.7080   22.6810   37.8420 N   0  0  0  0  0  0  0  0  0  0  0  0
   40.1540   22.9960   36.6010 C   0  0  0  0  0  0  0  0  0  0  0  0
   39.5870   23.9840   35.9200 N   0  0  0  0  0  0  0  0  0  0  0  0
   37.2750   24.9050   38.2080 H   0  0  0  0  0  0  0  0  0  0  0  0
   38.3140   23.1130   39.4220 H   0  0  0  0  0  0  0  0  0  0  0  0
   40.9600   22.4670   36.1420 H   0  0  0  0  0  0  0  0  0  0  0  0
   37.8810   25.7430   35.8530 O   0  0  0  0  0  0  0  0  0  0  0  0
   38.3140   27.0220   36.1800 C   0  0  0  0  0  2  0  0  0  0  0  0
   37.7760   27.6640   35.1610 C   0  0  0  0  0  2  0  0  0  0  0  0
   36.9760   27.0220   34.0870 C   0  0  0  0  0  2  0  0  0  0  0  0
   36.0370   27.5980   33.9160 H   0  0  0  0  0  0  0  0  0  0  0  0
  1  2  1  0  0  0  0
  2  7  1  0  0  0  0
  2  3  2  0  0  0  0
  3  8  1  0  0  0  0
  4  3  1  0  0  0  0
  5  4  2  0  0  0  0
  6  1  2  0  0  0  0
  6  5  1  0  0  0  0
  9  5  1  0  0  0  0
 10 11  1  0  0  0  0
 10  1  1  0  0  0  0
 12 11  1  0  0  0  0
 13 12  1  0  0  0  0
 14 13  1  0  0  0  0
M  END
>  <minimizedAffinity>
-3.35878372

$$$$

 OpenBabel03262521153D

 14 14  0  0  0  0  0  0  0  0999 V2000
   39.8740   22.6560   37.1630 C   0  0  0  0  0  0  0  0  0  0  0  0
   39.1980   23.2440   38.2410 C   0  0  0  0  0  0  0  0  0  0  0  0
   37.8180   23.4140   38.1610 C   0  0  0  0  0  0  0  0  0  0  0  0
   37.1930   22.9850   37.0110 N   0  0  0  0  0  0  0  0  0  0  0  0
   37.8770   22.4190   35.9870 C   0  0  0  0  0  0  0  0  0  0  0  0
   39.1920   22.2620   36.0700 N   0  0  0  0  0  0  0  0  0  0  0  0
   39.6600   23.5860   39.1450 H   0  0  0  0  0  0  0  0  0  0  0  0
   37.2810   23.8610   38.9730 H   0  0  0  0  0  0  0  0  0  0  0  0
   37.3870   22.0880   35.0980 H   0  0  0  0  0  0  0  0  0  0  0  0
   41.2350   22.5580   37.3920 O   0  0  0  0  0  0  0  0  0  0  0  0
   41.8210   21.3290   37.1150 C   0  0  0  0  0  2  0  0  0  0  0  0
   42.9560   21.7760   36.6120 C   0  0  0  0  0  2  0  0  0  0  0  0
   43.3100   23.2110   36.4720 C   0  0  0  0  0  2  0  0  0  0  0  0
   44.3370   23.3900   36.8650 H   0  0  0  0  0  0  0  0  0  0  0  0
  1 10  1  0  0  0  0
  1  2  1  0  0  0  0
  2  7  1  0  0  0  0
  3  2  2  0  0  0  0
  3  8  1  0  0  0  0
  4  3  1  0  0  0  0
  5  6  1  0  0  0  0
  5  4  2  0  0  0  0
  6  1  2  0  0  0  0
  9  5  1  0  0  0  0
 11 10  1  0  0  0  0
 12 11  1  0  0  0  0
 13 12  1  0  0  0  0
 13 14  1  0  0  0  0
M  END
>  <minimizedAffinity>
-3.34458971

$$$$

 OpenBabel03262521153D

 14 14  0  0  0  0  0  0  0  0999 V2000
   38.2420   25.2250   35.6590 C   0  0  0  0  0  0  0  0  0  0  0  0
   38.3060   26.5080   36.2230 C   0  0  0  0  0  0  0  0  0  0  0  0
   37.9280   27.6040   35.4500 C   0  0  0  0  0  0  0  0  0  0  0  0
   37.5060   27.3570   34.1640 N   0  0  0  0  0  0  0  0  0  0  0  0
   37.4550   26.1030   33.6500 C   0  0  0  0  0  0  0  0  0  0  0  0
   37.8180   25.0640   34.3910 N   0  0  0  0  0  0  0  0  0  0  0  0
   38.6300   26.7270   37.2190 H   0  0  0  0  0  0  0  0  0  0  0  0
   37.9690   28.5930   35.8610 H   0  0  0  0  0  0  0  0  0  0  0  0
   37.1260   25.9180   32.6500 H   0  0  0  0  0  0  0  0  0  0  0  0
   38.6490   24.2450   36.5460 O   0  0  0  0  0  0  0  0  0  0  0  0
   37.9970   24.2130   37.7720 C   0  0  0  0  0  2  0  0  0  0  0  0
   38.8000   23.3620   38.3840 C   0  0  0  0  0  2  0  0  0  0  0  0
   39.9960   22.7370   37.7660 C   0  0  0  0  0  2  0  0  0  0  0  0
   40.8680   22.8220   38.4540 H   0  0  0  0  0  0  0  0  0  0  0  0
  1  2  1  0  0  0  0
  1 10  1  0  0  0  0
  2  7  1  0  0  0  0
  3  8  1  0  0  0  0
  3  2  2  0  0  0  0
  4  3  1  0  0  0  0
  5  4  2  0  0  0  0
  5  6  1  0  0  0  0
  6  1  2  0  0  0  0
  9  5  1  0  0  0  0
 10 11  1  0  0  0  0
 11 12  1  0  0  0  0
 13 12  1  0  0  0  0
 13 14  1  0  0  0  0
M  END
>  <minimizedAffinity>
-3.329252

$$$$

 OpenBabel03262521153D

 14 14  0  0  0  0  0  0  0  0999 V2000
   37.0980   25.9170   33.0190 C   0  0  0  0  0  0  0  0  0  0  0  0
   36.6200   27.1450   32.5380 C   0  0  0  0  0  0  0  0  0  0  0  0
   35.7580   27.1520   31.4440 C   0  0  0  0  0  0  0  0  0  0  0  0
   35.4210   25.9360   30.8960 N   0  0  0  0  0  0  0  0  0  0  0  0
   35.9000   24.7660   31.3860 C   0  0  0  0  0  0  0  0  0  0  0  0
   36.7230   24.7670   32.4270 N   0  0  0  0  0  0  0  0  0  0  0  0
   36.8660   28.1040   32.9460 H   0  0  0  0  0  0  0  0  0  0  0  0
   35.3810   28.0790   31.0610 H   0  0  0  0  0  0  0  0  0  0  0  0
   35.6350   23.8250   30.9550 H   0  0  0  0  0  0  0  0  0  0  0  0
   37.9410   26.0740   34.1040 O   0  0  0  0  0  0  0  0  0  0  0  0
   37.4710   26.8680   35.1420 C   0  0  0  0  0  2  0  0  0  0  0  0
   38.6370   27.2530   35.6230 C   0  0  0  0  0  2  0  0  0  0  0  0
   39.9540   26.8460   35.0700 C   0  0  0  0  0  2  0  0  0  0  0  0
   40.6080   27.7400   34.9470 H   0  0  0  0  0  0  0  0  0  0  0  0
  1 10  1  0  0  0  0
  2  7  1  0  0  0  0
  2  1  1  0  0  0  0
  3  2  2  0  0  0  0
  4  5  2  0  0  0  0
  4  3  1  0  0  0  0
  5  6  1  0  0  0  0
  6  1  2  0  0  0  0
  8  3  1  0  0  0  0
  9  5  1  0  0  0  0
 10 11  1  0  0  0  0
 11 12  1  0  0  0  0
 13 12  1  0  0  0  0
 14 13  1  0  0  0  0
M  END
>  <minimizedAffinity>
-3.13889384

$$$$

 OpenBabel03262521153D

 14 14  0  0  0  0  0  0  0  0999 V2000
   37.6190   21.9990   35.2800 C   0  0  0  0  0  0  0  0  0  0  0  0
   36.5370   21.3570   35.8980 C   0  0  0  0  0  0  0  0  0  0  0  0
   35.5890   20.7160   35.1030 C   0  0  0  0  0  0  0  0  0  0  0  0
   35.7770   20.7520   33.7400 N   0  0  0  0  0  0  0  0  0  0  0  0
   36.8360   21.3810   33.1740 C   0  0  0  0  0  0  0  0  0  0  0  0
   37.7340   21.9910   33.9380 N   0  0  0  0  0  0  0  0  0  0  0  0
   36.3670   21.3140   36.9550 H   0  0  0  0  0  0  0  0  0  0  0  0
   34.7530   20.2190   35.5550 H   0  0  0  0  0  0  0  0  0  0  0  0
   36.9760   21.4060   32.1160 H   0  0  0  0  0  0  0  0  0  0  0  0
   38.4700   22.5870   36.1980 O   0  0  0  0  0  0  0  0  0  0  0  0
   37.8690   23.2740   37.2460 C   0  0  0  0  0  2  0  0  0  0  0  0
   38.8980   23.2850   38.0720 C   0  0  0  0  0  2  0  0  0  0  0  0
   40.2240   22.6840   37.7770 C   0  0  0  0  0  2  0  0  0  0  0  0
   41.0330   23.4080   38.0280 H   0  0  0  0  0  0  0  0  0  0  0  0
  1  2  1  0  0  0  0
  1 10  1  0  0  0  0
  2  7  1  0  0  0  0
  3  8  1  0  0  0  0
  3  2  2  0  0  0  0
  4  3  1  0  0  0  0
  5  4  2  0  0  0  0
  5  6  1  0  0  0  0
  6  1  2  0  0  0  0
  9  5  1  0  0  0  0
 10 11  1  0  0  0  0
 11 12  1  0  0  0  0
 13 14  1  0  0  0  0
 13 12  1  0  0  0  0
M  END
>  <minimizedAffinity>
-3.13801813

$$$$

 OpenBabel03262521153D

 14 14  0  0  0  0  0  0  0  0999 V2000
   38.1480   24.9850   35.4960 C   0  0  0  0  0  0  0  0  0  0  0  0
   38.1740   24.3330   34.2540 C   0  0  0  0  0  0  0  0  0  0  0  0
   37.6320   24.9770   33.1430 C   0  0  0  0  0  0  0  0  0  0  0  0
   37.0990   26.2320   33.3360 N   0  0  0  0  0  0  0  0  0  0  0  0
   37.0920   26.8340   34.5510 C   0  0  0  0  0  0  0  0  0  0  0  0
   37.6080   26.2140   35.6040 N   0  0  0  0  0  0  0  0  0  0  0  0
   38.5820   23.3600   34.0780 H   0  0  0  0  0  0  0  0  0  0  0  0
   37.6420   24.4980   32.1850 H   0  0  0  0  0  0  0  0  0  0  0  0
   36.6760   27.8070   34.6930 H   0  0  0  0  0  0  0  0  0  0  0  0
   38.7200   24.2210   36.4970 O   0  0  0  0  0  0  0  0  0  0  0  0
   38.0420   24.1830   37.7090 C   0  0  0  0  0  2  0  0  0  0  0  0
   38.8350   23.3350   38.3360 C   0  0  0  0  0  2  0  0  0  0  0  0
   40.0470   22.7160   37.7430 C   0  0  0  0  0  2  0  0  0  0  0  0
   40.9030   22.8040   38.4510 H   0  0  0  0  0  0  0  0  0  0  0  0
  1  6  1  0  0  0  0
  1 10  1  0  0  0  0
  2  1  2  0  0  0  0
  3  4  2  0  0  0  0
  3  2  1  0  0  0  0
  4  5  1  0  0  0  0
  5  9  1  0  0  0  0
  5  6  2  0  0  0  0
  7  2  1  0  0  0  0
  8  3  1  0  0  0  0
 10 11  1  0  0  0  0
 11 12  1  0  0  0  0
 13 12  1  0  0  0  0
 13 14  1  0  0  0  0
M  END
>  <minimizedAffinity>
-3.11626172

$$$$

 OpenBabel03262521153D

 14 14  0  0  0  0  0  0  0  0999 V2000
   37.0350   25.8210   32.8690 C   0  0  0  0  0  0  0  0  0  0  0  0
   37.1010   24.4460   32.6010 C   0  0  0  0  0  0  0  0  0  0  0  0
   36.3350   23.9240   31.5620 C   0  0  0  0  0  0  0  0  0  0  0  0
   35.5500   24.8020   30.8500 N   0  0  0  0  0  0  0  0  0  0  0  0
   35.5110   26.1280   31.1340 C   0  0  0  0  0  0  0  0  0  0  0  0
   36.2420   26.6180   32.1270 N   0  0  0  0  0  0  0  0  0  0  0  0
   37.7020   23.7420   33.1390 H   0  0  0  0  0  0  0  0  0  0  0  0
   36.3700   22.8760   31.3400 H   0  0  0  0  0  0  0  0  0  0  0  0
   34.9000   26.8040   30.5780 H   0  0  0  0  0  0  0  0  0  0  0  0
   37.8490   26.1860   33.9260 O   0  0  0  0  0  0  0  0  0  0  0  0
   37.2660   26.9720   34.9130 C   0  0  0  0  0  2  0  0  0  0  0  0
   38.3710   27.3390   35.5320 C   0  0  0  0  0  2  0  0  0  0  0  0
   39.7390   26.9240   35.1340 C   0  0  0  0  0  2  0  0  0  0  0  0
   40.4120   27.8120   35.1010 H   0  0  0  0  0  0  0  0  0  0  0  0
  1 10  1  0  0  0  0
  2  1  1  0  0  0  0
  2  7  1  0  0  0  0
  3  2  2  0  0  0  0
  4  5  2  0  0  0  0
  4  3  1  0  0  0  0
  5  6  1  0  0  0  0
  6  1  2  0  0  0  0
  8  3  1  0  0  0  0
  9  5  1  0  0  0  0
 10 11  1  0  0  0  0
 11 12  1  0  0  0  0
 13 12  1  0  0  0  0
 14 13  1  0  0  0  0
M  END
>  <minimizedAffinity>
-3.04773951

$$$$

 OpenBabel03262521153D

 14 14  0  0  0  0  0  0  0  0999 V2000
   40.7870   22.4370   37.2040 C   0  0  0  0  0  0  0  0  0  0  0  0
   41.4210   23.2430   36.2470 C   0  0  0  0  0  0  0  0  0  0  0  0
   42.6580   22.8450   35.7430 C   0  0  0  0  0  0  0  0  0  0  0  0
   43.1870   21.6670   36.2200 N   0  0  0  0  0  0  0  0  0  0  0  0
   42.5460   20.9110   37.1450 C   0  0  0  0  0  0  0  0  0  0  0  0
   41.3690   21.2970   37.6220 N   0  0  0  0  0  0  0  0  0  0  0  0
   41.0320   24.1610   35.8600 H   0  0  0  0  0  0  0  0  0  0  0  0
   43.1600   23.4450   35.0110 H   0  0  0  0  0  0  0  0  0  0  0  0
   42.9620   19.9980   37.5120 H   0  0  0  0  0  0  0  0  0  0  0  0
   39.5720   22.9630   37.6060 O   0  0  0  0  0  0  0  0  0  0  0  0
   38.5710   23.0110   36.6440 C   0  0  0  0  0  2  0  0  0  0  0  0
   37.7450   23.8200   37.2790 C   0  0  0  0  0  2  0  0  0  0  0  0
   37.9990   24.4010   38.6220 C   0  0  0  0  0  2  0  0  0  0  0  0
   37.7910   25.4960   38.6080 H   0  0  0  0  0  0  0  0  0  0  0  0
  1 10  1  0  0  0  0
  1  6  1  0  0  0  0
  2  1  2  0  0  0  0
  3  4  2  0  0  0  0
  3  2  1  0  0  0  0
  4  5  1  0  0  0  0
  5  9  1  0  0  0  0
  5  6  2  0  0  0  0
  7  2  1  0  0  0  0
  8  3  1  0  0  0  0
 11 12  1  0  0  0  0
 11 10  1  0  0  0  0
 12 13  1  0  0  0  0
 14 13  1  0  0  0  0
M  END
>  <minimizedAffinity>
-3.03973889

$$$$

 OpenBabel03262521153D

 14 14  0  0  0  0  0  0  0  0999 V2000
   36.2930   23.6830   31.9580 C   0  0  0  0  0  0  0  0  0  0  0  0
   35.2020   24.1890   31.2350 C   0  0  0  0  0  0  0  0  0  0  0  0
   35.1710   25.5460   30.9240 C   0  0  0  0  0  0  0  0  0  0  0  0
   36.2280   26.3190   31.3480 N   0  0  0  0  0  0  0  0  0  0  0  0
   37.2680   25.7970   32.0440 C   0  0  0  0  0  0  0  0  0  0  0  0
   37.2910   24.5040   32.3390 N   0  0  0  0  0  0  0  0  0  0  0  0
   34.3690   23.6100   30.8940 H   0  0  0  0  0  0  0  0  0  0  0  0
   34.3470   25.9540   30.3720 H   0  0  0  0  0  0  0  0  0  0  0  0
   38.0860   26.4020   32.3710 H   0  0  0  0  0  0  0  0  0  0  0  0
   36.1800   22.3250   32.1900 O   0  0  0  0  0  0  0  0  0  0  0  0
   35.5370   21.5820   31.2080 C   0  0  0  0  0  2  0  0  0  0  0  0
   35.1910   20.5500   31.9540 C   0  0  0  0  0  2  0  0  0  0  0  0
   35.4960   20.4170   33.4010 C   0  0  0  0  0  2  0  0  0  0  0  0
   34.5800   20.1080   33.9560 H   0  0  0  0  0  0  0  0  0  0  0  0
  1 10  1  0  0  0  0
  1  6  1  0  0  0  0
  2  1  2  0  0  0  0
  3  2  1  0  0  0  0
  3  4  2  0  0  0  0
  4  5  1  0  0  0  0
  5  6  2  0  0  0  0
  5  9  1  0  0  0  0
  7  2  1  0  0  0  0
  8  3  1  0  0  0  0
 11 12  1  0  0  0  0
 11 10  1  0  0  0  0
 12 13  1  0  0  0  0
 13 14  1  0  0  0  0
M  END
>  <minimizedAffinity>
-3.01846051

$$$$
