
 OpenBabel03272503123D

 41 44  0  0  0  0  0  0  0  0999 V2000
   39.2950   31.9020   44.9490 C   0  0  0  0  0  0  0  0  0  0  0  0
   38.2080   32.5550   45.0600 O   0  0  0  0  0  0  0  0  0  0  0  0
   39.9760   31.6390   46.1620 N   0  0  0  0  0  0  0  0  0  0  0  0
   40.8660   31.1090   46.0860 H   0  0  0  0  0  0  0  0  0  0  0  0
   39.2090   32.2140   42.5660 C   0  0  0  0  0  0  0  0  0  0  0  0
   39.7370   31.4920   43.6210 C   0  0  0  0  0  0  0  0  0  0  0  0
   40.6110   30.4630   43.4670 C   0  0  0  0  0  0  0  0  0  0  0  0
   41.0120   30.0960   42.1930 C   0  0  0  0  0  0  0  0  0  0  0  0
   41.8360   29.1490   41.7320 N   0  0  0  0  0  0  0  0  0  0  0  0
   41.8540   29.2410   40.3990 C   0  0  0  0  0  0  0  0  0  0  0  0
   41.0420   30.2470   40.0140 N   0  0  0  0  0  0  0  0  0  0  0  0
   40.4980   30.8030   41.1260 C   0  0  0  0  0  0  0  0  0  0  0  0
   39.6120   31.8460   41.2770 C   0  0  0  0  0  0  0  0  0  0  0  0
   38.5070   33.0450   42.6590 H   0  0  0  0  0  0  0  0  0  0  0  0
   41.0100   29.9120   44.3260 H   0  0  0  0  0  0  0  0  0  0  0  0
   42.3920   28.4370   42.2780 H   0  0  0  0  0  0  0  0  0  0  0  0
   42.4100   28.6380   39.6770 H   0  0  0  0  0  0  0  0  0  0  0  0
   39.0960   32.5580   40.1950 O   0  0  0  0  0  0  0  0  0  0  0  0
   38.3750   33.7040   40.3160 C   0  0  0  0  0  2  0  0  0  0  0  0
   37.1480   34.1370   40.1400 C   0  0  0  0  0  2  0  0  0  0  0  0
   35.6900   34.3100   39.8440 C   0  0  0  0  0  2  0  0  0  0  0  0
   35.5560   35.0550   39.0350 H   0  0  0  0  0  0  0  0  0  0  0  0
   38.1340   30.1510   47.5020 F   0  0  0  0  0  0  0  0  0  0  0  0
   38.3770   31.3880   47.9890 C   0  0  0  0  0  0  0  0  0  0  0  0
   37.7180   31.8370   49.0930 C   0  0  0  0  0  0  0  0  0  0  0  0
   38.0160   33.1040   49.5310 C   0  0  0  0  0  0  0  0  0  0  0  0
   38.9310   33.9050   48.9050 C   0  0  0  0  0  0  0  0  0  0  0  0
   39.5960   33.4340   47.7810 C   0  0  0  0  0  0  0  0  0  0  0  0
   39.3090   32.1580   47.3230 C   0  0  0  0  0  0  0  0  0  0  0  0
   37.5000   33.4730   50.4060 H   0  0  0  0  0  0  0  0  0  0  0  0
   39.1720   34.9050   49.2440 H   0  0  0  0  0  0  0  0  0  0  0  0
   40.3310   33.9840   47.2180 H   0  0  0  0  0  0  0  0  0  0  0  0
   36.0740   29.3590   51.4480 C   0  0  0  0  0  0  0  0  0  0  0  0
   37.0290   30.2180   50.8600 C   0  0  0  0  0  0  0  0  0  0  0  0
   36.7480   30.9400   49.7250 C   0  0  0  0  0  0  0  0  0  0  0  0
   35.4850   30.7800   49.1940 N   0  0  0  0  0  0  0  0  0  0  0  0
   34.5750   29.9650   49.7480 C   0  0  0  0  0  0  0  0  0  0  0  0
   34.8650   29.2740   50.8480 N   0  0  0  0  0  0  0  0  0  0  0  0
   36.3470   28.8150   52.3400 H   0  0  0  0  0  0  0  0  0  0  0  0
   38.0260   30.3300   51.2960 H   0  0  0  0  0  0  0  0  0  0  0  0
   33.6040   29.8770   49.2950 H   0  0  0  0  0  0  0  0  0  0  0  0
  1  2  2  0  0  0  0
  1  3  1  0  0  0  0
  3 29  1  0  0  0  0
  4  3  1  0  0  0  0
  5 14  1  0  0  0  0
  5  6  1  0  0  0  0
  6  1  1  0  0  0  0
  7  6  2  0  0  0  0
  7 15  1  0  0  0  0
  8  7  1  0  0  0  0
  9  8  1  0  0  0  0
  9 16  1  0  0  0  0
 10  9  1  0  0  0  0
 11 10  2  0  0  0  0
 11 12  1  0  0  0  0
 12 13  1  0  0  0  0
 12  8  2  0  0  0  0
 13  5  2  0  0  0  0
 17 10  1  0  0  0  0
 18 19  1  0  0  0  0
 18 13  1  0  0  0  0
 20 19  1  0  0  0  0
 21 20  1  0  0  0  0
 22 21  1  0  0  0  0
 23 24  1  0  0  0  0
 24 25  1  0  0  0  0
 25 26  2  0  0  0  0
 25 35  1  0  0  0  0
 26 30  1  0  0  0  0
 27 31  1  0  0  0  0
 27 26  1  0  0  0  0
 28 27  2  0  0  0  0
 29 28  1  0  0  0  0
 29 24  2  0  0  0  0
 32 28  1  0  0  0  0
 33 39  1  0  0  0  0
 34 40  1  0  0  0  0
 34 33  1  0  0  0  0
 35 34  2  0  0  0  0
 36 35  1  0  0  0  0
 36 37  2  0  0  0  0
 37 38  1  0  0  0  0
 38 33  2  0  0  0  0
 41 37  1  0  0  0  0
M  END
>  <minimizedAffinity>
-7.2138133

>  <minimizedRMSD>
0.142105445

$$$$
