
 OpenBabel03272503113D

 41 44  0  0  0  0  0  0  0  0999 V2000
   39.2470   31.7470   45.1120 C   0  0  0  0  0  0  0  0  0  0  0  0
   38.1550   32.3990   45.1740 O   0  0  0  0  0  0  0  0  0  0  0  0
   39.8840   31.5040   46.3530 N   0  0  0  0  0  0  0  0  0  0  0  0
   40.7770   30.9760   46.3180 H   0  0  0  0  0  0  0  0  0  0  0  0
   39.2790   32.0490   42.7270 C   0  0  0  0  0  0  0  0  0  0  0  0
   39.7370   31.3170   43.8080 C   0  0  0  0  0  0  0  0  0  0  0  0
   40.5890   30.2630   43.6990 C   0  0  0  0  0  0  0  0  0  0  0  0
   41.0370   29.8790   42.4460 C   0  0  0  0  0  0  0  0  0  0  0  0
   41.8550   28.9070   42.0280 N   0  0  0  0  0  0  0  0  0  0  0  0
   41.9370   28.9920   40.6960 C   0  0  0  0  0  0  0  0  0  0  0  0
   41.1720   30.0180   40.2700 N   0  0  0  0  0  0  0  0  0  0  0  0
   40.5930   30.5940   41.3530 C   0  0  0  0  0  0  0  0  0  0  0  0
   39.7310   31.6630   41.4590 C   0  0  0  0  0  0  0  0  0  0  0  0
   38.5970   32.8990   42.7840 H   0  0  0  0  0  0  0  0  0  0  0  0
   40.9310   29.7060   44.5770 H   0  0  0  0  0  0  0  0  0  0  0  0
   42.3650   28.1830   42.6010 H   0  0  0  0  0  0  0  0  0  0  0  0
   42.5090   28.3690   40.0030 H   0  0  0  0  0  0  0  0  0  0  0  0
   39.2850   32.3830   40.3510 O   0  0  0  0  0  0  0  0  0  0  0  0
   37.9730   32.5580   40.0390 C   0  0  0  0  0  2  0  0  0  0  0  0
   36.9430   33.2790   40.4210 C   0  0  0  0  0  2  0  0  0  0  0  0
   35.9910   34.2280   41.0800 C   0  0  0  0  0  2  0  0  0  0  0  0
   35.1550   33.6630   41.5390 H   0  0  0  0  0  0  0  0  0  0  0  0
   37.9860   30.0380   47.6390 F   0  0  0  0  0  0  0  0  0  0  0  0
   38.2140   31.2800   48.1190 C   0  0  0  0  0  0  0  0  0  0  0  0
   37.5140   31.7450   49.1920 C   0  0  0  0  0  0  0  0  0  0  0  0
   37.7990   33.0160   49.6250 C   0  0  0  0  0  0  0  0  0  0  0  0
   38.7400   33.8060   49.0260 C   0  0  0  0  0  0  0  0  0  0  0  0
   39.4460   33.3200   47.9340 C   0  0  0  0  0  0  0  0  0  0  0  0
   39.1740   32.0400   47.4810 C   0  0  0  0  0  0  0  0  0  0  0  0
   37.2500   33.3970   50.4750 H   0  0  0  0  0  0  0  0  0  0  0  0
   38.9710   34.8100   49.3610 H   0  0  0  0  0  0  0  0  0  0  0  0
   40.2040   33.8610   47.3940 H   0  0  0  0  0  0  0  0  0  0  0  0
   35.8000   29.2370   51.4630 C   0  0  0  0  0  0  0  0  0  0  0  0
   36.7800   30.0840   50.9010 C   0  0  0  0  0  0  0  0  0  0  0  0
   36.5180   30.8570   49.7960 C   0  0  0  0  0  0  0  0  0  0  0  0
   35.2470   30.7610   49.2690 N   0  0  0  0  0  0  0  0  0  0  0  0
   34.3120   29.9580   49.7980 C   0  0  0  0  0  0  0  0  0  0  0  0
   34.5840   29.2160   50.8690 N   0  0  0  0  0  0  0  0  0  0  0  0
   36.0600   28.6490   52.3320 H   0  0  0  0  0  0  0  0  0  0  0  0
   37.7830   30.1450   51.3340 H   0  0  0  0  0  0  0  0  0  0  0  0
   33.3360   29.9200   49.3490 H   0  0  0  0  0  0  0  0  0  0  0  0
  1  2  2  0  0  0  0
  1  3  1  0  0  0  0
  3 29  1  0  0  0  0
  4  3  1  0  0  0  0
  5 14  1  0  0  0  0
  5  6  1  0  0  0  0
  6  1  1  0  0  0  0
  7  6  2  0  0  0  0
  7 15  1  0  0  0  0
  8  7  1  0  0  0  0
  9  8  1  0  0  0  0
  9 16  1  0  0  0  0
 10  9  1  0  0  0  0
 11 10  2  0  0  0  0
 11 12  1  0  0  0  0
 12 13  1  0  0  0  0
 12  8  2  0  0  0  0
 13  5  2  0  0  0  0
 17 10  1  0  0  0  0
 18 13  1  0  0  0  0
 19 18  1  0  0  0  0
 19 20  1  0  0  0  0
 20 21  1  0  0  0  0
 21 22  1  0  0  0  0
 23 24  1  0  0  0  0
 24 25  1  0  0  0  0
 25 26  2  0  0  0  0
 25 35  1  0  0  0  0
 26 30  1  0  0  0  0
 27 31  1  0  0  0  0
 27 26  1  0  0  0  0
 28 27  2  0  0  0  0
 29 28  1  0  0  0  0
 29 24  2  0  0  0  0
 32 28  1  0  0  0  0
 33 39  1  0  0  0  0
 34 40  1  0  0  0  0
 34 33  1  0  0  0  0
 35 34  2  0  0  0  0
 36 35  1  0  0  0  0
 36 37  2  0  0  0  0
 37 38  1  0  0  0  0
 38 33  2  0  0  0  0
 41 37  1  0  0  0  0
M  END
>  <minimizedAffinity>
-7.12494946

>  <minimizedRMSD>
0.676790595

$$$$
