
 OpenBabel03262522203D

 14 14  0  0  0  0  0  0  0  0999 V2000
   37.4480   30.5740   51.0050 C   0  0  0  0  0  0  0  0  0  0  0  0
   37.1370   31.3380   49.8690 C   0  0  0  0  0  0  0  0  0  0  0  0
   35.9740   31.0210   49.1680 C   0  0  0  0  0  0  0  0  0  0  0  0
   35.2110   30.0050   49.6100 N   0  0  0  0  0  0  0  0  0  0  0  0
   35.5310   29.2830   50.7090 C   0  0  0  0  0  0  0  0  0  0  0  0
   36.6560   29.5520   51.4300 N   0  0  0  0  0  0  0  0  0  0  0  0
   38.3370   30.7440   51.6240 H   0  0  0  0  0  0  0  0  0  0  0  0
   35.8110   31.6390   48.3270 H   0  0  0  0  0  0  0  0  0  0  0  0
   34.8970   28.4630   51.0500 H   0  0  0  0  0  0  0  0  0  0  0  0
   38.0650   32.3180   49.6150 O   0  0  0  0  0  0  0  0  0  0  0  0
   38.6610   32.5410   48.3830 C   0  0  0  0  0  0  0  0  0  0  0  0
   39.0350   31.9370   47.2670 C   0  0  0  0  0  0  0  0  0  0  0  0
   39.6890   32.7020   46.1550 C   0  0  0  0  0  0  0  0  0  0  0  0
   39.7680   33.7860   46.4520 H   0  0  0  0  0  0  0  0  0  0  0  0
  1  6  1  0  0  0  0
  1  7  1  0  0  0  0
  2  1  2  0  0  0  0
  3  4  2  0  0  0  0
  3  2  1  0  0  0  0
  4  5  1  0  0  0  0
  5  9  1  0  0  0  0
  5  6  2  0  0  0  0
  8  3  1  0  0  0  0
 10  2  1  0  0  0  0
 11 10  1  0  0  0  0
 12 11  2  0  0  0  0
 13 14  1  0  0  0  0
 13 12  1  0  0  0  0
M  END
>  <minimizedAffinity>
-3.66659141

>  <minimizedRMSD>
1.53806198

$$$$
