
 OpenBabel03272502273D

 35 37  0  0  0  0  0  0  0  0999 V2000
   35.3500   20.4680   33.2560 C   0  0  0  0  0  0  0  0  0  0  0  0
   36.2580   20.7720   34.2860 C   0  0  0  0  0  0  0  0  0  0  0  0
   37.1440   21.8190   34.0710 C   0  0  0  0  0  0  0  0  0  0  0  0
   37.0680   22.4550   32.9010 N   0  0  0  0  0  0  0  0  0  0  0  0
   36.1980   22.1630   31.9160 C   0  0  0  0  0  0  0  0  0  0  0  0
   35.3370   21.1590   32.1040 N   0  0  0  0  0  0  0  0  0  0  0  0
   34.6540   19.6420   33.4320 H   0  0  0  0  0  0  0  0  0  0  0  0
   36.3080   20.2540   35.2200 H   0  0  0  0  0  0  0  0  0  0  0  0
   38.1130   22.2300   35.0550 C   0  0  0  0  0  0  0  0  0  0  0  0
   39.4790   22.1560   34.7770 C   0  0  0  0  0  0  0  0  0  0  0  0
   40.4410   22.5370   35.6720 C   0  0  0  0  0  0  0  0  0  0  0  0
   40.0620   23.0100   36.8860 N   0  0  0  0  0  0  0  0  0  0  0  0
   38.7530   23.0740   37.1350 C   0  0  0  0  0  0  0  0  0  0  0  0
   37.7900   22.7070   36.2750 N   0  0  0  0  0  0  0  0  0  0  0  0
   39.8250   21.7800   33.8110 H   0  0  0  0  0  0  0  0  0  0  0  0
   41.4980   22.4620   35.4090 H   0  0  0  0  0  0  0  0  0  0  0  0
   38.3150   23.5900   38.4570 C   0  0  0  0  0  0  0  0  0  0  0  0
   37.8970   24.9260   38.2630 F   0  0  0  0  0  0  0  0  0  0  0  0
   37.3210   22.8260   38.9910 F   0  0  0  0  0  0  0  0  0  0  0  0
   39.3670   23.6880   39.3470 F   0  0  0  0  0  0  0  0  0  0  0  0
   36.2640   22.9350   30.7670 O   0  0  0  0  0  0  0  0  0  0  0  0
   38.9930   25.3670   30.4540 N   0  0  0  0  0  0  0  0  0  0  0  0
   38.3870   24.1820   30.4260 C   0  0  0  0  0  0  0  0  0  0  0  0
   37.0490   24.0690   30.7430 C   0  0  0  0  0  0  0  0  0  0  0  0
   36.3520   25.2320   31.0930 C   0  0  0  0  0  0  0  0  0  0  0  0
   35.1470   25.3300   31.4090 O   0  0  0  0  0  0  0  0  0  0  0  0
   37.0120   26.4050   31.1070 N   0  0  0  0  0  0  0  0  0  0  0  0
   38.3270   26.4700   30.7880 C   0  0  0  0  0  0  0  0  0  0  0  0
   38.9620   27.5770   30.7980 O   0  0  0  0  0  0  0  0  0  0  0  0
   39.9970   25.3520   30.2000 H   0  0  0  0  0  0  0  0  0  0  0  0
   38.8280   23.2450   30.1740 H   0  0  0  0  0  0  0  0  0  0  0  0
   36.4050   27.6310   31.4440 C   0  0  0  0  0  3  0  0  0  0  0  0
   36.3060   28.2500   32.6130 C   0  0  0  0  0  3  0  0  0  0  0  0
   35.6310   29.5520   32.8310 C   0  0  0  0  0  2  0  0  0  0  0  0
   34.7450   29.4630   33.4910 H   0  0  0  0  0  0  0  0  0  0  0  0
  1  7  1  0  0  0  0
  1  2  1  0  0  0  0
  2  8  1  0  0  0  0
  3  2  2  0  0  0  0
  3  9  1  0  0  0  0
  4  3  1  0  0  0  0
  5  6  1  0  0  0  0
  5  4  2  0  0  0  0
  6  1  2  0  0  0  0
  9 14  1  0  0  0  0
 10  9  2  0  0  0  0
 10 11  1  0  0  0  0
 11 12  2  0  0  0  0
 12 13  1  0  0  0  0
 13 17  1  0  0  0  0
 14 13  2  0  0  0  0
 15 10  1  0  0  0  0
 16 11  1  0  0  0  0
 17 19  1  0  0  0  0
 17 20  1  0  0  0  0
 18 17  1  0  0  0  0
 21  5  1  0  0  0  0
 22 28  1  0  0  0  0
 23 22  1  0  0  0  0
 23 24  2  0  0  0  0
 24 21  1  0  0  0  0
 24 25  1  0  0  0  0
 25 27  1  0  0  0  0
 25 26  2  0  0  0  0
 27 32  1  0  0  0  0
 28 29  2  0  0  0  0
 28 27  1  0  0  0  0
 30 22  1  0  0  0  0
 31 23  1  0  0  0  0
 32 33  2  0  0  0  0
 33 34  1  0  0  0  0
 34 35  1  0  0  0  0
M  END
>  <minimizedAffinity>
-6.40939903

$$$$

 OpenBabel03272502273D

 35 37  0  0  0  0  0  0  0  0999 V2000
   36.7720   24.2970   31.5750 C   0  0  0  0  0  0  0  0  0  0  0  0
   37.3180   23.6030   32.6690 C   0  0  0  0  0  0  0  0  0  0  0  0
   38.0170   24.3430   33.6130 C   0  0  0  0  0  0  0  0  0  0  0  0
   38.1200   25.6570   33.4080 N   0  0  0  0  0  0  0  0  0  0  0  0
   37.5970   26.3200   32.3600 C   0  0  0  0  0  0  0  0  0  0  0  0
   36.9200   25.6260   31.4400 N   0  0  0  0  0  0  0  0  0  0  0  0
   36.2220   23.7090   30.8340 H   0  0  0  0  0  0  0  0  0  0  0  0
   37.2280   22.5490   32.8220 H   0  0  0  0  0  0  0  0  0  0  0  0
   38.6130   23.7460   34.7820 C   0  0  0  0  0  0  0  0  0  0  0  0
   39.6740   22.8480   34.6550 C   0  0  0  0  0  0  0  0  0  0  0  0
   40.2790   22.2570   35.7300 C   0  0  0  0  0  0  0  0  0  0  0  0
   39.8360   22.5490   36.9780 N   0  0  0  0  0  0  0  0  0  0  0  0
   38.8210   23.4070   37.0810 C   0  0  0  0  0  0  0  0  0  0  0  0
   38.2110   24.0020   36.0440 N   0  0  0  0  0  0  0  0  0  0  0  0
   40.0590   22.5870   33.6660 H   0  0  0  0  0  0  0  0  0  0  0  0
   41.1070   21.5610   35.5810 H   0  0  0  0  0  0  0  0  0  0  0  0
   38.3210   23.7420   38.4390 C   0  0  0  0  0  0  0  0  0  0  0  0
   37.9270   25.0990   38.4140 F   0  0  0  0  0  0  0  0  0  0  0  0
   37.2920   22.9280   38.8110 F   0  0  0  0  0  0  0  0  0  0  0  0
   39.3260   23.6970   39.3860 F   0  0  0  0  0  0  0  0  0  0  0  0
   37.8040   27.6890   32.3130 O   0  0  0  0  0  0  0  0  0  0  0  0
   35.2840   29.9040   30.8280 N   0  0  0  0  0  0  0  0  0  0  0  0
   36.3420   29.0970   30.8780 C   0  0  0  0  0  0  0  0  0  0  0  0
   36.7440   28.5380   32.0740 C   0  0  0  0  0  0  0  0  0  0  0  0
   36.0080   28.8440   33.2270 C   0  0  0  0  0  0  0  0  0  0  0  0
   36.2160   28.4380   34.3900 O   0  0  0  0  0  0  0  0  0  0  0  0
   34.9470   29.6650   33.1210 N   0  0  0  0  0  0  0  0  0  0  0  0
   34.5880   30.1910   31.9250 C   0  0  0  0  0  0  0  0  0  0  0  0
   33.5840   30.9720   31.8140 O   0  0  0  0  0  0  0  0  0  0  0  0
   35.0590   30.2740   29.8860 H   0  0  0  0  0  0  0  0  0  0  0  0
   36.9620   28.8060   30.0620 H   0  0  0  0  0  0  0  0  0  0  0  0
   34.1420   30.0350   34.2160 C   0  0  0  0  0  3  0  0  0  0  0  0
   34.3350   30.9520   35.1550 C   0  0  0  0  0  3  0  0  0  0  0  0
   33.3960   31.2410   36.2660 C   0  0  0  0  0  2  0  0  0  0  0  0
   33.8320   31.0100   37.2590 H   0  0  0  0  0  0  0  0  0  0  0  0
  1  2  1  0  0  0  0
  2  8  1  0  0  0  0
  2  3  2  0  0  0  0
  3  9  1  0  0  0  0
  4  3  1  0  0  0  0
  5  4  2  0  0  0  0
  6  1  2  0  0  0  0
  6  5  1  0  0  0  0
  7  1  1  0  0  0  0
  9 14  1  0  0  0  0
 10  9  2  0  0  0  0
 10 11  1  0  0  0  0
 11 12  2  0  0  0  0
 12 13  1  0  0  0  0
 13 17  1  0  0  0  0
 14 13  2  0  0  0  0
 15 10  1  0  0  0  0
 16 11  1  0  0  0  0
 17 19  1  0  0  0  0
 17 20  1  0  0  0  0
 18 17  1  0  0  0  0
 21  5  1  0  0  0  0
 22 23  1  0  0  0  0
 22 28  1  0  0  0  0
 23 24  2  0  0  0  0
 24 21  1  0  0  0  0
 24 25  1  0  0  0  0
 25 26  2  0  0  0  0
 27 25  1  0  0  0  0
 27 32  1  0  0  0  0
 28 27  1  0  0  0  0
 29 28  2  0  0  0  0
 30 22  1  0  0  0  0
 31 23  1  0  0  0  0
 32 33  2  0  0  0  0
 33 34  1  0  0  0  0
 34 35  1  0  0  0  0
M  END
>  <minimizedAffinity>
-6.31989193

$$$$

 OpenBabel03272502273D

 35 37  0  0  0  0  0  0  0  0999 V2000
   35.8890   25.8020   31.4250 C   0  0  0  0  0  0  0  0  0  0  0  0
   35.5440   24.4640   31.1630 C   0  0  0  0  0  0  0  0  0  0  0  0
   36.2860   23.4750   31.7940 C   0  0  0  0  0  0  0  0  0  0  0  0
   37.2730   23.8710   32.6000 N   0  0  0  0  0  0  0  0  0  0  0  0
   37.6030   25.1510   32.8500 C   0  0  0  0  0  0  0  0  0  0  0  0
   36.9000   26.1180   32.2520 N   0  0  0  0  0  0  0  0  0  0  0  0
   35.3000   26.5770   30.9250 H   0  0  0  0  0  0  0  0  0  0  0  0
   34.7500   24.1600   30.5140 H   0  0  0  0  0  0  0  0  0  0  0  0
   36.0210   22.0700   31.6130 C   0  0  0  0  0  0  0  0  0  0  0  0
   35.0450   21.4300   32.3780 C   0  0  0  0  0  0  0  0  0  0  0  0
   34.7500   20.1010   32.2440 C   0  0  0  0  0  0  0  0  0  0  0  0
   35.4290   19.3640   31.3300 N   0  0  0  0  0  0  0  0  0  0  0  0
   36.3580   19.9910   30.6080 C   0  0  0  0  0  0  0  0  0  0  0  0
   36.6670   21.2930   30.7190 N   0  0  0  0  0  0  0  0  0  0  0  0
   34.4770   21.9890   33.1260 H   0  0  0  0  0  0  0  0  0  0  0  0
   33.9770   19.6440   32.8650 H   0  0  0  0  0  0  0  0  0  0  0  0
   37.1130   19.2030   29.6000 C   0  0  0  0  0  0  0  0  0  0  0  0
   38.0320   20.0850   28.9880 F   0  0  0  0  0  0  0  0  0  0  0  0
   37.7430   18.1350   30.1660 F   0  0  0  0  0  0  0  0  0  0  0  0
   36.3040   18.7800   28.5630 F   0  0  0  0  0  0  0  0  0  0  0  0
   38.6600   25.3730   33.7180 O   0  0  0  0  0  0  0  0  0  0  0  0
   37.9430   24.6820   37.2500 N   0  0  0  0  0  0  0  0  0  0  0  0
   37.8600   25.2950   36.0700 C   0  0  0  0  0  0  0  0  0  0  0  0
   38.6160   24.8650   35.0000 C   0  0  0  0  0  0  0  0  0  0  0  0
   39.4690   23.7700   35.1900 C   0  0  0  0  0  0  0  0  0  0  0  0
   40.2250   23.2400   34.3480 O   0  0  0  0  0  0  0  0  0  0  0  0
   39.5160   23.1870   36.4020 N   0  0  0  0  0  0  0  0  0  0  0  0
   38.7550   23.6420   37.4260 C   0  0  0  0  0  0  0  0  0  0  0  0
   38.7920   23.0960   38.5790 O   0  0  0  0  0  0  0  0  0  0  0  0
   37.3370   25.0760   37.9920 H   0  0  0  0  0  0  0  0  0  0  0  0
   37.2460   26.1310   35.8270 H   0  0  0  0  0  0  0  0  0  0  0  0
   40.3370   22.0810   36.6980 C   0  0  0  0  0  3  0  0  0  0  0  0
   41.6120   22.0290   37.0610 C   0  0  0  0  0  3  0  0  0  0  0  0
   42.3650   20.7830   37.3450 C   0  0  0  0  0  2  0  0  0  0  0  0
   43.1940   20.6180   36.6270 H   0  0  0  0  0  0  0  0  0  0  0  0
  1  6  1  0  0  0  0
  2  1  2  0  0  0  0
  2  3  1  0  0  0  0
  3  4  2  0  0  0  0
  4  5  1  0  0  0  0
  5 21  1  0  0  0  0
  6  5  2  0  0  0  0
  7  1  1  0  0  0  0
  8  2  1  0  0  0  0
  9  3  1  0  0  0  0
  9 10  1  0  0  0  0
 10 15  1  0  0  0  0
 11 10  2  0  0  0  0
 11 16  1  0  0  0  0
 12 11  1  0  0  0  0
 13 14  1  0  0  0  0
 13 12  2  0  0  0  0
 14  9  2  0  0  0  0
 17 19  1  0  0  0  0
 17 13  1  0  0  0  0
 18 17  1  0  0  0  0
 20 17  1  0  0  0  0
 21 24  1  0  0  0  0
 22 28  1  0  0  0  0
 22 30  1  0  0  0  0
 23 22  1  0  0  0  0
 24 25  1  0  0  0  0
 24 23  2  0  0  0  0
 25 27  1  0  0  0  0
 26 25  2  0  0  0  0
 27 32  1  0  0  0  0
 27 28  1  0  0  0  0
 28 29  2  0  0  0  0
 31 23  1  0  0  0  0
 32 33  2  0  0  0  0
 33 34  1  0  0  0  0
 35 34  1  0  0  0  0
M  END
>  <minimizedAffinity>
-6.31022167

$$$$

 OpenBabel03272502273D

 35 37  0  0  0  0  0  0  0  0999 V2000
   35.4660   20.6300   33.2970 C   0  0  0  0  0  0  0  0  0  0  0  0
   36.3450   20.8860   34.3640 C   0  0  0  0  0  0  0  0  0  0  0  0
   37.2850   21.8930   34.1940 C   0  0  0  0  0  0  0  0  0  0  0  0
   37.2840   22.5400   33.0270 N   0  0  0  0  0  0  0  0  0  0  0  0
   36.4420   22.2950   32.0060 C   0  0  0  0  0  0  0  0  0  0  0  0
   35.5300   21.3280   32.1510 N   0  0  0  0  0  0  0  0  0  0  0  0
   34.7270   19.8350   33.4370 H   0  0  0  0  0  0  0  0  0  0  0  0
   36.3350   20.3590   35.2940 H   0  0  0  0  0  0  0  0  0  0  0  0
   38.2310   22.2530   35.2180 C   0  0  0  0  0  0  0  0  0  0  0  0
   39.6000   22.0770   35.0110 C   0  0  0  0  0  0  0  0  0  0  0  0
   40.5420   22.4060   35.9470 C   0  0  0  0  0  0  0  0  0  0  0  0
   40.1390   22.9290   37.1320 N   0  0  0  0  0  0  0  0  0  0  0  0
   38.8280   23.0910   37.3130 C   0  0  0  0  0  0  0  0  0  0  0  0
   37.8840   22.7760   36.4120 N   0  0  0  0  0  0  0  0  0  0  0  0
   39.9650   21.6580   34.0690 H   0  0  0  0  0  0  0  0  0  0  0  0
   41.6020   22.2500   35.7390 H   0  0  0  0  0  0  0  0  0  0  0  0
   38.3640   23.6620   38.6040 C   0  0  0  0  0  0  0  0  0  0  0  0
   37.2960   22.8540   39.0560 F   0  0  0  0  0  0  0  0  0  0  0  0
   39.3720   23.7200   39.5200 F   0  0  0  0  0  0  0  0  0  0  0  0
   37.8000   24.9130   38.4410 F   0  0  0  0  0  0  0  0  0  0  0  0
   36.5880   23.0700   30.8670 O   0  0  0  0  0  0  0  0  0  0  0  0
   35.2670   26.4800   31.1730 N   0  0  0  0  0  0  0  0  0  0  0  0
   35.2500   25.1490   31.1300 C   0  0  0  0  0  0  0  0  0  0  0  0
   36.4170   24.4370   30.9380 C   0  0  0  0  0  0  0  0  0  0  0  0
   37.6120   25.1530   30.7910 C   0  0  0  0  0  0  0  0  0  0  0  0
   38.7580   24.6890   30.6110 O   0  0  0  0  0  0  0  0  0  0  0  0
   37.5730   26.4970   30.8420 N   0  0  0  0  0  0  0  0  0  0  0  0
   36.4050   27.1560   31.0330 C   0  0  0  0  0  0  0  0  0  0  0  0
   36.3580   28.4300   31.0820 O   0  0  0  0  0  0  0  0  0  0  0  0
   34.3440   26.9250   31.3210 H   0  0  0  0  0  0  0  0  0  0  0  0
   34.3980   24.5180   31.2300 H   0  0  0  0  0  0  0  0  0  0  0  0
   38.7160   27.3100   30.7060 C   0  0  0  0  0  3  0  0  0  0  0  0
   39.2730   27.8390   29.6240 C   0  0  0  0  0  3  0  0  0  0  0  0
   40.4910   28.6850   29.6220 C   0  0  0  0  0  2  0  0  0  0  0  0
   41.3340   28.2110   29.0810 H   0  0  0  0  0  0  0  0  0  0  0  0
  1  7  1  0  0  0  0
  1  2  1  0  0  0  0
  2  8  1  0  0  0  0
  3  2  2  0  0  0  0
  3  9  1  0  0  0  0
  4  3  1  0  0  0  0
  5  6  1  0  0  0  0
  5  4  2  0  0  0  0
  6  1  2  0  0  0  0
  9 14  1  0  0  0  0
 10  9  2  0  0  0  0
 10 11  1  0  0  0  0
 11 12  2  0  0  0  0
 12 13  1  0  0  0  0
 13 17  1  0  0  0  0
 14 13  2  0  0  0  0
 15 10  1  0  0  0  0
 16 11  1  0  0  0  0
 17 18  1  0  0  0  0
 17 19  1  0  0  0  0
 20 17  1  0  0  0  0
 21 24  1  0  0  0  0
 21  5  1  0  0  0  0
 22 30  1  0  0  0  0
 23 22  1  0  0  0  0
 23 31  1  0  0  0  0
 24 23  2  0  0  0  0
 25 27  1  0  0  0  0
 25 24  1  0  0  0  0
 26 25  2  0  0  0  0
 27 28  1  0  0  0  0
 28 29  2  0  0  0  0
 28 22  1  0  0  0  0
 32 27  1  0  0  0  0
 33 32  2  0  0  0  0
 34 33  1  0  0  0  0
 35 34  1  0  0  0  0
M  END
>  <minimizedAffinity>
-6.30127668

$$$$

 OpenBabel03272502273D

 35 37  0  0  0  0  0  0  0  0999 V2000
   36.8870   29.1650   30.2260 C   0  0  0  0  0  0  0  0  0  0  0  0
   36.2330   29.8620   31.2580 C   0  0  0  0  0  0  0  0  0  0  0  0
   35.4800   29.1200   32.1570 C   0  0  0  0  0  0  0  0  0  0  0  0
   35.4320   27.7990   31.9720 N   0  0  0  0  0  0  0  0  0  0  0  0
   36.0580   27.1320   30.9840 C   0  0  0  0  0  0  0  0  0  0  0  0
   36.7880   27.8300   30.1080 N   0  0  0  0  0  0  0  0  0  0  0  0
   37.4790   29.7550   29.5210 H   0  0  0  0  0  0  0  0  0  0  0  0
   36.2800   30.9210   31.3950 H   0  0  0  0  0  0  0  0  0  0  0  0
   34.7740   29.7200   33.2600 C   0  0  0  0  0  0  0  0  0  0  0  0
   33.4180   29.4570   33.4590 C   0  0  0  0  0  0  0  0  0  0  0  0
   32.7000   29.9960   34.4920 C   0  0  0  0  0  0  0  0  0  0  0  0
   33.3250   30.8240   35.3670 N   0  0  0  0  0  0  0  0  0  0  0  0
   34.6210   31.0640   35.1620 C   0  0  0  0  0  0  0  0  0  0  0  0
   35.3470   30.5480   34.1580 N   0  0  0  0  0  0  0  0  0  0  0  0
   32.8790   28.7960   32.7760 H   0  0  0  0  0  0  0  0  0  0  0  0
   31.6410   29.7610   34.6080 H   0  0  0  0  0  0  0  0  0  0  0  0
   35.3250   31.9660   36.1090 C   0  0  0  0  0  0  0  0  0  0  0  0
   34.7350   31.7770   37.3800 F   0  0  0  0  0  0  0  0  0  0  0  0
   36.6660   31.7180   36.1370 F   0  0  0  0  0  0  0  0  0  0  0  0
   35.0960   33.2970   35.8220 F   0  0  0  0  0  0  0  0  0  0  0  0
   35.8950   25.7570   30.9500 O   0  0  0  0  0  0  0  0  0  0  0  0
   38.1170   24.4170   33.5430 N   0  0  0  0  0  0  0  0  0  0  0  0
   37.5400   25.3290   32.7630 C   0  0  0  0  0  0  0  0  0  0  0  0
   36.5900   24.9580   31.8320 C   0  0  0  0  0  0  0  0  0  0  0  0
   36.2550   23.6020   31.7340 C   0  0  0  0  0  0  0  0  0  0  0  0
   35.4260   23.0780   30.9590 O   0  0  0  0  0  0  0  0  0  0  0  0
   36.8690   22.7210   32.5460 N   0  0  0  0  0  0  0  0  0  0  0  0
   37.7950   23.1290   33.4460 C   0  0  0  0  0  0  0  0  0  0  0  0
   38.3840   22.3020   34.2200 O   0  0  0  0  0  0  0  0  0  0  0  0
   38.8160   24.7900   34.2100 H   0  0  0  0  0  0  0  0  0  0  0  0
   37.7260   26.3770   32.7620 H   0  0  0  0  0  0  0  0  0  0  0  0
   36.6040   21.3370   32.5280 C   0  0  0  0  0  3  0  0  0  0  0  0
   35.6280   20.6410   33.0950 C   0  0  0  0  0  3  0  0  0  0  0  0
   35.4650   19.1700   32.9960 C   0  0  0  0  0  2  0  0  0  0  0  0
   35.5710   18.6660   33.9780 H   0  0  0  0  0  0  0  0  0  0  0  0
  1  2  1  0  0  0  0
  2  8  1  0  0  0  0
  2  3  2  0  0  0  0
  3  9  1  0  0  0  0
  4  3  1  0  0  0  0
  5  4  2  0  0  0  0
  6  1  2  0  0  0  0
  6  5  1  0  0  0  0
  7  1  1  0  0  0  0
  9 10  2  0  0  0  0
  9 14  1  0  0  0  0
 10 11  1  0  0  0  0
 11 16  1  0  0  0  0
 11 12  2  0  0  0  0
 13 12  1  0  0  0  0
 13 17  1  0  0  0  0
 14 13  2  0  0  0  0
 15 10  1  0  0  0  0
 17 19  1  0  0  0  0
 17 18  1  0  0  0  0
 20 17  1  0  0  0  0
 21  5  1  0  0  0  0
 21 24  1  0  0  0  0
 22 30  1  0  0  0  0
 23 22  1  0  0  0  0
 24 23  2  0  0  0  0
 25 24  1  0  0  0  0
 25 27  1  0  0  0  0
 26 25  2  0  0  0  0
 27 28  1  0  0  0  0
 28 22  1  0  0  0  0
 28 29  2  0  0  0  0
 31 23  1  0  0  0  0
 32 27  1  0  0  0  0
 32 33  2  0  0  0  0
 34 33  1  0  0  0  0
 34 35  1  0  0  0  0
M  END
>  <minimizedAffinity>
-6.14098024

$$$$

 OpenBabel03272502273D

 35 37  0  0  0  0  0  0  0  0999 V2000
   35.5130   20.7150   33.7720 C   0  0  0  0  0  0  0  0  0  0  0  0
   36.2970   20.9910   34.9060 C   0  0  0  0  0  0  0  0  0  0  0  0
   37.3540   21.8780   34.7560 C   0  0  0  0  0  0  0  0  0  0  0  0
   37.5460   22.4010   33.5440 N   0  0  0  0  0  0  0  0  0  0  0  0
   36.7960   22.1380   32.4580 C   0  0  0  0  0  0  0  0  0  0  0  0
   35.7730   21.2850   32.5830 N   0  0  0  0  0  0  0  0  0  0  0  0
   34.6820   20.0160   33.8960 H   0  0  0  0  0  0  0  0  0  0  0  0
   36.1320   20.5640   35.8720 H   0  0  0  0  0  0  0  0  0  0  0  0
   38.2210   22.2460   35.8470 C   0  0  0  0  0  0  0  0  0  0  0  0
   37.7420   23.0330   36.8960 C   0  0  0  0  0  0  0  0  0  0  0  0
   38.5200   23.4070   37.9580 C   0  0  0  0  0  0  0  0  0  0  0  0
   39.8130   23.0000   38.0030 N   0  0  0  0  0  0  0  0  0  0  0  0
   40.2530   22.2500   36.9930 C   0  0  0  0  0  0  0  0  0  0  0  0
   39.5130   21.8690   35.9400 N   0  0  0  0  0  0  0  0  0  0  0  0
   36.7060   23.3800   36.8960 H   0  0  0  0  0  0  0  0  0  0  0  0
   38.1010   24.0230   38.7560 H   0  0  0  0  0  0  0  0  0  0  0  0
   41.6670   21.7920   37.0230 C   0  0  0  0  0  0  0  0  0  0  0  0
   42.4760   22.9500   37.0790 F   0  0  0  0  0  0  0  0  0  0  0  0
   41.9040   20.9630   38.0780 F   0  0  0  0  0  0  0  0  0  0  0  0
   42.0350   21.1750   35.8430 F   0  0  0  0  0  0  0  0  0  0  0  0
   37.1440   22.7770   31.2790 O   0  0  0  0  0  0  0  0  0  0  0  0
   35.4300   25.9840   30.7940 N   0  0  0  0  0  0  0  0  0  0  0  0
   35.5640   24.6710   30.9730 C   0  0  0  0  0  0  0  0  0  0  0  0
   36.8160   24.1030   31.0920 C   0  0  0  0  0  0  0  0  0  0  0  0
   37.9340   24.9450   31.0200 C   0  0  0  0  0  0  0  0  0  0  0  0
   39.1380   24.6190   31.1040 O   0  0  0  0  0  0  0  0  0  0  0  0
   37.7420   26.2640   30.8370 N   0  0  0  0  0  0  0  0  0  0  0  0
   36.4940   26.7800   30.7250 C   0  0  0  0  0  0  0  0  0  0  0  0
   36.3010   28.0300   30.5520 O   0  0  0  0  0  0  0  0  0  0  0  0
   34.4520   26.3180   30.7160 H   0  0  0  0  0  0  0  0  0  0  0  0
   34.7820   23.9520   31.0410 H   0  0  0  0  0  0  0  0  0  0  0  0
   38.7960   27.1950   30.7510 C   0  0  0  0  0  3  0  0  0  0  0  0
   39.5040   27.6000   29.7040 C   0  0  0  0  0  3  0  0  0  0  0  0
   40.6000   28.5970   29.7530 C   0  0  0  0  0  2  0  0  0  0  0  0
   41.5810   28.1600   29.4790 H   0  0  0  0  0  0  0  0  0  0  0  0
  1  7  1  0  0  0  0
  1  2  1  0  0  0  0
  2  8  1  0  0  0  0
  3  2  2  0  0  0  0
  3  9  1  0  0  0  0
  4  3  1  0  0  0  0
  5  6  1  0  0  0  0
  5  4  2  0  0  0  0
  6  1  2  0  0  0  0
  9 14  2  0  0  0  0
  9 10  1  0  0  0  0
 10 11  2  0  0  0  0
 11 12  1  0  0  0  0
 11 16  1  0  0  0  0
 13 17  1  0  0  0  0
 13 12  2  0  0  0  0
 14 13  1  0  0  0  0
 15 10  1  0  0  0  0
 17 18  1  0  0  0  0
 17 19  1  0  0  0  0
 20 17  1  0  0  0  0
 21  5  1  0  0  0  0
 22 23  1  0  0  0  0
 23 31  1  0  0  0  0
 23 24  2  0  0  0  0
 24 21  1  0  0  0  0
 25 24  1  0  0  0  0
 25 26  2  0  0  0  0
 27 25  1  0  0  0  0
 28 22  1  0  0  0  0
 28 27  1  0  0  0  0
 29 28  2  0  0  0  0
 30 22  1  0  0  0  0
 32 27  1  0  0  0  0
 33 34  1  0  0  0  0
 33 32  2  0  0  0  0
 35 34  1  0  0  0  0
M  END
>  <minimizedAffinity>
-6.137187

$$$$

 OpenBabel03272502273D

 35 37  0  0  0  0  0  0  0  0999 V2000
   37.9960   27.5110   33.6700 C   0  0  0  0  0  0  0  0  0  0  0  0
   38.4100   26.7930   34.8060 C   0  0  0  0  0  0  0  0  0  0  0  0
   38.1600   25.4270   34.8290 C   0  0  0  0  0  0  0  0  0  0  0  0
   37.5430   24.9010   33.7690 N   0  0  0  0  0  0  0  0  0  0  0  0
   37.1470   25.5880   32.6820 C   0  0  0  0  0  0  0  0  0  0  0  0
   37.3780   26.9040   32.6420 N   0  0  0  0  0  0  0  0  0  0  0  0
   38.1950   28.5860   33.6580 H   0  0  0  0  0  0  0  0  0  0  0  0
   38.9040   27.2280   35.6480 H   0  0  0  0  0  0  0  0  0  0  0  0
   38.5470   24.5850   35.9320 C   0  0  0  0  0  0  0  0  0  0  0  0
   37.7550   24.5150   37.0790 C   0  0  0  0  0  0  0  0  0  0  0  0
   38.0720   23.7290   38.1530 C   0  0  0  0  0  0  0  0  0  0  0  0
   39.2030   22.9810   38.1120 N   0  0  0  0  0  0  0  0  0  0  0  0
   39.9470   23.0600   37.0080 C   0  0  0  0  0  0  0  0  0  0  0  0
   39.6600   23.8220   35.9410 N   0  0  0  0  0  0  0  0  0  0  0  0
   36.8360   25.1030   37.1510 H   0  0  0  0  0  0  0  0  0  0  0  0
   37.4210   23.7060   39.0290 H   0  0  0  0  0  0  0  0  0  0  0  0
   41.1900   22.2480   36.9410 C   0  0  0  0  0  0  0  0  0  0  0  0
   42.2740   23.1530   36.8770 F   0  0  0  0  0  0  0  0  0  0  0  0
   41.3000   21.4080   38.0090 F   0  0  0  0  0  0  0  0  0  0  0  0
   41.2740   21.5310   35.7630 F   0  0  0  0  0  0  0  0  0  0  0  0
   36.5200   24.8710   31.6760 O   0  0  0  0  0  0  0  0  0  0  0  0
   38.6510   22.3000   30.1550 N   0  0  0  0  0  0  0  0  0  0  0  0
   38.2590   23.5180   30.5250 C   0  0  0  0  0  0  0  0  0  0  0  0
   37.0780   23.6970   31.2170 C   0  0  0  0  0  0  0  0  0  0  0  0
   36.3100   22.5640   31.5170 C   0  0  0  0  0  0  0  0  0  0  0  0
   35.2220   22.5250   32.1300 O   0  0  0  0  0  0  0  0  0  0  0  0
   36.7510   21.3560   31.1190 N   0  0  0  0  0  0  0  0  0  0  0  0
   37.9170   21.2280   30.4420 C   0  0  0  0  0  0  0  0  0  0  0  0
   38.3450   20.0870   30.0600 O   0  0  0  0  0  0  0  0  0  0  0  0
   39.5490   22.2670   29.6410 H   0  0  0  0  0  0  0  0  0  0  0  0
   38.7690   24.4350   30.3450 H   0  0  0  0  0  0  0  0  0  0  0  0
   36.0560   20.1570   31.3710 C   0  0  0  0  0  3  0  0  0  0  0  0
   36.0310   19.3870   32.4510 C   0  0  0  0  0  3  0  0  0  0  0  0
   35.2480   18.1350   32.5840 C   0  0  0  0  0  2  0  0  0  0  0  0
   35.8950   17.2440   32.7080 H   0  0  0  0  0  0  0  0  0  0  0  0
  1  2  1  0  0  0  0
  2  3  2  0  0  0  0
  2  8  1  0  0  0  0
  3  9  1  0  0  0  0
  4  3  1  0  0  0  0
  5  4  2  0  0  0  0
  6  5  1  0  0  0  0
  6  1  2  0  0  0  0
  7  1  1  0  0  0  0
  9 14  2  0  0  0  0
  9 10  1  0  0  0  0
 10 15  1  0  0  0  0
 10 11  2  0  0  0  0
 11 16  1  0  0  0  0
 12 11  1  0  0  0  0
 13 12  2  0  0  0  0
 14 13  1  0  0  0  0
 17 13  1  0  0  0  0
 17 19  1  0  0  0  0
 18 17  1  0  0  0  0
 20 17  1  0  0  0  0
 21  5  1  0  0  0  0
 22 28  1  0  0  0  0
 22 23  1  0  0  0  0
 23 24  2  0  0  0  0
 24 25  1  0  0  0  0
 24 21  1  0  0  0  0
 25 26  2  0  0  0  0
 27 32  1  0  0  0  0
 27 25  1  0  0  0  0
 28 27  1  0  0  0  0
 29 28  2  0  0  0  0
 30 22  1  0  0  0  0
 31 23  1  0  0  0  0
 32 33  2  0  0  0  0
 33 34  1  0  0  0  0
 34 35  1  0  0  0  0
M  END
>  <minimizedAffinity>
-6.0708847

$$$$

 OpenBabel03272502273D

 35 37  0  0  0  0  0  0  0  0999 V2000
   35.4370   20.5920   33.6050 C   0  0  0  0  0  0  0  0  0  0  0  0
   36.1810   20.9050   34.7580 C   0  0  0  0  0  0  0  0  0  0  0  0
   37.2100   21.8280   34.6260 C   0  0  0  0  0  0  0  0  0  0  0  0
   37.4160   22.3460   33.4140 N   0  0  0  0  0  0  0  0  0  0  0  0
   36.7040   22.0460   32.3120 C   0  0  0  0  0  0  0  0  0  0  0  0
   35.7090   21.1600   32.4180 N   0  0  0  0  0  0  0  0  0  0  0  0
   34.6280   19.8650   33.7150 H   0  0  0  0  0  0  0  0  0  0  0  0
   36.0050   20.4820   35.7230 H   0  0  0  0  0  0  0  0  0  0  0  0
   38.0330   22.2360   35.7360 C   0  0  0  0  0  0  0  0  0  0  0  0
   37.4910   22.9820   36.7830 C   0  0  0  0  0  0  0  0  0  0  0  0
   38.2250   23.3920   37.8620 C   0  0  0  0  0  0  0  0  0  0  0  0
   39.5400   23.0620   37.9280 N   0  0  0  0  0  0  0  0  0  0  0  0
   40.0420   22.3490   36.9190 C   0  0  0  0  0  0  0  0  0  0  0  0
   39.3440   21.9350   35.8500 N   0  0  0  0  0  0  0  0  0  0  0  0
   36.4360   23.2680   36.7660 H   0  0  0  0  0  0  0  0  0  0  0  0
   37.7570   23.9740   38.6580 H   0  0  0  0  0  0  0  0  0  0  0  0
   41.4790   21.9760   36.9710 C   0  0  0  0  0  0  0  0  0  0  0  0
   41.7510   21.2100   35.8150 F   0  0  0  0  0  0  0  0  0  0  0  0
   42.2810   23.0750   37.0440 F   0  0  0  0  0  0  0  0  0  0  0  0
   41.7520   21.1200   38.0200 F   0  0  0  0  0  0  0  0  0  0  0  0
   37.0620   22.6860   31.1360 O   0  0  0  0  0  0  0  0  0  0  0  0
   39.4080   25.5050   31.2450 N   0  0  0  0  0  0  0  0  0  0  0  0
   39.0030   24.2370   31.1990 C   0  0  0  0  0  0  0  0  0  0  0  0
   37.6590   23.9290   31.1830 C   0  0  0  0  0  0  0  0  0  0  0  0
   36.7370   24.9840   31.2150 C   0  0  0  0  0  0  0  0  0  0  0  0
   35.4910   24.9050   31.2070 O   0  0  0  0  0  0  0  0  0  0  0  0
   37.1990   26.2470   31.2620 N   0  0  0  0  0  0  0  0  0  0  0  0
   38.5290   26.5040   31.2760 C   0  0  0  0  0  0  0  0  0  0  0  0
   38.9780   27.6990   31.3210 O   0  0  0  0  0  0  0  0  0  0  0  0
   40.4350   25.6370   31.2540 H   0  0  0  0  0  0  0  0  0  0  0  0
   39.6220   23.3700   31.1720 H   0  0  0  0  0  0  0  0  0  0  0  0
   36.3590   27.3780   31.2970 C   0  0  0  0  0  3  0  0  0  0  0  0
   35.8930   28.0720   32.3270 C   0  0  0  0  0  3  0  0  0  0  0  0
   35.0050   29.2550   32.2220 C   0  0  0  0  0  2  0  0  0  0  0  0
   34.0080   29.0770   32.6720 H   0  0  0  0  0  0  0  0  0  0  0  0
  1  7  1  0  0  0  0
  1  2  1  0  0  0  0
  2  8  1  0  0  0  0
  3  2  2  0  0  0  0
  3  9  1  0  0  0  0
  4  3  1  0  0  0  0
  5  6  1  0  0  0  0
  5  4  2  0  0  0  0
  6  1  2  0  0  0  0
  9 14  2  0  0  0  0
  9 10  1  0  0  0  0
 10 11  2  0  0  0  0
 11 12  1  0  0  0  0
 11 16  1  0  0  0  0
 13 17  1  0  0  0  0
 13 12  2  0  0  0  0
 14 13  1  0  0  0  0
 15 10  1  0  0  0  0
 17 19  1  0  0  0  0
 17 20  1  0  0  0  0
 18 17  1  0  0  0  0
 21 24  1  0  0  0  0
 21  5  1  0  0  0  0
 22 30  1  0  0  0  0
 22 28  1  0  0  0  0
 23 22  1  0  0  0  0
 24 23  2  0  0  0  0
 24 25  1  0  0  0  0
 25 27  1  0  0  0  0
 26 25  2  0  0  0  0
 27 28  1  0  0  0  0
 27 32  1  0  0  0  0
 28 29  2  0  0  0  0
 31 23  1  0  0  0  0
 32 33  2  0  0  0  0
 34 33  1  0  0  0  0
 34 35  1  0  0  0  0
M  END
>  <minimizedAffinity>
-5.99196053

$$$$

 OpenBabel03272502273D

 35 37  0  0  0  0  0  0  0  0999 V2000
   41.7730   26.1500   34.4350 C   0  0  0  0  0  0  0  0  0  0  0  0
   40.7020   27.0150   34.1480 C   0  0  0  0  0  0  0  0  0  0  0  0
   39.4700   26.4390   33.8680 C   0  0  0  0  0  0  0  0  0  0  0  0
   39.3980   25.1070   33.8900 N   0  0  0  0  0  0  0  0  0  0  0  0
   40.4230   24.2800   34.1650 C   0  0  0  0  0  0  0  0  0  0  0  0
   41.6170   24.8150   34.4380 N   0  0  0  0  0  0  0  0  0  0  0  0
   42.7410   26.6100   34.6560 H   0  0  0  0  0  0  0  0  0  0  0  0
   40.7740   28.0810   34.1330 H   0  0  0  0  0  0  0  0  0  0  0  0
   38.2980   27.2210   33.5690 C   0  0  0  0  0  0  0  0  0  0  0  0
   37.3840   27.5390   34.5750 C   0  0  0  0  0  0  0  0  0  0  0  0
   36.2580   28.2810   34.3480 C   0  0  0  0  0  0  0  0  0  0  0  0
   36.0080   28.7340   33.0930 N   0  0  0  0  0  0  0  0  0  0  0  0
   36.8910   28.4210   32.1450 C   0  0  0  0  0  0  0  0  0  0  0  0
   38.0030   27.6950   32.3400 N   0  0  0  0  0  0  0  0  0  0  0  0
   37.5490   27.1930   35.5980 H   0  0  0  0  0  0  0  0  0  0  0  0
   35.5720   28.5060   35.1670 H   0  0  0  0  0  0  0  0  0  0  0  0
   36.6390   28.9070   30.7640 C   0  0  0  0  0  0  0  0  0  0  0  0
   36.4400   27.7680   29.9520 F   0  0  0  0  0  0  0  0  0  0  0  0
   35.5680   29.7500   30.7150 F   0  0  0  0  0  0  0  0  0  0  0  0
   37.7500   29.5230   30.2220 F   0  0  0  0  0  0  0  0  0  0  0  0
   40.1600   22.9200   34.1440 O   0  0  0  0  0  0  0  0  0  0  0  0
   37.5370   21.8560   36.4780 N   0  0  0  0  0  0  0  0  0  0  0  0
   38.7010   22.3650   36.0780 C   0  0  0  0  0  0  0  0  0  0  0  0
   39.0150   22.4300   34.7360 C   0  0  0  0  0  0  0  0  0  0  0  0
   38.0780   21.9480   33.8130 C   0  0  0  0  0  0  0  0  0  0  0  0
   38.1810   21.9210   32.5680 O   0  0  0  0  0  0  0  0  0  0  0  0
   36.9180   21.4420   34.2700 N   0  0  0  0  0  0  0  0  0  0  0  0
   36.6500   21.3980   35.5970 C   0  0  0  0  0  0  0  0  0  0  0  0
   35.5530   20.9210   36.0420 O   0  0  0  0  0  0  0  0  0  0  0  0
   37.3910   21.8500   37.5030 H   0  0  0  0  0  0  0  0  0  0  0  0
   39.4740   22.7550   36.6980 H   0  0  0  0  0  0  0  0  0  0  0  0
   35.9100   20.9320   33.4280 C   0  0  0  0  0  3  0  0  0  0  0  0
   35.7280   19.7090   32.9470 C   0  0  0  0  0  3  0  0  0  0  0  0
   34.6120   19.3030   32.0580 C   0  0  0  0  0  2  0  0  0  0  0  0
   34.9630   18.9880   31.0560 H   0  0  0  0  0  0  0  0  0  0  0  0
  1  6  1  0  0  0  0
  1  7  1  0  0  0  0
  2  1  2  0  0  0  0
  3  4  2  0  0  0  0
  3  2  1  0  0  0  0
  4  5  1  0  0  0  0
  5  6  2  0  0  0  0
  8  2  1  0  0  0  0
  9  3  1  0  0  0  0
  9 10  1  0  0  0  0
 10 15  1  0  0  0  0
 11 10  2  0  0  0  0
 11 16  1  0  0  0  0
 12 11  1  0  0  0  0
 13 14  1  0  0  0  0
 13 12  2  0  0  0  0
 14  9  2  0  0  0  0
 17 13  1  0  0  0  0
 18 17  1  0  0  0  0
 19 17  1  0  0  0  0
 20 17  1  0  0  0  0
 21  5  1  0  0  0  0
 21 24  1  0  0  0  0
 22 30  1  0  0  0  0
 23 22  1  0  0  0  0
 23 31  1  0  0  0  0
 24 23  2  0  0  0  0
 25 27  1  0  0  0  0
 25 24  1  0  0  0  0
 26 25  2  0  0  0  0
 27 28  1  0  0  0  0
 28 29  2  0  0  0  0
 28 22  1  0  0  0  0
 32 27  1  0  0  0  0
 33 32  2  0  0  0  0
 34 33  1  0  0  0  0
 35 34  1  0  0  0  0
M  END
>  <minimizedAffinity>
-5.92656422

$$$$
