
 OpenBabel03272503123D

 41 44  0  0  0  0  0  0  0  0999 V2000
   39.2900   31.9110   44.9470 C   0  0  0  0  0  0  0  0  0  0  0  0
   38.2010   32.5600   45.0630 O   0  0  0  0  0  0  0  0  0  0  0  0
   39.9750   31.6480   46.1580 N   0  0  0  0  0  0  0  0  0  0  0  0
   40.8670   31.1210   46.0790 H   0  0  0  0  0  0  0  0  0  0  0  0
   39.1950   32.2250   42.5660 C   0  0  0  0  0  0  0  0  0  0  0  0
   39.7290   31.5030   43.6180 C   0  0  0  0  0  0  0  0  0  0  0  0
   40.6060   30.4770   43.4600 C   0  0  0  0  0  0  0  0  0  0  0  0
   41.0040   30.1130   42.1840 C   0  0  0  0  0  0  0  0  0  0  0  0
   41.8300   29.1690   41.7200 N   0  0  0  0  0  0  0  0  0  0  0  0
   41.8430   29.2630   40.3860 C   0  0  0  0  0  0  0  0  0  0  0  0
   41.0260   30.2670   40.0050 N   0  0  0  0  0  0  0  0  0  0  0  0
   40.4840   30.8200   41.1200 C   0  0  0  0  0  0  0  0  0  0  0  0
   39.5960   31.8600   41.2750 C   0  0  0  0  0  0  0  0  0  0  0  0
   38.4910   33.0540   42.6620 H   0  0  0  0  0  0  0  0  0  0  0  0
   41.0090   29.9270   44.3170 H   0  0  0  0  0  0  0  0  0  0  0  0
   42.3890   28.4580   42.2630 H   0  0  0  0  0  0  0  0  0  0  0  0
   42.3990   28.6630   39.6620 H   0  0  0  0  0  0  0  0  0  0  0  0
   39.0730   32.5710   40.1950 O   0  0  0  0  0  0  0  0  0  0  0  0
   37.7430   32.7210   39.9580 C   0  0  0  0  0  2  0  0  0  0  0  0
   36.7190   33.4060   40.4110 C   0  0  0  0  0  2  0  0  0  0  0  0
   35.7800   34.3170   41.1420 C   0  0  0  0  0  2  0  0  0  0  0  0
   34.9840   33.7220   41.6310 H   0  0  0  0  0  0  0  0  0  0  0  0
   38.1310   30.1590   47.4940 F   0  0  0  0  0  0  0  0  0  0  0  0
   38.3770   31.3930   47.9860 C   0  0  0  0  0  0  0  0  0  0  0  0
   37.7200   31.8390   49.0920 C   0  0  0  0  0  0  0  0  0  0  0  0
   38.0210   33.1030   49.5350 C   0  0  0  0  0  0  0  0  0  0  0  0
   38.9370   33.9040   48.9120 C   0  0  0  0  0  0  0  0  0  0  0  0
   39.6000   33.4370   47.7850 C   0  0  0  0  0  0  0  0  0  0  0  0
   39.3100   32.1640   47.3220 C   0  0  0  0  0  0  0  0  0  0  0  0
   37.5060   33.4690   50.4120 H   0  0  0  0  0  0  0  0  0  0  0  0
   39.1810   34.9020   49.2540 H   0  0  0  0  0  0  0  0  0  0  0  0
   40.3360   33.9880   47.2240 H   0  0  0  0  0  0  0  0  0  0  0  0
   36.0720   29.3570   51.4400 C   0  0  0  0  0  0  0  0  0  0  0  0
   37.0280   30.2160   50.8550 C   0  0  0  0  0  0  0  0  0  0  0  0
   36.7490   30.9410   49.7210 C   0  0  0  0  0  0  0  0  0  0  0  0
   35.4870   30.7830   49.1890 N   0  0  0  0  0  0  0  0  0  0  0  0
   34.5750   29.9680   49.7400 C   0  0  0  0  0  0  0  0  0  0  0  0
   34.8630   29.2740   50.8390 N   0  0  0  0  0  0  0  0  0  0  0  0
   36.3440   28.8100   52.3310 H   0  0  0  0  0  0  0  0  0  0  0  0
   38.0250   30.3270   51.2930 H   0  0  0  0  0  0  0  0  0  0  0  0
   33.6040   29.8810   49.2850 H   0  0  0  0  0  0  0  0  0  0  0  0
  1  2  2  0  0  0  0
  1  3  1  0  0  0  0
  3 29  1  0  0  0  0
  4  3  1  0  0  0  0
  5 14  1  0  0  0  0
  5  6  1  0  0  0  0
  6  1  1  0  0  0  0
  7  6  2  0  0  0  0
  7 15  1  0  0  0  0
  8  7  1  0  0  0  0
  9  8  1  0  0  0  0
  9 16  1  0  0  0  0
 10  9  1  0  0  0  0
 11 10  2  0  0  0  0
 11 12  1  0  0  0  0
 12 13  1  0  0  0  0
 12  8  2  0  0  0  0
 13  5  2  0  0  0  0
 17 10  1  0  0  0  0
 18 13  1  0  0  0  0
 19 18  1  0  0  0  0
 19 20  1  0  0  0  0
 20 21  1  0  0  0  0
 21 22  1  0  0  0  0
 23 24  1  0  0  0  0
 24 25  1  0  0  0  0
 25 26  2  0  0  0  0
 25 35  1  0  0  0  0
 26 30  1  0  0  0  0
 27 31  1  0  0  0  0
 27 26  1  0  0  0  0
 28 27  2  0  0  0  0
 29 28  1  0  0  0  0
 29 24  2  0  0  0  0
 32 28  1  0  0  0  0
 33 39  1  0  0  0  0
 34 40  1  0  0  0  0
 34 33  1  0  0  0  0
 35 34  2  0  0  0  0
 36 35  1  0  0  0  0
 36 37  2  0  0  0  0
 37 38  1  0  0  0  0
 38 33  2  0  0  0  0
 41 37  1  0  0  0  0
M  END
>  <minimizedAffinity>
-7.12226629

>  <minimizedRMSD>
0.57707566

$$$$
