
 OpenBabel03262521303D

 26 27  0  0  1  0  0  0  0  0999 V2000
   39.0330   32.3430   46.9220 C   0  0  1  0  0  0  0  0  0  0  0  0
   38.7740   30.9260   47.3400 C   0  0  2  0  0  0  0  0  0  0  0  0
   38.3940   30.1980   46.2320 O   0  0  0  0  0  0  0  0  0  0  0  0
   38.8860   30.8820   45.1160 C   0  0  0  0  0  0  0  0  0  0  0  0
   38.5750   32.3190   45.4920 C   0  0  2  0  0  0  0  0  0  0  0  0
   40.1410   32.5480   46.9020 H   0  0  0  0  0  0  0  0  0  0  0  0
   39.7220   30.5030   47.7300 H   0  0  0  0  0  0  0  0  0  0  0  0
   38.3550   30.5550   44.2130 H   0  0  0  0  0  0  0  0  0  0  0  0
   39.9670   30.7620   45.1120 H   0  0  0  0  0  0  0  0  0  0  0  0
   37.4860   32.5340   45.4940 H   0  0  0  0  0  0  0  0  0  0  0  0
   37.1890   30.4590   50.7420 C   0  0  0  0  0  0  0  0  0  0  0  0
   38.1980   30.6050   49.7620 C   0  0  0  0  0  0  0  0  0  0  0  0
   37.7830   30.7770   48.4290 C   0  0  0  0  0  0  0  0  0  0  0  0
   36.4520   30.7940   48.1430 N   0  0  0  0  0  0  0  0  0  0  0  0
   35.5180   30.6510   49.1090 C   0  0  0  0  0  0  0  0  0  0  0  0
   35.8930   30.4870   50.3850 N   0  0  0  0  0  0  0  0  0  0  0  0
   37.5890   30.3350   51.7260 H   0  0  0  0  0  0  0  0  0  0  0  0
   39.2610   30.5950   49.9590 H   0  0  0  0  0  0  0  0  0  0  0  0
   34.4610   30.6660   48.8830 H   0  0  0  0  0  0  0  0  0  0  0  0
   38.4660   33.2960   47.6990 O   0  0  0  0  0  0  0  0  0  0  0  0
   39.0020   34.1200   47.8480 H   0  0  0  0  0  0  0  0  0  0  0  0
   39.2320   33.2240   44.6930 O   0  0  0  0  0  0  0  0  0  0  0  0
   39.5280   32.8750   43.3810 C   0  0  0  0  0  0  0  0  0  0  0  0
   38.6420   33.0960   42.4430 C   0  0  0  0  0  0  0  0  0  0  0  0
   38.9350   32.7310   41.0260 C   0  0  0  0  0  0  0  0  0  0  0  0
   39.5620   33.5550   40.5980 H   0  0  0  0  0  0  0  0  0  0  0  0
  1  6  1  1  0  0  0
  1  2  1  0  0  0  0
  1 20  1  0  0  0  0
  2  7  1  1  0  0  0
  2 13  1  0  0  0  0
  3  2  1  0  0  0  0
  4  5  1  0  0  0  0
  4  3  1  0  0  0  0
  5 10  1  6  0  0  0
  5  1  1  0  0  0  0
  8  4  1  0  0  0  0
  9  4  1  0  0  0  0
 11 17  1  0  0  0  0
 12 18  1  0  0  0  0
 12 11  2  0  0  0  0
 13 12  1  0  0  0  0
 14 13  2  0  0  0  0
 14 15  1  0  0  0  0
 15 16  2  0  0  0  0
 16 11  1  0  0  0  0
 19 15  1  0  0  0  0
 20 21  1  0  0  0  0
 22  5  1  0  0  0  0
 23 22  1  0  0  0  0
 24 23  2  0  0  0  0
 25 24  1  0  0  0  0
 26 25  1  0  0  0  0
M  END
>  <minimizedAffinity>
-4.42476416

>  <minimizedRMSD>
2.18545628

$$$$
