
 OpenBabel03272502263D

 35 37  0  0  0  0  0  0  0  0999 V2000
   37.6840   30.3470   51.0490 C   0  0  0  0  0  0  0  0  0  0  0  0
   38.1660   30.8780   49.8390 C   0  0  0  0  0  0  0  0  0  0  0  0
   37.4290   30.6280   48.6900 C   0  0  0  0  0  0  0  0  0  0  0  0
   36.3180   29.9010   48.8210 N   0  0  0  0  0  0  0  0  0  0  0  0
   35.8570   29.3930   49.9790 C   0  0  0  0  0  0  0  0  0  0  0  0
   36.5530   29.6230   51.0970 N   0  0  0  0  0  0  0  0  0  0  0  0
   38.2690   30.5470   51.9510 H   0  0  0  0  0  0  0  0  0  0  0  0
   39.0590   31.4590   49.7480 H   0  0  0  0  0  0  0  0  0  0  0  0
   37.8160   31.1270   47.3950 C   0  0  0  0  0  0  0  0  0  0  0  0
   37.0950   30.7700   46.2540 C   0  0  0  0  0  0  0  0  0  0  0  0
   37.4160   31.2180   45.0020 C   0  0  0  0  0  0  0  0  0  0  0  0
   38.4790   32.0470   44.8510 N   0  0  0  0  0  0  0  0  0  0  0  0
   39.1570   32.3770   45.9510 C   0  0  0  0  0  0  0  0  0  0  0  0
   38.8640   31.9520   47.1900 N   0  0  0  0  0  0  0  0  0  0  0  0
   36.2320   30.1040   46.3340 H   0  0  0  0  0  0  0  0  0  0  0  0
   36.8210   30.9120   44.1390 H   0  0  0  0  0  0  0  0  0  0  0  0
   40.3240   33.2850   45.8080 C   0  0  0  0  0  0  0  0  0  0  0  0
   40.4230   34.0260   47.0080 F   0  0  0  0  0  0  0  0  0  0  0  0
   41.4710   32.5930   45.5510 F   0  0  0  0  0  0  0  0  0  0  0  0
   40.1200   34.2410   44.8330 F   0  0  0  0  0  0  0  0  0  0  0  0
   34.6820   28.6620   49.9240 O   0  0  0  0  0  0  0  0  0  0  0  0
   33.6550   26.6670   47.0210 N   0  0  0  0  0  0  0  0  0  0  0  0
   34.1520   26.9220   48.2300 C   0  0  0  0  0  0  0  0  0  0  0  0
   34.2050   28.2140   48.7100 C   0  0  0  0  0  0  0  0  0  0  0  0
   33.7220   29.2440   47.8910 C   0  0  0  0  0  0  0  0  0  0  0  0
   33.6870   30.4660   48.1490 O   0  0  0  0  0  0  0  0  0  0  0  0
   33.2310   28.9320   46.6780 N   0  0  0  0  0  0  0  0  0  0  0  0
   33.1970   27.6480   46.2470 C   0  0  0  0  0  0  0  0  0  0  0  0
   32.7330   27.3410   45.0980 O   0  0  0  0  0  0  0  0  0  0  0  0
   33.6560   25.6670   46.7480 H   0  0  0  0  0  0  0  0  0  0  0  0
   34.5410   26.2120   48.9230 H   0  0  0  0  0  0  0  0  0  0  0  0
   32.7210   29.8900   45.7800 C   0  0  0  0  0  0  0  0  0  0  0  0
   31.5060   30.4140   45.6780 C   0  0  0  0  0  0  0  0  0  0  0  0
   31.0980   31.4260   44.6740 C   0  0  0  0  0  0  0  0  0  0  0  0
   30.3280   31.0410   43.9750 H   0  0  0  0  0  0  0  0  0  0  0  0
  1  6  1  0  0  0  0
  1  7  1  0  0  0  0
  2  1  2  0  0  0  0
  3  4  2  0  0  0  0
  3  2  1  0  0  0  0
  4  5  1  0  0  0  0
  5  6  2  0  0  0  0
  8  2  1  0  0  0  0
  9  3  1  0  0  0  0
 10 15  1  0  0  0  0
 10  9  2  0  0  0  0
 11 10  1  0  0  0  0
 12 11  2  0  0  0  0
 12 13  1  0  0  0  0
 13 14  2  0  0  0  0
 14  9  1  0  0  0  0
 16 11  1  0  0  0  0
 17 13  1  0  0  0  0
 17 18  1  0  0  0  0
 19 17  1  0  0  0  0
 20 17  1  0  0  0  0
 21  5  1  0  0  0  0
 22 23  1  0  0  0  0
 23 24  2  0  0  0  0
 23 31  1  0  0  0  0
 24 21  1  0  0  0  0
 25 26  2  0  0  0  0
 25 24  1  0  0  0  0
 27 25  1  0  0  0  0
 28 27  1  0  0  0  0
 28 22  1  0  0  0  0
 29 28  2  0  0  0  0
 30 22  1  0  0  0  0
 32 27  1  0  0  0  0
 33 32  2  0  0  0  0
 34 33  1  0  0  0  0
 35 34  1  0  0  0  0
M  END
>  <minimizedAffinity>
-6.37829447

>  <minimizedRMSD>
0.790807366

$$$$
