
 OpenBabel03272503123D

 41 44  0  0  0  0  0  0  0  0999 V2000
   39.2950   31.9020   44.9490 C   0  0  0  0  0  0  0  0  0  0  0  0
   38.2070   32.5540   45.0600 O   0  0  0  0  0  0  0  0  0  0  0  0
   39.9760   31.6390   46.1620 N   0  0  0  0  0  0  0  0  0  0  0  0
   40.8660   31.1100   46.0870 H   0  0  0  0  0  0  0  0  0  0  0  0
   39.2090   32.2140   42.5670 C   0  0  0  0  0  0  0  0  0  0  0  0
   39.7360   31.4910   43.6220 C   0  0  0  0  0  0  0  0  0  0  0  0
   40.6110   30.4620   43.4680 C   0  0  0  0  0  0  0  0  0  0  0  0
   41.0110   30.0950   42.1940 C   0  0  0  0  0  0  0  0  0  0  0  0
   41.8360   29.1480   41.7330 N   0  0  0  0  0  0  0  0  0  0  0  0
   41.8540   29.2400   40.4000 C   0  0  0  0  0  0  0  0  0  0  0  0
   41.0420   30.2460   40.0140 N   0  0  0  0  0  0  0  0  0  0  0  0
   40.4980   30.8020   41.1270 C   0  0  0  0  0  0  0  0  0  0  0  0
   39.6120   31.8450   41.2770 C   0  0  0  0  0  0  0  0  0  0  0  0
   38.5070   33.0450   42.6590 H   0  0  0  0  0  0  0  0  0  0  0  0
   41.0090   29.9110   44.3270 H   0  0  0  0  0  0  0  0  0  0  0  0
   42.3910   28.4360   42.2800 H   0  0  0  0  0  0  0  0  0  0  0  0
   42.4100   28.6370   39.6780 H   0  0  0  0  0  0  0  0  0  0  0  0
   39.0960   32.5570   40.1950 O   0  0  0  0  0  0  0  0  0  0  0  0
   38.3850   33.7100   40.3150 C   0  0  0  0  0  2  0  0  0  0  0  0
   37.1420   34.1290   40.2540 C   0  0  0  0  0  2  0  0  0  0  0  0
   35.6580   34.2800   40.1190 C   0  0  0  0  0  2  0  0  0  0  0  0
   35.4240   34.9630   39.2780 H   0  0  0  0  0  0  0  0  0  0  0  0
   38.1350   30.1510   47.5030 F   0  0  0  0  0  0  0  0  0  0  0  0
   38.3770   31.3880   47.9900 C   0  0  0  0  0  0  0  0  0  0  0  0
   37.7180   31.8380   49.0940 C   0  0  0  0  0  0  0  0  0  0  0  0
   38.0160   33.1050   49.5310 C   0  0  0  0  0  0  0  0  0  0  0  0
   38.9300   33.9050   48.9050 C   0  0  0  0  0  0  0  0  0  0  0  0
   39.5950   33.4350   47.7810 C   0  0  0  0  0  0  0  0  0  0  0  0
   39.3090   32.1590   47.3230 C   0  0  0  0  0  0  0  0  0  0  0  0
   37.4990   33.4730   50.4070 H   0  0  0  0  0  0  0  0  0  0  0  0
   39.1710   34.9050   49.2430 H   0  0  0  0  0  0  0  0  0  0  0  0
   40.3300   33.9850   47.2180 H   0  0  0  0  0  0  0  0  0  0  0  0
   36.0760   29.3590   51.4490 C   0  0  0  0  0  0  0  0  0  0  0  0
   37.0300   30.2170   50.8600 C   0  0  0  0  0  0  0  0  0  0  0  0
   36.7490   30.9400   49.7260 C   0  0  0  0  0  0  0  0  0  0  0  0
   35.4850   30.7800   49.1960 N   0  0  0  0  0  0  0  0  0  0  0  0
   34.5750   29.9650   49.7500 C   0  0  0  0  0  0  0  0  0  0  0  0
   34.8660   29.2740   50.8500 N   0  0  0  0  0  0  0  0  0  0  0  0
   36.3500   28.8140   52.3410 H   0  0  0  0  0  0  0  0  0  0  0  0
   38.0280   30.3300   51.2970 H   0  0  0  0  0  0  0  0  0  0  0  0
   33.6040   29.8770   49.2970 H   0  0  0  0  0  0  0  0  0  0  0  0
  1  2  2  0  0  0  0
  1  3  1  0  0  0  0
  3 29  1  0  0  0  0
  4  3  1  0  0  0  0
  5 14  1  0  0  0  0
  5  6  1  0  0  0  0
  6  1  1  0  0  0  0
  7  6  2  0  0  0  0
  7 15  1  0  0  0  0
  8  7  1  0  0  0  0
  9  8  1  0  0  0  0
  9 16  1  0  0  0  0
 10  9  1  0  0  0  0
 11 10  2  0  0  0  0
 11 12  1  0  0  0  0
 12 13  1  0  0  0  0
 12  8  2  0  0  0  0
 13  5  2  0  0  0  0
 17 10  1  0  0  0  0
 18 19  1  0  0  0  0
 18 13  1  0  0  0  0
 20 19  1  0  0  0  0
 21 20  1  0  0  0  0
 22 21  1  0  0  0  0
 23 24  1  0  0  0  0
 24 25  1  0  0  0  0
 25 26  2  0  0  0  0
 25 35  1  0  0  0  0
 26 30  1  0  0  0  0
 27 31  1  0  0  0  0
 27 26  1  0  0  0  0
 28 27  2  0  0  0  0
 29 28  1  0  0  0  0
 29 24  2  0  0  0  0
 32 28  1  0  0  0  0
 33 39  1  0  0  0  0
 34 40  1  0  0  0  0
 34 33  1  0  0  0  0
 35 34  2  0  0  0  0
 36 35  1  0  0  0  0
 36 37  2  0  0  0  0
 37 38  1  0  0  0  0
 38 33  2  0  0  0  0
 41 37  1  0  0  0  0
M  END
>  <minimizedAffinity>
-7.22045755

>  <minimizedRMSD>
0.158473432

$$$$
