
 OpenBabel03272509183D

 28 29  0  0  0  0  0  0  0  0999 V2000
   38.0840   31.3740   47.8510 C   0  0  0  0  0  0  0  0  0  0  0  0
   37.1930   31.5090   48.9070 C   0  0  0  0  0  0  0  0  0  0  0  0
   37.3750   32.6700   49.6690 C   0  0  0  0  0  0  0  0  0  0  0  0
   38.3790   33.5950   49.3610 C   0  0  0  0  0  0  0  0  0  0  0  0
   39.2290   33.3620   48.2670 C   0  0  0  0  0  0  0  0  0  0  0  0
   39.0590   32.2310   47.5180 C   0  0  0  0  0  0  0  0  0  0  0  0
   36.7200   32.8270   50.4930 H   0  0  0  0  0  0  0  0  0  0  0  0
   38.5170   34.4920   49.9500 H   0  0  0  0  0  0  0  0  0  0  0  0
   40.0160   34.0590   48.0020 H   0  0  0  0  0  0  0  0  0  0  0  0
   35.0790   30.3960   48.3600 C   0  0  0  0  0  0  0  0  0  0  0  0
   36.1640   30.5590   49.2210 C   0  0  0  0  0  0  0  0  0  0  0  0
   36.2090   29.7760   50.3810 C   0  0  0  0  0  0  0  0  0  0  0  0
   35.1930   28.9000   50.6040 N   0  0  0  0  0  0  0  0  0  0  0  0
   34.1520   28.7750   49.7320 C   0  0  0  0  0  0  0  0  0  0  0  0
   34.0980   29.5150   48.6250 N   0  0  0  0  0  0  0  0  0  0  0  0
   35.0540   31.0040   47.4690 H   0  0  0  0  0  0  0  0  0  0  0  0
   33.4140   28.0310   50.0490 H   0  0  0  0  0  0  0  0  0  0  0  0
   37.3340   29.9050   51.3290 C   0  0  0  0  0  0  0  0  0  0  0  0
   37.4970   30.9400   51.6560 H   0  0  0  0  0  0  0  0  0  0  0  0
   38.2580   29.5400   50.8250 H   0  0  0  0  0  0  0  0  0  0  0  0
   37.1380   29.2340   52.1880 H   0  0  0  0  0  0  0  0  0  0  0  0
   37.9630   30.2190   47.0310 O   0  0  0  0  0  0  0  0  0  0  0  0
   37.1700   30.0590   46.4490 H   0  0  0  0  0  0  0  0  0  0  0  0
   39.9180   32.0220   46.4340 O   0  0  0  0  0  0  0  0  0  0  0  0
   40.3830   33.0240   45.6330 C   0  0  0  0  0  3  0  0  0  0  0  0
   39.8880   33.4100   44.4680 C   0  0  0  0  0  3  0  0  0  0  0  0
   38.6940   32.7130   43.9260 C   0  0  0  0  0  2  0  0  0  0  0  0
   38.1520   32.2330   44.7670 H   0  0  0  0  0  0  0  0  0  0  0  0
  1  2  1  0  0  0  0
  2 11  1  0  0  0  0
  2  3  2  0  0  0  0
  3  7  1  0  0  0  0
  4  3  1  0  0  0  0
  4  8  1  0  0  0  0
  5  4  2  0  0  0  0
  6  1  2  0  0  0  0
  6  5  1  0  0  0  0
  9  5  1  0  0  0  0
 10 15  2  0  0  0  0
 10 11  1  0  0  0  0
 11 12  2  0  0  0  0
 12 13  1  0  0  0  0
 12 18  1  0  0  0  0
 14 17  1  0  0  0  0
 14 13  2  0  0  0  0
 15 14  1  0  0  0  0
 16 10  1  0  0  0  0
 18 19  1  0  0  0  0
 18 21  1  0  0  0  0
 20 18  1  0  0  0  0
 22  1  1  0  0  0  0
 23 22  1  0  0  0  0
 24  6  1  0  0  0  0
 25 24  1  0  0  0  0
 26 25  2  0  0  0  0
 27 26  1  0  0  0  0
 27 28  1  0  0  0  0
M  END
>  <minimizedAffinity>
-6.17992258

>  <minimizedRMSD>
1.24035871

$$$$
