
 OpenBabel03272509183D

 28 29  0  0  0  0  0  0  0  0999 V2000
   38.0050   31.3110   47.6900 C   0  0  0  0  0  0  0  0  0  0  0  0
   37.0460   31.2780   48.6930 C   0  0  0  0  0  0  0  0  0  0  0  0
   37.1390   32.3310   49.6120 C   0  0  0  0  0  0  0  0  0  0  0  0
   38.1270   33.3160   49.4970 C   0  0  0  0  0  0  0  0  0  0  0  0
   39.0510   33.2560   48.4400 C   0  0  0  0  0  0  0  0  0  0  0  0
   38.9680   32.2310   47.5390 C   0  0  0  0  0  0  0  0  0  0  0  0
   36.4290   32.3580   50.4050 H   0  0  0  0  0  0  0  0  0  0  0  0
   38.1960   34.1290   50.2080 H   0  0  0  0  0  0  0  0  0  0  0  0
   39.8280   34.0020   48.3230 H   0  0  0  0  0  0  0  0  0  0  0  0
   34.9000   30.3200   47.9980 C   0  0  0  0  0  0  0  0  0  0  0  0
   36.0340   30.2680   48.8090 C   0  0  0  0  0  0  0  0  0  0  0  0
   36.1430   29.2130   49.7220 C   0  0  0  0  0  0  0  0  0  0  0  0
   35.1390   28.2970   49.7690 N   0  0  0  0  0  0  0  0  0  0  0  0
   34.0490   28.3890   48.9550 C   0  0  0  0  0  0  0  0  0  0  0  0
   33.9330   29.3890   48.0810 N   0  0  0  0  0  0  0  0  0  0  0  0
   34.8250   31.1370   47.2980 H   0  0  0  0  0  0  0  0  0  0  0  0
   33.3290   27.5800   49.1100 H   0  0  0  0  0  0  0  0  0  0  0  0
   37.3230   29.1050   50.6050 C   0  0  0  0  0  0  0  0  0  0  0  0
   37.5080   30.0220   51.1780 H   0  0  0  0  0  0  0  0  0  0  0  0
   38.2140   28.8940   49.9720 H   0  0  0  0  0  0  0  0  0  0  0  0
   37.1750   28.2330   51.2710 H   0  0  0  0  0  0  0  0  0  0  0  0
   37.9770   30.2750   46.7170 O   0  0  0  0  0  0  0  0  0  0  0  0
   37.2280   30.1740   46.0670 H   0  0  0  0  0  0  0  0  0  0  0  0
   39.9000   32.1940   46.4960 O   0  0  0  0  0  0  0  0  0  0  0  0
   40.2750   33.2900   45.7760 C   0  0  0  0  0  3  0  0  0  0  0  0
   39.9600   33.5680   44.5200 C   0  0  0  0  0  3  0  0  0  0  0  0
   39.1080   32.6140   43.7650 C   0  0  0  0  0  2  0  0  0  0  0  0
   38.5300   32.0040   44.4900 H   0  0  0  0  0  0  0  0  0  0  0  0
  1  2  1  0  0  0  0
  2 11  1  0  0  0  0
  2  3  2  0  0  0  0
  3  7  1  0  0  0  0
  4  3  1  0  0  0  0
  4  8  1  0  0  0  0
  5  4  2  0  0  0  0
  6  1  2  0  0  0  0
  6  5  1  0  0  0  0
  9  5  1  0  0  0  0
 10 15  2  0  0  0  0
 10 11  1  0  0  0  0
 11 12  2  0  0  0  0
 12 13  1  0  0  0  0
 12 18  1  0  0  0  0
 14 17  1  0  0  0  0
 14 13  2  0  0  0  0
 15 14  1  0  0  0  0
 16 10  1  0  0  0  0
 18 19  1  0  0  0  0
 18 21  1  0  0  0  0
 20 18  1  0  0  0  0
 22  1  1  0  0  0  0
 23 22  1  0  0  0  0
 24  6  1  0  0  0  0
 25 24  1  0  0  0  0
 26 25  2  0  0  0  0
 27 28  1  0  0  0  0
 27 26  1  0  0  0  0
M  END
>  <minimizedAffinity>
-6.11656523

>  <minimizedRMSD>
0.730370641

$$$$
