
 OpenBabel03272509193D

 28 29  0  0  0  0  0  0  0  0999 V2000
   38.3320   25.1520   33.8470 C   0  0  0  0  0  0  0  0  0  0  0  0
   38.8080   25.2670   35.1460 C   0  0  0  0  0  0  0  0  0  0  0  0
   38.4850   26.4770   35.7720 C   0  0  0  0  0  0  0  0  0  0  0  0
   37.7430   27.4640   35.1140 C   0  0  0  0  0  0  0  0  0  0  0  0
   37.3070   27.2460   33.7960 C   0  0  0  0  0  0  0  0  0  0  0  0
   37.6180   26.0670   33.1770 C   0  0  0  0  0  0  0  0  0  0  0  0
   38.8250   26.6230   36.7700 H   0  0  0  0  0  0  0  0  0  0  0  0
   37.4940   28.3980   35.6000 H   0  0  0  0  0  0  0  0  0  0  0  0
   36.7300   27.9900   33.2600 H   0  0  0  0  0  0  0  0  0  0  0  0
   40.9290   24.1040   35.5430 C   0  0  0  0  0  0  0  0  0  0  0  0
   39.5690   24.2540   35.8190 C   0  0  0  0  0  0  0  0  0  0  0  0
   38.9900   23.3950   36.7590 C   0  0  0  0  0  0  0  0  0  0  0  0
   39.7820   22.4610   37.3510 N   0  0  0  0  0  0  0  0  0  0  0  0
   41.1070   22.3520   37.0490 C   0  0  0  0  0  0  0  0  0  0  0  0
   41.6710   23.1650   36.1550 N   0  0  0  0  0  0  0  0  0  0  0  0
   41.3670   24.7710   34.8160 H   0  0  0  0  0  0  0  0  0  0  0  0
   41.6100   21.5560   37.6060 H   0  0  0  0  0  0  0  0  0  0  0  0
   37.5550   23.5080   37.0930 C   0  0  0  0  0  0  0  0  0  0  0  0
   36.9090   23.4680   36.2070 H   0  0  0  0  0  0  0  0  0  0  0  0
   37.3930   24.4810   37.6090 H   0  0  0  0  0  0  0  0  0  0  0  0
   37.3050   22.7050   37.8130 H   0  0  0  0  0  0  0  0  0  0  0  0
   38.6190   23.9500   33.1450 O   0  0  0  0  0  0  0  0  0  0  0  0
   38.2380   23.0700   33.4160 H   0  0  0  0  0  0  0  0  0  0  0  0
   37.1720   25.8740   31.8650 O   0  0  0  0  0  0  0  0  0  0  0  0
   35.8590   25.9110   31.4990 C   0  0  0  0  0  3  0  0  0  0  0  0
   35.0950   24.8850   31.1580 C   0  0  0  0  0  3  0  0  0  0  0  0
   35.6820   23.5210   31.1560 C   0  0  0  0  0  2  0  0  0  0  0  0
   36.5660   23.5140   31.8270 H   0  0  0  0  0  0  0  0  0  0  0  0
  1  2  1  0  0  0  0
  2  3  2  0  0  0  0
  2 11  1  0  0  0  0
  3  7  1  0  0  0  0
  4  8  1  0  0  0  0
  4  3  1  0  0  0  0
  5  4  2  0  0  0  0
  6  5  1  0  0  0  0
  6  1  2  0  0  0  0
  9  5  1  0  0  0  0
 10 11  2  0  0  0  0
 10 15  1  0  0  0  0
 11 12  1  0  0  0  0
 12 18  1  0  0  0  0
 12 13  2  0  0  0  0
 14 13  1  0  0  0  0
 14 17  1  0  0  0  0
 15 14  2  0  0  0  0
 16 10  1  0  0  0  0
 18 20  1  0  0  0  0
 18 21  1  0  0  0  0
 19 18  1  0  0  0  0
 22 23  1  0  0  0  0
 22  1  1  0  0  0  0
 24  6  1  0  0  0  0
 25 24  1  0  0  0  0
 26 25  2  0  0  0  0
 27 26  1  0  0  0  0
 27 28  1  0  0  0  0
M  END
>  <minimizedAffinity>
-4.87934446

$$$$

 OpenBabel03272509193D

 28 29  0  0  0  0  0  0  0  0999 V2000
   38.0950   25.4530   33.6610 C   0  0  0  0  0  0  0  0  0  0  0  0
   38.5070   25.5310   34.9850 C   0  0  0  0  0  0  0  0  0  0  0  0
   38.1310   26.7120   35.6370 C   0  0  0  0  0  0  0  0  0  0  0  0
   37.4010   27.7080   34.9790 C   0  0  0  0  0  0  0  0  0  0  0  0
   37.0320   27.5290   33.6350 C   0  0  0  0  0  0  0  0  0  0  0  0
   37.3950   26.3790   32.9910 C   0  0  0  0  0  0  0  0  0  0  0  0
   38.4210   26.8280   36.6550 H   0  0  0  0  0  0  0  0  0  0  0  0
   37.1110   28.6190   35.4850 H   0  0  0  0  0  0  0  0  0  0  0  0
   36.4660   28.2810   33.0980 H   0  0  0  0  0  0  0  0  0  0  0  0
   38.6050   23.6040   36.4960 C   0  0  0  0  0  0  0  0  0  0  0  0
   39.2560   24.5080   35.6570 C   0  0  0  0  0  0  0  0  0  0  0  0
   40.6410   24.3810   35.5000 C   0  0  0  0  0  0  0  0  0  0  0  0
   41.2760   23.3850   36.1740 N   0  0  0  0  0  0  0  0  0  0  0  0
   40.5960   22.5240   36.9840 C   0  0  0  0  0  0  0  0  0  0  0  0
   39.2770   22.6340   37.1420 N   0  0  0  0  0  0  0  0  0  0  0  0
   37.5370   23.7100   36.6110 H   0  0  0  0  0  0  0  0  0  0  0  0
   41.2430   21.7780   37.4560 H   0  0  0  0  0  0  0  0  0  0  0  0
   41.3840   25.3090   34.6230 C   0  0  0  0  0  0  0  0  0  0  0  0
   41.2020   26.3630   34.8690 H   0  0  0  0  0  0  0  0  0  0  0  0
   41.0630   25.1280   33.5730 H   0  0  0  0  0  0  0  0  0  0  0  0
   42.4600   25.0570   34.6890 H   0  0  0  0  0  0  0  0  0  0  0  0
   38.4380   24.2830   32.9320 O   0  0  0  0  0  0  0  0  0  0  0  0
   38.0630   23.3870   33.1530 H   0  0  0  0  0  0  0  0  0  0  0  0
   37.0160   26.2250   31.6530 O   0  0  0  0  0  0  0  0  0  0  0  0
   35.7190   26.2290   31.2290 C   0  0  0  0  0  3  0  0  0  0  0  0
   34.9550   25.1760   30.9820 C   0  0  0  0  0  3  0  0  0  0  0  0
   35.5230   23.8170   31.1700 C   0  0  0  0  0  2  0  0  0  0  0  0
   36.3790   23.8840   31.8750 H   0  0  0  0  0  0  0  0  0  0  0  0
  1  2  1  0  0  0  0
  2  3  2  0  0  0  0
  2 11  1  0  0  0  0
  3  7  1  0  0  0  0
  4  8  1  0  0  0  0
  4  3  1  0  0  0  0
  5  4  2  0  0  0  0
  6  5  1  0  0  0  0
  6  1  2  0  0  0  0
  9  5  1  0  0  0  0
 10 16  1  0  0  0  0
 10 15  1  0  0  0  0
 11 10  2  0  0  0  0
 12 11  1  0  0  0  0
 12 13  2  0  0  0  0
 13 14  1  0  0  0  0
 14 15  2  0  0  0  0
 14 17  1  0  0  0  0
 18 21  1  0  0  0  0
 18 19  1  0  0  0  0
 18 12  1  0  0  0  0
 20 18  1  0  0  0  0
 22 23  1  0  0  0  0
 22  1  1  0  0  0  0
 24  6  1  0  0  0  0
 25 24  1  0  0  0  0
 26 27  1  0  0  0  0
 26 25  2  0  0  0  0
 27 28  1  0  0  0  0
M  END
>  <minimizedAffinity>
-4.77487898

$$$$

 OpenBabel03272509193D

 28 29  0  0  0  0  0  0  0  0999 V2000
   39.8110   23.8360   35.9330 C   0  0  0  0  0  0  0  0  0  0  0  0
   38.5600   24.4080   35.7480 C   0  0  0  0  0  0  0  0  0  0  0  0
   37.6750   24.2170   36.8170 C   0  0  0  0  0  0  0  0  0  0  0  0
   38.0550   23.5040   37.9590 C   0  0  0  0  0  0  0  0  0  0  0  0
   39.3500   22.9650   38.0460 C   0  0  0  0  0  0  0  0  0  0  0  0
   40.2200   23.1470   37.0070 C   0  0  0  0  0  0  0  0  0  0  0  0
   36.6990   24.6330   36.7310 H   0  0  0  0  0  0  0  0  0  0  0  0
   37.3700   23.3580   38.7840 H   0  0  0  0  0  0  0  0  0  0  0  0
   39.6750   22.4080   38.9170 H   0  0  0  0  0  0  0  0  0  0  0  0
   37.7010   24.4570   33.4530 C   0  0  0  0  0  0  0  0  0  0  0  0
   38.1720   25.1390   34.5750 C   0  0  0  0  0  0  0  0  0  0  0  0
   38.2510   26.5350   34.5130 C   0  0  0  0  0  0  0  0  0  0  0  0
   37.8640   27.1500   33.3630 N   0  0  0  0  0  0  0  0  0  0  0  0
   37.4090   26.4410   32.2910 C   0  0  0  0  0  0  0  0  0  0  0  0
   37.3290   25.1110   32.3380 N   0  0  0  0  0  0  0  0  0  0  0  0
   37.6440   23.3820   33.5100 H   0  0  0  0  0  0  0  0  0  0  0  0
   37.1370   27.0750   31.4420 H   0  0  0  0  0  0  0  0  0  0  0  0
   38.7420   27.3100   35.6710 C   0  0  0  0  0  0  0  0  0  0  0  0
   39.7210   26.9660   36.0270 H   0  0  0  0  0  0  0  0  0  0  0  0
   38.0040   27.2040   36.4990 H   0  0  0  0  0  0  0  0  0  0  0  0
   38.7660   28.3790   35.3840 H   0  0  0  0  0  0  0  0  0  0  0  0
   40.7650   23.9880   34.8910 O   0  0  0  0  0  0  0  0  0  0  0  0
   41.1510   24.8740   34.6460 H   0  0  0  0  0  0  0  0  0  0  0  0
   41.5030   22.6000   37.1180 O   0  0  0  0  0  0  0  0  0  0  0  0
   41.7450   21.2710   37.3080 C   0  0  0  0  0  3  0  0  0  0  0  0
   42.7730   20.5730   36.8540 C   0  0  0  0  0  3  0  0  0  0  0  0
   43.8070   21.2620   36.0410 C   0  0  0  0  0  2  0  0  0  0  0  0
   43.7730   22.3480   36.2700 H   0  0  0  0  0  0  0  0  0  0  0  0
  1  6  1  0  0  0  0
  2  1  2  0  0  0  0
  2  3  1  0  0  0  0
  3  4  2  0  0  0  0
  4  5  1  0  0  0  0
  4  8  1  0  0  0  0
  5  9  1  0  0  0  0
  6 24  1  0  0  0  0
  6  5  2  0  0  0  0
  7  3  1  0  0  0  0
 10 16  1  0  0  0  0
 10 11  1  0  0  0  0
 11  2  1  0  0  0  0
 12 11  2  0  0  0  0
 12 18  1  0  0  0  0
 13 12  1  0  0  0  0
 14 15  1  0  0  0  0
 14 13  2  0  0  0  0
 15 10  2  0  0  0  0
 17 14  1  0  0  0  0
 18 19  1  0  0  0  0
 18 20  1  0  0  0  0
 21 18  1  0  0  0  0
 22  1  1  0  0  0  0
 23 22  1  0  0  0  0
 24 25  1  0  0  0  0
 26 25  2  0  0  0  0
 27 28  1  0  0  0  0
 27 26  1  0  0  0  0
M  END
>  <minimizedAffinity>
-4.76562643

$$$$

 OpenBabel03272509193D

 28 29  0  0  0  0  0  0  0  0999 V2000
   38.4920   24.8960   33.7910 C   0  0  0  0  0  0  0  0  0  0  0  0
   39.1370   25.2550   34.9660 C   0  0  0  0  0  0  0  0  0  0  0  0
   39.9140   26.4160   34.8640 C   0  0  0  0  0  0  0  0  0  0  0  0
   40.0080   27.1290   33.6630 C   0  0  0  0  0  0  0  0  0  0  0  0
   39.3120   26.6780   32.5290 C   0  0  0  0  0  0  0  0  0  0  0  0
   38.5510   25.5460   32.6200 C   0  0  0  0  0  0  0  0  0  0  0  0
   40.4340   26.7400   35.7340 H   0  0  0  0  0  0  0  0  0  0  0  0
   40.6090   28.0260   33.5870 H   0  0  0  0  0  0  0  0  0  0  0  0
   39.3640   27.2070   31.5850 H   0  0  0  0  0  0  0  0  0  0  0  0
   38.0570   24.8550   37.1290 C   0  0  0  0  0  0  0  0  0  0  0  0
   39.0390   24.5230   36.1960 C   0  0  0  0  0  0  0  0  0  0  0  0
   39.9090   23.4700   36.5010 C   0  0  0  0  0  0  0  0  0  0  0  0
   39.7490   22.8280   37.6890 N   0  0  0  0  0  0  0  0  0  0  0  0
   38.7730   23.1880   38.5710 C   0  0  0  0  0  0  0  0  0  0  0  0
   37.9380   24.1890   38.2920 N   0  0  0  0  0  0  0  0  0  0  0  0
   37.3920   25.6690   36.8850 H   0  0  0  0  0  0  0  0  0  0  0  0
   38.7700   22.5790   39.4800 H   0  0  0  0  0  0  0  0  0  0  0  0
   40.9680   23.0730   35.5510 C   0  0  0  0  0  0  0  0  0  0  0  0
   41.6050   23.9150   35.2500 H   0  0  0  0  0  0  0  0  0  0  0  0
   40.4810   22.6520   34.6420 H   0  0  0  0  0  0  0  0  0  0  0  0
   41.5600   22.2620   36.0150 H   0  0  0  0  0  0  0  0  0  0  0  0
   37.6830   23.7280   33.8140 O   0  0  0  0  0  0  0  0  0  0  0  0
   36.8450   23.6700   34.3510 H   0  0  0  0  0  0  0  0  0  0  0  0
   37.8670   25.1170   31.4760 O   0  0  0  0  0  0  0  0  0  0  0  0
   36.6280   25.5660   31.1230 C   0  0  0  0  0  3  0  0  0  0  0  0
   35.5280   24.8450   30.9760 C   0  0  0  0  0  3  0  0  0  0  0  0
   35.5940   23.3790   31.2090 C   0  0  0  0  0  2  0  0  0  0  0  0
   36.4650   23.1630   31.8620 H   0  0  0  0  0  0  0  0  0  0  0  0
  1 22  1  0  0  0  0
  1  2  1  0  0  0  0
  2 11  1  0  0  0  0
  3  2  2  0  0  0  0
  3  7  1  0  0  0  0
  4  3  1  0  0  0  0
  5  6  1  0  0  0  0
  5  4  2  0  0  0  0
  6  1  2  0  0  0  0
  8  4  1  0  0  0  0
  9  5  1  0  0  0  0
 10 15  1  0  0  0  0
 11 12  1  0  0  0  0
 11 10  2  0  0  0  0
 12 13  2  0  0  0  0
 13 14  1  0  0  0  0
 14 17  1  0  0  0  0
 15 14  2  0  0  0  0
 16 10  1  0  0  0  0
 18 21  1  0  0  0  0
 18 12  1  0  0  0  0
 19 18  1  0  0  0  0
 20 18  1  0  0  0  0
 22 23  1  0  0  0  0
 24  6  1  0  0  0  0
 25 24  1  0  0  0  0
 26 25  2  0  0  0  0
 26 27  1  0  0  0  0
 27 28  1  0  0  0  0
M  END
>  <minimizedAffinity>
-4.69733

$$$$

 OpenBabel03272509193D

 28 29  0  0  0  0  0  0  0  0999 V2000
   37.6820   22.6160   33.8770 C   0  0  0  0  0  0  0  0  0  0  0  0
   38.3250   23.6050   34.6090 C   0  0  0  0  0  0  0  0  0  0  0  0
   38.7690   24.6910   33.8440 C   0  0  0  0  0  0  0  0  0  0  0  0
   38.5640   24.7420   32.4610 C   0  0  0  0  0  0  0  0  0  0  0  0
   37.8990   23.6850   31.8160 C   0  0  0  0  0  0  0  0  0  0  0  0
   37.4620   22.6210   32.5540 C   0  0  0  0  0  0  0  0  0  0  0  0
   39.2710   25.4800   34.3520 H   0  0  0  0  0  0  0  0  0  0  0  0
   38.9070   25.5820   31.8720 H   0  0  0  0  0  0  0  0  0  0  0  0
   37.7240   23.6950   30.7460 H   0  0  0  0  0  0  0  0  0  0  0  0
   37.6240   24.1590   36.8910 C   0  0  0  0  0  0  0  0  0  0  0  0
   38.5350   23.5500   36.0270 C   0  0  0  0  0  0  0  0  0  0  0  0
   39.6390   22.8980   36.5880 C   0  0  0  0  0  0  0  0  0  0  0  0
   39.7640   22.8930   37.9420 N   0  0  0  0  0  0  0  0  0  0  0  0
   38.8470   23.5030   38.7470 C   0  0  0  0  0  0  0  0  0  0  0  0
   37.7910   24.1270   38.2250 N   0  0  0  0  0  0  0  0  0  0  0  0
   36.7770   24.6600   36.4500 H   0  0  0  0  0  0  0  0  0  0  0  0
   39.0840   23.4130   39.8110 H   0  0  0  0  0  0  0  0  0  0  0  0
   40.6350   22.2340   35.7220 C   0  0  0  0  0  0  0  0  0  0  0  0
   41.0380   22.9010   34.9500 H   0  0  0  0  0  0  0  0  0  0  0  0
   40.1430   21.3680   35.2250 H   0  0  0  0  0  0  0  0  0  0  0  0
   41.4380   21.8310   36.3700 H   0  0  0  0  0  0  0  0  0  0  0  0
   37.2020   21.4800   34.5830 O   0  0  0  0  0  0  0  0  0  0  0  0
   36.4620   21.5400   35.2480 H   0  0  0  0  0  0  0  0  0  0  0  0
   36.8030   21.5820   31.8890 O   0  0  0  0  0  0  0  0  0  0  0  0
   35.4480   21.5150   31.7450 C   0  0  0  0  0  3  0  0  0  0  0  0
   34.6610   20.4950   32.0510 C   0  0  0  0  0  3  0  0  0  0  0  0
   35.2690   19.2630   32.6150 C   0  0  0  0  0  2  0  0  0  0  0  0
   36.2470   19.5260   33.0710 H   0  0  0  0  0  0  0  0  0  0  0  0
  1 22  1  0  0  0  0
  1  2  1  0  0  0  0
  2 11  1  0  0  0  0
  3  7  1  0  0  0  0
  3  2  2  0  0  0  0
  4  3  1  0  0  0  0
  5  4  2  0  0  0  0
  5  6  1  0  0  0  0
  6  1  2  0  0  0  0
  8  4  1  0  0  0  0
  9  5  1  0  0  0  0
 10 15  1  0  0  0  0
 11 12  1  0  0  0  0
 11 10  2  0  0  0  0
 12 13  2  0  0  0  0
 13 14  1  0  0  0  0
 14 17  1  0  0  0  0
 15 14  2  0  0  0  0
 16 10  1  0  0  0  0
 18 21  1  0  0  0  0
 18 12  1  0  0  0  0
 19 18  1  0  0  0  0
 20 18  1  0  0  0  0
 22 23  1  0  0  0  0
 24  6  1  0  0  0  0
 25 24  1  0  0  0  0
 25 26  2  0  0  0  0
 26 27  1  0  0  0  0
 27 28  1  0  0  0  0
M  END
>  <minimizedAffinity>
-4.65011454

$$$$

 OpenBabel03272509193D

 28 29  0  0  0  0  0  0  0  0999 V2000
   38.2890   27.0890   34.8220 C   0  0  0  0  0  0  0  0  0  0  0  0
   38.9160   26.0100   34.2170 C   0  0  0  0  0  0  0  0  0  0  0  0
   38.3370   25.6120   33.0050 C   0  0  0  0  0  0  0  0  0  0  0  0
   37.2200   26.2730   32.4790 C   0  0  0  0  0  0  0  0  0  0  0  0
   36.6610   27.3580   33.1740 C   0  0  0  0  0  0  0  0  0  0  0  0
   37.2210   27.7520   34.3570 C   0  0  0  0  0  0  0  0  0  0  0  0
   38.7750   24.7880   32.4950 H   0  0  0  0  0  0  0  0  0  0  0  0
   36.7750   25.9640   31.5420 H   0  0  0  0  0  0  0  0  0  0  0  0
   35.7970   27.8900   32.7930 H   0  0  0  0  0  0  0  0  0  0  0  0
   41.3410   25.8350   34.5250 C   0  0  0  0  0  0  0  0  0  0  0  0
   40.0600   25.3340   34.7580 C   0  0  0  0  0  0  0  0  0  0  0  0
   39.9380   24.1700   35.5240 C   0  0  0  0  0  0  0  0  0  0  0  0
   41.0730   23.5900   36.0000 N   0  0  0  0  0  0  0  0  0  0  0  0
   42.3050   24.1180   35.7460 C   0  0  0  0  0  0  0  0  0  0  0  0
   42.4350   25.2270   35.0170 N   0  0  0  0  0  0  0  0  0  0  0  0
   41.4250   26.7330   33.9330 H   0  0  0  0  0  0  0  0  0  0  0  0
   43.1190   23.5410   36.1950 H   0  0  0  0  0  0  0  0  0  0  0  0
   38.6070   23.5930   35.8050 C   0  0  0  0  0  0  0  0  0  0  0  0
   38.0200   23.4200   34.8940 H   0  0  0  0  0  0  0  0  0  0  0  0
   38.0510   24.3030   36.4580 H   0  0  0  0  0  0  0  0  0  0  0  0
   38.7520   22.6580   36.3790 H   0  0  0  0  0  0  0  0  0  0  0  0
   38.8190   27.5520   36.0570 O   0  0  0  0  0  0  0  0  0  0  0  0
   39.7210   27.9720   36.1260 H   0  0  0  0  0  0  0  0  0  0  0  0
   36.6450   28.8360   35.0300 O   0  0  0  0  0  0  0  0  0  0  0  0
   35.6010   29.5630   34.5390 C   0  0  0  0  0  3  0  0  0  0  0  0
   35.2620   30.8000   34.8690 C   0  0  0  0  0  3  0  0  0  0  0  0
   36.0750   31.5210   35.8820 C   0  0  0  0  0  2  0  0  0  0  0  0
   37.0850   31.0610   35.9190 H   0  0  0  0  0  0  0  0  0  0  0  0
  1 22  1  0  0  0  0
  2 11  1  0  0  0  0
  2  1  2  0  0  0  0
  3  2  1  0  0  0  0
  4  3  2  0  0  0  0
  4  5  1  0  0  0  0
  5  6  2  0  0  0  0
  6  1  1  0  0  0  0
  6 24  1  0  0  0  0
  7  3  1  0  0  0  0
  8  4  1  0  0  0  0
  9  5  1  0  0  0  0
 10 11  2  0  0  0  0
 10 15  1  0  0  0  0
 11 12  1  0  0  0  0
 12 18  1  0  0  0  0
 12 13  2  0  0  0  0
 14 13  1  0  0  0  0
 14 17  1  0  0  0  0
 15 14  2  0  0  0  0
 16 10  1  0  0  0  0
 18 21  1  0  0  0  0
 18 20  1  0  0  0  0
 19 18  1  0  0  0  0
 22 23  1  0  0  0  0
 25 26  2  0  0  0  0
 25 24  1  0  0  0  0
 26 27  1  0  0  0  0
 27 28  1  0  0  0  0
M  END
>  <minimizedAffinity>
-4.50753832

$$$$

 OpenBabel03272509193D

 28 29  0  0  0  0  0  0  0  0999 V2000
   37.2090   24.1200   32.5880 C   0  0  0  0  0  0  0  0  0  0  0  0
   36.2870   23.4410   31.8030 C   0  0  0  0  0  0  0  0  0  0  0  0
   35.4700   24.2720   31.0260 C   0  0  0  0  0  0  0  0  0  0  0  0
   35.6000   25.6650   31.0620 C   0  0  0  0  0  0  0  0  0  0  0  0
   36.5690   26.2530   31.8930 C   0  0  0  0  0  0  0  0  0  0  0  0
   37.3710   25.4490   32.6540 C   0  0  0  0  0  0  0  0  0  0  0  0
   34.7420   23.8060   30.4050 H   0  0  0  0  0  0  0  0  0  0  0  0
   34.9680   26.3040   30.4600 H   0  0  0  0  0  0  0  0  0  0  0  0
   36.6950   27.3280   31.9430 H   0  0  0  0  0  0  0  0  0  0  0  0
   35.1140   21.3910   32.4580 C   0  0  0  0  0  0  0  0  0  0  0  0
   36.1550   22.0130   31.7680 C   0  0  0  0  0  0  0  0  0  0  0  0
   37.0470   21.2050   31.0550 C   0  0  0  0  0  0  0  0  0  0  0  0
   36.8510   19.8590   31.0730 N   0  0  0  0  0  0  0  0  0  0  0  0
   35.8180   19.2960   31.7630 C   0  0  0  0  0  0  0  0  0  0  0  0
   34.9610   20.0550   32.4460 N   0  0  0  0  0  0  0  0  0  0  0  0
   34.4310   22.0230   33.0060 H   0  0  0  0  0  0  0  0  0  0  0  0
   35.7930   18.2050   31.6820 H   0  0  0  0  0  0  0  0  0  0  0  0
   38.1680   21.8070   30.3040 C   0  0  0  0  0  0  0  0  0  0  0  0
   38.7870   22.4680   30.9230 H   0  0  0  0  0  0  0  0  0  0  0  0
   37.7440   22.4010   29.4620 H   0  0  0  0  0  0  0  0  0  0  0  0
   38.7660   20.9870   29.8630 H   0  0  0  0  0  0  0  0  0  0  0  0
   38.0760   23.3460   33.4050 O   0  0  0  0  0  0  0  0  0  0  0  0
   38.7710   22.7420   33.0230 H   0  0  0  0  0  0  0  0  0  0  0  0
   38.3280   26.0590   33.4730 O   0  0  0  0  0  0  0  0  0  0  0  0
   38.0540   27.0990   34.3120 C   0  0  0  0  0  3  0  0  0  0  0  0
   37.9850   27.0640   35.6330 C   0  0  0  0  0  3  0  0  0  0  0  0
   38.2220   25.7740   36.3310 C   0  0  0  0  0  2  0  0  0  0  0  0
   38.8180   25.1150   35.6650 H   0  0  0  0  0  0  0  0  0  0  0  0
  1  6  1  0  0  0  0
  1 22  1  0  0  0  0
  2  1  2  0  0  0  0
  3  4  2  0  0  0  0
  3  2  1  0  0  0  0
  4  5  1  0  0  0  0
  5  9  1  0  0  0  0
  5  6  2  0  0  0  0
  6 24  1  0  0  0  0
  7  3  1  0  0  0  0
  8  4  1  0  0  0  0
 10 16  1  0  0  0  0
 11  2  1  0  0  0  0
 11 10  2  0  0  0  0
 12 13  2  0  0  0  0
 12 11  1  0  0  0  0
 13 14  1  0  0  0  0
 14 15  2  0  0  0  0
 15 10  1  0  0  0  0
 17 14  1  0  0  0  0
 18 19  1  0  0  0  0
 18 12  1  0  0  0  0
 20 18  1  0  0  0  0
 21 18  1  0  0  0  0
 23 22  1  0  0  0  0
 24 25  1  0  0  0  0
 25 26  2  0  0  0  0
 26 27  1  0  0  0  0
 28 27  1  0  0  0  0
M  END
>  <minimizedAffinity>
-4.50637102

$$$$

 OpenBabel03272509193D

 28 29  0  0  0  0  0  0  0  0999 V2000
   37.6770   27.2970   34.8200 C   0  0  0  0  0  0  0  0  0  0  0  0
   38.1850   26.1690   34.1920 C   0  0  0  0  0  0  0  0  0  0  0  0
   37.6760   25.9480   32.9050 C   0  0  0  0  0  0  0  0  0  0  0  0
   36.7380   26.8140   32.3330 C   0  0  0  0  0  0  0  0  0  0  0  0
   36.2880   27.9310   33.0560 C   0  0  0  0  0  0  0  0  0  0  0  0
   36.7790   28.1540   34.3130 C   0  0  0  0  0  0  0  0  0  0  0  0
   38.0300   25.0960   32.3740 H   0  0  0  0  0  0  0  0  0  0  0  0
   36.3470   26.6410   31.3390 H   0  0  0  0  0  0  0  0  0  0  0  0
   35.5620   28.6200   32.6420 H   0  0  0  0  0  0  0  0  0  0  0  0
   38.7230   24.1270   35.4360 C   0  0  0  0  0  0  0  0  0  0  0  0
   39.1470   25.2830   34.7800 C   0  0  0  0  0  0  0  0  0  0  0  0
   40.5220   25.5380   34.7210 C   0  0  0  0  0  0  0  0  0  0  0  0
   41.3680   24.6480   35.3050 N   0  0  0  0  0  0  0  0  0  0  0  0
   40.9050   23.5300   35.9350 C   0  0  0  0  0  0  0  0  0  0  0  0
   39.5980   23.2750   35.9980 N   0  0  0  0  0  0  0  0  0  0  0  0
   37.6610   23.9380   35.4770 H   0  0  0  0  0  0  0  0  0  0  0  0
   41.7050   22.9120   36.3540 H   0  0  0  0  0  0  0  0  0  0  0  0
   41.0310   26.7460   34.0380 C   0  0  0  0  0  0  0  0  0  0  0  0
   40.5660   27.6690   34.4070 H   0  0  0  0  0  0  0  0  0  0  0  0
   40.8150   26.6490   32.9510 H   0  0  0  0  0  0  0  0  0  0  0  0
   42.1310   26.7700   34.1570 H   0  0  0  0  0  0  0  0  0  0  0  0
   38.1450   27.5900   36.1300 O   0  0  0  0  0  0  0  0  0  0  0  0
   39.0890   27.8510   36.3120 H   0  0  0  0  0  0  0  0  0  0  0  0
   36.3160   29.2740   35.0130 O   0  0  0  0  0  0  0  0  0  0  0  0
   35.3040   30.0760   34.5720 C   0  0  0  0  0  3  0  0  0  0  0  0
   34.9900   31.2830   35.0150 C   0  0  0  0  0  3  0  0  0  0  0  0
   35.7960   31.8770   36.1130 C   0  0  0  0  0  2  0  0  0  0  0  0
   36.7910   31.3870   36.1280 H   0  0  0  0  0  0  0  0  0  0  0  0
  1 22  1  0  0  0  0
  2 11  1  0  0  0  0
  2  1  2  0  0  0  0
  3  2  1  0  0  0  0
  4  3  2  0  0  0  0
  4  5  1  0  0  0  0
  5  6  2  0  0  0  0
  6  1  1  0  0  0  0
  6 24  1  0  0  0  0
  7  3  1  0  0  0  0
  8  4  1  0  0  0  0
  9  5  1  0  0  0  0
 10 16  1  0  0  0  0
 10 15  1  0  0  0  0
 11 10  2  0  0  0  0
 12 11  1  0  0  0  0
 12 13  2  0  0  0  0
 13 14  1  0  0  0  0
 14 15  2  0  0  0  0
 14 17  1  0  0  0  0
 18 21  1  0  0  0  0
 18 19  1  0  0  0  0
 18 12  1  0  0  0  0
 20 18  1  0  0  0  0
 22 23  1  0  0  0  0
 25 24  1  0  0  0  0
 25 26  2  0  0  0  0
 26 27  1  0  0  0  0
 27 28  1  0  0  0  0
M  END
>  <minimizedAffinity>
-4.50328159

$$$$

 OpenBabel03272509193D

 28 29  0  0  0  0  0  0  0  0999 V2000
   36.5560   26.2870   31.1910 C   0  0  0  0  0  0  0  0  0  0  0  0
   37.3840   27.3940   31.3170 C   0  0  0  0  0  0  0  0  0  0  0  0
   38.3150   27.3010   32.3590 C   0  0  0  0  0  0  0  0  0  0  0  0
   38.3780   26.1720   33.1840 C   0  0  0  0  0  0  0  0  0  0  0  0
   37.4910   25.1030   32.9700 C   0  0  0  0  0  0  0  0  0  0  0  0
   36.5790   25.1850   31.9550 C   0  0  0  0  0  0  0  0  0  0  0  0
   38.9770   28.1220   32.5050 H   0  0  0  0  0  0  0  0  0  0  0  0
   39.0980   26.1020   33.9880 H   0  0  0  0  0  0  0  0  0  0  0  0
   37.5140   24.2150   33.5910 H   0  0  0  0  0  0  0  0  0  0  0  0
   38.0020   28.5650   29.2550 C   0  0  0  0  0  0  0  0  0  0  0  0
   37.3180   28.5500   30.4710 C   0  0  0  0  0  0  0  0  0  0  0  0
   36.5810   29.6860   30.8250 C   0  0  0  0  0  0  0  0  0  0  0  0
   36.5710   30.7400   29.9660 N   0  0  0  0  0  0  0  0  0  0  0  0
   37.2560   30.7080   28.7870 C   0  0  0  0  0  0  0  0  0  0  0  0
   37.9610   29.6330   28.4380 N   0  0  0  0  0  0  0  0  0  0  0  0
   38.5680   27.6850   28.9900 H   0  0  0  0  0  0  0  0  0  0  0  0
   37.1510   31.6290   28.2060 H   0  0  0  0  0  0  0  0  0  0  0  0
   35.8360   29.7270   32.1000 C   0  0  0  0  0  0  0  0  0  0  0  0
   36.4650   29.4920   32.9670 H   0  0  0  0  0  0  0  0  0  0  0  0
   35.0100   28.9820   32.0460 H   0  0  0  0  0  0  0  0  0  0  0  0
   35.3720   30.7280   32.1950 H   0  0  0  0  0  0  0  0  0  0  0  0
   35.5840   26.3050   30.1550 O   0  0  0  0  0  0  0  0  0  0  0  0
   35.8320   26.2920   29.1900 H   0  0  0  0  0  0  0  0  0  0  0  0
   35.7070   24.1080   31.7630 O   0  0  0  0  0  0  0  0  0  0  0  0
   36.0130   23.0120   31.0090 C   0  0  0  0  0  3  0  0  0  0  0  0
   35.7950   21.7430   31.3180 C   0  0  0  0  0  3  0  0  0  0  0  0
   35.1500   21.4200   32.6160 C   0  0  0  0  0  2  0  0  0  0  0  0
   34.5810   22.3100   32.9610 H   0  0  0  0  0  0  0  0  0  0  0  0
  1  2  2  0  0  0  0
  1  6  1  0  0  0  0
  2  3  1  0  0  0  0
  3  7  1  0  0  0  0
  3  4  2  0  0  0  0
  4  8  1  0  0  0  0
  5  4  1  0  0  0  0
  5  9  1  0  0  0  0
  6  5  2  0  0  0  0
 10 11  1  0  0  0  0
 11 12  2  0  0  0  0
 11  2  1  0  0  0  0
 12 18  1  0  0  0  0
 13 12  1  0  0  0  0
 14 13  2  0  0  0  0
 15 14  1  0  0  0  0
 15 10  2  0  0  0  0
 16 10  1  0  0  0  0
 17 14  1  0  0  0  0
 18 21  1  0  0  0  0
 18 19  1  0  0  0  0
 20 18  1  0  0  0  0
 22  1  1  0  0  0  0
 23 22  1  0  0  0  0
 24  6  1  0  0  0  0
 25 26  2  0  0  0  0
 25 24  1  0  0  0  0
 26 27  1  0  0  0  0
 27 28  1  0  0  0  0
M  END
>  <minimizedAffinity>
-4.50286102

$$$$
