
 OpenBabel03262520213D

 22 23  0  0  0  0  0  0  0  0999 V2000
   36.0640   29.3760   51.0570 C   0  0  0  0  0  0  0  0  0  0  0  0
   36.1500   30.1580   49.8720 C   0  0  0  0  0  0  0  0  0  0  0  0
   35.0940   30.0740   48.9910 C   0  0  0  0  0  0  0  0  0  0  0  0
   34.0510   29.2440   49.3400 N   0  0  0  0  0  0  0  0  0  0  0  0
   33.9920   28.5260   50.4540 C   0  0  0  0  0  0  0  0  0  0  0  0
   35.0160   28.6040   51.3080 N   0  0  0  0  0  0  0  0  0  0  0  0
   32.8300   27.7530   50.6630 N   0  0  0  0  0  0  0  0  0  0  0  0
   36.7830   29.3100   51.8550 H   0  0  0  0  0  0  0  0  0  0  0  0
   32.2580   27.9930   51.5190 H   0  0  0  0  0  0  0  0  0  0  0  0
   32.6390   27.0150   49.9550 H   0  0  0  0  0  0  0  0  0  0  0  0
   37.3620   30.9700   49.7780 C   0  0  0  0  0  0  0  0  0  0  0  0
   38.2850   31.0630   50.7960 C   0  0  0  0  0  0  0  0  0  0  0  0
   38.3240   30.6010   51.8050 H   0  0  0  0  0  0  0  0  0  0  0  0
   39.3520   31.8690   50.5190 C   0  0  0  0  0  0  0  0  0  0  0  0
   40.2270   32.1610   51.0640 H   0  0  0  0  0  0  0  0  0  0  0  0
   39.0460   32.2840   49.2540 C   0  0  0  0  0  0  0  0  0  0  0  0
   39.5640   32.9490   48.5510 H   0  0  0  0  0  0  0  0  0  0  0  0
   37.9410   31.7410   48.9370 O   0  0  0  0  0  0  0  0  0  0  0  0
   35.1090   30.8470   47.7330 C   0  0  0  0  0  0  0  0  0  0  0  0
   36.3680   31.2180   47.5200 F   0  0  0  0  0  0  0  0  0  0  0  0
   34.6620   30.1280   46.6350 F   0  0  0  0  0  0  0  0  0  0  0  0
   34.2740   31.9840   47.8220 F   0  0  0  0  0  0  0  0  0  0  0  0
  1  6  1  0  0  0  0
  1  8  1  0  0  0  0
  2  1  2  0  0  0  0
  3  4  2  0  0  0  0
  3  2  1  0  0  0  0
  4  5  1  0  0  0  0
  5  7  1  0  0  0  0
  5  6  2  0  0  0  0
  7  9  1  0  0  0  0
 10  7  1  0  0  0  0
 11  2  1  0  0  0  0
 11 12  2  0  0  0  0
 12 13  1  0  0  0  0
 14 12  1  0  0  0  0
 14 15  1  0  0  0  0
 16 14  2  0  0  0  0
 17 16  1  0  0  0  0
 18 16  1  0  0  0  0
 18 11  1  0  0  0  0
 19 22  1  0  0  0  0
 19  3  1  0  0  0  0
 20 19  1  0  0  0  0
 21 19  1  0  0  0  0
M  END
>  <minimizedAffinity>
3.86539936

>  <minimizedRMSD>
2.90765047

$$$$
