
 OpenBabel03272504413D

 44 46  0  0  0  0  0  0  0  0999 V2000
   34.8210   29.4010   48.8350 C   0  0  0  0  0  0  0  0  0  0  0  0
   34.1610   30.2200   49.2510 H   0  0  0  0  0  0  0  0  0  0  0  0
   35.7210   29.4410   49.4820 H   0  0  0  0  0  0  0  0  0  0  0  0
   37.5940   30.4360   48.5130 Cl  0  0  0  0  0  0  0  0  0  0  0  0
   36.4300   30.2950   47.1850 C   0  0  0  0  0  0  0  0  0  0  0  0
   36.8030   30.6730   45.9450 C   0  0  0  0  0  0  0  0  0  0  0  0
   35.9120   30.5690   44.9030 C   0  0  0  0  0  0  0  0  0  0  0  0
   34.6440   30.0730   45.1670 C   0  0  0  0  0  0  0  0  0  0  0  0
   34.3240   29.7000   46.4760 C   0  0  0  0  0  0  0  0  0  0  0  0
   35.1900   29.7980   47.5050 C   0  0  0  0  0  0  0  0  0  0  0  0
   36.2400   30.8820   43.9060 H   0  0  0  0  0  0  0  0  0  0  0  0
   34.0210   30.0310   44.2830 H   0  0  0  0  0  0  0  0  0  0  0  0
   33.3190   29.3620   46.4430 H   0  0  0  0  0  0  0  0  0  0  0  0
   39.7880   32.8420   45.9830 C   0  0  0  0  0  0  0  0  0  0  0  0
   40.6560   32.1090   45.1020 C   0  0  0  0  0  0  0  0  0  0  0  0
   40.1780   30.9190   44.5470 C   0  0  0  0  0  0  0  0  0  0  0  0
   38.9240   30.4950   44.8510 N   0  0  0  0  0  0  0  0  0  0  0  0
   38.1300   31.2070   45.6830 C   0  0  0  0  0  0  0  0  0  0  0  0
   38.5680   32.3550   46.2290 N   0  0  0  0  0  0  0  0  0  0  0  0
   40.1660   33.7480   46.3990 H   0  0  0  0  0  0  0  0  0  0  0  0
   41.6270   32.4850   44.8990 H   0  0  0  0  0  0  0  0  0  0  0  0
   41.0500   30.2250   43.6860 N   0  0  0  0  0  0  0  0  0  0  0  0
   41.6920   30.7490   43.0450 H   0  0  0  0  0  0  0  0  0  0  0  0
   41.1290   29.1990   43.6140 H   0  0  0  0  0  0  0  0  0  0  0  0
   34.1580   28.1100   49.0540 C   0  0  0  0  0  0  0  0  0  0  0  0
   34.6110   27.5100   49.8660 H   0  0  0  0  0  0  0  0  0  0  0  0
   34.2580   27.4880   48.1250 H   0  0  0  0  0  0  0  0  0  0  0  0
   32.8300   28.2640   49.3540 O   0  0  0  0  0  0  0  0  0  0  0  0
   32.6750   26.6050   47.3250 O   0  0  0  0  0  0  0  0  0  0  0  0
   31.8680   27.4610   48.2530 P   0  0  2  0  0  0  0  0  0  0  0  0
   31.0310   28.6720   47.3520 O   0  0  0  0  0  0  0  0  0  0  0  0
   30.5900   28.4300   46.0710 C   0  0  0  0  0  0  0  0  0  0  0  0
   31.0040   28.9950   44.8800 C   0  0  0  0  0  0  0  0  0  0  0  0
   31.7590   29.7350   44.7520 H   0  0  0  0  0  0  0  0  0  0  0  0
   30.2410   28.4060   43.8890 C   0  0  0  0  0  0  0  0  0  0  0  0
   30.3040   28.6170   42.8280 H   0  0  0  0  0  0  0  0  0  0  0  0
   29.4080   27.5210   44.5200 C   0  0  0  0  0  0  0  0  0  0  0  0
   28.6610   26.8710   44.0610 H   0  0  0  0  0  0  0  0  0  0  0  0
   29.6460   27.5650   45.8090 O   0  0  0  0  0  0  0  0  0  0  0  0
   30.6900   26.5340   48.9710 O   0  0  0  0  0  0  0  0  0  0  0  0
   29.8400   27.3210   49.7280 C   0  0  0  0  0  0  0  0  0  0  0  0
   29.2970   26.6350   50.8150 F   0  0  0  0  0  0  0  0  0  0  0  0
   30.5020   28.4030   50.2670 F   0  0  0  0  0  0  0  0  0  0  0  0
   28.7860   27.7670   48.9370 F   0  0  0  0  0  0  0  0  0  0  0  0
  1 25  1  0  0  0  0
  1  2  1  0  0  0  0
  1  3  1  0  0  0  0
  5 10  1  0  0  0  0
  5  4  1  0  0  0  0
  6  5  2  0  0  0  0
  7  8  2  0  0  0  0
  7  6  1  0  0  0  0
  8  9  1  0  0  0  0
  9 10  2  0  0  0  0
 10  1  1  0  0  0  0
 11  7  1  0  0  0  0
 12  8  1  0  0  0  0
 13  9  1  0  0  0  0
 14 19  1  0  0  0  0
 14 20  1  0  0  0  0
 15 14  2  0  0  0  0
 16 17  2  0  0  0  0
 16 15  1  0  0  0  0
 17 18  1  0  0  0  0
 18  6  1  0  0  0  0
 18 19  2  0  0  0  0
 21 15  1  0  0  0  0
 22 16  1  0  0  0  0
 23 22  1  0  0  0  0
 24 22  1  0  0  0  0
 25 28  1  0  0  0  0
 25 26  1  0  0  0  0
 27 25  1  0  0  0  0
 30 29  2  6  0  0  0
 30 40  1  0  0  0  0
 30 28  1  0  0  0  0
 31 30  1  0  0  0  0
 32 31  1  0  0  0  0
 33 32  2  0  0  0  0
 34 33  1  0  0  0  0
 35 37  2  0  0  0  0
 35 33  1  0  0  0  0
 36 35  1  0  0  0  0
 37 39  1  0  0  0  0
 38 37  1  0  0  0  0
 39 32  1  0  0  0  0
 40 41  1  0  0  0  0
 41 43  1  0  0  0  0
 41 42  1  0  0  0  0
 44 41  1  0  0  0  0
M  END
>  <minimizedAffinity>
-5.61375284

>  <minimizedRMSD>
0.120355882

$$$$
