
 OpenBabel03272506433D

 31 33  0  0  1  0  0  0  0  0999 V2000
   32.4000   28.3510   47.5120 C   0  0  2  0  0  0  0  0  0  0  0  0
   33.6410   28.4150   48.3660 C   0  0  1  0  0  0  0  0  0  0  0  0
   34.2030   27.1570   48.3710 O   0  0  0  0  0  0  0  0  0  0  0  0
   33.5620   26.3720   47.4250 C   0  0  0  0  0  0  0  0  0  0  0  0
   32.8470   27.3340   46.4780 C   0  0  1  0  0  0  0  0  0  0  0  0
   31.4980   28.0460   48.0690 H   0  0  0  0  0  0  0  0  0  0  0  0
   33.4190   28.7940   49.3850 H   0  0  0  0  0  0  0  0  0  0  0  0
   34.2810   25.7790   46.8390 H   0  0  0  0  0  0  0  0  0  0  0  0
   32.7890   25.7830   47.9400 H   0  0  0  0  0  0  0  0  0  0  0  0
   33.5310   27.8410   45.7960 H   0  0  0  0  0  0  0  0  0  0  0  0
   32.1430   29.6000   46.9260 O   0  0  0  0  0  0  0  0  0  0  0  0
   31.4050   29.5470   46.3000 H   0  0  0  0  0  0  0  0  0  0  0  0
   34.8140   29.5380   47.5290 S   0  0  0  0  0  0  0  0  0  0  0  0
   37.3860   29.4850   50.5480 C   0  0  0  0  0  0  0  0  0  0  0  0
   37.9950   30.7320   50.5190 C   0  0  0  0  0  0  0  0  0  0  0  0
   37.6060   31.6380   49.5320 C   0  0  0  0  0  0  0  0  0  0  0  0
   36.6430   31.2610   48.6350 N   0  0  0  0  0  0  0  0  0  0  0  0
   36.0760   30.0300   48.7040 C   0  0  0  0  0  0  0  0  0  0  0  0
   36.4360   29.1370   49.6500 N   0  0  0  0  0  0  0  0  0  0  0  0
   37.7290   28.8330   51.3300 H   0  0  0  0  0  0  0  0  0  0  0  0
   38.7580   31.0440   51.2210 H   0  0  0  0  0  0  0  0  0  0  0  0
   38.0150   32.6250   49.4250 H   0  0  0  0  0  0  0  0  0  0  0  0
   31.7930   26.6900   45.8590 O   0  0  0  0  0  0  0  0  0  0  0  0
   31.5510   26.6340   44.5030 C   0  0  0  0  0  0  0  0  0  0  0  0
   31.4230   27.8740   43.8750 C   0  0  0  0  0  0  0  0  0  0  0  0
   31.4700   28.9110   44.2120 H   0  0  0  0  0  0  0  0  0  0  0  0
   31.1830   27.6210   42.5200 C   0  0  0  0  0  0  0  0  0  0  0  0
   31.0200   28.2630   41.6610 H   0  0  0  0  0  0  0  0  0  0  0  0
   31.1890   26.2290   42.4500 C   0  0  0  0  0  0  0  0  0  0  0  0
   31.0300   25.6630   41.5250 H   0  0  0  0  0  0  0  0  0  0  0  0
   31.4060   25.6930   43.6270 O   0  0  0  0  0  0  0  0  0  0  0  0
  1  6  1  1  0  0  0
  1  2  1  0  0  0  0
  2  3  1  0  0  0  0
  2  7  1  1  0  0  0
  4  9  1  0  0  0  0
  4  3  1  0  0  0  0
  5 10  1  6  0  0  0
  5  4  1  0  0  0  0
  5  1  1  0  0  0  0
  8  4  1  0  0  0  0
 11  1  1  0  0  0  0
 12 11  1  0  0  0  0
 13  2  1  0  0  0  0
 13 18  1  0  0  0  0
 14 20  1  0  0  0  0
 15 14  1  0  0  0  0
 15 21  1  0  0  0  0
 16 15  2  0  0  0  0
 17 18  2  0  0  0  0
 17 16  1  0  0  0  0
 18 19  1  0  0  0  0
 19 14  2  0  0  0  0
 22 16  1  0  0  0  0
 23  5  1  0  0  0  0
 24 23  1  0  0  0  0
 25 26  1  0  0  0  0
 25 24  2  0  0  0  0
 27 25  1  0  0  0  0
 28 27  1  0  0  0  0
 29 27  2  0  0  0  0
 29 31  1  0  0  0  0
 30 29  1  0  0  0  0
 31 24  1  0  0  0  0
M  END
>  <minimizedAffinity>
-3.68898273

>  <minimizedRMSD>
0.034771692

$$$$
