
 OpenBabel03272504433D

 44 46  0  0  0  0  0  0  0  0999 V2000
   36.7900   28.0010   33.7150 C   0  0  0  0  0  0  0  0  0  0  0  0
   37.7220   28.5560   34.0370 H   0  0  0  0  0  0  0  0  0  0  0  0
   36.1080   28.1180   34.5810 H   0  0  0  0  0  0  0  0  0  0  0  0
   38.4180   26.8870   35.9450 Cl  0  0  0  0  0  0  0  0  0  0  0  0
   37.8970   25.9480   34.5350 C   0  0  0  0  0  0  0  0  0  0  0  0
   38.2480   24.6490   34.4480 C   0  0  0  0  0  0  0  0  0  0  0  0
   37.8510   23.9070   33.3610 C   0  0  0  0  0  0  0  0  0  0  0  0
   37.0950   24.5280   32.3780 C   0  0  0  0  0  0  0  0  0  0  0  0
   36.7670   25.8790   32.5330 C   0  0  0  0  0  0  0  0  0  0  0  0
   37.1510   26.6160   33.5950 C   0  0  0  0  0  0  0  0  0  0  0  0
   38.1480   22.8530   33.3150 H   0  0  0  0  0  0  0  0  0  0  0  0
   36.8330   23.8600   31.5690 H   0  0  0  0  0  0  0  0  0  0  0  0
   36.2010   26.1390   31.6750 H   0  0  0  0  0  0  0  0  0  0  0  0
   41.1020   23.1680   36.2590 C   0  0  0  0  0  0  0  0  0  0  0  0
   40.4660   22.8000   37.4940 C   0  0  0  0  0  0  0  0  0  0  0  0
   39.1040   23.0770   37.6410 C   0  0  0  0  0  0  0  0  0  0  0  0
   38.4290   23.6780   36.6270 N   0  0  0  0  0  0  0  0  0  0  0  0
   39.0560   24.0120   35.4760 C   0  0  0  0  0  0  0  0  0  0  0  0
   40.3650   23.7550   35.3110 N   0  0  0  0  0  0  0  0  0  0  0  0
   42.1410   22.9490   36.1600 H   0  0  0  0  0  0  0  0  0  0  0  0
   41.0400   22.3320   38.2550 H   0  0  0  0  0  0  0  0  0  0  0  0
   38.5080   22.7010   38.8610 N   0  0  0  0  0  0  0  0  0  0  0  0
   38.8030   21.8220   39.3490 H   0  0  0  0  0  0  0  0  0  0  0  0
   37.7710   23.2270   39.3540 H   0  0  0  0  0  0  0  0  0  0  0  0
   36.2000   28.7040   32.5690 C   0  0  0  0  0  0  0  0  0  0  0  0
   36.4130   28.2230   31.5950 H   0  0  0  0  0  0  0  0  0  0  0  0
   36.6480   29.7310   32.5040 H   0  0  0  0  0  0  0  0  0  0  0  0
   34.8390   28.8100   32.6830 O   0  0  0  0  0  0  0  0  0  0  0  0
   34.1750   30.8390   31.1540 O   0  0  0  0  0  0  0  0  0  0  0  0
   34.3500   30.4020   32.5770 P   0  0  2  0  0  0  0  0  0  0  0  0
   35.5780   31.3490   33.3330 O   0  0  0  0  0  0  0  0  0  0  0  0
   35.3870   31.8990   34.5800 C   0  0  0  0  0  0  0  0  0  0  0  0
   35.4870   31.3070   35.8250 C   0  0  0  0  0  0  0  0  0  0  0  0
   35.7340   30.2930   36.0320 H   0  0  0  0  0  0  0  0  0  0  0  0
   35.1990   32.2980   36.7450 C   0  0  0  0  0  0  0  0  0  0  0  0
   35.1850   32.1800   37.8230 H   0  0  0  0  0  0  0  0  0  0  0  0
   34.9410   33.4330   36.0230 C   0  0  0  0  0  0  0  0  0  0  0  0
   34.6760   34.4190   36.4090 H   0  0  0  0  0  0  0  0  0  0  0  0
   35.0640   33.1540   34.7460 O   0  0  0  0  0  0  0  0  0  0  0  0
   32.9520   30.7110   33.4220 O   0  0  0  0  0  0  0  0  0  0  0  0
   32.4300   29.5430   33.9500 C   0  0  0  0  0  0  0  0  0  0  0  0
   31.1980   29.7390   34.5760 F   0  0  0  0  0  0  0  0  0  0  0  0
   32.2000   28.6050   32.9680 F   0  0  0  0  0  0  0  0  0  0  0  0
   33.3090   29.0220   34.8950 F   0  0  0  0  0  0  0  0  0  0  0  0
  1  2  1  0  0  0  0
  1  3  1  0  0  0  0
  5  4  1  0  0  0  0
  6  5  1  0  0  0  0
  6 18  1  0  0  0  0
  7  6  2  0  0  0  0
  8  9  2  0  0  0  0
  8  7  1  0  0  0  0
  9 10  1  0  0  0  0
 10  1  1  0  0  0  0
 10  5  2  0  0  0  0
 11  7  1  0  0  0  0
 12  8  1  0  0  0  0
 13  9  1  0  0  0  0
 14 15  1  0  0  0  0
 15 16  2  0  0  0  0
 15 21  1  0  0  0  0
 16 22  1  0  0  0  0
 17 16  1  0  0  0  0
 18 17  2  0  0  0  0
 19 18  1  0  0  0  0
 19 14  2  0  0  0  0
 20 14  1  0  0  0  0
 22 23  1  0  0  0  0
 22 24  1  0  0  0  0
 25 28  1  0  0  0  0
 25  1  1  0  0  0  0
 26 25  1  0  0  0  0
 27 25  1  0  0  0  0
 30 29  2  6  0  0  0
 30 28  1  0  0  0  0
 30 31  1  0  0  0  0
 30 40  1  0  0  0  0
 31 32  1  0  0  0  0
 32 39  1  0  0  0  0
 32 33  2  0  0  0  0
 33 34  1  0  0  0  0
 33 35  1  0  0  0  0
 35 36  1  0  0  0  0
 37 38  1  0  0  0  0
 37 35  2  0  0  0  0
 39 37  1  0  0  0  0
 40 41  1  0  0  0  0
 41 42  1  0  0  0  0
 41 44  1  0  0  0  0
 43 41  1  0  0  0  0
M  END
>  <minimizedAffinity>
-5.93252516

$$$$

 OpenBabel03272504433D

 44 46  0  0  0  0  0  0  0  0999 V2000
   39.0870   25.8120   33.4180 C   0  0  0  0  0  0  0  0  0  0  0  0
   38.9820   26.0520   34.5190 H   0  0  0  0  0  0  0  0  0  0  0  0
   40.1750   25.9160   33.2340 H   0  0  0  0  0  0  0  0  0  0  0  0
   36.7930   27.0710   34.8390 Cl  0  0  0  0  0  0  0  0  0  0  0  0
   37.3180   27.5270   33.2090 C   0  0  0  0  0  0  0  0  0  0  0  0
   36.6520   28.5010   32.5560 C   0  0  0  0  0  0  0  0  0  0  0  0
   37.0490   28.8670   31.2910 C   0  0  0  0  0  0  0  0  0  0  0  0
   38.1310   28.2130   30.7230 C   0  0  0  0  0  0  0  0  0  0  0  0
   38.7750   27.2110   31.4570 C   0  0  0  0  0  0  0  0  0  0  0  0
   38.3960   26.8450   32.6980 C   0  0  0  0  0  0  0  0  0  0  0  0
   36.4910   29.6620   30.7820 H   0  0  0  0  0  0  0  0  0  0  0  0
   38.3620   28.5730   29.7290 H   0  0  0  0  0  0  0  0  0  0  0  0
   39.5550   26.8530   30.8340 H   0  0  0  0  0  0  0  0  0  0  0  0
   34.5770   30.6910   34.6800 C   0  0  0  0  0  0  0  0  0  0  0  0
   33.2640   30.3500   34.2040 C   0  0  0  0  0  0  0  0  0  0  0  0
   33.1600   29.3970   33.1870 C   0  0  0  0  0  0  0  0  0  0  0  0
   34.2860   28.8270   32.6850 N   0  0  0  0  0  0  0  0  0  0  0  0
   35.5080   29.1690   33.1550 C   0  0  0  0  0  0  0  0  0  0  0  0
   35.6340   30.0830   34.1320 N   0  0  0  0  0  0  0  0  0  0  0  0
   34.6410   31.4190   35.4560 H   0  0  0  0  0  0  0  0  0  0  0  0
   32.4170   30.8260   34.6310 H   0  0  0  0  0  0  0  0  0  0  0  0
   31.8600   29.0820   32.7440 N   0  0  0  0  0  0  0  0  0  0  0  0
   31.0610   29.0500   33.4210 H   0  0  0  0  0  0  0  0  0  0  0  0
   31.5960   28.8660   31.7710 H   0  0  0  0  0  0  0  0  0  0  0  0
   38.7200   24.4060   33.2100 C   0  0  0  0  0  0  0  0  0  0  0  0
   39.5900   23.7260   33.1360 H   0  0  0  0  0  0  0  0  0  0  0  0
   38.1790   24.3140   32.2300 H   0  0  0  0  0  0  0  0  0  0  0  0
   37.9180   23.9340   34.2150 O   0  0  0  0  0  0  0  0  0  0  0  0
   39.2230   21.7420   33.5970 O   0  0  0  0  0  0  0  0  0  0  0  0
   38.3150   22.3630   34.6130 P   0  0  2  0  0  0  0  0  0  0  0  0
   36.8320   21.4830   34.6900 O   0  0  0  0  0  0  0  0  0  0  0  0
   36.1770   21.0890   33.5460 C   0  0  0  0  0  0  0  0  0  0  0  0
   35.5270   19.9000   33.2720 C   0  0  0  0  0  0  0  0  0  0  0  0
   35.4230   19.0650   33.9220 H   0  0  0  0  0  0  0  0  0  0  0  0
   35.0400   20.0160   31.9840 C   0  0  0  0  0  0  0  0  0  0  0  0
   34.4760   19.2630   31.4470 H   0  0  0  0  0  0  0  0  0  0  0  0
   35.4130   21.2580   31.5410 C   0  0  0  0  0  0  0  0  0  0  0  0
   35.2060   21.7040   30.5660 H   0  0  0  0  0  0  0  0  0  0  0  0
   36.0830   21.8600   32.4950 O   0  0  0  0  0  0  0  0  0  0  0  0
   39.0020   22.2260   36.1200 O   0  0  0  0  0  0  0  0  0  0  0  0
   38.6060   23.2720   36.9360 C   0  0  0  0  0  0  0  0  0  0  0  0
   39.0320   23.1150   38.2560 F   0  0  0  0  0  0  0  0  0  0  0  0
   39.1430   24.4700   36.5160 F   0  0  0  0  0  0  0  0  0  0  0  0
   37.2180   23.3610   36.9440 F   0  0  0  0  0  0  0  0  0  0  0  0
  1  2  1  0  0  0  0
  3  1  1  0  0  0  0
  5  4  1  0  0  0  0
  6 18  1  0  0  0  0
  6  5  2  0  0  0  0
  7  6  1  0  0  0  0
  8  7  2  0  0  0  0
  8  9  1  0  0  0  0
  9 10  2  0  0  0  0
 10  5  1  0  0  0  0
 10  1  1  0  0  0  0
 11  7  1  0  0  0  0
 12  8  1  0  0  0  0
 13  9  1  0  0  0  0
 14 20  1  0  0  0  0
 15 21  1  0  0  0  0
 15 14  1  0  0  0  0
 16 15  2  0  0  0  0
 17 18  2  0  0  0  0
 17 16  1  0  0  0  0
 18 19  1  0  0  0  0
 19 14  2  0  0  0  0
 22 16  1  0  0  0  0
 22 23  1  0  0  0  0
 24 22  1  0  0  0  0
 25  1  1  0  0  0  0
 25 28  1  0  0  0  0
 26 25  1  0  0  0  0
 27 25  1  0  0  0  0
 28 30  1  0  0  0  0
 30 29  2  6  0  0  0
 30 31  1  0  0  0  0
 30 40  1  0  0  0  0
 32 31  1  0  0  0  0
 33 32  2  0  0  0  0
 33 34  1  0  0  0  0
 35 33  1  0  0  0  0
 36 35  1  0  0  0  0
 37 35  2  0  0  0  0
 37 39  1  0  0  0  0
 38 37  1  0  0  0  0
 39 32  1  0  0  0  0
 40 41  1  0  0  0  0
 41 44  1  0  0  0  0
 41 42  1  0  0  0  0
 43 41  1  0  0  0  0
M  END
>  <minimizedAffinity>
-5.90951014

$$$$

 OpenBabel03272504433D

 44 46  0  0  0  0  0  0  0  0999 V2000
   38.8370   26.4430   33.1010 C   0  0  0  0  0  0  0  0  0  0  0  0
   38.9950   26.6480   34.2020 H   0  0  0  0  0  0  0  0  0  0  0  0
   39.8210   26.6860   32.6500 H   0  0  0  0  0  0  0  0  0  0  0  0
   37.1130   27.6710   35.1950 Cl  0  0  0  0  0  0  0  0  0  0  0  0
   36.9950   28.0500   33.4680 C   0  0  0  0  0  0  0  0  0  0  0  0
   36.0750   28.9470   33.0570 C   0  0  0  0  0  0  0  0  0  0  0  0
   35.9720   29.2520   31.7200 C   0  0  0  0  0  0  0  0  0  0  0  0
   36.8260   28.6190   30.8300 C   0  0  0  0  0  0  0  0  0  0  0  0
   37.7560   27.6990   31.3250 C   0  0  0  0  0  0  0  0  0  0  0  0
   37.8670   27.3920   32.6340 C   0  0  0  0  0  0  0  0  0  0  0  0
   35.2170   29.9840   31.4120 H   0  0  0  0  0  0  0  0  0  0  0  0
   36.6650   28.9280   29.8060 H   0  0  0  0  0  0  0  0  0  0  0  0
   38.2880   27.3420   30.4800 H   0  0  0  0  0  0  0  0  0  0  0  0
   33.0340   29.9140   34.9080 C   0  0  0  0  0  0  0  0  0  0  0  0
   33.5780   30.8850   35.8170 C   0  0  0  0  0  0  0  0  0  0  0  0
   34.9480   31.1540   35.7500 C   0  0  0  0  0  0  0  0  0  0  0  0
   35.7150   30.5000   34.8400 N   0  0  0  0  0  0  0  0  0  0  0  0
   35.1730   29.5910   33.9970 C   0  0  0  0  0  0  0  0  0  0  0  0
   33.8580   29.3160   34.0420 N   0  0  0  0  0  0  0  0  0  0  0  0
   31.9870   29.7200   34.9700 H   0  0  0  0  0  0  0  0  0  0  0  0
   32.9340   31.3670   36.5090 H   0  0  0  0  0  0  0  0  0  0  0  0
   35.4510   32.1130   36.6510 N   0  0  0  0  0  0  0  0  0  0  0  0
   34.8800   32.9520   36.9090 H   0  0  0  0  0  0  0  0  0  0  0  0
   36.3740   32.0750   37.1110 H   0  0  0  0  0  0  0  0  0  0  0  0
   38.5970   25.0050   32.9240 C   0  0  0  0  0  0  0  0  0  0  0  0
   39.5200   24.3960   32.9360 H   0  0  0  0  0  0  0  0  0  0  0  0
   38.1340   24.8370   31.9160 H   0  0  0  0  0  0  0  0  0  0  0  0
   37.7660   24.5050   33.8920 O   0  0  0  0  0  0  0  0  0  0  0  0
   39.9700   23.5080   34.9130 O   0  0  0  0  0  0  0  0  0  0  0  0
   38.5020   23.2670   34.7340 P   0  0  2  0  0  0  0  0  0  0  0  0
   38.2530   21.8270   33.8150 O   0  0  0  0  0  0  0  0  0  0  0  0
   37.0580   21.5860   33.1770 C   0  0  0  0  0  0  0  0  0  0  0  0
   35.9470   20.8970   33.6260 C   0  0  0  0  0  0  0  0  0  0  0  0
   35.8290   20.4230   34.5710 H   0  0  0  0  0  0  0  0  0  0  0  0
   35.0230   20.9480   32.6000 C   0  0  0  0  0  0  0  0  0  0  0  0
   34.0330   20.5070   32.6130 H   0  0  0  0  0  0  0  0  0  0  0  0
   35.6100   21.6590   31.5870 C   0  0  0  0  0  0  0  0  0  0  0  0
   35.1810   21.9040   30.6130 H   0  0  0  0  0  0  0  0  0  0  0  0
   36.8130   22.0180   31.9680 O   0  0  0  0  0  0  0  0  0  0  0  0
   37.8070   22.9840   36.2170 O   0  0  0  0  0  0  0  0  0  0  0  0
   38.2750   23.8860   37.1580 C   0  0  0  0  0  0  0  0  0  0  0  0
   38.4920   25.1570   36.6240 F   0  0  0  0  0  0  0  0  0  0  0  0
   37.3680   24.0640   38.1790 F   0  0  0  0  0  0  0  0  0  0  0  0
   39.4820   23.4320   37.6810 F   0  0  0  0  0  0  0  0  0  0  0  0
  1  2  1  0  0  0  0
  3  1  1  0  0  0  0
  5  4  1  0  0  0  0
  6  5  1  0  0  0  0
  6 18  1  0  0  0  0
  7  6  2  0  0  0  0
  8  9  2  0  0  0  0
  8  7  1  0  0  0  0
  9 10  1  0  0  0  0
 10  1  1  0  0  0  0
 10  5  2  0  0  0  0
 11  7  1  0  0  0  0
 12  8  1  0  0  0  0
 13  9  1  0  0  0  0
 14 20  1  0  0  0  0
 14 15  1  0  0  0  0
 15 21  1  0  0  0  0
 16 15  2  0  0  0  0
 16 22  1  0  0  0  0
 17 16  1  0  0  0  0
 18 19  1  0  0  0  0
 18 17  2  0  0  0  0
 19 14  2  0  0  0  0
 22 23  1  0  0  0  0
 22 24  1  0  0  0  0
 25 26  1  0  0  0  0
 25  1  1  0  0  0  0
 25 28  1  0  0  0  0
 27 25  1  0  0  0  0
 28 30  1  0  0  0  0
 30 29  2  1  0  0  0
 30 40  1  0  0  0  0
 31 30  1  0  0  0  0
 32 33  2  0  0  0  0
 32 31  1  0  0  0  0
 33 34  1  0  0  0  0
 35 36  1  0  0  0  0
 35 33  1  0  0  0  0
 37 39  1  0  0  0  0
 37 35  2  0  0  0  0
 38 37  1  0  0  0  0
 39 32  1  0  0  0  0
 40 41  1  0  0  0  0
 41 44  1  0  0  0  0
 41 43  1  0  0  0  0
 42 41  1  0  0  0  0
M  END
>  <minimizedAffinity>
-5.86978388

$$$$

 OpenBabel03272504433D

 44 46  0  0  0  0  0  0  0  0999 V2000
   37.1010   28.0800   33.6430 C   0  0  0  0  0  0  0  0  0  0  0  0
   37.1100   28.4680   32.5810 H   0  0  0  0  0  0  0  0  0  0  0  0
   37.9780   28.5760   34.1070 H   0  0  0  0  0  0  0  0  0  0  0  0
   38.7550   26.9470   35.8440 Cl  0  0  0  0  0  0  0  0  0  0  0  0
   38.0960   25.9880   34.5080 C   0  0  0  0  0  0  0  0  0  0  0  0
   38.3460   24.6630   34.4680 C   0  0  0  0  0  0  0  0  0  0  0  0
   37.8400   23.9060   33.4380 C   0  0  0  0  0  0  0  0  0  0  0  0
   37.0820   24.5370   32.4640 C   0  0  0  0  0  0  0  0  0  0  0  0
   36.8620   25.9150   32.5680 C   0  0  0  0  0  0  0  0  0  0  0  0
   37.3530   26.6680   33.5740 C   0  0  0  0  0  0  0  0  0  0  0  0
   38.0570   22.8320   33.4290 H   0  0  0  0  0  0  0  0  0  0  0  0
   36.7310   23.8550   31.7010 H   0  0  0  0  0  0  0  0  0  0  0  0
   36.2730   26.1780   31.7260 H   0  0  0  0  0  0  0  0  0  0  0  0
   41.2030   23.1540   36.2490 C   0  0  0  0  0  0  0  0  0  0  0  0
   40.5720   22.7790   37.4860 C   0  0  0  0  0  0  0  0  0  0  0  0
   39.2120   23.0620   37.6430 C   0  0  0  0  0  0  0  0  0  0  0  0
   38.5350   23.6740   36.6380 N   0  0  0  0  0  0  0  0  0  0  0  0
   39.1570   24.0150   35.4860 C   0  0  0  0  0  0  0  0  0  0  0  0
   40.4640   23.7530   35.3110 N   0  0  0  0  0  0  0  0  0  0  0  0
   42.2400   22.9310   36.1430 H   0  0  0  0  0  0  0  0  0  0  0  0
   41.1480   22.3030   38.2390 H   0  0  0  0  0  0  0  0  0  0  0  0
   38.6220   22.6800   38.8640 N   0  0  0  0  0  0  0  0  0  0  0  0
   38.9160   21.7950   39.3420 H   0  0  0  0  0  0  0  0  0  0  0  0
   37.8910   23.2060   39.3650 H   0  0  0  0  0  0  0  0  0  0  0  0
   35.8900   28.5740   34.3110 C   0  0  0  0  0  0  0  0  0  0  0  0
   35.6600   28.0500   35.2580 H   0  0  0  0  0  0  0  0  0  0  0  0
   35.0080   28.3920   33.6420 H   0  0  0  0  0  0  0  0  0  0  0  0
   35.9750   29.9110   34.5950 O   0  0  0  0  0  0  0  0  0  0  0  0
   33.3890   29.9100   35.0490 O   0  0  0  0  0  0  0  0  0  0  0  0
   34.5010   30.6650   34.3860 P   0  0  2  0  0  0  0  0  0  0  0  0
   34.2220   30.7430   32.6850 O   0  0  0  0  0  0  0  0  0  0  0  0
   35.2650   30.8570   31.7950 C   0  0  0  0  0  0  0  0  0  0  0  0
   36.1790   31.8830   31.6420 C   0  0  0  0  0  0  0  0  0  0  0  0
   36.2280   32.7840   32.2060 H   0  0  0  0  0  0  0  0  0  0  0  0
   37.0160   31.5010   30.6100 C   0  0  0  0  0  0  0  0  0  0  0  0
   37.8510   32.0740   30.2240 H   0  0  0  0  0  0  0  0  0  0  0  0
   36.5750   30.2740   30.1900 C   0  0  0  0  0  0  0  0  0  0  0  0
   36.9900   29.6590   29.3890 H   0  0  0  0  0  0  0  0  0  0  0  0
   35.5380   29.9290   30.9170 O   0  0  0  0  0  0  0  0  0  0  0  0
   34.4920   32.2380   34.9210 O   0  0  0  0  0  0  0  0  0  0  0  0
   35.4910   32.4440   35.8560 C   0  0  0  0  0  0  0  0  0  0  0  0
   35.3270   33.6340   36.5660 F   0  0  0  0  0  0  0  0  0  0  0  0
   35.5040   31.4460   36.8070 F   0  0  0  0  0  0  0  0  0  0  0  0
   36.7270   32.4950   35.2190 F   0  0  0  0  0  0  0  0  0  0  0  0
  1  3  1  0  0  0  0
  1 25  1  0  0  0  0
  2  1  1  0  0  0  0
  5  4  1  0  0  0  0
  6  5  1  0  0  0  0
  6 18  1  0  0  0  0
  7  6  2  0  0  0  0
  8  9  2  0  0  0  0
  8  7  1  0  0  0  0
  9 10  1  0  0  0  0
 10  1  1  0  0  0  0
 10  5  2  0  0  0  0
 11  7  1  0  0  0  0
 12  8  1  0  0  0  0
 13  9  1  0  0  0  0
 14 15  1  0  0  0  0
 15 16  2  0  0  0  0
 15 21  1  0  0  0  0
 16 22  1  0  0  0  0
 17 16  1  0  0  0  0
 18 17  2  0  0  0  0
 19 18  1  0  0  0  0
 19 14  2  0  0  0  0
 20 14  1  0  0  0  0
 22 23  1  0  0  0  0
 22 24  1  0  0  0  0
 25 28  1  0  0  0  0
 25 26  1  0  0  0  0
 27 25  1  0  0  0  0
 30 28  1  0  0  0  0
 30 40  1  0  0  0  0
 30 29  2  1  0  0  0
 31 30  1  0  0  0  0
 32 31  1  0  0  0  0
 33 32  2  0  0  0  0
 33 34  1  0  0  0  0
 35 33  1  0  0  0  0
 36 35  1  0  0  0  0
 37 35  2  0  0  0  0
 37 39  1  0  0  0  0
 38 37  1  0  0  0  0
 39 32  1  0  0  0  0
 40 41  1  0  0  0  0
 41 42  1  0  0  0  0
 41 43  1  0  0  0  0
 44 41  1  0  0  0  0
M  END
>  <minimizedAffinity>
-5.77564764

$$$$

 OpenBabel03272504433D

 44 46  0  0  0  0  0  0  0  0999 V2000
   39.1420   25.3810   30.8170 C   0  0  0  0  0  0  0  0  0  0  0  0
   39.0600   26.3380   30.2200 H   0  0  0  0  0  0  0  0  0  0  0  0
   39.6870   24.6980   30.1340 H   0  0  0  0  0  0  0  0  0  0  0  0
   38.9130   22.5120   31.5790 Cl  0  0  0  0  0  0  0  0  0  0  0  0
   37.5250   23.5880   31.3480 C   0  0  0  0  0  0  0  0  0  0  0  0
   36.2800   23.0970   31.5250 C   0  0  0  0  0  0  0  0  0  0  0  0
   35.1930   23.9210   31.3500 C   0  0  0  0  0  0  0  0  0  0  0  0
   35.4150   25.2420   30.9940 C   0  0  0  0  0  0  0  0  0  0  0  0
   36.7320   25.6840   30.8270 C   0  0  0  0  0  0  0  0  0  0  0  0
   37.8060   24.8860   30.9960 C   0  0  0  0  0  0  0  0  0  0  0  0
   34.1930   23.4980   31.5010 H   0  0  0  0  0  0  0  0  0  0  0  0
   34.4970   25.8030   30.8820 H   0  0  0  0  0  0  0  0  0  0  0  0
   36.6610   26.7060   30.5540 H   0  0  0  0  0  0  0  0  0  0  0  0
   35.5570   20.0380   33.4560 C   0  0  0  0  0  0  0  0  0  0  0  0
   35.6710   19.0430   32.4240 C   0  0  0  0  0  0  0  0  0  0  0  0
   35.9860   19.4700   31.1310 C   0  0  0  0  0  0  0  0  0  0  0  0
   36.1730   20.7940   30.8890 N   0  0  0  0  0  0  0  0  0  0  0  0
   36.0590   21.7050   31.8820 C   0  0  0  0  0  0  0  0  0  0  0  0
   35.7570   21.3190   33.1340 N   0  0  0  0  0  0  0  0  0  0  0  0
   35.3170   19.6980   34.4380 H   0  0  0  0  0  0  0  0  0  0  0  0
   35.5150   18.0220   32.6680 H   0  0  0  0  0  0  0  0  0  0  0  0
   36.0950   18.4720   30.1430 N   0  0  0  0  0  0  0  0  0  0  0  0
   36.4990   17.5350   30.3760 H   0  0  0  0  0  0  0  0  0  0  0  0
   35.8030   18.5710   29.1590 H   0  0  0  0  0  0  0  0  0  0  0  0
   39.9910   25.6310   31.9880 C   0  0  0  0  0  0  0  0  0  0  0  0
   41.0680   25.7110   31.7460 H   0  0  0  0  0  0  0  0  0  0  0  0
   39.9020   24.7620   32.6920 H   0  0  0  0  0  0  0  0  0  0  0  0
   39.6330   26.7810   32.6400 O   0  0  0  0  0  0  0  0  0  0  0  0
   40.7970   26.7350   34.9930 O   0  0  0  0  0  0  0  0  0  0  0  0
   39.4950   26.5220   34.2830 P   0  0  2  0  0  0  0  0  0  0  0  0
   38.9790   24.8880   34.4850 O   0  0  0  0  0  0  0  0  0  0  0  0
   38.8510   24.3300   35.7360 C   0  0  0  0  0  0  0  0  0  0  0  0
   37.8640   24.5210   36.6850 C   0  0  0  0  0  0  0  0  0  0  0  0
   37.0130   25.1540   36.6030 H   0  0  0  0  0  0  0  0  0  0  0  0
   38.2090   23.7260   37.7630 C   0  0  0  0  0  0  0  0  0  0  0  0
   37.6520   23.6330   38.6880 H   0  0  0  0  0  0  0  0  0  0  0  0
   39.3750   23.0960   37.4200 C   0  0  0  0  0  0  0  0  0  0  0  0
   39.9490   22.3890   38.0210 H   0  0  0  0  0  0  0  0  0  0  0  0
   39.7210   23.4810   36.2140 O   0  0  0  0  0  0  0  0  0  0  0  0
   38.3220   27.4610   34.9940 O   0  0  0  0  0  0  0  0  0  0  0  0
   37.1810   27.4950   34.2120 C   0  0  0  0  0  0  0  0  0  0  0  0
   37.3920   28.1110   32.9780 F   0  0  0  0  0  0  0  0  0  0  0  0
   36.7330   26.2250   33.9190 F   0  0  0  0  0  0  0  0  0  0  0  0
   36.1800   28.1990   34.8750 F   0  0  0  0  0  0  0  0  0  0  0  0
  1 10  1  0  0  0  0
  1 25  1  0  0  0  0
  2  1  1  0  0  0  0
  3  1  1  0  0  0  0
  5  6  1  0  0  0  0
  5  4  1  0  0  0  0
  6 18  1  0  0  0  0
  7 11  1  0  0  0  0
  7  6  2  0  0  0  0
  8  7  1  0  0  0  0
  9  8  2  0  0  0  0
  9 10  1  0  0  0  0
 10  5  2  0  0  0  0
 12  8  1  0  0  0  0
 13  9  1  0  0  0  0
 14 20  1  0  0  0  0
 15 21  1  0  0  0  0
 15 14  2  0  0  0  0
 16 15  1  0  0  0  0
 17 16  2  0  0  0  0
 17 18  1  0  0  0  0
 18 19  2  0  0  0  0
 19 14  1  0  0  0  0
 22 23  1  0  0  0  0
 22 16  1  0  0  0  0
 24 22  1  0  0  0  0
 25 28  1  0  0  0  0
 25 27  1  0  0  0  0
 26 25  1  0  0  0  0
 28 30  1  0  0  0  0
 30 31  1  0  0  0  0
 30 29  2  1  0  0  0
 30 40  1  0  0  0  0
 31 32  1  0  0  0  0
 32 39  1  0  0  0  0
 32 33  2  0  0  0  0
 33 35  1  0  0  0  0
 34 33  1  0  0  0  0
 35 36  1  0  0  0  0
 37 35  2  0  0  0  0
 37 38  1  0  0  0  0
 39 37  1  0  0  0  0
 41 44  1  0  0  0  0
 41 40  1  0  0  0  0
 42 41  1  0  0  0  0
 43 41  1  0  0  0  0
M  END
>  <minimizedAffinity>
-5.75212908

$$$$

 OpenBabel03272504433D

 44 46  0  0  0  0  0  0  0  0999 V2000
   39.2440   23.0040   32.3930 C   0  0  0  0  0  0  0  0  0  0  0  0
   40.0710   22.4680   31.8380 H   0  0  0  0  0  0  0  0  0  0  0  0
   38.3680   22.8910   31.7240 H   0  0  0  0  0  0  0  0  0  0  0  0
   37.4250   24.8800   30.9680 Cl  0  0  0  0  0  0  0  0  0  0  0  0
   38.8790   25.3860   31.8440 C   0  0  0  0  0  0  0  0  0  0  0  0
   39.1990   26.6970   31.8800 C   0  0  0  0  0  0  0  0  0  0  0  0
   40.3240   27.1050   32.5580 C   0  0  0  0  0  0  0  0  0  0  0  0
   41.1010   26.1450   33.1860 C   0  0  0  0  0  0  0  0  0  0  0  0
   40.7110   24.8030   33.1080 C   0  0  0  0  0  0  0  0  0  0  0  0
   39.6100   24.3920   32.4470 C   0  0  0  0  0  0  0  0  0  0  0  0
   40.5600   28.1750   32.5720 H   0  0  0  0  0  0  0  0  0  0  0  0
   41.9600   26.5680   33.6900 H   0  0  0  0  0  0  0  0  0  0  0  0
   41.4440   24.2570   33.6470 H   0  0  0  0  0  0  0  0  0  0  0  0
   36.6420   29.2650   31.1880 C   0  0  0  0  0  0  0  0  0  0  0  0
   36.9210   29.5470   29.8060 C   0  0  0  0  0  0  0  0  0  0  0  0
   37.9630   28.8490   29.1900 C   0  0  0  0  0  0  0  0  0  0  0  0
   38.6730   27.9360   29.9030 N   0  0  0  0  0  0  0  0  0  0  0  0
   38.3850   27.6930   31.2030 C   0  0  0  0  0  0  0  0  0  0  0  0
   37.3880   28.3520   31.8180 N   0  0  0  0  0  0  0  0  0  0  0  0
   35.8440   29.8050   31.6450 H   0  0  0  0  0  0  0  0  0  0  0  0
   36.3360   30.2700   29.2950 H   0  0  0  0  0  0  0  0  0  0  0  0
   38.2100   29.1440   27.8350 N   0  0  0  0  0  0  0  0  0  0  0  0
   37.4170   29.3580   27.1840 H   0  0  0  0  0  0  0  0  0  0  0  0
   39.1390   29.1730   27.3890 H   0  0  0  0  0  0  0  0  0  0  0  0
   38.9670   22.2730   33.6360 C   0  0  0  0  0  0  0  0  0  0  0  0
   39.8530   22.1520   34.2880 H   0  0  0  0  0  0  0  0  0  0  0  0
   38.6360   21.2320   33.3780 H   0  0  0  0  0  0  0  0  0  0  0  0
   37.9940   22.8850   34.3810 O   0  0  0  0  0  0  0  0  0  0  0  0
   37.2710   22.8380   36.9040 O   0  0  0  0  0  0  0  0  0  0  0  0
   38.4430   22.9940   35.9840 P   0  0  2  0  0  0  0  0  0  0  0  0
   39.1480   24.5550   36.1950 O   0  0  0  0  0  0  0  0  0  0  0  0
   38.4890   25.6950   35.7980 C   0  0  0  0  0  0  0  0  0  0  0  0
   38.8260   27.0200   36.0020 C   0  0  0  0  0  0  0  0  0  0  0  0
   39.6790   27.3900   36.5190 H   0  0  0  0  0  0  0  0  0  0  0  0
   37.8300   27.7670   35.4020 C   0  0  0  0  0  0  0  0  0  0  0  0
   37.7770   28.8490   35.3710 H   0  0  0  0  0  0  0  0  0  0  0  0
   36.9450   26.8700   34.8650 C   0  0  0  0  0  0  0  0  0  0  0  0
   36.0290   27.0900   34.3130 H   0  0  0  0  0  0  0  0  0  0  0  0
   37.3710   25.6560   35.1220 O   0  0  0  0  0  0  0  0  0  0  0  0
   39.6230   21.9020   36.4060 O   0  0  0  0  0  0  0  0  0  0  0  0
   40.4680   22.4390   37.3620 C   0  0  0  0  0  0  0  0  0  0  0  0
   41.3500   23.3820   36.8330 F   0  0  0  0  0  0  0  0  0  0  0  0
   39.7620   23.1040   38.3420 F   0  0  0  0  0  0  0  0  0  0  0  0
   41.2250   21.4250   37.9410 F   0  0  0  0  0  0  0  0  0  0  0  0
  1 10  1  0  0  0  0
  1 25  1  0  0  0  0
  2  1  1  0  0  0  0
  3  1  1  0  0  0  0
  4  5  1  0  0  0  0
  5  6  2  0  0  0  0
  5 10  1  0  0  0  0
  6  7  1  0  0  0  0
  7 11  1  0  0  0  0
  7  8  2  0  0  0  0
  8 12  1  0  0  0  0
  9  8  1  0  0  0  0
  9 13  1  0  0  0  0
 10  9  2  0  0  0  0
 14 20  1  0  0  0  0
 14 19  1  0  0  0  0
 15 14  2  0  0  0  0
 16 15  1  0  0  0  0
 16 17  2  0  0  0  0
 17 18  1  0  0  0  0
 18 19  2  0  0  0  0
 18  6  1  0  0  0  0
 21 15  1  0  0  0  0
 22 16  1  0  0  0  0
 23 22  1  0  0  0  0
 24 22  1  0  0  0  0
 25 26  1  0  0  0  0
 25 28  1  0  0  0  0
 27 25  1  0  0  0  0
 28 30  1  0  0  0  0
 30 31  1  0  0  0  0
 30 40  1  0  0  0  0
 30 29  2  1  0  0  0
 32 33  2  0  0  0  0
 32 31  1  0  0  0  0
 33 34  1  0  0  0  0
 35 33  1  0  0  0  0
 36 35  1  0  0  0  0
 37 39  1  0  0  0  0
 37 35  2  0  0  0  0
 38 37  1  0  0  0  0
 39 32  1  0  0  0  0
 40 41  1  0  0  0  0
 41 44  1  0  0  0  0
 41 43  1  0  0  0  0
 42 41  1  0  0  0  0
M  END
>  <minimizedAffinity>
-5.65210676

$$$$

 OpenBabel03272504433D

 44 46  0  0  0  0  0  0  0  0999 V2000
   38.8990   24.2570   32.3600 C   0  0  0  0  0  0  0  0  0  0  0  0
   39.7430   24.9250   32.0120 H   0  0  0  0  0  0  0  0  0  0  0  0
   39.0530   23.3240   31.7800 H   0  0  0  0  0  0  0  0  0  0  0  0
   38.7860   27.2230   32.5970 Cl  0  0  0  0  0  0  0  0  0  0  0  0
   37.4590   26.2280   31.9720 C   0  0  0  0  0  0  0  0  0  0  0  0
   36.3200   26.8320   31.5730 C   0  0  0  0  0  0  0  0  0  0  0  0
   35.2820   26.0740   31.0850 C   0  0  0  0  0  0  0  0  0  0  0  0
   35.4430   24.6980   31.0190 C   0  0  0  0  0  0  0  0  0  0  0  0
   36.6500   24.1380   31.4500 C   0  0  0  0  0  0  0  0  0  0  0  0
   37.6750   24.8720   31.9300 C   0  0  0  0  0  0  0  0  0  0  0  0
   34.3690   26.5890   30.7670 H   0  0  0  0  0  0  0  0  0  0  0  0
   34.5710   24.1960   30.6210 H   0  0  0  0  0  0  0  0  0  0  0  0
   36.5470   23.0920   31.3170 H   0  0  0  0  0  0  0  0  0  0  0  0
   35.6280   30.2160   32.8710 C   0  0  0  0  0  0  0  0  0  0  0  0
   35.8790   31.0040   31.6950 C   0  0  0  0  0  0  0  0  0  0  0  0
   36.2710   30.3400   30.5290 C   0  0  0  0  0  0  0  0  0  0  0  0
   36.4010   28.9880   30.5390 N   0  0  0  0  0  0  0  0  0  0  0  0
   36.1570   28.2740   31.6630 C   0  0  0  0  0  0  0  0  0  0  0  0
   35.7790   28.8900   32.7960 N   0  0  0  0  0  0  0  0  0  0  0  0
   35.3290   30.7360   33.7520 H   0  0  0  0  0  0  0  0  0  0  0  0
   35.7630   32.0580   31.7410 H   0  0  0  0  0  0  0  0  0  0  0  0
   36.5060   31.1390   29.3930 N   0  0  0  0  0  0  0  0  0  0  0  0
   35.9160   31.9840   29.2060 H   0  0  0  0  0  0  0  0  0  0  0  0
   37.2370   30.9710   28.6850 H   0  0  0  0  0  0  0  0  0  0  0  0
   39.1030   23.9510   33.7810 C   0  0  0  0  0  0  0  0  0  0  0  0
   39.6910   24.7180   34.3210 H   0  0  0  0  0  0  0  0  0  0  0  0
   39.6940   23.0010   33.8660 H   0  0  0  0  0  0  0  0  0  0  0  0
   37.9150   23.8050   34.4460 O   0  0  0  0  0  0  0  0  0  0  0  0
   39.2850   21.7980   35.4390 O   0  0  0  0  0  0  0  0  0  0  0  0
   37.9600   22.4950   35.4780 P   0  0  2  0  0  0  0  0  0  0  0  0
   36.7150   21.4160   34.9630 O   0  0  0  0  0  0  0  0  0  0  0  0
   36.5600   21.0880   33.6360 C   0  0  0  0  0  0  0  0  0  0  0  0
   35.4000   20.9450   32.8980 C   0  0  0  0  0  0  0  0  0  0  0  0
   34.4020   21.0680   33.2460 H   0  0  0  0  0  0  0  0  0  0  0  0
   35.7990   20.6100   31.6170 C   0  0  0  0  0  0  0  0  0  0  0  0
   35.1420   20.4220   30.7760 H   0  0  0  0  0  0  0  0  0  0  0  0
   37.1680   20.5660   31.6390 C   0  0  0  0  0  0  0  0  0  0  0  0
   37.8370   20.3330   30.8080 H   0  0  0  0  0  0  0  0  0  0  0  0
   37.5780   20.8550   32.8510 O   0  0  0  0  0  0  0  0  0  0  0  0
   37.5950   22.8910   37.0510 O   0  0  0  0  0  0  0  0  0  0  0  0
   38.4230   23.9020   37.5070 C   0  0  0  0  0  0  0  0  0  0  0  0
   39.7160   23.8120   36.9900 F   0  0  0  0  0  0  0  0  0  0  0  0
   37.9600   25.1430   37.1270 F   0  0  0  0  0  0  0  0  0  0  0  0
   38.5130   23.8440   38.8940 F   0  0  0  0  0  0  0  0  0  0  0  0
  1 25  1  0  0  0  0
  2  1  1  0  0  0  0
  3  1  1  0  0  0  0
  5  4  1  0  0  0  0
  6 18  1  0  0  0  0
  6  5  2  0  0  0  0
  7  6  1  0  0  0  0
  8  7  2  0  0  0  0
  8  9  1  0  0  0  0
  9 10  2  0  0  0  0
 10  5  1  0  0  0  0
 10  1  1  0  0  0  0
 11  7  1  0  0  0  0
 12  8  1  0  0  0  0
 13  9  1  0  0  0  0
 14 20  1  0  0  0  0
 15 21  1  0  0  0  0
 15 14  2  0  0  0  0
 16 17  2  0  0  0  0
 16 15  1  0  0  0  0
 17 18  1  0  0  0  0
 18 19  2  0  0  0  0
 19 14  1  0  0  0  0
 22 16  1  0  0  0  0
 23 22  1  0  0  0  0
 24 22  1  0  0  0  0
 25 27  1  0  0  0  0
 25 26  1  0  0  0  0
 25 28  1  0  0  0  0
 28 30  1  0  0  0  0
 30 29  2  6  0  0  0
 30 40  1  0  0  0  0
 31 30  1  0  0  0  0
 32 31  1  0  0  0  0
 33 34  1  0  0  0  0
 33 32  2  0  0  0  0
 35 37  2  0  0  0  0
 35 33  1  0  0  0  0
 36 35  1  0  0  0  0
 37 39  1  0  0  0  0
 38 37  1  0  0  0  0
 39 32  1  0  0  0  0
 40 41  1  0  0  0  0
 41 44  1  0  0  0  0
 42 41  1  0  0  0  0
 43 41  1  0  0  0  0
M  END
>  <minimizedAffinity>
-5.6385808

$$$$

 OpenBabel03272504433D

 44 46  0  0  0  0  0  0  0  0999 V2000
   38.9790   23.4870   31.8010 C   0  0  0  0  0  0  0  0  0  0  0  0
   39.7580   24.3040   31.8780 H   0  0  0  0  0  0  0  0  0  0  0  0
   39.2780   22.9310   30.8900 H   0  0  0  0  0  0  0  0  0  0  0  0
   39.0390   26.4630   31.7370 Cl  0  0  0  0  0  0  0  0  0  0  0  0
   37.5730   25.4970   31.4960 C   0  0  0  0  0  0  0  0  0  0  0  0
   36.4030   26.1290   31.2670 C   0  0  0  0  0  0  0  0  0  0  0  0
   35.2570   25.3930   31.0770 C   0  0  0  0  0  0  0  0  0  0  0  0
   35.3440   24.0100   31.1290 C   0  0  0  0  0  0  0  0  0  0  0  0
   36.5900   23.4210   31.3710 C   0  0  0  0  0  0  0  0  0  0  0  0
   37.7200   24.1320   31.5580 C   0  0  0  0  0  0  0  0  0  0  0  0
   34.3210   25.9310   30.8920 H   0  0  0  0  0  0  0  0  0  0  0  0
   34.3900   23.5260   30.9670 H   0  0  0  0  0  0  0  0  0  0  0  0
   36.4190   22.3740   31.3730 H   0  0  0  0  0  0  0  0  0  0  0  0
   35.7760   29.6370   32.2240 C   0  0  0  0  0  0  0  0  0  0  0  0
   36.2130   30.3150   31.0340 C   0  0  0  0  0  0  0  0  0  0  0  0
   36.6960   29.5410   29.9760 C   0  0  0  0  0  0  0  0  0  0  0  0
   36.7390   28.1890   30.0990 N   0  0  0  0  0  0  0  0  0  0  0  0
   36.3210   27.5800   31.2320 C   0  0  0  0  0  0  0  0  0  0  0  0
   35.8520   28.3030   32.2640 N   0  0  0  0  0  0  0  0  0  0  0  0
   35.4090   30.2400   33.0240 H   0  0  0  0  0  0  0  0  0  0  0  0
   36.1580   31.3740   30.9910 H   0  0  0  0  0  0  0  0  0  0  0  0
   37.1130   30.2340   28.8220 N   0  0  0  0  0  0  0  0  0  0  0  0
   36.6040   31.0920   28.5050 H   0  0  0  0  0  0  0  0  0  0  0  0
   37.9100   29.9720   28.2230 H   0  0  0  0  0  0  0  0  0  0  0  0
   39.1290   22.5890   32.9540 C   0  0  0  0  0  0  0  0  0  0  0  0
   39.9520   21.8570   32.8420 H   0  0  0  0  0  0  0  0  0  0  0  0
   38.1930   21.9790   33.0620 H   0  0  0  0  0  0  0  0  0  0  0  0
   39.3540   23.2820   34.1130 O   0  0  0  0  0  0  0  0  0  0  0  0
   37.2650   21.8780   34.8580 O   0  0  0  0  0  0  0  0  0  0  0  0
   38.4230   22.6840   35.3620 P   0  0  2  0  0  0  0  0  0  0  0  0
   37.8460   24.0480   36.2470 O   0  0  0  0  0  0  0  0  0  0  0  0
   38.0450   25.3300   35.7900 C   0  0  0  0  0  0  0  0  0  0  0  0
   37.1960   26.1440   35.0640 C   0  0  0  0  0  0  0  0  0  0  0  0
   36.2160   25.9050   34.7260 H   0  0  0  0  0  0  0  0  0  0  0  0
   37.8770   27.3300   34.8650 C   0  0  0  0  0  0  0  0  0  0  0  0
   37.5040   28.1960   34.3290 H   0  0  0  0  0  0  0  0  0  0  0  0
   39.0950   27.1820   35.4740 C   0  0  0  0  0  0  0  0  0  0  0  0
   39.9040   27.9130   35.5260 H   0  0  0  0  0  0  0  0  0  0  0  0
   39.1540   25.9850   36.0090 O   0  0  0  0  0  0  0  0  0  0  0  0
   39.2940   21.7740   36.4460 O   0  0  0  0  0  0  0  0  0  0  0  0
   40.1640   22.5720   37.1690 C   0  0  0  0  0  0  0  0  0  0  0  0
   40.8340   23.4990   36.3690 F   0  0  0  0  0  0  0  0  0  0  0  0
   39.4950   23.3180   38.1150 F   0  0  0  0  0  0  0  0  0  0  0  0
   41.1200   21.7780   37.7940 F   0  0  0  0  0  0  0  0  0  0  0  0
  1  2  1  0  0  0  0
  1 25  1  0  0  0  0
  3  1  1  0  0  0  0
  5 10  1  0  0  0  0
  5  4  1  0  0  0  0
  6  5  2  0  0  0  0
  7  8  2  0  0  0  0
  7  6  1  0  0  0  0
  8  9  1  0  0  0  0
  9 13  1  0  0  0  0
  9 10  2  0  0  0  0
 10  1  1  0  0  0  0
 11  7  1  0  0  0  0
 12  8  1  0  0  0  0
 14 19  1  0  0  0  0
 14 20  1  0  0  0  0
 15 14  2  0  0  0  0
 16 17  2  0  0  0  0
 16 15  1  0  0  0  0
 17 18  1  0  0  0  0
 18  6  1  0  0  0  0
 18 19  2  0  0  0  0
 21 15  1  0  0  0  0
 22 16  1  0  0  0  0
 23 22  1  0  0  0  0
 24 22  1  0  0  0  0
 25 27  1  0  0  0  0
 25 28  1  0  0  0  0
 26 25  1  0  0  0  0
 28 30  1  0  0  0  0
 30 29  2  6  0  0  0
 30 31  1  0  0  0  0
 30 40  1  0  0  0  0
 32 39  1  0  0  0  0
 32 31  1  0  0  0  0
 33 32  2  0  0  0  0
 34 33  1  0  0  0  0
 35 33  1  0  0  0  0
 35 37  2  0  0  0  0
 36 35  1  0  0  0  0
 37 38  1  0  0  0  0
 37 39  1  0  0  0  0
 40 41  1  0  0  0  0
 41 44  1  0  0  0  0
 41 43  1  0  0  0  0
 42 41  1  0  0  0  0
M  END
>  <minimizedAffinity>
-5.63186026

$$$$

 OpenBabel03272504433D

 44 46  0  0  0  0  0  0  0  0999 V2000
   39.8460   26.2550   34.4850 C   0  0  0  0  0  0  0  0  0  0  0  0
   40.4120   27.0860   35.0040 H   0  0  0  0  0  0  0  0  0  0  0  0
   40.6450   25.6710   33.9860 H   0  0  0  0  0  0  0  0  0  0  0  0
   41.1080   26.5860   31.8090 Cl  0  0  0  0  0  0  0  0  0  0  0  0
   39.4560   27.0980   32.1940 C   0  0  0  0  0  0  0  0  0  0  0  0
   38.7080   27.6730   31.2300 C   0  0  0  0  0  0  0  0  0  0  0  0
   37.4230   28.0740   31.5130 C   0  0  0  0  0  0  0  0  0  0  0  0
   36.9360   27.8720   32.7950 C   0  0  0  0  0  0  0  0  0  0  0  0
   37.7660   27.2700   33.7460 C   0  0  0  0  0  0  0  0  0  0  0  0
   39.0270   26.8720   33.4790 C   0  0  0  0  0  0  0  0  0  0  0  0
   36.8370   28.5380   30.7130 H   0  0  0  0  0  0  0  0  0  0  0  0
   35.9180   28.2210   32.9140 H   0  0  0  0  0  0  0  0  0  0  0  0
   37.1970   27.2230   34.6390 H   0  0  0  0  0  0  0  0  0  0  0  0
   40.1620   29.2950   28.2520 C   0  0  0  0  0  0  0  0  0  0  0  0
   40.2020   28.1830   27.3420 C   0  0  0  0  0  0  0  0  0  0  0  0
   39.7340   26.9460   27.7930 C   0  0  0  0  0  0  0  0  0  0  0  0
   39.2600   26.8300   29.0610 N   0  0  0  0  0  0  0  0  0  0  0  0
   39.2350   27.8960   29.8940 C   0  0  0  0  0  0  0  0  0  0  0  0
   39.6800   29.0960   29.4830 N   0  0  0  0  0  0  0  0  0  0  0  0
   40.5220   30.2320   27.8940 H   0  0  0  0  0  0  0  0  0  0  0  0
   40.5820   28.3280   26.3610 H   0  0  0  0  0  0  0  0  0  0  0  0
   39.7820   25.8770   26.8770 N   0  0  0  0  0  0  0  0  0  0  0  0
   39.5970   26.0400   25.8590 H   0  0  0  0  0  0  0  0  0  0  0  0
   39.9920   24.8950   27.1140 H   0  0  0  0  0  0  0  0  0  0  0  0
   39.2280   25.4020   35.5080 C   0  0  0  0  0  0  0  0  0  0  0  0
   38.4180   25.9020   36.0730 H   0  0  0  0  0  0  0  0  0  0  0  0
   40.0050   25.1290   36.2700 H   0  0  0  0  0  0  0  0  0  0  0  0
   38.7020   24.2590   34.9680 O   0  0  0  0  0  0  0  0  0  0  0  0
   39.9410   22.0280   35.5860 O   0  0  0  0  0  0  0  0  0  0  0  0
   38.8590   22.9710   36.0170 P   0  0  2  0  0  0  0  0  0  0  0  0
   37.3400   22.1530   36.0280 O   0  0  0  0  0  0  0  0  0  0  0  0
   36.8670   21.5120   34.9060 C   0  0  0  0  0  0  0  0  0  0  0  0
   35.7290   20.7420   34.7490 C   0  0  0  0  0  0  0  0  0  0  0  0
   35.0080   20.5090   35.4960 H   0  0  0  0  0  0  0  0  0  0  0  0
   35.7200   20.3350   33.4280 C   0  0  0  0  0  0  0  0  0  0  0  0
   34.9650   19.7140   32.9600 H   0  0  0  0  0  0  0  0  0  0  0  0
   36.8400   20.8720   32.8510 C   0  0  0  0  0  0  0  0  0  0  0  0
   37.1680   20.7660   31.8160 H   0  0  0  0  0  0  0  0  0  0  0  0
   37.4910   21.5610   33.7590 O   0  0  0  0  0  0  0  0  0  0  0  0
   39.1340   23.4390   37.5880 O   0  0  0  0  0  0  0  0  0  0  0  0
   37.9470   23.7820   38.2120 C   0  0  0  0  0  0  0  0  0  0  0  0
   38.0950   24.8460   39.1030 F   0  0  0  0  0  0  0  0  0  0  0  0
   36.9990   24.1940   37.3000 F   0  0  0  0  0  0  0  0  0  0  0  0
   37.4610   22.6920   38.9270 F   0  0  0  0  0  0  0  0  0  0  0  0
  1  2  1  0  0  0  0
  1 25  1  0  0  0  0
  3  1  1  0  0  0  0
  4  5  1  0  0  0  0
  5 10  1  0  0  0  0
  6  7  1  0  0  0  0
  6  5  2  0  0  0  0
  7  8  2  0  0  0  0
  8 12  1  0  0  0  0
  8  9  1  0  0  0  0
  9 13  1  0  0  0  0
 10  9  2  0  0  0  0
 10  1  1  0  0  0  0
 11  7  1  0  0  0  0
 14 19  1  0  0  0  0
 15 16  1  0  0  0  0
 15 14  2  0  0  0  0
 16 17  2  0  0  0  0
 17 18  1  0  0  0  0
 18  6  1  0  0  0  0
 19 18  2  0  0  0  0
 20 14  1  0  0  0  0
 21 15  1  0  0  0  0
 22 24  1  0  0  0  0
 22 16  1  0  0  0  0
 23 22  1  0  0  0  0
 25 26  1  0  0  0  0
 25 27  1  0  0  0  0
 28 25  1  0  0  0  0
 28 30  1  0  0  0  0
 30 29  2  6  0  0  0
 30 31  1  0  0  0  0
 30 40  1  0  0  0  0
 32 31  1  0  0  0  0
 33 32  2  0  0  0  0
 33 34  1  0  0  0  0
 35 33  1  0  0  0  0
 36 35  1  0  0  0  0
 37 35  2  0  0  0  0
 37 39  1  0  0  0  0
 38 37  1  0  0  0  0
 39 32  1  0  0  0  0
 40 41  1  0  0  0  0
 41 44  1  0  0  0  0
 41 42  1  0  0  0  0
 43 41  1  0  0  0  0
M  END
>  <minimizedAffinity>
-5.58222866

$$$$
