
 OpenBabel03272507523D

 31 33  0  0  0  0  0  0  0  0999 V2000
   36.6380   31.3020   48.6920 N   0  0  0  0  0  0  0  0  0  0  0  0
   36.8400   32.1710   49.6750 C   0  0  0  0  0  0  0  0  0  0  0  0
   37.8970   33.0810   49.5970 C   0  0  0  0  0  0  0  0  0  0  0  0
   38.6500   32.9750   48.4600 C   0  0  0  0  0  0  0  0  0  0  0  0
   39.6060   33.8060   48.4000 O   0  0  0  0  0  0  0  0  0  0  0  0
   38.4850   32.1190   47.4460 N   0  0  0  0  0  0  0  0  0  0  0  0
   37.4420   31.2640   47.5850 C   0  0  0  0  0  0  0  0  0  0  0  0
   37.2610   30.4450   46.6460 O   0  0  0  0  0  0  0  0  0  0  0  0
   36.1650   32.1520   50.5290 H   0  0  0  0  0  0  0  0  0  0  0  0
   38.0760   33.7880   50.3780 H   0  0  0  0  0  0  0  0  0  0  0  0
   35.3940   29.6080   49.8900 C   0  0  0  0  0  0  0  0  0  0  0  0
   35.5710   30.3440   48.7120 C   0  0  0  0  0  0  0  0  0  0  0  0
   34.7110   30.1090   47.6370 C   0  0  0  0  0  0  0  0  0  0  0  0
   33.7380   29.1660   47.7930 N   0  0  0  0  0  0  0  0  0  0  0  0
   33.5760   28.4730   48.9090 C   0  0  0  0  0  0  0  0  0  0  0  0
   34.3960   28.6840   49.9620 N   0  0  0  0  0  0  0  0  0  0  0  0
   34.9310   30.7200   46.7940 H   0  0  0  0  0  0  0  0  0  0  0  0
   32.7830   27.7380   48.9670 H   0  0  0  0  0  0  0  0  0  0  0  0
   37.4400   29.1860   51.4500 C   0  0  0  0  0  0  0  0  0  0  0  0
   38.1180   28.4750   50.6810 O   0  0  0  0  0  0  0  0  0  0  0  0
   36.1930   29.7740   51.0510 N   0  0  0  0  0  0  0  0  0  0  0  0
   37.8860   29.2940   52.3990 H   0  0  0  0  0  0  0  0  0  0  0  0
   35.8700   30.4450   51.8020 H   0  0  0  0  0  0  0  0  0  0  0  0
   39.3340   32.0980   46.3040 C   0  0  0  0  0  0  0  0  0  0  0  0
   40.4640   31.4140   45.8930 C   0  0  0  0  0  0  0  0  0  0  0  0
   40.8450   30.6840   46.5970 H   0  0  0  0  0  0  0  0  0  0  0  0
   40.7580   31.9100   44.6450 C   0  0  0  0  0  0  0  0  0  0  0  0
   41.6360   31.4880   44.1380 H   0  0  0  0  0  0  0  0  0  0  0  0
   39.8180   32.8610   44.3410 C   0  0  0  0  0  0  0  0  0  0  0  0
   39.8660   33.3760   43.4020 H   0  0  0  0  0  0  0  0  0  0  0  0
   38.9810   32.9510   45.3520 O   0  0  0  0  0  0  0  0  0  0  0  0
  1 12  1  0  0  0  0
  1  2  1  0  0  0  0
  2  9  1  0  0  0  0
  3  2  2  0  0  0  0
  3 10  1  0  0  0  0
  4  3  1  0  0  0  0
  5  4  2  0  0  0  0
  6  7  1  0  0  0  0
  6  4  1  0  0  0  0
  7  1  1  0  0  0  0
  8  7  2  0  0  0  0
 11 16  1  0  0  0  0
 11 21  1  0  0  0  0
 12 11  2  0  0  0  0
 13 14  2  0  0  0  0
 13 12  1  0  0  0  0
 14 15  1  0  0  0  0
 15 18  1  0  0  0  0
 15 16  2  0  0  0  0
 17 13  1  0  0  0  0
 19 22  1  0  0  0  0
 20 19  2  0  0  0  0
 21 19  1  0  0  0  0
 21 23  1  0  0  0  0
 24  6  1  0  0  0  0
 25 24  2  0  0  0  0
 25 26  1  0  0  0  0
 27 25  1  0  0  0  0
 28 27  1  0  0  0  0
 29 27  2  0  0  0  0
 29 31  1  0  0  0  0
 30 29  1  0  0  0  0
 31 24  1  0  0  0  0
M  END
>  <minimizedAffinity>
-6.17619658

>  <minimizedRMSD>
1.14373124

$$$$
