
 OpenBabel03262522093D

 19 20  0  0  0  0  0  0  0  0999 V2000
   38.1830   24.3010   36.6400 C   0  0  0  0  0  0  0  0  0  0  0  0
   37.3460   23.8860   37.4420 O   0  0  0  0  0  0  0  0  0  0  0  0
   39.8660   22.7400   37.6320 C   0  0  0  0  0  0  0  0  0  0  0  0
   39.3970   23.4760   36.5010 C   0  0  0  0  0  0  0  0  0  0  0  0
   40.1160   23.3780   35.3040 C   0  0  0  0  0  0  0  0  0  0  0  0
   41.2230   22.5960   35.2610 N   0  0  0  0  0  0  0  0  0  0  0  0
   41.6350   21.9130   36.3600 C   0  0  0  0  0  0  0  0  0  0  0  0
   40.9830   21.9740   37.5220 N   0  0  0  0  0  0  0  0  0  0  0  0
   39.3210   22.8120   38.5440 H   0  0  0  0  0  0  0  0  0  0  0  0
   39.7600   23.9370   34.4460 H   0  0  0  0  0  0  0  0  0  0  0  0
   42.5170   21.2800   36.3550 H   0  0  0  0  0  0  0  0  0  0  0  0
   37.9840   25.5280   35.8780 C   0  0  0  0  0  0  0  0  0  0  0  0
   38.4030   26.7480   36.3660 C   0  0  0  0  0  0  0  0  0  0  0  0
   38.8970   26.9610   37.3040 H   0  0  0  0  0  0  0  0  0  0  0  0
   38.0430   27.6540   35.3700 C   0  0  0  0  0  0  0  0  0  0  0  0
   38.2300   28.7320   35.4330 H   0  0  0  0  0  0  0  0  0  0  0  0
   37.4340   26.9390   34.3500 C   0  0  0  0  0  0  0  0  0  0  0  0
   37.0540   27.3980   33.4450 H   0  0  0  0  0  0  0  0  0  0  0  0
   37.4320   25.6860   34.7140 O   0  0  0  0  0  0  0  0  0  0  0  0
  1  2  2  0  0  0  0
  3  9  1  0  0  0  0
  4  1  1  0  0  0  0
  4  3  2  0  0  0  0
  5  4  1  0  0  0  0
  6  5  2  0  0  0  0
  6  7  1  0  0  0  0
  7  8  2  0  0  0  0
  8  3  1  0  0  0  0
 10  5  1  0  0  0  0
 11  7  1  0  0  0  0
 12 13  2  0  0  0  0
 12  1  1  0  0  0  0
 13 14  1  0  0  0  0
 15 16  1  0  0  0  0
 15 13  1  0  0  0  0
 17 19  1  0  0  0  0
 17 15  2  0  0  0  0
 18 17  1  0  0  0  0
 19 12  1  0  0  0  0
M  END
>  <minimizedAffinity>
-3.89328337

$$$$

 OpenBabel03262522093D

 19 20  0  0  0  0  0  0  0  0999 V2000
   38.2050   24.2720   34.8120 C   0  0  0  0  0  0  0  0  0  0  0  0
   38.5720   23.5340   33.8970 O   0  0  0  0  0  0  0  0  0  0  0  0
   37.1760   25.7330   33.0630 C   0  0  0  0  0  0  0  0  0  0  0  0
   37.6590   25.5780   34.3980 C   0  0  0  0  0  0  0  0  0  0  0  0
   37.5910   26.6800   35.2590 C   0  0  0  0  0  0  0  0  0  0  0  0
   37.0730   27.8460   34.7980 N   0  0  0  0  0  0  0  0  0  0  0  0
   36.6250   27.9510   33.5210 C   0  0  0  0  0  0  0  0  0  0  0  0
   36.6690   26.9290   32.6650 N   0  0  0  0  0  0  0  0  0  0  0  0
   37.2250   24.8970   32.4060 H   0  0  0  0  0  0  0  0  0  0  0  0
   37.9590   26.5610   36.2710 H   0  0  0  0  0  0  0  0  0  0  0  0
   36.2070   28.8710   33.1250 H   0  0  0  0  0  0  0  0  0  0  0  0
   38.3040   23.8770   36.2120 C   0  0  0  0  0  0  0  0  0  0  0  0
   39.4890   23.4130   36.7420 C   0  0  0  0  0  0  0  0  0  0  0  0
   40.4400   23.2810   36.2450 H   0  0  0  0  0  0  0  0  0  0  0  0
   39.1840   23.1480   38.0760 C   0  0  0  0  0  0  0  0  0  0  0  0
   39.9090   22.7590   38.7990 H   0  0  0  0  0  0  0  0  0  0  0  0
   37.8480   23.4640   38.2740 C   0  0  0  0  0  0  0  0  0  0  0  0
   37.3450   23.3540   39.2270 H   0  0  0  0  0  0  0  0  0  0  0  0
   37.3860   23.8900   37.1310 O   0  0  0  0  0  0  0  0  0  0  0  0
  1 12  1  0  0  0  0
  2  1  2  0  0  0  0
  3  4  1  0  0  0  0
  4  1  1  0  0  0  0
  4  5  2  0  0  0  0
  5 10  1  0  0  0  0
  6  5  1  0  0  0  0
  7  6  2  0  0  0  0
  8  3  2  0  0  0  0
  8  7  1  0  0  0  0
  9  3  1  0  0  0  0
 11  7  1  0  0  0  0
 12 13  2  0  0  0  0
 12 19  1  0  0  0  0
 13 15  1  0  0  0  0
 14 13  1  0  0  0  0
 15 17  2  0  0  0  0
 15 16  1  0  0  0  0
 17 18  1  0  0  0  0
 19 17  1  0  0  0  0
M  END
>  <minimizedAffinity>
-3.72287846

$$$$

 OpenBabel03262522093D

 19 20  0  0  0  0  0  0  0  0999 V2000
   38.6120   22.8980   35.4050 C   0  0  0  0  0  0  0  0  0  0  0  0
   39.6050   23.0900   34.7030 O   0  0  0  0  0  0  0  0  0  0  0  0
   37.3260   22.2830   33.3500 C   0  0  0  0  0  0  0  0  0  0  0  0
   37.5080   22.1610   34.7620 C   0  0  0  0  0  0  0  0  0  0  0  0
   36.6260   21.3400   35.4740 C   0  0  0  0  0  0  0  0  0  0  0  0
   35.6380   20.6970   34.8040 N   0  0  0  0  0  0  0  0  0  0  0  0
   35.4990   20.8410   33.4620 C   0  0  0  0  0  0  0  0  0  0  0  0
   36.3150   21.6110   32.7410 N   0  0  0  0  0  0  0  0  0  0  0  0
   37.9960   22.9070   32.8050 H   0  0  0  0  0  0  0  0  0  0  0  0
   36.7650   21.2480   36.5450 H   0  0  0  0  0  0  0  0  0  0  0  0
   34.7180   20.3390   32.9000 H   0  0  0  0  0  0  0  0  0  0  0  0
   38.5340   23.3690   36.7830 C   0  0  0  0  0  0  0  0  0  0  0  0
   39.4070   22.9090   37.7460 C   0  0  0  0  0  0  0  0  0  0  0  0
   40.2080   22.1910   37.6370 H   0  0  0  0  0  0  0  0  0  0  0  0
   39.0190   23.5810   38.9040 C   0  0  0  0  0  0  0  0  0  0  0  0
   39.5090   23.4490   39.8750 H   0  0  0  0  0  0  0  0  0  0  0  0
   37.9490   24.4000   38.5780 C   0  0  0  0  0  0  0  0  0  0  0  0
   37.4490   25.0400   39.2960 H   0  0  0  0  0  0  0  0  0  0  0  0
   37.7130   24.2270   37.3070 O   0  0  0  0  0  0  0  0  0  0  0  0
  1 12  1  0  0  0  0
  2  1  2  0  0  0  0
  3  4  1  0  0  0  0
  4  1  1  0  0  0  0
  4  5  2  0  0  0  0
  5 10  1  0  0  0  0
  6  5  1  0  0  0  0
  7  6  2  0  0  0  0
  8  3  2  0  0  0  0
  8  7  1  0  0  0  0
  9  3  1  0  0  0  0
 11  7  1  0  0  0  0
 12 19  1  0  0  0  0
 12 13  2  0  0  0  0
 13 15  1  0  0  0  0
 14 13  1  0  0  0  0
 15 16  1  0  0  0  0
 17 15  2  0  0  0  0
 17 18  1  0  0  0  0
 19 17  1  0  0  0  0
M  END
>  <minimizedAffinity>
-3.6850915

$$$$

 OpenBabel03262522093D

 19 20  0  0  0  0  0  0  0  0999 V2000
   38.2950   24.3150   34.7570 C   0  0  0  0  0  0  0  0  0  0  0  0
   37.8620   23.5800   33.8690 O   0  0  0  0  0  0  0  0  0  0  0  0
   40.5800   23.4650   35.3120 C   0  0  0  0  0  0  0  0  0  0  0  0
   39.2260   23.6850   35.7110 C   0  0  0  0  0  0  0  0  0  0  0  0
   38.8430   23.2900   36.9980 C   0  0  0  0  0  0  0  0  0  0  0  0
   39.7640   22.7180   37.8130 N   0  0  0  0  0  0  0  0  0  0  0  0
   41.0410   22.5260   37.3940 C   0  0  0  0  0  0  0  0  0  0  0  0
   41.4520   22.8860   36.1780 N   0  0  0  0  0  0  0  0  0  0  0  0
   40.8740   23.7650   34.3330 H   0  0  0  0  0  0  0  0  0  0  0  0
   37.8160   23.4570   37.3000 H   0  0  0  0  0  0  0  0  0  0  0  0
   41.7980   22.0710   38.0240 H   0  0  0  0  0  0  0  0  0  0  0  0
   37.9090   25.7180   34.8570 C   0  0  0  0  0  0  0  0  0  0  0  0
   38.5480   26.5750   35.7290 C   0  0  0  0  0  0  0  0  0  0  0  0
   39.3580   26.3560   36.4100 H   0  0  0  0  0  0  0  0  0  0  0  0
   37.9090   27.7980   35.5330 C   0  0  0  0  0  0  0  0  0  0  0  0
   38.1710   28.7130   36.0740 H   0  0  0  0  0  0  0  0  0  0  0  0
   36.9320   27.6130   34.5660 C   0  0  0  0  0  0  0  0  0  0  0  0
   36.2810   28.4060   34.2180 H   0  0  0  0  0  0  0  0  0  0  0  0
   36.9860   26.3600   34.2070 O   0  0  0  0  0  0  0  0  0  0  0  0
  1 12  1  0  0  0  0
  1  4  1  0  0  0  0
  2  1  2  0  0  0  0
  3  4  2  0  0  0  0
  3  8  1  0  0  0  0
  4  5  1  0  0  0  0
  5 10  1  0  0  0  0
  5  6  2  0  0  0  0
  7  6  1  0  0  0  0
  7 11  1  0  0  0  0
  8  7  2  0  0  0  0
  9  3  1  0  0  0  0
 12 13  2  0  0  0  0
 13 14  1  0  0  0  0
 15 13  1  0  0  0  0
 15 16  1  0  0  0  0
 17 15  2  0  0  0  0
 18 17  1  0  0  0  0
 19 17  1  0  0  0  0
 19 12  1  0  0  0  0
M  END
>  <minimizedAffinity>
-3.66934323

$$$$

 OpenBabel03262522093D

 19 20  0  0  0  0  0  0  0  0999 V2000
   38.2250   26.4270   35.5040 C   0  0  0  0  0  0  0  0  0  0  0  0
   38.8800   27.3470   35.9940 O   0  0  0  0  0  0  0  0  0  0  0  0
   37.3670   25.8510   33.2270 C   0  0  0  0  0  0  0  0  0  0  0  0
   37.4250   26.7750   34.3150 C   0  0  0  0  0  0  0  0  0  0  0  0
   36.7130   27.9750   34.2030 C   0  0  0  0  0  0  0  0  0  0  0  0
   36.0000   28.2160   33.0750 N   0  0  0  0  0  0  0  0  0  0  0  0
   35.9720   27.3110   32.0630 C   0  0  0  0  0  0  0  0  0  0  0  0
   36.6340   26.1550   32.1240 N   0  0  0  0  0  0  0  0  0  0  0  0
   37.9070   24.9370   33.3100 H   0  0  0  0  0  0  0  0  0  0  0  0
   36.7570   28.6750   35.0290 H   0  0  0  0  0  0  0  0  0  0  0  0
   35.4120   27.4770   31.1490 H   0  0  0  0  0  0  0  0  0  0  0  0
   38.2420   25.0810   36.0650 C   0  0  0  0  0  0  0  0  0  0  0  0
   39.3010   24.2270   35.8420 C   0  0  0  0  0  0  0  0  0  0  0  0
   40.2000   24.4080   35.2680 H   0  0  0  0  0  0  0  0  0  0  0  0
   38.9510   23.0650   36.5280 C   0  0  0  0  0  0  0  0  0  0  0  0
   39.5790   22.1680   36.5620 H   0  0  0  0  0  0  0  0  0  0  0  0
   37.7150   23.2810   37.1190 C   0  0  0  0  0  0  0  0  0  0  0  0
   37.2040   22.5370   37.7180 H   0  0  0  0  0  0  0  0  0  0  0  0
   37.3520   24.4940   36.8060 O   0  0  0  0  0  0  0  0  0  0  0  0
  1  2  2  0  0  0  0
  1 12  1  0  0  0  0
  3  9  1  0  0  0  0
  3  4  1  0  0  0  0
  4  1  1  0  0  0  0
  5  4  2  0  0  0  0
  5 10  1  0  0  0  0
  6  5  1  0  0  0  0
  7  8  1  0  0  0  0
  7  6  2  0  0  0  0
  8  3  2  0  0  0  0
 11  7  1  0  0  0  0
 12 19  1  0  0  0  0
 13 12  2  0  0  0  0
 13 15  1  0  0  0  0
 14 13  1  0  0  0  0
 15 16  1  0  0  0  0
 15 17  2  0  0  0  0
 17 18  1  0  0  0  0
 19 17  1  0  0  0  0
M  END
>  <minimizedAffinity>
-3.66912889

$$$$

 OpenBabel03262522093D

 19 20  0  0  0  0  0  0  0  0999 V2000
   38.3220   26.2340   35.5850 C   0  0  0  0  0  0  0  0  0  0  0  0
   38.6710   27.3030   36.0850 O   0  0  0  0  0  0  0  0  0  0  0  0
   36.9870   27.5700   33.9460 C   0  0  0  0  0  0  0  0  0  0  0  0
   37.6090   26.3330   34.2970 C   0  0  0  0  0  0  0  0  0  0  0  0
   37.5150   25.2650   33.3970 C   0  0  0  0  0  0  0  0  0  0  0  0
   36.8420   25.4410   32.2330 N   0  0  0  0  0  0  0  0  0  0  0  0
   36.2640   26.6340   31.9380 C   0  0  0  0  0  0  0  0  0  0  0  0
   36.3270   27.6790   32.7630 N   0  0  0  0  0  0  0  0  0  0  0  0
   37.0570   28.3840   34.6280 H   0  0  0  0  0  0  0  0  0  0  0  0
   37.9880   24.3270   33.6650 H   0  0  0  0  0  0  0  0  0  0  0  0
   35.7190   26.8030   31.0150 H   0  0  0  0  0  0  0  0  0  0  0  0
   38.5960   24.9530   36.2270 C   0  0  0  0  0  0  0  0  0  0  0  0
   37.8590   24.5240   37.3090 C   0  0  0  0  0  0  0  0  0  0  0  0
   37.0390   25.0260   37.8040 H   0  0  0  0  0  0  0  0  0  0  0  0
   38.4120   23.2840   37.6270 C   0  0  0  0  0  0  0  0  0  0  0  0
   38.0590   22.6560   38.4520 H   0  0  0  0  0  0  0  0  0  0  0  0
   39.4400   23.0390   36.7290 C   0  0  0  0  0  0  0  0  0  0  0  0
   40.0430   22.1400   36.7470 H   0  0  0  0  0  0  0  0  0  0  0  0
   39.4950   24.0660   35.9270 O   0  0  0  0  0  0  0  0  0  0  0  0
  1  2  2  0  0  0  0
  1 12  1  0  0  0  0
  3  4  1  0  0  0  0
  3  9  1  0  0  0  0
  4  1  1  0  0  0  0
  5 10  1  0  0  0  0
  5  4  2  0  0  0  0
  6  5  1  0  0  0  0
  7  6  2  0  0  0  0
  7  8  1  0  0  0  0
  8  3  2  0  0  0  0
 11  7  1  0  0  0  0
 12 13  2  0  0  0  0
 13 15  1  0  0  0  0
 13 14  1  0  0  0  0
 15 16  1  0  0  0  0
 17 18  1  0  0  0  0
 17 15  2  0  0  0  0
 19 12  1  0  0  0  0
 19 17  1  0  0  0  0
M  END
>  <minimizedAffinity>
-3.66144013

$$$$

 OpenBabel03262522093D

 19 20  0  0  0  0  0  0  0  0999 V2000
   38.6340   21.9560   34.3050 C   0  0  0  0  0  0  0  0  0  0  0  0
   39.7190   21.7160   33.7750 O   0  0  0  0  0  0  0  0  0  0  0  0
   39.9090   22.2580   36.4350 C   0  0  0  0  0  0  0  0  0  0  0  0
   38.6960   22.4300   35.7000 C   0  0  0  0  0  0  0  0  0  0  0  0
   37.6150   23.0460   36.3430 C   0  0  0  0  0  0  0  0  0  0  0  0
   37.7580   23.4530   37.6280 N   0  0  0  0  0  0  0  0  0  0  0  0
   38.9280   23.2700   38.2910 C   0  0  0  0  0  0  0  0  0  0  0  0
   39.9850   22.6900   37.7210 N   0  0  0  0  0  0  0  0  0  0  0  0
   40.7340   21.7910   35.9490 H   0  0  0  0  0  0  0  0  0  0  0  0
   36.6960   23.1750   35.7840 H   0  0  0  0  0  0  0  0  0  0  0  0
   39.0700   23.5860   39.3190 H   0  0  0  0  0  0  0  0  0  0  0  0
   37.3700   21.7810   33.5980 C   0  0  0  0  0  0  0  0  0  0  0  0
   37.0340   22.5820   32.5270 C   0  0  0  0  0  0  0  0  0  0  0  0
   37.6040   23.3890   32.0890 H   0  0  0  0  0  0  0  0  0  0  0  0
   35.7820   22.1130   32.1320 C   0  0  0  0  0  0  0  0  0  0  0  0
   35.2130   22.5330   31.2960 H   0  0  0  0  0  0  0  0  0  0  0  0
   35.4380   21.0690   32.9780 C   0  0  0  0  0  0  0  0  0  0  0  0
   34.5080   20.5180   32.8950 H   0  0  0  0  0  0  0  0  0  0  0  0
   36.4210   20.9240   33.8210 O   0  0  0  0  0  0  0  0  0  0  0  0
  1  4  1  0  0  0  0
  2  1  2  0  0  0  0
  3  8  1  0  0  0  0
  4  5  1  0  0  0  0
  4  3  2  0  0  0  0
  5  6  2  0  0  0  0
  6  7  1  0  0  0  0
  7 11  1  0  0  0  0
  8  7  2  0  0  0  0
  9  3  1  0  0  0  0
 10  5  1  0  0  0  0
 12 19  1  0  0  0  0
 12  1  1  0  0  0  0
 13 12  2  0  0  0  0
 14 13  1  0  0  0  0
 15 13  1  0  0  0  0
 15 17  2  0  0  0  0
 16 15  1  0  0  0  0
 17 19  1  0  0  0  0
 18 17  1  0  0  0  0
M  END
>  <minimizedAffinity>
-3.64752197

$$$$

 OpenBabel03262522093D

 19 20  0  0  0  0  0  0  0  0999 V2000
   38.0910   26.4180   35.3010 C   0  0  0  0  0  0  0  0  0  0  0  0
   38.3250   27.4200   35.9770 O   0  0  0  0  0  0  0  0  0  0  0  0
   39.7590   24.5570   35.3940 C   0  0  0  0  0  0  0  0  0  0  0  0
   38.5480   25.1390   35.8770 C   0  0  0  0  0  0  0  0  0  0  0  0
   37.8450   24.4640   36.8830 C   0  0  0  0  0  0  0  0  0  0  0  0
   38.3350   23.2930   37.3580 N   0  0  0  0  0  0  0  0  0  0  0  0
   39.4910   22.7730   36.8700 C   0  0  0  0  0  0  0  0  0  0  0  0
   40.1950   23.3790   35.9130 N   0  0  0  0  0  0  0  0  0  0  0  0
   40.2970   25.0670   34.6290 H   0  0  0  0  0  0  0  0  0  0  0  0
   36.9260   24.9070   37.2490 H   0  0  0  0  0  0  0  0  0  0  0  0
   39.9060   21.8380   37.2300 H   0  0  0  0  0  0  0  0  0  0  0  0
   37.4070   26.4920   34.0150 C   0  0  0  0  0  0  0  0  0  0  0  0
   36.9420   27.6930   33.5220 C   0  0  0  0  0  0  0  0  0  0  0  0
   37.0060   28.6730   33.9730 H   0  0  0  0  0  0  0  0  0  0  0  0
   36.3630   27.3560   32.2990 C   0  0  0  0  0  0  0  0  0  0  0  0
   35.8890   28.0840   31.6320 H   0  0  0  0  0  0  0  0  0  0  0  0
   36.5110   25.9880   32.1260 C   0  0  0  0  0  0  0  0  0  0  0  0
   36.1490   25.4570   31.2540 H   0  0  0  0  0  0  0  0  0  0  0  0
   37.1370   25.5380   33.1770 O   0  0  0  0  0  0  0  0  0  0  0  0
  1  4  1  0  0  0  0
  1  2  2  0  0  0  0
  3  4  2  0  0  0  0
  3  8  1  0  0  0  0
  4  5  1  0  0  0  0
  5 10  1  0  0  0  0
  5  6  2  0  0  0  0
  7 11  1  0  0  0  0
  7  6  1  0  0  0  0
  8  7  2  0  0  0  0
  9  3  1  0  0  0  0
 12  1  1  0  0  0  0
 13 14  1  0  0  0  0
 13 12  2  0  0  0  0
 15 13  1  0  0  0  0
 16 15  1  0  0  0  0
 17 15  2  0  0  0  0
 17 19  1  0  0  0  0
 18 17  1  0  0  0  0
 19 12  1  0  0  0  0
M  END
>  <minimizedAffinity>
-3.6390233

$$$$

 OpenBabel03262522093D

 19 20  0  0  0  0  0  0  0  0999 V2000
   38.8240   24.5200   34.6030 C   0  0  0  0  0  0  0  0  0  0  0  0
   37.9270   24.0650   33.8940 O   0  0  0  0  0  0  0  0  0  0  0  0
   39.7730   23.2170   36.5150 C   0  0  0  0  0  0  0  0  0  0  0  0
   38.7820   24.1200   36.0220 C   0  0  0  0  0  0  0  0  0  0  0  0
   37.8100   24.5870   36.9150 C   0  0  0  0  0  0  0  0  0  0  0  0
   37.8450   24.1690   38.2050 N   0  0  0  0  0  0  0  0  0  0  0  0
   38.8050   23.3100   38.6320 C   0  0  0  0  0  0  0  0  0  0  0  0
   39.7510   22.8380   37.8190 N   0  0  0  0  0  0  0  0  0  0  0  0
   40.5140   22.8600   35.8380 H   0  0  0  0  0  0  0  0  0  0  0  0
   37.0590   25.2720   36.5400 H   0  0  0  0  0  0  0  0  0  0  0  0
   38.8560   22.9580   39.6580 H   0  0  0  0  0  0  0  0  0  0  0  0
   39.8610   25.3970   34.0720 C   0  0  0  0  0  0  0  0  0  0  0  0
   40.1910   26.5780   34.7040 C   0  0  0  0  0  0  0  0  0  0  0  0
   39.7680   26.9960   35.6070 H   0  0  0  0  0  0  0  0  0  0  0  0
   41.2010   27.1180   33.9090 C   0  0  0  0  0  0  0  0  0  0  0  0
   41.6990   28.0690   34.1240 H   0  0  0  0  0  0  0  0  0  0  0  0
   41.4210   26.2430   32.8560 C   0  0  0  0  0  0  0  0  0  0  0  0
   42.1580   26.4170   32.0810 H   0  0  0  0  0  0  0  0  0  0  0  0
   40.5960   25.2450   33.0120 O   0  0  0  0  0  0  0  0  0  0  0  0
  1  4  1  0  0  0  0
  2  1  2  0  0  0  0
  3  8  1  0  0  0  0
  4  3  2  0  0  0  0
  4  5  1  0  0  0  0
  5  6  2  0  0  0  0
  6  7  1  0  0  0  0
  7 11  1  0  0  0  0
  8  7  2  0  0  0  0
  9  3  1  0  0  0  0
 10  5  1  0  0  0  0
 12  1  1  0  0  0  0
 12 13  2  0  0  0  0
 13 14  1  0  0  0  0
 15 16  1  0  0  0  0
 15 13  1  0  0  0  0
 17 19  1  0  0  0  0
 17 15  2  0  0  0  0
 18 17  1  0  0  0  0
 19 12  1  0  0  0  0
M  END
>  <minimizedAffinity>
-3.59428763

$$$$
