
 OpenBabel03272507553D

 22 23  0  0  0  0  0  0  0  0999 V2000
   34.9330   29.4570   50.1370 C   0  0  0  0  0  0  0  0  0  0  0  0
   36.0920   30.1640   49.7110 C   0  0  0  0  0  0  0  0  0  0  0  0
   36.2110   30.4630   48.3620 C   0  0  0  0  0  0  0  0  0  0  0  0
   35.2140   30.0650   47.5200 N   0  0  0  0  0  0  0  0  0  0  0  0
   34.1280   29.3960   47.9520 C   0  0  0  0  0  0  0  0  0  0  0  0
   33.9850   29.0910   49.2650 N   0  0  0  0  0  0  0  0  0  0  0  0
   33.2320   29.0910   46.8890 N   0  0  0  0  0  0  0  0  0  0  0  0
   34.8410   29.2280   51.1680 H   0  0  0  0  0  0  0  0  0  0  0  0
   32.9190   29.8320   46.2390 H   0  0  0  0  0  0  0  0  0  0  0  0
   32.9750   28.0770   46.8890 H   0  0  0  0  0  0  0  0  0  0  0  0
   37.3740   31.1620   47.8460 C   0  0  0  0  0  0  0  0  0  0  0  0
   38.2860   30.5880   46.9850 C   0  0  0  0  0  0  0  0  0  0  0  0
   38.2400   29.5620   46.5990 H   0  0  0  0  0  0  0  0  0  0  0  0
   39.2950   31.4620   46.6460 C   0  0  0  0  0  0  0  0  0  0  0  0
   40.1570   31.3470   46.0060 H   0  0  0  0  0  0  0  0  0  0  0  0
   38.9400   32.5930   47.3490 C   0  0  0  0  0  0  0  0  0  0  0  0
   39.4350   33.5580   47.4020 H   0  0  0  0  0  0  0  0  0  0  0  0
   37.8560   32.3580   48.0010 O   0  0  0  0  0  0  0  0  0  0  0  0
   37.1200   30.5480   50.7220 C   0  0  0  0  0  0  0  0  0  0  0  0
   38.3770   30.1470   50.3190 F   0  0  0  0  0  0  0  0  0  0  0  0
   37.0920   31.9030   50.8730 F   0  0  0  0  0  0  0  0  0  0  0  0
   36.8770   29.9720   51.9570 F   0  0  0  0  0  0  0  0  0  0  0  0
  1  8  1  0  0  0  0
  2  1  1  0  0  0  0
  2 19  1  0  0  0  0
  3  2  2  0  0  0  0
  4  5  2  0  0  0  0
  4  3  1  0  0  0  0
  5  6  1  0  0  0  0
  6  1  2  0  0  0  0
  7 10  1  0  0  0  0
  7  5  1  0  0  0  0
  9  7  1  0  0  0  0
 11 18  1  0  0  0  0
 11  3  1  0  0  0  0
 12 11  2  0  0  0  0
 13 12  1  0  0  0  0
 14 12  1  0  0  0  0
 14 16  2  0  0  0  0
 15 14  1  0  0  0  0
 16 17  1  0  0  0  0
 16 18  1  0  0  0  0
 19 21  1  0  0  0  0
 19 22  1  0  0  0  0
 20 19  1  0  0  0  0
M  END
>  <minimizedAffinity>
-5.48841763

>  <minimizedRMSD>
1.25839794

$$$$
