
 OpenBabel03262522083D

 19 20  0  0  0  0  0  0  0  0999 V2000
   38.0630   31.1140   48.0180 C   0  0  0  0  0  0  0  0  0  0  0  0
   38.2260   30.4670   46.9830 O   0  0  0  0  0  0  0  0  0  0  0  0
   37.7080   29.8110   50.1220 C   0  0  0  0  0  0  0  0  0  0  0  0
   37.1520   30.5140   49.0100 C   0  0  0  0  0  0  0  0  0  0  0  0
   35.7590   30.6030   48.9130 C   0  0  0  0  0  0  0  0  0  0  0  0
   34.9930   30.0230   49.8700 N   0  0  0  0  0  0  0  0  0  0  0  0
   35.5620   29.3630   50.9110 C   0  0  0  0  0  0  0  0  0  0  0  0
   36.8840   29.2520   51.0460 N   0  0  0  0  0  0  0  0  0  0  0  0
   38.7680   29.7420   50.1980 H   0  0  0  0  0  0  0  0  0  0  0  0
   35.3380   31.1370   48.0690 H   0  0  0  0  0  0  0  0  0  0  0  0
   34.9750   28.8890   51.6910 H   0  0  0  0  0  0  0  0  0  0  0  0
   38.7300   32.3920   48.2450 C   0  0  0  0  0  0  0  0  0  0  0  0
   38.5910   33.0680   49.4390 C   0  0  0  0  0  0  0  0  0  0  0  0
   38.0180   32.7810   50.3090 H   0  0  0  0  0  0  0  0  0  0  0  0
   39.3630   34.2160   49.2700 C   0  0  0  0  0  0  0  0  0  0  0  0
   39.4770   34.9890   50.0380 H   0  0  0  0  0  0  0  0  0  0  0  0
   39.9170   34.1690   48.0000 C   0  0  0  0  0  0  0  0  0  0  0  0
   40.5660   34.9410   47.6050 H   0  0  0  0  0  0  0  0  0  0  0  0
   39.5030   33.0630   47.4460 O   0  0  0  0  0  0  0  0  0  0  0  0
  1 12  1  0  0  0  0
  1  4  1  0  0  0  0
  2  1  2  0  0  0  0
  3  9  1  0  0  0  0
  3  8  1  0  0  0  0
  4  3  2  0  0  0  0
  5  4  1  0  0  0  0
  5  6  2  0  0  0  0
  6  7  1  0  0  0  0
  7  8  2  0  0  0  0
  7 11  1  0  0  0  0
 10  5  1  0  0  0  0
 12 13  2  0  0  0  0
 13 14  1  0  0  0  0
 15 13  1  0  0  0  0
 15 16  1  0  0  0  0
 17 15  2  0  0  0  0
 18 17  1  0  0  0  0
 19 17  1  0  0  0  0
 19 12  1  0  0  0  0
M  END
>  <minimizedAffinity>
-4.59999561

>  <minimizedRMSD>
2.5576489

$$$$
