
 OpenBabel03272507283D

 40 42  0  0  1  0  0  0  0  0999 V2000
   37.1400   30.6160   48.4280 C   0  0  0  0  0  0  0  0  0  0  0  0
   36.0100   30.5180   47.5920 C   0  0  0  0  0  0  0  0  0  0  0  0
   35.0180   29.6160   47.9820 C   0  0  0  0  0  0  0  0  0  0  0  0
   35.1820   28.9040   49.1070 N   0  0  0  0  0  0  0  0  0  0  0  0
   36.2800   29.0270   49.8800 C   0  0  0  0  0  0  0  0  0  0  0  0
   37.2470   29.8760   49.5420 N   0  0  0  0  0  0  0  0  0  0  0  0
   33.8730   29.4500   47.2080 N   0  0  0  0  0  0  0  0  0  0  0  0
   33.2190   30.5010   46.3830 C   0  0  0  0  0  0  0  0  0  0  0  0
   31.9010   29.9900   45.9480 C   0  0  0  0  0  0  0  0  0  0  0  0
   31.6570   28.8640   46.8460 C   0  0  0  0  0  0  0  0  0  0  0  0
   33.0250   28.3200   46.9920 C   0  0  2  0  0  0  0  0  0  0  0  0
   37.8900   31.3220   48.1000 H   0  0  0  0  0  0  0  0  0  0  0  0
   35.8550   31.0790   46.6850 H   0  0  0  0  0  0  0  0  0  0  0  0
   36.4810   28.4900   50.7960 H   0  0  0  0  0  0  0  0  0  0  0  0
   33.8540   31.0100   45.6920 H   0  0  0  0  0  0  0  0  0  0  0  0
   33.0650   31.2990   47.2040 H   0  0  0  0  0  0  0  0  0  0  0  0
   31.5640   30.0160   44.9470 H   0  0  0  0  0  0  0  0  0  0  0  0
   31.1490   30.8000   46.3970 H   0  0  0  0  0  0  0  0  0  0  0  0
   31.2090   29.0830   47.8240 H   0  0  0  0  0  0  0  0  0  0  0  0
   30.9830   28.1070   46.3520 H   0  0  0  0  0  0  0  0  0  0  0  0
   33.0610   27.2830   48.1170 C   0  0  0  0  0  0  0  0  0  0  0  0
   32.9130   27.9480   49.3160 F   0  0  0  0  0  0  0  0  0  0  0  0
   34.2080   26.5550   48.2110 F   0  0  0  0  0  0  0  0  0  0  0  0
   31.9340   26.5010   47.9630 F   0  0  0  0  0  0  0  0  0  0  0  0
   33.4940   27.6400   45.8160 C   0  0  2  0  0  0  0  0  0  0  0  0
   34.3130   26.9780   46.0270 H   0  0  0  0  0  0  0  0  0  0  0  0
   34.2220   28.4960   44.6990 C   0  0  0  0  0  0  0  0  0  0  0  0
   33.5810   28.8070   43.4650 C   0  0  0  0  0  0  0  0  0  0  0  0
   32.5670   28.5110   43.1340 H   0  0  0  0  0  0  0  0  0  0  0  0
   34.3960   29.5650   42.6570 C   0  0  0  0  0  0  0  0  0  0  0  0
   34.1920   29.9510   41.6750 H   0  0  0  0  0  0  0  0  0  0  0  0
   35.5090   29.6800   43.4500 C   0  0  0  0  0  0  0  0  0  0  0  0
   36.4270   30.2010   43.2290 H   0  0  0  0  0  0  0  0  0  0  0  0
   35.3900   29.0740   44.5890 O   0  0  0  0  0  0  0  0  0  0  0  0
   32.4910   27.2340   45.1770 O   0  0  0  0  0  0  0  0  0  0  0  0
   31.9690   26.0940   44.6910 C   0  0  0  0  0  0  0  0  0  0  0  0
   30.7980   25.9310   45.0370 O   0  0  0  0  0  0  0  0  0  0  0  0
   32.1490   24.9180   43.9110 N   0  0  0  0  0  0  0  0  0  0  0  0
   32.0260   25.1020   42.8880 H   0  0  0  0  0  0  0  0  0  0  0  0
   32.3740   23.9780   44.3020 H   0  0  0  0  0  0  0  0  0  0  0  0
  1  6  1  0  0  0  0
  2  3  1  0  0  0  0
  2  1  2  0  0  0  0
  3  4  2  0  0  0  0
  4  5  1  0  0  0  0
  5 14  1  0  0  0  0
  6  5  2  0  0  0  0
  7  3  1  0  0  0  0
  8 16  1  0  0  0  0
  8  7  1  0  0  0  0
  9  8  1  0  0  0  0
  9 18  1  0  0  0  0
  9 10  1  0  0  0  0
 10 11  1  0  0  0  0
 10 19  1  0  0  0  0
 11  7  1  0  0  0  0
 11 21  1  1  0  0  0
 12  1  1  0  0  0  0
 13  2  1  0  0  0  0
 15  8  1  0  0  0  0
 17  9  1  0  0  0  0
 20 10  1  0  0  0  0
 21 23  1  0  0  0  0
 21 22  1  0  0  0  0
 24 21  1  0  0  0  0
 25 26  1  1  0  0  0
 25 11  1  0  0  0  0
 27 25  1  0  0  0  0
 28 27  2  0  0  0  0
 29 28  1  0  0  0  0
 30 32  2  0  0  0  0
 30 28  1  0  0  0  0
 31 30  1  0  0  0  0
 32 34  1  0  0  0  0
 33 32  1  0  0  0  0
 34 27  1  0  0  0  0
 35 25  1  0  0  0  0
 36 37  2  0  0  0  0
 36 35  1  0  0  0  0
 38 40  1  0  0  0  0
 38 36  1  0  0  0  0
 39 38  1  0  0  0  0
M  END
>  <minimizedAffinity>
-3.98394036

>  <minimizedRMSD>
7.35525417

$$$$
