
 OpenBabel03272504413D

 44 46  0  0  0  0  0  0  0  0999 V2000
   34.7960   29.3990   48.8270 C   0  0  0  0  0  0  0  0  0  0  0  0
   34.1340   30.2180   49.2390 H   0  0  0  0  0  0  0  0  0  0  0  0
   35.6930   29.4410   49.4770 H   0  0  0  0  0  0  0  0  0  0  0  0
   37.5680   30.4370   48.5110 Cl  0  0  0  0  0  0  0  0  0  0  0  0
   36.4080   30.2910   47.1800 C   0  0  0  0  0  0  0  0  0  0  0  0
   36.7850   30.6660   45.9400 C   0  0  0  0  0  0  0  0  0  0  0  0
   35.8970   30.5570   44.8960 C   0  0  0  0  0  0  0  0  0  0  0  0
   34.6290   30.0610   45.1560 C   0  0  0  0  0  0  0  0  0  0  0  0
   34.3050   29.6910   46.4660 C   0  0  0  0  0  0  0  0  0  0  0  0
   35.1680   29.7930   47.4970 C   0  0  0  0  0  0  0  0  0  0  0  0
   36.2280   30.8690   43.8990 H   0  0  0  0  0  0  0  0  0  0  0  0
   34.0090   30.0150   44.2710 H   0  0  0  0  0  0  0  0  0  0  0  0
   33.3010   29.3520   46.4310 H   0  0  0  0  0  0  0  0  0  0  0  0
   39.7670   32.8380   45.9840 C   0  0  0  0  0  0  0  0  0  0  0  0
   40.6380   32.1050   45.1060 C   0  0  0  0  0  0  0  0  0  0  0  0
   40.1620   30.9150   44.5490 C   0  0  0  0  0  0  0  0  0  0  0  0
   38.9070   30.4900   44.8500 N   0  0  0  0  0  0  0  0  0  0  0  0
   38.1120   31.2020   45.6810 C   0  0  0  0  0  0  0  0  0  0  0  0
   38.5470   32.3500   46.2280 N   0  0  0  0  0  0  0  0  0  0  0  0
   40.1440   33.7440   46.4010 H   0  0  0  0  0  0  0  0  0  0  0  0
   41.6090   32.4830   44.9040 H   0  0  0  0  0  0  0  0  0  0  0  0
   41.0360   30.2220   43.6890 N   0  0  0  0  0  0  0  0  0  0  0  0
   41.6790   30.7470   43.0500 H   0  0  0  0  0  0  0  0  0  0  0  0
   41.1170   29.1970   43.6180 H   0  0  0  0  0  0  0  0  0  0  0  0
   34.1320   28.1080   49.0480 C   0  0  0  0  0  0  0  0  0  0  0  0
   34.5820   27.5110   49.8640 H   0  0  0  0  0  0  0  0  0  0  0  0
   34.2380   27.4830   48.1220 H   0  0  0  0  0  0  0  0  0  0  0  0
   32.8030   28.2620   49.3410 O   0  0  0  0  0  0  0  0  0  0  0  0
   32.6600   26.5560   47.3500 O   0  0  0  0  0  0  0  0  0  0  0  0
   31.8480   27.4350   48.2510 P   0  0  2  0  0  0  0  0  0  0  0  0
   31.0200   28.6260   47.3160 O   0  0  0  0  0  0  0  0  0  0  0  0
   30.5470   28.3420   46.0550 C   0  0  0  0  0  0  0  0  0  0  0  0
   31.0540   28.7100   44.8240 C   0  0  0  0  0  0  0  0  0  0  0  0
   31.9250   29.2950   44.6410 H   0  0  0  0  0  0  0  0  0  0  0  0
   30.2050   28.1660   43.8790 C   0  0  0  0  0  0  0  0  0  0  0  0
   30.3050   28.2590   42.8040 H   0  0  0  0  0  0  0  0  0  0  0  0
   29.2310   27.4990   44.5750 C   0  0  0  0  0  0  0  0  0  0  0  0
   28.3850   26.9450   44.1660 H   0  0  0  0  0  0  0  0  0  0  0  0
   29.4700   27.6280   45.8580 O   0  0  0  0  0  0  0  0  0  0  0  0
   30.6620   26.5270   48.9810 O   0  0  0  0  0  0  0  0  0  0  0  0
   29.8330   27.3280   49.7470 C   0  0  0  0  0  0  0  0  0  0  0  0
   29.2960   26.6530   50.8440 F   0  0  0  0  0  0  0  0  0  0  0  0
   30.5170   28.4020   50.2740 F   0  0  0  0  0  0  0  0  0  0  0  0
   28.7750   27.7870   48.9690 F   0  0  0  0  0  0  0  0  0  0  0  0
  1 25  1  0  0  0  0
  1  2  1  0  0  0  0
  1  3  1  0  0  0  0
  5 10  1  0  0  0  0
  5  4  1  0  0  0  0
  6  5  2  0  0  0  0
  7  8  2  0  0  0  0
  7  6  1  0  0  0  0
  8  9  1  0  0  0  0
  9 10  2  0  0  0  0
 10  1  1  0  0  0  0
 11  7  1  0  0  0  0
 12  8  1  0  0  0  0
 13  9  1  0  0  0  0
 14 19  1  0  0  0  0
 14 20  1  0  0  0  0
 15 14  2  0  0  0  0
 16 17  2  0  0  0  0
 16 15  1  0  0  0  0
 17 18  1  0  0  0  0
 18  6  1  0  0  0  0
 18 19  2  0  0  0  0
 21 15  1  0  0  0  0
 22 16  1  0  0  0  0
 23 22  1  0  0  0  0
 24 22  1  0  0  0  0
 25 28  1  0  0  0  0
 25 26  1  0  0  0  0
 27 25  1  0  0  0  0
 30 29  2  6  0  0  0
 30 40  1  0  0  0  0
 30 28  1  0  0  0  0
 31 30  1  0  0  0  0
 32 31  1  0  0  0  0
 33 32  2  0  0  0  0
 34 33  1  0  0  0  0
 35 37  2  0  0  0  0
 35 33  1  0  0  0  0
 36 35  1  0  0  0  0
 37 39  1  0  0  0  0
 38 37  1  0  0  0  0
 39 32  1  0  0  0  0
 40 41  1  0  0  0  0
 41 43  1  0  0  0  0
 41 42  1  0  0  0  0
 44 41  1  0  0  0  0
M  END
>  <minimizedAffinity>
-5.62909555

>  <minimizedRMSD>
0.299184114

$$$$
