
 OpenBabel03272505283D

 30 32  0  0  0  0  0  0  0  0999 V2000
   37.8770   22.8720   34.7800 N   0  0  0  0  0  0  0  0  0  0  0  0
   37.3950   21.6700   34.3570 C   0  0  0  0  0  0  0  0  0  0  0  0
   36.9490   21.4800   33.0570 C   0  0  0  0  0  0  0  0  0  0  0  0
   37.0110   22.5730   32.1870 C   0  0  0  0  0  0  0  0  0  0  0  0
   36.6170   22.4450   31.0050 O   0  0  0  0  0  0  0  0  0  0  0  0
   37.4990   23.7840   32.6240 N   0  0  0  0  0  0  0  0  0  0  0  0
   37.8960   23.8430   33.8900 C   0  0  0  0  0  0  0  0  0  0  0  0
   38.3300   24.9560   34.2480 O   0  0  0  0  0  0  0  0  0  0  0  0
   37.3800   20.8670   35.0980 H   0  0  0  0  0  0  0  0  0  0  0  0
   40.0060   22.8250   37.8210 C   0  0  0  0  0  0  0  0  0  0  0  0
   39.5640   22.6410   36.5010 C   0  0  0  0  0  0  0  0  0  0  0  0
   38.3190   23.0460   36.0930 C   0  0  0  0  0  0  0  0  0  0  0  0
   37.5370   23.6320   37.0240 N   0  0  0  0  0  0  0  0  0  0  0  0
   37.9180   23.8310   38.3090 C   0  0  0  0  0  0  0  0  0  0  0  0
   39.1570   23.4260   38.7100 N   0  0  0  0  0  0  0  0  0  0  0  0
   40.9700   22.5290   38.2050 H   0  0  0  0  0  0  0  0  0  0  0  0
   40.3150   22.1570   35.9370 H   0  0  0  0  0  0  0  0  0  0  0  0
   37.2200   24.3100   38.9840 H   0  0  0  0  0  0  0  0  0  0  0  0
   36.4470   20.1830   32.6640 C   0  0  0  0  0  0  0  0  0  0  0  0
   35.2450   19.5680   32.8940 C   0  0  0  0  0  0  0  0  0  0  0  0
   34.4280   19.9790   33.4410 H   0  0  0  0  0  0  0  0  0  0  0  0
   35.2400   18.3080   32.3010 C   0  0  0  0  0  0  0  0  0  0  0  0
   34.4200   17.6190   32.3320 H   0  0  0  0  0  0  0  0  0  0  0  0
   36.5100   18.2460   31.7230 C   0  0  0  0  0  0  0  0  0  0  0  0
   36.8560   17.3830   31.1680 H   0  0  0  0  0  0  0  0  0  0  0  0
   37.1610   19.3430   31.9590 O   0  0  0  0  0  0  0  0  0  0  0  0
   37.5570   24.8970   31.7140 C   0  0  0  0  0  0  0  0  0  0  0  0
   37.5170   24.4790   30.4240 F   0  0  0  0  0  0  0  0  0  0  0  0
   38.7070   25.6590   31.8570 F   0  0  0  0  0  0  0  0  0  0  0  0
   36.4320   25.7110   31.9330 F   0  0  0  0  0  0  0  0  0  0  0  0
  1 12  1  0  0  0  0
  2  1  1  0  0  0  0
  2  9  1  0  0  0  0
  3  2  2  0  0  0  0
  4  6  1  0  0  0  0
  4  3  1  0  0  0  0
  5  4  2  0  0  0  0
  6  7  1  0  0  0  0
  7  8  2  0  0  0  0
  7  1  1  0  0  0  0
 10 16  1  0  0  0  0
 10 15  1  0  0  0  0
 11 10  2  0  0  0  0
 12 11  1  0  0  0  0
 12 13  2  0  0  0  0
 13 14  1  0  0  0  0
 14 15  2  0  0  0  0
 14 18  1  0  0  0  0
 17 11  1  0  0  0  0
 19 20  2  0  0  0  0
 19  3  1  0  0  0  0
 20 21  1  0  0  0  0
 22 23  1  0  0  0  0
 22 20  1  0  0  0  0
 24 26  1  0  0  0  0
 24 22  2  0  0  0  0
 25 24  1  0  0  0  0
 26 19  1  0  0  0  0
 27 29  1  0  0  0  0
 27 30  1  0  0  0  0
 27  6  1  0  0  0  0
 28 27  1  0  0  0  0
M  END
>  <minimizedAffinity>
-5.50808334

$$$$

 OpenBabel03272505283D

 30 32  0  0  0  0  0  0  0  0999 V2000
   38.0310   23.5990   34.2850 N   0  0  0  0  0  0  0  0  0  0  0  0
   37.9990   24.8670   33.7910 C   0  0  0  0  0  0  0  0  0  0  0  0
   37.3420   25.1720   32.6080 C   0  0  0  0  0  0  0  0  0  0  0  0
   36.7090   24.1250   31.9320 C   0  0  0  0  0  0  0  0  0  0  0  0
   36.1060   24.3560   30.8600 O   0  0  0  0  0  0  0  0  0  0  0  0
   36.7480   22.8450   32.4380 N   0  0  0  0  0  0  0  0  0  0  0  0
   37.4070   22.6780   33.5790 C   0  0  0  0  0  0  0  0  0  0  0  0
   37.4210   21.5060   34.0050 O   0  0  0  0  0  0  0  0  0  0  0  0
   38.5170   25.6290   34.3790 H   0  0  0  0  0  0  0  0  0  0  0  0
   38.8140   23.2600   37.8980 C   0  0  0  0  0  0  0  0  0  0  0  0
   38.1400   23.5590   36.7040 C   0  0  0  0  0  0  0  0  0  0  0  0
   38.6990   23.3090   35.4770 C   0  0  0  0  0  0  0  0  0  0  0  0
   39.9310   22.7590   35.4730 N   0  0  0  0  0  0  0  0  0  0  0  0
   40.6210   22.4520   36.5990 C   0  0  0  0  0  0  0  0  0  0  0  0
   40.0610   22.7030   37.8160 N   0  0  0  0  0  0  0  0  0  0  0  0
   38.4310   23.4310   38.8920 H   0  0  0  0  0  0  0  0  0  0  0  0
   37.2010   23.9920   36.9220 H   0  0  0  0  0  0  0  0  0  0  0  0
   41.6050   22.0130   36.4950 H   0  0  0  0  0  0  0  0  0  0  0  0
   37.3410   26.5370   32.1310 C   0  0  0  0  0  0  0  0  0  0  0  0
   36.5710   27.6170   32.4710 C   0  0  0  0  0  0  0  0  0  0  0  0
   35.7900   27.6220   33.1970 H   0  0  0  0  0  0  0  0  0  0  0  0
   36.9580   28.7260   31.7230 C   0  0  0  0  0  0  0  0  0  0  0  0
   36.5150   29.6990   31.7950 H   0  0  0  0  0  0  0  0  0  0  0  0
   37.9920   28.2100   30.9390 C   0  0  0  0  0  0  0  0  0  0  0  0
   38.5350   28.8120   30.2210 H   0  0  0  0  0  0  0  0  0  0  0  0
   38.1720   26.9540   31.2100 O   0  0  0  0  0  0  0  0  0  0  0  0
   36.0890   21.7800   31.7310 C   0  0  0  0  0  0  0  0  0  0  0  0
   35.2680   22.2650   30.7650 F   0  0  0  0  0  0  0  0  0  0  0  0
   35.3160   20.9760   32.5530 F   0  0  0  0  0  0  0  0  0  0  0  0
   37.0680   20.9920   31.1000 F   0  0  0  0  0  0  0  0  0  0  0  0
  1 12  1  0  0  0  0
  2  1  1  0  0  0  0
  2  9  1  0  0  0  0
  3  2  2  0  0  0  0
  4  6  1  0  0  0  0
  4  3  1  0  0  0  0
  5  4  2  0  0  0  0
  6  7  1  0  0  0  0
  7  8  2  0  0  0  0
  7  1  1  0  0  0  0
 10 16  1  0  0  0  0
 11 17  1  0  0  0  0
 11 10  2  0  0  0  0
 12 11  1  0  0  0  0
 13 12  2  0  0  0  0
 13 14  1  0  0  0  0
 14 15  2  0  0  0  0
 15 10  1  0  0  0  0
 18 14  1  0  0  0  0
 19 20  2  0  0  0  0
 19  3  1  0  0  0  0
 20 21  1  0  0  0  0
 22 23  1  0  0  0  0
 22 20  1  0  0  0  0
 24 26  1  0  0  0  0
 24 22  2  0  0  0  0
 25 24  1  0  0  0  0
 26 19  1  0  0  0  0
 27  6  1  0  0  0  0
 27 29  1  0  0  0  0
 28 27  1  0  0  0  0
 30 27  1  0  0  0  0
M  END
>  <minimizedAffinity>
-5.46956873

$$$$

 OpenBabel03272505283D

 30 32  0  0  0  0  0  0  0  0999 V2000
   38.9760   24.4040   34.8680 N   0  0  0  0  0  0  0  0  0  0  0  0
   40.0990   23.6600   34.6700 C   0  0  0  0  0  0  0  0  0  0  0  0
   40.6880   22.9420   35.7010 C   0  0  0  0  0  0  0  0  0  0  0  0
   40.0850   23.0080   36.9610 C   0  0  0  0  0  0  0  0  0  0  0  0
   40.5850   22.3760   37.9190 O   0  0  0  0  0  0  0  0  0  0  0  0
   38.9500   23.7630   37.1510 N   0  0  0  0  0  0  0  0  0  0  0  0
   38.4790   24.4060   36.0880 C   0  0  0  0  0  0  0  0  0  0  0  0
   37.4520   25.0800   36.3000 O   0  0  0  0  0  0  0  0  0  0  0  0
   40.5090   23.6610   33.6570 H   0  0  0  0  0  0  0  0  0  0  0  0
   38.2160   27.1120   32.4450 C   0  0  0  0  0  0  0  0  0  0  0  0
   38.7970   26.3970   33.5040 C   0  0  0  0  0  0  0  0  0  0  0  0
   38.3980   25.1240   33.8190 C   0  0  0  0  0  0  0  0  0  0  0  0
   37.4180   24.5900   33.0600 N   0  0  0  0  0  0  0  0  0  0  0  0
   36.8270   25.2400   32.0290 C   0  0  0  0  0  0  0  0  0  0  0  0
   37.2280   26.5060   31.7190 N   0  0  0  0  0  0  0  0  0  0  0  0
   38.4840   28.1140   32.1460 H   0  0  0  0  0  0  0  0  0  0  0  0
   39.5300   26.9910   33.9770 H   0  0  0  0  0  0  0  0  0  0  0  0
   36.0490   24.7290   31.4770 H   0  0  0  0  0  0  0  0  0  0  0  0
   41.8800   22.1700   35.4340 C   0  0  0  0  0  0  0  0  0  0  0  0
   43.1680   22.3070   35.8790 C   0  0  0  0  0  0  0  0  0  0  0  0
   43.5220   23.0610   36.5440 H   0  0  0  0  0  0  0  0  0  0  0  0
   43.9650   21.3030   35.3330 C   0  0  0  0  0  0  0  0  0  0  0  0
   45.0130   21.1820   35.5200 H   0  0  0  0  0  0  0  0  0  0  0  0
   43.0510   20.5910   34.5520 C   0  0  0  0  0  0  0  0  0  0  0  0
   43.3350   19.7220   33.9710 H   0  0  0  0  0  0  0  0  0  0  0  0
   41.8740   21.1260   34.6440 O   0  0  0  0  0  0  0  0  0  0  0  0
   38.3420   23.8180   38.4540 C   0  0  0  0  0  0  0  0  0  0  0  0
   39.2700   23.6930   39.4350 F   0  0  0  0  0  0  0  0  0  0  0  0
   37.4000   22.8220   38.6570 F   0  0  0  0  0  0  0  0  0  0  0  0
   37.7290   25.0740   38.6060 F   0  0  0  0  0  0  0  0  0  0  0  0
  1  7  1  0  0  0  0
  2  1  1  0  0  0  0
  2  3  2  0  0  0  0
  3  4  1  0  0  0  0
  4  6  1  0  0  0  0
  4  5  2  0  0  0  0
  6 27  1  0  0  0  0
  7  8  2  0  0  0  0
  7  6  1  0  0  0  0
  9  2  1  0  0  0  0
 10 11  1  0  0  0  0
 11 12  2  0  0  0  0
 11 17  1  0  0  0  0
 12  1  1  0  0  0  0
 13 12  1  0  0  0  0
 14 13  2  0  0  0  0
 15 14  1  0  0  0  0
 15 10  2  0  0  0  0
 16 10  1  0  0  0  0
 18 14  1  0  0  0  0
 19  3  1  0  0  0  0
 19 20  2  0  0  0  0
 20 21  1  0  0  0  0
 22 23  1  0  0  0  0
 22 20  1  0  0  0  0
 24 26  1  0  0  0  0
 24 22  2  0  0  0  0
 25 24  1  0  0  0  0
 26 19  1  0  0  0  0
 27 30  1  0  0  0  0
 27 29  1  0  0  0  0
 27 28  1  0  0  0  0
M  END
>  <minimizedAffinity>
-5.40977716

$$$$

 OpenBabel03272505283D

 30 32  0  0  0  0  0  0  0  0999 V2000
   37.4640   23.2600   33.0030 N   0  0  0  0  0  0  0  0  0  0  0  0
   37.8680   22.9980   34.2770 C   0  0  0  0  0  0  0  0  0  0  0  0
   38.2720   24.0090   35.1370 C   0  0  0  0  0  0  0  0  0  0  0  0
   38.2510   25.3190   34.6480 C   0  0  0  0  0  0  0  0  0  0  0  0
   38.6090   26.2620   35.3900 O   0  0  0  0  0  0  0  0  0  0  0  0
   37.8420   25.5740   33.3580 N   0  0  0  0  0  0  0  0  0  0  0  0
   37.4780   24.5240   32.6310 C   0  0  0  0  0  0  0  0  0  0  0  0
   37.1150   24.7950   31.4690 O   0  0  0  0  0  0  0  0  0  0  0  0
   37.8560   21.9490   34.5830 H   0  0  0  0  0  0  0  0  0  0  0  0
   35.3720   20.7410   31.2560 C   0  0  0  0  0  0  0  0  0  0  0  0
   35.7700   21.7730   32.1200 C   0  0  0  0  0  0  0  0  0  0  0  0
   37.0630   22.2290   32.1510 C   0  0  0  0  0  0  0  0  0  0  0  0
   37.9350   21.6370   31.3090 N   0  0  0  0  0  0  0  0  0  0  0  0
   37.5990   20.6380   30.4580 C   0  0  0  0  0  0  0  0  0  0  0  0
   36.3120   20.1880   30.4300 N   0  0  0  0  0  0  0  0  0  0  0  0
   34.3740   20.3370   31.1820 H   0  0  0  0  0  0  0  0  0  0  0  0
   34.9470   22.0910   32.7000 H   0  0  0  0  0  0  0  0  0  0  0  0
   38.3690   20.2250   29.8200 H   0  0  0  0  0  0  0  0  0  0  0  0
   38.6920   23.6720   36.4780 C   0  0  0  0  0  0  0  0  0  0  0  0
   38.0910   23.8680   37.6930 C   0  0  0  0  0  0  0  0  0  0  0  0
   37.1470   24.3360   37.8540 H   0  0  0  0  0  0  0  0  0  0  0  0
   38.9010   23.3610   38.7070 C   0  0  0  0  0  0  0  0  0  0  0  0
   38.6650   23.3870   39.7510 H   0  0  0  0  0  0  0  0  0  0  0  0
   39.9960   22.8670   37.9930 C   0  0  0  0  0  0  0  0  0  0  0  0
   40.8400   22.3920   38.4770 H   0  0  0  0  0  0  0  0  0  0  0  0
   39.8280   23.0690   36.7230 O   0  0  0  0  0  0  0  0  0  0  0  0
   37.8240   26.9280   32.8720 C   0  0  0  0  0  0  0  0  0  0  0  0
   37.2940   27.7730   33.7920 F   0  0  0  0  0  0  0  0  0  0  0  0
   37.0870   27.0810   31.7090 F   0  0  0  0  0  0  0  0  0  0  0  0
   39.1500   27.3340   32.6370 F   0  0  0  0  0  0  0  0  0  0  0  0
  1  2  1  0  0  0  0
  2  9  1  0  0  0  0
  2  3  2  0  0  0  0
  3 19  1  0  0  0  0
  4  3  1  0  0  0  0
  4  5  2  0  0  0  0
  6  4  1  0  0  0  0
  7  1  1  0  0  0  0
  7  6  1  0  0  0  0
  8  7  2  0  0  0  0
 10 11  1  0  0  0  0
 11 12  2  0  0  0  0
 11 17  1  0  0  0  0
 12  1  1  0  0  0  0
 13 12  1  0  0  0  0
 14 13  2  0  0  0  0
 15 14  1  0  0  0  0
 15 10  2  0  0  0  0
 16 10  1  0  0  0  0
 18 14  1  0  0  0  0
 19 26  1  0  0  0  0
 19 20  2  0  0  0  0
 20 21  1  0  0  0  0
 20 22  1  0  0  0  0
 22 23  1  0  0  0  0
 24 25  1  0  0  0  0
 24 22  2  0  0  0  0
 26 24  1  0  0  0  0
 27  6  1  0  0  0  0
 27 28  1  0  0  0  0
 29 27  1  0  0  0  0
 30 27  1  0  0  0  0
M  END
>  <minimizedAffinity>
-5.38568115

$$$$

 OpenBabel03272505283D

 30 32  0  0  0  0  0  0  0  0999 V2000
   38.3540   24.1130   34.8290 N   0  0  0  0  0  0  0  0  0  0  0  0
   37.8130   23.1470   34.0370 C   0  0  0  0  0  0  0  0  0  0  0  0
   37.5840   23.3570   32.6840 C   0  0  0  0  0  0  0  0  0  0  0  0
   37.9280   24.6050   32.1570 C   0  0  0  0  0  0  0  0  0  0  0  0
   37.7370   24.8380   30.9420 O   0  0  0  0  0  0  0  0  0  0  0  0
   38.4740   25.5760   32.9660 N   0  0  0  0  0  0  0  0  0  0  0  0
   38.6460   25.2570   34.2440 C   0  0  0  0  0  0  0  0  0  0  0  0
   39.1410   26.1620   34.9450 O   0  0  0  0  0  0  0  0  0  0  0  0
   37.5720   22.1990   34.5240 H   0  0  0  0  0  0  0  0  0  0  0  0
   37.9420   24.1070   38.5180 C   0  0  0  0  0  0  0  0  0  0  0  0
   37.7170   24.3450   37.1540 C   0  0  0  0  0  0  0  0  0  0  0  0
   38.5760   23.8850   36.1890 C   0  0  0  0  0  0  0  0  0  0  0  0
   39.6510   23.1900   36.6160 N   0  0  0  0  0  0  0  0  0  0  0  0
   39.9110   22.9350   37.9210 C   0  0  0  0  0  0  0  0  0  0  0  0
   39.0540   23.3950   38.8770 N   0  0  0  0  0  0  0  0  0  0  0  0
   37.3070   24.4410   39.3240 H   0  0  0  0  0  0  0  0  0  0  0  0
   36.8350   24.9130   37.0300 H   0  0  0  0  0  0  0  0  0  0  0  0
   40.8000   22.3680   38.1670 H   0  0  0  0  0  0  0  0  0  0  0  0
   37.0060   22.2960   31.8910 C   0  0  0  0  0  0  0  0  0  0  0  0
   35.7040   21.9420   31.6590 C   0  0  0  0  0  0  0  0  0  0  0  0
   34.8440   22.4310   32.0570 H   0  0  0  0  0  0  0  0  0  0  0  0
   35.6590   20.8350   30.8140 C   0  0  0  0  0  0  0  0  0  0  0  0
   34.7620   20.3580   30.4760 H   0  0  0  0  0  0  0  0  0  0  0  0
   37.0140   20.5830   30.5840 C   0  0  0  0  0  0  0  0  0  0  0  0
   37.3560   19.7710   29.9550 H   0  0  0  0  0  0  0  0  0  0  0  0
   37.7430   21.4450   31.2210 O   0  0  0  0  0  0  0  0  0  0  0  0
   38.8250   26.8550   32.4070 C   0  0  0  0  0  0  0  0  0  0  0  0
   37.7660   27.7030   32.4180 F   0  0  0  0  0  0  0  0  0  0  0  0
   39.2650   26.7730   31.0950 F   0  0  0  0  0  0  0  0  0  0  0  0
   39.8350   27.4250   33.2000 F   0  0  0  0  0  0  0  0  0  0  0  0
  1 12  1  0  0  0  0
  2  9  1  0  0  0  0
  2  1  1  0  0  0  0
  3  2  2  0  0  0  0
  4  3  1  0  0  0  0
  4  6  1  0  0  0  0
  5  4  2  0  0  0  0
  6  7  1  0  0  0  0
  7  1  1  0  0  0  0
  7  8  2  0  0  0  0
 10 15  1  0  0  0  0
 10 16  1  0  0  0  0
 11 10  2  0  0  0  0
 12 13  2  0  0  0  0
 12 11  1  0  0  0  0
 13 14  1  0  0  0  0
 14 18  1  0  0  0  0
 14 15  2  0  0  0  0
 17 11  1  0  0  0  0
 19  3  1  0  0  0  0
 20 19  2  0  0  0  0
 20 21  1  0  0  0  0
 22 20  1  0  0  0  0
 23 22  1  0  0  0  0
 24 22  2  0  0  0  0
 24 26  1  0  0  0  0
 25 24  1  0  0  0  0
 26 19  1  0  0  0  0
 27 28  1  0  0  0  0
 27  6  1  0  0  0  0
 27 30  1  0  0  0  0
 29 27  1  0  0  0  0
M  END
>  <minimizedAffinity>
-5.28785181

$$$$

 OpenBabel03272505283D

 30 32  0  0  0  0  0  0  0  0999 V2000
   37.5250   24.9050   32.5890 N   0  0  0  0  0  0  0  0  0  0  0  0
   38.1840   24.6080   33.7430 C   0  0  0  0  0  0  0  0  0  0  0  0
   38.1180   23.3460   34.3150 C   0  0  0  0  0  0  0  0  0  0  0  0
   37.3450   22.3800   33.6640 C   0  0  0  0  0  0  0  0  0  0  0  0
   37.2570   21.2290   34.1470 O   0  0  0  0  0  0  0  0  0  0  0  0
   36.6810   22.6900   32.4980 N   0  0  0  0  0  0  0  0  0  0  0  0
   36.8220   23.9320   32.0460 C   0  0  0  0  0  0  0  0  0  0  0  0
   36.2050   24.1750   30.9900 O   0  0  0  0  0  0  0  0  0  0  0  0
   38.7660   25.4170   34.1900 H   0  0  0  0  0  0  0  0  0  0  0  0
   36.8860   28.4940   31.8880 C   0  0  0  0  0  0  0  0  0  0  0  0
   36.8010   27.2120   32.4520 C   0  0  0  0  0  0  0  0  0  0  0  0
   37.6010   26.1820   32.0270 C   0  0  0  0  0  0  0  0  0  0  0  0
   38.4760   26.4620   31.0390 N   0  0  0  0  0  0  0  0  0  0  0  0
   38.5950   27.6830   30.4640 C   0  0  0  0  0  0  0  0  0  0  0  0
   37.7980   28.7030   30.8900 N   0  0  0  0  0  0  0  0  0  0  0  0
   36.2880   29.3450   32.1760 H   0  0  0  0  0  0  0  0  0  0  0  0
   36.0510   27.1970   33.1960 H   0  0  0  0  0  0  0  0  0  0  0  0
   39.3270   27.8110   29.6760 H   0  0  0  0  0  0  0  0  0  0  0  0
   38.8370   23.0870   35.5420 C   0  0  0  0  0  0  0  0  0  0  0  0
   38.5590   23.4120   36.8430 C   0  0  0  0  0  0  0  0  0  0  0  0
   37.7030   23.9490   37.1830 H   0  0  0  0  0  0  0  0  0  0  0  0
   39.5690   22.9340   37.6740 C   0  0  0  0  0  0  0  0  0  0  0  0
   39.5960   23.0550   38.7390 H   0  0  0  0  0  0  0  0  0  0  0  0
   40.4360   22.3200   36.7670 C   0  0  0  0  0  0  0  0  0  0  0  0
   41.3520   21.8320   37.0750 H   0  0  0  0  0  0  0  0  0  0  0  0
   39.9720   22.4350   35.5610 O   0  0  0  0  0  0  0  0  0  0  0  0
   35.8920   21.6840   31.8390 C   0  0  0  0  0  0  0  0  0  0  0  0
   35.2620   22.1900   30.7490 F   0  0  0  0  0  0  0  0  0  0  0  0
   34.9150   21.1360   32.6550 F   0  0  0  0  0  0  0  0  0  0  0  0
   36.7520   20.6630   31.3970 F   0  0  0  0  0  0  0  0  0  0  0  0
  1  2  1  0  0  0  0
  2  9  1  0  0  0  0
  2  3  2  0  0  0  0
  3 19  1  0  0  0  0
  4  5  2  0  0  0  0
  4  3  1  0  0  0  0
  6  4  1  0  0  0  0
  7  6  1  0  0  0  0
  7  1  1  0  0  0  0
  8  7  2  0  0  0  0
 10 16  1  0  0  0  0
 10 11  1  0  0  0  0
 11 17  1  0  0  0  0
 12 11  2  0  0  0  0
 12  1  1  0  0  0  0
 13 12  1  0  0  0  0
 14 15  1  0  0  0  0
 14 13  2  0  0  0  0
 15 10  2  0  0  0  0
 18 14  1  0  0  0  0
 19 26  1  0  0  0  0
 19 20  2  0  0  0  0
 20 21  1  0  0  0  0
 20 22  1  0  0  0  0
 22 23  1  0  0  0  0
 24 25  1  0  0  0  0
 24 22  2  0  0  0  0
 26 24  1  0  0  0  0
 27  6  1  0  0  0  0
 27 29  1  0  0  0  0
 28 27  1  0  0  0  0
 30 27  1  0  0  0  0
M  END
>  <minimizedAffinity>
-5.2233429

$$$$

 OpenBabel03272505283D

 30 32  0  0  0  0  0  0  0  0999 V2000
   36.0940   28.2630   31.9880 N   0  0  0  0  0  0  0  0  0  0  0  0
   35.7050   28.8720   33.1430 C   0  0  0  0  0  0  0  0  0  0  0  0
   35.6670   30.2540   33.2610 C   0  0  0  0  0  0  0  0  0  0  0  0
   36.0440   31.0090   32.1470 C   0  0  0  0  0  0  0  0  0  0  0  0
   36.0250   32.2590   32.2110 O   0  0  0  0  0  0  0  0  0  0  0  0
   36.4360   30.3850   30.9840 N   0  0  0  0  0  0  0  0  0  0  0  0
   36.4320   29.0560   30.9910 C   0  0  0  0  0  0  0  0  0  0  0  0
   36.7940   28.5280   29.9220 O   0  0  0  0  0  0  0  0  0  0  0  0
   35.4260   28.2120   33.9680 H   0  0  0  0  0  0  0  0  0  0  0  0
   37.1240   24.7220   32.4060 C   0  0  0  0  0  0  0  0  0  0  0  0
   37.0970   26.1210   32.5050 C   0  0  0  0  0  0  0  0  0  0  0  0
   36.1290   26.8710   31.8880 C   0  0  0  0  0  0  0  0  0  0  0  0
   35.2010   26.1960   31.1780 N   0  0  0  0  0  0  0  0  0  0  0  0
   35.1850   24.8470   31.0520 C   0  0  0  0  0  0  0  0  0  0  0  0
   36.1490   24.1060   31.6680 N   0  0  0  0  0  0  0  0  0  0  0  0
   37.8560   24.0760   32.8660 H   0  0  0  0  0  0  0  0  0  0  0  0
   37.9110   26.4540   33.0910 H   0  0  0  0  0  0  0  0  0  0  0  0
   34.3980   24.3950   30.4610 H   0  0  0  0  0  0  0  0  0  0  0  0
   35.2470   30.8460   34.5110 C   0  0  0  0  0  0  0  0  0  0  0  0
   35.9640   31.2940   35.5890 C   0  0  0  0  0  0  0  0  0  0  0  0
   37.0260   31.2770   35.6830 H   0  0  0  0  0  0  0  0  0  0  0  0
   35.0950   31.7860   36.5600 C   0  0  0  0  0  0  0  0  0  0  0  0
   35.3980   32.1970   37.5030 H   0  0  0  0  0  0  0  0  0  0  0  0
   33.8450   31.5880   35.9700 C   0  0  0  0  0  0  0  0  0  0  0  0
   32.9190   31.8630   36.4600 H   0  0  0  0  0  0  0  0  0  0  0  0
   33.9860   31.0480   34.7990 O   0  0  0  0  0  0  0  0  0  0  0  0
   36.8190   31.1760   29.8450 C   0  0  0  0  0  0  0  0  0  0  0  0
   35.8920   32.1300   29.5760 F   0  0  0  0  0  0  0  0  0  0  0  0
   36.9780   30.4290   28.6890 F   0  0  0  0  0  0  0  0  0  0  0  0
   38.0270   31.8300   30.1440 F   0  0  0  0  0  0  0  0  0  0  0  0
  1  2  1  0  0  0  0
  2  3  2  0  0  0  0
  2  9  1  0  0  0  0
  3 19  1  0  0  0  0
  4  5  2  0  0  0  0
  4  3  1  0  0  0  0
  6  7  1  0  0  0  0
  6  4  1  0  0  0  0
  7  1  1  0  0  0  0
  8  7  2  0  0  0  0
 10 11  1  0  0  0  0
 10 16  1  0  0  0  0
 11 17  1  0  0  0  0
 12  1  1  0  0  0  0
 12 11  2  0  0  0  0
 13 12  1  0  0  0  0
 14 13  2  0  0  0  0
 14 15  1  0  0  0  0
 15 10  2  0  0  0  0
 18 14  1  0  0  0  0
 19 26  1  0  0  0  0
 19 20  2  0  0  0  0
 20 21  1  0  0  0  0
 20 22  1  0  0  0  0
 22 23  1  0  0  0  0
 24 25  1  0  0  0  0
 24 22  2  0  0  0  0
 26 24  1  0  0  0  0
 27 30  1  0  0  0  0
 27  6  1  0  0  0  0
 28 27  1  0  0  0  0
 29 27  1  0  0  0  0
M  END
>  <minimizedAffinity>
-5.21937227

$$$$

 OpenBabel03272505283D

 30 32  0  0  0  0  0  0  0  0999 V2000
   36.8340   26.7300   32.6800 N   0  0  0  0  0  0  0  0  0  0  0  0
   36.6040   25.5260   32.0870 C   0  0  0  0  0  0  0  0  0  0  0  0
   37.0730   24.3410   32.6350 C   0  0  0  0  0  0  0  0  0  0  0  0
   37.7990   24.4240   33.8280 C   0  0  0  0  0  0  0  0  0  0  0  0
   38.2420   23.3790   34.3560 O   0  0  0  0  0  0  0  0  0  0  0  0
   38.0280   25.6460   34.4200 N   0  0  0  0  0  0  0  0  0  0  0  0
   37.5280   26.7090   33.8010 C   0  0  0  0  0  0  0  0  0  0  0  0
   37.7570   27.7970   34.3660 O   0  0  0  0  0  0  0  0  0  0  0  0
   36.0290   25.5460   31.1580 H   0  0  0  0  0  0  0  0  0  0  0  0
   36.4780   29.6880   30.4660 C   0  0  0  0  0  0  0  0  0  0  0  0
   36.9670   28.5020   31.0350 C   0  0  0  0  0  0  0  0  0  0  0  0
   36.3560   27.9130   32.1130 C   0  0  0  0  0  0  0  0  0  0  0  0
   35.2590   28.5300   32.6000 N   0  0  0  0  0  0  0  0  0  0  0  0
   34.7500   29.6750   32.0840 C   0  0  0  0  0  0  0  0  0  0  0  0
   35.3610   30.2560   31.0130 N   0  0  0  0  0  0  0  0  0  0  0  0
   36.9110   30.2000   29.6200 H   0  0  0  0  0  0  0  0  0  0  0  0
   37.8340   28.1890   30.5200 H   0  0  0  0  0  0  0  0  0  0  0  0
   33.8650   30.0960   32.5440 H   0  0  0  0  0  0  0  0  0  0  0  0
   36.7990   23.0920   31.9620 C   0  0  0  0  0  0  0  0  0  0  0  0
   35.6430   22.3720   31.8220 C   0  0  0  0  0  0  0  0  0  0  0  0
   34.6890   22.6380   32.2170 H   0  0  0  0  0  0  0  0  0  0  0  0
   35.8910   21.2220   31.0750 C   0  0  0  0  0  0  0  0  0  0  0  0
   35.1570   20.4850   30.8210 H   0  0  0  0  0  0  0  0  0  0  0  0
   37.2570   21.3340   30.8030 C   0  0  0  0  0  0  0  0  0  0  0  0
   37.7990   20.5930   30.2280 H   0  0  0  0  0  0  0  0  0  0  0  0
   37.7290   22.4200   31.3310 O   0  0  0  0  0  0  0  0  0  0  0  0
   38.7740   25.7130   35.6480 C   0  0  0  0  0  0  0  0  0  0  0  0
   39.1670   26.9840   35.9150 F   0  0  0  0  0  0  0  0  0  0  0  0
   39.9180   24.9300   35.6340 F   0  0  0  0  0  0  0  0  0  0  0  0
   37.9390   25.2960   36.6990 F   0  0  0  0  0  0  0  0  0  0  0  0
  1  7  1  0  0  0  0
  2  3  2  0  0  0  0
  2  1  1  0  0  0  0
  3  4  1  0  0  0  0
  4  5  2  0  0  0  0
  4  6  1  0  0  0  0
  6 27  1  0  0  0  0
  7  8  2  0  0  0  0
  7  6  1  0  0  0  0
  9  2  1  0  0  0  0
 10 15  2  0  0  0  0
 10 11  1  0  0  0  0
 11 12  2  0  0  0  0
 12 13  1  0  0  0  0
 12  1  1  0  0  0  0
 14 18  1  0  0  0  0
 14 13  2  0  0  0  0
 15 14  1  0  0  0  0
 16 10  1  0  0  0  0
 17 11  1  0  0  0  0
 19  3  1  0  0  0  0
 20 19  2  0  0  0  0
 20 21  1  0  0  0  0
 22 20  1  0  0  0  0
 23 22  1  0  0  0  0
 24 22  2  0  0  0  0
 24 26  1  0  0  0  0
 25 24  1  0  0  0  0
 26 19  1  0  0  0  0
 27 28  1  0  0  0  0
 27 30  1  0  0  0  0
 29 27  1  0  0  0  0
M  END
>  <minimizedAffinity>
-5.20052719

$$$$

 OpenBabel03272505283D

 30 32  0  0  0  0  0  0  0  0999 V2000
   37.0650   27.5640   33.6070 N   0  0  0  0  0  0  0  0  0  0  0  0
   36.4450   28.4010   34.4840 C   0  0  0  0  0  0  0  0  0  0  0  0
   35.8940   29.6070   34.0750 C   0  0  0  0  0  0  0  0  0  0  0  0
   35.9980   29.9380   32.7210 C   0  0  0  0  0  0  0  0  0  0  0  0
   35.5150   31.0170   32.3090 O   0  0  0  0  0  0  0  0  0  0  0  0
   36.6270   29.0860   31.8420 N   0  0  0  0  0  0  0  0  0  0  0  0
   37.1150   27.9600   32.3520 C   0  0  0  0  0  0  0  0  0  0  0  0
   37.6790   27.2150   31.5250 O   0  0  0  0  0  0  0  0  0  0  0  0
   36.4060   28.0700   35.5250 H   0  0  0  0  0  0  0  0  0  0  0  0
   38.9290   25.0480   35.6010 C   0  0  0  0  0  0  0  0  0  0  0  0
   38.3830   26.2670   35.1710 C   0  0  0  0  0  0  0  0  0  0  0  0
   37.6170   26.3550   34.0370 C   0  0  0  0  0  0  0  0  0  0  0  0
   37.4130   25.2100   33.3530 N   0  0  0  0  0  0  0  0  0  0  0  0
   37.9190   24.0100   33.7280 C   0  0  0  0  0  0  0  0  0  0  0  0
   38.6800   23.9270   34.8560 N   0  0  0  0  0  0  0  0  0  0  0  0
   39.5390   24.9110   36.4810 H   0  0  0  0  0  0  0  0  0  0  0  0
   38.6680   27.0390   35.8330 H   0  0  0  0  0  0  0  0  0  0  0  0
   37.7000   23.1450   33.1140 H   0  0  0  0  0  0  0  0  0  0  0  0
   35.2480   30.4560   35.0500 C   0  0  0  0  0  0  0  0  0  0  0  0
   35.7540   31.3810   35.9240 C   0  0  0  0  0  0  0  0  0  0  0  0
   36.7830   31.6410   36.0330 H   0  0  0  0  0  0  0  0  0  0  0  0
   34.7180   31.9460   36.6640 C   0  0  0  0  0  0  0  0  0  0  0  0
   34.8420   32.6970   37.4190 H   0  0  0  0  0  0  0  0  0  0  0  0
   33.5960   31.2850   36.1580 C   0  0  0  0  0  0  0  0  0  0  0  0
   32.5930   31.4820   36.5160 H   0  0  0  0  0  0  0  0  0  0  0  0
   33.9530   30.4440   35.2370 O   0  0  0  0  0  0  0  0  0  0  0  0
   36.7230   29.4410   30.4510 C   0  0  0  0  0  0  0  0  0  0  0  0
   35.8180   30.3990   30.1260 F   0  0  0  0  0  0  0  0  0  0  0  0
   36.5040   28.3710   29.5980 F   0  0  0  0  0  0  0  0  0  0  0  0
   38.0040   29.9690   30.2130 F   0  0  0  0  0  0  0  0  0  0  0  0
  1 12  1  0  0  0  0
  1  2  1  0  0  0  0
  2  9  1  0  0  0  0
  3  2  2  0  0  0  0
  3 19  1  0  0  0  0
  4  3  1  0  0  0  0
  5  4  2  0  0  0  0
  6  7  1  0  0  0  0
  6  4  1  0  0  0  0
  7  1  1  0  0  0  0
  8  7  2  0  0  0  0
 10 16  1  0  0  0  0
 11 10  1  0  0  0  0
 11 17  1  0  0  0  0
 12 11  2  0  0  0  0
 13 14  2  0  0  0  0
 13 12  1  0  0  0  0
 14 15  1  0  0  0  0
 15 10  2  0  0  0  0
 18 14  1  0  0  0  0
 19 26  1  0  0  0  0
 19 20  2  0  0  0  0
 20 21  1  0  0  0  0
 20 22  1  0  0  0  0
 22 23  1  0  0  0  0
 24 25  1  0  0  0  0
 24 22  2  0  0  0  0
 26 24  1  0  0  0  0
 27  6  1  0  0  0  0
 28 27  1  0  0  0  0
 29 27  1  0  0  0  0
 30 27  1  0  0  0  0
M  END
>  <minimizedAffinity>
-5.19012833

$$$$
