
 OpenBabel03272508423D

 19 20  0  0  0  0  0  0  0  0999 V2000
   34.0220   27.9810   48.0810 C   0  0  0  0  0  0  0  0  0  0  0  0
   34.1410   26.7420   47.9380 O   0  0  0  0  0  0  0  0  0  0  0  0
   30.9520   28.9910   46.4120 C   0  0  0  0  0  0  0  0  0  0  0  0
   31.2980   30.2030   45.8060 C   0  0  0  0  0  0  0  0  0  0  0  0
   32.5920   30.6890   45.9640 C   0  0  0  0  0  0  0  0  0  0  0  0
   33.4470   29.9450   46.7060 N   0  0  0  0  0  0  0  0  0  0  0  0
   33.0940   28.7760   47.2830 C   0  0  0  0  0  0  0  0  0  0  0  0
   31.8430   28.3000   47.1350 N   0  0  0  0  0  0  0  0  0  0  0  0
   29.9360   28.5940   46.2970 H   0  0  0  0  0  0  0  0  0  0  0  0
   30.5800   30.7690   45.2180 H   0  0  0  0  0  0  0  0  0  0  0  0
   32.9330   31.6160   45.5260 H   0  0  0  0  0  0  0  0  0  0  0  0
   34.8600   28.6350   49.0960 C   0  0  0  0  0  0  0  0  0  0  0  0
   36.0850   29.2200   48.8300 C   0  0  0  0  0  0  0  0  0  0  0  0
   36.5800   29.2790   47.8770 H   0  0  0  0  0  0  0  0  0  0  0  0
   36.4790   29.6930   50.0880 C   0  0  0  0  0  0  0  0  0  0  0  0
   37.4080   30.2170   50.2620 H   0  0  0  0  0  0  0  0  0  0  0  0
   35.5080   29.3810   51.0190 C   0  0  0  0  0  0  0  0  0  0  0  0
   35.5040   29.6050   52.0860 H   0  0  0  0  0  0  0  0  0  0  0  0
   34.5530   28.7460   50.3860 O   0  0  0  0  0  0  0  0  0  0  0  0
  1 12  1  0  0  0  0
  2  1  2  0  0  0  0
  3  8  1  0  0  0  0
  4  5  1  0  0  0  0
  4  3  2  0  0  0  0
  5  6  2  0  0  0  0
  6  7  1  0  0  0  0
  7  1  1  0  0  0  0
  8  7  2  0  0  0  0
  9  3  1  0  0  0  0
 10  4  1  0  0  0  0
 11  5  1  0  0  0  0
 12 19  1  0  0  0  0
 13 12  2  0  0  0  0
 13 15  1  0  0  0  0
 14 13  1  0  0  0  0
 15 16  1  0  0  0  0
 15 17  2  0  0  0  0
 17 18  1  0  0  0  0
 19 17  1  0  0  0  0
M  END
>  <minimizedAffinity>
-3.38672352

>  <minimizedRMSD>
4.96798325

$$$$
