
 OpenBabel03272509583D

 45 48  0  0  0  0  0  0  0  0999 V2000
   34.4860   28.3240   48.3420 C   0  0  0  0  0  0  0  0  0  0  0  0
   35.4970   27.8940   48.1300 H   0  0  0  0  0  0  0  0  0  0  0  0
   34.3540   29.1560   47.6350 H   0  0  0  0  0  0  0  0  0  0  0  0
   33.5080   27.2020   48.1360 C   0  0  0  0  0  0  0  0  0  0  0  0
   33.4620   26.5750   49.0280 H   0  0  0  0  0  0  0  0  0  0  0  0
   33.8100   26.5380   47.2900 H   0  0  0  0  0  0  0  0  0  0  0  0
   32.1370   27.6900   47.8000 C   0  0  0  0  0  0  0  0  0  0  0  0
   31.1600   27.6170   48.7960 C   0  0  0  0  0  0  0  0  0  0  0  0
   29.8750   28.0440   48.5730 C   0  0  0  0  0  0  0  0  0  0  0  0
   29.5470   28.5400   47.3760 N   0  0  0  0  0  0  0  0  0  0  0  0
   30.5160   28.6000   46.4210 C   0  0  0  0  0  0  0  0  0  0  0  0
   31.7830   28.1930   46.6040 N   0  0  0  0  0  0  0  0  0  0  0  0
   31.3580   27.2280   49.7860 H   0  0  0  0  0  0  0  0  0  0  0  0
   29.1000   27.9970   49.3300 H   0  0  0  0  0  0  0  0  0  0  0  0
   30.0960   29.1650   45.0940 C   0  0  0  0  0  0  0  0  0  0  0  0
   30.5480   28.4980   44.3310 H   0  0  0  0  0  0  0  0  0  0  0  0
   28.9940   29.0460   44.9960 H   0  0  0  0  0  0  0  0  0  0  0  0
   30.5110   30.5850   44.9640 C   0  0  0  0  0  0  0  0  0  0  0  0
   29.6990   31.5760   44.4480 C   0  0  0  0  0  0  0  0  0  0  0  0
   28.6750   31.4170   44.0850 H   0  0  0  0  0  0  0  0  0  0  0  0
   30.4560   32.7320   44.5030 C   0  0  0  0  0  0  0  0  0  0  0  0
   30.0180   33.6600   44.1430 H   0  0  0  0  0  0  0  0  0  0  0  0
   31.6960   32.3840   45.0520 C   0  0  0  0  0  0  0  0  0  0  0  0
   32.4090   33.1890   45.1630 H   0  0  0  0  0  0  0  0  0  0  0  0
   31.6520   31.1090   45.2960 O   0  0  0  0  0  0  0  0  0  0  0  0
   34.5260   28.7430   49.6900 O   0  0  0  0  0  0  0  0  0  0  0  0
   37.2470   30.0010   51.7110 C   0  0  0  0  0  0  0  0  0  0  0  0
   38.0080   30.6690   50.7290 C   0  0  0  0  0  0  0  0  0  0  0  0
   37.5270   30.6400   49.4260 C   0  0  0  0  0  0  0  0  0  0  0  0
   36.3550   29.9620   49.2230 N   0  0  0  0  0  0  0  0  0  0  0  0
   35.6530   29.3390   50.1590 C   0  0  0  0  0  0  0  0  0  0  0  0
   36.1170   29.3640   51.4270 N   0  0  0  0  0  0  0  0  0  0  0  0
   37.6530   30.0440   52.7200 H   0  0  0  0  0  0  0  0  0  0  0  0
   38.9230   31.1970   50.9000 H   0  0  0  0  0  0  0  0  0  0  0  0
   38.8930   33.1950   49.3160 F   0  0  0  0  0  0  0  0  0  0  0  0
   38.8020   32.4470   48.2210 C   0  0  0  0  0  0  0  0  0  0  0  0
   38.1680   31.2680   48.2830 C   0  0  0  0  0  0  0  0  0  0  0  0
   38.1310   30.5700   47.0870 C   0  0  0  0  0  0  0  0  0  0  0  0
   38.6940   31.0420   45.9320 C   0  0  0  0  0  0  0  0  0  0  0  0
   39.3400   32.2650   45.9100 C   0  0  0  0  0  0  0  0  0  0  0  0
   39.3850   32.9610   47.0740 C   0  0  0  0  0  0  0  0  0  0  0  0
   37.6400   29.5930   47.0130 H   0  0  0  0  0  0  0  0  0  0  0  0
   38.6490   30.4740   45.0100 H   0  0  0  0  0  0  0  0  0  0  0  0
   39.8000   32.6780   45.0160 H   0  0  0  0  0  0  0  0  0  0  0  0
   39.8840   33.9200   47.0830 H   0  0  0  0  0  0  0  0  0  0  0  0
  1 26  1  0  0  0  0
  2  1  1  0  0  0  0
  3  1  1  0  0  0  0
  4  1  1  0  0  0  0
  4  5  1  0  0  0  0
  6  4  1  0  0  0  0
  7  4  1  0  0  0  0
  7  8  1  0  0  0  0
  8 13  1  0  0  0  0
  9  8  2  0  0  0  0
  9 14  1  0  0  0  0
 10  9  1  0  0  0  0
 11 12  1  0  0  0  0
 11 10  2  0  0  0  0
 12  7  2  0  0  0  0
 15 11  1  0  0  0  0
 16 15  1  0  0  0  0
 17 15  1  0  0  0  0
 18 15  1  0  0  0  0
 18 25  1  0  0  0  0
 19 21  1  0  0  0  0
 19 18  2  0  0  0  0
 20 19  1  0  0  0  0
 21 23  2  0  0  0  0
 22 21  1  0  0  0  0
 23 24  1  0  0  0  0
 23 25  1  0  0  0  0
 26 31  1  0  0  0  0
 27 33  1  0  0  0  0
 28 34  1  0  0  0  0
 28 27  2  0  0  0  0
 29 28  1  0  0  0  0
 30 29  2  0  0  0  0
 30 31  1  0  0  0  0
 31 32  2  0  0  0  0
 32 27  1  0  0  0  0
 36 37  1  0  0  0  0
 36 35  1  0  0  0  0
 37 29  1  0  0  0  0
 38 37  2  0  0  0  0
 39 38  1  0  0  0  0
 40 39  2  0  0  0  0
 40 41  1  0  0  0  0
 41 45  1  0  0  0  0
 41 36  2  0  0  0  0
 42 38  1  0  0  0  0
 43 39  1  0  0  0  0
 44 40  1  0  0  0  0
M  END
>  <minimizedAffinity>
-6.29952288

>  <minimizedRMSD>
0.983374119

$$$$
