
 OpenBabel03272509303D

 37 39  0  0  1  0  0  0  0  0999 V2000
   36.2750   30.7200   48.9900 C   0  0  2  0  0  0  0  0  0  0  0  0
   37.2610   31.5940   49.7030 C   0  0  0  0  0  0  0  0  0  0  0  0
   38.1710   30.8200   50.6310 C   0  0  0  0  0  0  0  0  0  0  0  0
   37.3480   30.0330   51.6500 C   0  0  0  0  0  0  0  0  0  0  0  0
   36.0790   29.4490   51.0900 C   0  0  0  0  0  0  0  0  0  0  0  0
   36.2270   29.3410   49.5610 C   0  0  1  0  0  0  0  0  0  0  0  0
   35.2130   31.1110   49.0400 H   0  0  0  0  0  0  0  0  0  0  0  0
   36.6230   32.2160   50.4180 H   0  0  0  0  0  0  0  0  0  0  0  0
   37.7980   32.3190   49.1200 H   0  0  0  0  0  0  0  0  0  0  0  0
   38.7670   31.5600   51.1800 H   0  0  0  0  0  0  0  0  0  0  0  0
   38.8280   30.1020   50.1310 H   0  0  0  0  0  0  0  0  0  0  0  0
   37.0880   30.7120   52.4820 H   0  0  0  0  0  0  0  0  0  0  0  0
   37.9650   29.1820   52.0460 H   0  0  0  0  0  0  0  0  0  0  0  0
   35.2230   30.1150   51.2420 H   0  0  0  0  0  0  0  0  0  0  0  0
   35.8860   28.4320   51.4970 H   0  0  0  0  0  0  0  0  0  0  0  0
   37.1770   28.8670   49.4970 H   0  0  0  0  0  0  0  0  0  0  0  0
   36.5910   30.6260   47.5400 C   0  0  0  0  0  0  0  0  0  0  0  0
   37.9290   30.8860   47.1950 C   0  0  0  0  0  0  0  0  0  0  0  0
   38.2530   30.8020   45.8360 C   0  0  0  0  0  0  0  0  0  0  0  0
   37.2610   30.4760   44.9370 N   0  0  0  0  0  0  0  0  0  0  0  0
   35.9740   30.2320   45.3280 C   0  0  0  0  0  0  0  0  0  0  0  0
   35.6580   30.3120   46.6360 N   0  0  0  0  0  0  0  0  0  0  0  0
   38.7860   31.1380   47.7880 H   0  0  0  0  0  0  0  0  0  0  0  0
   39.2350   30.9750   45.4230 H   0  0  0  0  0  0  0  0  0  0  0  0
   35.2860   29.9860   44.5350 H   0  0  0  0  0  0  0  0  0  0  0  0
   33.9080   28.3850   49.1540 C   0  0  0  0  0  0  0  0  0  0  0  0
   33.1330   29.0800   49.8760 O   0  0  0  0  0  0  0  0  0  0  0  0
   35.3100   28.4610   48.9320 N   0  0  0  0  0  0  0  0  0  0  0  0
   35.6530   27.7590   48.2000 H   0  0  0  0  0  0  0  0  0  0  0  0
   33.1100   27.3380   48.4640 C   0  0  0  0  0  0  0  0  0  0  0  0
   31.7410   27.2070   48.4070 C   0  0  0  0  0  0  0  0  0  0  0  0
   30.9990   27.8330   48.8480 H   0  0  0  0  0  0  0  0  0  0  0  0
   31.4100   26.0750   47.6490 C   0  0  0  0  0  0  0  0  0  0  0  0
   30.4020   25.7220   47.4340 H   0  0  0  0  0  0  0  0  0  0  0  0
   32.6420   25.5710   47.2800 C   0  0  0  0  0  0  0  0  0  0  0  0
   32.7380   24.6770   46.6730 H   0  0  0  0  0  0  0  0  0  0  0  0
   33.5710   26.3260   47.7680 O   0  0  0  0  0  0  0  0  0  0  0  0
  1  7  1  1  0  0  0
  1  6  1  0  0  0  0
  1  2  1  0  0  0  0
  2  8  1  0  0  0  0
  2  3  1  0  0  0  0
  3 10  1  0  0  0  0
  3  4  1  0  0  0  0
  4 13  1  0  0  0  0
  4 12  1  0  0  0  0
  5 14  1  0  0  0  0
  5 15  1  0  0  0  0
  5  4  1  0  0  0  0
  6 16  1  6  0  0  0
  6  5  1  0  0  0  0
  9  2  1  0  0  0  0
 11  3  1  0  0  0  0
 17  1  1  0  0  0  0
 18 17  1  0  0  0  0
 18 23  1  0  0  0  0
 19 18  2  0  0  0  0
 20 21  2  0  0  0  0
 20 19  1  0  0  0  0
 21 22  1  0  0  0  0
 22 17  2  0  0  0  0
 24 19  1  0  0  0  0
 25 21  1  0  0  0  0
 26 27  2  0  0  0  0
 28 26  1  0  0  0  0
 28  6  1  0  0  0  0
 29 28  1  0  0  0  0
 30 26  1  0  0  0  0
 31 30  2  0  0  0  0
 31 32  1  0  0  0  0
 33 31  1  0  0  0  0
 34 33  1  0  0  0  0
 35 33  2  0  0  0  0
 35 37  1  0  0  0  0
 36 35  1  0  0  0  0
 37 30  1  0  0  0  0
M  END
>  <minimizedAffinity>
-5.84543037

>  <minimizedRMSD>
0.395850718

$$$$
