
 OpenBabel03272507553D

 22 23  0  0  0  0  0  0  0  0999 V2000
   34.8800   29.1390   50.0730 C   0  0  0  0  0  0  0  0  0  0  0  0
   36.0550   29.8590   49.7200 C   0  0  0  0  0  0  0  0  0  0  0  0
   36.1120   30.4320   48.4590 C   0  0  0  0  0  0  0  0  0  0  0  0
   35.0430   30.2750   47.6270 N   0  0  0  0  0  0  0  0  0  0  0  0
   33.9420   29.5870   47.9880 C   0  0  0  0  0  0  0  0  0  0  0  0
   33.8590   29.0170   49.2150 N   0  0  0  0  0  0  0  0  0  0  0  0
   32.9660   29.5630   46.9530 N   0  0  0  0  0  0  0  0  0  0  0  0
   34.8350   28.7010   51.0370 H   0  0  0  0  0  0  0  0  0  0  0  0
   32.6640   30.4400   46.4970 H   0  0  0  0  0  0  0  0  0  0  0  0
   32.6420   28.5870   46.7600 H   0  0  0  0  0  0  0  0  0  0  0  0
   37.2860   31.1630   48.0170 C   0  0  0  0  0  0  0  0  0  0  0  0
   38.1690   30.6840   47.0720 C   0  0  0  0  0  0  0  0  0  0  0  0
   38.0910   29.7200   46.5560 H   0  0  0  0  0  0  0  0  0  0  0  0
   39.1970   31.5700   46.8320 C   0  0  0  0  0  0  0  0  0  0  0  0
   40.0450   31.5200   46.1670 H   0  0  0  0  0  0  0  0  0  0  0  0
   38.8830   32.6070   47.6840 C   0  0  0  0  0  0  0  0  0  0  0  0
   39.4050   33.5450   47.8510 H   0  0  0  0  0  0  0  0  0  0  0  0
   37.8020   32.3170   48.3180 O   0  0  0  0  0  0  0  0  0  0  0  0
   37.1660   29.9640   50.7120 C   0  0  0  0  0  0  0  0  0  0  0  0
   38.3640   29.5810   50.1470 F   0  0  0  0  0  0  0  0  0  0  0  0
   37.2460   31.2590   51.1340 F   0  0  0  0  0  0  0  0  0  0  0  0
   36.9530   29.1620   51.8200 F   0  0  0  0  0  0  0  0  0  0  0  0
  1  8  1  0  0  0  0
  2  1  1  0  0  0  0
  2 19  1  0  0  0  0
  3  2  2  0  0  0  0
  4  5  2  0  0  0  0
  4  3  1  0  0  0  0
  5  6  1  0  0  0  0
  6  1  2  0  0  0  0
  7  5  1  0  0  0  0
  9  7  1  0  0  0  0
 10  7  1  0  0  0  0
 11 18  1  0  0  0  0
 11  3  1  0  0  0  0
 12 11  2  0  0  0  0
 13 12  1  0  0  0  0
 14 12  1  0  0  0  0
 14 16  2  0  0  0  0
 15 14  1  0  0  0  0
 16 17  1  0  0  0  0
 16 18  1  0  0  0  0
 19 21  1  0  0  0  0
 19 22  1  0  0  0  0
 20 19  1  0  0  0  0
M  END
>  <minimizedAffinity>
-5.56226969

>  <minimizedRMSD>
1.3255198

$$$$
