
 OpenBabel03272501193D

 29 31  0  0  0  0  0  0  0  0999 V2000
   38.6590   31.6270   47.8690 C   0  0  0  0  0  0  0  0  0  0  0  0
   38.0680   31.9520   49.0730 C   0  0  0  0  0  0  0  0  0  0  0  0
   38.3620   33.2360   49.5500 C   0  0  0  0  0  0  0  0  0  0  0  0
   39.1920   34.0980   48.8430 C   0  0  0  0  0  0  0  0  0  0  0  0
   39.7470   33.6830   47.6310 C   0  0  0  0  0  0  0  0  0  0  0  0
   39.4720   32.4140   47.1350 C   0  0  0  0  0  0  0  0  0  0  0  0
   37.9450   33.5840   50.4850 H   0  0  0  0  0  0  0  0  0  0  0  0
   39.4300   35.0940   49.1940 H   0  0  0  0  0  0  0  0  0  0  0  0
   40.3990   34.3610   47.0740 H   0  0  0  0  0  0  0  0  0  0  0  0
   35.9000   30.8370   49.3840 C   0  0  0  0  0  0  0  0  0  0  0  0
   37.2120   31.0610   49.8020 C   0  0  0  0  0  0  0  0  0  0  0  0
   37.6410   30.3820   50.9510 C   0  0  0  0  0  0  0  0  0  0  0  0
   36.7590   29.5540   51.5800 N   0  0  0  0  0  0  0  0  0  0  0  0
   35.5010   29.3720   51.1360 C   0  0  0  0  0  0  0  0  0  0  0  0
   35.0700   30.0170   50.0310 N   0  0  0  0  0  0  0  0  0  0  0  0
   35.5320   31.3440   48.5020 H   0  0  0  0  0  0  0  0  0  0  0  0
   38.6530   30.5560   51.2690 H   0  0  0  0  0  0  0  0  0  0  0  0
   35.0110   28.6730   51.8050 H   0  0  0  0  0  0  0  0  0  0  0  0
   38.4270   30.3660   47.3100 O   0  0  0  0  0  0  0  0  0  0  0  0
   37.5750   30.1690   46.7670 H   0  0  0  0  0  0  0  0  0  0  0  0
   40.0460   32.0560   45.9350 O   0  0  0  0  0  0  0  0  0  0  0  0
   39.5380   32.3940   44.6880 C   0  0  0  0  0  0  0  0  0  0  0  0
   38.1460   32.3640   44.6060 C   0  0  0  0  0  0  0  0  0  0  0  0
   37.3180   32.1420   45.2690 H   0  0  0  0  0  0  0  0  0  0  0  0
   37.8210   32.7280   43.2940 C   0  0  0  0  0  0  0  0  0  0  0  0
   36.9370   32.8670   42.6860 H   0  0  0  0  0  0  0  0  0  0  0  0
   39.0380   32.9530   42.6730 C   0  0  0  0  0  0  0  0  0  0  0  0
   39.4330   33.2480   41.6970 H   0  0  0  0  0  0  0  0  0  0  0  0
   40.0230   32.7480   43.5170 O   0  0  0  0  0  0  0  0  0  0  0  0
  1  2  1  0  0  0  0
  2  3  2  0  0  0  0
  2 11  1  0  0  0  0
  3  7  1  0  0  0  0
  4  8  1  0  0  0  0
  4  3  1  0  0  0  0
  5  4  2  0  0  0  0
  6  5  1  0  0  0  0
  6  1  2  0  0  0  0
  9  5  1  0  0  0  0
 10 11  2  0  0  0  0
 10 15  1  0  0  0  0
 11 12  1  0  0  0  0
 12 17  1  0  0  0  0
 12 13  2  0  0  0  0
 14 13  1  0  0  0  0
 14 18  1  0  0  0  0
 15 14  2  0  0  0  0
 16 10  1  0  0  0  0
 19  1  1  0  0  0  0
 20 19  1  0  0  0  0
 21  6  1  0  0  0  0
 22 21  1  0  0  0  0
 23 22  2  0  0  0  0
 23 24  1  0  0  0  0
 25 23  1  0  0  0  0
 26 25  1  0  0  0  0
 27 25  2  0  0  0  0
 27 29  1  0  0  0  0
 28 27  1  0  0  0  0
 29 22  1  0  0  0  0
M  END
>  <minimizedAffinity>
-5.92903852

>  <minimizedRMSD>
0.584023237

$$$$
