
 OpenBabel03272505493D

 39 43  0  0  0  0  0  0  0  0999 V2000
   35.7750   29.4070   33.4150 C   0  0  0  0  0  0  0  0  0  0  0  0
   36.0850   29.8330   32.1750 C   0  0  0  0  0  0  0  0  0  0  0  0
   36.8890   29.0620   31.3490 C   0  0  0  0  0  0  0  0  0  0  0  0
   37.3610   27.8460   31.8370 C   0  0  0  0  0  0  0  0  0  0  0  0
   37.0320   27.4110   33.1310 C   0  0  0  0  0  0  0  0  0  0  0  0
   36.2450   28.2180   33.8740 N   0  0  0  0  0  0  0  0  0  0  0  0
   35.7280   30.7770   31.7740 H   0  0  0  0  0  0  0  0  0  0  0  0
   37.1810   29.3270   30.3520 H   0  0  0  0  0  0  0  0  0  0  0  0
   37.9940   27.1800   31.2620 H   0  0  0  0  0  0  0  0  0  0  0  0
   34.9010   30.2400   34.3220 C   0  0  0  0  0  0  0  0  0  0  0  0
   35.5400   30.9250   35.4810 C   0  0  0  0  0  0  0  0  0  0  0  0
   35.0920   31.7260   34.2980 C   0  0  0  0  0  0  0  0  0  0  0  0
   36.6370   30.7460   35.5830 H   0  0  0  0  0  0  0  0  0  0  0  0
   35.0090   30.9510   36.4320 H   0  0  0  0  0  0  0  0  0  0  0  0
   34.1820   32.3320   34.4810 H   0  0  0  0  0  0  0  0  0  0  0  0
   35.9000   32.1830   33.6890 H   0  0  0  0  0  0  0  0  0  0  0  0
   31.6220   28.9000   33.2850 C   0  0  0  0  0  0  0  0  0  0  0  0
   30.9450   28.7810   34.5200 C   0  0  0  0  0  0  0  0  0  0  0  0
   31.6250   29.1660   35.7100 C   0  0  0  0  0  0  0  0  0  0  0  0
   32.8850   29.6230   35.5740 N   0  0  0  0  0  0  0  0  0  0  0  0
   33.5210   29.7310   34.3830 C   0  0  0  0  0  0  0  0  0  0  0  0
   32.8960   29.3730   33.2490 N   0  0  0  0  0  0  0  0  0  0  0  0
   31.1020   28.6070   32.3820 H   0  0  0  0  0  0  0  0  0  0  0  0
   29.9300   28.4020   34.5180 H   0  0  0  0  0  0  0  0  0  0  0  0
   31.1010   29.0700   36.6330 H   0  0  0  0  0  0  0  0  0  0  0  0
   37.5030   26.1490   33.6810 C   0  0  0  0  0  0  0  0  0  0  0  0
   37.8320   24.9870   33.0580 N   0  0  0  0  0  0  0  0  0  0  0  0
   38.2230   24.0710   33.9800 C   0  0  0  0  0  0  0  0  0  0  0  0
   38.1280   24.6900   35.1970 N   0  0  0  0  0  0  0  0  0  0  0  0
   37.6970   25.9360   35.0160 N   0  0  0  0  0  0  0  0  0  0  0  0
   38.5510   23.0540   33.8680 H   0  0  0  0  0  0  0  0  0  0  0  0
   38.4160   24.1920   36.5180 C   0  0  0  0  0  0  0  0  0  0  0  0
   37.9130   24.4020   37.7890 C   0  0  0  0  0  0  0  0  0  0  0  0
   37.0940   25.1050   37.8970 H   0  0  0  0  0  0  0  0  0  0  0  0
   38.6750   23.5800   38.5990 C   0  0  0  0  0  0  0  0  0  0  0  0
   38.4510   23.5790   39.6760 H   0  0  0  0  0  0  0  0  0  0  0  0
   39.5960   22.9160   37.7890 C   0  0  0  0  0  0  0  0  0  0  0  0
   40.2380   22.2480   38.3400 H   0  0  0  0  0  0  0  0  0  0  0  0
   39.3950   23.3180   36.5720 O   0  0  0  0  0  0  0  0  0  0  0  0
  1  6  1  0  0  0  0
  1 10  1  0  0  0  0
  2  1  2  0  0  0  0
  3  4  2  0  0  0  0
  3  2  1  0  0  0  0
  4  5  1  0  0  0  0
  5 26  1  0  0  0  0
  5  6  2  0  0  0  0
  7  2  1  0  0  0  0
  8  3  1  0  0  0  0
  9  4  1  0  0  0  0
 10 21  1  0  0  0  0
 10 11  1  0  0  0  0
 11 13  1  0  0  0  0
 11 14  1  0  0  0  0
 12 10  1  0  0  0  0
 12 15  1  0  0  0  0
 12 11  1  0  0  0  0
 16 12  1  0  0  0  0
 17 18  1  0  0  0  0
 18 19  2  0  0  0  0
 19 25  1  0  0  0  0
 20 19  1  0  0  0  0
 21 20  2  0  0  0  0
 22 17  2  0  0  0  0
 22 21  1  0  0  0  0
 23 17  1  0  0  0  0
 24 18  1  0  0  0  0
 26 30  2  0  0  0  0
 27 26  1  0  0  0  0
 27 28  2  0  0  0  0
 28 29  1  0  0  0  0
 29 32  1  0  0  0  0
 30 29  1  0  0  0  0
 31 28  1  0  0  0  0
 32 39  1  0  0  0  0
 32 33  2  0  0  0  0
 33 34  1  0  0  0  0
 33 35  1  0  0  0  0
 35 36  1  0  0  0  0
 37 38  1  0  0  0  0
 37 35  2  0  0  0  0
 39 37  1  0  0  0  0
M  END
>  <minimizedAffinity>
-6.19659472

$$$$

 OpenBabel03272505493D

 39 43  0  0  0  0  0  0  0  0999 V2000
   38.1620   24.3300   34.9070 C   0  0  0  0  0  0  0  0  0  0  0  0
   38.3010   23.5020   33.8530 C   0  0  0  0  0  0  0  0  0  0  0  0
   37.9320   23.9150   32.5820 C   0  0  0  0  0  0  0  0  0  0  0  0
   37.4180   25.2010   32.4310 C   0  0  0  0  0  0  0  0  0  0  0  0
   37.2770   26.0570   33.5350 C   0  0  0  0  0  0  0  0  0  0  0  0
   37.6580   25.5810   34.7390 N   0  0  0  0  0  0  0  0  0  0  0  0
   38.7000   22.4970   33.9490 H   0  0  0  0  0  0  0  0  0  0  0  0
   38.0110   23.3210   31.6940 H   0  0  0  0  0  0  0  0  0  0  0  0
   37.1040   25.6070   31.4750 H   0  0  0  0  0  0  0  0  0  0  0  0
   38.5600   23.8890   36.2950 C   0  0  0  0  0  0  0  0  0  0  0  0
   37.9700   24.6080   37.4590 C   0  0  0  0  0  0  0  0  0  0  0  0
   37.5180   23.2170   37.1360 C   0  0  0  0  0  0  0  0  0  0  0  0
   37.2740   25.4380   37.1910 H   0  0  0  0  0  0  0  0  0  0  0  0
   38.6040   24.8260   38.3180 H   0  0  0  0  0  0  0  0  0  0  0  0
   37.8910   22.4460   37.8410 H   0  0  0  0  0  0  0  0  0  0  0  0
   36.4740   23.1190   36.7730 H   0  0  0  0  0  0  0  0  0  0  0  0
   42.1880   23.5040   35.7380 C   0  0  0  0  0  0  0  0  0  0  0  0
   42.4660   22.2940   36.4130 C   0  0  0  0  0  0  0  0  0  0  0  0
   41.3970   21.6130   37.0580 C   0  0  0  0  0  0  0  0  0  0  0  0
   40.1770   22.1770   36.9820 N   0  0  0  0  0  0  0  0  0  0  0  0
   39.9250   23.3390   36.3310 C   0  0  0  0  0  0  0  0  0  0  0  0
   40.9210   23.9960   35.7150 N   0  0  0  0  0  0  0  0  0  0  0  0
   43.0040   24.0200   35.2460 H   0  0  0  0  0  0  0  0  0  0  0  0
   43.4860   21.9270   36.4130 H   0  0  0  0  0  0  0  0  0  0  0  0
   41.6230   20.7010   37.5640 H   0  0  0  0  0  0  0  0  0  0  0  0
   36.7440   27.4060   33.4230 C   0  0  0  0  0  0  0  0  0  0  0  0
   36.4810   28.1580   32.3220 N   0  0  0  0  0  0  0  0  0  0  0  0
   35.9890   29.3650   32.7010 C   0  0  0  0  0  0  0  0  0  0  0  0
   35.9520   29.3480   34.0690 N   0  0  0  0  0  0  0  0  0  0  0  0
   36.4050   28.1730   34.5000 N   0  0  0  0  0  0  0  0  0  0  0  0
   35.6720   30.2110   32.1200 H   0  0  0  0  0  0  0  0  0  0  0  0
   35.5200   30.3600   35.0000 C   0  0  0  0  0  0  0  0  0  0  0  0
   36.1400   31.2980   35.8040 C   0  0  0  0  0  0  0  0  0  0  0  0
   37.2240   31.3430   35.7820 H   0  0  0  0  0  0  0  0  0  0  0  0
   35.0970   31.9450   36.4430 C   0  0  0  0  0  0  0  0  0  0  0  0
   35.3550   32.7480   37.1480 H   0  0  0  0  0  0  0  0  0  0  0  0
   33.9050   31.3730   36.0010 C   0  0  0  0  0  0  0  0  0  0  0  0
   33.0320   31.8180   36.4500 H   0  0  0  0  0  0  0  0  0  0  0  0
   34.2180   30.4440   35.1510 O   0  0  0  0  0  0  0  0  0  0  0  0
  1 10  1  0  0  0  0
  2  7  1  0  0  0  0
  2  1  2  0  0  0  0
  3  2  1  0  0  0  0
  4  3  2  0  0  0  0
  4  5  1  0  0  0  0
  5  6  2  0  0  0  0
  6  1  1  0  0  0  0
  8  3  1  0  0  0  0
  9  4  1  0  0  0  0
 10 21  1  0  0  0  0
 10 12  1  0  0  0  0
 10 11  1  0  0  0  0
 11 14  1  0  0  0  0
 12 11  1  0  0  0  0
 12 15  1  0  0  0  0
 13 11  1  0  0  0  0
 16 12  1  0  0  0  0
 17 18  1  0  0  0  0
 18 24  1  0  0  0  0
 18 19  2  0  0  0  0
 19 25  1  0  0  0  0
 20 19  1  0  0  0  0
 21 20  2  0  0  0  0
 22 17  2  0  0  0  0
 22 21  1  0  0  0  0
 23 17  1  0  0  0  0
 26  5  1  0  0  0  0
 26 30  2  0  0  0  0
 27 28  2  0  0  0  0
 27 26  1  0  0  0  0
 28 29  1  0  0  0  0
 29 30  1  0  0  0  0
 29 32  1  0  0  0  0
 31 28  1  0  0  0  0
 32 39  1  0  0  0  0
 32 33  2  0  0  0  0
 33 35  1  0  0  0  0
 34 33  1  0  0  0  0
 35 36  1  0  0  0  0
 37 35  2  0  0  0  0
 37 38  1  0  0  0  0
 39 37  1  0  0  0  0
M  END
>  <minimizedAffinity>
-6.04751921

$$$$

 OpenBabel03272505493D

 39 43  0  0  0  0  0  0  0  0999 V2000
   38.6450   25.6340   33.5700 C   0  0  0  0  0  0  0  0  0  0  0  0
   38.3590   24.7320   32.6110 C   0  0  0  0  0  0  0  0  0  0  0  0
   37.2860   24.9310   31.7570 C   0  0  0  0  0  0  0  0  0  0  0  0
   36.5190   26.0830   31.9200 C   0  0  0  0  0  0  0  0  0  0  0  0
   36.8250   27.0180   32.9230 C   0  0  0  0  0  0  0  0  0  0  0  0
   37.8860   26.7520   33.7140 N   0  0  0  0  0  0  0  0  0  0  0  0
   38.9440   23.8280   32.4670 H   0  0  0  0  0  0  0  0  0  0  0  0
   36.9920   24.2650   30.9710 H   0  0  0  0  0  0  0  0  0  0  0  0
   35.6620   26.3200   31.2990 H   0  0  0  0  0  0  0  0  0  0  0  0
   39.8120   25.4250   34.5050 C   0  0  0  0  0  0  0  0  0  0  0  0
   41.1800   25.3460   33.9170 C   0  0  0  0  0  0  0  0  0  0  0  0
   40.7690   26.5640   34.6870 C   0  0  0  0  0  0  0  0  0  0  0  0
   41.2170   25.4420   32.8060 H   0  0  0  0  0  0  0  0  0  0  0  0
   41.8820   24.6180   34.3190 H   0  0  0  0  0  0  0  0  0  0  0  0
   41.2380   26.6440   35.6880 H   0  0  0  0  0  0  0  0  0  0  0  0
   40.6590   27.4960   34.0950 H   0  0  0  0  0  0  0  0  0  0  0  0
   39.8230   22.8530   37.1510 C   0  0  0  0  0  0  0  0  0  0  0  0
   38.7110   23.2310   37.9380 C   0  0  0  0  0  0  0  0  0  0  0  0
   37.9590   24.3750   37.5500 C   0  0  0  0  0  0  0  0  0  0  0  0
   38.3660   25.0280   36.4450 N   0  0  0  0  0  0  0  0  0  0  0  0
   39.4340   24.6550   35.7010 C   0  0  0  0  0  0  0  0  0  0  0  0
   40.1560   23.5770   36.0500 N   0  0  0  0  0  0  0  0  0  0  0  0
   40.3920   21.9810   37.4480 H   0  0  0  0  0  0  0  0  0  0  0  0
   38.4700   22.6340   38.8100 H   0  0  0  0  0  0  0  0  0  0  0  0
   37.1240   24.6480   38.1540 H   0  0  0  0  0  0  0  0  0  0  0  0
   36.0520   28.2330   33.1280 C   0  0  0  0  0  0  0  0  0  0  0  0
   35.2500   28.9190   32.2720 N   0  0  0  0  0  0  0  0  0  0  0  0
   34.7300   30.0020   32.9050 C   0  0  0  0  0  0  0  0  0  0  0  0
   35.2290   29.9740   34.1800 N   0  0  0  0  0  0  0  0  0  0  0  0
   36.0210   28.9130   34.3110 N   0  0  0  0  0  0  0  0  0  0  0  0
   34.0620   30.7680   32.5570 H   0  0  0  0  0  0  0  0  0  0  0  0
   35.0120   30.8760   35.2820 C   0  0  0  0  0  0  0  0  0  0  0  0
   35.7900   31.7550   36.0130 C   0  0  0  0  0  0  0  0  0  0  0  0
   36.8380   31.8420   35.7460 H   0  0  0  0  0  0  0  0  0  0  0  0
   34.9160   32.3000   36.9370 C   0  0  0  0  0  0  0  0  0  0  0  0
   35.3190   33.0420   37.6410 H   0  0  0  0  0  0  0  0  0  0  0  0
   33.6610   31.7300   36.7250 C   0  0  0  0  0  0  0  0  0  0  0  0
   32.9100   32.0980   37.4060 H   0  0  0  0  0  0  0  0  0  0  0  0
   33.7790   30.8990   35.7370 O   0  0  0  0  0  0  0  0  0  0  0  0
  1  6  1  0  0  0  0
  1 10  1  0  0  0  0
  2  1  2  0  0  0  0
  3  4  2  0  0  0  0
  3  2  1  0  0  0  0
  4  5  1  0  0  0  0
  5 26  1  0  0  0  0
  5  6  2  0  0  0  0
  7  2  1  0  0  0  0
  8  3  1  0  0  0  0
  9  4  1  0  0  0  0
 10 12  1  0  0  0  0
 10 21  1  0  0  0  0
 11 14  1  0  0  0  0
 11 10  1  0  0  0  0
 11 12  1  0  0  0  0
 12 15  1  0  0  0  0
 13 11  1  0  0  0  0
 16 12  1  0  0  0  0
 17 23  1  0  0  0  0
 17 18  1  0  0  0  0
 18 24  1  0  0  0  0
 19 18  2  0  0  0  0
 19 25  1  0  0  0  0
 20 19  1  0  0  0  0
 21 22  1  0  0  0  0
 21 20  2  0  0  0  0
 22 17  2  0  0  0  0
 26 30  2  0  0  0  0
 27 28  2  0  0  0  0
 27 26  1  0  0  0  0
 28 29  1  0  0  0  0
 29 30  1  0  0  0  0
 29 32  1  0  0  0  0
 31 28  1  0  0  0  0
 32 39  1  0  0  0  0
 32 33  2  0  0  0  0
 33 35  1  0  0  0  0
 34 33  1  0  0  0  0
 35 36  1  0  0  0  0
 37 35  2  0  0  0  0
 37 38  1  0  0  0  0
 39 37  1  0  0  0  0
M  END
>  <minimizedAffinity>
-5.93439245

$$$$

 OpenBabel03272505493D

 39 43  0  0  0  0  0  0  0  0999 V2000
   36.1570   28.7530   33.7320 C   0  0  0  0  0  0  0  0  0  0  0  0
   36.5060   28.7130   32.4310 C   0  0  0  0  0  0  0  0  0  0  0  0
   37.3240   27.7000   31.9550 C   0  0  0  0  0  0  0  0  0  0  0  0
   37.7690   26.7350   32.8550 C   0  0  0  0  0  0  0  0  0  0  0  0
   37.4000   26.7850   34.2090 C   0  0  0  0  0  0  0  0  0  0  0  0
   36.6010   27.8030   34.5940 N   0  0  0  0  0  0  0  0  0  0  0  0
   36.1700   29.4550   31.7120 H   0  0  0  0  0  0  0  0  0  0  0  0
   37.6470   27.5960   30.9380 H   0  0  0  0  0  0  0  0  0  0  0  0
   38.4120   25.9080   32.5710 H   0  0  0  0  0  0  0  0  0  0  0  0
   35.2670   29.8530   34.2590 C   0  0  0  0  0  0  0  0  0  0  0  0
   35.8160   30.7640   35.3030 C   0  0  0  0  0  0  0  0  0  0  0  0
   35.6220   31.2650   33.9040 C   0  0  0  0  0  0  0  0  0  0  0  0
   36.8640   30.5380   35.6150 H   0  0  0  0  0  0  0  0  0  0  0  0
   35.1700   31.0730   36.1230 H   0  0  0  0  0  0  0  0  0  0  0  0
   34.7680   31.9620   33.7890 H   0  0  0  0  0  0  0  0  0  0  0  0
   36.5490   31.4900   33.3380 H   0  0  0  0  0  0  0  0  0  0  0  0
   31.9360   28.8940   32.9930 C   0  0  0  0  0  0  0  0  0  0  0  0
   31.1850   28.7790   34.1840 C   0  0  0  0  0  0  0  0  0  0  0  0
   31.8340   29.0360   35.4250 C   0  0  0  0  0  0  0  0  0  0  0  0
   33.1370   29.3730   35.3760 N   0  0  0  0  0  0  0  0  0  0  0  0
   33.8430   29.4780   34.2250 C   0  0  0  0  0  0  0  0  0  0  0  0
   33.2490   29.2410   33.0440 N   0  0  0  0  0  0  0  0  0  0  0  0
   31.4390   28.6990   32.0500 H   0  0  0  0  0  0  0  0  0  0  0  0
   30.1400   28.5010   34.1120 H   0  0  0  0  0  0  0  0  0  0  0  0
   31.2550   28.9450   36.3160 H   0  0  0  0  0  0  0  0  0  0  0  0
   37.8420   25.7990   35.1830 C   0  0  0  0  0  0  0  0  0  0  0  0
   37.2590   25.3810   36.3360 N   0  0  0  0  0  0  0  0  0  0  0  0
   38.0380   24.4380   36.9250 C   0  0  0  0  0  0  0  0  0  0  0  0
   39.1250   24.2780   36.1080 N   0  0  0  0  0  0  0  0  0  0  0  0
   39.0060   25.0940   35.0640 N   0  0  0  0  0  0  0  0  0  0  0  0
   37.9080   23.8830   37.8360 H   0  0  0  0  0  0  0  0  0  0  0  0
   40.2680   23.4100   36.2400 C   0  0  0  0  0  0  0  0  0  0  0  0
   41.5070   23.3020   35.6370 C   0  0  0  0  0  0  0  0  0  0  0  0
   41.7530   24.0160   34.8570 H   0  0  0  0  0  0  0  0  0  0  0  0
   42.1030   22.2240   36.2670 C   0  0  0  0  0  0  0  0  0  0  0  0
   43.1160   21.9440   35.9450 H   0  0  0  0  0  0  0  0  0  0  0  0
   41.2050   21.7340   37.2140 C   0  0  0  0  0  0  0  0  0  0  0  0
   41.5870   20.8850   37.7590 H   0  0  0  0  0  0  0  0  0  0  0  0
   40.1410   22.4730   37.1530 O   0  0  0  0  0  0  0  0  0  0  0  0
  1 10  1  0  0  0  0
  1  6  1  0  0  0  0
  2  1  2  0  0  0  0
  3  2  1  0  0  0  0
  3  4  2  0  0  0  0
  4  5  1  0  0  0  0
  5  6  2  0  0  0  0
  5 26  1  0  0  0  0
  7  2  1  0  0  0  0
  8  3  1  0  0  0  0
  9  4  1  0  0  0  0
 10 11  1  0  0  0  0
 11 13  1  0  0  0  0
 11 14  1  0  0  0  0
 12 10  1  0  0  0  0
 12 11  1  0  0  0  0
 15 12  1  0  0  0  0
 16 12  1  0  0  0  0
 17 22  2  0  0  0  0
 17 18  1  0  0  0  0
 18 19  2  0  0  0  0
 19 25  1  0  0  0  0
 20 19  1  0  0  0  0
 21 10  1  0  0  0  0
 21 20  2  0  0  0  0
 22 21  1  0  0  0  0
 23 17  1  0  0  0  0
 24 18  1  0  0  0  0
 26 27  1  0  0  0  0
 27 28  2  0  0  0  0
 28 31  1  0  0  0  0
 29 32  1  0  0  0  0
 29 28  1  0  0  0  0
 30 26  2  0  0  0  0
 30 29  1  0  0  0  0
 32 39  1  0  0  0  0
 33 32  2  0  0  0  0
 33 35  1  0  0  0  0
 34 33  1  0  0  0  0
 35 37  2  0  0  0  0
 36 35  1  0  0  0  0
 37 38  1  0  0  0  0
 39 37  1  0  0  0  0
M  END
>  <minimizedAffinity>
-5.67068768

$$$$

 OpenBabel03272505493D

 39 43  0  0  0  0  0  0  0  0999 V2000
   35.8210   29.1640   32.1660 C   0  0  0  0  0  0  0  0  0  0  0  0
   36.3690   29.5320   30.9910 C   0  0  0  0  0  0  0  0  0  0  0  0
   37.3330   28.7400   30.3880 C   0  0  0  0  0  0  0  0  0  0  0  0
   37.7140   27.5630   31.0280 C   0  0  0  0  0  0  0  0  0  0  0  0
   37.1370   27.1880   32.2520 C   0  0  0  0  0  0  0  0  0  0  0  0
   36.2050   28.0130   32.7750 N   0  0  0  0  0  0  0  0  0  0  0  0
   36.0860   30.4450   30.4750 H   0  0  0  0  0  0  0  0  0  0  0  0
   37.8170   28.9600   29.4570 H   0  0  0  0  0  0  0  0  0  0  0  0
   38.4600   26.8840   30.6290 H   0  0  0  0  0  0  0  0  0  0  0  0
   34.7700   30.0210   32.8300 C   0  0  0  0  0  0  0  0  0  0  0  0
   33.5200   30.3160   32.0740 C   0  0  0  0  0  0  0  0  0  0  0  0
   33.4840   29.3610   33.2270 C   0  0  0  0  0  0  0  0  0  0  0  0
   33.4780   29.8720   31.0500 H   0  0  0  0  0  0  0  0  0  0  0  0
   33.0920   31.3150   32.1370 H   0  0  0  0  0  0  0  0  0  0  0  0
   32.9940   29.7670   34.1340 H   0  0  0  0  0  0  0  0  0  0  0  0
   33.2910   28.2990   32.9690 H   0  0  0  0  0  0  0  0  0  0  0  0
   36.1560   31.4950   35.9170 C   0  0  0  0  0  0  0  0  0  0  0  0
   36.4550   32.8140   35.5090 C   0  0  0  0  0  0  0  0  0  0  0  0
   36.1760   33.1920   34.1650 C   0  0  0  0  0  0  0  0  0  0  0  0
   35.6390   32.2510   33.3650 N   0  0  0  0  0  0  0  0  0  0  0  0
   35.3570   30.9900   33.7700 C   0  0  0  0  0  0  0  0  0  0  0  0
   35.6130   30.6150   35.0350 N   0  0  0  0  0  0  0  0  0  0  0  0
   36.3680   31.2120   36.9400 H   0  0  0  0  0  0  0  0  0  0  0  0
   36.8860   33.4940   36.2340 H   0  0  0  0  0  0  0  0  0  0  0  0
   36.4080   34.1900   33.8720 H   0  0  0  0  0  0  0  0  0  0  0  0
   37.5060   25.9690   32.9550 C   0  0  0  0  0  0  0  0  0  0  0  0
   37.7690   24.7240   32.4770 N   0  0  0  0  0  0  0  0  0  0  0  0
   38.0710   23.8950   33.5070 C   0  0  0  0  0  0  0  0  0  0  0  0
   37.9890   24.6540   34.6440 N   0  0  0  0  0  0  0  0  0  0  0  0
   37.6500   25.8970   34.3110 N   0  0  0  0  0  0  0  0  0  0  0  0
   38.3310   22.8520   33.5210 H   0  0  0  0  0  0  0  0  0  0  0  0
   38.2090   24.2920   36.0210 C   0  0  0  0  0  0  0  0  0  0  0  0
   37.7720   24.7520   37.2500 C   0  0  0  0  0  0  0  0  0  0  0  0
   37.0890   25.5950   37.2590 H   0  0  0  0  0  0  0  0  0  0  0  0
   38.3930   23.9230   38.1670 C   0  0  0  0  0  0  0  0  0  0  0  0
   38.1910   24.1030   39.2330 H   0  0  0  0  0  0  0  0  0  0  0  0
   39.1710   23.0080   37.4580 C   0  0  0  0  0  0  0  0  0  0  0  0
   39.6960   22.3170   38.0970 H   0  0  0  0  0  0  0  0  0  0  0  0
   39.0220   23.2750   36.1970 O   0  0  0  0  0  0  0  0  0  0  0  0
  1  6  1  0  0  0  0
  1 10  1  0  0  0  0
  2  1  2  0  0  0  0
  3  2  1  0  0  0  0
  3  4  2  0  0  0  0
  4  5  1  0  0  0  0
  5  6  2  0  0  0  0
  5 26  1  0  0  0  0
  7  2  1  0  0  0  0
  8  3  1  0  0  0  0
  9  4  1  0  0  0  0
 10 12  1  0  0  0  0
 10 21  1  0  0  0  0
 11 14  1  0  0  0  0
 11 10  1  0  0  0  0
 11 12  1  0  0  0  0
 12 15  1  0  0  0  0
 13 11  1  0  0  0  0
 16 12  1  0  0  0  0
 17 23  1  0  0  0  0
 18 17  1  0  0  0  0
 18 24  1  0  0  0  0
 19 18  2  0  0  0  0
 20 21  2  0  0  0  0
 20 19  1  0  0  0  0
 21 22  1  0  0  0  0
 22 17  2  0  0  0  0
 25 19  1  0  0  0  0
 26 30  2  0  0  0  0
 27 26  1  0  0  0  0
 27 28  2  0  0  0  0
 28 31  1  0  0  0  0
 28 29  1  0  0  0  0
 29 32  1  0  0  0  0
 30 29  1  0  0  0  0
 32 39  1  0  0  0  0
 32 33  2  0  0  0  0
 33 34  1  0  0  0  0
 33 35  1  0  0  0  0
 35 36  1  0  0  0  0
 37 38  1  0  0  0  0
 37 35  2  0  0  0  0
 39 37  1  0  0  0  0
M  END
>  <minimizedAffinity>
-5.6185708

$$$$

 OpenBabel03272505493D

 39 43  0  0  0  0  0  0  0  0999 V2000
   35.8250   29.2160   32.2370 C   0  0  0  0  0  0  0  0  0  0  0  0
   36.0520   29.1620   30.9100 C   0  0  0  0  0  0  0  0  0  0  0  0
   37.0220   28.3150   30.3970 C   0  0  0  0  0  0  0  0  0  0  0  0
   37.7480   27.5290   31.2890 C   0  0  0  0  0  0  0  0  0  0  0  0
   37.5030   27.5910   32.6700 C   0  0  0  0  0  0  0  0  0  0  0  0
   36.5430   28.4410   33.0910 N   0  0  0  0  0  0  0  0  0  0  0  0
   35.4980   29.7670   30.1980 H   0  0  0  0  0  0  0  0  0  0  0  0
   37.2650   28.2130   29.3580 H   0  0  0  0  0  0  0  0  0  0  0  0
   38.5250   26.8390   30.9770 H   0  0  0  0  0  0  0  0  0  0  0  0
   34.7700   30.1360   32.8040 C   0  0  0  0  0  0  0  0  0  0  0  0
   33.6060   30.4880   31.9430 C   0  0  0  0  0  0  0  0  0  0  0  0
   33.4220   29.5500   33.0960 C   0  0  0  0  0  0  0  0  0  0  0  0
   33.6260   30.0350   30.9230 H   0  0  0  0  0  0  0  0  0  0  0  0
   33.2300   31.5100   31.9620 H   0  0  0  0  0  0  0  0  0  0  0  0
   32.8800   29.9930   33.9560 H   0  0  0  0  0  0  0  0  0  0  0  0
   33.1930   28.4970   32.8310 H   0  0  0  0  0  0  0  0  0  0  0  0
   36.3930   33.1220   34.2430 C   0  0  0  0  0  0  0  0  0  0  0  0
   36.3650   32.8380   35.6270 C   0  0  0  0  0  0  0  0  0  0  0  0
   35.7860   31.6130   36.0600 C   0  0  0  0  0  0  0  0  0  0  0  0
   35.2960   30.7980   35.1070 N   0  0  0  0  0  0  0  0  0  0  0  0
   35.3290   31.0830   33.7830 C   0  0  0  0  0  0  0  0  0  0  0  0
   35.8730   32.2340   33.3540 N   0  0  0  0  0  0  0  0  0  0  0  0
   36.8360   34.0550   33.9170 H   0  0  0  0  0  0  0  0  0  0  0  0
   36.7880   33.5650   36.3110 H   0  0  0  0  0  0  0  0  0  0  0  0
   35.7710   31.4130   37.1070 H   0  0  0  0  0  0  0  0  0  0  0  0
   38.2370   26.7880   33.6370 C   0  0  0  0  0  0  0  0  0  0  0  0
   39.5750   26.6010   33.7890 N   0  0  0  0  0  0  0  0  0  0  0  0
   39.8020   25.7620   34.8310 C   0  0  0  0  0  0  0  0  0  0  0  0
   38.5690   25.4280   35.3270 N   0  0  0  0  0  0  0  0  0  0  0  0
   37.6330   26.0440   34.6090 N   0  0  0  0  0  0  0  0  0  0  0  0
   40.7180   25.3870   35.2480 H   0  0  0  0  0  0  0  0  0  0  0  0
   38.2120   24.5710   36.4280 C   0  0  0  0  0  0  0  0  0  0  0  0
   37.8180   23.2530   36.5720 C   0  0  0  0  0  0  0  0  0  0  0  0
   37.7350   22.6500   35.6740 H   0  0  0  0  0  0  0  0  0  0  0  0
   37.6360   23.0970   37.9350 C   0  0  0  0  0  0  0  0  0  0  0  0
   37.3150   22.1090   38.2950 H   0  0  0  0  0  0  0  0  0  0  0  0
   37.9250   24.3160   38.5470 C   0  0  0  0  0  0  0  0  0  0  0  0
   37.8090   24.2880   39.6190 H   0  0  0  0  0  0  0  0  0  0  0  0
   38.2590   25.1470   37.6080 O   0  0  0  0  0  0  0  0  0  0  0  0
  1 10  1  0  0  0  0
  1  6  1  0  0  0  0
  2  1  2  0  0  0  0
  3  2  1  0  0  0  0
  3  4  2  0  0  0  0
  4  5  1  0  0  0  0
  5  6  2  0  0  0  0
  5 26  1  0  0  0  0
  7  2  1  0  0  0  0
  8  3  1  0  0  0  0
  9  4  1  0  0  0  0
 10 12  1  0  0  0  0
 10 21  1  0  0  0  0
 11 14  1  0  0  0  0
 11 10  1  0  0  0  0
 11 12  1  0  0  0  0
 12 15  1  0  0  0  0
 13 11  1  0  0  0  0
 16 12  1  0  0  0  0
 17 18  1  0  0  0  0
 18 19  2  0  0  0  0
 18 24  1  0  0  0  0
 19 25  1  0  0  0  0
 20 19  1  0  0  0  0
 21 20  2  0  0  0  0
 22 21  1  0  0  0  0
 22 17  2  0  0  0  0
 23 17  1  0  0  0  0
 26 27  1  0  0  0  0
 26 30  2  0  0  0  0
 27 28  2  0  0  0  0
 28 31  1  0  0  0  0
 28 29  1  0  0  0  0
 29 32  1  0  0  0  0
 30 29  1  0  0  0  0
 32 33  2  0  0  0  0
 32 39  1  0  0  0  0
 33 35  1  0  0  0  0
 34 33  1  0  0  0  0
 35 36  1  0  0  0  0
 35 37  2  0  0  0  0
 37 38  1  0  0  0  0
 39 37  1  0  0  0  0
M  END
>  <minimizedAffinity>
-5.57800531

$$$$

 OpenBabel03272505493D

 39 43  0  0  0  0  0  0  0  0999 V2000
   35.7560   29.5100   33.0110 C   0  0  0  0  0  0  0  0  0  0  0  0
   36.1060   30.1380   31.8710 C   0  0  0  0  0  0  0  0  0  0  0  0
   36.8130   29.4640   30.8870 C   0  0  0  0  0  0  0  0  0  0  0  0
   37.1470   28.1310   31.1120 C   0  0  0  0  0  0  0  0  0  0  0  0
   36.7780   27.4850   32.3040 C   0  0  0  0  0  0  0  0  0  0  0  0
   36.0920   28.2090   33.2120 N   0  0  0  0  0  0  0  0  0  0  0  0
   35.8550   31.1760   31.6750 H   0  0  0  0  0  0  0  0  0  0  0  0
   37.1280   29.8880   29.9550 H   0  0  0  0  0  0  0  0  0  0  0  0
   37.6980   27.5270   30.3990 H   0  0  0  0  0  0  0  0  0  0  0  0
   34.9870   30.2360   34.0880 C   0  0  0  0  0  0  0  0  0  0  0  0
   35.7400   30.7490   35.2680 C   0  0  0  0  0  0  0  0  0  0  0  0
   35.2240   31.7080   34.2400 C   0  0  0  0  0  0  0  0  0  0  0  0
   36.8350   30.5340   35.2520 H   0  0  0  0  0  0  0  0  0  0  0  0
   35.2890   30.6620   36.2560 H   0  0  0  0  0  0  0  0  0  0  0  0
   34.3520   32.3050   34.5760 H   0  0  0  0  0  0  0  0  0  0  0  0
   35.9940   32.2230   33.6290 H   0  0  0  0  0  0  0  0  0  0  0  0
   31.5840   29.1410   33.1710 C   0  0  0  0  0  0  0  0  0  0  0  0
   31.0140   28.8510   34.4320 C   0  0  0  0  0  0  0  0  0  0  0  0
   31.8090   29.0370   35.5970 C   0  0  0  0  0  0  0  0  0  0  0  0
   33.0680   29.4810   35.4150 N   0  0  0  0  0  0  0  0  0  0  0  0
   33.6000   29.7540   34.2000 C   0  0  0  0  0  0  0  0  0  0  0  0
   32.8650   29.5860   33.0880 N   0  0  0  0  0  0  0  0  0  0  0  0
   30.9750   29.0000   32.2860 H   0  0  0  0  0  0  0  0  0  0  0  0
   29.9900   28.4990   34.4670 H   0  0  0  0  0  0  0  0  0  0  0  0
   31.3660   28.8140   36.5410 H   0  0  0  0  0  0  0  0  0  0  0  0
   37.1070   26.0950   32.5800 C   0  0  0  0  0  0  0  0  0  0  0  0
   38.0240   25.5610   33.4280 N   0  0  0  0  0  0  0  0  0  0  0  0
   37.9790   24.2060   33.3540 C   0  0  0  0  0  0  0  0  0  0  0  0
   37.0080   23.9080   32.4360 N   0  0  0  0  0  0  0  0  0  0  0  0
   36.4870   25.0410   31.9730 N   0  0  0  0  0  0  0  0  0  0  0  0
   38.5450   23.4530   33.8690 H   0  0  0  0  0  0  0  0  0  0  0  0
   36.5370   22.6300   31.9640 C   0  0  0  0  0  0  0  0  0  0  0  0
   35.3710   21.8970   32.0820 C   0  0  0  0  0  0  0  0  0  0  0  0
   34.5610   22.3290   32.6610 H   0  0  0  0  0  0  0  0  0  0  0  0
   35.6180   20.7410   31.3630 C   0  0  0  0  0  0  0  0  0  0  0  0
   34.8150   19.9920   31.3150 H   0  0  0  0  0  0  0  0  0  0  0  0
   36.9110   20.8270   30.8490 C   0  0  0  0  0  0  0  0  0  0  0  0
   37.1920   19.9620   30.2690 H   0  0  0  0  0  0  0  0  0  0  0  0
   37.4040   21.9620   31.2360 O   0  0  0  0  0  0  0  0  0  0  0  0
  1  6  1  0  0  0  0
  1 10  1  0  0  0  0
  2  1  2  0  0  0  0
  3  4  2  0  0  0  0
  3  2  1  0  0  0  0
  4  5  1  0  0  0  0
  5 26  1  0  0  0  0
  5  6  2  0  0  0  0
  7  2  1  0  0  0  0
  8  3  1  0  0  0  0
  9  4  1  0  0  0  0
 10 21  1  0  0  0  0
 10 12  1  0  0  0  0
 10 11  1  0  0  0  0
 11 14  1  0  0  0  0
 12 15  1  0  0  0  0
 12 11  1  0  0  0  0
 13 11  1  0  0  0  0
 16 12  1  0  0  0  0
 17 18  1  0  0  0  0
 18 24  1  0  0  0  0
 18 19  2  0  0  0  0
 19 25  1  0  0  0  0
 20 19  1  0  0  0  0
 21 20  2  0  0  0  0
 22 17  2  0  0  0  0
 22 21  1  0  0  0  0
 23 17  1  0  0  0  0
 26 27  1  0  0  0  0
 28 27  2  0  0  0  0
 28 31  1  0  0  0  0
 29 28  1  0  0  0  0
 30 29  1  0  0  0  0
 30 26  2  0  0  0  0
 32 33  2  0  0  0  0
 32 29  1  0  0  0  0
 33 34  1  0  0  0  0
 35 33  1  0  0  0  0
 36 35  1  0  0  0  0
 37 39  1  0  0  0  0
 37 35  2  0  0  0  0
 38 37  1  0  0  0  0
 39 32  1  0  0  0  0
M  END
>  <minimizedAffinity>
-5.56832504

$$$$

 OpenBabel03272505493D

 39 43  0  0  0  0  0  0  0  0999 V2000
   34.4390   29.6260   33.0650 C   0  0  0  0  0  0  0  0  0  0  0  0
   34.8520   29.8930   31.8100 C   0  0  0  0  0  0  0  0  0  0  0  0
   36.0540   29.3830   31.3440 C   0  0  0  0  0  0  0  0  0  0  0  0
   36.8140   28.5950   32.2050 C   0  0  0  0  0  0  0  0  0  0  0  0
   36.3750   28.3230   33.5110 C   0  0  0  0  0  0  0  0  0  0  0  0
   35.1940   28.8560   33.8900 N   0  0  0  0  0  0  0  0  0  0  0  0
   34.2750   30.5040   31.1230 H   0  0  0  0  0  0  0  0  0  0  0  0
   36.4530   29.5460   30.3630 H   0  0  0  0  0  0  0  0  0  0  0  0
   37.7650   28.1560   31.9250 H   0  0  0  0  0  0  0  0  0  0  0  0
   33.1320   30.1770   33.5820 C   0  0  0  0  0  0  0  0  0  0  0  0
   32.0760   30.5310   32.5910 C   0  0  0  0  0  0  0  0  0  0  0  0
   31.9140   29.3150   33.4490 C   0  0  0  0  0  0  0  0  0  0  0  0
   32.3600   30.3610   31.5250 H   0  0  0  0  0  0  0  0  0  0  0  0
   31.4890   31.4340   32.7500 H   0  0  0  0  0  0  0  0  0  0  0  0
   31.1550   29.4260   34.2510 H   0  0  0  0  0  0  0  0  0  0  0  0
   31.9650   28.3400   32.9220 H   0  0  0  0  0  0  0  0  0  0  0  0
   32.8700   31.1570   37.1300 C   0  0  0  0  0  0  0  0  0  0  0  0
   33.6370   32.3430   37.1690 C   0  0  0  0  0  0  0  0  0  0  0  0
   34.2430   32.8030   35.9670 C   0  0  0  0  0  0  0  0  0  0  0  0
   34.0410   32.0630   34.8590 N   0  0  0  0  0  0  0  0  0  0  0  0
   33.3030   30.9280   34.8370 C   0  0  0  0  0  0  0  0  0  0  0  0
   32.7230   30.4780   35.9620 N   0  0  0  0  0  0  0  0  0  0  0  0
   32.4090   30.8110   38.0470 H   0  0  0  0  0  0  0  0  0  0  0  0
   33.7360   32.8620   38.1150 H   0  0  0  0  0  0  0  0  0  0  0  0
   34.8190   33.6980   36.0120 H   0  0  0  0  0  0  0  0  0  0  0  0
   37.1370   27.5060   34.4430 C   0  0  0  0  0  0  0  0  0  0  0  0
   37.8230   27.8570   35.5620 N   0  0  0  0  0  0  0  0  0  0  0  0
   38.3830   26.7530   36.1180 C   0  0  0  0  0  0  0  0  0  0  0  0
   38.0290   25.7010   35.3170 N   0  0  0  0  0  0  0  0  0  0  0  0
   37.2820   26.1540   34.3140 N   0  0  0  0  0  0  0  0  0  0  0  0
   38.9900   26.6370   36.9980 H   0  0  0  0  0  0  0  0  0  0  0  0
   38.3440   24.3000   35.4290 C   0  0  0  0  0  0  0  0  0  0  0  0
   38.1160   23.1670   34.6700 C   0  0  0  0  0  0  0  0  0  0  0  0
   37.5680   23.2850   33.7410 H   0  0  0  0  0  0  0  0  0  0  0  0
   38.7070   22.1450   35.3910 C   0  0  0  0  0  0  0  0  0  0  0  0
   38.6520   21.1300   34.9730 H   0  0  0  0  0  0  0  0  0  0  0  0
   39.2610   22.7020   36.5440 C   0  0  0  0  0  0  0  0  0  0  0  0
   39.7480   21.9730   37.1720 H   0  0  0  0  0  0  0  0  0  0  0  0
   39.0150   23.9750   36.5110 O   0  0  0  0  0  0  0  0  0  0  0  0
  1 10  1  0  0  0  0
  1  6  1  0  0  0  0
  2  1  2  0  0  0  0
  3  2  1  0  0  0  0
  3  4  2  0  0  0  0
  4  5  1  0  0  0  0
  5  6  2  0  0  0  0
  5 26  1  0  0  0  0
  7  2  1  0  0  0  0
  8  3  1  0  0  0  0
  9  4  1  0  0  0  0
 10 21  1  0  0  0  0
 11 14  1  0  0  0  0
 11 12  1  0  0  0  0
 11 10  1  0  0  0  0
 12 10  1  0  0  0  0
 12 15  1  0  0  0  0
 13 11  1  0  0  0  0
 16 12  1  0  0  0  0
 17 18  1  0  0  0  0
 17 23  1  0  0  0  0
 18 24  1  0  0  0  0
 19 25  1  0  0  0  0
 19 18  2  0  0  0  0
 20 19  1  0  0  0  0
 21 20  2  0  0  0  0
 21 22  1  0  0  0  0
 22 17  2  0  0  0  0
 26 27  1  0  0  0  0
 27 28  2  0  0  0  0
 28 31  1  0  0  0  0
 29 32  1  0  0  0  0
 29 28  1  0  0  0  0
 30 26  2  0  0  0  0
 30 29  1  0  0  0  0
 32 39  1  0  0  0  0
 33 35  1  0  0  0  0
 33 32  2  0  0  0  0
 34 33  1  0  0  0  0
 35 37  2  0  0  0  0
 36 35  1  0  0  0  0
 37 38  1  0  0  0  0
 39 37  1  0  0  0  0
M  END
>  <minimizedAffinity>
-5.55730534

$$$$

 OpenBabel03272505493D

 39 43  0  0  0  0  0  0  0  0999 V2000
   38.3480   24.7130   32.9970 C   0  0  0  0  0  0  0  0  0  0  0  0
   39.3690   24.9280   32.1440 C   0  0  0  0  0  0  0  0  0  0  0  0
   39.4870   26.1410   31.4840 C   0  0  0  0  0  0  0  0  0  0  0  0
   38.5280   27.1210   31.7290 C   0  0  0  0  0  0  0  0  0  0  0  0
   37.4680   26.8870   32.6200 C   0  0  0  0  0  0  0  0  0  0  0  0
   37.4220   25.6800   33.2220 N   0  0  0  0  0  0  0  0  0  0  0  0
   40.1270   24.1790   31.9400 H   0  0  0  0  0  0  0  0  0  0  0  0
   40.2660   26.3930   30.7930 H   0  0  0  0  0  0  0  0  0  0  0  0
   38.5420   28.0980   31.2570 H   0  0  0  0  0  0  0  0  0  0  0  0
   38.2100   23.3940   33.7200 C   0  0  0  0  0  0  0  0  0  0  0  0
   39.4250   22.8100   34.3560 C   0  0  0  0  0  0  0  0  0  0  0  0
   38.3470   23.4020   35.2120 C   0  0  0  0  0  0  0  0  0  0  0  0
   40.3550   23.4130   34.2290 H   0  0  0  0  0  0  0  0  0  0  0  0
   39.5860   21.7350   34.2910 H   0  0  0  0  0  0  0  0  0  0  0  0
   37.7390   22.6520   35.7560 H   0  0  0  0  0  0  0  0  0  0  0  0
   38.6150   24.3340   35.7510 H   0  0  0  0  0  0  0  0  0  0  0  0
   35.6540   22.1070   31.3890 C   0  0  0  0  0  0  0  0  0  0  0  0
   35.1870   20.9570   32.0640 C   0  0  0  0  0  0  0  0  0  0  0  0
   35.7580   20.6290   33.3260 C   0  0  0  0  0  0  0  0  0  0  0  0
   36.7180   21.4490   33.7950 N   0  0  0  0  0  0  0  0  0  0  0  0
   37.1550   22.5490   33.1360 C   0  0  0  0  0  0  0  0  0  0  0  0
   36.6280   22.8760   31.9440 N   0  0  0  0  0  0  0  0  0  0  0  0
   35.2170   22.3550   30.4300 H   0  0  0  0  0  0  0  0  0  0  0  0
   34.4090   20.3650   31.5970 H   0  0  0  0  0  0  0  0  0  0  0  0
   35.3960   19.7580   33.8230 H   0  0  0  0  0  0  0  0  0  0  0  0
   36.4440   27.8810   32.9040 C   0  0  0  0  0  0  0  0  0  0  0  0
   35.3230   28.2110   32.2100 N   0  0  0  0  0  0  0  0  0  0  0  0
   34.6620   29.2040   32.8580 C   0  0  0  0  0  0  0  0  0  0  0  0
   35.4020   29.4870   33.9750 N   0  0  0  0  0  0  0  0  0  0  0  0
   36.4690   28.6940   34.0010 N   0  0  0  0  0  0  0  0  0  0  0  0
   33.7490   29.7170   32.6180 H   0  0  0  0  0  0  0  0  0  0  0  0
   35.1730   30.4530   35.0210 C   0  0  0  0  0  0  0  0  0  0  0  0
   35.9570   31.3170   35.7620 C   0  0  0  0  0  0  0  0  0  0  0  0
   37.0240   31.3280   35.5610 H   0  0  0  0  0  0  0  0  0  0  0  0
   35.0630   31.9570   36.6020 C   0  0  0  0  0  0  0  0  0  0  0  0
   35.4670   32.7060   37.2980 H   0  0  0  0  0  0  0  0  0  0  0  0
   33.7910   31.4540   36.3330 C   0  0  0  0  0  0  0  0  0  0  0  0
   33.0230   31.8990   36.9460 H   0  0  0  0  0  0  0  0  0  0  0  0
   33.9180   30.5700   35.3920 O   0  0  0  0  0  0  0  0  0  0  0  0
  1  6  1  0  0  0  0
  1 10  1  0  0  0  0
  2  1  2  0  0  0  0
  3  4  2  0  0  0  0
  3  2  1  0  0  0  0
  4  5  1  0  0  0  0
  5 26  1  0  0  0  0
  5  6  2  0  0  0  0
  7  2  1  0  0  0  0
  8  3  1  0  0  0  0
  9  4  1  0  0  0  0
 10 11  1  0  0  0  0
 10 12  1  0  0  0  0
 11 12  1  0  0  0  0
 12 16  1  0  0  0  0
 12 15  1  0  0  0  0
 13 11  1  0  0  0  0
 14 11  1  0  0  0  0
 17 22  2  0  0  0  0
 17 18  1  0  0  0  0
 18 19  2  0  0  0  0
 19 20  1  0  0  0  0
 19 25  1  0  0  0  0
 21 10  1  0  0  0  0
 21 20  2  0  0  0  0
 22 21  1  0  0  0  0
 23 17  1  0  0  0  0
 24 18  1  0  0  0  0
 26 30  2  0  0  0  0
 27 28  2  0  0  0  0
 27 26  1  0  0  0  0
 28 29  1  0  0  0  0
 29 30  1  0  0  0  0
 29 32  1  0  0  0  0
 31 28  1  0  0  0  0
 32 39  1  0  0  0  0
 32 33  2  0  0  0  0
 33 35  1  0  0  0  0
 34 33  1  0  0  0  0
 35 36  1  0  0  0  0
 37 35  2  0  0  0  0
 37 38  1  0  0  0  0
 39 37  1  0  0  0  0
M  END
>  <minimizedAffinity>
-5.54581594

$$$$
