
 OpenBabel03272500123D

 20 21  0  0  0  0  0  0  0  0999 V2000
   35.4520   29.2890   50.5630 C   0  0  0  0  0  0  0  0  0  0  0  0
   36.1780   30.1560   49.7270 C   0  0  0  0  0  0  0  0  0  0  0  0
   35.9080   30.1470   48.3550 C   0  0  0  0  0  0  0  0  0  0  0  0
   34.9520   29.2960   47.8870 N   0  0  0  0  0  0  0  0  0  0  0  0
   34.2700   28.4740   48.7200 C   0  0  0  0  0  0  0  0  0  0  0  0
   34.5140   28.4680   50.0330 N   0  0  0  0  0  0  0  0  0  0  0  0
   35.6670   29.3040   51.6160 H   0  0  0  0  0  0  0  0  0  0  0  0
   36.4550   30.8020   47.7240 H   0  0  0  0  0  0  0  0  0  0  0  0
   33.2390   27.5490   48.2590 C   0  0  0  0  0  0  0  0  0  0  0  0
   31.8920   27.6410   48.5490 C   0  0  0  0  0  0  0  0  0  0  0  0
   31.3670   28.3690   49.1360 H   0  0  0  0  0  0  0  0  0  0  0  0
   31.2980   26.5680   47.9130 C   0  0  0  0  0  0  0  0  0  0  0  0
   30.2640   26.2500   47.8680 H   0  0  0  0  0  0  0  0  0  0  0  0
   32.3000   25.8730   47.2670 C   0  0  0  0  0  0  0  0  0  0  0  0
   32.3160   24.9800   46.6510 H   0  0  0  0  0  0  0  0  0  0  0  0
   33.4220   26.4990   47.5070 O   0  0  0  0  0  0  0  0  0  0  0  0
   37.2070   31.0470   50.3510 C   0  0  0  0  0  0  0  0  0  0  0  0
   38.3980   31.0200   49.6000 F   0  0  0  0  0  0  0  0  0  0  0  0
   36.7400   32.3350   50.3160 F   0  0  0  0  0  0  0  0  0  0  0  0
   37.5180   30.6860   51.6360 F   0  0  0  0  0  0  0  0  0  0  0  0
  1  7  1  0  0  0  0
  2 17  1  0  0  0  0
  2  1  2  0  0  0  0
  3  2  1  0  0  0  0
  4  3  2  0  0  0  0
  4  5  1  0  0  0  0
  5  6  2  0  0  0  0
  6  1  1  0  0  0  0
  8  3  1  0  0  0  0
  9 10  2  0  0  0  0
  9  5  1  0  0  0  0
 10 11  1  0  0  0  0
 12 10  1  0  0  0  0
 13 12  1  0  0  0  0
 14 16  1  0  0  0  0
 14 12  2  0  0  0  0
 15 14  1  0  0  0  0
 16  9  1  0  0  0  0
 17 20  1  0  0  0  0
 18 17  1  0  0  0  0
 19 17  1  0  0  0  0
M  END
>  <minimizedAffinity>
-4.84686375

>  <minimizedRMSD>
0.775649309

$$$$
