
 OpenBabel03272505493D

 39 43  0  0  0  0  0  0  0  0999 V2000
   36.4670   30.4460   46.1890 C   0  0  0  0  0  0  0  0  0  0  0  0
   36.9930   30.9310   47.3310 C   0  0  0  0  0  0  0  0  0  0  0  0
   36.3950   30.6560   48.5510 C   0  0  0  0  0  0  0  0  0  0  0  0
   35.2450   29.8700   48.5590 C   0  0  0  0  0  0  0  0  0  0  0  0
   34.7050   29.3690   47.3640 C   0  0  0  0  0  0  0  0  0  0  0  0
   35.3440   29.6810   46.2180 N   0  0  0  0  0  0  0  0  0  0  0  0
   37.8880   31.5450   47.3470 H   0  0  0  0  0  0  0  0  0  0  0  0
   36.7490   31.0020   49.5020 H   0  0  0  0  0  0  0  0  0  0  0  0
   34.7130   29.6060   49.4670 H   0  0  0  0  0  0  0  0  0  0  0  0
   37.1100   30.7400   44.8550 C   0  0  0  0  0  0  0  0  0  0  0  0
   36.7890   29.8470   43.7060 C   0  0  0  0  0  0  0  0  0  0  0  0
   36.2260   31.2340   43.7510 C   0  0  0  0  0  0  0  0  0  0  0  0
   36.0890   29.0110   43.9450 H   0  0  0  0  0  0  0  0  0  0  0  0
   37.5870   29.5680   43.0190 H   0  0  0  0  0  0  0  0  0  0  0  0
   36.6980   31.9360   43.0340 H   0  0  0  0  0  0  0  0  0  0  0  0
   35.1280   31.3060   43.8940 H   0  0  0  0  0  0  0  0  0  0  0  0
   39.7570   33.3050   45.0360 C   0  0  0  0  0  0  0  0  0  0  0  0
   40.9100   32.5270   45.2870 C   0  0  0  0  0  0  0  0  0  0  0  0
   40.7690   31.1150   45.3930 C   0  0  0  0  0  0  0  0  0  0  0  0
   39.5280   30.6120   45.2460 N   0  0  0  0  0  0  0  0  0  0  0  0
   38.4330   31.3710   45.0040 C   0  0  0  0  0  0  0  0  0  0  0  0
   38.5450   32.7050   44.9000 N   0  0  0  0  0  0  0  0  0  0  0  0
   39.8680   34.3800   44.9540 H   0  0  0  0  0  0  0  0  0  0  0  0
   41.8620   33.0340   45.3900 H   0  0  0  0  0  0  0  0  0  0  0  0
   41.6470   30.5420   45.5840 H   0  0  0  0  0  0  0  0  0  0  0  0
   33.5060   28.5450   47.3270 C   0  0  0  0  0  0  0  0  0  0  0  0
   33.1590   27.5360   46.4860 N   0  0  0  0  0  0  0  0  0  0  0  0
   31.9390   27.0540   46.8320 C   0  0  0  0  0  0  0  0  0  0  0  0
   31.5310   27.7890   47.9130 N   0  0  0  0  0  0  0  0  0  0  0  0
   32.4720   28.6820   48.2080 N   0  0  0  0  0  0  0  0  0  0  0  0
   31.3450   26.2660   46.4050 H   0  0  0  0  0  0  0  0  0  0  0  0
   30.3180   27.7090   48.6870 C   0  0  0  0  0  0  0  0  0  0  0  0
   29.8920   26.9970   49.7930 C   0  0  0  0  0  0  0  0  0  0  0  0
   30.5920   26.3040   50.2450 H   0  0  0  0  0  0  0  0  0  0  0  0
   28.5920   27.4250   49.9960 C   0  0  0  0  0  0  0  0  0  0  0  0
   28.0390   26.9870   50.8380 H   0  0  0  0  0  0  0  0  0  0  0  0
   28.2940   28.3690   49.0130 C   0  0  0  0  0  0  0  0  0  0  0  0
   27.2940   28.7610   49.0940 H   0  0  0  0  0  0  0  0  0  0  0  0
   29.3500   28.4950   48.2700 O   0  0  0  0  0  0  0  0  0  0  0  0
  1  6  2  0  0  0  0
  1  2  1  0  0  0  0
  2  7  1  0  0  0  0
  2  3  2  0  0  0  0
  3  4  1  0  0  0  0
  3  8  1  0  0  0  0
  4  9  1  0  0  0  0
  5  4  2  0  0  0  0
  6  5  1  0  0  0  0
 10 21  1  0  0  0  0
 10  1  1  0  0  0  0
 11 12  1  0  0  0  0
 11 13  1  0  0  0  0
 11 10  1  0  0  0  0
 12 16  1  0  0  0  0
 12 10  1  0  0  0  0
 14 11  1  0  0  0  0
 15 12  1  0  0  0  0
 17 18  1  0  0  0  0
 18 24  1  0  0  0  0
 18 19  2  0  0  0  0
 19 25  1  0  0  0  0
 20 19  1  0  0  0  0
 21 20  2  0  0  0  0
 22 21  1  0  0  0  0
 22 17  2  0  0  0  0
 23 17  1  0  0  0  0
 26  5  1  0  0  0  0
 26 30  2  0  0  0  0
 27 28  2  0  0  0  0
 27 26  1  0  0  0  0
 28 29  1  0  0  0  0
 29 30  1  0  0  0  0
 29 32  1  0  0  0  0
 31 28  1  0  0  0  0
 32 33  2  0  0  0  0
 33 35  1  0  0  0  0
 33 34  1  0  0  0  0
 35 36  1  0  0  0  0
 37 38  1  0  0  0  0
 37 35  2  0  0  0  0
 39 32  1  0  0  0  0
 39 37  1  0  0  0  0
M  END
>  <minimizedAffinity>
-5.54472351

>  <minimizedRMSD>
1.06886065

$$$$
