
 OpenBabel03272507293D

 40 42  0  0  1  0  0  0  0  0999 V2000
   37.2200   30.0240   48.7990 C   0  0  0  0  0  0  0  0  0  0  0  0
   38.1850   30.5290   47.9060 C   0  0  0  0  0  0  0  0  0  0  0  0
   37.7310   30.9080   46.6410 C   0  0  0  0  0  0  0  0  0  0  0  0
   36.4300   30.7790   46.3440 N   0  0  0  0  0  0  0  0  0  0  0  0
   35.5370   30.2910   47.2290 C   0  0  0  0  0  0  0  0  0  0  0  0
   35.9310   29.9190   48.4440 N   0  0  0  0  0  0  0  0  0  0  0  0
   38.6200   31.4070   45.6930 N   0  0  0  0  0  0  0  0  0  0  0  0
   39.8460   32.1990   45.9810 C   0  0  0  0  0  0  0  0  0  0  0  0
   40.3450   32.7540   44.7040 C   0  0  0  0  0  0  0  0  0  0  0  0
   39.2020   32.6220   43.8040 C   0  0  0  0  0  0  0  0  0  0  0  0
   38.6280   31.3390   44.2660 C   0  0  2  0  0  0  0  0  0  0  0  0
   37.6030   29.7390   49.7700 H   0  0  0  0  0  0  0  0  0  0  0  0
   39.2350   30.6430   48.1210 H   0  0  0  0  0  0  0  0  0  0  0  0
   34.4770   30.1580   47.0630 H   0  0  0  0  0  0  0  0  0  0  0  0
   40.5260   31.7640   46.6810 H   0  0  0  0  0  0  0  0  0  0  0  0
   39.3680   33.0470   46.6020 H   0  0  0  0  0  0  0  0  0  0  0  0
   41.3480   32.6730   44.3830 H   0  0  0  0  0  0  0  0  0  0  0  0
   40.3320   33.9280   44.9100 H   0  0  0  0  0  0  0  0  0  0  0  0
   38.4510   33.4220   43.8170 H   0  0  0  0  0  0  0  0  0  0  0  0
   39.5520   32.5340   42.7350 H   0  0  0  0  0  0  0  0  0  0  0  0
   37.2480   31.1240   43.6390 C   0  0  0  0  0  0  0  0  0  0  0  0
   36.4730   32.2290   43.9240 F   0  0  0  0  0  0  0  0  0  0  0  0
   36.5610   30.0380   44.0850 F   0  0  0  0  0  0  0  0  0  0  0  0
   37.4360   31.1250   42.2710 F   0  0  0  0  0  0  0  0  0  0  0  0
   39.4130   30.1960   43.8870 C   0  0  2  0  0  0  0  0  0  0  0  0
   40.2990   30.0940   44.4850 H   0  0  0  0  0  0  0  0  0  0  0  0
   40.1350   30.2220   42.4770 C   0  0  0  0  0  0  0  0  0  0  0  0
   41.3400   29.4950   42.2450 C   0  0  0  0  0  0  0  0  0  0  0  0
   41.9010   28.8680   42.9620 H   0  0  0  0  0  0  0  0  0  0  0  0
   41.7770   29.6560   40.9510 C   0  0  0  0  0  0  0  0  0  0  0  0
   42.6490   29.2360   40.4830 H   0  0  0  0  0  0  0  0  0  0  0  0
   40.8040   30.4840   40.4510 C   0  0  0  0  0  0  0  0  0  0  0  0
   40.7280   30.8860   39.4550 H   0  0  0  0  0  0  0  0  0  0  0  0
   39.8950   30.7870   41.3220 O   0  0  0  0  0  0  0  0  0  0  0  0
   38.6320   29.2240   43.7270 O   0  0  0  0  0  0  0  0  0  0  0  0
   38.6350   27.9640   43.2600 C   0  0  0  0  0  0  0  0  0  0  0  0
   37.7000   27.7510   42.4850 O   0  0  0  0  0  0  0  0  0  0  0  0
   39.2560   26.6850   43.2360 N   0  0  0  0  0  0  0  0  0  0  0  0
   40.0680   26.6540   42.5750 H   0  0  0  0  0  0  0  0  0  0  0  0
   38.9460   25.8660   43.8030 H   0  0  0  0  0  0  0  0  0  0  0  0
  1 12  1  0  0  0  0
  2 13  1  0  0  0  0
  2  1  2  0  0  0  0
  3  2  1  0  0  0  0
  4  3  2  0  0  0  0
  4  5  1  0  0  0  0
  5  6  2  0  0  0  0
  6  1  1  0  0  0  0
  7  8  1  0  0  0  0
  7  3  1  0  0  0  0
  8 16  1  0  0  0  0
  8 15  1  0  0  0  0
  9 18  1  0  0  0  0
  9  8  1  0  0  0  0
 10 19  1  0  0  0  0
 10 11  1  0  0  0  0
 10  9  1  0  0  0  0
 11 21  1  6  0  0  0
 11  7  1  0  0  0  0
 14  5  1  0  0  0  0
 17  9  1  0  0  0  0
 20 10  1  0  0  0  0
 21 22  1  0  0  0  0
 21 23  1  0  0  0  0
 24 21  1  0  0  0  0
 25 11  1  0  0  0  0
 25 26  1  1  0  0  0
 27 25  1  0  0  0  0
 28 27  2  0  0  0  0
 28 29  1  0  0  0  0
 30 28  1  0  0  0  0
 31 30  1  0  0  0  0
 32 30  2  0  0  0  0
 32 34  1  0  0  0  0
 33 32  1  0  0  0  0
 34 27  1  0  0  0  0
 35 25  1  0  0  0  0
 36 35  1  0  0  0  0
 37 36  2  0  0  0  0
 38 36  1  0  0  0  0
 38 40  1  0  0  0  0
 39 38  1  0  0  0  0
M  END
>  <minimizedAffinity>
-4.81514788

>  <minimizedRMSD>
2.81228113

$$$$
