
 OpenBabel03272506433D

 31 33  0  0  1  0  0  0  0  0999 V2000
   32.3780   28.3220   47.5810 C   0  0  2  0  0  0  0  0  0  0  0  0
   33.6480   28.3630   48.3940 C   0  0  1  0  0  0  0  0  0  0  0  0
   34.2110   27.1060   48.3400 O   0  0  0  0  0  0  0  0  0  0  0  0
   33.5390   26.3500   47.3930 C   0  0  0  0  0  0  0  0  0  0  0  0
   32.7910   27.3390   46.5010 C   0  0  1  0  0  0  0  0  0  0  0  0
   31.4970   27.9980   48.1590 H   0  0  0  0  0  0  0  0  0  0  0  0
   33.4600   28.7100   49.4300 H   0  0  0  0  0  0  0  0  0  0  0  0
   34.2380   25.7770   46.7650 H   0  0  0  0  0  0  0  0  0  0  0  0
   32.7850   25.7430   47.9170 H   0  0  0  0  0  0  0  0  0  0  0  0
   33.4500   27.8680   45.8120 H   0  0  0  0  0  0  0  0  0  0  0  0
   32.1000   29.5880   47.0430 O   0  0  0  0  0  0  0  0  0  0  0  0
   31.3400   29.5530   46.4410 H   0  0  0  0  0  0  0  0  0  0  0  0
   34.7900   29.5140   47.5510 S   0  0  0  0  0  0  0  0  0  0  0  0
   37.3860   29.4840   50.5500 C   0  0  0  0  0  0  0  0  0  0  0  0
   37.9920   30.7320   50.5080 C   0  0  0  0  0  0  0  0  0  0  0  0
   37.5930   31.6310   49.5190 C   0  0  0  0  0  0  0  0  0  0  0  0
   36.6240   31.2470   48.6320 N   0  0  0  0  0  0  0  0  0  0  0  0
   36.0600   30.0160   48.7130 C   0  0  0  0  0  0  0  0  0  0  0  0
   36.4290   29.1290   49.6610 N   0  0  0  0  0  0  0  0  0  0  0  0
   37.7360   28.8380   51.3330 H   0  0  0  0  0  0  0  0  0  0  0  0
   38.7600   31.0490   51.2020 H   0  0  0  0  0  0  0  0  0  0  0  0
   38.0000   32.6180   49.4020 H   0  0  0  0  0  0  0  0  0  0  0  0
   31.7170   26.7110   45.9000 O   0  0  0  0  0  0  0  0  0  0  0  0
   31.1370   27.0550   44.6970 C   0  0  0  0  0  0  0  0  0  0  0  0
   29.8710   27.6340   44.7950 C   0  0  0  0  0  0  0  0  0  0  0  0
   29.2090   27.8880   45.6250 H   0  0  0  0  0  0  0  0  0  0  0  0
   29.4470   27.9110   43.4910 C   0  0  0  0  0  0  0  0  0  0  0  0
   28.5470   28.3530   43.0800 H   0  0  0  0  0  0  0  0  0  0  0  0
   30.5120   27.4670   42.7110 C   0  0  0  0  0  0  0  0  0  0  0  0
   30.5320   27.5250   41.6160 H   0  0  0  0  0  0  0  0  0  0  0  0
   31.4760   26.9750   43.4510 O   0  0  0  0  0  0  0  0  0  0  0  0
  1  6  1  1  0  0  0
  1  2  1  0  0  0  0
  2  7  1  1  0  0  0
  3  2  1  0  0  0  0
  4  9  1  0  0  0  0
  4  3  1  0  0  0  0
  5 10  1  6  0  0  0
  5  4  1  0  0  0  0
  5  1  1  0  0  0  0
  8  4  1  0  0  0  0
 11  1  1  0  0  0  0
 12 11  1  0  0  0  0
 13  2  1  0  0  0  0
 13 18  1  0  0  0  0
 14 20  1  0  0  0  0
 15 14  1  0  0  0  0
 15 21  1  0  0  0  0
 16 15  2  0  0  0  0
 17 18  2  0  0  0  0
 17 16  1  0  0  0  0
 18 19  1  0  0  0  0
 19 14  2  0  0  0  0
 22 16  1  0  0  0  0
 23  5  1  0  0  0  0
 24 25  2  0  0  0  0
 24 23  1  0  0  0  0
 25 26  1  0  0  0  0
 27 25  1  0  0  0  0
 28 27  1  0  0  0  0
 29 31  1  0  0  0  0
 29 27  2  0  0  0  0
 30 29  1  0  0  0  0
 31 24  1  0  0  0  0
M  END
>  <minimizedAffinity>
-3.74522233

>  <minimizedRMSD>
0.616309524

$$$$
