
 OpenBabel03272506433D

 31 33  0  0  1  0  0  0  0  0999 V2000
   32.3900   28.3410   47.5790 C   0  0  2  0  0  0  0  0  0  0  0  0
   33.6610   28.3700   48.3900 C   0  0  1  0  0  0  0  0  0  0  0  0
   34.2170   27.1110   48.3300 O   0  0  0  0  0  0  0  0  0  0  0  0
   33.5380   26.3620   47.3800 C   0  0  0  0  0  0  0  0  0  0  0  0
   32.7960   27.3610   46.4930 C   0  0  1  0  0  0  0  0  0  0  0  0
   31.5070   28.0200   48.1550 H   0  0  0  0  0  0  0  0  0  0  0  0
   33.4770   28.7130   49.4280 H   0  0  0  0  0  0  0  0  0  0  0  0
   34.2340   25.7880   46.7490 H   0  0  0  0  0  0  0  0  0  0  0  0
   32.7810   25.7590   47.9020 H   0  0  0  0  0  0  0  0  0  0  0  0
   33.4580   27.8880   45.8060 H   0  0  0  0  0  0  0  0  0  0  0  0
   32.1200   29.6110   47.0460 O   0  0  0  0  0  0  0  0  0  0  0  0
   31.3590   29.5840   46.4450 H   0  0  0  0  0  0  0  0  0  0  0  0
   34.8100   29.5180   47.5520 S   0  0  0  0  0  0  0  0  0  0  0  0
   37.3940   29.4850   50.5610 C   0  0  0  0  0  0  0  0  0  0  0  0
   38.0000   30.7330   50.5230 C   0  0  0  0  0  0  0  0  0  0  0  0
   37.6050   31.6330   49.5340 C   0  0  0  0  0  0  0  0  0  0  0  0
   36.6390   31.2500   48.6420 N   0  0  0  0  0  0  0  0  0  0  0  0
   36.0750   30.0180   48.7200 C   0  0  0  0  0  0  0  0  0  0  0  0
   36.4410   29.1310   49.6680 N   0  0  0  0  0  0  0  0  0  0  0  0
   37.7410   28.8380   51.3450 H   0  0  0  0  0  0  0  0  0  0  0  0
   38.7650   31.0500   51.2210 H   0  0  0  0  0  0  0  0  0  0  0  0
   38.0120   32.6200   49.4200 H   0  0  0  0  0  0  0  0  0  0  0  0
   31.7180   26.7420   45.8900 O   0  0  0  0  0  0  0  0  0  0  0  0
   31.0820   27.1490   44.7360 C   0  0  0  0  0  0  0  0  0  0  0  0
   29.7770   27.6090   44.9130 C   0  0  0  0  0  0  0  0  0  0  0  0
   29.1170   27.7270   45.7750 H   0  0  0  0  0  0  0  0  0  0  0  0
   29.2980   27.9710   43.6490 C   0  0  0  0  0  0  0  0  0  0  0  0
   28.3530   28.3740   43.2990 H   0  0  0  0  0  0  0  0  0  0  0  0
   30.3740   27.6940   42.8110 C   0  0  0  0  0  0  0  0  0  0  0  0
   30.3610   27.8580   41.7260 H   0  0  0  0  0  0  0  0  0  0  0  0
   31.3950   27.2160   43.4830 O   0  0  0  0  0  0  0  0  0  0  0  0
  1  6  1  1  0  0  0
  1  2  1  0  0  0  0
  2  7  1  1  0  0  0
  3  2  1  0  0  0  0
  4  9  1  0  0  0  0
  4  3  1  0  0  0  0
  5 10  1  6  0  0  0
  5  4  1  0  0  0  0
  5  1  1  0  0  0  0
  8  4  1  0  0  0  0
 11  1  1  0  0  0  0
 12 11  1  0  0  0  0
 13  2  1  0  0  0  0
 13 18  1  0  0  0  0
 14 20  1  0  0  0  0
 15 14  1  0  0  0  0
 15 21  1  0  0  0  0
 16 15  2  0  0  0  0
 17 18  2  0  0  0  0
 17 16  1  0  0  0  0
 18 19  1  0  0  0  0
 19 14  2  0  0  0  0
 22 16  1  0  0  0  0
 23  5  1  0  0  0  0
 24 25  2  0  0  0  0
 24 23  1  0  0  0  0
 25 26  1  0  0  0  0
 27 25  1  0  0  0  0
 28 27  1  0  0  0  0
 29 31  1  0  0  0  0
 29 27  2  0  0  0  0
 30 29  1  0  0  0  0
 31 24  1  0  0  0  0
M  END
>  <minimizedAffinity>
-3.753618

>  <minimizedRMSD>
0.786606789

$$$$
