
 OpenBabel03262521083D

 44 46  0  0  1  0  0  0  0  0999 V2000
   36.5520   30.6670   45.0340 C   0  0  2  0  0  0  0  0  0  0  0  0
   37.3200   29.9550   44.0220 C   0  0  0  0  0  0  0  0  0  0  0  0
   38.6540   29.4290   44.5450 C   0  0  0  0  0  0  0  0  0  0  0  0
   39.5110   30.5240   45.1170 C   0  0  0  0  0  0  0  0  0  0  0  0
   38.7360   31.5700   45.8670 C   0  0  0  0  0  0  0  0  0  0  0  0
   37.3480   31.0700   46.2480 C   0  0  2  0  0  0  0  0  0  0  0  0
   36.1780   31.6310   44.5760 H   0  0  0  0  0  0  0  0  0  0  0  0
   37.5560   30.5740   43.1020 H   0  0  0  0  0  0  0  0  0  0  0  0
   36.8280   29.0580   43.6230 H   0  0  0  0  0  0  0  0  0  0  0  0
   39.1830   29.0540   43.6290 H   0  0  0  0  0  0  0  0  0  0  0  0
   38.5330   28.5500   45.2020 H   0  0  0  0  0  0  0  0  0  0  0  0
   40.2060   30.0440   45.8430 H   0  0  0  0  0  0  0  0  0  0  0  0
   40.1460   31.0160   44.3550 H   0  0  0  0  0  0  0  0  0  0  0  0
   39.2370   32.0040   46.7300 H   0  0  0  0  0  0  0  0  0  0  0  0
   38.5470   32.4150   45.1440 H   0  0  0  0  0  0  0  0  0  0  0  0
   36.8330   31.9570   46.6910 H   0  0  0  0  0  0  0  0  0  0  0  0
   35.3510   29.9830   45.5190 C   0  0  0  0  0  0  0  0  0  0  0  0
   34.9110   28.9420   44.6910 C   0  0  0  0  0  0  0  0  0  0  0  0
   33.7850   28.2480   45.1090 C   0  0  0  0  0  0  0  0  0  0  0  0
   33.1680   28.5990   46.2760 N   0  0  0  0  0  0  0  0  0  0  0  0
   33.6230   29.6070   47.0390 C   0  0  0  0  0  0  0  0  0  0  0  0
   34.6800   30.2470   46.6340 N   0  0  0  0  0  0  0  0  0  0  0  0
   35.2040   28.5030   43.7620 H   0  0  0  0  0  0  0  0  0  0  0  0
   33.2710   27.4190   44.6480 H   0  0  0  0  0  0  0  0  0  0  0  0
   33.1370   29.8900   47.9620 H   0  0  0  0  0  0  0  0  0  0  0  0
   37.5230   30.1470   47.2780 N   0  0  0  0  0  0  0  0  0  0  0  0
   36.8350   29.3640   47.1840 H   0  0  0  0  0  0  0  0  0  0  0  0
   37.4570   30.7140   48.8660 S   0  0  1  0  0  0  0  0  0  0  0  0
   38.6460   30.1080   49.5880 O   0  0  0  0  0  0  0  0  0  0  0  0
   38.7160   29.2120   49.9780 H   0  0  0  0  0  0  0  0  0  0  0  0
   37.5660   32.2020   48.9710 O   0  0  0  0  0  0  0  0  0  0  0  0
   38.5380   33.1490   49.2410 C   0  0  0  0  0  0  0  0  0  0  0  0
   39.1520   33.7210   48.1230 C   0  0  0  0  0  0  0  0  0  0  0  0
   39.0450   33.5950   47.0410 H   0  0  0  0  0  0  0  0  0  0  0  0
   40.0880   34.6380   48.6110 C   0  0  0  0  0  0  0  0  0  0  0  0
   40.7760   35.2950   48.1060 H   0  0  0  0  0  0  0  0  0  0  0  0
   39.9730   34.5570   49.9710 C   0  0  0  0  0  0  0  0  0  0  0  0
   40.5080   35.0920   50.7600 H   0  0  0  0  0  0  0  0  0  0  0  0
   39.0650   33.6840   50.3020 O   0  0  0  0  0  0  0  0  0  0  0  0
   36.0940   30.1920   49.6980 O   0  0  0  0  0  0  0  0  0  0  0  0
   36.4010   29.5960   50.9090 C   0  0  0  0  0  0  0  0  0  0  0  0
   37.2820   28.5650   50.7060 F   0  0  0  0  0  0  0  0  0  0  0  0
   37.0480   30.5400   51.6850 F   0  0  0  0  0  0  0  0  0  0  0  0
   35.2830   29.2050   51.6290 F   0  0  0  0  0  0  0  0  0  0  0  0
  1  7  1  6  0  0  0
  1 17  1  0  0  0  0
  1  6  1  0  0  0  0
  2  3  1  0  0  0  0
  2  1  1  0  0  0  0
  3  4  1  0  0  0  0
  3 11  1  0  0  0  0
  4 12  1  0  0  0  0
  4  5  1  0  0  0  0
  5  6  1  0  0  0  0
  5 14  1  0  0  0  0
  6 16  1  1  0  0  0
  6 26  1  0  0  0  0
  8  2  1  0  0  0  0
  9  2  1  0  0  0  0
 10  3  1  0  0  0  0
 13  4  1  0  0  0  0
 15  5  1  0  0  0  0
 17 22  1  0  0  0  0
 18 19  1  0  0  0  0
 18 17  2  0  0  0  0
 19 20  2  0  0  0  0
 20 21  1  0  0  0  0
 21 25  1  0  0  0  0
 22 21  2  0  0  0  0
 23 18  1  0  0  0  0
 24 19  1  0  0  0  0
 26 28  1  0  0  0  0
 27 26  1  0  0  0  0
 28 31  1  1  0  0  0
 28 29  1  0  0  0  0
 28 40  1  0  0  0  0
 29 30  1  0  0  0  0
 31 32  1  0  0  0  0
 32 39  1  0  0  0  0
 33 35  1  0  0  0  0
 33 32  2  0  0  0  0
 34 33  1  0  0  0  0
 35 37  2  0  0  0  0
 36 35  1  0  0  0  0
 37 39  1  0  0  0  0
 37 38  1  0  0  0  0
 40 41  1  0  0  0  0
 41 44  1  0  0  0  0
 41 43  1  0  0  0  0
 42 41  1  0  0  0  0
M  END
>  <minimizedAffinity>
-5.22338581

>  <minimizedRMSD>
1.6226759

$$$$
