
 OpenBabel03272507523D

 31 33  0  0  0  0  0  0  0  0999 V2000
   36.5340   31.2870   48.7200 N   0  0  0  0  0  0  0  0  0  0  0  0
   36.7060   32.1220   49.7380 C   0  0  0  0  0  0  0  0  0  0  0  0
   37.7550   33.0450   49.7150 C   0  0  0  0  0  0  0  0  0  0  0  0
   38.5330   32.9870   48.5920 C   0  0  0  0  0  0  0  0  0  0  0  0
   39.4810   33.8300   48.5830 O   0  0  0  0  0  0  0  0  0  0  0  0
   38.4000   32.1670   47.5450 N   0  0  0  0  0  0  0  0  0  0  0  0
   37.3630   31.2970   47.6310 C   0  0  0  0  0  0  0  0  0  0  0  0
   37.2110   30.5100   46.6590 O   0  0  0  0  0  0  0  0  0  0  0  0
   36.0130   32.0650   50.5760 H   0  0  0  0  0  0  0  0  0  0  0  0
   37.9090   33.7250   50.5240 H   0  0  0  0  0  0  0  0  0  0  0  0
   35.2760   29.5480   49.8340 C   0  0  0  0  0  0  0  0  0  0  0  0
   35.4770   30.3180   48.6830 C   0  0  0  0  0  0  0  0  0  0  0  0
   34.6510   30.1050   47.5770 C   0  0  0  0  0  0  0  0  0  0  0  0
   33.6840   29.1490   47.6790 N   0  0  0  0  0  0  0  0  0  0  0  0
   33.4990   28.4230   48.7700 C   0  0  0  0  0  0  0  0  0  0  0  0
   34.2860   28.6120   49.8520 N   0  0  0  0  0  0  0  0  0  0  0  0
   34.8890   30.7420   46.7590 H   0  0  0  0  0  0  0  0  0  0  0  0
   32.7120   27.6790   48.7840 H   0  0  0  0  0  0  0  0  0  0  0  0
   37.3260   29.1780   51.4010 C   0  0  0  0  0  0  0  0  0  0  0  0
   38.0740   28.5890   50.5950 O   0  0  0  0  0  0  0  0  0  0  0  0
   36.0400   29.6890   51.0220 N   0  0  0  0  0  0  0  0  0  0  0  0
   37.7460   29.2480   52.3660 H   0  0  0  0  0  0  0  0  0  0  0  0
   35.6490   30.2690   51.8150 H   0  0  0  0  0  0  0  0  0  0  0  0
   39.2730   32.1950   46.4220 C   0  0  0  0  0  0  0  0  0  0  0  0
   39.4420   32.9680   45.2890 C   0  0  0  0  0  0  0  0  0  0  0  0
   38.7440   33.7890   45.1790 H   0  0  0  0  0  0  0  0  0  0  0  0
   40.5080   32.4110   44.6220 C   0  0  0  0  0  0  0  0  0  0  0  0
   40.8080   32.8890   43.6790 H   0  0  0  0  0  0  0  0  0  0  0  0
   40.9470   31.3380   45.3550 C   0  0  0  0  0  0  0  0  0  0  0  0
   41.7800   30.7590   45.0070 H   0  0  0  0  0  0  0  0  0  0  0  0
   40.1890   31.2340   46.4260 O   0  0  0  0  0  0  0  0  0  0  0  0
  1  2  1  0  0  0  0
  2  9  1  0  0  0  0
  3  2  2  0  0  0  0
  3 10  1  0  0  0  0
  4  3  1  0  0  0  0
  5  4  2  0  0  0  0
  6  7  1  0  0  0  0
  6  4  1  0  0  0  0
  7  1  1  0  0  0  0
  8  7  2  0  0  0  0
 11 16  1  0  0  0  0
 11 21  1  0  0  0  0
 12  1  1  0  0  0  0
 12 11  2  0  0  0  0
 13 14  2  0  0  0  0
 13 12  1  0  0  0  0
 14 15  1  0  0  0  0
 15 18  1  0  0  0  0
 15 16  2  0  0  0  0
 17 13  1  0  0  0  0
 19 22  1  0  0  0  0
 20 19  2  0  0  0  0
 21 19  1  0  0  0  0
 21 23  1  0  0  0  0
 24 31  1  0  0  0  0
 24  6  1  0  0  0  0
 25 24  2  0  0  0  0
 26 25  1  0  0  0  0
 27 25  1  0  0  0  0
 27 29  2  0  0  0  0
 28 27  1  0  0  0  0
 29 31  1  0  0  0  0
 30 29  1  0  0  0  0
M  END
>  <minimizedAffinity>
-6.2429657

>  <minimizedRMSD>
1.15746641

$$$$
