
 OpenBabel03272509303D

 37 39  0  0  1  0  0  0  0  0999 V2000
   36.2700   30.7170   48.9830 C   0  0  2  0  0  0  0  0  0  0  0  0
   37.2430   31.6030   49.7000 C   0  0  0  0  0  0  0  0  0  0  0  0
   38.1580   30.8400   50.6320 C   0  0  0  0  0  0  0  0  0  0  0  0
   37.3400   30.0430   51.6470 C   0  0  0  0  0  0  0  0  0  0  0  0
   36.0800   29.4440   51.0830 C   0  0  0  0  0  0  0  0  0  0  0  0
   36.2360   29.3370   49.5540 C   0  0  1  0  0  0  0  0  0  0  0  0
   35.2040   31.0950   49.0280 H   0  0  0  0  0  0  0  0  0  0  0  0
   36.5940   32.2170   50.4120 H   0  0  0  0  0  0  0  0  0  0  0  0
   37.7730   32.3330   49.1190 H   0  0  0  0  0  0  0  0  0  0  0  0
   38.7430   31.5870   51.1830 H   0  0  0  0  0  0  0  0  0  0  0  0
   38.8250   30.1300   50.1340 H   0  0  0  0  0  0  0  0  0  0  0  0
   37.0690   30.7190   52.4780 H   0  0  0  0  0  0  0  0  0  0  0  0
   37.9660   29.1990   52.0460 H   0  0  0  0  0  0  0  0  0  0  0  0
   35.2170   30.0990   51.2300 H   0  0  0  0  0  0  0  0  0  0  0  0
   35.8990   28.4240   51.4880 H   0  0  0  0  0  0  0  0  0  0  0  0
   37.1930   28.8750   49.4940 H   0  0  0  0  0  0  0  0  0  0  0  0
   36.5940   30.6260   47.5340 C   0  0  0  0  0  0  0  0  0  0  0  0
   37.9330   30.8860   47.1960 C   0  0  0  0  0  0  0  0  0  0  0  0
   38.2640   30.8050   45.8390 C   0  0  0  0  0  0  0  0  0  0  0  0
   37.2770   30.4830   44.9340 N   0  0  0  0  0  0  0  0  0  0  0  0
   35.9880   30.2390   45.3180 C   0  0  0  0  0  0  0  0  0  0  0  0
   35.6650   30.3150   46.6250 N   0  0  0  0  0  0  0  0  0  0  0  0
   38.7880   31.1350   47.7950 H   0  0  0  0  0  0  0  0  0  0  0  0
   39.2480   30.9790   45.4310 H   0  0  0  0  0  0  0  0  0  0  0  0
   35.3030   29.9950   44.5210 H   0  0  0  0  0  0  0  0  0  0  0  0
   33.9300   28.3580   49.1320 C   0  0  0  0  0  0  0  0  0  0  0  0
   33.1430   29.0480   49.8460 O   0  0  0  0  0  0  0  0  0  0  0  0
   35.3320   28.4470   48.9220 N   0  0  0  0  0  0  0  0  0  0  0  0
   35.6880   27.7440   48.1950 H   0  0  0  0  0  0  0  0  0  0  0  0
   33.1470   27.3010   48.4410 C   0  0  0  0  0  0  0  0  0  0  0  0
   33.5990   26.3370   47.5690 C   0  0  0  0  0  0  0  0  0  0  0  0
   34.5940   26.1680   47.2290 H   0  0  0  0  0  0  0  0  0  0  0  0
   32.5200   25.5430   47.1500 C   0  0  0  0  0  0  0  0  0  0  0  0
   32.5770   24.7020   46.4610 H   0  0  0  0  0  0  0  0  0  0  0  0
   31.4440   26.0950   47.8170 C   0  0  0  0  0  0  0  0  0  0  0  0
   30.4390   25.7020   47.7070 H   0  0  0  0  0  0  0  0  0  0  0  0
   31.8560   27.0880   48.5340 O   0  0  0  0  0  0  0  0  0  0  0  0
  1  7  1  1  0  0  0
  1  6  1  0  0  0  0
  1  2  1  0  0  0  0
  2  8  1  0  0  0  0
  2  3  1  0  0  0  0
  3 10  1  0  0  0  0
  3  4  1  0  0  0  0
  4 13  1  0  0  0  0
  4 12  1  0  0  0  0
  5 14  1  0  0  0  0
  5 15  1  0  0  0  0
  5  4  1  0  0  0  0
  6 16  1  6  0  0  0
  6  5  1  0  0  0  0
  9  2  1  0  0  0  0
 11  3  1  0  0  0  0
 17  1  1  0  0  0  0
 18 17  1  0  0  0  0
 18 23  1  0  0  0  0
 19 18  2  0  0  0  0
 20 21  2  0  0  0  0
 20 19  1  0  0  0  0
 21 22  1  0  0  0  0
 22 17  2  0  0  0  0
 24 19  1  0  0  0  0
 25 21  1  0  0  0  0
 26 27  2  0  0  0  0
 28 26  1  0  0  0  0
 28  6  1  0  0  0  0
 29 28  1  0  0  0  0
 30 37  1  0  0  0  0
 30 26  1  0  0  0  0
 31 30  2  0  0  0  0
 32 31  1  0  0  0  0
 33 31  1  0  0  0  0
 33 35  2  0  0  0  0
 34 33  1  0  0  0  0
 35 37  1  0  0  0  0
 36 35  1  0  0  0  0
M  END
>  <minimizedAffinity>
-5.9088254

>  <minimizedRMSD>
0.314835787

$$$$
