
 OpenBabel03272507523D

 31 33  0  0  0  0  0  0  0  0999 V2000
   36.5430   31.2470   48.6820 N   0  0  0  0  0  0  0  0  0  0  0  0
   36.7270   32.1040   49.6800 C   0  0  0  0  0  0  0  0  0  0  0  0
   37.7850   33.0150   49.6310 C   0  0  0  0  0  0  0  0  0  0  0  0
   38.5580   32.9230   48.5070 C   0  0  0  0  0  0  0  0  0  0  0  0
   39.5150   33.7550   48.4740 O   0  0  0  0  0  0  0  0  0  0  0  0
   38.4120   32.0800   47.4790 N   0  0  0  0  0  0  0  0  0  0  0  0
   37.3670   31.2230   47.5900 C   0  0  0  0  0  0  0  0  0  0  0  0
   37.2030   30.4150   46.6370 O   0  0  0  0  0  0  0  0  0  0  0  0
   36.0370   32.0730   50.5220 H   0  0  0  0  0  0  0  0  0  0  0  0
   37.9500   33.7120   50.4240 H   0  0  0  0  0  0  0  0  0  0  0  0
   35.2760   29.5410   49.8390 C   0  0  0  0  0  0  0  0  0  0  0  0
   35.4760   30.2880   48.6720 C   0  0  0  0  0  0  0  0  0  0  0  0
   34.6390   30.0620   47.5760 C   0  0  0  0  0  0  0  0  0  0  0  0
   33.6630   29.1180   47.7040 N   0  0  0  0  0  0  0  0  0  0  0  0
   33.4790   28.4150   48.8100 C   0  0  0  0  0  0  0  0  0  0  0  0
   34.2770   28.6160   49.8820 N   0  0  0  0  0  0  0  0  0  0  0  0
   34.8760   30.6810   46.7440 H   0  0  0  0  0  0  0  0  0  0  0  0
   32.6850   27.6790   48.8450 H   0  0  0  0  0  0  0  0  0  0  0  0
   37.3370   29.1850   51.3950 C   0  0  0  0  0  0  0  0  0  0  0  0
   38.0750   28.5780   50.5920 O   0  0  0  0  0  0  0  0  0  0  0  0
   36.0510   29.6970   51.0170 N   0  0  0  0  0  0  0  0  0  0  0  0
   37.7660   29.2680   52.3540 H   0  0  0  0  0  0  0  0  0  0  0  0
   35.6700   30.2930   51.8040 H   0  0  0  0  0  0  0  0  0  0  0  0
   39.2810   32.0730   46.3530 C   0  0  0  0  0  0  0  0  0  0  0  0
   40.4170   31.3940   45.9530 C   0  0  0  0  0  0  0  0  0  0  0  0
   40.7870   30.6570   46.6550 H   0  0  0  0  0  0  0  0  0  0  0  0
   40.7330   31.9060   44.7160 C   0  0  0  0  0  0  0  0  0  0  0  0
   41.6210   31.4910   44.2200 H   0  0  0  0  0  0  0  0  0  0  0  0
   39.7970   32.8610   44.4070 C   0  0  0  0  0  0  0  0  0  0  0  0
   39.8610   33.3880   43.4750 H   0  0  0  0  0  0  0  0  0  0  0  0
   38.9430   32.9370   45.4050 O   0  0  0  0  0  0  0  0  0  0  0  0
  1  2  1  0  0  0  0
  2  9  1  0  0  0  0
  3  2  2  0  0  0  0
  3 10  1  0  0  0  0
  4  3  1  0  0  0  0
  5  4  2  0  0  0  0
  6  7  1  0  0  0  0
  6  4  1  0  0  0  0
  7  1  1  0  0  0  0
  8  7  2  0  0  0  0
 11 16  1  0  0  0  0
 11 21  1  0  0  0  0
 12  1  1  0  0  0  0
 12 11  2  0  0  0  0
 13 14  2  0  0  0  0
 13 12  1  0  0  0  0
 14 15  1  0  0  0  0
 15 18  1  0  0  0  0
 15 16  2  0  0  0  0
 17 13  1  0  0  0  0
 19 22  1  0  0  0  0
 20 19  2  0  0  0  0
 21 19  1  0  0  0  0
 21 23  1  0  0  0  0
 24  6  1  0  0  0  0
 25 24  2  0  0  0  0
 25 26  1  0  0  0  0
 27 25  1  0  0  0  0
 28 27  1  0  0  0  0
 29 27  2  0  0  0  0
 29 31  1  0  0  0  0
 30 29  1  0  0  0  0
 31 24  1  0  0  0  0
M  END
>  <minimizedAffinity>
-6.22412968

>  <minimizedRMSD>
1.05277205

$$$$
