
 OpenBabel03272506433D

 31 33  0  0  1  0  0  0  0  0999 V2000
   32.3680   28.3400   47.4600 C   0  0  2  0  0  0  0  0  0  0  0  0
   33.5700   28.3770   48.3710 C   0  0  1  0  0  0  0  0  0  0  0  0
   34.1200   27.1140   48.3770 O   0  0  0  0  0  0  0  0  0  0  0  0
   33.5170   26.3530   47.3880 C   0  0  0  0  0  0  0  0  0  0  0  0
   32.8540   27.3390   46.4270 C   0  0  1  0  0  0  0  0  0  0  0  0
   31.4400   28.0330   47.9680 H   0  0  0  0  0  0  0  0  0  0  0  0
   33.3030   28.7380   49.3850 H   0  0  0  0  0  0  0  0  0  0  0  0
   34.2570   25.7640   46.8240 H   0  0  0  0  0  0  0  0  0  0  0  0
   32.7160   25.7610   47.8560 H   0  0  0  0  0  0  0  0  0  0  0  0
   33.5730   27.8520   45.7870 H   0  0  0  0  0  0  0  0  0  0  0  0
   32.1490   29.6020   46.8860 O   0  0  0  0  0  0  0  0  0  0  0  0
   31.4400   29.5680   46.2260 H   0  0  0  0  0  0  0  0  0  0  0  0
   34.7890   29.5040   47.6100 S   0  0  0  0  0  0  0  0  0  0  0  0
   37.3400   29.3300   50.6420 C   0  0  0  0  0  0  0  0  0  0  0  0
   37.8380   30.6200   50.7630 C   0  0  0  0  0  0  0  0  0  0  0  0
   37.3760   31.5950   49.8790 C   0  0  0  0  0  0  0  0  0  0  0  0
   36.4540   31.2420   48.9310 N   0  0  0  0  0  0  0  0  0  0  0  0
   35.9970   29.9670   48.8520 C   0  0  0  0  0  0  0  0  0  0  0  0
   36.4290   29.0060   49.6960 N   0  0  0  0  0  0  0  0  0  0  0  0
   37.7350   28.6250   51.3500 H   0  0  0  0  0  0  0  0  0  0  0  0
   38.5670   30.9150   51.5070 H   0  0  0  0  0  0  0  0  0  0  0  0
   37.6980   32.6200   49.8900 H   0  0  0  0  0  0  0  0  0  0  0  0
   31.8250   26.7160   45.7490 O   0  0  0  0  0  0  0  0  0  0  0  0
   31.4230   26.9750   44.4560 C   0  0  0  0  0  0  0  0  0  0  0  0
   32.2800   27.7970   43.7240 C   0  0  0  0  0  0  0  0  0  0  0  0
   33.2250   28.3020   43.9390 H   0  0  0  0  0  0  0  0  0  0  0  0
   31.7170   27.9460   42.4530 C   0  0  0  0  0  0  0  0  0  0  0  0
   32.0220   28.4860   41.5630 H   0  0  0  0  0  0  0  0  0  0  0  0
   30.5520   27.1880   42.5310 C   0  0  0  0  0  0  0  0  0  0  0  0
   29.8420   27.0700   41.7040 H   0  0  0  0  0  0  0  0  0  0  0  0
   30.4180   26.6380   43.7150 O   0  0  0  0  0  0  0  0  0  0  0  0
  1  6  1  1  0  0  0
  1  2  1  0  0  0  0
  2  3  1  0  0  0  0
  2  7  1  1  0  0  0
  4  9  1  0  0  0  0
  4  3  1  0  0  0  0
  5 10  1  6  0  0  0
  5  4  1  0  0  0  0
  5  1  1  0  0  0  0
  8  4  1  0  0  0  0
 11  1  1  0  0  0  0
 12 11  1  0  0  0  0
 13  2  1  0  0  0  0
 13 18  1  0  0  0  0
 14 15  1  0  0  0  0
 14 20  1  0  0  0  0
 15 21  1  0  0  0  0
 16 22  1  0  0  0  0
 16 15  2  0  0  0  0
 17 16  1  0  0  0  0
 18 17  2  0  0  0  0
 18 19  1  0  0  0  0
 19 14  2  0  0  0  0
 23  5  1  0  0  0  0
 24 23  1  0  0  0  0
 25 26  1  0  0  0  0
 25 24  2  0  0  0  0
 27 29  2  0  0  0  0
 27 25  1  0  0  0  0
 28 27  1  0  0  0  0
 29 31  1  0  0  0  0
 30 29  1  0  0  0  0
 31 24  1  0  0  0  0
M  END
>  <minimizedAffinity>
-3.71381617

>  <minimizedRMSD>
0.432315946

$$$$
