
 OpenBabel03272504413D

 44 46  0  0  0  0  0  0  0  0999 V2000
   34.7900   29.4010   48.8350 C   0  0  0  0  0  0  0  0  0  0  0  0
   34.1280   30.2210   49.2450 H   0  0  0  0  0  0  0  0  0  0  0  0
   35.6870   29.4430   49.4850 H   0  0  0  0  0  0  0  0  0  0  0  0
   37.5620   30.4390   48.5210 Cl  0  0  0  0  0  0  0  0  0  0  0  0
   36.4040   30.2910   47.1880 C   0  0  0  0  0  0  0  0  0  0  0  0
   36.7820   30.6660   45.9480 C   0  0  0  0  0  0  0  0  0  0  0  0
   35.8950   30.5560   44.9030 C   0  0  0  0  0  0  0  0  0  0  0  0
   34.6270   30.0590   45.1630 C   0  0  0  0  0  0  0  0  0  0  0  0
   34.3010   29.6900   46.4730 C   0  0  0  0  0  0  0  0  0  0  0  0
   35.1640   29.7930   47.5050 C   0  0  0  0  0  0  0  0  0  0  0  0
   36.2270   30.8660   43.9060 H   0  0  0  0  0  0  0  0  0  0  0  0
   34.0080   30.0120   44.2770 H   0  0  0  0  0  0  0  0  0  0  0  0
   33.2980   29.3510   46.4370 H   0  0  0  0  0  0  0  0  0  0  0  0
   39.7650   32.8360   45.9970 C   0  0  0  0  0  0  0  0  0  0  0  0
   40.6350   32.1050   45.1160 C   0  0  0  0  0  0  0  0  0  0  0  0
   40.1590   30.9160   44.5580 C   0  0  0  0  0  0  0  0  0  0  0  0
   38.9040   30.4910   44.8580 N   0  0  0  0  0  0  0  0  0  0  0  0
   38.1090   31.2010   45.6910 C   0  0  0  0  0  0  0  0  0  0  0  0
   38.5450   32.3480   46.2400 N   0  0  0  0  0  0  0  0  0  0  0  0
   40.1420   33.7420   46.4160 H   0  0  0  0  0  0  0  0  0  0  0  0
   41.6070   32.4830   44.9160 H   0  0  0  0  0  0  0  0  0  0  0  0
   41.0330   30.2250   43.6960 N   0  0  0  0  0  0  0  0  0  0  0  0
   41.6750   30.7510   43.0570 H   0  0  0  0  0  0  0  0  0  0  0  0
   41.1130   29.2000   43.6220 H   0  0  0  0  0  0  0  0  0  0  0  0
   34.1250   28.1100   49.0560 C   0  0  0  0  0  0  0  0  0  0  0  0
   34.5760   27.5130   49.8720 H   0  0  0  0  0  0  0  0  0  0  0  0
   34.2300   27.4850   48.1290 H   0  0  0  0  0  0  0  0  0  0  0  0
   32.7970   28.2650   49.3490 O   0  0  0  0  0  0  0  0  0  0  0  0
   32.6520   26.5580   47.3600 O   0  0  0  0  0  0  0  0  0  0  0  0
   31.8400   27.4380   48.2610 P   0  0  2  0  0  0  0  0  0  0  0  0
   31.0120   28.6280   47.3260 O   0  0  0  0  0  0  0  0  0  0  0  0
   30.5070   28.3320   46.0800 C   0  0  0  0  0  0  0  0  0  0  0  0
   29.3030   27.7450   45.7400 C   0  0  0  0  0  0  0  0  0  0  0  0
   28.5420   27.4120   46.4060 H   0  0  0  0  0  0  0  0  0  0  0  0
   29.2860   27.6750   44.3590 C   0  0  0  0  0  0  0  0  0  0  0  0
   28.4860   27.2670   43.7520 H   0  0  0  0  0  0  0  0  0  0  0  0
   30.4700   28.2180   43.9320 C   0  0  0  0  0  0  0  0  0  0  0  0
   30.8120   28.3350   42.9030 H   0  0  0  0  0  0  0  0  0  0  0  0
   31.1620   28.5940   44.9810 O   0  0  0  0  0  0  0  0  0  0  0  0
   30.6550   26.5300   48.9930 O   0  0  0  0  0  0  0  0  0  0  0  0
   29.8320   27.3300   49.7670 C   0  0  0  0  0  0  0  0  0  0  0  0
   29.3110   26.6570   50.8720 F   0  0  0  0  0  0  0  0  0  0  0  0
   30.5190   28.4090   50.2820 F   0  0  0  0  0  0  0  0  0  0  0  0
   28.7630   27.7830   49.0000 F   0  0  0  0  0  0  0  0  0  0  0  0
  1 25  1  0  0  0  0
  1  2  1  0  0  0  0
  1  3  1  0  0  0  0
  5 10  1  0  0  0  0
  5  4  1  0  0  0  0
  6  5  2  0  0  0  0
  7  8  2  0  0  0  0
  7  6  1  0  0  0  0
  8  9  1  0  0  0  0
  9 10  2  0  0  0  0
 10  1  1  0  0  0  0
 11  7  1  0  0  0  0
 12  8  1  0  0  0  0
 13  9  1  0  0  0  0
 14 19  1  0  0  0  0
 14 20  1  0  0  0  0
 15 14  2  0  0  0  0
 16 17  2  0  0  0  0
 16 15  1  0  0  0  0
 17 18  1  0  0  0  0
 18  6  1  0  0  0  0
 18 19  2  0  0  0  0
 21 15  1  0  0  0  0
 22 16  1  0  0  0  0
 23 22  1  0  0  0  0
 24 22  1  0  0  0  0
 25 28  1  0  0  0  0
 25 26  1  0  0  0  0
 27 25  1  0  0  0  0
 30 29  2  6  0  0  0
 30 40  1  0  0  0  0
 30 28  1  0  0  0  0
 31 30  1  0  0  0  0
 32 31  1  0  0  0  0
 33 32  2  0  0  0  0
 33 34  1  0  0  0  0
 35 33  1  0  0  0  0
 36 35  1  0  0  0  0
 37 35  2  0  0  0  0
 37 39  1  0  0  0  0
 38 37  1  0  0  0  0
 39 32  1  0  0  0  0
 40 41  1  0  0  0  0
 41 43  1  0  0  0  0
 41 42  1  0  0  0  0
 44 41  1  0  0  0  0
M  END
>  <minimizedAffinity>
-5.63025093

>  <minimizedRMSD>
0.163304061

$$$$
