
 OpenBabel03272502243D

 28 30  0  0  0  0  0  0  0  0999 V2000
   36.5220   22.9910   31.5810 C   0  0  0  0  0  0  0  0  0  0  0  0
   37.2540   22.5370   32.6770 C   0  0  0  0  0  0  0  0  0  0  0  0
   37.7820   23.4730   33.5490 C   0  0  0  0  0  0  0  0  0  0  0  0
   37.5550   24.7860   33.2860 N   0  0  0  0  0  0  0  0  0  0  0  0
   36.8460   25.1950   32.2220 C   0  0  0  0  0  0  0  0  0  0  0  0
   36.3290   24.2910   31.3690 N   0  0  0  0  0  0  0  0  0  0  0  0
   36.1210   22.2370   30.9150 H   0  0  0  0  0  0  0  0  0  0  0  0
   37.4480   21.5130   32.9080 H   0  0  0  0  0  0  0  0  0  0  0  0
   38.5780   23.1550   34.7480 C   0  0  0  0  0  0  0  0  0  0  0  0
   39.7630   22.4770   34.6950 C   0  0  0  0  0  0  0  0  0  0  0  0
   40.4960   22.1850   35.8240 C   0  0  0  0  0  0  0  0  0  0  0  0
   40.0420   22.5780   37.0390 N   0  0  0  0  0  0  0  0  0  0  0  0
   38.8830   23.2400   37.0720 C   0  0  0  0  0  0  0  0  0  0  0  0
   38.1560   23.5310   35.9800 N   0  0  0  0  0  0  0  0  0  0  0  0
   40.0880   22.1820   33.7020 H   0  0  0  0  0  0  0  0  0  0  0  0
   41.4020   21.6520   35.6470 H   0  0  0  0  0  0  0  0  0  0  0  0
   38.3600   23.6830   38.3910 C   0  0  0  0  0  0  0  0  0  0  0  0
   37.9500   25.0090   38.2600 F   0  0  0  0  0  0  0  0  0  0  0  0
   37.2990   22.8730   38.8100 F   0  0  0  0  0  0  0  0  0  0  0  0
   39.3120   23.6660   39.3550 F   0  0  0  0  0  0  0  0  0  0  0  0
   36.6810   26.6410   32.0640 C   0  0  0  0  0  0  0  0  0  0  0  0
   36.8150   27.6810   32.9610 C   0  0  0  0  0  0  0  0  0  0  0  0
   37.0850   27.5350   33.9960 H   0  0  0  0  0  0  0  0  0  0  0  0
   36.5360   28.8260   32.2360 C   0  0  0  0  0  0  0  0  0  0  0  0
   36.5540   29.8280   32.6520 H   0  0  0  0  0  0  0  0  0  0  0  0
   36.2460   28.4480   30.9410 C   0  0  0  0  0  0  0  0  0  0  0  0
   35.9840   29.1020   30.1110 H   0  0  0  0  0  0  0  0  0  0  0  0
   36.3470   27.1320   30.8920 O   0  0  0  0  0  0  0  0  0  0  0  0
  1  2  1  0  0  0  0
  2  8  1  0  0  0  0
  2  3  2  0  0  0  0
  3  9  1  0  0  0  0
  4  3  1  0  0  0  0
  5  4  2  0  0  0  0
  6  1  2  0  0  0  0
  6  5  1  0  0  0  0
  7  1  1  0  0  0  0
  9 14  1  0  0  0  0
 10  9  2  0  0  0  0
 10 11  1  0  0  0  0
 11 12  2  0  0  0  0
 12 13  1  0  0  0  0
 13 17  1  0  0  0  0
 14 13  2  0  0  0  0
 15 10  1  0  0  0  0
 16 11  1  0  0  0  0
 17 19  1  0  0  0  0
 17 20  1  0  0  0  0
 18 17  1  0  0  0  0
 21  5  1  0  0  0  0
 21 22  2  0  0  0  0
 22 23  1  0  0  0  0
 24 25  1  0  0  0  0
 24 22  1  0  0  0  0
 26 24  2  0  0  0  0
 27 26  1  0  0  0  0
 28 26  1  0  0  0  0
 28 21  1  0  0  0  0
M  END
>  <minimizedAffinity>
-5.61500168

$$$$

 OpenBabel03272502243D

 28 30  0  0  0  0  0  0  0  0999 V2000
   35.7250   27.9420   31.9940 C   0  0  0  0  0  0  0  0  0  0  0  0
   36.6110   26.9780   32.4690 C   0  0  0  0  0  0  0  0  0  0  0  0
   37.0710   27.0900   33.7690 C   0  0  0  0  0  0  0  0  0  0  0  0
   36.6310   28.1400   34.5100 N   0  0  0  0  0  0  0  0  0  0  0  0
   35.7770   29.0560   34.0270 C   0  0  0  0  0  0  0  0  0  0  0  0
   35.3240   28.9530   32.7630 N   0  0  0  0  0  0  0  0  0  0  0  0
   35.3810   27.8300   30.9730 H   0  0  0  0  0  0  0  0  0  0  0  0
   36.9730   26.1440   31.9100 H   0  0  0  0  0  0  0  0  0  0  0  0
   38.0100   26.1570   34.4160 C   0  0  0  0  0  0  0  0  0  0  0  0
   39.2060   25.8000   33.8600 C   0  0  0  0  0  0  0  0  0  0  0  0
   40.0740   24.9250   34.4760 C   0  0  0  0  0  0  0  0  0  0  0  0
   39.7460   24.3890   35.6770 N   0  0  0  0  0  0  0  0  0  0  0  0
   38.5740   24.7490   36.2060 C   0  0  0  0  0  0  0  0  0  0  0  0
   37.7180   25.6010   35.6180 N   0  0  0  0  0  0  0  0  0  0  0  0
   39.4260   26.2530   32.8980 H   0  0  0  0  0  0  0  0  0  0  0  0
   40.9730   24.7290   33.9380 H   0  0  0  0  0  0  0  0  0  0  0  0
   38.1880   24.1770   37.5230 C   0  0  0  0  0  0  0  0  0  0  0  0
   36.9900   23.4870   37.3490 F   0  0  0  0  0  0  0  0  0  0  0  0
   39.1850   23.3280   38.0140 F   0  0  0  0  0  0  0  0  0  0  0  0
   37.9510   25.1350   38.4510 F   0  0  0  0  0  0  0  0  0  0  0  0
   35.3880   30.1330   34.9380 C   0  0  0  0  0  0  0  0  0  0  0  0
   36.1410   31.0280   35.6710 C   0  0  0  0  0  0  0  0  0  0  0  0
   37.2200   31.0400   35.6570 H   0  0  0  0  0  0  0  0  0  0  0  0
   35.2210   31.8110   36.3460 C   0  0  0  0  0  0  0  0  0  0  0  0
   35.4890   32.6200   37.0170 H   0  0  0  0  0  0  0  0  0  0  0  0
   33.9580   31.3700   36.0060 C   0  0  0  0  0  0  0  0  0  0  0  0
   33.0080   31.7680   36.3600 H   0  0  0  0  0  0  0  0  0  0  0  0
   34.1150   30.3660   35.1620 O   0  0  0  0  0  0  0  0  0  0  0  0
  1  2  2  0  0  0  0
  1  6  1  0  0  0  0
  2  3  1  0  0  0  0
  3  9  1  0  0  0  0
  3  4  2  0  0  0  0
  5  4  1  0  0  0  0
  5 21  1  0  0  0  0
  6  5  2  0  0  0  0
  7  1  1  0  0  0  0
  8  2  1  0  0  0  0
  9 14  1  0  0  0  0
 10  9  2  0  0  0  0
 10 11  1  0  0  0  0
 11 12  2  0  0  0  0
 12 13  1  0  0  0  0
 13 17  1  0  0  0  0
 14 13  2  0  0  0  0
 15 10  1  0  0  0  0
 16 11  1  0  0  0  0
 17 19  1  0  0  0  0
 17 20  1  0  0  0  0
 18 17  1  0  0  0  0
 21 28  1  0  0  0  0
 21 22  2  0  0  0  0
 22 24  1  0  0  0  0
 23 22  1  0  0  0  0
 24 25  1  0  0  0  0
 26 24  2  0  0  0  0
 26 27  1  0  0  0  0
 28 26  1  0  0  0  0
M  END
>  <minimizedAffinity>
-5.60689783

$$$$

 OpenBabel03272502243D

 28 30  0  0  0  0  0  0  0  0999 V2000
   38.2240   24.6290   30.4880 C   0  0  0  0  0  0  0  0  0  0  0  0
   38.4380   25.3060   31.6870 C   0  0  0  0  0  0  0  0  0  0  0  0
   37.9230   24.7640   32.8510 C   0  0  0  0  0  0  0  0  0  0  0  0
   37.2350   23.5960   32.7580 N   0  0  0  0  0  0  0  0  0  0  0  0
   37.0430   22.9650   31.5890 C   0  0  0  0  0  0  0  0  0  0  0  0
   37.5410   23.4860   30.4520 N   0  0  0  0  0  0  0  0  0  0  0  0
   38.6380   25.0760   29.5930 H   0  0  0  0  0  0  0  0  0  0  0  0
   38.9740   26.2240   31.7900 H   0  0  0  0  0  0  0  0  0  0  0  0
   38.0600   25.3580   34.1930 C   0  0  0  0  0  0  0  0  0  0  0  0
   38.2270   26.6980   34.3990 C   0  0  0  0  0  0  0  0  0  0  0  0
   38.3560   27.2400   35.6590 C   0  0  0  0  0  0  0  0  0  0  0  0
   38.3170   26.4300   36.7440 N   0  0  0  0  0  0  0  0  0  0  0  0
   38.1530   25.1230   36.5240 C   0  0  0  0  0  0  0  0  0  0  0  0
   38.0270   24.5800   35.3030 N   0  0  0  0  0  0  0  0  0  0  0  0
   38.2520   27.3080   33.5010 H   0  0  0  0  0  0  0  0  0  0  0  0
   38.4800   28.2980   35.6830 H   0  0  0  0  0  0  0  0  0  0  0  0
   38.1080   24.2100   37.6970 C   0  0  0  0  0  0  0  0  0  0  0  0
   39.3310   23.5450   37.7630 F   0  0  0  0  0  0  0  0  0  0  0  0
   37.8620   24.9190   38.8780 F   0  0  0  0  0  0  0  0  0  0  0  0
   37.1550   23.2550   37.5700 F   0  0  0  0  0  0  0  0  0  0  0  0
   36.2830   21.7150   31.6390 C   0  0  0  0  0  0  0  0  0  0  0  0
   35.1240   21.3750   32.3070 C   0  0  0  0  0  0  0  0  0  0  0  0
   34.5850   22.0640   32.9400 H   0  0  0  0  0  0  0  0  0  0  0  0
   34.8840   20.0540   31.9700 C   0  0  0  0  0  0  0  0  0  0  0  0
   34.0380   19.4790   32.3330 H   0  0  0  0  0  0  0  0  0  0  0  0
   35.8910   19.6430   31.1220 C   0  0  0  0  0  0  0  0  0  0  0  0
   36.0040   18.6590   30.6680 H   0  0  0  0  0  0  0  0  0  0  0  0
   36.7000   20.6740   30.9560 O   0  0  0  0  0  0  0  0  0  0  0  0
  1  2  1  0  0  0  0
  2  8  1  0  0  0  0
  2  3  2  0  0  0  0
  3  9  1  0  0  0  0
  4  3  1  0  0  0  0
  5 21  1  0  0  0  0
  5  4  2  0  0  0  0
  6  1  2  0  0  0  0
  6  5  1  0  0  0  0
  7  1  1  0  0  0  0
  9 10  2  0  0  0  0
  9 14  1  0  0  0  0
 10 11  1  0  0  0  0
 11 16  1  0  0  0  0
 11 12  2  0  0  0  0
 13 12  1  0  0  0  0
 13 17  1  0  0  0  0
 14 13  2  0  0  0  0
 15 10  1  0  0  0  0
 17 18  1  0  0  0  0
 17 19  1  0  0  0  0
 20 17  1  0  0  0  0
 21 22  2  0  0  0  0
 22 23  1  0  0  0  0
 24 22  1  0  0  0  0
 24 25  1  0  0  0  0
 26 24  2  0  0  0  0
 27 26  1  0  0  0  0
 28 26  1  0  0  0  0
 28 21  1  0  0  0  0
M  END
>  <minimizedAffinity>
-5.57204676

$$$$

 OpenBabel03272502243D

 28 30  0  0  0  0  0  0  0  0999 V2000
   35.7810   29.6470   31.5200 C   0  0  0  0  0  0  0  0  0  0  0  0
   36.3230   28.3800   31.7230 C   0  0  0  0  0  0  0  0  0  0  0  0
   36.4750   27.9290   33.0220 C   0  0  0  0  0  0  0  0  0  0  0  0
   36.0850   28.7530   34.0300 N   0  0  0  0  0  0  0  0  0  0  0  0
   35.5660   29.9700   33.8060 C   0  0  0  0  0  0  0  0  0  0  0  0
   35.4150   30.4150   32.5440 N   0  0  0  0  0  0  0  0  0  0  0  0
   35.6740   29.9740   30.4930 H   0  0  0  0  0  0  0  0  0  0  0  0
   36.6380   27.7120   30.9520 H   0  0  0  0  0  0  0  0  0  0  0  0
   37.0330   26.6190   33.4020 C   0  0  0  0  0  0  0  0  0  0  0  0
   37.2940   25.6310   32.4960 C   0  0  0  0  0  0  0  0  0  0  0  0
   37.8150   24.4100   32.8650 C   0  0  0  0  0  0  0  0  0  0  0  0
   38.0840   24.1630   34.1700 N   0  0  0  0  0  0  0  0  0  0  0  0
   37.8230   25.1400   35.0420 C   0  0  0  0  0  0  0  0  0  0  0  0
   37.3160   26.3350   34.6980 N   0  0  0  0  0  0  0  0  0  0  0  0
   37.0630   25.8730   31.4630 H   0  0  0  0  0  0  0  0  0  0  0  0
   37.9720   23.7270   32.0630 H   0  0  0  0  0  0  0  0  0  0  0  0
   38.1080   24.8970   36.4810 C   0  0  0  0  0  0  0  0  0  0  0  0
   38.2790   26.1370   37.0940 F   0  0  0  0  0  0  0  0  0  0  0  0
   37.0700   24.1810   37.0870 F   0  0  0  0  0  0  0  0  0  0  0  0
   39.2620   24.2110   36.6690 F   0  0  0  0  0  0  0  0  0  0  0  0
   35.1900   30.7480   34.9870 C   0  0  0  0  0  0  0  0  0  0  0  0
   35.9410   31.5090   35.8580 C   0  0  0  0  0  0  0  0  0  0  0  0
   37.0090   31.6330   35.7620 H   0  0  0  0  0  0  0  0  0  0  0  0
   35.0370   32.0080   36.7800 C   0  0  0  0  0  0  0  0  0  0  0  0
   35.3090   32.6520   37.6090 H   0  0  0  0  0  0  0  0  0  0  0  0
   33.7850   31.5380   36.4410 C   0  0  0  0  0  0  0  0  0  0  0  0
   32.8480   31.7410   36.9590 H   0  0  0  0  0  0  0  0  0  0  0  0
   33.9320   30.7900   35.3620 O   0  0  0  0  0  0  0  0  0  0  0  0
  1  2  2  0  0  0  0
  1  6  1  0  0  0  0
  2  3  1  0  0  0  0
  3  9  1  0  0  0  0
  3  4  2  0  0  0  0
  5  4  1  0  0  0  0
  5 21  1  0  0  0  0
  6  5  2  0  0  0  0
  7  1  1  0  0  0  0
  8  2  1  0  0  0  0
  9 14  1  0  0  0  0
 10 11  1  0  0  0  0
 10  9  2  0  0  0  0
 11 12  2  0  0  0  0
 12 13  1  0  0  0  0
 13 17  1  0  0  0  0
 14 13  2  0  0  0  0
 15 10  1  0  0  0  0
 16 11  1  0  0  0  0
 17 20  1  0  0  0  0
 17 19  1  0  0  0  0
 17 18  1  0  0  0  0
 21 28  1  0  0  0  0
 21 22  2  0  0  0  0
 22 24  1  0  0  0  0
 23 22  1  0  0  0  0
 24 25  1  0  0  0  0
 26 24  2  0  0  0  0
 26 27  1  0  0  0  0
 28 26  1  0  0  0  0
M  END
>  <minimizedAffinity>
-5.476933

$$$$

 OpenBabel03272502243D

 28 30  0  0  0  0  0  0  0  0999 V2000
   39.6760   27.1460   33.2470 C   0  0  0  0  0  0  0  0  0  0  0  0
   39.9940   26.3680   34.3580 C   0  0  0  0  0  0  0  0  0  0  0  0
   39.1790   25.2920   34.6620 C   0  0  0  0  0  0  0  0  0  0  0  0
   38.1120   25.0550   33.8560 N   0  0  0  0  0  0  0  0  0  0  0  0
   37.8290   25.8210   32.7920 C   0  0  0  0  0  0  0  0  0  0  0  0
   38.6170   26.8700   32.4890 N   0  0  0  0  0  0  0  0  0  0  0  0
   40.3300   27.9820   33.0320 H   0  0  0  0  0  0  0  0  0  0  0  0
   40.8250   26.5300   35.0080 H   0  0  0  0  0  0  0  0  0  0  0  0
   39.3780   24.3770   35.8010 C   0  0  0  0  0  0  0  0  0  0  0  0
   38.5090   24.2980   36.8520 C   0  0  0  0  0  0  0  0  0  0  0  0
   38.7080   23.4400   37.9110 C   0  0  0  0  0  0  0  0  0  0  0  0
   39.8000   22.6370   37.9280 N   0  0  0  0  0  0  0  0  0  0  0  0
   40.6390   22.7280   36.8930 C   0  0  0  0  0  0  0  0  0  0  0  0
   40.4590   23.5600   35.8540 N   0  0  0  0  0  0  0  0  0  0  0  0
   37.6490   24.9590   36.7960 H   0  0  0  0  0  0  0  0  0  0  0  0
   37.9560   23.4740   38.6650 H   0  0  0  0  0  0  0  0  0  0  0  0
   41.8460   21.8600   36.8840 C   0  0  0  0  0  0  0  0  0  0  0  0
   41.7980   21.0580   38.0240 F   0  0  0  0  0  0  0  0  0  0  0  0
   41.8950   21.0760   35.7270 F   0  0  0  0  0  0  0  0  0  0  0  0
   42.9950   22.5730   36.9620 F   0  0  0  0  0  0  0  0  0  0  0  0
   36.6470   25.4480   32.0130 C   0  0  0  0  0  0  0  0  0  0  0  0
   35.7410   26.2090   31.3040 C   0  0  0  0  0  0  0  0  0  0  0  0
   35.8040   27.2850   31.2330 H   0  0  0  0  0  0  0  0  0  0  0  0
   34.8390   25.3030   30.7730 C   0  0  0  0  0  0  0  0  0  0  0  0
   33.9920   25.5810   30.1560 H   0  0  0  0  0  0  0  0  0  0  0  0
   35.2230   24.0400   31.1750 C   0  0  0  0  0  0  0  0  0  0  0  0
   34.7310   23.0990   30.9320 H   0  0  0  0  0  0  0  0  0  0  0  0
   36.3090   24.1830   31.9120 O   0  0  0  0  0  0  0  0  0  0  0  0
  1  2  1  0  0  0  0
  2  3  2  0  0  0  0
  2  8  1  0  0  0  0
  3  9  1  0  0  0  0
  4  3  1  0  0  0  0
  5  4  2  0  0  0  0
  6  5  1  0  0  0  0
  6  1  2  0  0  0  0
  7  1  1  0  0  0  0
  9 14  2  0  0  0  0
  9 10  1  0  0  0  0
 10 11  2  0  0  0  0
 11 12  1  0  0  0  0
 11 16  1  0  0  0  0
 13 12  2  0  0  0  0
 14 13  1  0  0  0  0
 15 10  1  0  0  0  0
 17 13  1  0  0  0  0
 17 20  1  0  0  0  0
 17 18  1  0  0  0  0
 19 17  1  0  0  0  0
 21  5  1  0  0  0  0
 22 21  2  0  0  0  0
 23 22  1  0  0  0  0
 24 26  2  0  0  0  0
 24 22  1  0  0  0  0
 25 24  1  0  0  0  0
 26 28  1  0  0  0  0
 27 26  1  0  0  0  0
 28 21  1  0  0  0  0
M  END
>  <minimizedAffinity>
-5.45105934

$$$$

 OpenBabel03272502243D

 28 30  0  0  0  0  0  0  0  0999 V2000
   37.5520   24.8140   31.2920 C   0  0  0  0  0  0  0  0  0  0  0  0
   38.1390   24.0520   32.3010 C   0  0  0  0  0  0  0  0  0  0  0  0
   38.1500   24.5600   33.5870 C   0  0  0  0  0  0  0  0  0  0  0  0
   37.5850   25.7780   33.7940 N   0  0  0  0  0  0  0  0  0  0  0  0
   37.0270   26.4910   32.8040 C   0  0  0  0  0  0  0  0  0  0  0  0
   37.0120   26.0040   31.5490 N   0  0  0  0  0  0  0  0  0  0  0  0
   37.5570   24.3920   30.2950 H   0  0  0  0  0  0  0  0  0  0  0  0
   38.5890   23.0940   32.1670 H   0  0  0  0  0  0  0  0  0  0  0  0
   38.7320   23.8810   34.7590 C   0  0  0  0  0  0  0  0  0  0  0  0
   39.7340   22.9570   34.6600 C   0  0  0  0  0  0  0  0  0  0  0  0
   40.2680   22.3290   35.7640 C   0  0  0  0  0  0  0  0  0  0  0  0
   39.7950   22.6260   36.9990 N   0  0  0  0  0  0  0  0  0  0  0  0
   38.8160   23.5310   37.0760 C   0  0  0  0  0  0  0  0  0  0  0  0
   38.2860   24.1510   36.0100 N   0  0  0  0  0  0  0  0  0  0  0  0
   40.0810   22.7510   33.6530 H   0  0  0  0  0  0  0  0  0  0  0  0
   41.0440   21.6300   35.5520 H   0  0  0  0  0  0  0  0  0  0  0  0
   38.2790   23.8760   38.4190 C   0  0  0  0  0  0  0  0  0  0  0  0
   37.2170   23.0120   38.6840 F   0  0  0  0  0  0  0  0  0  0  0  0
   39.2680   23.7660   39.4010 F   0  0  0  0  0  0  0  0  0  0  0  0
   37.7740   25.1320   38.4640 F   0  0  0  0  0  0  0  0  0  0  0  0
   36.4560   27.7880   33.1730 C   0  0  0  0  0  0  0  0  0  0  0  0
   35.8740   28.7800   32.4120 C   0  0  0  0  0  0  0  0  0  0  0  0
   35.7590   28.7110   31.3410 H   0  0  0  0  0  0  0  0  0  0  0  0
   35.5220   29.7710   33.3120 C   0  0  0  0  0  0  0  0  0  0  0  0
   35.0360   30.7000   33.0330 H   0  0  0  0  0  0  0  0  0  0  0  0
   35.8980   29.3520   34.5720 C   0  0  0  0  0  0  0  0  0  0  0  0
   35.7670   29.8930   35.5080 H   0  0  0  0  0  0  0  0  0  0  0  0
   36.4510   28.1600   34.4320 O   0  0  0  0  0  0  0  0  0  0  0  0
  1  6  2  0  0  0  0
  1  2  1  0  0  0  0
  2  3  2  0  0  0  0
  3  4  1  0  0  0  0
  3  9  1  0  0  0  0
  5 21  1  0  0  0  0
  5  4  2  0  0  0  0
  6  5  1  0  0  0  0
  7  1  1  0  0  0  0
  8  2  1  0  0  0  0
  9 14  1  0  0  0  0
 10  9  2  0  0  0  0
 10 11  1  0  0  0  0
 11 12  2  0  0  0  0
 12 13  1  0  0  0  0
 13 17  1  0  0  0  0
 14 13  2  0  0  0  0
 15 10  1  0  0  0  0
 16 11  1  0  0  0  0
 17 20  1  0  0  0  0
 17 18  1  0  0  0  0
 17 19  1  0  0  0  0
 21 28  1  0  0  0  0
 22 21  2  0  0  0  0
 22 24  1  0  0  0  0
 23 22  1  0  0  0  0
 24 26  2  0  0  0  0
 25 24  1  0  0  0  0
 26 27  1  0  0  0  0
 28 26  1  0  0  0  0
M  END
>  <minimizedAffinity>
-5.40577412

$$$$

 OpenBabel03272502243D

 28 30  0  0  0  0  0  0  0  0999 V2000
   35.6710   24.2960   31.1260 C   0  0  0  0  0  0  0  0  0  0  0  0
   36.6140   23.8460   32.0480 C   0  0  0  0  0  0  0  0  0  0  0  0
   37.3080   24.7850   32.7910 C   0  0  0  0  0  0  0  0  0  0  0  0
   37.0290   26.0970   32.5770 N   0  0  0  0  0  0  0  0  0  0  0  0
   36.1150   26.5030   31.6810 C   0  0  0  0  0  0  0  0  0  0  0  0
   35.4350   25.5950   30.9550 N   0  0  0  0  0  0  0  0  0  0  0  0
   35.1420   23.5400   30.5590 H   0  0  0  0  0  0  0  0  0  0  0  0
   36.8530   22.8240   32.2380 H   0  0  0  0  0  0  0  0  0  0  0  0
   38.3350   24.4720   33.8000 C   0  0  0  0  0  0  0  0  0  0  0  0
   39.6650   24.3770   33.5030 C   0  0  0  0  0  0  0  0  0  0  0  0
   40.6140   24.0820   34.4570 C   0  0  0  0  0  0  0  0  0  0  0  0
   40.2340   23.8770   35.7410 N   0  0  0  0  0  0  0  0  0  0  0  0
   38.9300   23.9730   36.0130 C   0  0  0  0  0  0  0  0  0  0  0  0
   37.9930   24.2600   35.0950 N   0  0  0  0  0  0  0  0  0  0  0  0
   39.9230   24.5500   32.4630 H   0  0  0  0  0  0  0  0  0  0  0  0
   41.6160   24.0380   34.0960 H   0  0  0  0  0  0  0  0  0  0  0  0
   38.4830   23.7520   37.4140 C   0  0  0  0  0  0  0  0  0  0  0  0
   39.5530   23.1990   38.1160 F   0  0  0  0  0  0  0  0  0  0  0  0
   38.0660   24.9490   38.0050 F   0  0  0  0  0  0  0  0  0  0  0  0
   37.4660   22.8620   37.4960 F   0  0  0  0  0  0  0  0  0  0  0  0
   35.9180   27.9480   31.5560 C   0  0  0  0  0  0  0  0  0  0  0  0
   36.5240   28.8870   30.7460 C   0  0  0  0  0  0  0  0  0  0  0  0
   37.2970   28.6400   30.0340 H   0  0  0  0  0  0  0  0  0  0  0  0
   35.9240   30.0910   31.0720 C   0  0  0  0  0  0  0  0  0  0  0  0
   36.1760   31.0390   30.6100 H   0  0  0  0  0  0  0  0  0  0  0  0
   34.9890   29.8450   32.0560 C   0  0  0  0  0  0  0  0  0  0  0  0
   34.3380   30.5740   32.5380 H   0  0  0  0  0  0  0  0  0  0  0  0
   35.0250   28.5490   32.3080 O   0  0  0  0  0  0  0  0  0  0  0  0
  1  2  1  0  0  0  0
  2  8  1  0  0  0  0
  2  3  2  0  0  0  0
  3  9  1  0  0  0  0
  4  3  1  0  0  0  0
  5  4  2  0  0  0  0
  6  1  2  0  0  0  0
  6  5  1  0  0  0  0
  7  1  1  0  0  0  0
  9 14  1  0  0  0  0
 10  9  2  0  0  0  0
 10 11  1  0  0  0  0
 11 12  2  0  0  0  0
 12 13  1  0  0  0  0
 13 17  1  0  0  0  0
 14 13  2  0  0  0  0
 15 10  1  0  0  0  0
 16 11  1  0  0  0  0
 17 20  1  0  0  0  0
 17 19  1  0  0  0  0
 17 18  1  0  0  0  0
 21  5  1  0  0  0  0
 21 28  1  0  0  0  0
 22 24  1  0  0  0  0
 22 21  2  0  0  0  0
 23 22  1  0  0  0  0
 24 26  2  0  0  0  0
 25 24  1  0  0  0  0
 26 28  1  0  0  0  0
 26 27  1  0  0  0  0
M  END
>  <minimizedAffinity>
-5.3295989

$$$$

 OpenBabel03272502243D

 28 30  0  0  0  0  0  0  0  0999 V2000
   36.6710   27.9930   33.7580 C   0  0  0  0  0  0  0  0  0  0  0  0
   36.9780   26.9510   34.6300 C   0  0  0  0  0  0  0  0  0  0  0  0
   37.8710   25.9820   34.2090 C   0  0  0  0  0  0  0  0  0  0  0  0
   38.4000   26.1030   32.9630 N   0  0  0  0  0  0  0  0  0  0  0  0
   38.0860   27.1170   32.1430 C   0  0  0  0  0  0  0  0  0  0  0  0
   37.2180   28.0650   32.5450 N   0  0  0  0  0  0  0  0  0  0  0  0
   35.9700   28.7380   34.1120 H   0  0  0  0  0  0  0  0  0  0  0  0
   36.5800   26.8310   35.6120 H   0  0  0  0  0  0  0  0  0  0  0  0
   38.2950   24.8190   35.0090 C   0  0  0  0  0  0  0  0  0  0  0  0
   38.8830   23.7140   34.4620 C   0  0  0  0  0  0  0  0  0  0  0  0
   39.2730   22.6330   35.2220 C   0  0  0  0  0  0  0  0  0  0  0  0
   39.0760   22.6500   36.5630 N   0  0  0  0  0  0  0  0  0  0  0  0
   38.5010   23.7390   37.0810 C   0  0  0  0  0  0  0  0  0  0  0  0
   38.1150   24.7990   36.3530 N   0  0  0  0  0  0  0  0  0  0  0  0
   39.0210   23.7450   33.3850 H   0  0  0  0  0  0  0  0  0  0  0  0
   39.7190   21.8350   34.6740 H   0  0  0  0  0  0  0  0  0  0  0  0
   38.2720   23.7850   38.5490 C   0  0  0  0  0  0  0  0  0  0  0  0
   37.2920   22.8410   38.8540 F   0  0  0  0  0  0  0  0  0  0  0  0
   39.4520   23.5220   39.2520 F   0  0  0  0  0  0  0  0  0  0  0  0
   37.7920   24.9840   38.9590 F   0  0  0  0  0  0  0  0  0  0  0  0
   38.7310   27.1200   30.8290 C   0  0  0  0  0  0  0  0  0  0  0  0
   39.0280   28.1480   29.9580 C   0  0  0  0  0  0  0  0  0  0  0  0
   38.7930   29.1810   30.1640 H   0  0  0  0  0  0  0  0  0  0  0  0
   39.6400   27.5430   28.8740 C   0  0  0  0  0  0  0  0  0  0  0  0
   40.0010   28.0790   28.0030 H   0  0  0  0  0  0  0  0  0  0  0  0
   39.6930   26.1860   29.1210 C   0  0  0  0  0  0  0  0  0  0  0  0
   40.1130   25.4180   28.4720 H   0  0  0  0  0  0  0  0  0  0  0  0
   39.1370   25.9870   30.3030 O   0  0  0  0  0  0  0  0  0  0  0  0
  1  7  1  0  0  0  0
  1  2  1  0  0  0  0
  2  8  1  0  0  0  0
  3  2  2  0  0  0  0
  3  9  1  0  0  0  0
  4  3  1  0  0  0  0
  5  6  1  0  0  0  0
  5  4  2  0  0  0  0
  6  1  2  0  0  0  0
  9 14  1  0  0  0  0
 10  9  2  0  0  0  0
 10 11  1  0  0  0  0
 11 12  2  0  0  0  0
 12 13  1  0  0  0  0
 13 17  1  0  0  0  0
 14 13  2  0  0  0  0
 15 10  1  0  0  0  0
 16 11  1  0  0  0  0
 17 18  1  0  0  0  0
 17 20  1  0  0  0  0
 17 19  1  0  0  0  0
 21  5  1  0  0  0  0
 22 23  1  0  0  0  0
 22 21  2  0  0  0  0
 24 26  2  0  0  0  0
 24 22  1  0  0  0  0
 25 24  1  0  0  0  0
 26 28  1  0  0  0  0
 27 26  1  0  0  0  0
 28 21  1  0  0  0  0
M  END
>  <minimizedAffinity>
-5.32137632

$$$$

 OpenBabel03272502243D

 28 30  0  0  0  0  0  0  0  0999 V2000
   38.1920   23.6180   38.3410 C   0  0  0  0  0  0  0  0  0  0  0  0
   37.6240   24.3760   37.3180 C   0  0  0  0  0  0  0  0  0  0  0  0
   38.3210   24.5060   36.1300 C   0  0  0  0  0  0  0  0  0  0  0  0
   39.5240   23.8850   36.0280 N   0  0  0  0  0  0  0  0  0  0  0  0
   40.0490   23.1610   37.0300 C   0  0  0  0  0  0  0  0  0  0  0  0
   39.3770   23.0290   38.1890 N   0  0  0  0  0  0  0  0  0  0  0  0
   37.6250   23.5330   39.2590 H   0  0  0  0  0  0  0  0  0  0  0  0
   36.6810   24.8740   37.3700 H   0  0  0  0  0  0  0  0  0  0  0  0
   37.8590   25.2730   34.9600 C   0  0  0  0  0  0  0  0  0  0  0  0
   37.9450   24.8010   33.6810 C   0  0  0  0  0  0  0  0  0  0  0  0
   37.5100   25.5290   32.5950 C   0  0  0  0  0  0  0  0  0  0  0  0
   36.9740   26.7590   32.7840 N   0  0  0  0  0  0  0  0  0  0  0  0
   36.8970   27.2050   34.0410 C   0  0  0  0  0  0  0  0  0  0  0  0
   37.3170   26.5070   35.1080 N   0  0  0  0  0  0  0  0  0  0  0  0
   38.3810   23.8120   33.5770 H   0  0  0  0  0  0  0  0  0  0  0  0
   37.6330   25.0480   31.6520 H   0  0  0  0  0  0  0  0  0  0  0  0
   36.3130   28.5510   34.2780 C   0  0  0  0  0  0  0  0  0  0  0  0
   36.9920   29.1230   35.3530 F   0  0  0  0  0  0  0  0  0  0  0  0
   36.4200   29.3540   33.1380 F   0  0  0  0  0  0  0  0  0  0  0  0
   35.0070   28.4920   34.6340 F   0  0  0  0  0  0  0  0  0  0  0  0
   41.3540   22.5480   36.7790 C   0  0  0  0  0  0  0  0  0  0  0  0
   42.5330   23.0730   36.2910 C   0  0  0  0  0  0  0  0  0  0  0  0
   42.6430   24.1080   36.0040 H   0  0  0  0  0  0  0  0  0  0  0  0
   43.4260   22.0160   36.2770 C   0  0  0  0  0  0  0  0  0  0  0  0
   44.4550   22.0940   35.9430 H   0  0  0  0  0  0  0  0  0  0  0  0
   42.7670   20.8990   36.7510 C   0  0  0  0  0  0  0  0  0  0  0  0
   43.1790   19.8980   36.8710 H   0  0  0  0  0  0  0  0  0  0  0  0
   41.5330   21.2730   37.0370 O   0  0  0  0  0  0  0  0  0  0  0  0
  1  7  1  0  0  0  0
  2  8  1  0  0  0  0
  2  1  2  0  0  0  0
  3  2  1  0  0  0  0
  4  3  2  0  0  0  0
  4  5  1  0  0  0  0
  5  6  2  0  0  0  0
  6  1  1  0  0  0  0
  9 14  1  0  0  0  0
  9  3  1  0  0  0  0
 10  9  2  0  0  0  0
 11 12  2  0  0  0  0
 11 10  1  0  0  0  0
 12 13  1  0  0  0  0
 13 17  1  0  0  0  0
 13 14  2  0  0  0  0
 15 10  1  0  0  0  0
 16 11  1  0  0  0  0
 17 20  1  0  0  0  0
 17 18  1  0  0  0  0
 19 17  1  0  0  0  0
 21  5  1  0  0  0  0
 21 28  1  0  0  0  0
 22 21  2  0  0  0  0
 23 22  1  0  0  0  0
 24 22  1  0  0  0  0
 24 26  2  0  0  0  0
 25 24  1  0  0  0  0
 26 27  1  0  0  0  0
 26 28  1  0  0  0  0
M  END
>  <minimizedAffinity>
-5.29363871

$$$$
