
 OpenBabel03272508423D

 19 20  0  0  0  0  0  0  0  0999 V2000
   33.6250   29.4510   47.2680 C   0  0  0  0  0  0  0  0  0  0  0  0
   34.3090   30.0530   48.1280 O   0  0  0  0  0  0  0  0  0  0  0  0
   31.3880   26.7470   48.2240 C   0  0  0  0  0  0  0  0  0  0  0  0
   32.1110   25.5970   47.8920 C   0  0  0  0  0  0  0  0  0  0  0  0
   33.3790   25.7370   47.3360 C   0  0  0  0  0  0  0  0  0  0  0  0
   33.8370   26.9980   47.1470 N   0  0  0  0  0  0  0  0  0  0  0  0
   33.1230   28.0970   47.4740 C   0  0  0  0  0  0  0  0  0  0  0  0
   31.8950   27.9690   48.0130 N   0  0  0  0  0  0  0  0  0  0  0  0
   30.3870   26.6540   48.6630 H   0  0  0  0  0  0  0  0  0  0  0  0
   31.7050   24.6030   48.0610 H   0  0  0  0  0  0  0  0  0  0  0  0
   33.9970   24.8970   47.0550 H   0  0  0  0  0  0  0  0  0  0  0  0
   33.3310   30.1570   46.0130 C   0  0  0  0  0  0  0  0  0  0  0  0
   32.2260   30.9650   45.8180 C   0  0  0  0  0  0  0  0  0  0  0  0
   31.4520   31.1850   46.5320 H   0  0  0  0  0  0  0  0  0  0  0  0
   32.3900   31.3960   44.4970 C   0  0  0  0  0  0  0  0  0  0  0  0
   31.6960   32.0590   43.9960 H   0  0  0  0  0  0  0  0  0  0  0  0
   33.5430   30.8480   43.9750 C   0  0  0  0  0  0  0  0  0  0  0  0
   33.9590   30.9810   42.9760 H   0  0  0  0  0  0  0  0  0  0  0  0
   34.0810   30.1100   44.9140 O   0  0  0  0  0  0  0  0  0  0  0  0
  1  7  1  0  0  0  0
  1  2  2  0  0  0  0
  3  9  1  0  0  0  0
  4 10  1  0  0  0  0
  4  3  2  0  0  0  0
  5  4  1  0  0  0  0
  6  5  2  0  0  0  0
  6  7  1  0  0  0  0
  7  8  2  0  0  0  0
  8  3  1  0  0  0  0
 11  5  1  0  0  0  0
 12  1  1  0  0  0  0
 13 12  2  0  0  0  0
 13 14  1  0  0  0  0
 15 13  1  0  0  0  0
 16 15  1  0  0  0  0
 17 15  2  0  0  0  0
 17 19  1  0  0  0  0
 18 17  1  0  0  0  0
 19 12  1  0  0  0  0
M  END
>  <minimizedAffinity>
-2.43473458

>  <minimizedRMSD>
5.96058226

$$$$
