
 OpenBabel03272505493D

 39 43  0  0  0  0  0  0  0  0999 V2000
   36.3750   30.4050   45.9620 C   0  0  0  0  0  0  0  0  0  0  0  0
   36.9060   30.7570   47.1490 C   0  0  0  0  0  0  0  0  0  0  0  0
   36.2050   30.5370   48.3250 C   0  0  0  0  0  0  0  0  0  0  0  0
   34.9460   29.9470   48.2410 C   0  0  0  0  0  0  0  0  0  0  0  0
   34.4010   29.5840   46.9990 C   0  0  0  0  0  0  0  0  0  0  0  0
   35.1450   29.8300   45.9000 N   0  0  0  0  0  0  0  0  0  0  0  0
   37.8860   31.2180   47.2380 H   0  0  0  0  0  0  0  0  0  0  0  0
   36.5550   30.7870   49.3070 H   0  0  0  0  0  0  0  0  0  0  0  0
   34.3280   29.7390   49.1070 H   0  0  0  0  0  0  0  0  0  0  0  0
   37.1310   30.6410   44.6770 C   0  0  0  0  0  0  0  0  0  0  0  0
   36.9290   29.6810   43.5550 C   0  0  0  0  0  0  0  0  0  0  0  0
   36.3420   31.0560   43.4730 C   0  0  0  0  0  0  0  0  0  0  0  0
   36.2230   28.8450   43.7770 H   0  0  0  0  0  0  0  0  0  0  0  0
   37.7890   29.3820   42.9580 H   0  0  0  0  0  0  0  0  0  0  0  0
   36.8640   31.7290   42.7620 H   0  0  0  0  0  0  0  0  0  0  0  0
   35.2340   31.1130   43.5140 H   0  0  0  0  0  0  0  0  0  0  0  0
   39.6800   33.2790   45.0790 C   0  0  0  0  0  0  0  0  0  0  0  0
   40.8470   32.5270   45.3430 C   0  0  0  0  0  0  0  0  0  0  0  0
   40.7500   31.1080   45.3810 C   0  0  0  0  0  0  0  0  0  0  0  0
   39.5340   30.5720   45.1600 N   0  0  0  0  0  0  0  0  0  0  0  0
   38.4240   31.3060   44.9080 C   0  0  0  0  0  0  0  0  0  0  0  0
   38.4960   32.6470   44.8670 N   0  0  0  0  0  0  0  0  0  0  0  0
   39.7580   34.3590   45.0490 H   0  0  0  0  0  0  0  0  0  0  0  0
   41.7770   33.0590   45.5070 H   0  0  0  0  0  0  0  0  0  0  0  0
   41.6390   30.5550   45.5820 H   0  0  0  0  0  0  0  0  0  0  0  0
   33.0900   28.9650   46.8650 C   0  0  0  0  0  0  0  0  0  0  0  0
   32.4110   28.5790   45.7540 N   0  0  0  0  0  0  0  0  0  0  0  0
   31.2150   28.0460   46.1130 C   0  0  0  0  0  0  0  0  0  0  0  0
   31.1650   28.1110   47.4800 N   0  0  0  0  0  0  0  0  0  0  0  0
   32.2900   28.6620   47.9290 N   0  0  0  0  0  0  0  0  0  0  0  0
   30.4190   27.6370   45.5200 H   0  0  0  0  0  0  0  0  0  0  0  0
   30.1330   27.6890   48.3930 C   0  0  0  0  0  0  0  0  0  0  0  0
   30.0220   27.5370   49.7630 C   0  0  0  0  0  0  0  0  0  0  0  0
   30.8900   27.7760   50.3690 H   0  0  0  0  0  0  0  0  0  0  0  0
   28.7270   27.0890   49.9540 C   0  0  0  0  0  0  0  0  0  0  0  0
   28.4040   26.8950   50.9860 H   0  0  0  0  0  0  0  0  0  0  0  0
   28.1200   26.9910   48.7030 C   0  0  0  0  0  0  0  0  0  0  0  0
   27.0990   26.6470   48.7550 H   0  0  0  0  0  0  0  0  0  0  0  0
   28.9970   27.3590   47.8210 O   0  0  0  0  0  0  0  0  0  0  0  0
  1  2  1  0  0  0  0
  2  7  1  0  0  0  0
  2  3  2  0  0  0  0
  3  8  1  0  0  0  0
  4  3  1  0  0  0  0
  4  9  1  0  0  0  0
  5  4  2  0  0  0  0
  6  1  2  0  0  0  0
  6  5  1  0  0  0  0
 10 21  1  0  0  0  0
 10  1  1  0  0  0  0
 11 13  1  0  0  0  0
 11 10  1  0  0  0  0
 12 16  1  0  0  0  0
 12 11  1  0  0  0  0
 12 10  1  0  0  0  0
 14 11  1  0  0  0  0
 15 12  1  0  0  0  0
 17 18  1  0  0  0  0
 18 19  2  0  0  0  0
 18 24  1  0  0  0  0
 19 25  1  0  0  0  0
 20 19  1  0  0  0  0
 21 20  2  0  0  0  0
 22 21  1  0  0  0  0
 22 17  2  0  0  0  0
 23 17  1  0  0  0  0
 26  5  1  0  0  0  0
 26 30  2  0  0  0  0
 27 28  2  0  0  0  0
 27 26  1  0  0  0  0
 28 29  1  0  0  0  0
 29 30  1  0  0  0  0
 29 32  1  0  0  0  0
 31 28  1  0  0  0  0
 32 33  2  0  0  0  0
 33 35  1  0  0  0  0
 33 34  1  0  0  0  0
 35 36  1  0  0  0  0
 37 38  1  0  0  0  0
 37 35  2  0  0  0  0
 39 32  1  0  0  0  0
 39 37  1  0  0  0  0
M  END
>  <minimizedAffinity>
-5.63667393

>  <minimizedRMSD>
0.927406907

$$$$
