
 OpenBabel03272500123D

 20 21  0  0  0  0  0  0  0  0999 V2000
   35.6280   29.3740   50.5340 C   0  0  0  0  0  0  0  0  0  0  0  0
   36.1980   30.3050   49.6480 C   0  0  0  0  0  0  0  0  0  0  0  0
   35.7030   30.3770   48.3410 C   0  0  0  0  0  0  0  0  0  0  0  0
   34.6880   29.5400   47.9850 N   0  0  0  0  0  0  0  0  0  0  0  0
   34.1610   28.6550   48.8650 C   0  0  0  0  0  0  0  0  0  0  0  0
   34.6210   28.5710   50.1150 N   0  0  0  0  0  0  0  0  0  0  0  0
   36.0160   29.3270   51.5350 H   0  0  0  0  0  0  0  0  0  0  0  0
   36.1320   31.0790   47.6720 H   0  0  0  0  0  0  0  0  0  0  0  0
   33.0740   27.7430   48.5230 C   0  0  0  0  0  0  0  0  0  0  0  0
   33.1820   26.6390   47.7010 C   0  0  0  0  0  0  0  0  0  0  0  0
   34.0390   26.2560   47.1800 H   0  0  0  0  0  0  0  0  0  0  0  0
   31.9210   26.0760   47.6590 C   0  0  0  0  0  0  0  0  0  0  0  0
   31.5470   25.2040   47.1400 H   0  0  0  0  0  0  0  0  0  0  0  0
   31.1030   26.8560   48.4520 C   0  0  0  0  0  0  0  0  0  0  0  0
   30.0520   26.8090   48.7210 H   0  0  0  0  0  0  0  0  0  0  0  0
   31.8390   27.8220   48.9340 O   0  0  0  0  0  0  0  0  0  0  0  0
   37.3100   31.1730   50.1480 C   0  0  0  0  0  0  0  0  0  0  0  0
   38.3660   31.2040   49.2150 F   0  0  0  0  0  0  0  0  0  0  0  0
   36.8380   32.4550   50.2620 F   0  0  0  0  0  0  0  0  0  0  0  0
   37.8260   30.7450   51.3430 F   0  0  0  0  0  0  0  0  0  0  0  0
  1  7  1  0  0  0  0
  2 17  1  0  0  0  0
  2  1  2  0  0  0  0
  3  2  1  0  0  0  0
  4  3  2  0  0  0  0
  4  5  1  0  0  0  0
  5  6  2  0  0  0  0
  6  1  1  0  0  0  0
  8  3  1  0  0  0  0
  9  5  1  0  0  0  0
  9 16  1  0  0  0  0
 10  9  2  0  0  0  0
 11 10  1  0  0  0  0
 12 10  1  0  0  0  0
 12 14  2  0  0  0  0
 13 12  1  0  0  0  0
 14 15  1  0  0  0  0
 14 16  1  0  0  0  0
 17 19  1  0  0  0  0
 17 20  1  0  0  0  0
 18 17  1  0  0  0  0
M  END
>  <minimizedAffinity>
-4.96344948

>  <minimizedRMSD>
1.05974746

$$$$
