
 OpenBabel03272504413D

 44 46  0  0  0  0  0  0  0  0999 V2000
   34.7780   29.4110   48.8280 C   0  0  0  0  0  0  0  0  0  0  0  0
   34.1080   30.2290   49.2300 H   0  0  0  0  0  0  0  0  0  0  0  0
   35.6720   29.4650   49.4830 H   0  0  0  0  0  0  0  0  0  0  0  0
   37.5510   30.4510   48.5180 Cl  0  0  0  0  0  0  0  0  0  0  0  0
   36.3970   30.2950   47.1820 C   0  0  0  0  0  0  0  0  0  0  0  0
   36.7790   30.6640   45.9420 C   0  0  0  0  0  0  0  0  0  0  0  0
   35.8950   30.5480   44.8950 C   0  0  0  0  0  0  0  0  0  0  0  0
   34.6270   30.0520   45.1530 C   0  0  0  0  0  0  0  0  0  0  0  0
   34.2980   29.6890   46.4630 C   0  0  0  0  0  0  0  0  0  0  0  0
   35.1560   29.7970   47.4980 C   0  0  0  0  0  0  0  0  0  0  0  0
   36.2300   30.8540   43.8980 H   0  0  0  0  0  0  0  0  0  0  0  0
   34.0110   30.0000   44.2650 H   0  0  0  0  0  0  0  0  0  0  0  0
   33.2940   29.3480   46.4250 H   0  0  0  0  0  0  0  0  0  0  0  0
   39.7620   32.8350   45.9960 C   0  0  0  0  0  0  0  0  0  0  0  0
   40.6330   32.1040   45.1160 C   0  0  0  0  0  0  0  0  0  0  0  0
   40.1570   30.9160   44.5560 C   0  0  0  0  0  0  0  0  0  0  0  0
   38.9020   30.4900   44.8550 N   0  0  0  0  0  0  0  0  0  0  0  0
   38.1060   31.2000   45.6860 C   0  0  0  0  0  0  0  0  0  0  0  0
   38.5410   32.3470   46.2370 N   0  0  0  0  0  0  0  0  0  0  0  0
   40.1380   33.7400   46.4150 H   0  0  0  0  0  0  0  0  0  0  0  0
   41.6050   32.4820   44.9160 H   0  0  0  0  0  0  0  0  0  0  0  0
   41.0320   30.2250   43.6950 N   0  0  0  0  0  0  0  0  0  0  0  0
   41.6760   30.7500   43.0580 H   0  0  0  0  0  0  0  0  0  0  0  0
   41.1120   29.1990   43.6210 H   0  0  0  0  0  0  0  0  0  0  0  0
   34.1230   28.1170   49.0540 C   0  0  0  0  0  0  0  0  0  0  0  0
   34.5750   27.5270   49.8740 H   0  0  0  0  0  0  0  0  0  0  0  0
   34.2340   27.4880   48.1310 H   0  0  0  0  0  0  0  0  0  0  0  0
   32.7920   28.2630   49.3440 O   0  0  0  0  0  0  0  0  0  0  0  0
   32.6630   26.5340   47.3730 O   0  0  0  0  0  0  0  0  0  0  0  0
   31.8440   27.4250   48.2570 P   0  0  2  0  0  0  0  0  0  0  0  0
   31.0240   28.6050   47.3020 O   0  0  0  0  0  0  0  0  0  0  0  0
   30.5160   28.2910   46.0620 C   0  0  0  0  0  0  0  0  0  0  0  0
   29.2890   27.7480   45.7300 C   0  0  0  0  0  0  0  0  0  0  0  0
   28.5090   27.4730   46.4000 H   0  0  0  0  0  0  0  0  0  0  0  0
   29.2810   27.6330   44.3510 C   0  0  0  0  0  0  0  0  0  0  0  0
   28.4670   27.2420   43.7510 H   0  0  0  0  0  0  0  0  0  0  0  0
   30.4900   28.1090   43.9190 C   0  0  0  0  0  0  0  0  0  0  0  0
   30.8460   28.1750   42.8880 H   0  0  0  0  0  0  0  0  0  0  0  0
   31.1910   28.4870   44.9610 O   0  0  0  0  0  0  0  0  0  0  0  0
   30.6530   26.5260   48.9900 O   0  0  0  0  0  0  0  0  0  0  0  0
   29.8360   27.3320   49.7630 C   0  0  0  0  0  0  0  0  0  0  0  0
   29.3120   26.6630   50.8700 F   0  0  0  0  0  0  0  0  0  0  0  0
   30.5290   28.4070   50.2760 F   0  0  0  0  0  0  0  0  0  0  0  0
   28.7690   27.7900   48.9970 F   0  0  0  0  0  0  0  0  0  0  0  0
  1 25  1  0  0  0  0
  1  2  1  0  0  0  0
  1  3  1  0  0  0  0
  5 10  1  0  0  0  0
  5  4  1  0  0  0  0
  6  5  2  0  0  0  0
  7  8  2  0  0  0  0
  7  6  1  0  0  0  0
  8  9  1  0  0  0  0
  9 10  2  0  0  0  0
 10  1  1  0  0  0  0
 11  7  1  0  0  0  0
 12  8  1  0  0  0  0
 13  9  1  0  0  0  0
 14 19  1  0  0  0  0
 14 20  1  0  0  0  0
 15 14  2  0  0  0  0
 16 17  2  0  0  0  0
 16 15  1  0  0  0  0
 17 18  1  0  0  0  0
 18  6  1  0  0  0  0
 18 19  2  0  0  0  0
 21 15  1  0  0  0  0
 22 16  1  0  0  0  0
 23 22  1  0  0  0  0
 24 22  1  0  0  0  0
 25 28  1  0  0  0  0
 25 26  1  0  0  0  0
 27 25  1  0  0  0  0
 30 29  2  6  0  0  0
 30 40  1  0  0  0  0
 30 28  1  0  0  0  0
 31 30  1  0  0  0  0
 32 31  1  0  0  0  0
 33 32  2  0  0  0  0
 33 34  1  0  0  0  0
 35 33  1  0  0  0  0
 36 35  1  0  0  0  0
 37 35  2  0  0  0  0
 37 39  1  0  0  0  0
 38 37  1  0  0  0  0
 39 32  1  0  0  0  0
 40 41  1  0  0  0  0
 41 43  1  0  0  0  0
 41 42  1  0  0  0  0
 44 41  1  0  0  0  0
M  END
>  <minimizedAffinity>
-5.63471794

>  <minimizedRMSD>
0.307882041

$$$$
