
 OpenBabel03272506433D

 31 33  0  0  1  0  0  0  0  0999 V2000
   32.2270   28.2240   47.5300 C   0  0  2  0  0  0  0  0  0  0  0  0
   33.4990   28.1720   48.3380 C   0  0  1  0  0  0  0  0  0  0  0  0
   34.0300   26.9090   48.1900 O   0  0  0  0  0  0  0  0  0  0  0  0
   33.3360   26.2420   47.1920 C   0  0  0  0  0  0  0  0  0  0  0  0
   32.6120   27.3130   46.3780 C   0  0  1  0  0  0  0  0  0  0  0  0
   31.3390   27.8810   48.0850 H   0  0  0  0  0  0  0  0  0  0  0  0
   33.3220   28.4460   49.3980 H   0  0  0  0  0  0  0  0  0  0  0  0
   34.0200   25.6990   46.5210 H   0  0  0  0  0  0  0  0  0  0  0  0
   32.5670   25.6180   47.6720 H   0  0  0  0  0  0  0  0  0  0  0  0
   33.2840   27.8750   45.7280 H   0  0  0  0  0  0  0  0  0  0  0  0
   31.9810   29.5330   47.0880 O   0  0  0  0  0  0  0  0  0  0  0  0
   31.2190   29.5620   46.4880 H   0  0  0  0  0  0  0  0  0  0  0  0
   34.6690   29.3520   47.5790 S   0  0  0  0  0  0  0  0  0  0  0  0
   37.1910   29.3020   50.6400 C   0  0  0  0  0  0  0  0  0  0  0  0
   37.6560   30.6060   50.7390 C   0  0  0  0  0  0  0  0  0  0  0  0
   37.1810   31.5520   49.8300 C   0  0  0  0  0  0  0  0  0  0  0  0
   36.2780   31.1570   48.8800 N   0  0  0  0  0  0  0  0  0  0  0  0
   35.8520   29.8690   48.8230 C   0  0  0  0  0  0  0  0  0  0  0  0
   36.2970   28.9370   49.6920 N   0  0  0  0  0  0  0  0  0  0  0  0
   37.5930   28.6230   51.3680 H   0  0  0  0  0  0  0  0  0  0  0  0
   38.3700   30.9340   51.4840 H   0  0  0  0  0  0  0  0  0  0  0  0
   37.4790   32.5830   49.8230 H   0  0  0  0  0  0  0  0  0  0  0  0
   31.5220   26.7590   45.7360 O   0  0  0  0  0  0  0  0  0  0  0  0
   30.1950   27.0050   46.0180 C   0  0  0  0  0  0  0  0  0  0  0  0
   29.4910   25.9170   46.5390 C   0  0  0  0  0  0  0  0  0  0  0  0
   29.7500   24.8850   46.7850 H   0  0  0  0  0  0  0  0  0  0  0  0
   28.1790   26.3480   46.7600 C   0  0  0  0  0  0  0  0  0  0  0  0
   27.2910   25.8600   47.1470 H   0  0  0  0  0  0  0  0  0  0  0  0
   28.2080   27.6780   46.3460 C   0  0  0  0  0  0  0  0  0  0  0  0
   27.3380   28.3450   46.3760 H   0  0  0  0  0  0  0  0  0  0  0  0
   29.4000   28.0200   45.9210 O   0  0  0  0  0  0  0  0  0  0  0  0
  1  6  1  1  0  0  0
  1  2  1  0  0  0  0
  2  7  1  1  0  0  0
  3  2  1  0  0  0  0
  4  9  1  0  0  0  0
  4  3  1  0  0  0  0
  5 10  1  6  0  0  0
  5  4  1  0  0  0  0
  5  1  1  0  0  0  0
  8  4  1  0  0  0  0
 11  1  1  0  0  0  0
 12 11  1  0  0  0  0
 13  2  1  0  0  0  0
 13 18  1  0  0  0  0
 14 15  1  0  0  0  0
 14 20  1  0  0  0  0
 15 21  1  0  0  0  0
 16 15  2  0  0  0  0
 17 16  1  0  0  0  0
 18 17  2  0  0  0  0
 18 19  1  0  0  0  0
 19 14  2  0  0  0  0
 22 16  1  0  0  0  0
 23 24  1  0  0  0  0
 23  5  1  0  0  0  0
 24 25  2  0  0  0  0
 25 27  1  0  0  0  0
 25 26  1  0  0  0  0
 27 28  1  0  0  0  0
 29 30  1  0  0  0  0
 29 27  2  0  0  0  0
 31 24  1  0  0  0  0
 31 29  1  0  0  0  0
M  END
>  <minimizedAffinity>
-4.2285347

>  <minimizedRMSD>
2.00174904

$$$$
