
 OpenBabel03272500113D

 20 21  0  0  0  0  0  0  0  0999 V2000
   35.7880   29.4240   50.4810 C   0  0  0  0  0  0  0  0  0  0  0  0
   36.3980   30.3120   49.5780 C   0  0  0  0  0  0  0  0  0  0  0  0
   35.9590   30.3250   48.2500 C   0  0  0  0  0  0  0  0  0  0  0  0
   34.9570   29.4730   47.8890 N   0  0  0  0  0  0  0  0  0  0  0  0
   34.3910   28.6300   48.7860 C   0  0  0  0  0  0  0  0  0  0  0  0
   34.7970   28.6030   50.0570 N   0  0  0  0  0  0  0  0  0  0  0  0
   36.1320   29.4220   51.4990 H   0  0  0  0  0  0  0  0  0  0  0  0
   36.4180   30.9950   47.5680 H   0  0  0  0  0  0  0  0  0  0  0  0
   33.3180   27.7030   48.4390 C   0  0  0  0  0  0  0  0  0  0  0  0
   33.4540   26.5740   47.6570 C   0  0  0  0  0  0  0  0  0  0  0  0
   34.3260   26.1770   47.1760 H   0  0  0  0  0  0  0  0  0  0  0  0
   32.1960   26.0070   47.5950 C   0  0  0  0  0  0  0  0  0  0  0  0
   31.8400   25.1160   47.0930 H   0  0  0  0  0  0  0  0  0  0  0  0
   31.3510   26.8080   48.3360 C   0  0  0  0  0  0  0  0  0  0  0  0
   30.2940   26.7670   48.5720 H   0  0  0  0  0  0  0  0  0  0  0  0
   32.0700   27.7920   48.8090 O   0  0  0  0  0  0  0  0  0  0  0  0
   37.4890   31.2020   50.0850 C   0  0  0  0  0  0  0  0  0  0  0  0
   38.5530   31.2480   49.1620 F   0  0  0  0  0  0  0  0  0  0  0  0
   36.9940   32.4760   50.1910 F   0  0  0  0  0  0  0  0  0  0  0  0
   38.0020   30.7870   51.2870 F   0  0  0  0  0  0  0  0  0  0  0  0
  1  7  1  0  0  0  0
  2 17  1  0  0  0  0
  2  1  2  0  0  0  0
  3  2  1  0  0  0  0
  4  3  2  0  0  0  0
  4  5  1  0  0  0  0
  5  6  2  0  0  0  0
  6  1  1  0  0  0  0
  8  3  1  0  0  0  0
  9  5  1  0  0  0  0
  9 16  1  0  0  0  0
 10  9  2  0  0  0  0
 11 10  1  0  0  0  0
 12 10  1  0  0  0  0
 12 14  2  0  0  0  0
 13 12  1  0  0  0  0
 14 15  1  0  0  0  0
 14 16  1  0  0  0  0
 17 19  1  0  0  0  0
 17 20  1  0  0  0  0
 18 17  1  0  0  0  0
M  END
>  <minimizedAffinity>
-4.95051479

>  <minimizedRMSD>
1.07799339

$$$$
