
 OpenBabel03272509303D

 37 39  0  0  1  0  0  0  0  0999 V2000
   36.2720   30.7170   48.9830 C   0  0  2  0  0  0  0  0  0  0  0  0
   37.2450   31.6030   49.7000 C   0  0  0  0  0  0  0  0  0  0  0  0
   38.1590   30.8390   50.6320 C   0  0  0  0  0  0  0  0  0  0  0  0
   37.3400   30.0420   51.6470 C   0  0  0  0  0  0  0  0  0  0  0  0
   36.0800   29.4440   51.0820 C   0  0  0  0  0  0  0  0  0  0  0  0
   36.2370   29.3380   49.5530 C   0  0  1  0  0  0  0  0  0  0  0  0
   35.2050   31.0960   49.0270 H   0  0  0  0  0  0  0  0  0  0  0  0
   36.5960   32.2170   50.4120 H   0  0  0  0  0  0  0  0  0  0  0  0
   37.7750   32.3330   49.1190 H   0  0  0  0  0  0  0  0  0  0  0  0
   38.7440   31.5860   51.1840 H   0  0  0  0  0  0  0  0  0  0  0  0
   38.8260   30.1290   50.1350 H   0  0  0  0  0  0  0  0  0  0  0  0
   37.0690   30.7190   52.4780 H   0  0  0  0  0  0  0  0  0  0  0  0
   37.9650   29.1990   52.0460 H   0  0  0  0  0  0  0  0  0  0  0  0
   35.2170   30.1000   51.2300 H   0  0  0  0  0  0  0  0  0  0  0  0
   35.8980   28.4250   51.4880 H   0  0  0  0  0  0  0  0  0  0  0  0
   37.1930   28.8750   49.4940 H   0  0  0  0  0  0  0  0  0  0  0  0
   36.5960   30.6260   47.5340 C   0  0  0  0  0  0  0  0  0  0  0  0
   37.9350   30.8860   47.1960 C   0  0  0  0  0  0  0  0  0  0  0  0
   38.2670   30.8050   45.8390 C   0  0  0  0  0  0  0  0  0  0  0  0
   37.2790   30.4820   44.9340 N   0  0  0  0  0  0  0  0  0  0  0  0
   35.9900   30.2390   45.3170 C   0  0  0  0  0  0  0  0  0  0  0  0
   35.6670   30.3160   46.6240 N   0  0  0  0  0  0  0  0  0  0  0  0
   38.7900   31.1350   47.7950 H   0  0  0  0  0  0  0  0  0  0  0  0
   39.2510   30.9780   45.4320 H   0  0  0  0  0  0  0  0  0  0  0  0
   35.3060   29.9960   44.5210 H   0  0  0  0  0  0  0  0  0  0  0  0
   33.9300   28.3590   49.1320 C   0  0  0  0  0  0  0  0  0  0  0  0
   33.1440   29.0480   49.8470 O   0  0  0  0  0  0  0  0  0  0  0  0
   35.3330   28.4470   48.9210 N   0  0  0  0  0  0  0  0  0  0  0  0
   35.6880   27.7460   48.1930 H   0  0  0  0  0  0  0  0  0  0  0  0
   33.1470   27.3020   48.4400 C   0  0  0  0  0  0  0  0  0  0  0  0
   33.5990   26.3370   47.5690 C   0  0  0  0  0  0  0  0  0  0  0  0
   34.5950   26.1690   47.2290 H   0  0  0  0  0  0  0  0  0  0  0  0
   32.5210   25.5440   47.1490 C   0  0  0  0  0  0  0  0  0  0  0  0
   32.5780   24.7030   46.4600 H   0  0  0  0  0  0  0  0  0  0  0  0
   31.4460   26.0950   47.8160 C   0  0  0  0  0  0  0  0  0  0  0  0
   30.4400   25.7030   47.7050 H   0  0  0  0  0  0  0  0  0  0  0  0
   31.8560   27.0880   48.5330 O   0  0  0  0  0  0  0  0  0  0  0  0
  1  7  1  1  0  0  0
  1  6  1  0  0  0  0
  1  2  1  0  0  0  0
  2  8  1  0  0  0  0
  2  3  1  0  0  0  0
  3 10  1  0  0  0  0
  3  4  1  0  0  0  0
  4 13  1  0  0  0  0
  4 12  1  0  0  0  0
  5 14  1  0  0  0  0
  5 15  1  0  0  0  0
  5  4  1  0  0  0  0
  6 16  1  6  0  0  0
  6  5  1  0  0  0  0
  9  2  1  0  0  0  0
 11  3  1  0  0  0  0
 17  1  1  0  0  0  0
 18 17  1  0  0  0  0
 18 23  1  0  0  0  0
 19 18  2  0  0  0  0
 20 21  2  0  0  0  0
 20 19  1  0  0  0  0
 21 22  1  0  0  0  0
 22 17  2  0  0  0  0
 24 19  1  0  0  0  0
 25 21  1  0  0  0  0
 26 27  2  0  0  0  0
 28 26  1  0  0  0  0
 28  6  1  0  0  0  0
 29 28  1  0  0  0  0
 30 37  1  0  0  0  0
 30 26  1  0  0  0  0
 31 30  2  0  0  0  0
 32 31  1  0  0  0  0
 33 31  1  0  0  0  0
 33 35  2  0  0  0  0
 34 33  1  0  0  0  0
 35 37  1  0  0  0  0
 36 35  1  0  0  0  0
M  END
>  <minimizedAffinity>
-5.9097271

>  <minimizedRMSD>
0.577907979

$$$$
