
 OpenBabel03272509353D

 46 50  0  0  1  0  0  0  0  0999 V2000
   36.3880   30.7350   45.0660 C   0  0  1  0  0  0  0  0  0  0  0  0
   37.4600   31.6060   45.6090 C   0  0  0  0  0  0  0  0  0  0  0  0
   37.9060   30.2820   45.2290 C   0  0  2  0  0  0  0  0  0  0  0  0
   36.0980   30.6510   44.0260 H   0  0  0  0  0  0  0  0  0  0  0  0
   37.3420   31.8530   46.7160 H   0  0  0  0  0  0  0  0  0  0  0  0
   37.4610   32.5490   45.0430 H   0  0  0  0  0  0  0  0  0  0  0  0
   37.9110   29.3670   45.8070 H   0  0  0  0  0  0  0  0  0  0  0  0
   38.7490   30.3210   43.9900 C   0  0  0  0  0  0  0  0  0  0  0  0
   39.1560   31.6380   43.7330 C   0  0  0  0  0  0  0  0  0  0  0  0
   40.0350   31.9040   42.7120 C   0  0  0  0  0  0  0  0  0  0  0  0
   40.5430   30.8770   41.9080 C   0  0  0  0  0  0  0  0  0  0  0  0
   40.1200   29.5880   42.1900 C   0  0  0  0  0  0  0  0  0  0  0  0
   40.5300   28.5030   41.4700 C   0  0  0  0  0  0  0  0  0  0  0  0
   40.1060   27.2160   41.7220 C   0  0  0  0  0  0  0  0  0  0  0  0
   39.2180   27.0100   42.7650 C   0  0  0  0  0  0  0  0  0  0  0  0
   38.8050   28.0990   43.4930 C   0  0  0  0  0  0  0  0  0  0  0  0
   39.2560   29.3710   43.2030 C   0  0  0  0  0  0  0  0  0  0  0  0
   38.9750   32.6070   44.1540 H   0  0  0  0  0  0  0  0  0  0  0  0
   40.4510   32.8440   42.3750 H   0  0  0  0  0  0  0  0  0  0  0  0
   41.2380   30.9420   41.0750 H   0  0  0  0  0  0  0  0  0  0  0  0
   41.2240   28.6210   40.6470 H   0  0  0  0  0  0  0  0  0  0  0  0
   40.4140   26.3380   41.1670 H   0  0  0  0  0  0  0  0  0  0  0  0
   38.8440   26.0270   43.0200 H   0  0  0  0  0  0  0  0  0  0  0  0
   38.0970   27.9120   44.3210 H   0  0  0  0  0  0  0  0  0  0  0  0
   33.8350   28.4240   46.5900 C   0  0  0  0  0  0  0  0  0  0  0  0
   34.6890   29.0470   45.6370 C   0  0  0  0  0  0  0  0  0  0  0  0
   35.5030   30.0630   46.0520 C   0  0  0  0  0  0  0  0  0  0  0  0
   35.4270   30.4020   47.3730 N   0  0  0  0  0  0  0  0  0  0  0  0
   34.6330   29.8260   48.2720 C   0  0  0  0  0  0  0  0  0  0  0  0
   33.8130   28.8140   47.8880 N   0  0  0  0  0  0  0  0  0  0  0  0
   33.2200   27.6380   46.2160 H   0  0  0  0  0  0  0  0  0  0  0  0
   34.7050   28.7410   44.6200 H   0  0  0  0  0  0  0  0  0  0  0  0
   34.7000   30.2900   49.7090 C   0  0  0  0  0  0  0  0  0  0  0  0
   34.5820   31.3910   49.6700 H   0  0  0  0  0  0  0  0  0  0  0  0
   33.9220   29.7950   50.2880 H   0  0  0  0  0  0  0  0  0  0  0  0
   36.0990   29.9420   50.2090 C   0  0  0  0  0  0  0  0  0  0  0  0
   36.0260   29.9200   51.3270 H   0  0  0  0  0  0  0  0  0  0  0  0
   36.3960   28.9270   49.8470 H   0  0  0  0  0  0  0  0  0  0  0  0
   37.0760   30.9850   49.8400 C   0  0  0  0  0  0  0  0  0  0  0  0
   38.3500   31.1240   49.3320 C   0  0  0  0  0  0  0  0  0  0  0  0
   38.8860   30.2350   49.0920 H   0  0  0  0  0  0  0  0  0  0  0  0
   38.6570   32.4650   49.2370 C   0  0  0  0  0  0  0  0  0  0  0  0
   39.6000   32.8400   48.8670 H   0  0  0  0  0  0  0  0  0  0  0  0
   37.5260   33.0830   49.7010 C   0  0  0  0  0  0  0  0  0  0  0  0
   37.4650   34.1800   49.7470 H   0  0  0  0  0  0  0  0  0  0  0  0
   36.6110   32.1960   50.0500 O   0  0  0  0  0  0  0  0  0  0  0  0
  1  4  1  6  0  0  0
  1  3  1  0  0  0  0
  1  2  1  0  0  0  0
  1 27  1  0  0  0  0
  2  5  1  0  0  0  0
  3  2  1  0  0  0  0
  3  7  1  1  0  0  0
  6  2  1  0  0  0  0
  8  3  1  0  0  0  0
  9  8  1  0  0  0  0
  9 18  1  0  0  0  0
 10  9  2  0  0  0  0
 11 12  2  0  0  0  0
 11 10  1  0  0  0  0
 12 17  1  0  0  0  0
 13 14  2  0  0  0  0
 13 12  1  0  0  0  0
 14 15  1  0  0  0  0
 15 23  1  0  0  0  0
 15 16  2  0  0  0  0
 16 24  1  0  0  0  0
 17 16  1  0  0  0  0
 17  8  2  0  0  0  0
 19 10  1  0  0  0  0
 20 11  1  0  0  0  0
 21 13  1  0  0  0  0
 22 14  1  0  0  0  0
 25 30  1  0  0  0  0
 26 27  1  0  0  0  0
 26 25  2  0  0  0  0
 27 28  2  0  0  0  0
 28 29  1  0  0  0  0
 29 33  1  0  0  0  0
 30 29  2  0  0  0  0
 31 25  1  0  0  0  0
 32 26  1  0  0  0  0
 33 36  1  0  0  0  0
 33 35  1  0  0  0  0
 34 33  1  0  0  0  0
 36 37  1  0  0  0  0
 38 36  1  0  0  0  0
 39 46  1  0  0  0  0
 39 36  1  0  0  0  0
 40 39  2  0  0  0  0
 41 40  1  0  0  0  0
 42 40  1  0  0  0  0
 42 44  2  0  0  0  0
 43 42  1  0  0  0  0
 44 45  1  0  0  0  0
 44 46  1  0  0  0  0
M  END
>  <minimizedAffinity>
-5.88056421

>  <minimizedRMSD>
2.3172121

$$$$
