
 OpenBabel03272500123D

 20 21  0  0  0  0  0  0  0  0999 V2000
   35.6680   29.0620   50.2630 C   0  0  0  0  0  0  0  0  0  0  0  0
   36.2710   30.1870   49.6740 C   0  0  0  0  0  0  0  0  0  0  0  0
   35.9790   30.4830   48.3390 C   0  0  0  0  0  0  0  0  0  0  0  0
   35.1210   29.6660   47.6650 N   0  0  0  0  0  0  0  0  0  0  0  0
   34.5560   28.5900   48.2630 C   0  0  0  0  0  0  0  0  0  0  0  0
   34.8230   28.2910   49.5370 N   0  0  0  0  0  0  0  0  0  0  0  0
   35.8980   28.8440   51.2890 H   0  0  0  0  0  0  0  0  0  0  0  0
   36.4340   31.3320   47.8930 H   0  0  0  0  0  0  0  0  0  0  0  0
   33.6320   27.6910   47.5780 C   0  0  0  0  0  0  0  0  0  0  0  0
   32.5080   28.0790   46.8770 C   0  0  0  0  0  0  0  0  0  0  0  0
   32.1130   29.0620   46.7070 H   0  0  0  0  0  0  0  0  0  0  0  0
   31.9410   26.9120   46.4010 C   0  0  0  0  0  0  0  0  0  0  0  0
   31.0530   26.7430   45.8050 H   0  0  0  0  0  0  0  0  0  0  0  0
   32.7390   25.8700   46.8280 C   0  0  0  0  0  0  0  0  0  0  0  0
   32.6960   24.7920   46.7040 H   0  0  0  0  0  0  0  0  0  0  0  0
   33.7190   26.3910   47.5170 O   0  0  0  0  0  0  0  0  0  0  0  0
   37.1990   31.0140   50.5090 C   0  0  0  0  0  0  0  0  0  0  0  0
   38.5040   30.9720   49.9790 F   0  0  0  0  0  0  0  0  0  0  0  0
   36.7840   32.3180   50.4520 F   0  0  0  0  0  0  0  0  0  0  0  0
   37.2670   30.5900   51.8100 F   0  0  0  0  0  0  0  0  0  0  0  0
  1  7  1  0  0  0  0
  2  1  1  0  0  0  0
  2 17  1  0  0  0  0
  3  2  2  0  0  0  0
  4  5  2  0  0  0  0
  4  3  1  0  0  0  0
  5  6  1  0  0  0  0
  6  1  2  0  0  0  0
  8  3  1  0  0  0  0
  9  5  1  0  0  0  0
 10  9  2  0  0  0  0
 11 10  1  0  0  0  0
 12 14  2  0  0  0  0
 12 10  1  0  0  0  0
 13 12  1  0  0  0  0
 14 16  1  0  0  0  0
 15 14  1  0  0  0  0
 16  9  1  0  0  0  0
 17 20  1  0  0  0  0
 18 17  1  0  0  0  0
 19 17  1  0  0  0  0
M  END
>  <minimizedAffinity>
-4.66644001

>  <minimizedRMSD>
0.215238482

$$$$
