
 OpenBabel03272509573D

 45 48  0  0  0  0  0  0  0  0999 V2000
   34.4580   28.4120   48.3320 C   0  0  0  0  0  0  0  0  0  0  0  0
   35.4750   28.0000   48.1130 H   0  0  0  0  0  0  0  0  0  0  0  0
   34.3040   29.2360   47.6190 H   0  0  0  0  0  0  0  0  0  0  0  0
   33.5000   27.2700   48.1420 C   0  0  0  0  0  0  0  0  0  0  0  0
   33.4670   26.6550   49.0430 H   0  0  0  0  0  0  0  0  0  0  0  0
   33.8130   26.5990   47.3050 H   0  0  0  0  0  0  0  0  0  0  0  0
   32.1210   27.7280   47.8010 C   0  0  0  0  0  0  0  0  0  0  0  0
   31.1410   27.6310   48.7920 C   0  0  0  0  0  0  0  0  0  0  0  0
   29.8470   28.0290   48.5650 C   0  0  0  0  0  0  0  0  0  0  0  0
   29.5140   28.5210   47.3670 N   0  0  0  0  0  0  0  0  0  0  0  0
   30.4860   28.6060   46.4170 C   0  0  0  0  0  0  0  0  0  0  0  0
   31.7600   28.2260   46.6050 N   0  0  0  0  0  0  0  0  0  0  0  0
   31.3420   27.2420   49.7830 H   0  0  0  0  0  0  0  0  0  0  0  0
   29.0700   27.9630   49.3180 H   0  0  0  0  0  0  0  0  0  0  0  0
   30.0590   29.1650   45.0900 C   0  0  0  0  0  0  0  0  0  0  0  0
   30.5130   28.4980   44.3270 H   0  0  0  0  0  0  0  0  0  0  0  0
   28.9580   29.0400   44.9950 H   0  0  0  0  0  0  0  0  0  0  0  0
   30.4670   30.5870   44.9550 C   0  0  0  0  0  0  0  0  0  0  0  0
   29.6420   31.5760   44.4530 C   0  0  0  0  0  0  0  0  0  0  0  0
   28.6130   31.4120   44.1070 H   0  0  0  0  0  0  0  0  0  0  0  0
   30.3960   32.7330   44.4990 C   0  0  0  0  0  0  0  0  0  0  0  0
   29.9480   33.6620   44.1470 H   0  0  0  0  0  0  0  0  0  0  0  0
   31.6440   32.3900   45.0270 C   0  0  0  0  0  0  0  0  0  0  0  0
   32.3570   33.1980   45.1280 H   0  0  0  0  0  0  0  0  0  0  0  0
   31.6110   31.1150   45.2700 O   0  0  0  0  0  0  0  0  0  0  0  0
   34.5020   28.8420   49.6760 O   0  0  0  0  0  0  0  0  0  0  0  0
   37.2580   30.0050   51.7060 C   0  0  0  0  0  0  0  0  0  0  0  0
   38.0380   30.6580   50.7280 C   0  0  0  0  0  0  0  0  0  0  0  0
   37.5570   30.6530   49.4250 C   0  0  0  0  0  0  0  0  0  0  0  0
   36.3650   30.0100   49.2170 N   0  0  0  0  0  0  0  0  0  0  0  0
   35.6460   29.4010   50.1490 C   0  0  0  0  0  0  0  0  0  0  0  0
   36.1100   29.4040   51.4170 N   0  0  0  0  0  0  0  0  0  0  0  0
   37.6650   30.0290   52.7140 H   0  0  0  0  0  0  0  0  0  0  0  0
   38.9680   31.1580   50.9030 H   0  0  0  0  0  0  0  0  0  0  0  0
   38.8130   33.2610   49.2780 F   0  0  0  0  0  0  0  0  0  0  0  0
   38.7990   32.4740   48.2080 C   0  0  0  0  0  0  0  0  0  0  0  0
   38.2160   31.2700   48.2870 C   0  0  0  0  0  0  0  0  0  0  0  0
   38.2590   30.5320   47.1160 C   0  0  0  0  0  0  0  0  0  0  0  0
   38.8470   30.9890   45.9680 C   0  0  0  0  0  0  0  0  0  0  0  0
   39.4380   32.2390   45.9270 C   0  0  0  0  0  0  0  0  0  0  0  0
   39.4060   32.9740   47.0670 C   0  0  0  0  0  0  0  0  0  0  0  0
   37.8140   29.5310   47.0580 H   0  0  0  0  0  0  0  0  0  0  0  0
   38.8650   30.3890   45.0650 H   0  0  0  0  0  0  0  0  0  0  0  0
   39.9170   32.6420   45.0380 H   0  0  0  0  0  0  0  0  0  0  0  0
   39.8610   33.9550   47.0620 H   0  0  0  0  0  0  0  0  0  0  0  0
  1 26  1  0  0  0  0
  2  1  1  0  0  0  0
  3  1  1  0  0  0  0
  4  1  1  0  0  0  0
  4  5  1  0  0  0  0
  6  4  1  0  0  0  0
  7  4  1  0  0  0  0
  7  8  1  0  0  0  0
  8 13  1  0  0  0  0
  9  8  2  0  0  0  0
  9 14  1  0  0  0  0
 10  9  1  0  0  0  0
 11 12  1  0  0  0  0
 11 10  2  0  0  0  0
 12  7  2  0  0  0  0
 15 11  1  0  0  0  0
 16 15  1  0  0  0  0
 17 15  1  0  0  0  0
 18 15  1  0  0  0  0
 18 25  1  0  0  0  0
 19 21  1  0  0  0  0
 19 18  2  0  0  0  0
 20 19  1  0  0  0  0
 21 23  2  0  0  0  0
 22 21  1  0  0  0  0
 23 24  1  0  0  0  0
 23 25  1  0  0  0  0
 26 31  1  0  0  0  0
 27 33  1  0  0  0  0
 28 34  1  0  0  0  0
 28 27  2  0  0  0  0
 29 28  1  0  0  0  0
 30 29  2  0  0  0  0
 30 31  1  0  0  0  0
 31 32  2  0  0  0  0
 32 27  1  0  0  0  0
 36 37  1  0  0  0  0
 36 35  1  0  0  0  0
 37 29  1  0  0  0  0
 38 37  2  0  0  0  0
 39 38  1  0  0  0  0
 40 39  2  0  0  0  0
 40 41  1  0  0  0  0
 41 36  2  0  0  0  0
 42 38  1  0  0  0  0
 43 39  1  0  0  0  0
 44 40  1  0  0  0  0
 45 41  1  0  0  0  0
M  END
>  <minimizedAffinity>
-6.31019592

>  <minimizedRMSD>
0.958079696

$$$$
