
 OpenBabel03272500123D

 20 21  0  0  0  0  0  0  0  0999 V2000
   35.6730   29.0570   50.2600 C   0  0  0  0  0  0  0  0  0  0  0  0
   36.2800   30.1840   49.6810 C   0  0  0  0  0  0  0  0  0  0  0  0
   35.9870   30.4940   48.3480 C   0  0  0  0  0  0  0  0  0  0  0  0
   35.1240   29.6860   47.6690 N   0  0  0  0  0  0  0  0  0  0  0  0
   34.5560   28.6070   48.2590 C   0  0  0  0  0  0  0  0  0  0  0  0
   34.8240   28.2960   49.5290 N   0  0  0  0  0  0  0  0  0  0  0  0
   35.9050   28.8280   51.2840 H   0  0  0  0  0  0  0  0  0  0  0  0
   36.4450   31.3450   47.9100 H   0  0  0  0  0  0  0  0  0  0  0  0
   33.6270   27.7180   47.5670 C   0  0  0  0  0  0  0  0  0  0  0  0
   33.7100   26.3400   47.5340 C   0  0  0  0  0  0  0  0  0  0  0  0
   34.4330   25.6890   47.9850 H   0  0  0  0  0  0  0  0  0  0  0  0
   32.6370   25.9180   46.7730 C   0  0  0  0  0  0  0  0  0  0  0  0
   32.3140   24.9250   46.4880 H   0  0  0  0  0  0  0  0  0  0  0  0
   31.9490   27.0480   46.3780 C   0  0  0  0  0  0  0  0  0  0  0  0
   31.0590   27.2140   45.7810 H   0  0  0  0  0  0  0  0  0  0  0  0
   32.5800   28.0780   46.8760 O   0  0  0  0  0  0  0  0  0  0  0  0
   37.2130   31.0000   50.5210 C   0  0  0  0  0  0  0  0  0  0  0  0
   38.5210   30.9400   50.0000 F   0  0  0  0  0  0  0  0  0  0  0  0
   36.8160   32.3100   50.4600 F   0  0  0  0  0  0  0  0  0  0  0  0
   37.2660   30.5760   51.8240 F   0  0  0  0  0  0  0  0  0  0  0  0
  1  7  1  0  0  0  0
  2  1  1  0  0  0  0
  2 17  1  0  0  0  0
  3  2  2  0  0  0  0
  4  5  2  0  0  0  0
  4  3  1  0  0  0  0
  5  6  1  0  0  0  0
  6  1  2  0  0  0  0
  8  3  1  0  0  0  0
  9  5  1  0  0  0  0
 10  9  2  0  0  0  0
 10 11  1  0  0  0  0
 12 10  1  0  0  0  0
 13 12  1  0  0  0  0
 14 12  2  0  0  0  0
 14 16  1  0  0  0  0
 15 14  1  0  0  0  0
 16  9  1  0  0  0  0
 17 20  1  0  0  0  0
 18 17  1  0  0  0  0
 19 17  1  0  0  0  0
M  END
>  <minimizedAffinity>
-4.82255983

>  <minimizedRMSD>
0.270441264

$$$$
