
 OpenBabel03272504413D

 44 46  0  0  0  0  0  0  0  0999 V2000
   34.8150   29.4050   48.8420 C   0  0  0  0  0  0  0  0  0  0  0  0
   34.1550   30.2250   49.2560 H   0  0  0  0  0  0  0  0  0  0  0  0
   35.7150   29.4480   49.4890 H   0  0  0  0  0  0  0  0  0  0  0  0
   37.5870   30.4410   48.5170 Cl  0  0  0  0  0  0  0  0  0  0  0  0
   36.4230   30.2950   47.1890 C   0  0  0  0  0  0  0  0  0  0  0  0
   36.7950   30.6700   45.9480 C   0  0  0  0  0  0  0  0  0  0  0  0
   35.9030   30.5610   44.9070 C   0  0  0  0  0  0  0  0  0  0  0  0
   34.6360   30.0660   45.1720 C   0  0  0  0  0  0  0  0  0  0  0  0
   34.3170   29.6960   46.4830 C   0  0  0  0  0  0  0  0  0  0  0  0
   35.1840   29.7980   47.5110 C   0  0  0  0  0  0  0  0  0  0  0  0
   36.2310   30.8720   43.9080 H   0  0  0  0  0  0  0  0  0  0  0  0
   34.0130   30.0200   44.2890 H   0  0  0  0  0  0  0  0  0  0  0  0
   33.3120   29.3570   46.4510 H   0  0  0  0  0  0  0  0  0  0  0  0
   39.7790   32.8410   45.9800 C   0  0  0  0  0  0  0  0  0  0  0  0
   40.6460   32.1070   45.1000 C   0  0  0  0  0  0  0  0  0  0  0  0
   40.1680   30.9160   44.5470 C   0  0  0  0  0  0  0  0  0  0  0  0
   38.9140   30.4910   44.8520 N   0  0  0  0  0  0  0  0  0  0  0  0
   38.1220   31.2050   45.6840 C   0  0  0  0  0  0  0  0  0  0  0  0
   38.5590   32.3530   46.2280 N   0  0  0  0  0  0  0  0  0  0  0  0
   40.1570   33.7480   46.3940 H   0  0  0  0  0  0  0  0  0  0  0  0
   41.6170   32.4830   44.8950 H   0  0  0  0  0  0  0  0  0  0  0  0
   41.0400   30.2210   43.6850 N   0  0  0  0  0  0  0  0  0  0  0  0
   41.6810   30.7450   43.0430 H   0  0  0  0  0  0  0  0  0  0  0  0
   41.1190   29.1960   43.6140 H   0  0  0  0  0  0  0  0  0  0  0  0
   34.1520   28.1140   49.0660 C   0  0  0  0  0  0  0  0  0  0  0  0
   34.6020   27.5200   49.8850 H   0  0  0  0  0  0  0  0  0  0  0  0
   34.2600   27.4870   48.1420 H   0  0  0  0  0  0  0  0  0  0  0  0
   32.8230   28.2680   49.3560 O   0  0  0  0  0  0  0  0  0  0  0  0
   32.6850   26.5870   47.3450 O   0  0  0  0  0  0  0  0  0  0  0  0
   31.8690   27.4490   48.2590 P   0  0  2  0  0  0  0  0  0  0  0  0
   31.0310   28.6460   47.3410 O   0  0  0  0  0  0  0  0  0  0  0  0
   30.5970   28.3890   46.0610 C   0  0  0  0  0  0  0  0  0  0  0  0
   29.5970   27.5370   45.6280 C   0  0  0  0  0  0  0  0  0  0  0  0
   28.9790   26.9190   46.2350 H   0  0  0  0  0  0  0  0  0  0  0  0
   29.5650   27.6520   44.2510 C   0  0  0  0  0  0  0  0  0  0  0  0
   28.8960   27.1200   43.5850 H   0  0  0  0  0  0  0  0  0  0  0  0
   30.5360   28.5580   43.9170 C   0  0  0  0  0  0  0  0  0  0  0  0
   30.8040   28.9030   42.9170 H   0  0  0  0  0  0  0  0  0  0  0  0
   31.1220   28.9710   45.0160 O   0  0  0  0  0  0  0  0  0  0  0  0
   30.6920   26.5240   48.9810 O   0  0  0  0  0  0  0  0  0  0  0  0
   29.8370   27.3150   49.7300 C   0  0  0  0  0  0  0  0  0  0  0  0
   29.2980   26.6380   50.8240 F   0  0  0  0  0  0  0  0  0  0  0  0
   30.4940   28.4060   50.2570 F   0  0  0  0  0  0  0  0  0  0  0  0
   28.7820   27.7470   48.9340 F   0  0  0  0  0  0  0  0  0  0  0  0
  1 25  1  0  0  0  0
  1  2  1  0  0  0  0
  1  3  1  0  0  0  0
  5 10  1  0  0  0  0
  5  4  1  0  0  0  0
  6  5  2  0  0  0  0
  7  8  2  0  0  0  0
  7  6  1  0  0  0  0
  8  9  1  0  0  0  0
  9 10  2  0  0  0  0
 10  1  1  0  0  0  0
 11  7  1  0  0  0  0
 12  8  1  0  0  0  0
 13  9  1  0  0  0  0
 14 19  1  0  0  0  0
 14 20  1  0  0  0  0
 15 14  2  0  0  0  0
 16 17  2  0  0  0  0
 16 15  1  0  0  0  0
 17 18  1  0  0  0  0
 18  6  1  0  0  0  0
 18 19  2  0  0  0  0
 21 15  1  0  0  0  0
 22 16  1  0  0  0  0
 23 22  1  0  0  0  0
 24 22  1  0  0  0  0
 25 28  1  0  0  0  0
 25 26  1  0  0  0  0
 27 25  1  0  0  0  0
 30 29  2  6  0  0  0
 30 40  1  0  0  0  0
 30 28  1  0  0  0  0
 31 30  1  0  0  0  0
 32 31  1  0  0  0  0
 33 32  2  0  0  0  0
 33 34  1  0  0  0  0
 35 33  1  0  0  0  0
 36 35  1  0  0  0  0
 37 35  2  0  0  0  0
 37 39  1  0  0  0  0
 38 37  1  0  0  0  0
 39 32  1  0  0  0  0
 40 41  1  0  0  0  0
 41 43  1  0  0  0  0
 41 42  1  0  0  0  0
 44 41  1  0  0  0  0
M  END
>  <minimizedAffinity>
-5.62353277

>  <minimizedRMSD>
0.143330365

$$$$
