
 OpenBabel03272505243D

 27 29  0  0  0  0  0  0  0  0999 V2000
   36.4610   29.2230   50.8900 C   0  0  0  0  0  0  0  0  0  0  0  0
   36.7710   29.5160   49.5440 C   0  0  0  0  0  0  0  0  0  0  0  0
   35.7700   29.8710   48.6610 C   0  0  0  0  0  0  0  0  0  0  0  0
   34.5120   29.9180   49.1520 N   0  0  0  0  0  0  0  0  0  0  0  0
   34.1920   29.6430   50.4290 C   0  0  0  0  0  0  0  0  0  0  0  0
   35.1690   29.2950   51.2990 N   0  0  0  0  0  0  0  0  0  0  0  0
   36.0330   30.1730   47.3090 N   0  0  0  0  0  0  0  0  0  0  0  0
   35.1390   29.8920   46.3380 C   0  0  0  0  0  0  0  0  0  0  0  0
   35.4140   30.1830   45.0020 C   0  0  0  0  0  0  0  0  0  0  0  0
   36.6510   30.7770   44.6970 C   0  0  0  0  0  0  0  0  0  0  0  0
   36.9520   31.0570   43.5300 O   0  0  0  0  0  0  0  0  0  0  0  0
   37.5390   31.0520   45.6920 N   0  0  0  0  0  0  0  0  0  0  0  0
   37.1830   30.7340   46.9480 C   0  0  0  0  0  0  0  0  0  0  0  0
   38.0330   31.0070   47.8450 O   0  0  0  0  0  0  0  0  0  0  0  0
   37.1770   28.9440   51.6250 H   0  0  0  0  0  0  0  0  0  0  0  0
   37.8080   29.4090   49.3550 H   0  0  0  0  0  0  0  0  0  0  0  0
   33.1400   29.7280   50.6530 H   0  0  0  0  0  0  0  0  0  0  0  0
   34.2120   29.4360   46.6550 H   0  0  0  0  0  0  0  0  0  0  0  0
   34.6900   29.9550   44.2350 H   0  0  0  0  0  0  0  0  0  0  0  0
   38.7830   31.6530   45.3530 C   0  0  0  0  0  0  0  0  0  0  0  0
   39.1710   32.9670   45.1840 C   0  0  0  0  0  0  0  0  0  0  0  0
   38.4860   33.7880   45.3050 H   0  0  0  0  0  0  0  0  0  0  0  0
   40.5150   33.0190   44.8510 C   0  0  0  0  0  0  0  0  0  0  0  0
   41.1120   33.8930   44.6550 H   0  0  0  0  0  0  0  0  0  0  0  0
   40.8850   31.6740   44.8360 C   0  0  0  0  0  0  0  0  0  0  0  0
   41.9120   31.3850   44.6010 H   0  0  0  0  0  0  0  0  0  0  0  0
   39.8630   30.9280   45.1280 O   0  0  0  0  0  0  0  0  0  0  0  0
  1  6  1  0  0  0  0
  1 15  1  0  0  0  0
  2  1  2  0  0  0  0
  3  4  2  0  0  0  0
  3  2  1  0  0  0  0
  4  5  1  0  0  0  0
  5 17  1  0  0  0  0
  5  6  2  0  0  0  0
  7  3  1  0  0  0  0
  8 18  1  0  0  0  0
  8  7  1  0  0  0  0
  9  8  2  0  0  0  0
 10  9  1  0  0  0  0
 10 12  1  0  0  0  0
 11 10  2  0  0  0  0
 12 13  1  0  0  0  0
 13  7  1  0  0  0  0
 13 14  2  0  0  0  0
 16  2  1  0  0  0  0
 19  9  1  0  0  0  0
 20 12  1  0  0  0  0
 21 22  1  0  0  0  0
 21 20  2  0  0  0  0
 23 21  1  0  0  0  0
 24 23  1  0  0  0  0
 25 23  2  0  0  0  0
 25 27  1  0  0  0  0
 26 25  1  0  0  0  0
 27 20  1  0  0  0  0
M  END
>  <minimizedAffinity>
-5.42861557

>  <minimizedRMSD>
3.47956014

$$$$
