
 OpenBabel03272501193D

 29 31  0  0  0  0  0  0  0  0999 V2000
   38.5690   31.8520   47.8970 C   0  0  0  0  0  0  0  0  0  0  0  0
   38.0860   32.0320   49.1780 C   0  0  0  0  0  0  0  0  0  0  0  0
   38.4970   33.2150   49.8050 C   0  0  0  0  0  0  0  0  0  0  0  0
   39.3310   34.1230   49.1620 C   0  0  0  0  0  0  0  0  0  0  0  0
   39.7720   33.8560   47.8650 C   0  0  0  0  0  0  0  0  0  0  0  0
   39.3790   32.6900   47.2190 C   0  0  0  0  0  0  0  0  0  0  0  0
   38.1700   33.4470   50.8090 H   0  0  0  0  0  0  0  0  0  0  0  0
   39.6590   35.0420   49.6300 H   0  0  0  0  0  0  0  0  0  0  0  0
   40.4270   34.5710   47.3590 H   0  0  0  0  0  0  0  0  0  0  0  0
   35.9150   30.9030   49.4010 C   0  0  0  0  0  0  0  0  0  0  0  0
   37.2250   31.0940   49.8390 C   0  0  0  0  0  0  0  0  0  0  0  0
   37.6470   30.3360   50.9400 C   0  0  0  0  0  0  0  0  0  0  0  0
   36.7610   29.4680   51.5060 N   0  0  0  0  0  0  0  0  0  0  0  0
   35.5050   29.3200   51.0450 C   0  0  0  0  0  0  0  0  0  0  0  0
   35.0800   30.0420   49.9860 N   0  0  0  0  0  0  0  0  0  0  0  0
   35.5510   31.4710   48.5540 H   0  0  0  0  0  0  0  0  0  0  0  0
   38.6590   30.4860   51.2730 H   0  0  0  0  0  0  0  0  0  0  0  0
   35.0110   28.5780   51.6620 H   0  0  0  0  0  0  0  0  0  0  0  0
   38.2140   30.7010   47.1870 O   0  0  0  0  0  0  0  0  0  0  0  0
   37.3160   30.6310   46.6900 H   0  0  0  0  0  0  0  0  0  0  0  0
   39.8430   32.4780   45.9390 O   0  0  0  0  0  0  0  0  0  0  0  0
   39.0610   32.5600   44.7950 C   0  0  0  0  0  0  0  0  0  0  0  0
   39.7690   32.8820   43.6360 C   0  0  0  0  0  0  0  0  0  0  0  0
   40.7980   33.0940   43.3710 H   0  0  0  0  0  0  0  0  0  0  0  0
   38.8300   32.9210   42.6000 C   0  0  0  0  0  0  0  0  0  0  0  0
   38.8040   33.1090   41.5350 H   0  0  0  0  0  0  0  0  0  0  0  0
   37.6200   32.6190   43.2000 C   0  0  0  0  0  0  0  0  0  0  0  0
   36.5660   32.4980   42.9360 H   0  0  0  0  0  0  0  0  0  0  0  0
   37.7910   32.4130   44.4870 O   0  0  0  0  0  0  0  0  0  0  0  0
  1  2  1  0  0  0  0
  2  3  2  0  0  0  0
  2 11  1  0  0  0  0
  3  7  1  0  0  0  0
  4  8  1  0  0  0  0
  4  3  1  0  0  0  0
  5  4  2  0  0  0  0
  6  5  1  0  0  0  0
  6  1  2  0  0  0  0
  9  5  1  0  0  0  0
 10 11  2  0  0  0  0
 10 15  1  0  0  0  0
 11 12  1  0  0  0  0
 12 17  1  0  0  0  0
 12 13  2  0  0  0  0
 14 13  1  0  0  0  0
 14 18  1  0  0  0  0
 15 14  2  0  0  0  0
 16 10  1  0  0  0  0
 19  1  1  0  0  0  0
 20 19  1  0  0  0  0
 21  6  1  0  0  0  0
 22 21  1  0  0  0  0
 23 22  2  0  0  0  0
 24 23  1  0  0  0  0
 25 27  2  0  0  0  0
 25 23  1  0  0  0  0
 26 25  1  0  0  0  0
 27 29  1  0  0  0  0
 28 27  1  0  0  0  0
 29 22  1  0  0  0  0
M  END
>  <minimizedAffinity>
-6.11266613

>  <minimizedRMSD>
0.512416184

$$$$
