
 OpenBabel03272506433D

 31 33  0  0  1  0  0  0  0  0999 V2000
   32.2330   28.2290   47.5320 C   0  0  2  0  0  0  0  0  0  0  0  0
   33.5060   28.1840   48.3380 C   0  0  1  0  0  0  0  0  0  0  0  0
   34.0410   26.9220   48.1940 O   0  0  0  0  0  0  0  0  0  0  0  0
   33.3480   26.2490   47.2000 C   0  0  0  0  0  0  0  0  0  0  0  0
   32.6190   27.3150   46.3830 C   0  0  1  0  0  0  0  0  0  0  0  0
   31.3460   27.8850   48.0900 H   0  0  0  0  0  0  0  0  0  0  0  0
   33.3300   28.4610   49.3980 H   0  0  0  0  0  0  0  0  0  0  0  0
   34.0320   25.7060   46.5290 H   0  0  0  0  0  0  0  0  0  0  0  0
   32.5820   25.6240   47.6840 H   0  0  0  0  0  0  0  0  0  0  0  0
   33.2870   27.8760   45.7290 H   0  0  0  0  0  0  0  0  0  0  0  0
   31.9810   29.5350   47.0850 O   0  0  0  0  0  0  0  0  0  0  0  0
   31.2190   29.5600   46.4860 H   0  0  0  0  0  0  0  0  0  0  0  0
   34.6710   29.3650   47.5720 S   0  0  0  0  0  0  0  0  0  0  0  0
   37.2160   29.3020   50.6140 C   0  0  0  0  0  0  0  0  0  0  0  0
   37.6880   30.6040   50.7100 C   0  0  0  0  0  0  0  0  0  0  0  0
   37.2100   31.5520   49.8050 C   0  0  0  0  0  0  0  0  0  0  0  0
   36.2980   31.1620   48.8620 N   0  0  0  0  0  0  0  0  0  0  0  0
   35.8660   29.8760   48.8080 C   0  0  0  0  0  0  0  0  0  0  0  0
   36.3140   28.9420   49.6720 N   0  0  0  0  0  0  0  0  0  0  0  0
   37.6220   28.6200   51.3380 H   0  0  0  0  0  0  0  0  0  0  0  0
   38.4090   30.9280   51.4500 H   0  0  0  0  0  0  0  0  0  0  0  0
   37.5120   32.5820   49.7960 H   0  0  0  0  0  0  0  0  0  0  0  0
   31.5290   26.7550   45.7450 O   0  0  0  0  0  0  0  0  0  0  0  0
   30.2020   27.0010   46.0250 C   0  0  0  0  0  0  0  0  0  0  0  0
   29.4960   25.9160   46.5450 C   0  0  0  0  0  0  0  0  0  0  0  0
   29.7530   24.8840   46.7910 H   0  0  0  0  0  0  0  0  0  0  0  0
   28.1840   26.3500   46.7620 C   0  0  0  0  0  0  0  0  0  0  0  0
   27.2950   25.8640   47.1480 H   0  0  0  0  0  0  0  0  0  0  0  0
   28.2170   27.6790   46.3480 C   0  0  0  0  0  0  0  0  0  0  0  0
   27.3480   28.3470   46.3750 H   0  0  0  0  0  0  0  0  0  0  0  0
   29.4100   28.0190   45.9250 O   0  0  0  0  0  0  0  0  0  0  0  0
  1  6  1  1  0  0  0
  1  2  1  0  0  0  0
  2  7  1  1  0  0  0
  3  2  1  0  0  0  0
  4  9  1  0  0  0  0
  4  3  1  0  0  0  0
  5 10  1  6  0  0  0
  5  4  1  0  0  0  0
  5  1  1  0  0  0  0
  8  4  1  0  0  0  0
 11  1  1  0  0  0  0
 12 11  1  0  0  0  0
 13  2  1  0  0  0  0
 13 18  1  0  0  0  0
 14 15  1  0  0  0  0
 14 20  1  0  0  0  0
 15 21  1  0  0  0  0
 16 15  2  0  0  0  0
 17 16  1  0  0  0  0
 18 17  2  0  0  0  0
 18 19  1  0  0  0  0
 19 14  2  0  0  0  0
 22 16  1  0  0  0  0
 23 24  1  0  0  0  0
 23  5  1  0  0  0  0
 24 25  2  0  0  0  0
 25 27  1  0  0  0  0
 25 26  1  0  0  0  0
 27 28  1  0  0  0  0
 29 30  1  0  0  0  0
 29 27  2  0  0  0  0
 31 24  1  0  0  0  0
 31 29  1  0  0  0  0
M  END
>  <minimizedAffinity>
-4.23248053

>  <minimizedRMSD>
2.12730503

$$$$
