
 OpenBabel03272501193D

 29 31  0  0  0  0  0  0  0  0999 V2000
   35.8800   25.0210   31.2150 C   0  0  0  0  0  0  0  0  0  0  0  0
   36.5870   26.0790   31.7510 C   0  0  0  0  0  0  0  0  0  0  0  0
   37.5960   25.7210   32.6540 C   0  0  0  0  0  0  0  0  0  0  0  0
   37.8450   24.3910   32.9710 C   0  0  0  0  0  0  0  0  0  0  0  0
   37.0780   23.3850   32.3800 C   0  0  0  0  0  0  0  0  0  0  0  0
   36.0700   23.7120   31.4800 C   0  0  0  0  0  0  0  0  0  0  0  0
   38.2050   26.4790   33.1250 H   0  0  0  0  0  0  0  0  0  0  0  0
   38.6210   24.0940   33.6660 H   0  0  0  0  0  0  0  0  0  0  0  0
   37.2750   22.3390   32.6280 H   0  0  0  0  0  0  0  0  0  0  0  0
   35.4580   28.2140   32.2010 C   0  0  0  0  0  0  0  0  0  0  0  0
   36.3280   27.4510   31.4230 C   0  0  0  0  0  0  0  0  0  0  0  0
   36.9230   28.0850   30.3230 C   0  0  0  0  0  0  0  0  0  0  0  0
   36.6180   29.3920   30.0860 N   0  0  0  0  0  0  0  0  0  0  0  0
   35.7700   30.0860   30.8690 C   0  0  0  0  0  0  0  0  0  0  0  0
   35.1870   29.4930   31.9330 N   0  0  0  0  0  0  0  0  0  0  0  0
   34.9780   27.7610   33.0580 H   0  0  0  0  0  0  0  0  0  0  0  0
   37.5940   27.4930   29.7260 H   0  0  0  0  0  0  0  0  0  0  0  0
   35.6990   31.0930   30.4710 H   0  0  0  0  0  0  0  0  0  0  0  0
   34.8520   25.2760   30.3030 O   0  0  0  0  0  0  0  0  0  0  0  0
   35.0480   25.4460   29.3070 H   0  0  0  0  0  0  0  0  0  0  0  0
   35.3450   22.6810   30.9270 O   0  0  0  0  0  0  0  0  0  0  0  0
   35.5900   21.3340   31.1580 C   0  0  0  0  0  0  0  0  0  0  0  0
   34.7370   20.7450   32.0920 C   0  0  0  0  0  0  0  0  0  0  0  0
   33.9050   21.0580   32.7110 H   0  0  0  0  0  0  0  0  0  0  0  0
   35.1290   19.4060   32.1940 C   0  0  0  0  0  0  0  0  0  0  0  0
   34.8420   18.5150   32.7360 H   0  0  0  0  0  0  0  0  0  0  0  0
   36.1900   19.2750   31.3140 C   0  0  0  0  0  0  0  0  0  0  0  0
   36.8890   18.5120   30.9590 H   0  0  0  0  0  0  0  0  0  0  0  0
   36.4350   20.4240   30.7240 O   0  0  0  0  0  0  0  0  0  0  0  0
  1  6  2  0  0  0  0
  1  2  1  0  0  0  0
  2  3  2  0  0  0  0
  3  4  1  0  0  0  0
  3  7  1  0  0  0  0
  4  8  1  0  0  0  0
  5  9  1  0  0  0  0
  5  4  2  0  0  0  0
  6  5  1  0  0  0  0
 10 16  1  0  0  0  0
 11  2  1  0  0  0  0
 11 10  2  0  0  0  0
 12 11  1  0  0  0  0
 13 12  2  0  0  0  0
 13 14  1  0  0  0  0
 14 15  2  0  0  0  0
 15 10  1  0  0  0  0
 17 12  1  0  0  0  0
 18 14  1  0  0  0  0
 19  1  1  0  0  0  0
 20 19  1  0  0  0  0
 21 22  1  0  0  0  0
 21  6  1  0  0  0  0
 22 23  2  0  0  0  0
 23 25  1  0  0  0  0
 23 24  1  0  0  0  0
 25 26  1  0  0  0  0
 27 25  2  0  0  0  0
 28 27  1  0  0  0  0
 29 22  1  0  0  0  0
 29 27  1  0  0  0  0
M  END
>  <minimizedAffinity>
-4.9131546

$$$$

 OpenBabel03272501193D

 29 31  0  0  0  0  0  0  0  0999 V2000
   38.7740   25.6660   33.5270 C   0  0  0  0  0  0  0  0  0  0  0  0
   39.1770   26.8170   32.8780 C   0  0  0  0  0  0  0  0  0  0  0  0
   40.4200   27.3200   33.2810 C   0  0  0  0  0  0  0  0  0  0  0  0
   41.1720   26.6880   34.2640 C   0  0  0  0  0  0  0  0  0  0  0  0
   40.6850   25.5280   34.8670 C   0  0  0  0  0  0  0  0  0  0  0  0
   39.4530   25.0070   34.4870 C   0  0  0  0  0  0  0  0  0  0  0  0
   40.8220   28.2160   32.8300 H   0  0  0  0  0  0  0  0  0  0  0  0
   42.1360   27.0620   34.5880 H   0  0  0  0  0  0  0  0  0  0  0  0
   41.2770   25.0310   35.6400 H   0  0  0  0  0  0  0  0  0  0  0  0
   38.8010   27.4310   30.5280 C   0  0  0  0  0  0  0  0  0  0  0  0
   38.3980   27.4670   31.8630 C   0  0  0  0  0  0  0  0  0  0  0  0
   37.2160   28.1610   32.1540 C   0  0  0  0  0  0  0  0  0  0  0  0
   36.5410   28.7490   31.1270 N   0  0  0  0  0  0  0  0  0  0  0  0
   36.9720   28.6860   29.8530 C   0  0  0  0  0  0  0  0  0  0  0  0
   38.1090   28.0220   29.5520 N   0  0  0  0  0  0  0  0  0  0  0  0
   39.7100   26.9060   30.2630 H   0  0  0  0  0  0  0  0  0  0  0  0
   36.9090   28.1860   33.1850 H   0  0  0  0  0  0  0  0  0  0  0  0
   36.2640   29.2280   29.2350 H   0  0  0  0  0  0  0  0  0  0  0  0
   37.5450   25.0870   33.1950 O   0  0  0  0  0  0  0  0  0  0  0  0
   37.4460   24.4720   32.3750 H   0  0  0  0  0  0  0  0  0  0  0  0
   39.0210   23.8600   35.1150 O   0  0  0  0  0  0  0  0  0  0  0  0
   38.8800   23.7200   36.4890 C   0  0  0  0  0  0  0  0  0  0  0  0
   37.9010   24.5380   37.0540 C   0  0  0  0  0  0  0  0  0  0  0  0
   37.1930   25.2810   36.7050 H   0  0  0  0  0  0  0  0  0  0  0  0
   37.9030   24.2640   38.4260 C   0  0  0  0  0  0  0  0  0  0  0  0
   37.3810   24.5820   39.3180 H   0  0  0  0  0  0  0  0  0  0  0  0
   38.8810   23.2990   38.5980 C   0  0  0  0  0  0  0  0  0  0  0  0
   39.3360   22.7070   39.3970 H   0  0  0  0  0  0  0  0  0  0  0  0
   39.4340   23.0030   37.4430 O   0  0  0  0  0  0  0  0  0  0  0  0
  1  6  1  0  0  0  0
  2  3  1  0  0  0  0
  2  1  2  0  0  0  0
  3  4  2  0  0  0  0
  4  8  1  0  0  0  0
  4  5  1  0  0  0  0
  5  9  1  0  0  0  0
  6  5  2  0  0  0  0
  6 21  1  0  0  0  0
  7  3  1  0  0  0  0
 10 11  1  0  0  0  0
 11 12  2  0  0  0  0
 11  2  1  0  0  0  0
 12 17  1  0  0  0  0
 13 12  1  0  0  0  0
 14 13  2  0  0  0  0
 15 14  1  0  0  0  0
 15 10  2  0  0  0  0
 16 10  1  0  0  0  0
 18 14  1  0  0  0  0
 19  1  1  0  0  0  0
 20 19  1  0  0  0  0
 21 22  1  0  0  0  0
 22 23  2  0  0  0  0
 22 29  1  0  0  0  0
 23 25  1  0  0  0  0
 24 23  1  0  0  0  0
 25 27  2  0  0  0  0
 25 26  1  0  0  0  0
 27 28  1  0  0  0  0
 29 27  1  0  0  0  0
M  END
>  <minimizedAffinity>
-4.88273048

$$$$

 OpenBabel03272501193D

 29 31  0  0  0  0  0  0  0  0999 V2000
   37.0040   23.6110   32.3220 C   0  0  0  0  0  0  0  0  0  0  0  0
   35.9960   22.8830   31.7200 C   0  0  0  0  0  0  0  0  0  0  0  0
   35.0500   23.6450   31.0220 C   0  0  0  0  0  0  0  0  0  0  0  0
   35.1420   25.0310   30.9570 C   0  0  0  0  0  0  0  0  0  0  0  0
   36.1980   25.6830   31.5980 C   0  0  0  0  0  0  0  0  0  0  0  0
   37.1500   24.9510   32.2970 C   0  0  0  0  0  0  0  0  0  0  0  0
   34.2240   23.1660   30.5170 H   0  0  0  0  0  0  0  0  0  0  0  0
   34.4220   25.6370   30.4230 H   0  0  0  0  0  0  0  0  0  0  0  0
   36.2700   26.7720   31.5460 H   0  0  0  0  0  0  0  0  0  0  0  0
   36.4050   20.6590   30.7580 C   0  0  0  0  0  0  0  0  0  0  0  0
   35.9020   21.4530   31.7890 C   0  0  0  0  0  0  0  0  0  0  0  0
   35.3100   20.7920   32.8730 C   0  0  0  0  0  0  0  0  0  0  0  0
   35.2650   19.4290   32.8540 N   0  0  0  0  0  0  0  0  0  0  0  0
   35.7650   18.7070   31.8340 C   0  0  0  0  0  0  0  0  0  0  0  0
   36.3390   19.3260   30.7800 N   0  0  0  0  0  0  0  0  0  0  0  0
   36.8690   21.1330   29.9030 H   0  0  0  0  0  0  0  0  0  0  0  0
   34.9240   21.4080   33.6660 H   0  0  0  0  0  0  0  0  0  0  0  0
   35.6060   17.6590   32.0600 H   0  0  0  0  0  0  0  0  0  0  0  0
   37.9960   22.9400   33.0420 O   0  0  0  0  0  0  0  0  0  0  0  0
   38.8030   22.5080   32.5710 H   0  0  0  0  0  0  0  0  0  0  0  0
   38.1690   25.6450   32.9100 O   0  0  0  0  0  0  0  0  0  0  0  0
   38.2460   25.8890   34.2750 C   0  0  0  0  0  0  0  0  0  0  0  0
   38.6340   27.1870   34.6080 C   0  0  0  0  0  0  0  0  0  0  0  0
   38.9020   28.0930   34.0770 H   0  0  0  0  0  0  0  0  0  0  0  0
   38.6560   27.2450   36.0050 C   0  0  0  0  0  0  0  0  0  0  0  0
   38.8720   27.9630   36.7850 H   0  0  0  0  0  0  0  0  0  0  0  0
   38.2800   25.9800   36.4230 C   0  0  0  0  0  0  0  0  0  0  0  0
   38.1170   25.4230   37.3500 H   0  0  0  0  0  0  0  0  0  0  0  0
   38.0470   25.2090   35.3840 O   0  0  0  0  0  0  0  0  0  0  0  0
  1 19  1  0  0  0  0
  2 11  1  0  0  0  0
  2  1  2  0  0  0  0
  3  2  1  0  0  0  0
  4  3  2  0  0  0  0
  4  5  1  0  0  0  0
  5  6  2  0  0  0  0
  6  1  1  0  0  0  0
  6 21  1  0  0  0  0
  7  3  1  0  0  0  0
  8  4  1  0  0  0  0
  9  5  1  0  0  0  0
 10 15  2  0  0  0  0
 10 11  1  0  0  0  0
 11 12  2  0  0  0  0
 12 17  1  0  0  0  0
 13 12  1  0  0  0  0
 14 18  1  0  0  0  0
 14 13  2  0  0  0  0
 15 14  1  0  0  0  0
 16 10  1  0  0  0  0
 20 19  1  0  0  0  0
 21 22  1  0  0  0  0
 22 23  2  0  0  0  0
 22 29  1  0  0  0  0
 23 25  1  0  0  0  0
 24 23  1  0  0  0  0
 25 27  2  0  0  0  0
 25 26  1  0  0  0  0
 27 28  1  0  0  0  0
 29 27  1  0  0  0  0
M  END
>  <minimizedAffinity>
-4.87753963

$$$$

 OpenBabel03272501193D

 29 31  0  0  0  0  0  0  0  0999 V2000
   37.9600   25.3800   34.1660 C   0  0  0  0  0  0  0  0  0  0  0  0
   38.5410   25.4520   35.4170 C   0  0  0  0  0  0  0  0  0  0  0  0
   38.3990   26.6850   36.0660 C   0  0  0  0  0  0  0  0  0  0  0  0
   37.7190   27.7420   35.4720 C   0  0  0  0  0  0  0  0  0  0  0  0
   37.1630   27.5790   34.2020 C   0  0  0  0  0  0  0  0  0  0  0  0
   37.2900   26.3660   33.5350 C   0  0  0  0  0  0  0  0  0  0  0  0
   38.8190   26.8390   37.0500 H   0  0  0  0  0  0  0  0  0  0  0  0
   37.5990   28.7020   35.9590 H   0  0  0  0  0  0  0  0  0  0  0  0
   36.6280   28.4100   33.7360 H   0  0  0  0  0  0  0  0  0  0  0  0
   40.4990   23.9740   35.5600 C   0  0  0  0  0  0  0  0  0  0  0  0
   39.2420   24.3600   36.0280 C   0  0  0  0  0  0  0  0  0  0  0  0
   38.7120   23.6370   37.1040 C   0  0  0  0  0  0  0  0  0  0  0  0
   39.4490   22.6130   37.6220 N   0  0  0  0  0  0  0  0  0  0  0  0
   40.6590   22.2790   37.1340 C   0  0  0  0  0  0  0  0  0  0  0  0
   41.1860   22.9640   36.0970 N   0  0  0  0  0  0  0  0  0  0  0  0
   40.9410   24.5070   34.7290 H   0  0  0  0  0  0  0  0  0  0  0  0
   37.7440   23.9380   37.4620 H   0  0  0  0  0  0  0  0  0  0  0  0
   41.0310   21.4420   37.7150 H   0  0  0  0  0  0  0  0  0  0  0  0
   38.0480   24.1910   33.4370 O   0  0  0  0  0  0  0  0  0  0  0  0
   37.4040   23.4070   33.6090 H   0  0  0  0  0  0  0  0  0  0  0  0
   36.7220   26.2600   32.2840 O   0  0  0  0  0  0  0  0  0  0  0  0
   36.9690   27.1310   31.2320 C   0  0  0  0  0  0  0  0  0  0  0  0
   38.2640   27.0590   30.7170 C   0  0  0  0  0  0  0  0  0  0  0  0
   39.1650   26.4920   30.9180 H   0  0  0  0  0  0  0  0  0  0  0  0
   38.3270   27.9950   29.6790 C   0  0  0  0  0  0  0  0  0  0  0  0
   39.0450   28.3590   28.9570 H   0  0  0  0  0  0  0  0  0  0  0  0
   37.0670   28.5670   29.6350 C   0  0  0  0  0  0  0  0  0  0  0  0
   36.5150   29.3240   29.0700 H   0  0  0  0  0  0  0  0  0  0  0  0
   36.2960   28.0380   30.5580 O   0  0  0  0  0  0  0  0  0  0  0  0
  1  2  1  0  0  0  0
  2 11  1  0  0  0  0
  2  3  2  0  0  0  0
  3  7  1  0  0  0  0
  4  8  1  0  0  0  0
  4  3  1  0  0  0  0
  5  4  2  0  0  0  0
  6  1  2  0  0  0  0
  6  5  1  0  0  0  0
  9  5  1  0  0  0  0
 10 11  2  0  0  0  0
 10 15  1  0  0  0  0
 11 12  1  0  0  0  0
 12 17  1  0  0  0  0
 12 13  2  0  0  0  0
 14 13  1  0  0  0  0
 14 18  1  0  0  0  0
 15 14  2  0  0  0  0
 16 10  1  0  0  0  0
 19 20  1  0  0  0  0
 19  1  1  0  0  0  0
 21  6  1  0  0  0  0
 22 21  1  0  0  0  0
 23 24  1  0  0  0  0
 23 22  2  0  0  0  0
 25 23  1  0  0  0  0
 26 25  1  0  0  0  0
 27 25  2  0  0  0  0
 27 29  1  0  0  0  0
 28 27  1  0  0  0  0
 29 22  1  0  0  0  0
M  END
>  <minimizedAffinity>
-4.83676147

$$$$

 OpenBabel03272501193D

 29 31  0  0  0  0  0  0  0  0999 V2000
   39.2350   26.8830   33.1800 C   0  0  0  0  0  0  0  0  0  0  0  0
   39.9830   26.8110   34.3380 C   0  0  0  0  0  0  0  0  0  0  0  0
   39.2840   27.1050   35.5150 C   0  0  0  0  0  0  0  0  0  0  0  0
   37.9360   27.4430   35.4910 C   0  0  0  0  0  0  0  0  0  0  0  0
   37.2580   27.4910   34.2720 C   0  0  0  0  0  0  0  0  0  0  0  0
   37.9280   27.2040   33.0880 C   0  0  0  0  0  0  0  0  0  0  0  0
   39.7840   27.0740   36.4730 H   0  0  0  0  0  0  0  0  0  0  0  0
   37.3790   27.6730   36.3910 H   0  0  0  0  0  0  0  0  0  0  0  0
   36.1980   27.7560   34.2530 H   0  0  0  0  0  0  0  0  0  0  0  0
   41.8010   25.2830   34.9720 C   0  0  0  0  0  0  0  0  0  0  0  0
   41.3750   26.4620   34.3600 C   0  0  0  0  0  0  0  0  0  0  0  0
   42.3610   27.2730   33.7810 C   0  0  0  0  0  0  0  0  0  0  0  0
   43.6590   26.8630   33.8500 N   0  0  0  0  0  0  0  0  0  0  0  0
   44.0190   25.7150   34.4520 C   0  0  0  0  0  0  0  0  0  0  0  0
   43.0840   24.9200   35.0170 N   0  0  0  0  0  0  0  0  0  0  0  0
   41.0700   24.6310   35.4320 H   0  0  0  0  0  0  0  0  0  0  0  0
   42.0270   28.1810   33.3090 H   0  0  0  0  0  0  0  0  0  0  0  0
   45.0970   25.6210   34.3700 H   0  0  0  0  0  0  0  0  0  0  0  0
   39.8430   26.6070   31.9520 O   0  0  0  0  0  0  0  0  0  0  0  0
   39.9730   25.6410   31.6220 H   0  0  0  0  0  0  0  0  0  0  0  0
   37.2110   27.2680   31.9140 O   0  0  0  0  0  0  0  0  0  0  0  0
   36.2720   26.3270   31.5130 C   0  0  0  0  0  0  0  0  0  0  0  0
   36.7090   25.0050   31.5990 C   0  0  0  0  0  0  0  0  0  0  0  0
   37.6110   24.4880   31.9020 H   0  0  0  0  0  0  0  0  0  0  0  0
   35.6440   24.2090   31.1600 C   0  0  0  0  0  0  0  0  0  0  0  0
   35.4190   23.1610   31.0180 H   0  0  0  0  0  0  0  0  0  0  0  0
   34.6370   25.1030   30.8410 C   0  0  0  0  0  0  0  0  0  0  0  0
   33.6100   25.1010   30.4620 H   0  0  0  0  0  0  0  0  0  0  0  0
   35.0370   26.3360   31.0590 O   0  0  0  0  0  0  0  0  0  0  0  0
  1  2  1  0  0  0  0
  2 11  1  0  0  0  0
  2  3  2  0  0  0  0
  3  7  1  0  0  0  0
  4  3  1  0  0  0  0
  4  8  1  0  0  0  0
  5  4  2  0  0  0  0
  6  1  2  0  0  0  0
  6  5  1  0  0  0  0
  9  5  1  0  0  0  0
 10 15  1  0  0  0  0
 10 16  1  0  0  0  0
 11 10  2  0  0  0  0
 12 13  2  0  0  0  0
 12 11  1  0  0  0  0
 13 14  1  0  0  0  0
 14 15  2  0  0  0  0
 17 12  1  0  0  0  0
 18 14  1  0  0  0  0
 19  1  1  0  0  0  0
 20 19  1  0  0  0  0
 21  6  1  0  0  0  0
 22 23  2  0  0  0  0
 22 21  1  0  0  0  0
 23 24  1  0  0  0  0
 25 23  1  0  0  0  0
 26 25  1  0  0  0  0
 27 29  1  0  0  0  0
 27 25  2  0  0  0  0
 28 27  1  0  0  0  0
 29 22  1  0  0  0  0
M  END
>  <minimizedAffinity>
-4.83188915

$$$$

 OpenBabel03272501193D

 29 31  0  0  0  0  0  0  0  0999 V2000
   37.9490   25.3690   34.1590 C   0  0  0  0  0  0  0  0  0  0  0  0
   37.8490   26.7170   33.8780 C   0  0  0  0  0  0  0  0  0  0  0  0
   38.0270   27.5660   34.9770 C   0  0  0  0  0  0  0  0  0  0  0  0
   38.2840   27.0630   36.2470 C   0  0  0  0  0  0  0  0  0  0  0  0
   38.3670   25.6820   36.4380 C   0  0  0  0  0  0  0  0  0  0  0  0
   38.1940   24.8160   35.3650 C   0  0  0  0  0  0  0  0  0  0  0  0
   37.9680   28.6390   34.8570 H   0  0  0  0  0  0  0  0  0  0  0  0
   38.4250   27.7030   37.1090 H   0  0  0  0  0  0  0  0  0  0  0  0
   38.5690   25.2870   37.4370 H   0  0  0  0  0  0  0  0  0  0  0  0
   38.6300   27.4940   31.6820 C   0  0  0  0  0  0  0  0  0  0  0  0
   37.5830   27.2340   32.5670 C   0  0  0  0  0  0  0  0  0  0  0  0
   36.2840   27.5030   32.1150 C   0  0  0  0  0  0  0  0  0  0  0  0
   36.1260   27.9940   30.8530 N   0  0  0  0  0  0  0  0  0  0  0  0
   37.1700   28.2280   30.0360 C   0  0  0  0  0  0  0  0  0  0  0  0
   38.4300   27.9760   30.4540 N   0  0  0  0  0  0  0  0  0  0  0  0
   39.6480   27.3020   31.9940 H   0  0  0  0  0  0  0  0  0  0  0  0
   35.4800   27.3000   32.8000 H   0  0  0  0  0  0  0  0  0  0  0  0
   36.7800   28.6120   29.1000 H   0  0  0  0  0  0  0  0  0  0  0  0
   37.7860   24.4400   33.1270 O   0  0  0  0  0  0  0  0  0  0  0  0
   38.5590   24.2040   32.4900 H   0  0  0  0  0  0  0  0  0  0  0  0
   38.2870   23.4640   35.6100 O   0  0  0  0  0  0  0  0  0  0  0  0
   39.3590   22.8510   36.2440 C   0  0  0  0  0  0  0  0  0  0  0  0
   40.3640   22.4140   35.3810 C   0  0  0  0  0  0  0  0  0  0  0  0
   40.5480   22.4190   34.3130 H   0  0  0  0  0  0  0  0  0  0  0  0
   41.3480   21.8300   36.1870 C   0  0  0  0  0  0  0  0  0  0  0  0
   42.3080   21.3450   36.0730 H   0  0  0  0  0  0  0  0  0  0  0  0
   40.8730   21.9550   37.4810 C   0  0  0  0  0  0  0  0  0  0  0  0
   41.1670   21.7070   38.5040 H   0  0  0  0  0  0  0  0  0  0  0  0
   39.7050   22.5580   37.4790 O   0  0  0  0  0  0  0  0  0  0  0  0
  1  6  1  0  0  0  0
  2  1  2  0  0  0  0
  2  3  1  0  0  0  0
  3  4  2  0  0  0  0
  4  5  1  0  0  0  0
  4  8  1  0  0  0  0
  5  9  1  0  0  0  0
  6 21  1  0  0  0  0
  6  5  2  0  0  0  0
  7  3  1  0  0  0  0
 10 16  1  0  0  0  0
 10 11  1  0  0  0  0
 11  2  1  0  0  0  0
 12 11  2  0  0  0  0
 12 17  1  0  0  0  0
 13 12  1  0  0  0  0
 14 15  1  0  0  0  0
 14 13  2  0  0  0  0
 15 10  2  0  0  0  0
 18 14  1  0  0  0  0
 19  1  1  0  0  0  0
 20 19  1  0  0  0  0
 21 22  1  0  0  0  0
 22 29  1  0  0  0  0
 23 25  1  0  0  0  0
 23 22  2  0  0  0  0
 24 23  1  0  0  0  0
 25 27  2  0  0  0  0
 26 25  1  0  0  0  0
 27 28  1  0  0  0  0
 29 27  1  0  0  0  0
M  END
>  <minimizedAffinity>
-4.81010103

$$$$

 OpenBabel03272501193D

 29 31  0  0  0  0  0  0  0  0999 V2000
   36.1890   28.6650   33.4910 C   0  0  0  0  0  0  0  0  0  0  0  0
   35.6020   29.9150   33.4860 C   0  0  0  0  0  0  0  0  0  0  0  0
   35.5700   30.5500   32.2380 C   0  0  0  0  0  0  0  0  0  0  0  0
   36.1000   29.9450   31.1040 C   0  0  0  0  0  0  0  0  0  0  0  0
   36.6760   28.6770   31.2030 C   0  0  0  0  0  0  0  0  0  0  0  0
   36.7200   28.0240   32.4300 C   0  0  0  0  0  0  0  0  0  0  0  0
   35.1300   31.5320   32.1330 H   0  0  0  0  0  0  0  0  0  0  0  0
   36.0840   30.4200   30.1310 H   0  0  0  0  0  0  0  0  0  0  0  0
   37.0910   28.2010   30.3110 H   0  0  0  0  0  0  0  0  0  0  0  0
   35.8620   31.3230   35.4830 C   0  0  0  0  0  0  0  0  0  0  0  0
   35.0570   30.5380   34.6570 C   0  0  0  0  0  0  0  0  0  0  0  0
   33.7130   30.3910   35.0290 C   0  0  0  0  0  0  0  0  0  0  0  0
   33.2820   31.0190   36.1590 N   0  0  0  0  0  0  0  0  0  0  0  0
   34.0990   31.7680   36.9230 C   0  0  0  0  0  0  0  0  0  0  0  0
   35.3970   31.9200   36.5820 N   0  0  0  0  0  0  0  0  0  0  0  0
   36.9050   31.4590   35.2310 H   0  0  0  0  0  0  0  0  0  0  0  0
   33.0960   29.7850   34.3890 H   0  0  0  0  0  0  0  0  0  0  0  0
   33.5180   32.1530   37.7540 H   0  0  0  0  0  0  0  0  0  0  0  0
   36.2690   27.9500   34.6890 O   0  0  0  0  0  0  0  0  0  0  0  0
   35.4710   27.4040   35.0430 H   0  0  0  0  0  0  0  0  0  0  0  0
   37.3000   26.7750   32.4700 O   0  0  0  0  0  0  0  0  0  0  0  0
   36.6740   25.6030   32.0670 C   0  0  0  0  0  0  0  0  0  0  0  0
   37.3420   24.4360   32.4380 C   0  0  0  0  0  0  0  0  0  0  0  0
   38.2490   24.1800   32.9730 H   0  0  0  0  0  0  0  0  0  0  0  0
   36.5740   23.3720   31.9520 C   0  0  0  0  0  0  0  0  0  0  0  0
   36.6000   22.2910   31.9420 H   0  0  0  0  0  0  0  0  0  0  0  0
   35.4940   23.9670   31.3230 C   0  0  0  0  0  0  0  0  0  0  0  0
   34.5900   23.6850   30.7770 H   0  0  0  0  0  0  0  0  0  0  0  0
   35.5830   25.2750   31.4090 O   0  0  0  0  0  0  0  0  0  0  0  0
  1 19  1  0  0  0  0
  2  1  1  0  0  0  0
  2 11  1  0  0  0  0
  3  2  2  0  0  0  0
  4  5  2  0  0  0  0
  4  3  1  0  0  0  0
  5  6  1  0  0  0  0
  6 21  1  0  0  0  0
  6  1  2  0  0  0  0
  7  3  1  0  0  0  0
  8  4  1  0  0  0  0
  9  5  1  0  0  0  0
 10 15  1  0  0  0  0
 11 12  1  0  0  0  0
 11 10  2  0  0  0  0
 12 13  2  0  0  0  0
 13 14  1  0  0  0  0
 14 18  1  0  0  0  0
 15 14  2  0  0  0  0
 16 10  1  0  0  0  0
 17 12  1  0  0  0  0
 19 20  1  0  0  0  0
 22 23  2  0  0  0  0
 22 21  1  0  0  0  0
 23 24  1  0  0  0  0
 25 23  1  0  0  0  0
 26 25  1  0  0  0  0
 27 29  1  0  0  0  0
 27 25  2  0  0  0  0
 28 27  1  0  0  0  0
 29 22  1  0  0  0  0
M  END
>  <minimizedAffinity>
-4.79046679

$$$$

 OpenBabel03272501193D

 29 31  0  0  0  0  0  0  0  0999 V2000
   37.1910   26.1750   32.6990 C   0  0  0  0  0  0  0  0  0  0  0  0
   36.2360   26.6030   31.7980 C   0  0  0  0  0  0  0  0  0  0  0  0
   35.5500   25.5800   31.1300 C   0  0  0  0  0  0  0  0  0  0  0  0
   35.8300   24.2410   31.3750 C   0  0  0  0  0  0  0  0  0  0  0  0
   36.8140   23.9010   32.3050 C   0  0  0  0  0  0  0  0  0  0  0  0
   37.5110   24.8960   32.9820 C   0  0  0  0  0  0  0  0  0  0  0  0
   34.7830   25.8160   30.4060 H   0  0  0  0  0  0  0  0  0  0  0  0
   35.3110   23.4370   30.8700 H   0  0  0  0  0  0  0  0  0  0  0  0
   37.0340   22.8480   32.4980 H   0  0  0  0  0  0  0  0  0  0  0  0
   35.0040   28.6660   32.3150 C   0  0  0  0  0  0  0  0  0  0  0  0
   35.9490   27.9860   31.5460 C   0  0  0  0  0  0  0  0  0  0  0  0
   36.5890   28.7130   30.5330 C   0  0  0  0  0  0  0  0  0  0  0  0
   36.2530   30.0230   30.3650 N   0  0  0  0  0  0  0  0  0  0  0  0
   35.3330   30.6340   31.1350 C   0  0  0  0  0  0  0  0  0  0  0  0
   34.7050   29.9510   32.1160 N   0  0  0  0  0  0  0  0  0  0  0  0
   34.4870   28.1380   33.1060 H   0  0  0  0  0  0  0  0  0  0  0  0
   37.3180   28.1850   29.9430 H   0  0  0  0  0  0  0  0  0  0  0  0
   35.2510   31.6630   30.8010 H   0  0  0  0  0  0  0  0  0  0  0  0
   37.9300   27.1210   33.4150 O   0  0  0  0  0  0  0  0  0  0  0  0
   37.5530   27.5660   34.2640 H   0  0  0  0  0  0  0  0  0  0  0  0
   38.4710   24.5040   33.8880 O   0  0  0  0  0  0  0  0  0  0  0  0
   38.2020   24.0470   35.1710 C   0  0  0  0  0  0  0  0  0  0  0  0
   38.2350   25.0370   36.1540 C   0  0  0  0  0  0  0  0  0  0  0  0
   38.4190   26.1040   36.1960 H   0  0  0  0  0  0  0  0  0  0  0  0
   37.9450   24.3990   37.3650 C   0  0  0  0  0  0  0  0  0  0  0  0
   37.8370   24.6530   38.4100 H   0  0  0  0  0  0  0  0  0  0  0  0
   37.7550   23.0690   37.0330 C   0  0  0  0  0  0  0  0  0  0  0  0
   37.5150   22.1160   37.5140 H   0  0  0  0  0  0  0  0  0  0  0  0
   37.9130   22.8960   35.7400 O   0  0  0  0  0  0  0  0  0  0  0  0
  1  6  1  0  0  0  0
  1 19  1  0  0  0  0
  2  1  2  0  0  0  0
  3  4  2  0  0  0  0
  3  2  1  0  0  0  0
  4  5  1  0  0  0  0
  5  9  1  0  0  0  0
  5  6  2  0  0  0  0
  6 21  1  0  0  0  0
  7  3  1  0  0  0  0
  8  4  1  0  0  0  0
 10 16  1  0  0  0  0
 11  2  1  0  0  0  0
 11 10  2  0  0  0  0
 12 11  1  0  0  0  0
 13 12  2  0  0  0  0
 13 14  1  0  0  0  0
 14 15  2  0  0  0  0
 15 10  1  0  0  0  0
 17 12  1  0  0  0  0
 18 14  1  0  0  0  0
 19 20  1  0  0  0  0
 21 22  1  0  0  0  0
 22 29  1  0  0  0  0
 22 23  2  0  0  0  0
 23 24  1  0  0  0  0
 23 25  1  0  0  0  0
 25 26  1  0  0  0  0
 27 25  2  0  0  0  0
 27 28  1  0  0  0  0
 29 27  1  0  0  0  0
M  END
>  <minimizedAffinity>
-4.7810216

$$$$

 OpenBabel03272501193D

 29 31  0  0  0  0  0  0  0  0999 V2000
   37.9500   25.1020   33.8980 C   0  0  0  0  0  0  0  0  0  0  0  0
   37.8380   26.4770   33.8400 C   0  0  0  0  0  0  0  0  0  0  0  0
   38.0300   27.1390   35.0590 C   0  0  0  0  0  0  0  0  0  0  0  0
   38.3100   26.4390   36.2260 C   0  0  0  0  0  0  0  0  0  0  0  0
   38.4050   25.0470   36.1900 C   0  0  0  0  0  0  0  0  0  0  0  0
   38.2190   24.3640   34.9940 C   0  0  0  0  0  0  0  0  0  0  0  0
   37.9630   28.2160   35.1150 H   0  0  0  0  0  0  0  0  0  0  0  0
   38.4620   26.9330   37.1780 H   0  0  0  0  0  0  0  0  0  0  0  0
   38.6260   24.4960   37.1090 H   0  0  0  0  0  0  0  0  0  0  0  0
   38.5720   27.5510   31.7550 C   0  0  0  0  0  0  0  0  0  0  0  0
   37.5480   27.1970   32.6330 C   0  0  0  0  0  0  0  0  0  0  0  0
   36.2450   27.5780   32.2820 C   0  0  0  0  0  0  0  0  0  0  0  0
   36.0630   28.2610   31.1160 N   0  0  0  0  0  0  0  0  0  0  0  0
   37.0860   28.5790   30.3010 C   0  0  0  0  0  0  0  0  0  0  0  0
   38.3480   28.2210   30.6230 N   0  0  0  0  0  0  0  0  0  0  0  0
   39.5910   27.2760   31.9920 H   0  0  0  0  0  0  0  0  0  0  0  0
   35.4590   27.3020   32.9620 H   0  0  0  0  0  0  0  0  0  0  0  0
   36.6790   29.1150   29.4510 H   0  0  0  0  0  0  0  0  0  0  0  0
   37.7750   24.3500   32.7320 O   0  0  0  0  0  0  0  0  0  0  0  0
   38.5380   24.2270   32.0520 H   0  0  0  0  0  0  0  0  0  0  0  0
   38.3230   22.9910   35.0160 O   0  0  0  0  0  0  0  0  0  0  0  0
   37.2770   22.1270   35.3110 C   0  0  0  0  0  0  0  0  0  0  0  0
   36.7870   21.4190   34.2130 C   0  0  0  0  0  0  0  0  0  0  0  0
   37.0040   21.3540   33.1530 H   0  0  0  0  0  0  0  0  0  0  0  0
   35.7520   20.6110   34.6950 C   0  0  0  0  0  0  0  0  0  0  0  0
   35.0450   19.8850   34.3170 H   0  0  0  0  0  0  0  0  0  0  0  0
   35.6870   20.8830   36.0510 C   0  0  0  0  0  0  0  0  0  0  0  0
   35.1130   20.5860   36.9340 H   0  0  0  0  0  0  0  0  0  0  0  0
   36.5940   21.7760   36.3800 O   0  0  0  0  0  0  0  0  0  0  0  0
  1  6  1  0  0  0  0
  2  1  2  0  0  0  0
  2  3  1  0  0  0  0
  3  7  1  0  0  0  0
  3  4  2  0  0  0  0
  4  8  1  0  0  0  0
  5  4  1  0  0  0  0
  5  9  1  0  0  0  0
  6 21  1  0  0  0  0
  6  5  2  0  0  0  0
 10 16  1  0  0  0  0
 10 11  1  0  0  0  0
 11  2  1  0  0  0  0
 12 11  2  0  0  0  0
 12 17  1  0  0  0  0
 13 12  1  0  0  0  0
 14 15  1  0  0  0  0
 14 13  2  0  0  0  0
 15 10  2  0  0  0  0
 18 14  1  0  0  0  0
 19  1  1  0  0  0  0
 20 19  1  0  0  0  0
 21 22  1  0  0  0  0
 22 29  1  0  0  0  0
 23 25  1  0  0  0  0
 23 22  2  0  0  0  0
 24 23  1  0  0  0  0
 25 27  2  0  0  0  0
 26 25  1  0  0  0  0
 27 29  1  0  0  0  0
 27 28  1  0  0  0  0
M  END
>  <minimizedAffinity>
-4.7279892

$$$$
