
 OpenBabel03272509303D

 37 39  0  0  1  0  0  0  0  0999 V2000
   36.3120   30.7020   48.9810 C   0  0  2  0  0  0  0  0  0  0  0  0
   37.2640   31.5960   49.7150 C   0  0  0  0  0  0  0  0  0  0  0  0
   38.1630   30.8420   50.6690 C   0  0  0  0  0  0  0  0  0  0  0  0
   37.3290   30.0430   51.6690 C   0  0  0  0  0  0  0  0  0  0  0  0
   36.0850   29.4340   51.0800 C   0  0  0  0  0  0  0  0  0  0  0  0
   36.2740   29.3240   49.5550 C   0  0  1  0  0  0  0  0  0  0  0  0
   35.2420   31.0740   49.0020 H   0  0  0  0  0  0  0  0  0  0  0  0
   36.5960   32.2090   50.4120 H   0  0  0  0  0  0  0  0  0  0  0  0
   37.8010   32.3290   49.1430 H   0  0  0  0  0  0  0  0  0  0  0  0
   38.7310   31.5940   51.2300 H   0  0  0  0  0  0  0  0  0  0  0  0
   38.8460   30.1350   50.1870 H   0  0  0  0  0  0  0  0  0  0  0  0
   37.0360   30.7200   52.4920 H   0  0  0  0  0  0  0  0  0  0  0  0
   37.9510   29.2040   52.0840 H   0  0  0  0  0  0  0  0  0  0  0  0
   35.2150   30.0850   51.2070 H   0  0  0  0  0  0  0  0  0  0  0  0
   35.9010   28.4150   51.4850 H   0  0  0  0  0  0  0  0  0  0  0  0
   37.2340   28.8680   49.5170 H   0  0  0  0  0  0  0  0  0  0  0  0
   36.6660   30.6090   47.5390 C   0  0  0  0  0  0  0  0  0  0  0  0
   38.0270   30.7900   47.2380 C   0  0  0  0  0  0  0  0  0  0  0  0
   38.3880   30.7060   45.8890 C   0  0  0  0  0  0  0  0  0  0  0  0
   37.4060   30.4560   44.9550 N   0  0  0  0  0  0  0  0  0  0  0  0
   36.0950   30.2870   45.3030 C   0  0  0  0  0  0  0  0  0  0  0  0
   35.7440   30.3670   46.6030 N   0  0  0  0  0  0  0  0  0  0  0  0
   38.8800   30.9800   47.8620 H   0  0  0  0  0  0  0  0  0  0  0  0
   39.3910   30.8240   45.5080 H   0  0  0  0  0  0  0  0  0  0  0  0
   35.4170   30.0960   44.4870 H   0  0  0  0  0  0  0  0  0  0  0  0
   33.9850   28.3220   49.0960 C   0  0  0  0  0  0  0  0  0  0  0  0
   33.1800   29.0000   49.8010 O   0  0  0  0  0  0  0  0  0  0  0  0
   35.3890   28.4260   48.9060 N   0  0  0  0  0  0  0  0  0  0  0  0
   35.7630   27.7310   48.1820 H   0  0  0  0  0  0  0  0  0  0  0  0
   33.2240   27.2580   48.3900 C   0  0  0  0  0  0  0  0  0  0  0  0
   33.6980   26.3070   47.5160 C   0  0  0  0  0  0  0  0  0  0  0  0
   34.6990   26.1560   47.1830 H   0  0  0  0  0  0  0  0  0  0  0  0
   32.6350   25.5010   47.0800 C   0  0  0  0  0  0  0  0  0  0  0  0
   32.7110   24.6660   46.3850 H   0  0  0  0  0  0  0  0  0  0  0  0
   31.5450   26.0310   47.7410 C   0  0  0  0  0  0  0  0  0  0  0  0
   30.5470   25.6260   47.6190 H   0  0  0  0  0  0  0  0  0  0  0  0
   31.9360   27.0250   48.4700 O   0  0  0  0  0  0  0  0  0  0  0  0
  1  7  1  1  0  0  0
  1  6  1  0  0  0  0
  1  2  1  0  0  0  0
  2  8  1  0  0  0  0
  2  3  1  0  0  0  0
  3 10  1  0  0  0  0
  3  4  1  0  0  0  0
  4 13  1  0  0  0  0
  4 12  1  0  0  0  0
  5 14  1  0  0  0  0
  5 15  1  0  0  0  0
  5  4  1  0  0  0  0
  6 16  1  6  0  0  0
  6  5  1  0  0  0  0
  9  2  1  0  0  0  0
 11  3  1  0  0  0  0
 17  1  1  0  0  0  0
 18 17  1  0  0  0  0
 18 23  1  0  0  0  0
 19 18  2  0  0  0  0
 20 21  2  0  0  0  0
 20 19  1  0  0  0  0
 21 22  1  0  0  0  0
 22 17  2  0  0  0  0
 24 19  1  0  0  0  0
 25 21  1  0  0  0  0
 26 27  2  0  0  0  0
 28 26  1  0  0  0  0
 28  6  1  0  0  0  0
 29 28  1  0  0  0  0
 30 37  1  0  0  0  0
 30 26  1  0  0  0  0
 31 30  2  0  0  0  0
 32 31  1  0  0  0  0
 33 31  1  0  0  0  0
 33 35  2  0  0  0  0
 34 33  1  0  0  0  0
 35 37  1  0  0  0  0
 36 35  1  0  0  0  0
M  END
>  <minimizedAffinity>
-5.91414309

>  <minimizedRMSD>
0.469643712

$$$$
