
 OpenBabel03272500113D

 20 21  0  0  0  0  0  0  0  0999 V2000
   35.5150   29.1630   50.4330 C   0  0  0  0  0  0  0  0  0  0  0  0
   36.1970   30.1750   49.7360 C   0  0  0  0  0  0  0  0  0  0  0  0
   35.9320   30.3490   48.3740 C   0  0  0  0  0  0  0  0  0  0  0  0
   35.0200   29.5270   47.7810 N   0  0  0  0  0  0  0  0  0  0  0  0
   34.3790   28.5610   48.4820 C   0  0  0  0  0  0  0  0  0  0  0  0
   34.6200   28.3800   49.7820 N   0  0  0  0  0  0  0  0  0  0  0  0
   35.7260   29.0370   51.4790 H   0  0  0  0  0  0  0  0  0  0  0  0
   36.4460   31.1130   47.8480 H   0  0  0  0  0  0  0  0  0  0  0  0
   33.3970   27.6620   47.8840 C   0  0  0  0  0  0  0  0  0  0  0  0
   33.6340   26.3570   47.5000 C   0  0  0  0  0  0  0  0  0  0  0  0
   34.5360   25.7790   47.5600 H   0  0  0  0  0  0  0  0  0  0  0  0
   32.4370   25.8920   46.9910 C   0  0  0  0  0  0  0  0  0  0  0  0
   32.1640   24.9300   46.5770 H   0  0  0  0  0  0  0  0  0  0  0  0
   31.5260   26.9260   47.0860 C   0  0  0  0  0  0  0  0  0  0  0  0
   30.4800   27.0310   46.8190 H   0  0  0  0  0  0  0  0  0  0  0  0
   32.1510   27.9430   47.6190 O   0  0  0  0  0  0  0  0  0  0  0  0
   37.1780   31.0180   50.4900 C   0  0  0  0  0  0  0  0  0  0  0  0
   38.4500   30.9490   49.8870 F   0  0  0  0  0  0  0  0  0  0  0  0
   36.7700   32.3240   50.4180 F   0  0  0  0  0  0  0  0  0  0  0  0
   37.3190   30.6330   51.7980 F   0  0  0  0  0  0  0  0  0  0  0  0
  1  7  1  0  0  0  0
  2  1  2  0  0  0  0
  2 17  1  0  0  0  0
  3  2  1  0  0  0  0
  4  3  2  0  0  0  0
  4  5  1  0  0  0  0
  5  6  2  0  0  0  0
  6  1  1  0  0  0  0
  8  3  1  0  0  0  0
  9  5  1  0  0  0  0
 10 11  1  0  0  0  0
 10  9  2  0  0  0  0
 12 14  2  0  0  0  0
 12 10  1  0  0  0  0
 13 12  1  0  0  0  0
 14 16  1  0  0  0  0
 15 14  1  0  0  0  0
 16  9  1  0  0  0  0
 17 20  1  0  0  0  0
 18 17  1  0  0  0  0
 19 17  1  0  0  0  0
M  END
>  <minimizedAffinity>
-4.83888483

>  <minimizedRMSD>
0.433821619

$$$$
