
 OpenBabel03272507523D

 31 33  0  0  0  0  0  0  0  0999 V2000
   36.5440   31.2950   48.7180 N   0  0  0  0  0  0  0  0  0  0  0  0
   36.7080   32.1330   49.7360 C   0  0  0  0  0  0  0  0  0  0  0  0
   37.7560   33.0560   49.7190 C   0  0  0  0  0  0  0  0  0  0  0  0
   38.5420   32.9970   48.6020 C   0  0  0  0  0  0  0  0  0  0  0  0
   39.4900   33.8400   48.5980 O   0  0  0  0  0  0  0  0  0  0  0  0
   38.4180   32.1740   47.5550 N   0  0  0  0  0  0  0  0  0  0  0  0
   37.3810   31.3040   47.6350 C   0  0  0  0  0  0  0  0  0  0  0  0
   37.2370   30.5150   46.6640 O   0  0  0  0  0  0  0  0  0  0  0  0
   36.0080   32.0770   50.5680 H   0  0  0  0  0  0  0  0  0  0  0  0
   37.9040   33.7380   50.5280 H   0  0  0  0  0  0  0  0  0  0  0  0
   35.2830   29.5530   49.8240 C   0  0  0  0  0  0  0  0  0  0  0  0
   35.4880   30.3250   48.6750 C   0  0  0  0  0  0  0  0  0  0  0  0
   34.6670   30.1130   47.5650 C   0  0  0  0  0  0  0  0  0  0  0  0
   33.7000   29.1560   47.6600 N   0  0  0  0  0  0  0  0  0  0  0  0
   33.5110   28.4280   48.7500 C   0  0  0  0  0  0  0  0  0  0  0  0
   34.2930   28.6160   49.8350 N   0  0  0  0  0  0  0  0  0  0  0  0
   34.9080   30.7520   46.7490 H   0  0  0  0  0  0  0  0  0  0  0  0
   32.7250   27.6830   48.7600 H   0  0  0  0  0  0  0  0  0  0  0  0
   37.3250   29.1800   51.4000 C   0  0  0  0  0  0  0  0  0  0  0  0
   38.0760   28.5900   50.5980 O   0  0  0  0  0  0  0  0  0  0  0  0
   36.0410   29.6930   51.0150 N   0  0  0  0  0  0  0  0  0  0  0  0
   37.7410   29.2490   52.3660 H   0  0  0  0  0  0  0  0  0  0  0  0
   35.6480   30.2740   51.8060 H   0  0  0  0  0  0  0  0  0  0  0  0
   39.3000   32.2010   46.4390 C   0  0  0  0  0  0  0  0  0  0  0  0
   39.4960   32.9890   45.3200 C   0  0  0  0  0  0  0  0  0  0  0  0
   38.8200   33.8290   45.2210 H   0  0  0  0  0  0  0  0  0  0  0  0
   40.5530   32.4170   44.6510 C   0  0  0  0  0  0  0  0  0  0  0  0
   40.8710   32.9040   43.7190 H   0  0  0  0  0  0  0  0  0  0  0  0
   40.9600   31.3220   45.3680 C   0  0  0  0  0  0  0  0  0  0  0  0
   41.7800   30.7280   45.0160 H   0  0  0  0  0  0  0  0  0  0  0  0
   40.1920   31.2180   46.4310 O   0  0  0  0  0  0  0  0  0  0  0  0
  1  2  1  0  0  0  0
  2  9  1  0  0  0  0
  3  2  2  0  0  0  0
  3 10  1  0  0  0  0
  4  3  1  0  0  0  0
  5  4  2  0  0  0  0
  6  7  1  0  0  0  0
  6  4  1  0  0  0  0
  7  1  1  0  0  0  0
  8  7  2  0  0  0  0
 11 16  1  0  0  0  0
 11 21  1  0  0  0  0
 12  1  1  0  0  0  0
 12 11  2  0  0  0  0
 13 14  2  0  0  0  0
 13 12  1  0  0  0  0
 14 15  1  0  0  0  0
 15 18  1  0  0  0  0
 15 16  2  0  0  0  0
 17 13  1  0  0  0  0
 19 22  1  0  0  0  0
 20 19  2  0  0  0  0
 21 19  1  0  0  0  0
 21 23  1  0  0  0  0
 24  6  1  0  0  0  0
 25 24  2  0  0  0  0
 26 25  1  0  0  0  0
 27 25  1  0  0  0  0
 27 29  2  0  0  0  0
 28 27  1  0  0  0  0
 29 31  1  0  0  0  0
 30 29  1  0  0  0  0
 31 24  1  0  0  0  0
M  END
>  <minimizedAffinity>
-6.26241302

>  <minimizedRMSD>
0.999321163

$$$$
