
 OpenBabel03272500123D

 20 21  0  0  0  0  0  0  0  0999 V2000
   35.5250   29.3800   50.5050 C   0  0  0  0  0  0  0  0  0  0  0  0
   36.0360   30.3560   49.6320 C   0  0  0  0  0  0  0  0  0  0  0  0
   35.5050   30.4450   48.3410 C   0  0  0  0  0  0  0  0  0  0  0  0
   34.5130   29.5790   47.9860 N   0  0  0  0  0  0  0  0  0  0  0  0
   34.0430   28.6510   48.8540 C   0  0  0  0  0  0  0  0  0  0  0  0
   34.5380   28.5510   50.0890 N   0  0  0  0  0  0  0  0  0  0  0  0
   35.9390   29.3210   51.4950 H   0  0  0  0  0  0  0  0  0  0  0  0
   35.8900   31.1810   47.6810 H   0  0  0  0  0  0  0  0  0  0  0  0
   32.9830   27.7080   48.5130 C   0  0  0  0  0  0  0  0  0  0  0  0
   33.1260   26.5960   47.7060 C   0  0  0  0  0  0  0  0  0  0  0  0
   33.9970   26.2280   47.1990 H   0  0  0  0  0  0  0  0  0  0  0  0
   31.8800   26.0010   47.6600 C   0  0  0  0  0  0  0  0  0  0  0  0
   31.5340   25.1130   47.1500 H   0  0  0  0  0  0  0  0  0  0  0  0
   31.0350   26.7700   48.4350 C   0  0  0  0  0  0  0  0  0  0  0  0
   29.9830   26.7010   48.6940 H   0  0  0  0  0  0  0  0  0  0  0  0
   31.7410   27.7610   48.9120 O   0  0  0  0  0  0  0  0  0  0  0  0
   37.1270   31.2530   50.1280 C   0  0  0  0  0  0  0  0  0  0  0  0
   38.1560   31.3500   49.1710 F   0  0  0  0  0  0  0  0  0  0  0  0
   36.6100   32.5110   50.2910 F   0  0  0  0  0  0  0  0  0  0  0  0
   37.6890   30.8120   51.2980 F   0  0  0  0  0  0  0  0  0  0  0  0
  1  7  1  0  0  0  0
  2 17  1  0  0  0  0
  2  1  2  0  0  0  0
  3  2  1  0  0  0  0
  4  3  2  0  0  0  0
  4  5  1  0  0  0  0
  5  6  2  0  0  0  0
  6  1  1  0  0  0  0
  8  3  1  0  0  0  0
  9  5  1  0  0  0  0
  9 16  1  0  0  0  0
 10  9  2  0  0  0  0
 11 10  1  0  0  0  0
 12 10  1  0  0  0  0
 12 14  2  0  0  0  0
 13 12  1  0  0  0  0
 14 15  1  0  0  0  0
 14 16  1  0  0  0  0
 17 19  1  0  0  0  0
 17 20  1  0  0  0  0
 18 17  1  0  0  0  0
M  END
>  <minimizedAffinity>
-4.96000147

>  <minimizedRMSD>
1.07178807

$$$$
