
 OpenBabel03272506433D

 31 33  0  0  1  0  0  0  0  0999 V2000
   32.4050   28.3620   47.5200 C   0  0  2  0  0  0  0  0  0  0  0  0
   33.6370   28.4470   48.3860 C   0  0  1  0  0  0  0  0  0  0  0  0
   34.2000   27.1900   48.4250 O   0  0  0  0  0  0  0  0  0  0  0  0
   33.5700   26.3840   47.4900 C   0  0  0  0  0  0  0  0  0  0  0  0
   32.8650   27.3240   46.5130 C   0  0  1  0  0  0  0  0  0  0  0  0
   31.4980   28.0680   48.0730 H   0  0  0  0  0  0  0  0  0  0  0  0
   33.4020   28.8480   49.3940 H   0  0  0  0  0  0  0  0  0  0  0  0
   34.2970   25.7790   46.9250 H   0  0  0  0  0  0  0  0  0  0  0  0
   32.7920   25.8050   48.0100 H   0  0  0  0  0  0  0  0  0  0  0  0
   33.5560   27.8160   45.8280 H   0  0  0  0  0  0  0  0  0  0  0  0
   32.1530   29.5970   46.9040 O   0  0  0  0  0  0  0  0  0  0  0  0
   31.4220   29.5300   46.2700 H   0  0  0  0  0  0  0  0  0  0  0  0
   34.8170   29.5530   47.5370 S   0  0  0  0  0  0  0  0  0  0  0  0
   37.4050   29.4970   50.5430 C   0  0  0  0  0  0  0  0  0  0  0  0
   38.0150   30.7440   50.5100 C   0  0  0  0  0  0  0  0  0  0  0  0
   37.6220   31.6500   49.5250 C   0  0  0  0  0  0  0  0  0  0  0  0
   36.6530   31.2750   48.6330 N   0  0  0  0  0  0  0  0  0  0  0  0
   36.0860   30.0440   48.7050 C   0  0  0  0  0  0  0  0  0  0  0  0
   36.4500   29.1510   49.6490 N   0  0  0  0  0  0  0  0  0  0  0  0
   37.7520   28.8460   51.3230 H   0  0  0  0  0  0  0  0  0  0  0  0
   38.7820   31.0550   51.2080 H   0  0  0  0  0  0  0  0  0  0  0  0
   38.0320   32.6370   49.4150 H   0  0  0  0  0  0  0  0  0  0  0  0
   31.8190   26.6640   45.8970 O   0  0  0  0  0  0  0  0  0  0  0  0
   31.6070   26.5540   44.5400 C   0  0  0  0  0  0  0  0  0  0  0  0
   32.5320   25.7590   43.8600 C   0  0  0  0  0  0  0  0  0  0  0  0
   33.4110   25.1850   44.1580 H   0  0  0  0  0  0  0  0  0  0  0  0
   32.1610   25.7640   42.5110 C   0  0  0  0  0  0  0  0  0  0  0  0
   32.5740   25.2960   41.6250 H   0  0  0  0  0  0  0  0  0  0  0  0
   31.0280   26.5750   42.4970 C   0  0  0  0  0  0  0  0  0  0  0  0
   30.4570   26.8090   41.5910 H   0  0  0  0  0  0  0  0  0  0  0  0
   30.7390   27.0140   43.6990 O   0  0  0  0  0  0  0  0  0  0  0  0
  1  6  1  1  0  0  0
  1  2  1  0  0  0  0
  2  3  1  0  0  0  0
  2  7  1  1  0  0  0
  4  9  1  0  0  0  0
  4  3  1  0  0  0  0
  5 10  1  6  0  0  0
  5  4  1  0  0  0  0
  5  1  1  0  0  0  0
  8  4  1  0  0  0  0
 11  1  1  0  0  0  0
 12 11  1  0  0  0  0
 13  2  1  0  0  0  0
 13 18  1  0  0  0  0
 14 20  1  0  0  0  0
 15 14  1  0  0  0  0
 15 21  1  0  0  0  0
 16 15  2  0  0  0  0
 17 18  2  0  0  0  0
 17 16  1  0  0  0  0
 18 19  1  0  0  0  0
 19 14  2  0  0  0  0
 22 16  1  0  0  0  0
 23  5  1  0  0  0  0
 24 23  1  0  0  0  0
 25 26  1  0  0  0  0
 25 24  2  0  0  0  0
 27 25  1  0  0  0  0
 28 27  1  0  0  0  0
 29 27  2  0  0  0  0
 29 31  1  0  0  0  0
 30 29  1  0  0  0  0
 31 24  1  0  0  0  0
M  END
>  <minimizedAffinity>
-3.68556595

>  <minimizedRMSD>
0.129726648

$$$$
