
 OpenBabel03272506433D

 31 33  0  0  1  0  0  0  0  0999 V2000
   32.3970   28.3460   47.5240 C   0  0  2  0  0  0  0  0  0  0  0  0
   33.6460   28.3990   48.3670 C   0  0  1  0  0  0  0  0  0  0  0  0
   34.2060   27.1400   48.3530 O   0  0  0  0  0  0  0  0  0  0  0  0
   33.5550   26.3670   47.4050 C   0  0  0  0  0  0  0  0  0  0  0  0
   32.8330   27.3410   46.4740 C   0  0  1  0  0  0  0  0  0  0  0  0
   31.5000   28.0370   48.0850 H   0  0  0  0  0  0  0  0  0  0  0  0
   33.4330   28.7670   49.3920 H   0  0  0  0  0  0  0  0  0  0  0  0
   34.2680   25.7800   46.8060 H   0  0  0  0  0  0  0  0  0  0  0  0
   32.7850   25.7740   47.9210 H   0  0  0  0  0  0  0  0  0  0  0  0
   33.5120   27.8540   45.7920 H   0  0  0  0  0  0  0  0  0  0  0  0
   32.1370   29.6020   46.9540 O   0  0  0  0  0  0  0  0  0  0  0  0
   31.3930   29.5580   46.3330 H   0  0  0  0  0  0  0  0  0  0  0  0
   34.8130   29.5300   47.5320 S   0  0  0  0  0  0  0  0  0  0  0  0
   37.3830   29.4830   50.5530 C   0  0  0  0  0  0  0  0  0  0  0  0
   37.9910   30.7310   50.5220 C   0  0  0  0  0  0  0  0  0  0  0  0
   37.6020   31.6340   49.5330 C   0  0  0  0  0  0  0  0  0  0  0  0
   36.6400   31.2560   48.6360 N   0  0  0  0  0  0  0  0  0  0  0  0
   36.0740   30.0250   48.7070 C   0  0  0  0  0  0  0  0  0  0  0  0
   36.4340   29.1340   49.6540 N   0  0  0  0  0  0  0  0  0  0  0  0
   37.7250   28.8330   51.3370 H   0  0  0  0  0  0  0  0  0  0  0  0
   38.7540   31.0440   51.2240 H   0  0  0  0  0  0  0  0  0  0  0  0
   38.0110   32.6210   49.4240 H   0  0  0  0  0  0  0  0  0  0  0  0
   31.7730   26.7040   45.8580 O   0  0  0  0  0  0  0  0  0  0  0  0
   31.2370   27.0150   44.6270 C   0  0  0  0  0  0  0  0  0  0  0  0
   32.0440   27.8140   43.8160 C   0  0  0  0  0  0  0  0  0  0  0  0
   33.0310   28.2680   43.9290 H   0  0  0  0  0  0  0  0  0  0  0  0
   31.3440   28.0220   42.6230 C   0  0  0  0  0  0  0  0  0  0  0  0
   31.5690   28.5690   41.7140 H   0  0  0  0  0  0  0  0  0  0  0  0
   30.1590   27.3180   42.8230 C   0  0  0  0  0  0  0  0  0  0  0  0
   29.3530   27.2560   42.0820 H   0  0  0  0  0  0  0  0  0  0  0  0
   30.1370   26.7460   44.0030 O   0  0  0  0  0  0  0  0  0  0  0  0
  1  6  1  1  0  0  0
  1  2  1  0  0  0  0
  2  7  1  1  0  0  0
  3  2  1  0  0  0  0
  4  9  1  0  0  0  0
  4  3  1  0  0  0  0
  5 10  1  6  0  0  0
  5  4  1  0  0  0  0
  5  1  1  0  0  0  0
  8  4  1  0  0  0  0
 11  1  1  0  0  0  0
 12 11  1  0  0  0  0
 13  2  1  0  0  0  0
 13 18  1  0  0  0  0
 14 20  1  0  0  0  0
 15 14  1  0  0  0  0
 15 21  1  0  0  0  0
 16 15  2  0  0  0  0
 17 18  2  0  0  0  0
 17 16  1  0  0  0  0
 18 19  1  0  0  0  0
 19 14  2  0  0  0  0
 22 16  1  0  0  0  0
 23  5  1  0  0  0  0
 24 23  1  0  0  0  0
 25 26  1  0  0  0  0
 25 24  2  0  0  0  0
 27 29  2  0  0  0  0
 27 25  1  0  0  0  0
 28 27  1  0  0  0  0
 29 31  1  0  0  0  0
 30 29  1  0  0  0  0
 31 24  1  0  0  0  0
M  END
>  <minimizedAffinity>
-3.71145868

>  <minimizedRMSD>
0.583834291

$$$$
