
 OpenBabel03272508423D

 19 20  0  0  0  0  0  0  0  0999 V2000
   32.8400   27.6390   48.5100 C   0  0  0  0  0  0  0  0  0  0  0  0
   31.7760   27.9480   49.0940 O   0  0  0  0  0  0  0  0  0  0  0  0
   36.0340   29.0090   49.5820 C   0  0  0  0  0  0  0  0  0  0  0  0
   36.2680   30.0380   48.6650 C   0  0  0  0  0  0  0  0  0  0  0  0
   35.3290   30.2750   47.6650 C   0  0  0  0  0  0  0  0  0  0  0  0
   34.2330   29.4800   47.6440 N   0  0  0  0  0  0  0  0  0  0  0  0
   34.0250   28.4900   48.5400 C   0  0  0  0  0  0  0  0  0  0  0  0
   34.9280   28.2560   49.5100 N   0  0  0  0  0  0  0  0  0  0  0  0
   36.7640   28.8110   50.3760 H   0  0  0  0  0  0  0  0  0  0  0  0
   37.1620   30.6540   48.7180 H   0  0  0  0  0  0  0  0  0  0  0  0
   35.4400   31.0510   46.9220 H   0  0  0  0  0  0  0  0  0  0  0  0
   32.8710   26.3680   47.7730 C   0  0  0  0  0  0  0  0  0  0  0  0
   33.8790   26.0030   46.9000 C   0  0  0  0  0  0  0  0  0  0  0  0
   34.7520   26.5770   46.6440 H   0  0  0  0  0  0  0  0  0  0  0  0
   33.4660   24.7380   46.4640 C   0  0  0  0  0  0  0  0  0  0  0  0
   34.0230   24.1400   45.7580 H   0  0  0  0  0  0  0  0  0  0  0  0
   32.2710   24.4120   47.0730 C   0  0  0  0  0  0  0  0  0  0  0  0
   31.6810   23.5030   46.9530 H   0  0  0  0  0  0  0  0  0  0  0  0
   31.9460   25.4140   47.8520 O   0  0  0  0  0  0  0  0  0  0  0  0
  1  7  1  0  0  0  0
  1  2  2  0  0  0  0
  3  9  1  0  0  0  0
  4 10  1  0  0  0  0
  4  3  2  0  0  0  0
  5  4  1  0  0  0  0
  6  5  2  0  0  0  0
  6  7  1  0  0  0  0
  7  8  2  0  0  0  0
  8  3  1  0  0  0  0
 11  5  1  0  0  0  0
 12 19  1  0  0  0  0
 12  1  1  0  0  0  0
 13 12  2  0  0  0  0
 14 13  1  0  0  0  0
 15 13  1  0  0  0  0
 15 17  2  0  0  0  0
 16 15  1  0  0  0  0
 17 19  1  0  0  0  0
 18 17  1  0  0  0  0
M  END
>  <minimizedAffinity>
-3.26730394

>  <minimizedRMSD>
2.69707251

$$$$
