
 OpenBabel03272506433D

 31 33  0  0  1  0  0  0  0  0999 V2000
   32.3910   28.3990   47.5590 C   0  0  2  0  0  0  0  0  0  0  0  0
   33.6670   28.3830   48.3630 C   0  0  1  0  0  0  0  0  0  0  0  0
   34.1850   27.1090   48.2890 O   0  0  0  0  0  0  0  0  0  0  0  0
   33.4790   26.3890   47.3360 C   0  0  0  0  0  0  0  0  0  0  0  0
   32.7610   27.4170   46.4630 C   0  0  1  0  0  0  0  0  0  0  0  0
   31.5020   28.0990   48.1380 H   0  0  0  0  0  0  0  0  0  0  0  0
   33.4980   28.7220   49.4060 H   0  0  0  0  0  0  0  0  0  0  0  0
   34.1540   25.8010   46.6950 H   0  0  0  0  0  0  0  0  0  0  0  0
   32.7080   25.8030   47.8560 H   0  0  0  0  0  0  0  0  0  0  0  0
   33.4340   27.9320   45.7760 H   0  0  0  0  0  0  0  0  0  0  0  0
   32.1540   29.6810   47.0400 O   0  0  0  0  0  0  0  0  0  0  0  0
   31.3900   29.6820   46.4430 H   0  0  0  0  0  0  0  0  0  0  0  0
   34.8430   29.5040   47.5290 S   0  0  0  0  0  0  0  0  0  0  0  0
   37.3920   29.4790   50.5680 C   0  0  0  0  0  0  0  0  0  0  0  0
   37.9930   30.7310   50.5390 C   0  0  0  0  0  0  0  0  0  0  0  0
   37.6050   31.6310   49.5460 C   0  0  0  0  0  0  0  0  0  0  0  0
   36.6510   31.2440   48.6430 N   0  0  0  0  0  0  0  0  0  0  0  0
   36.0930   30.0100   48.7120 C   0  0  0  0  0  0  0  0  0  0  0  0
   36.4520   29.1220   49.6630 N   0  0  0  0  0  0  0  0  0  0  0  0
   37.7330   28.8330   51.3550 H   0  0  0  0  0  0  0  0  0  0  0  0
   38.7480   31.0500   51.2450 H   0  0  0  0  0  0  0  0  0  0  0  0
   38.0090   32.6200   49.4380 H   0  0  0  0  0  0  0  0  0  0  0  0
   31.6620   26.8360   45.8600 O   0  0  0  0  0  0  0  0  0  0  0  0
   30.8410   27.4200   44.9200 C   0  0  0  0  0  0  0  0  0  0  0  0
   31.5040   28.0420   43.8600 C   0  0  0  0  0  0  0  0  0  0  0  0
   32.5530   28.1800   43.5900 H   0  0  0  0  0  0  0  0  0  0  0  0
   30.5210   28.5710   43.0180 C   0  0  0  0  0  0  0  0  0  0  0  0
   30.5590   29.1280   42.0890 H   0  0  0  0  0  0  0  0  0  0  0  0
   29.3330   28.2150   43.6540 C   0  0  0  0  0  0  0  0  0  0  0  0
   28.3370   28.4680   43.2710 H   0  0  0  0  0  0  0  0  0  0  0  0
   29.5640   27.5450   44.7580 O   0  0  0  0  0  0  0  0  0  0  0  0
  1  6  1  1  0  0  0
  1  2  1  0  0  0  0
  2  7  1  1  0  0  0
  3  2  1  0  0  0  0
  4  9  1  0  0  0  0
  4  3  1  0  0  0  0
  5 10  1  6  0  0  0
  5  4  1  0  0  0  0
  5  1  1  0  0  0  0
  8  4  1  0  0  0  0
 11  1  1  0  0  0  0
 12 11  1  0  0  0  0
 13  2  1  0  0  0  0
 13 18  1  0  0  0  0
 14 20  1  0  0  0  0
 15 14  1  0  0  0  0
 15 21  1  0  0  0  0
 16 15  2  0  0  0  0
 17 18  2  0  0  0  0
 17 16  1  0  0  0  0
 18 19  1  0  0  0  0
 19 14  2  0  0  0  0
 22 16  1  0  0  0  0
 23  5  1  0  0  0  0
 24 23  1  0  0  0  0
 25 24  2  0  0  0  0
 26 25  1  0  0  0  0
 27 29  2  0  0  0  0
 27 25  1  0  0  0  0
 28 27  1  0  0  0  0
 29 31  1  0  0  0  0
 30 29  1  0  0  0  0
 31 24  1  0  0  0  0
M  END
>  <minimizedAffinity>
-3.75630546

>  <minimizedRMSD>
1.02113867

$$$$
