
 OpenBabel03272508423D

 19 20  0  0  0  0  0  0  0  0999 V2000
   33.0070   27.7400   48.5420 C   0  0  0  0  0  0  0  0  0  0  0  0
   31.9630   28.0450   49.1630 O   0  0  0  0  0  0  0  0  0  0  0  0
   36.2170   29.0890   49.5940 C   0  0  0  0  0  0  0  0  0  0  0  0
   36.4620   30.1040   48.6640 C   0  0  0  0  0  0  0  0  0  0  0  0
   35.5240   30.3390   47.6620 C   0  0  0  0  0  0  0  0  0  0  0  0
   34.4190   29.5550   47.6520 N   0  0  0  0  0  0  0  0  0  0  0  0
   34.2020   28.5790   48.5610 C   0  0  0  0  0  0  0  0  0  0  0  0
   35.1040   28.3470   49.5320 N   0  0  0  0  0  0  0  0  0  0  0  0
   36.9470   28.8920   50.3890 H   0  0  0  0  0  0  0  0  0  0  0  0
   37.3630   30.7110   48.7080 H   0  0  0  0  0  0  0  0  0  0  0  0
   35.6430   31.1040   46.9100 H   0  0  0  0  0  0  0  0  0  0  0  0
   33.0060   26.4880   47.7740 C   0  0  0  0  0  0  0  0  0  0  0  0
   31.9350   25.6140   47.7180 C   0  0  0  0  0  0  0  0  0  0  0  0
   30.9850   25.7230   48.2110 H   0  0  0  0  0  0  0  0  0  0  0  0
   32.4110   24.5980   46.8820 C   0  0  0  0  0  0  0  0  0  0  0  0
   31.8280   23.7290   46.6090 H   0  0  0  0  0  0  0  0  0  0  0  0
   33.6990   24.8950   46.4870 C   0  0  0  0  0  0  0  0  0  0  0  0
   34.3550   24.3140   45.8370 H   0  0  0  0  0  0  0  0  0  0  0  0
   34.0220   26.0370   47.0420 O   0  0  0  0  0  0  0  0  0  0  0  0
  1  7  1  0  0  0  0
  1  2  2  0  0  0  0
  3  9  1  0  0  0  0
  4 10  1  0  0  0  0
  4  3  2  0  0  0  0
  5  4  1  0  0  0  0
  6  5  2  0  0  0  0
  6  7  1  0  0  0  0
  7  8  2  0  0  0  0
  8  3  1  0  0  0  0
 11  5  1  0  0  0  0
 12  1  1  0  0  0  0
 13 12  2  0  0  0  0
 13 14  1  0  0  0  0
 15 13  1  0  0  0  0
 16 15  1  0  0  0  0
 17 15  2  0  0  0  0
 17 19  1  0  0  0  0
 18 17  1  0  0  0  0
 19 12  1  0  0  0  0
M  END
>  <minimizedAffinity>
-3.16371918

>  <minimizedRMSD>
2.55443692

$$$$
