
 OpenBabel03262522293D

 45 48  0  0  0  0  0  0  0  0999 V2000
   38.2030   27.5010   30.1630 S   0  0  0  0  0  0  0  0  0  0  0  0
   35.0920   28.8430   32.3600 C   0  0  0  0  0  0  0  0  0  0  0  0
   35.2750   30.2310   32.2650 C   0  0  0  0  0  0  0  0  0  0  0  0
   36.3360   30.6820   31.5340 C   0  0  0  0  0  0  0  0  0  0  0  0
   37.1580   29.7660   30.9410 N   0  0  0  0  0  0  0  0  0  0  0  0
   36.9560   28.4810   31.0530 C   0  0  0  0  0  0  0  0  0  0  0  0
   35.9070   27.9540   31.7730 N   0  0  0  0  0  0  0  0  0  0  0  0
   34.2910   28.3580   32.9090 H   0  0  0  0  0  0  0  0  0  0  0  0
   36.4970   31.7430   31.4470 H   0  0  0  0  0  0  0  0  0  0  0  0
   34.3820   31.0250   32.9050 O   0  0  0  0  0  0  0  0  0  0  0  0
   34.6230   31.3870   34.2320 C   0  0  0  0  0  0  0  0  0  0  0  0
   35.7400   31.9850   34.7550 C   0  0  0  0  0  0  0  0  0  0  0  0
   35.7830   32.2570   36.0690 C   0  0  0  0  0  0  0  0  0  0  0  0
   34.7240   31.9360   36.8520 C   0  0  0  0  0  0  0  0  0  0  0  0
   33.5930   31.3300   36.3150 C   0  0  0  0  0  0  0  0  0  0  0  0
   33.5640   31.0620   34.9860 N   0  0  0  0  0  0  0  0  0  0  0  0
   36.5240   32.1940   34.0300 H   0  0  0  0  0  0  0  0  0  0  0  0
   36.6820   32.7360   36.4840 H   0  0  0  0  0  0  0  0  0  0  0  0
   34.7150   32.1400   37.9330 H   0  0  0  0  0  0  0  0  0  0  0  0
   32.4130   30.9760   37.2020 C   0  0  0  0  0  0  0  0  0  0  0  0
   32.1220   29.9570   36.8620 H   0  0  0  0  0  0  0  0  0  0  0  0
   31.5670   31.6380   37.0210 H   0  0  0  0  0  0  0  0  0  0  0  0
   32.7680   30.9500   38.2390 H   0  0  0  0  0  0  0  0  0  0  0  0
   38.3000   25.9450   31.0900 C   0  0  0  0  0  0  0  0  0  0  0  0
   37.2990   25.5210   31.2200 H   0  0  0  0  0  0  0  0  0  0  0  0
   38.9950   25.2100   30.6390 H   0  0  0  0  0  0  0  0  0  0  0  0
   36.8940   25.1700   33.3410 F   0  0  0  0  0  0  0  0  0  0  0  0
   38.0760   25.8370   33.4790 C   0  0  0  0  0  0  0  0  0  0  0  0
   38.8710   26.2770   32.4410 C   0  0  0  0  0  0  0  0  0  0  0  0
   40.0430   26.9390   32.6530 C   0  0  0  0  0  0  0  0  0  0  0  0
   40.4860   27.1980   33.9650 C   0  0  0  0  0  0  0  0  0  0  0  0
   39.7000   26.7630   35.0240 C   0  0  0  0  0  0  0  0  0  0  0  0
   38.5210   26.0970   34.7760 C   0  0  0  0  0  0  0  0  0  0  0  0
   40.5980   27.2450   31.7790 H   0  0  0  0  0  0  0  0  0  0  0  0
   41.4220   27.7260   34.1120 H   0  0  0  0  0  0  0  0  0  0  0  0
   40.0310   26.9570   36.0420 H   0  0  0  0  0  0  0  0  0  0  0  0
   37.7910   25.6940   35.8890 O   0  0  0  0  0  0  0  0  0  0  0  0
   38.2200   24.7250   36.7720 C   0  0  0  0  0  0  0  0  0  0  0  0
   38.0260   24.5070   38.1280 C   0  0  0  0  0  0  0  0  0  0  0  0
   37.4260   25.1790   38.7170 H   0  0  0  0  0  0  0  0  0  0  0  0
   38.7270   23.3520   38.4250 C   0  0  0  0  0  0  0  0  0  0  0  0
   38.7550   22.9310   39.4370 H   0  0  0  0  0  0  0  0  0  0  0  0
   39.3080   22.9370   37.2220 C   0  0  0  0  0  0  0  0  0  0  0  0
   39.9010   22.0400   37.2600 H   0  0  0  0  0  0  0  0  0  0  0  0
   38.9810   23.7700   36.2910 O   0  0  0  0  0  0  0  0  0  0  0  0
  1  6  1  0  0  0  0
  1 24  1  0  0  0  0
  2  8  1  0  0  0  0
  3  2  1  0  0  0  0
  3 10  1  0  0  0  0
  4  3  2  0  0  0  0
  5  6  2  0  0  0  0
  5  4  1  0  0  0  0
  6  7  1  0  0  0  0
  7  2  2  0  0  0  0
  9  4  1  0  0  0  0
 10 11  1  0  0  0  0
 11 12  2  0  0  0  0
 11 16  1  0  0  0  0
 12 13  1  0  0  0  0
 13 18  1  0  0  0  0
 13 14  2  0  0  0  0
 14 19  1  0  0  0  0
 15 14  1  0  0  0  0
 15 20  1  0  0  0  0
 16 15  2  0  0  0  0
 17 12  1  0  0  0  0
 20 23  1  0  0  0  0
 21 20  1  0  0  0  0
 22 20  1  0  0  0  0
 24 25  1  0  0  0  0
 24 29  1  0  0  0  0
 26 24  1  0  0  0  0
 27 28  1  0  0  0  0
 28 33  1  0  0  0  0
 29 30  1  0  0  0  0
 29 28  2  0  0  0  0
 30 31  2  0  0  0  0
 31 35  1  0  0  0  0
 31 32  1  0  0  0  0
 32 36  1  0  0  0  0
 33 32  2  0  0  0  0
 33 37  1  0  0  0  0
 34 30  1  0  0  0  0
 37 38  1  0  0  0  0
 38 39  2  0  0  0  0
 39 41  1  0  0  0  0
 39 40  1  0  0  0  0
 41 42  1  0  0  0  0
 43 44  1  0  0  0  0
 43 41  2  0  0  0  0
 45 38  1  0  0  0  0
 45 43  1  0  0  0  0
M  END
>  <minimizedAffinity>
-6.17372417

$$$$

 OpenBabel03262522293D

 45 48  0  0  0  0  0  0  0  0999 V2000
   38.7630   27.4260   31.7160 S   0  0  0  0  0  0  0  0  0  0  0  0
   37.4280   23.7750   30.6230 C   0  0  0  0  0  0  0  0  0  0  0  0
   36.0750   23.8640   30.9820 C   0  0  0  0  0  0  0  0  0  0  0  0
   35.6430   25.0350   31.5370 C   0  0  0  0  0  0  0  0  0  0  0  0
   36.5430   26.0460   31.7130 N   0  0  0  0  0  0  0  0  0  0  0  0
   37.7960   25.9250   31.3670 C   0  0  0  0  0  0  0  0  0  0  0  0
   38.3030   24.7760   30.8020 N   0  0  0  0  0  0  0  0  0  0  0  0
   37.8960   22.9030   30.1750 H   0  0  0  0  0  0  0  0  0  0  0  0
   34.6080   25.1270   31.8210 H   0  0  0  0  0  0  0  0  0  0  0  0
   35.2930   22.7820   30.7520 O   0  0  0  0  0  0  0  0  0  0  0  0
   35.6130   21.5670   31.3610 C   0  0  0  0  0  0  0  0  0  0  0  0
   36.0030   20.3980   30.7620 C   0  0  0  0  0  0  0  0  0  0  0  0
   36.2710   19.3280   31.5260 C   0  0  0  0  0  0  0  0  0  0  0  0
   36.1510   19.4220   32.8720 C   0  0  0  0  0  0  0  0  0  0  0  0
   35.7550   20.6120   33.4750 C   0  0  0  0  0  0  0  0  0  0  0  0
   35.4890   21.6850   32.6910 N   0  0  0  0  0  0  0  0  0  0  0  0
   36.0630   20.4440   29.6760 H   0  0  0  0  0  0  0  0  0  0  0  0
   36.5830   18.3910   31.0390 H   0  0  0  0  0  0  0  0  0  0  0  0
   36.3590   18.5710   33.5380 H   0  0  0  0  0  0  0  0  0  0  0  0
   35.6250   20.7050   34.9850 C   0  0  0  0  0  0  0  0  0  0  0  0
   34.6720   21.2620   35.1340 H   0  0  0  0  0  0  0  0  0  0  0  0
   36.4260   21.3020   35.4170 H   0  0  0  0  0  0  0  0  0  0  0  0
   35.5410   19.6860   35.3780 H   0  0  0  0  0  0  0  0  0  0  0  0
   40.1080   26.8550   32.7900 C   0  0  0  0  0  0  0  0  0  0  0  0
   40.6240   26.0060   32.3300 H   0  0  0  0  0  0  0  0  0  0  0  0
   40.8190   27.6600   33.0650 H   0  0  0  0  0  0  0  0  0  0  0  0
   40.1050   24.1550   33.3840 F   0  0  0  0  0  0  0  0  0  0  0  0
   39.5410   25.0390   34.2570 C   0  0  0  0  0  0  0  0  0  0  0  0
   39.4780   26.4060   34.0800 C   0  0  0  0  0  0  0  0  0  0  0  0
   38.8980   27.2310   34.9950 C   0  0  0  0  0  0  0  0  0  0  0  0
   38.3350   26.7020   36.1730 C   0  0  0  0  0  0  0  0  0  0  0  0
   38.3890   25.3290   36.3710 C   0  0  0  0  0  0  0  0  0  0  0  0
   38.9820   24.5230   35.4260 C   0  0  0  0  0  0  0  0  0  0  0  0
   38.8950   28.2880   34.7710 H   0  0  0  0  0  0  0  0  0  0  0  0
   37.8780   27.3780   36.8900 H   0  0  0  0  0  0  0  0  0  0  0  0
   37.9580   24.9080   37.2770 H   0  0  0  0  0  0  0  0  0  0  0  0
   38.9950   23.1580   35.6970 O   0  0  0  0  0  0  0  0  0  0  0  0
   40.0680   22.5050   36.2650 C   0  0  0  0  0  0  0  0  0  0  0  0
   40.4770   22.2870   37.5730 C   0  0  0  0  0  0  0  0  0  0  0  0
   39.9040   22.6640   38.4030 H   0  0  0  0  0  0  0  0  0  0  0  0
   41.6480   21.5540   37.4820 C   0  0  0  0  0  0  0  0  0  0  0  0
   42.2040   21.2320   38.3700 H   0  0  0  0  0  0  0  0  0  0  0  0
   41.8790   21.3730   36.1140 C   0  0  0  0  0  0  0  0  0  0  0  0
   42.7610   20.8170   35.8470 H   0  0  0  0  0  0  0  0  0  0  0  0
   40.9310   21.9450   35.4500 O   0  0  0  0  0  0  0  0  0  0  0  0
  1 24  1  0  0  0  0
  2  7  2  0  0  0  0
  2  3  1  0  0  0  0
  3  4  2  0  0  0  0
  4  5  1  0  0  0  0
  4  9  1  0  0  0  0
  6  5  2  0  0  0  0
  6  1  1  0  0  0  0
  7  6  1  0  0  0  0
  8  2  1  0  0  0  0
 10  3  1  0  0  0  0
 10 11  1  0  0  0  0
 11 16  1  0  0  0  0
 12 11  2  0  0  0  0
 12 13  1  0  0  0  0
 13 14  2  0  0  0  0
 14 15  1  0  0  0  0
 14 19  1  0  0  0  0
 15 20  1  0  0  0  0
 16 15  2  0  0  0  0
 17 12  1  0  0  0  0
 18 13  1  0  0  0  0
 20 21  1  0  0  0  0
 20 23  1  0  0  0  0
 20 22  1  0  0  0  0
 24 26  1  0  0  0  0
 24 29  1  0  0  0  0
 25 24  1  0  0  0  0
 27 28  1  0  0  0  0
 28 33  1  0  0  0  0
 29 28  2  0  0  0  0
 29 30  1  0  0  0  0
 30 31  2  0  0  0  0
 31 32  1  0  0  0  0
 31 35  1  0  0  0  0
 32 36  1  0  0  0  0
 33 37  1  0  0  0  0
 33 32  2  0  0  0  0
 34 30  1  0  0  0  0
 37 38  1  0  0  0  0
 38 39  2  0  0  0  0
 39 40  1  0  0  0  0
 41 39  1  0  0  0  0
 41 42  1  0  0  0  0
 43 41  2  0  0  0  0
 44 43  1  0  0  0  0
 45 43  1  0  0  0  0
 45 38  1  0  0  0  0
M  END
>  <minimizedAffinity>
-6.04433823

$$$$

 OpenBabel03262522293D

 45 48  0  0  0  0  0  0  0  0999 V2000
   35.7080   21.6350   31.0960 S   0  0  0  0  0  0  0  0  0  0  0  0
   37.5300   25.2390   31.0640 C   0  0  0  0  0  0  0  0  0  0  0  0
   36.4230   26.1010   31.0490 C   0  0  0  0  0  0  0  0  0  0  0  0
   35.1800   25.5350   31.0510 C   0  0  0  0  0  0  0  0  0  0  0  0
   35.0820   24.1730   31.0650 N   0  0  0  0  0  0  0  0  0  0  0  0
   36.1360   23.4030   31.0780 C   0  0  0  0  0  0  0  0  0  0  0  0
   37.4200   23.9030   31.0780 N   0  0  0  0  0  0  0  0  0  0  0  0
   38.5670   25.5610   31.0640 H   0  0  0  0  0  0  0  0  0  0  0  0
   34.3140   26.1750   31.0390 H   0  0  0  0  0  0  0  0  0  0  0  0
   36.6660   27.4340   31.0340 O   0  0  0  0  0  0  0  0  0  0  0  0
   36.2340   28.2160   32.1070 C   0  0  0  0  0  0  0  0  0  0  0  0
   36.5390   28.0720   33.4350 C   0  0  0  0  0  0  0  0  0  0  0  0
   36.0200   28.9340   34.3230 C   0  0  0  0  0  0  0  0  0  0  0  0
   35.2060   29.9270   33.8930 C   0  0  0  0  0  0  0  0  0  0  0  0
   34.8990   30.0690   32.5430 C   0  0  0  0  0  0  0  0  0  0  0  0
   35.4310   29.1910   31.6570 N   0  0  0  0  0  0  0  0  0  0  0  0
   37.2020   27.2380   33.6590 H   0  0  0  0  0  0  0  0  0  0  0  0
   36.2690   28.8130   35.3890 H   0  0  0  0  0  0  0  0  0  0  0  0
   34.7570   30.6560   34.5850 H   0  0  0  0  0  0  0  0  0  0  0  0
   33.9850   31.1860   32.0730 C   0  0  0  0  0  0  0  0  0  0  0  0
   33.3160   30.6880   31.3360 H   0  0  0  0  0  0  0  0  0  0  0  0
   34.5420   31.9580   31.5440 H   0  0  0  0  0  0  0  0  0  0  0  0
   33.4130   31.5380   32.9390 H   0  0  0  0  0  0  0  0  0  0  0  0
   37.0810   20.8480   31.9810 C   0  0  0  0  0  0  0  0  0  0  0  0
   37.0840   19.7700   31.7920 H   0  0  0  0  0  0  0  0  0  0  0  0
   38.0660   21.3010   31.7510 H   0  0  0  0  0  0  0  0  0  0  0  0
   38.9190   22.3790   33.3680 F   0  0  0  0  0  0  0  0  0  0  0  0
   37.8370   21.8660   34.0210 C   0  0  0  0  0  0  0  0  0  0  0  0
   36.8520   21.0890   33.4480 C   0  0  0  0  0  0  0  0  0  0  0  0
   35.7960   20.6090   34.1630 C   0  0  0  0  0  0  0  0  0  0  0  0
   35.6790   20.8970   35.5370 C   0  0  0  0  0  0  0  0  0  0  0  0
   36.6600   21.6760   36.1330 C   0  0  0  0  0  0  0  0  0  0  0  0
   37.7140   22.1460   35.3830 C   0  0  0  0  0  0  0  0  0  0  0  0
   35.0740   20.0100   33.6290 H   0  0  0  0  0  0  0  0  0  0  0  0
   34.8300   20.5040   36.0880 H   0  0  0  0  0  0  0  0  0  0  0  0
   36.5810   21.9060   37.1940 H   0  0  0  0  0  0  0  0  0  0  0  0
   38.6560   22.9200   36.0530 O   0  0  0  0  0  0  0  0  0  0  0  0
   38.7170   24.2940   35.9620 C   0  0  0  0  0  0  0  0  0  0  0  0
   37.9740   25.3280   36.5130 C   0  0  0  0  0  0  0  0  0  0  0  0
   37.1460   25.1260   37.1700 H   0  0  0  0  0  0  0  0  0  0  0  0
   38.5410   26.4950   36.0310 C   0  0  0  0  0  0  0  0  0  0  0  0
   38.1560   27.4840   36.3020 H   0  0  0  0  0  0  0  0  0  0  0  0
   39.6010   26.0940   35.2100 C   0  0  0  0  0  0  0  0  0  0  0  0
   40.1670   26.8790   34.7410 H   0  0  0  0  0  0  0  0  0  0  0  0
   39.6610   24.8040   35.2050 O   0  0  0  0  0  0  0  0  0  0  0  0
  1 24  1  0  0  0  0
  2  8  1  0  0  0  0
  2  7  1  0  0  0  0
  3  4  1  0  0  0  0
  3  2  2  0  0  0  0
  4  5  2  0  0  0  0
  5  6  1  0  0  0  0
  6  1  1  0  0  0  0
  7  6  2  0  0  0  0
  9  4  1  0  0  0  0
 10  3  1  0  0  0  0
 10 11  1  0  0  0  0
 11 12  1  0  0  0  0
 12 17  1  0  0  0  0
 12 13  2  0  0  0  0
 13 18  1  0  0  0  0
 14 13  1  0  0  0  0
 14 19  1  0  0  0  0
 15 14  2  0  0  0  0
 16 11  2  0  0  0  0
 16 15  1  0  0  0  0
 20 15  1  0  0  0  0
 20 23  1  0  0  0  0
 21 20  1  0  0  0  0
 22 20  1  0  0  0  0
 24 29  1  0  0  0  0
 25 24  1  0  0  0  0
 26 24  1  0  0  0  0
 27 28  1  0  0  0  0
 28 33  1  0  0  0  0
 29 28  2  0  0  0  0
 29 30  1  0  0  0  0
 30 31  2  0  0  0  0
 31 35  1  0  0  0  0
 31 32  1  0  0  0  0
 32 36  1  0  0  0  0
 33 37  1  0  0  0  0
 33 32  2  0  0  0  0
 34 30  1  0  0  0  0
 38 37  1  0  0  0  0
 38 39  2  0  0  0  0
 39 40  1  0  0  0  0
 41 42  1  0  0  0  0
 41 39  1  0  0  0  0
 43 41  2  0  0  0  0
 44 43  1  0  0  0  0
 45 43  1  0  0  0  0
 45 38  1  0  0  0  0
M  END
>  <minimizedAffinity>
-5.95319557

$$$$

 OpenBabel03262522293D

 45 48  0  0  0  0  0  0  0  0999 V2000
   35.5550   21.6370   31.0720 S   0  0  0  0  0  0  0  0  0  0  0  0
   38.1780   24.6490   30.4790 C   0  0  0  0  0  0  0  0  0  0  0  0
   37.4550   25.7400   30.9840 C   0  0  0  0  0  0  0  0  0  0  0  0
   36.2060   25.4970   31.4800 C   0  0  0  0  0  0  0  0  0  0  0  0
   35.7310   24.2170   31.4560 N   0  0  0  0  0  0  0  0  0  0  0  0
   36.4340   23.2260   30.9760 C   0  0  0  0  0  0  0  0  0  0  0  0
   37.7000   23.3960   30.4610 N   0  0  0  0  0  0  0  0  0  0  0  0
   39.1780   24.7080   30.0590 H   0  0  0  0  0  0  0  0  0  0  0  0
   35.6310   26.3180   31.8730 H   0  0  0  0  0  0  0  0  0  0  0  0
   38.0480   26.9580   30.9450 O   0  0  0  0  0  0  0  0  0  0  0  0
   39.2600   27.1470   31.6120 C   0  0  0  0  0  0  0  0  0  0  0  0
   40.4720   27.4970   31.0780 C   0  0  0  0  0  0  0  0  0  0  0  0
   41.5320   27.6310   31.8920 C   0  0  0  0  0  0  0  0  0  0  0  0
   41.3840   27.4180   33.2210 C   0  0  0  0  0  0  0  0  0  0  0  0
   40.1510   27.0620   33.7580 C   0  0  0  0  0  0  0  0  0  0  0  0
   39.0890   26.9310   32.9240 N   0  0  0  0  0  0  0  0  0  0  0  0
   40.4680   27.6410   29.9990 H   0  0  0  0  0  0  0  0  0  0  0  0
   42.5030   27.9130   31.4570 H   0  0  0  0  0  0  0  0  0  0  0  0
   42.2240   27.5160   33.9260 H   0  0  0  0  0  0  0  0  0  0  0  0
   39.9970   26.8260   35.2500 C   0  0  0  0  0  0  0  0  0  0  0  0
   39.3720   25.9070   35.3090 H   0  0  0  0  0  0  0  0  0  0  0  0
   39.4410   27.6330   35.7240 H   0  0  0  0  0  0  0  0  0  0  0  0
   40.9950   26.6430   35.6650 H   0  0  0  0  0  0  0  0  0  0  0  0
   36.7090   20.5350   31.9340 C   0  0  0  0  0  0  0  0  0  0  0  0
   36.4320   19.4900   31.7620 H   0  0  0  0  0  0  0  0  0  0  0  0
   37.7690   20.7210   31.6700 H   0  0  0  0  0  0  0  0  0  0  0  0
   38.7150   22.0060   33.1390 F   0  0  0  0  0  0  0  0  0  0  0  0
   37.6530   21.5790   33.8800 C   0  0  0  0  0  0  0  0  0  0  0  0
   36.5910   20.8400   33.4020 C   0  0  0  0  0  0  0  0  0  0  0  0
   35.5610   20.4450   34.2010 C   0  0  0  0  0  0  0  0  0  0  0  0
   35.5500   20.7860   35.5680 C   0  0  0  0  0  0  0  0  0  0  0  0
   36.6100   21.5300   36.0700 C   0  0  0  0  0  0  0  0  0  0  0  0
   37.6360   21.9130   35.2350 C   0  0  0  0  0  0  0  0  0  0  0  0
   34.7730   19.8700   33.7380 H   0  0  0  0  0  0  0  0  0  0  0  0
   34.7200   20.4620   36.1870 H   0  0  0  0  0  0  0  0  0  0  0  0
   36.6140   21.8000   37.1230 H   0  0  0  0  0  0  0  0  0  0  0  0
   38.6610   22.6550   35.8130 O   0  0  0  0  0  0  0  0  0  0  0  0
   38.5130   23.3810   36.9760 C   0  0  0  0  0  0  0  0  0  0  0  0
   37.8050   24.5270   37.3100 C   0  0  0  0  0  0  0  0  0  0  0  0
   37.2070   25.0420   36.5780 H   0  0  0  0  0  0  0  0  0  0  0  0
   38.0680   24.7520   38.6500 C   0  0  0  0  0  0  0  0  0  0  0  0
   37.6380   25.6000   39.1930 H   0  0  0  0  0  0  0  0  0  0  0  0
   38.9260   23.7210   39.0490 C   0  0  0  0  0  0  0  0  0  0  0  0
   39.2430   23.7320   40.0780 H   0  0  0  0  0  0  0  0  0  0  0  0
   39.1530   22.9510   38.0380 O   0  0  0  0  0  0  0  0  0  0  0  0
  1 24  1  0  0  0  0
  2  3  1  0  0  0  0
  3  4  2  0  0  0  0
  4  9  1  0  0  0  0
  5  4  1  0  0  0  0
  6  1  1  0  0  0  0
  6  5  2  0  0  0  0
  7  2  2  0  0  0  0
  7  6  1  0  0  0  0
  8  2  1  0  0  0  0
 10  3  1  0  0  0  0
 10 11  1  0  0  0  0
 11 16  1  0  0  0  0
 12 11  2  0  0  0  0
 12 13  1  0  0  0  0
 13 14  2  0  0  0  0
 14 15  1  0  0  0  0
 14 19  1  0  0  0  0
 15 20  1  0  0  0  0
 16 15  2  0  0  0  0
 17 12  1  0  0  0  0
 18 13  1  0  0  0  0
 20 21  1  0  0  0  0
 20 23  1  0  0  0  0
 20 22  1  0  0  0  0
 24 29  1  0  0  0  0
 25 24  1  0  0  0  0
 26 24  1  0  0  0  0
 27 28  1  0  0  0  0
 28 33  1  0  0  0  0
 29 28  2  0  0  0  0
 29 30  1  0  0  0  0
 30 31  2  0  0  0  0
 31 32  1  0  0  0  0
 31 35  1  0  0  0  0
 32 36  1  0  0  0  0
 33 37  1  0  0  0  0
 33 32  2  0  0  0  0
 34 30  1  0  0  0  0
 37 38  1  0  0  0  0
 38 39  2  0  0  0  0
 38 45  1  0  0  0  0
 39 41  1  0  0  0  0
 40 39  1  0  0  0  0
 41 43  2  0  0  0  0
 41 42  1  0  0  0  0
 43 44  1  0  0  0  0
 45 43  1  0  0  0  0
M  END
>  <minimizedAffinity>
-5.93685722

$$$$

 OpenBabel03262522293D

 45 48  0  0  0  0  0  0  0  0999 V2000
   35.4070   28.6670   32.0850 S   0  0  0  0  0  0  0  0  0  0  0  0
   37.3140   25.2050   32.9130 C   0  0  0  0  0  0  0  0  0  0  0  0
   38.2770   25.6420   33.8350 C   0  0  0  0  0  0  0  0  0  0  0  0
   38.2910   26.9690   34.1550 C   0  0  0  0  0  0  0  0  0  0  0  0
   37.3770   27.7940   33.5650 N   0  0  0  0  0  0  0  0  0  0  0  0
   36.4950   27.3500   32.7100 C   0  0  0  0  0  0  0  0  0  0  0  0
   36.4210   26.0250   32.3400 N   0  0  0  0  0  0  0  0  0  0  0  0
   37.1970   24.1790   32.5760 H   0  0  0  0  0  0  0  0  0  0  0  0
   39.0210   27.3280   34.8600 H   0  0  0  0  0  0  0  0  0  0  0  0
   39.1240   24.7140   34.3430 O   0  0  0  0  0  0  0  0  0  0  0  0
   38.9430   24.2720   35.6550 C   0  0  0  0  0  0  0  0  0  0  0  0
   37.9450   24.6140   36.5310 C   0  0  0  0  0  0  0  0  0  0  0  0
   37.9420   24.0780   37.7610 C   0  0  0  0  0  0  0  0  0  0  0  0
   38.9230   23.2130   38.1150 C   0  0  0  0  0  0  0  0  0  0  0  0
   39.9330   22.8700   37.2220 C   0  0  0  0  0  0  0  0  0  0  0  0
   39.9230   23.4190   35.9820 N   0  0  0  0  0  0  0  0  0  0  0  0
   37.2150   25.3160   36.1340 H   0  0  0  0  0  0  0  0  0  0  0  0
   37.1390   24.3550   38.4610 H   0  0  0  0  0  0  0  0  0  0  0  0
   38.9620   22.7490   39.1130 H   0  0  0  0  0  0  0  0  0  0  0  0
   41.0270   21.8990   37.6300 C   0  0  0  0  0  0  0  0  0  0  0  0
   41.9570   22.3680   37.2370 H   0  0  0  0  0  0  0  0  0  0  0  0
   40.9090   20.9370   37.1340 H   0  0  0  0  0  0  0  0  0  0  0  0
   41.0480   21.8580   38.7250 H   0  0  0  0  0  0  0  0  0  0  0  0
   35.9020   30.1410   33.0190 C   0  0  0  0  0  0  0  0  0  0  0  0
   36.8830   29.9830   33.4800 H   0  0  0  0  0  0  0  0  0  0  0  0
   35.8840   31.0680   32.4130 H   0  0  0  0  0  0  0  0  0  0  0  0
   36.5310   31.7920   35.1450 F   0  0  0  0  0  0  0  0  0  0  0  0
   35.3120   31.1810   35.1020 C   0  0  0  0  0  0  0  0  0  0  0  0
   34.8770   30.3370   34.1010 C   0  0  0  0  0  0  0  0  0  0  0  0
   33.6430   29.7590   34.1240 C   0  0  0  0  0  0  0  0  0  0  0  0
   32.7580   30.0130   35.1900 C   0  0  0  0  0  0  0  0  0  0  0  0
   33.1770   30.8600   36.2070 C   0  0  0  0  0  0  0  0  0  0  0  0
   34.4300   31.4280   36.1550 C   0  0  0  0  0  0  0  0  0  0  0  0
   33.3890   29.1130   33.2970 H   0  0  0  0  0  0  0  0  0  0  0  0
   31.7800   29.5430   35.1880 H   0  0  0  0  0  0  0  0  0  0  0  0
   32.5030   31.0640   37.0360 H   0  0  0  0  0  0  0  0  0  0  0  0
   34.7760   32.2640   37.2110 O   0  0  0  0  0  0  0  0  0  0  0  0
   34.4860   33.6120   37.2420 C   0  0  0  0  0  0  0  0  0  0  0  0
   33.5280   34.3730   37.8950 C   0  0  0  0  0  0  0  0  0  0  0  0
   32.8030   33.9140   38.5460 H   0  0  0  0  0  0  0  0  0  0  0  0
   33.7640   35.6820   37.5110 C   0  0  0  0  0  0  0  0  0  0  0  0
   33.1530   36.5150   37.8750 H   0  0  0  0  0  0  0  0  0  0  0  0
   34.8580   35.6330   36.6400 C   0  0  0  0  0  0  0  0  0  0  0  0
   35.1900   36.5720   36.2340 H   0  0  0  0  0  0  0  0  0  0  0  0
   35.2410   34.4050   36.5190 O   0  0  0  0  0  0  0  0  0  0  0  0
  1  6  1  0  0  0  0
  1 24  1  0  0  0  0
  2  3  1  0  0  0  0
  3  4  2  0  0  0  0
  3 10  1  0  0  0  0
  4  9  1  0  0  0  0
  5  4  1  0  0  0  0
  6  5  2  0  0  0  0
  7  6  1  0  0  0  0
  7  2  2  0  0  0  0
  8  2  1  0  0  0  0
 10 11  1  0  0  0  0
 11 16  2  0  0  0  0
 11 12  1  0  0  0  0
 12 13  2  0  0  0  0
 13 14  1  0  0  0  0
 13 18  1  0  0  0  0
 14 19  1  0  0  0  0
 15 20  1  0  0  0  0
 15 14  2  0  0  0  0
 16 15  1  0  0  0  0
 17 12  1  0  0  0  0
 20 23  1  0  0  0  0
 21 20  1  0  0  0  0
 22 20  1  0  0  0  0
 24 25  1  0  0  0  0
 24 29  1  0  0  0  0
 26 24  1  0  0  0  0
 28 27  1  0  0  0  0
 28 33  1  0  0  0  0
 29 30  1  0  0  0  0
 29 28  2  0  0  0  0
 30 31  2  0  0  0  0
 31 32  1  0  0  0  0
 32 36  1  0  0  0  0
 33 32  2  0  0  0  0
 33 37  1  0  0  0  0
 34 30  1  0  0  0  0
 35 31  1  0  0  0  0
 37 38  1  0  0  0  0
 38 39  2  0  0  0  0
 39 40  1  0  0  0  0
 41 42  1  0  0  0  0
 41 39  1  0  0  0  0
 43 41  2  0  0  0  0
 44 43  1  0  0  0  0
 45 43  1  0  0  0  0
 45 38  1  0  0  0  0
M  END
>  <minimizedAffinity>
-5.9233861

$$$$

 OpenBabel03262522293D

 45 48  0  0  0  0  0  0  0  0999 V2000
   38.6290   26.6130   32.8890 S   0  0  0  0  0  0  0  0  0  0  0  0
   35.5640   29.1340   32.1400 C   0  0  0  0  0  0  0  0  0  0  0  0
   35.1050   29.3940   33.4400 C   0  0  0  0  0  0  0  0  0  0  0  0
   35.7580   28.7870   34.4750 C   0  0  0  0  0  0  0  0  0  0  0  0
   36.8110   27.9660   34.1920 N   0  0  0  0  0  0  0  0  0  0  0  0
   37.2080   27.7460   32.9680 C   0  0  0  0  0  0  0  0  0  0  0  0
   36.6000   28.3240   31.8760 N   0  0  0  0  0  0  0  0  0  0  0  0
   35.1340   29.5520   31.2350 H   0  0  0  0  0  0  0  0  0  0  0  0
   35.4240   28.9720   35.4830 H   0  0  0  0  0  0  0  0  0  0  0  0
   34.0480   30.2310   33.5760 O   0  0  0  0  0  0  0  0  0  0  0  0
   33.5190   30.4580   34.8480 C   0  0  0  0  0  0  0  0  0  0  0  0
   32.5460   29.7440   35.4980 C   0  0  0  0  0  0  0  0  0  0  0  0
   32.1680   30.1220   36.7290 C   0  0  0  0  0  0  0  0  0  0  0  0
   32.7530   31.2000   37.3050 C   0  0  0  0  0  0  0  0  0  0  0  0
   33.7400   31.9200   36.6410 C   0  0  0  0  0  0  0  0  0  0  0  0
   34.1120   31.5260   35.3980 N   0  0  0  0  0  0  0  0  0  0  0  0
   32.1510   28.9000   34.9340 H   0  0  0  0  0  0  0  0  0  0  0  0
   31.3860   29.5450   37.2460 H   0  0  0  0  0  0  0  0  0  0  0  0
   32.4750   31.5460   38.3120 H   0  0  0  0  0  0  0  0  0  0  0  0
   34.3890   33.1260   37.2970 C   0  0  0  0  0  0  0  0  0  0  0  0
   34.4330   33.8810   36.4800 H   0  0  0  0  0  0  0  0  0  0  0  0
   35.4120   32.9100   37.6010 H   0  0  0  0  0  0  0  0  0  0  0  0
   33.7280   33.4660   38.1020 H   0  0  0  0  0  0  0  0  0  0  0  0
   39.4660   26.8310   34.4830 C   0  0  0  0  0  0  0  0  0  0  0  0
   40.3520   27.4620   34.3600 H   0  0  0  0  0  0  0  0  0  0  0  0
   38.7990   27.2200   35.2770 H   0  0  0  0  0  0  0  0  0  0  0  0
   37.5520   25.1240   35.5160 F   0  0  0  0  0  0  0  0  0  0  0  0
   38.8500   24.7130   35.4330 C   0  0  0  0  0  0  0  0  0  0  0  0
   39.8970   25.4640   34.9410 C   0  0  0  0  0  0  0  0  0  0  0  0
   41.1720   24.9880   34.8890 C   0  0  0  0  0  0  0  0  0  0  0  0
   41.4650   23.6880   35.3460 C   0  0  0  0  0  0  0  0  0  0  0  0
   40.4260   22.9160   35.8460 C   0  0  0  0  0  0  0  0  0  0  0  0
   39.1480   23.4260   35.8840 C   0  0  0  0  0  0  0  0  0  0  0  0
   41.9260   25.6490   34.4870 H   0  0  0  0  0  0  0  0  0  0  0  0
   42.4880   23.3290   35.2950 H   0  0  0  0  0  0  0  0  0  0  0  0
   40.6390   21.9100   36.2020 H   0  0  0  0  0  0  0  0  0  0  0  0
   38.1620   22.5900   36.4000 O   0  0  0  0  0  0  0  0  0  0  0  0
   37.2720   21.8900   35.6140 C   0  0  0  0  0  0  0  0  0  0  0  0
   36.1430   21.1290   35.8850 C   0  0  0  0  0  0  0  0  0  0  0  0
   35.7980   20.9910   36.8950 H   0  0  0  0  0  0  0  0  0  0  0  0
   35.6860   20.6860   34.6560 C   0  0  0  0  0  0  0  0  0  0  0  0
   34.7960   20.0550   34.5590 H   0  0  0  0  0  0  0  0  0  0  0  0
   36.5730   21.2090   33.7080 C   0  0  0  0  0  0  0  0  0  0  0  0
   36.3720   20.9650   32.6790 H   0  0  0  0  0  0  0  0  0  0  0  0
   37.4760   21.9020   34.3180 O   0  0  0  0  0  0  0  0  0  0  0  0
  1  6  1  0  0  0  0
  1 24  1  0  0  0  0
  2  3  1  0  0  0  0
  3 10  1  0  0  0  0
  3  4  2  0  0  0  0
  4  9  1  0  0  0  0
  5  4  1  0  0  0  0
  6  5  2  0  0  0  0
  7  2  2  0  0  0  0
  7  6  1  0  0  0  0
  8  2  1  0  0  0  0
 10 11  1  0  0  0  0
 11 16  2  0  0  0  0
 11 12  1  0  0  0  0
 12 13  2  0  0  0  0
 13 18  1  0  0  0  0
 13 14  1  0  0  0  0
 14 19  1  0  0  0  0
 15 20  1  0  0  0  0
 15 14  2  0  0  0  0
 16 15  1  0  0  0  0
 17 12  1  0  0  0  0
 20 22  1  0  0  0  0
 20 23  1  0  0  0  0
 21 20  1  0  0  0  0
 24 29  1  0  0  0  0
 24 26  1  0  0  0  0
 25 24  1  0  0  0  0
 28 27  1  0  0  0  0
 28 33  1  0  0  0  0
 29 28  2  0  0  0  0
 30 29  1  0  0  0  0
 30 31  2  0  0  0  0
 31 32  1  0  0  0  0
 32 33  2  0  0  0  0
 32 36  1  0  0  0  0
 33 37  1  0  0  0  0
 34 30  1  0  0  0  0
 35 31  1  0  0  0  0
 38 39  2  0  0  0  0
 38 37  1  0  0  0  0
 39 40  1  0  0  0  0
 41 39  1  0  0  0  0
 42 41  1  0  0  0  0
 43 45  1  0  0  0  0
 43 41  2  0  0  0  0
 44 43  1  0  0  0  0
 45 38  1  0  0  0  0
M  END
>  <minimizedAffinity>
-5.8358202

$$$$

 OpenBabel03262522293D

 45 48  0  0  0  0  0  0  0  0999 V2000
   37.4540   28.1560   30.9580 S   0  0  0  0  0  0  0  0  0  0  0  0
   35.1790   29.6510   33.9400 C   0  0  0  0  0  0  0  0  0  0  0  0
   34.2850   30.4570   33.2190 C   0  0  0  0  0  0  0  0  0  0  0  0
   34.4240   30.4990   31.8610 C   0  0  0  0  0  0  0  0  0  0  0  0
   35.4180   29.7630   31.2830 N   0  0  0  0  0  0  0  0  0  0  0  0
   36.2320   29.0250   31.9880 C   0  0  0  0  0  0  0  0  0  0  0  0
   36.1510   28.9320   33.3600 N   0  0  0  0  0  0  0  0  0  0  0  0
   35.1740   29.5310   35.0190 H   0  0  0  0  0  0  0  0  0  0  0  0
   33.7500   31.1110   31.2860 H   0  0  0  0  0  0  0  0  0  0  0  0
   33.3460   31.1350   33.9220 O   0  0  0  0  0  0  0  0  0  0  0  0
   32.7400   30.5200   35.0190 C   0  0  0  0  0  0  0  0  0  0  0  0
   32.8130   30.8840   36.3380 C   0  0  0  0  0  0  0  0  0  0  0  0
   32.1530   30.1590   37.2550 C   0  0  0  0  0  0  0  0  0  0  0  0
   31.4300   29.0830   36.8610 C   0  0  0  0  0  0  0  0  0  0  0  0
   31.3590   28.7180   35.5200 C   0  0  0  0  0  0  0  0  0  0  0  0
   32.0300   29.4610   34.6050 N   0  0  0  0  0  0  0  0  0  0  0  0
   33.4230   31.7640   36.5330 H   0  0  0  0  0  0  0  0  0  0  0  0
   32.2150   30.4550   38.3130 H   0  0  0  0  0  0  0  0  0  0  0  0
   30.8730   28.4590   37.5770 H   0  0  0  0  0  0  0  0  0  0  0  0
   30.5450   27.5110   35.0910 C   0  0  0  0  0  0  0  0  0  0  0  0
   31.2020   26.9980   34.3530 H   0  0  0  0  0  0  0  0  0  0  0  0
   29.6370   27.8090   34.5700 H   0  0  0  0  0  0  0  0  0  0  0  0
   30.3890   26.8800   35.9730 H   0  0  0  0  0  0  0  0  0  0  0  0
   37.4090   26.4440   31.5530 C   0  0  0  0  0  0  0  0  0  0  0  0
   36.4400   26.2320   32.0170 H   0  0  0  0  0  0  0  0  0  0  0  0
   37.6510   25.7020   30.7670 H   0  0  0  0  0  0  0  0  0  0  0  0
   37.3590   24.2530   33.2370 F   0  0  0  0  0  0  0  0  0  0  0  0
   38.3530   25.1790   33.3630 C   0  0  0  0  0  0  0  0  0  0  0  0
   38.4900   26.3120   32.5890 C   0  0  0  0  0  0  0  0  0  0  0  0
   39.5100   27.1980   32.7720 C   0  0  0  0  0  0  0  0  0  0  0  0
   40.4720   26.9760   33.7760 C   0  0  0  0  0  0  0  0  0  0  0  0
   40.3520   25.8410   34.5660 C   0  0  0  0  0  0  0  0  0  0  0  0
   39.3100   24.9670   34.3560 C   0  0  0  0  0  0  0  0  0  0  0  0
   39.5370   28.0560   32.1180 H   0  0  0  0  0  0  0  0  0  0  0  0
   41.2770   27.6940   33.9040 H   0  0  0  0  0  0  0  0  0  0  0  0
   41.0880   25.6590   35.3450 H   0  0  0  0  0  0  0  0  0  0  0  0
   39.2570   23.8530   35.1890 O   0  0  0  0  0  0  0  0  0  0  0  0
   38.8380   23.9030   36.5020 C   0  0  0  0  0  0  0  0  0  0  0  0
   37.8760   24.6420   37.1750 C   0  0  0  0  0  0  0  0  0  0  0  0
   37.2650   25.3610   36.6570 H   0  0  0  0  0  0  0  0  0  0  0  0
   37.9420   24.2270   38.4940 C   0  0  0  0  0  0  0  0  0  0  0  0
   37.2880   24.6440   39.2690 H   0  0  0  0  0  0  0  0  0  0  0  0
   38.9480   23.2560   38.5400 C   0  0  0  0  0  0  0  0  0  0  0  0
   39.1440   22.8140   39.5010 H   0  0  0  0  0  0  0  0  0  0  0  0
   39.4370   23.1050   37.3540 O   0  0  0  0  0  0  0  0  0  0  0  0
  1 24  1  0  0  0  0
  1  6  1  0  0  0  0
  2  8  1  0  0  0  0
  3 10  1  0  0  0  0
  3  2  2  0  0  0  0
  4  3  1  0  0  0  0
  5  4  2  0  0  0  0
  5  6  1  0  0  0  0
  6  7  2  0  0  0  0
  7  2  1  0  0  0  0
  9  4  1  0  0  0  0
 10 11  1  0  0  0  0
 11 12  1  0  0  0  0
 12 17  1  0  0  0  0
 12 13  2  0  0  0  0
 13 18  1  0  0  0  0
 14 13  1  0  0  0  0
 14 19  1  0  0  0  0
 15 14  2  0  0  0  0
 16 11  2  0  0  0  0
 16 15  1  0  0  0  0
 20 15  1  0  0  0  0
 20 23  1  0  0  0  0
 21 20  1  0  0  0  0
 22 20  1  0  0  0  0
 24 25  1  0  0  0  0
 24 29  1  0  0  0  0
 26 24  1  0  0  0  0
 27 28  1  0  0  0  0
 28 33  1  0  0  0  0
 29 30  1  0  0  0  0
 29 28  2  0  0  0  0
 30 31  2  0  0  0  0
 31 35  1  0  0  0  0
 31 32  1  0  0  0  0
 32 36  1  0  0  0  0
 33 32  2  0  0  0  0
 33 37  1  0  0  0  0
 34 30  1  0  0  0  0
 37 38  1  0  0  0  0
 38 39  2  0  0  0  0
 38 45  1  0  0  0  0
 39 41  1  0  0  0  0
 40 39  1  0  0  0  0
 41 43  2  0  0  0  0
 41 42  1  0  0  0  0
 43 44  1  0  0  0  0
 45 43  1  0  0  0  0
M  END
>  <minimizedAffinity>
-5.81833315

$$$$

 OpenBabel03262522293D

 45 48  0  0  0  0  0  0  0  0999 V2000
   37.0860   25.9620   32.2710 S   0  0  0  0  0  0  0  0  0  0  0  0
   38.4340   23.1120   34.7960 C   0  0  0  0  0  0  0  0  0  0  0  0
   38.8890   23.8950   35.8670 C   0  0  0  0  0  0  0  0  0  0  0  0
   38.7580   25.2500   35.7620 C   0  0  0  0  0  0  0  0  0  0  0  0
   38.1990   25.7670   34.6290 N   0  0  0  0  0  0  0  0  0  0  0  0
   37.7870   25.0060   33.6510 C   0  0  0  0  0  0  0  0  0  0  0  0
   37.8860   23.6320   33.6880 N   0  0  0  0  0  0  0  0  0  0  0  0
   38.4800   22.0280   34.7550 H   0  0  0  0  0  0  0  0  0  0  0  0
   39.1010   25.8730   36.5710 H   0  0  0  0  0  0  0  0  0  0  0  0
   39.4250   23.2500   36.9320 O   0  0  0  0  0  0  0  0  0  0  0  0
   40.7060   22.7050   36.8230 C   0  0  0  0  0  0  0  0  0  0  0  0
   41.1440   21.4830   37.2630 C   0  0  0  0  0  0  0  0  0  0  0  0
   42.4250   21.1360   37.0620 C   0  0  0  0  0  0  0  0  0  0  0  0
   43.2590   21.9970   36.4310 C   0  0  0  0  0  0  0  0  0  0  0  0
   42.8090   23.2360   35.9870 C   0  0  0  0  0  0  0  0  0  0  0  0
   41.5120   23.5730   36.1950 N   0  0  0  0  0  0  0  0  0  0  0  0
   40.3830   20.8790   37.7550 H   0  0  0  0  0  0  0  0  0  0  0  0
   42.7720   20.1530   37.4180 H   0  0  0  0  0  0  0  0  0  0  0  0
   44.3170   21.7550   36.2450 H   0  0  0  0  0  0  0  0  0  0  0  0
   43.7530   24.1920   35.2800 C   0  0  0  0  0  0  0  0  0  0  0  0
   43.5170   25.1800   35.7340 H   0  0  0  0  0  0  0  0  0  0  0  0
   43.5300   24.2560   34.2160 H   0  0  0  0  0  0  0  0  0  0  0  0
   44.7790   23.8910   35.5230 H   0  0  0  0  0  0  0  0  0  0  0  0
   37.8090   27.6150   32.4560 C   0  0  0  0  0  0  0  0  0  0  0  0
   38.2700   27.7160   33.4440 H   0  0  0  0  0  0  0  0  0  0  0  0
   38.5230   27.8720   31.6490 H   0  0  0  0  0  0  0  0  0  0  0  0
   36.2150   28.0650   34.6690 F   0  0  0  0  0  0  0  0  0  0  0  0
   35.9630   28.7350   33.5080 C   0  0  0  0  0  0  0  0  0  0  0  0
   36.6800   28.6010   32.3370 C   0  0  0  0  0  0  0  0  0  0  0  0
   36.3720   29.3040   31.2120 C   0  0  0  0  0  0  0  0  0  0  0  0
   35.2890   30.2050   31.2110 C   0  0  0  0  0  0  0  0  0  0  0  0
   34.5540   30.3540   32.3790 C   0  0  0  0  0  0  0  0  0  0  0  0
   34.8920   29.6290   33.5000 C   0  0  0  0  0  0  0  0  0  0  0  0
   36.9890   29.1340   30.3420 H   0  0  0  0  0  0  0  0  0  0  0  0
   35.0600   30.7550   30.3040 H   0  0  0  0  0  0  0  0  0  0  0  0
   33.7160   31.0470   32.3920 H   0  0  0  0  0  0  0  0  0  0  0  0
   34.1080   29.8340   34.6300 O   0  0  0  0  0  0  0  0  0  0  0  0
   34.3110   30.8660   35.5210 C   0  0  0  0  0  0  0  0  0  0  0  0
   35.4420   31.5000   36.0160 C   0  0  0  0  0  0  0  0  0  0  0  0
   36.4270   31.2000   35.7010 H   0  0  0  0  0  0  0  0  0  0  0  0
   34.9770   32.4700   36.8870 C   0  0  0  0  0  0  0  0  0  0  0  0
   35.6550   33.1360   37.4330 H   0  0  0  0  0  0  0  0  0  0  0  0
   33.5820   32.3640   36.8670 C   0  0  0  0  0  0  0  0  0  0  0  0
   33.0400   33.0490   37.4950 H   0  0  0  0  0  0  0  0  0  0  0  0
   33.2460   31.4160   36.0570 O   0  0  0  0  0  0  0  0  0  0  0  0
  1 24  1  0  0  0  0
  1  6  1  0  0  0  0
  2  3  1  0  0  0  0
  3 10  1  0  0  0  0
  4  3  2  0  0  0  0
  4  9  1  0  0  0  0
  5  4  1  0  0  0  0
  6  7  1  0  0  0  0
  6  5  2  0  0  0  0
  7  2  2  0  0  0  0
  8  2  1  0  0  0  0
 11 10  1  0  0  0  0
 11 12  1  0  0  0  0
 12 17  1  0  0  0  0
 13 12  2  0  0  0  0
 13 18  1  0  0  0  0
 14 13  1  0  0  0  0
 15 16  1  0  0  0  0
 15 14  2  0  0  0  0
 16 11  2  0  0  0  0
 19 14  1  0  0  0  0
 20 23  1  0  0  0  0
 20 21  1  0  0  0  0
 20 15  1  0  0  0  0
 22 20  1  0  0  0  0
 24 25  1  0  0  0  0
 26 24  1  0  0  0  0
 28 27  1  0  0  0  0
 29 24  1  0  0  0  0
 29 28  2  0  0  0  0
 30 29  1  0  0  0  0
 31 30  2  0  0  0  0
 31 32  1  0  0  0  0
 32 36  1  0  0  0  0
 32 33  2  0  0  0  0
 33 28  1  0  0  0  0
 33 37  1  0  0  0  0
 34 30  1  0  0  0  0
 35 31  1  0  0  0  0
 37 38  1  0  0  0  0
 38 39  2  0  0  0  0
 38 45  1  0  0  0  0
 39 41  1  0  0  0  0
 40 39  1  0  0  0  0
 41 42  1  0  0  0  0
 43 41  2  0  0  0  0
 43 44  1  0  0  0  0
 45 43  1  0  0  0  0
M  END
>  <minimizedAffinity>
-5.78161049

$$$$

 OpenBabel03262522293D

 45 48  0  0  0  0  0  0  0  0999 V2000
   38.1610   26.5830   31.4800 S   0  0  0  0  0  0  0  0  0  0  0  0
   36.3350   30.1820   31.6180 C   0  0  0  0  0  0  0  0  0  0  0  0
   35.4840   30.0100   32.7200 C   0  0  0  0  0  0  0  0  0  0  0  0
   35.5150   28.8050   33.3630 C   0  0  0  0  0  0  0  0  0  0  0  0
   36.3630   27.8400   32.9010 N   0  0  0  0  0  0  0  0  0  0  0  0
   37.1400   28.0370   31.8700 C   0  0  0  0  0  0  0  0  0  0  0  0
   37.1640   29.2250   31.1750 N   0  0  0  0  0  0  0  0  0  0  0  0
   36.4060   31.0880   31.0240 H   0  0  0  0  0  0  0  0  0  0  0  0
   34.8710   28.6490   34.2120 H   0  0  0  0  0  0  0  0  0  0  0  0
   34.6930   31.0530   33.0700 O   0  0  0  0  0  0  0  0  0  0  0  0
   34.7320   31.5280   34.3830 C   0  0  0  0  0  0  0  0  0  0  0  0
   35.7180   32.2650   34.9850 C   0  0  0  0  0  0  0  0  0  0  0  0
   35.5720   32.6300   36.2680 C   0  0  0  0  0  0  0  0  0  0  0  0
   34.4560   32.2640   36.9430 C   0  0  0  0  0  0  0  0  0  0  0  0
   33.4580   31.5160   36.3270 C   0  0  0  0  0  0  0  0  0  0  0  0
   33.6190   31.1550   35.0300 N   0  0  0  0  0  0  0  0  0  0  0  0
   36.5660   32.4980   34.3420 H   0  0  0  0  0  0  0  0  0  0  0  0
   36.3680   33.2220   36.7470 H   0  0  0  0  0  0  0  0  0  0  0  0
   34.2930   32.5400   37.9960 H   0  0  0  0  0  0  0  0  0  0  0  0
   32.2120   31.1120   37.0940 C   0  0  0  0  0  0  0  0  0  0  0  0
   32.0560   30.0490   36.8040 H   0  0  0  0  0  0  0  0  0  0  0  0
   31.3410   31.6740   36.7610 H   0  0  0  0  0  0  0  0  0  0  0  0
   32.4350   31.1920   38.1630 H   0  0  0  0  0  0  0  0  0  0  0  0
   39.6310   26.7720   32.5240 C   0  0  0  0  0  0  0  0  0  0  0  0
   40.4320   26.1150   32.1700 H   0  0  0  0  0  0  0  0  0  0  0  0
   39.9760   27.8210   32.6070 H   0  0  0  0  0  0  0  0  0  0  0  0
   39.6420   24.0790   33.1500 F   0  0  0  0  0  0  0  0  0  0  0  0
   39.2830   24.9910   34.0980 C   0  0  0  0  0  0  0  0  0  0  0  0
   39.2360   26.3580   33.9150 C   0  0  0  0  0  0  0  0  0  0  0  0
   38.8660   27.2120   34.9090 C   0  0  0  0  0  0  0  0  0  0  0  0
   38.5140   26.7150   36.1790 C   0  0  0  0  0  0  0  0  0  0  0  0
   38.5540   25.3430   36.3850 C   0  0  0  0  0  0  0  0  0  0  0  0
   38.9320   24.5060   35.3590 C   0  0  0  0  0  0  0  0  0  0  0  0
   38.8590   28.2660   34.6730 H   0  0  0  0  0  0  0  0  0  0  0  0
   38.2230   27.4140   36.9580 H   0  0  0  0  0  0  0  0  0  0  0  0
   38.2850   24.9470   37.3610 H   0  0  0  0  0  0  0  0  0  0  0  0
   38.9470   23.1450   35.6430 O   0  0  0  0  0  0  0  0  0  0  0  0
   40.0270   22.4950   36.2020 C   0  0  0  0  0  0  0  0  0  0  0  0
   40.4430   22.2700   37.5070 C   0  0  0  0  0  0  0  0  0  0  0  0
   39.8720   22.6370   38.3420 H   0  0  0  0  0  0  0  0  0  0  0  0
   41.6190   21.5470   37.4050 C   0  0  0  0  0  0  0  0  0  0  0  0
   42.1810   21.2220   38.2880 H   0  0  0  0  0  0  0  0  0  0  0  0
   41.8460   21.3780   36.0350 C   0  0  0  0  0  0  0  0  0  0  0  0
   42.7300   20.8300   35.7590 H   0  0  0  0  0  0  0  0  0  0  0  0
   40.8900   21.9480   35.3790 O   0  0  0  0  0  0  0  0  0  0  0  0
  1  6  1  0  0  0  0
  1 24  1  0  0  0  0
  2  3  1  0  0  0  0
  3 10  1  0  0  0  0
  3  4  2  0  0  0  0
  4  9  1  0  0  0  0
  5  4  1  0  0  0  0
  6  5  2  0  0  0  0
  7  2  2  0  0  0  0
  7  6  1  0  0  0  0
  8  2  1  0  0  0  0
 10 11  1  0  0  0  0
 11 12  2  0  0  0  0
 11 16  1  0  0  0  0
 12 13  1  0  0  0  0
 13 18  1  0  0  0  0
 13 14  2  0  0  0  0
 14 19  1  0  0  0  0
 15 14  1  0  0  0  0
 15 20  1  0  0  0  0
 16 15  2  0  0  0  0
 17 12  1  0  0  0  0
 20 23  1  0  0  0  0
 21 20  1  0  0  0  0
 22 20  1  0  0  0  0
 24 26  1  0  0  0  0
 24 29  1  0  0  0  0
 25 24  1  0  0  0  0
 27 28  1  0  0  0  0
 28 33  1  0  0  0  0
 29 28  2  0  0  0  0
 29 30  1  0  0  0  0
 30 31  2  0  0  0  0
 31 32  1  0  0  0  0
 31 35  1  0  0  0  0
 32 36  1  0  0  0  0
 33 37  1  0  0  0  0
 33 32  2  0  0  0  0
 34 30  1  0  0  0  0
 37 38  1  0  0  0  0
 38 39  2  0  0  0  0
 39 40  1  0  0  0  0
 41 39  1  0  0  0  0
 41 42  1  0  0  0  0
 43 41  2  0  0  0  0
 44 43  1  0  0  0  0
 45 43  1  0  0  0  0
 45 38  1  0  0  0  0
M  END
>  <minimizedAffinity>
-5.76143837

$$$$
