
 OpenBabel03272500113D

 20 21  0  0  0  0  0  0  0  0999 V2000
   35.4520   29.2890   50.5630 C   0  0  0  0  0  0  0  0  0  0  0  0
   36.1780   30.1560   49.7270 C   0  0  0  0  0  0  0  0  0  0  0  0
   35.9080   30.1480   48.3550 C   0  0  0  0  0  0  0  0  0  0  0  0
   34.9520   29.2970   47.8860 N   0  0  0  0  0  0  0  0  0  0  0  0
   34.2700   28.4740   48.7200 C   0  0  0  0  0  0  0  0  0  0  0  0
   34.5140   28.4680   50.0320 N   0  0  0  0  0  0  0  0  0  0  0  0
   35.6670   29.3040   51.6150 H   0  0  0  0  0  0  0  0  0  0  0  0
   36.4560   30.8020   47.7240 H   0  0  0  0  0  0  0  0  0  0  0  0
   33.2390   27.5500   48.2580 C   0  0  0  0  0  0  0  0  0  0  0  0
   31.8930   27.6410   48.5490 C   0  0  0  0  0  0  0  0  0  0  0  0
   31.3680   28.3670   49.1380 H   0  0  0  0  0  0  0  0  0  0  0  0
   31.2980   26.5690   47.9120 C   0  0  0  0  0  0  0  0  0  0  0  0
   30.2650   26.2490   47.8690 H   0  0  0  0  0  0  0  0  0  0  0  0
   32.2990   25.8740   47.2660 C   0  0  0  0  0  0  0  0  0  0  0  0
   32.3160   24.9810   46.6490 H   0  0  0  0  0  0  0  0  0  0  0  0
   33.4210   26.5000   47.5060 O   0  0  0  0  0  0  0  0  0  0  0  0
   37.2060   31.0470   50.3510 C   0  0  0  0  0  0  0  0  0  0  0  0
   38.3980   31.0200   49.6010 F   0  0  0  0  0  0  0  0  0  0  0  0
   36.7400   32.3350   50.3170 F   0  0  0  0  0  0  0  0  0  0  0  0
   37.5170   30.6860   51.6360 F   0  0  0  0  0  0  0  0  0  0  0  0
  1  7  1  0  0  0  0
  2 17  1  0  0  0  0
  2  1  2  0  0  0  0
  3  2  1  0  0  0  0
  4  3  2  0  0  0  0
  4  5  1  0  0  0  0
  5  6  2  0  0  0  0
  6  1  1  0  0  0  0
  8  3  1  0  0  0  0
  9 10  2  0  0  0  0
  9  5  1  0  0  0  0
 10 11  1  0  0  0  0
 12 10  1  0  0  0  0
 13 12  1  0  0  0  0
 14 16  1  0  0  0  0
 14 12  2  0  0  0  0
 15 14  1  0  0  0  0
 16  9  1  0  0  0  0
 17 20  1  0  0  0  0
 18 17  1  0  0  0  0
 19 17  1  0  0  0  0
M  END
>  <minimizedAffinity>
-4.84668303

>  <minimizedRMSD>
0.78295505

$$$$
