
 OpenBabel03272506433D

 31 33  0  0  1  0  0  0  0  0999 V2000
   32.3640   28.3020   47.5890 C   0  0  2  0  0  0  0  0  0  0  0  0
   33.6400   28.3390   48.3920 C   0  0  1  0  0  0  0  0  0  0  0  0
   34.2060   27.0850   48.3250 O   0  0  0  0  0  0  0  0  0  0  0  0
   33.5280   26.3330   47.3770 C   0  0  0  0  0  0  0  0  0  0  0  0
   32.7710   27.3280   46.4980 C   0  0  1  0  0  0  0  0  0  0  0  0
   31.4880   27.9720   48.1710 H   0  0  0  0  0  0  0  0  0  0  0  0
   33.4600   28.6780   49.4330 H   0  0  0  0  0  0  0  0  0  0  0  0
   34.2240   25.7670   46.7390 H   0  0  0  0  0  0  0  0  0  0  0  0
   32.7790   25.7220   47.9020 H   0  0  0  0  0  0  0  0  0  0  0  0
   33.4230   27.8630   45.8080 H   0  0  0  0  0  0  0  0  0  0  0  0
   32.0790   29.5710   47.0630 O   0  0  0  0  0  0  0  0  0  0  0  0
   31.3140   29.5390   46.4660 H   0  0  0  0  0  0  0  0  0  0  0  0
   34.7730   29.4990   47.5500 S   0  0  0  0  0  0  0  0  0  0  0  0
   37.3780   29.4770   50.5400 C   0  0  0  0  0  0  0  0  0  0  0  0
   37.9760   30.7290   50.5010 C   0  0  0  0  0  0  0  0  0  0  0  0
   37.5680   31.6290   49.5170 C   0  0  0  0  0  0  0  0  0  0  0  0
   36.5980   31.2420   48.6310 N   0  0  0  0  0  0  0  0  0  0  0  0
   36.0430   30.0060   48.7090 C   0  0  0  0  0  0  0  0  0  0  0  0
   36.4220   29.1180   49.6530 N   0  0  0  0  0  0  0  0  0  0  0  0
   37.7350   28.8300   51.3200 H   0  0  0  0  0  0  0  0  0  0  0  0
   38.7430   31.0490   51.1940 H   0  0  0  0  0  0  0  0  0  0  0  0
   37.9670   32.6190   49.4020 H   0  0  0  0  0  0  0  0  0  0  0  0
   31.6940   26.7020   45.9010 O   0  0  0  0  0  0  0  0  0  0  0  0
   30.8540   27.2470   44.9530 C   0  0  0  0  0  0  0  0  0  0  0  0
   29.4930   27.1420   45.2400 C   0  0  0  0  0  0  0  0  0  0  0  0
   28.9150   26.7180   46.0640 H   0  0  0  0  0  0  0  0  0  0  0  0
   28.8040   27.7410   44.1790 C   0  0  0  0  0  0  0  0  0  0  0  0
   27.7520   27.8950   43.9680 H   0  0  0  0  0  0  0  0  0  0  0  0
   29.8280   28.1590   43.3330 C   0  0  0  0  0  0  0  0  0  0  0  0
   29.6600   28.6800   42.3820 H   0  0  0  0  0  0  0  0  0  0  0  0
   31.0080   27.8520   43.8200 O   0  0  0  0  0  0  0  0  0  0  0  0
  1  6  1  1  0  0  0
  1  2  1  0  0  0  0
  2  7  1  1  0  0  0
  3  2  1  0  0  0  0
  4  9  1  0  0  0  0
  4  3  1  0  0  0  0
  5 10  1  6  0  0  0
  5  4  1  0  0  0  0
  5  1  1  0  0  0  0
  8  4  1  0  0  0  0
 11  1  1  0  0  0  0
 12 11  1  0  0  0  0
 13  2  1  0  0  0  0
 13 18  1  0  0  0  0
 14 20  1  0  0  0  0
 15 14  1  0  0  0  0
 15 21  1  0  0  0  0
 16 15  2  0  0  0  0
 17 18  2  0  0  0  0
 17 16  1  0  0  0  0
 18 19  1  0  0  0  0
 19 14  2  0  0  0  0
 22 16  1  0  0  0  0
 23  5  1  0  0  0  0
 24 25  2  0  0  0  0
 24 23  1  0  0  0  0
 25 26  1  0  0  0  0
 27 25  1  0  0  0  0
 28 27  1  0  0  0  0
 29 31  1  0  0  0  0
 29 27  2  0  0  0  0
 30 29  1  0  0  0  0
 31 24  1  0  0  0  0
M  END
>  <minimizedAffinity>
-3.78935552

>  <minimizedRMSD>
0.990962923

$$$$
