
 OpenBabel03262522273D

 45 48  0  0  0  0  0  0  0  0999 V2000
   36.6370   30.1220   50.1430 S   0  0  0  0  0  0  0  0  0  0  0  0
   38.8680   32.8710   48.2000 C   0  0  0  0  0  0  0  0  0  0  0  0
   39.1470   32.1950   47.0030 C   0  0  0  0  0  0  0  0  0  0  0  0
   38.6370   30.9370   46.8530 C   0  0  0  0  0  0  0  0  0  0  0  0
   37.8920   30.4080   47.8670 N   0  0  0  0  0  0  0  0  0  0  0  0
   37.6550   31.0690   48.9690 C   0  0  0  0  0  0  0  0  0  0  0  0
   38.1340   32.3410   49.1890 N   0  0  0  0  0  0  0  0  0  0  0  0
   39.2120   33.8720   48.4420 H   0  0  0  0  0  0  0  0  0  0  0  0
   38.8380   30.3970   45.9430 H   0  0  0  0  0  0  0  0  0  0  0  0
   39.9010   32.8390   46.0790 O   0  0  0  0  0  0  0  0  0  0  0  0
   40.0090   32.3030   44.7950 C   0  0  0  0  0  0  0  0  0  0  0  0
   40.6490   31.1540   44.4100 C   0  0  0  0  0  0  0  0  0  0  0  0
   40.6420   30.8030   43.1140 C   0  0  0  0  0  0  0  0  0  0  0  0
   40.0040   31.5890   42.2130 C   0  0  0  0  0  0  0  0  0  0  0  0
   39.3570   32.7540   42.6100 C   0  0  0  0  0  0  0  0  0  0  0  0
   39.3720   33.0960   43.9220 N   0  0  0  0  0  0  0  0  0  0  0  0
   41.1250   30.6070   45.2220 H   0  0  0  0  0  0  0  0  0  0  0  0
   41.1570   29.8790   42.8110 H   0  0  0  0  0  0  0  0  0  0  0  0
   39.9720   31.3410   41.1410 H   0  0  0  0  0  0  0  0  0  0  0  0
   38.6460   33.6270   41.5910 C   0  0  0  0  0  0  0  0  0  0  0  0
   38.9390   34.6610   41.8770 H   0  0  0  0  0  0  0  0  0  0  0  0
   37.5640   33.5520   41.6900 H   0  0  0  0  0  0  0  0  0  0  0  0
   39.0400   33.3740   40.6000 H   0  0  0  0  0  0  0  0  0  0  0  0
   34.9320   30.5910   49.7400 C   0  0  0  0  0  0  0  0  0  0  0  0
   34.2630   30.3250   50.5650 H   0  0  0  0  0  0  0  0  0  0  0  0
   34.8270   31.6590   49.4630 H   0  0  0  0  0  0  0  0  0  0  0  0
   34.5340   27.8680   49.9910 F   0  0  0  0  0  0  0  0  0  0  0  0
   34.3730   28.4640   48.7750 C   0  0  0  0  0  0  0  0  0  0  0  0
   34.5410   29.8090   48.5170 C   0  0  0  0  0  0  0  0  0  0  0  0
   34.3640   30.3380   47.2740 C   0  0  0  0  0  0  0  0  0  0  0  0
   33.9960   29.5100   46.1950 C   0  0  0  0  0  0  0  0  0  0  0  0
   33.8220   28.1540   46.4340 C   0  0  0  0  0  0  0  0  0  0  0  0
   34.0090   27.6510   47.7020 C   0  0  0  0  0  0  0  0  0  0  0  0
   34.5170   31.4010   47.1670 H   0  0  0  0  0  0  0  0  0  0  0  0
   33.8590   29.9520   45.2130 H   0  0  0  0  0  0  0  0  0  0  0  0
   33.5370   27.5040   45.6090 H   0  0  0  0  0  0  0  0  0  0  0  0
   33.8160   26.2820   47.8600 O   0  0  0  0  0  0  0  0  0  0  0  0
   33.6860   25.4040   46.8050 C   0  0  0  0  0  0  0  0  0  0  0  0
   34.5920   24.7340   45.9960 C   0  0  0  0  0  0  0  0  0  0  0  0
   35.6530   24.8510   46.1360 H   0  0  0  0  0  0  0  0  0  0  0  0
   33.8270   23.9950   45.1100 C   0  0  0  0  0  0  0  0  0  0  0  0
   34.2790   23.3570   44.3420 H   0  0  0  0  0  0  0  0  0  0  0  0
   32.4940   24.2650   45.4380 C   0  0  0  0  0  0  0  0  0  0  0  0
   31.7450   23.7710   44.8450 H   0  0  0  0  0  0  0  0  0  0  0  0
   32.4670   25.0910   46.4310 O   0  0  0  0  0  0  0  0  0  0  0  0
  2  8  1  0  0  0  0
  2  7  1  0  0  0  0
  3  2  2  0  0  0  0
  4  3  1  0  0  0  0
  4  5  2  0  0  0  0
  5  6  1  0  0  0  0
  6  7  2  0  0  0  0
  6  1  1  0  0  0  0
  9  4  1  0  0  0  0
 10  3  1  0  0  0  0
 11 10  1  0  0  0  0
 12 11  1  0  0  0  0
 12 17  1  0  0  0  0
 13 12  2  0  0  0  0
 14 15  2  0  0  0  0
 14 13  1  0  0  0  0
 15 16  1  0  0  0  0
 16 11  2  0  0  0  0
 18 13  1  0  0  0  0
 19 14  1  0  0  0  0
 20 22  1  0  0  0  0
 20 21  1  0  0  0  0
 20 15  1  0  0  0  0
 23 20  1  0  0  0  0
 24  1  1  0  0  0  0
 24 25  1  0  0  0  0
 26 24  1  0  0  0  0
 28 27  1  0  0  0  0
 29 28  1  0  0  0  0
 29 24  1  0  0  0  0
 30 29  2  0  0  0  0
 31 32  2  0  0  0  0
 31 30  1  0  0  0  0
 32 33  1  0  0  0  0
 33 37  1  0  0  0  0
 33 28  2  0  0  0  0
 34 30  1  0  0  0  0
 35 31  1  0  0  0  0
 36 32  1  0  0  0  0
 38 37  1  0  0  0  0
 39 40  1  0  0  0  0
 39 38  2  0  0  0  0
 41 43  2  0  0  0  0
 41 39  1  0  0  0  0
 42 41  1  0  0  0  0
 43 45  1  0  0  0  0
 44 43  1  0  0  0  0
 45 38  1  0  0  0  0
M  END
>  <minimizedAffinity>
-5.97286987

>  <minimizedRMSD>
1.55929601

$$$$
