
 OpenBabel03272507533D

 31 33  0  0  0  0  0  0  0  0999 V2000
   36.5380   31.2900   48.7190 N   0  0  0  0  0  0  0  0  0  0  0  0
   36.7070   32.1260   49.7370 C   0  0  0  0  0  0  0  0  0  0  0  0
   37.7550   33.0490   49.7160 C   0  0  0  0  0  0  0  0  0  0  0  0
   38.5360   32.9910   48.5940 C   0  0  0  0  0  0  0  0  0  0  0  0
   39.4840   33.8340   48.5870 O   0  0  0  0  0  0  0  0  0  0  0  0
   38.4060   32.1700   47.5480 N   0  0  0  0  0  0  0  0  0  0  0  0
   37.3690   31.2990   47.6320 C   0  0  0  0  0  0  0  0  0  0  0  0
   37.2200   30.5120   46.6600 O   0  0  0  0  0  0  0  0  0  0  0  0
   36.0120   32.0690   50.5730 H   0  0  0  0  0  0  0  0  0  0  0  0
   37.9080   33.7300   50.5250 H   0  0  0  0  0  0  0  0  0  0  0  0
   35.2790   29.5490   49.8310 C   0  0  0  0  0  0  0  0  0  0  0  0
   35.4810   30.3200   48.6800 C   0  0  0  0  0  0  0  0  0  0  0  0
   34.6560   30.1080   47.5730 C   0  0  0  0  0  0  0  0  0  0  0  0
   33.6900   29.1510   47.6730 N   0  0  0  0  0  0  0  0  0  0  0  0
   33.5040   28.4240   48.7640 C   0  0  0  0  0  0  0  0  0  0  0  0
   34.2890   28.6130   49.8470 N   0  0  0  0  0  0  0  0  0  0  0  0
   34.8950   30.7460   46.7560 H   0  0  0  0  0  0  0  0  0  0  0  0
   32.7170   27.6800   48.7770 H   0  0  0  0  0  0  0  0  0  0  0  0
   37.3260   29.1780   51.4010 C   0  0  0  0  0  0  0  0  0  0  0  0
   38.0750   28.5880   50.5960 O   0  0  0  0  0  0  0  0  0  0  0  0
   36.0410   29.6900   51.0190 N   0  0  0  0  0  0  0  0  0  0  0  0
   37.7460   29.2480   52.3650 H   0  0  0  0  0  0  0  0  0  0  0  0
   35.6500   30.2710   51.8120 H   0  0  0  0  0  0  0  0  0  0  0  0
   39.2810   32.1970   46.4270 C   0  0  0  0  0  0  0  0  0  0  0  0
   39.4590   32.9740   45.2980 C   0  0  0  0  0  0  0  0  0  0  0  0
   38.7680   33.8020   45.1920 H   0  0  0  0  0  0  0  0  0  0  0  0
   40.5220   32.4130   44.6300 C   0  0  0  0  0  0  0  0  0  0  0  0
   40.8260   32.8930   43.6900 H   0  0  0  0  0  0  0  0  0  0  0  0
   40.9510   31.3330   45.3590 C   0  0  0  0  0  0  0  0  0  0  0  0
   41.7800   30.7490   45.0090 H   0  0  0  0  0  0  0  0  0  0  0  0
   40.1890   31.2290   46.4270 O   0  0  0  0  0  0  0  0  0  0  0  0
  1  2  1  0  0  0  0
  2  9  1  0  0  0  0
  3  2  2  0  0  0  0
  3 10  1  0  0  0  0
  4  3  1  0  0  0  0
  5  4  2  0  0  0  0
  6  7  1  0  0  0  0
  6  4  1  0  0  0  0
  7  1  1  0  0  0  0
  8  7  2  0  0  0  0
 11 16  1  0  0  0  0
 11 21  1  0  0  0  0
 12  1  1  0  0  0  0
 12 11  2  0  0  0  0
 13 14  2  0  0  0  0
 13 12  1  0  0  0  0
 14 15  1  0  0  0  0
 15 18  1  0  0  0  0
 15 16  2  0  0  0  0
 17 13  1  0  0  0  0
 19 22  1  0  0  0  0
 20 19  2  0  0  0  0
 21 19  1  0  0  0  0
 21 23  1  0  0  0  0
 24 31  1  0  0  0  0
 24  6  1  0  0  0  0
 25 24  2  0  0  0  0
 26 25  1  0  0  0  0
 27 25  1  0  0  0  0
 27 29  2  0  0  0  0
 28 27  1  0  0  0  0
 29 31  1  0  0  0  0
 30 29  1  0  0  0  0
M  END
>  <minimizedAffinity>
-6.25494909

>  <minimizedRMSD>
1.04681396

$$$$
