
 OpenBabel03272509353D

 46 50  0  0  1  0  0  0  0  0999 V2000
   36.3220   30.6080   44.6620 C   0  0  1  0  0  0  0  0  0  0  0  0
   37.3330   31.6160   45.0680 C   0  0  0  0  0  0  0  0  0  0  0  0
   37.8700   30.2890   44.8540 C   0  0  2  0  0  0  0  0  0  0  0  0
   36.0290   30.3710   43.6470 H   0  0  0  0  0  0  0  0  0  0  0  0
   37.2080   31.9950   46.1370 H   0  0  0  0  0  0  0  0  0  0  0  0
   37.2600   32.4760   44.3860 H   0  0  0  0  0  0  0  0  0  0  0  0
   37.9470   29.4580   45.5440 H   0  0  0  0  0  0  0  0  0  0  0  0
   38.6970   30.2260   43.6040 C   0  0  0  0  0  0  0  0  0  0  0  0
   39.1400   31.5120   43.2620 C   0  0  0  0  0  0  0  0  0  0  0  0
   40.0120   31.6880   42.2170 C   0  0  0  0  0  0  0  0  0  0  0  0
   40.4770   30.6000   41.4700 C   0  0  0  0  0  0  0  0  0  0  0  0
   40.0190   29.3430   41.8350 C   0  0  0  0  0  0  0  0  0  0  0  0
   40.3850   28.2050   41.1770 C   0  0  0  0  0  0  0  0  0  0  0  0
   39.9260   26.9490   41.5120 C   0  0  0  0  0  0  0  0  0  0  0  0
   39.0460   26.8340   42.5770 C   0  0  0  0  0  0  0  0  0  0  0  0
   38.6770   27.9780   43.2420 C   0  0  0  0  0  0  0  0  0  0  0  0
   39.1630   29.2160   42.8700 C   0  0  0  0  0  0  0  0  0  0  0  0
   38.9940   32.5100   43.6260 H   0  0  0  0  0  0  0  0  0  0  0  0
   40.4510   32.5920   41.8170 H   0  0  0  0  0  0  0  0  0  0  0  0
   41.1620   30.5920   40.6260 H   0  0  0  0  0  0  0  0  0  0  0  0
   41.0710   28.2510   40.3400 H   0  0  0  0  0  0  0  0  0  0  0  0
   40.1980   26.0310   41.0080 H   0  0  0  0  0  0  0  0  0  0  0  0
   38.6460   25.8810   42.8950 H   0  0  0  0  0  0  0  0  0  0  0  0
   37.9760   27.8640   44.0890 H   0  0  0  0  0  0  0  0  0  0  0  0
   33.7710   28.5090   46.4690 C   0  0  0  0  0  0  0  0  0  0  0  0
   34.5650   29.0620   45.4250 C   0  0  0  0  0  0  0  0  0  0  0  0
   35.4970   30.0090   45.7420 C   0  0  0  0  0  0  0  0  0  0  0  0
   35.5920   30.3520   47.0610 N   0  0  0  0  0  0  0  0  0  0  0  0
   34.8550   29.8400   48.0450 C   0  0  0  0  0  0  0  0  0  0  0  0
   33.9200   28.8980   47.7590 N   0  0  0  0  0  0  0  0  0  0  0  0
   33.0590   27.7760   46.1690 H   0  0  0  0  0  0  0  0  0  0  0  0
   34.4460   28.7570   44.4150 H   0  0  0  0  0  0  0  0  0  0  0  0
   35.1140   30.2960   49.4630 C   0  0  0  0  0  0  0  0  0  0  0  0
   34.8360   31.3690   49.4840 H   0  0  0  0  0  0  0  0  0  0  0  0
   34.5300   29.6890   50.1520 H   0  0  0  0  0  0  0  0  0  0  0  0
   36.6150   30.1490   49.6960 C   0  0  0  0  0  0  0  0  0  0  0  0
   36.7300   29.8920   50.7800 H   0  0  0  0  0  0  0  0  0  0  0  0
   37.0190   29.3090   49.0790 H   0  0  0  0  0  0  0  0  0  0  0  0
   37.3220   31.4230   49.4540 C   0  0  0  0  0  0  0  0  0  0  0  0
   37.3140   32.7410   49.8570 C   0  0  0  0  0  0  0  0  0  0  0  0
   36.5940   33.0320   50.5860 H   0  0  0  0  0  0  0  0  0  0  0  0
   38.3080   33.4250   49.1890 C   0  0  0  0  0  0  0  0  0  0  0  0
   38.5100   34.4780   49.3270 H   0  0  0  0  0  0  0  0  0  0  0  0
   38.8800   32.4630   48.3990 C   0  0  0  0  0  0  0  0  0  0  0  0
   39.7210   32.7090   47.7350 H   0  0  0  0  0  0  0  0  0  0  0  0
   38.2860   31.2940   48.5710 O   0  0  0  0  0  0  0  0  0  0  0  0
  1  4  1  6  0  0  0
  1  3  1  0  0  0  0
  1  2  1  0  0  0  0
  1 27  1  0  0  0  0
  2  5  1  0  0  0  0
  3  2  1  0  0  0  0
  3  7  1  1  0  0  0
  6  2  1  0  0  0  0
  8  3  1  0  0  0  0
  9  8  1  0  0  0  0
  9 18  1  0  0  0  0
 10  9  2  0  0  0  0
 11 12  2  0  0  0  0
 11 10  1  0  0  0  0
 12 17  1  0  0  0  0
 13 14  2  0  0  0  0
 13 12  1  0  0  0  0
 14 15  1  0  0  0  0
 15 23  1  0  0  0  0
 15 16  2  0  0  0  0
 16 24  1  0  0  0  0
 17 16  1  0  0  0  0
 17  8  2  0  0  0  0
 19 10  1  0  0  0  0
 20 11  1  0  0  0  0
 21 13  1  0  0  0  0
 22 14  1  0  0  0  0
 25 30  1  0  0  0  0
 26 27  1  0  0  0  0
 26 25  2  0  0  0  0
 27 28  2  0  0  0  0
 28 29  1  0  0  0  0
 29 33  1  0  0  0  0
 30 29  2  0  0  0  0
 31 25  1  0  0  0  0
 32 26  1  0  0  0  0
 33 34  1  0  0  0  0
 33 36  1  0  0  0  0
 33 35  1  0  0  0  0
 36 37  1  0  0  0  0
 38 36  1  0  0  0  0
 39 36  1  0  0  0  0
 39 40  2  0  0  0  0
 40 41  1  0  0  0  0
 42 43  1  0  0  0  0
 42 40  1  0  0  0  0
 44 46  1  0  0  0  0
 44 42  2  0  0  0  0
 45 44  1  0  0  0  0
 46 39  1  0  0  0  0
M  END
>  <minimizedAffinity>
-5.86088133

>  <minimizedRMSD>
2.60165715

$$$$
