
 OpenBabel03272507553D

 22 23  0  0  0  0  0  0  0  0999 V2000
   35.0850   29.3590   50.4920 C   0  0  0  0  0  0  0  0  0  0  0  0
   36.1400   29.9660   49.7570 C   0  0  0  0  0  0  0  0  0  0  0  0
   36.0760   29.9240   48.3720 C   0  0  0  0  0  0  0  0  0  0  0  0
   35.0080   29.3060   47.7910 N   0  0  0  0  0  0  0  0  0  0  0  0
   34.0230   28.7380   48.5140 C   0  0  0  0  0  0  0  0  0  0  0  0
   34.0590   28.7640   49.8690 N   0  0  0  0  0  0  0  0  0  0  0  0
   33.0220   28.1570   47.6840 N   0  0  0  0  0  0  0  0  0  0  0  0
   35.1320   29.3900   51.5510 H   0  0  0  0  0  0  0  0  0  0  0  0
   32.5900   28.7050   46.9220 H   0  0  0  0  0  0  0  0  0  0  0  0
   32.8250   27.1680   47.9650 H   0  0  0  0  0  0  0  0  0  0  0  0
   37.1260   30.5020   47.5520 C   0  0  0  0  0  0  0  0  0  0  0  0
   36.9020   31.0570   46.3100 C   0  0  0  0  0  0  0  0  0  0  0  0
   35.9300   31.1250   45.8070 H   0  0  0  0  0  0  0  0  0  0  0  0
   38.0630   31.5350   45.7430 C   0  0  0  0  0  0  0  0  0  0  0  0
   38.2510   32.0210   44.7970 H   0  0  0  0  0  0  0  0  0  0  0  0
   38.9970   31.2370   46.7110 C   0  0  0  0  0  0  0  0  0  0  0  0
   40.0670   31.4230   46.7190 H   0  0  0  0  0  0  0  0  0  0  0  0
   38.4080   30.6600   47.6990 O   0  0  0  0  0  0  0  0  0  0  0  0
   37.2610   30.6140   50.4990 C   0  0  0  0  0  0  0  0  0  0  0  0
   38.4690   30.0430   50.1580 F   0  0  0  0  0  0  0  0  0  0  0  0
   37.2740   31.9420   50.1890 F   0  0  0  0  0  0  0  0  0  0  0  0
   37.1170   30.4930   51.8700 F   0  0  0  0  0  0  0  0  0  0  0  0
  1  8  1  0  0  0  0
  2  1  2  0  0  0  0
  2 19  1  0  0  0  0
  3  2  1  0  0  0  0
  4  3  2  0  0  0  0
  4  5  1  0  0  0  0
  5  6  2  0  0  0  0
  6  1  1  0  0  0  0
  7 10  1  0  0  0  0
  7  5  1  0  0  0  0
  9  7  1  0  0  0  0
 11 18  1  0  0  0  0
 11  3  1  0  0  0  0
 12 11  2  0  0  0  0
 13 12  1  0  0  0  0
 14 12  1  0  0  0  0
 14 16  2  0  0  0  0
 15 14  1  0  0  0  0
 16 17  1  0  0  0  0
 16 18  1  0  0  0  0
 19 22  1  0  0  0  0
 20 19  1  0  0  0  0
 21 19  1  0  0  0  0
M  END
>  <minimizedAffinity>
-5.15545797

>  <minimizedRMSD>
1.19691062

$$$$
