
 OpenBabel03272504413D

 44 46  0  0  0  0  0  0  0  0999 V2000
   34.8570   29.4430   48.8650 C   0  0  0  0  0  0  0  0  0  0  0  0
   34.1780   30.2550   49.2640 H   0  0  0  0  0  0  0  0  0  0  0  0
   35.7540   29.5150   49.5120 H   0  0  0  0  0  0  0  0  0  0  0  0
   37.6260   30.4790   48.5170 Cl  0  0  0  0  0  0  0  0  0  0  0  0
   36.4570   30.3160   47.1960 C   0  0  0  0  0  0  0  0  0  0  0  0
   36.8250   30.6780   45.9490 C   0  0  0  0  0  0  0  0  0  0  0  0
   35.9290   30.5570   44.9130 C   0  0  0  0  0  0  0  0  0  0  0  0
   34.6630   30.0630   45.1880 C   0  0  0  0  0  0  0  0  0  0  0  0
   34.3490   29.7070   46.5040 C   0  0  0  0  0  0  0  0  0  0  0  0
   35.2200   29.8210   47.5280 C   0  0  0  0  0  0  0  0  0  0  0  0
   36.2530   30.8560   43.9100 H   0  0  0  0  0  0  0  0  0  0  0  0
   34.0370   30.0060   44.3080 H   0  0  0  0  0  0  0  0  0  0  0  0
   33.3450   29.3670   46.4800 H   0  0  0  0  0  0  0  0  0  0  0  0
   39.8080   32.8490   45.9510 C   0  0  0  0  0  0  0  0  0  0  0  0
   40.6710   32.1090   45.0710 C   0  0  0  0  0  0  0  0  0  0  0  0
   40.1900   30.9150   44.5280 C   0  0  0  0  0  0  0  0  0  0  0  0
   38.9380   30.4920   44.8430 N   0  0  0  0  0  0  0  0  0  0  0  0
   38.1490   31.2110   45.6750 C   0  0  0  0  0  0  0  0  0  0  0  0
   38.5900   32.3630   46.2090 N   0  0  0  0  0  0  0  0  0  0  0  0
   40.1880   33.7580   46.3570 H   0  0  0  0  0  0  0  0  0  0  0  0
   41.6410   32.4850   44.8580 H   0  0  0  0  0  0  0  0  0  0  0  0
   41.0570   30.2150   43.6660 N   0  0  0  0  0  0  0  0  0  0  0  0
   41.6940   30.7340   43.0160 H   0  0  0  0  0  0  0  0  0  0  0  0
   41.1360   29.1890   43.6010 H   0  0  0  0  0  0  0  0  0  0  0  0
   34.2210   28.1420   49.1080 C   0  0  0  0  0  0  0  0  0  0  0  0
   34.6650   27.5810   49.9530 H   0  0  0  0  0  0  0  0  0  0  0  0
   34.3640   27.4930   48.2040 H   0  0  0  0  0  0  0  0  0  0  0  0
   32.8810   28.2700   49.3650 O   0  0  0  0  0  0  0  0  0  0  0  0
   32.8280   26.5710   47.3640 O   0  0  0  0  0  0  0  0  0  0  0  0
   31.9720   27.4230   48.2510 P   0  0  2  0  0  0  0  0  0  0  0  0
   31.1320   28.5950   47.3040 O   0  0  0  0  0  0  0  0  0  0  0  0
   30.7190   28.3130   46.0220 C   0  0  0  0  0  0  0  0  0  0  0  0
   29.8350   27.3460   45.5800 C   0  0  0  0  0  0  0  0  0  0  0  0
   29.3120   26.6370   46.1760 H   0  0  0  0  0  0  0  0  0  0  0  0
   29.7690   27.4870   44.2060 C   0  0  0  0  0  0  0  0  0  0  0  0
   29.1660   26.8870   43.5330 H   0  0  0  0  0  0  0  0  0  0  0  0
   30.6070   28.5220   43.8830 C   0  0  0  0  0  0  0  0  0  0  0  0
   30.8140   28.9220   42.8900 H   0  0  0  0  0  0  0  0  0  0  0  0
   31.1480   28.9820   44.9860 O   0  0  0  0  0  0  0  0  0  0  0  0
   30.7970   26.4790   48.9520 O   0  0  0  0  0  0  0  0  0  0  0  0
   29.9000   27.2590   49.6610 C   0  0  0  0  0  0  0  0  0  0  0  0
   29.3290   26.5790   50.7380 F   0  0  0  0  0  0  0  0  0  0  0  0
   30.5150   28.3640   50.2070 F   0  0  0  0  0  0  0  0  0  0  0  0
   28.8690   27.6680   48.8210 F   0  0  0  0  0  0  0  0  0  0  0  0
  1 25  1  0  0  0  0
  1  2  1  0  0  0  0
  1  3  1  0  0  0  0
  5 10  1  0  0  0  0
  5  4  1  0  0  0  0
  6  5  2  0  0  0  0
  7  8  2  0  0  0  0
  7  6  1  0  0  0  0
  8  9  1  0  0  0  0
  9 10  2  0  0  0  0
 10  1  1  0  0  0  0
 11  7  1  0  0  0  0
 12  8  1  0  0  0  0
 13  9  1  0  0  0  0
 14 19  1  0  0  0  0
 14 20  1  0  0  0  0
 15 14  2  0  0  0  0
 16 17  2  0  0  0  0
 16 15  1  0  0  0  0
 17 18  1  0  0  0  0
 18  6  1  0  0  0  0
 18 19  2  0  0  0  0
 21 15  1  0  0  0  0
 22 16  1  0  0  0  0
 23 22  1  0  0  0  0
 24 22  1  0  0  0  0
 25 28  1  0  0  0  0
 25 26  1  0  0  0  0
 27 25  1  0  0  0  0
 30 29  2  6  0  0  0
 30 40  1  0  0  0  0
 30 28  1  0  0  0  0
 31 30  1  0  0  0  0
 32 31  1  0  0  0  0
 33 32  2  0  0  0  0
 33 34  1  0  0  0  0
 35 33  1  0  0  0  0
 36 35  1  0  0  0  0
 37 35  2  0  0  0  0
 37 39  1  0  0  0  0
 38 37  1  0  0  0  0
 39 32  1  0  0  0  0
 40 41  1  0  0  0  0
 41 43  1  0  0  0  0
 41 42  1  0  0  0  0
 44 41  1  0  0  0  0
M  END
>  <minimizedAffinity>
-5.62234688

>  <minimizedRMSD>
0.218462586

$$$$
