
 OpenBabel03262522013D

 19 20  0  0  0  0  0  0  0  0999 V2000
   37.3690   27.3210   32.5240 C   0  0  0  0  0  0  0  0  0  0  0  0
   37.3220   28.4270   31.9380 O   0  0  0  0  0  0  0  0  0  0  0  0
   36.6910   26.1340   32.0450 C   0  0  0  0  0  0  0  0  0  0  0  0
   35.5580   26.3290   31.2600 C   0  0  0  0  0  0  0  0  0  0  0  0
   34.8800   25.2060   30.7810 C   0  0  0  0  0  0  0  0  0  0  0  0
   35.3790   23.9730   31.1190 N   0  0  0  0  0  0  0  0  0  0  0  0
   36.4730   23.8140   31.8780 C   0  0  0  0  0  0  0  0  0  0  0  0
   37.1250   24.8950   32.3370 N   0  0  0  0  0  0  0  0  0  0  0  0
   35.1290   27.2610   30.9690 H   0  0  0  0  0  0  0  0  0  0  0  0
   34.0020   25.2670   30.1730 H   0  0  0  0  0  0  0  0  0  0  0  0
   36.8500   22.8290   32.1320 H   0  0  0  0  0  0  0  0  0  0  0  0
   38.1360   27.2080   33.7450 C   0  0  0  0  0  0  0  0  0  0  0  0
   37.5830   27.4000   34.9810 C   0  0  0  0  0  0  0  0  0  0  0  0
   36.6040   27.6460   35.3530 H   0  0  0  0  0  0  0  0  0  0  0  0
   38.5930   27.2150   35.9280 C   0  0  0  0  0  0  0  0  0  0  0  0
   38.7180   27.2410   37.0000 H   0  0  0  0  0  0  0  0  0  0  0  0
   39.7330   26.9120   35.1890 C   0  0  0  0  0  0  0  0  0  0  0  0
   40.7800   26.6770   35.3350 H   0  0  0  0  0  0  0  0  0  0  0  0
   39.4050   26.9220   33.9180 O   0  0  0  0  0  0  0  0  0  0  0  0
  1 12  1  0  0  0  0
  2  1  2  0  0  0  0
  3  8  1  0  0  0  0
  3  1  1  0  0  0  0
  4  3  2  0  0  0  0
  5  6  2  0  0  0  0
  5  4  1  0  0  0  0
  6  7  1  0  0  0  0
  7 11  1  0  0  0  0
  7  8  2  0  0  0  0
  9  4  1  0  0  0  0
 10  5  1  0  0  0  0
 12 19  1  0  0  0  0
 12 13  2  0  0  0  0
 13 14  1  0  0  0  0
 13 15  1  0  0  0  0
 15 16  1  0  0  0  0
 17 18  1  0  0  0  0
 17 15  2  0  0  0  0
 19 17  1  0  0  0  0
M  END
>  <minimizedAffinity>
-3.89653397

$$$$

 OpenBabel03262522013D

 19 20  0  0  0  0  0  0  0  0999 V2000
   38.2030   24.2540   36.7460 C   0  0  0  0  0  0  0  0  0  0  0  0
   37.3380   23.9450   37.5950 O   0  0  0  0  0  0  0  0  0  0  0  0
   39.3980   23.4730   36.5010 C   0  0  0  0  0  0  0  0  0  0  0  0
   39.9010   22.7380   37.5720 C   0  0  0  0  0  0  0  0  0  0  0  0
   41.0520   21.9730   37.3720 C   0  0  0  0  0  0  0  0  0  0  0  0
   41.6170   21.9960   36.1220 N   0  0  0  0  0  0  0  0  0  0  0  0
   41.1130   22.7130   35.1080 C   0  0  0  0  0  0  0  0  0  0  0  0
   40.0060   23.4480   35.3010 N   0  0  0  0  0  0  0  0  0  0  0  0
   39.5020   22.6850   38.5600 H   0  0  0  0  0  0  0  0  0  0  0  0
   41.5020   21.3820   38.1410 H   0  0  0  0  0  0  0  0  0  0  0  0
   41.5770   22.7160   34.1270 H   0  0  0  0  0  0  0  0  0  0  0  0
   38.0150   25.4520   35.9580 C   0  0  0  0  0  0  0  0  0  0  0  0
   38.4170   26.6870   36.3890 C   0  0  0  0  0  0  0  0  0  0  0  0
   38.8990   27.0700   37.2710 H   0  0  0  0  0  0  0  0  0  0  0  0
   38.0860   27.6100   35.3950 C   0  0  0  0  0  0  0  0  0  0  0  0
   38.1650   28.6700   35.2100 H   0  0  0  0  0  0  0  0  0  0  0  0
   37.4860   26.8590   34.3880 C   0  0  0  0  0  0  0  0  0  0  0  0
   37.0380   26.9870   33.4100 H   0  0  0  0  0  0  0  0  0  0  0  0
   37.4720   25.6040   34.7730 O   0  0  0  0  0  0  0  0  0  0  0  0
  1  2  2  0  0  0  0
  3  1  1  0  0  0  0
  3  4  1  0  0  0  0
  4  9  1  0  0  0  0
  5  4  2  0  0  0  0
  5 10  1  0  0  0  0
  6  5  1  0  0  0  0
  7  8  1  0  0  0  0
  7  6  2  0  0  0  0
  8  3  2  0  0  0  0
 11  7  1  0  0  0  0
 12 13  2  0  0  0  0
 12  1  1  0  0  0  0
 13 14  1  0  0  0  0
 15 13  1  0  0  0  0
 16 15  1  0  0  0  0
 17 19  1  0  0  0  0
 17 15  2  0  0  0  0
 18 17  1  0  0  0  0
 19 12  1  0  0  0  0
M  END
>  <minimizedAffinity>
-3.86647224

$$$$

 OpenBabel03262522013D

 19 20  0  0  0  0  0  0  0  0999 V2000
   38.3080   24.0560   36.6170 C   0  0  0  0  0  0  0  0  0  0  0  0
   37.4210   23.6440   37.3970 O   0  0  0  0  0  0  0  0  0  0  0  0
   38.1270   25.1820   35.7250 C   0  0  0  0  0  0  0  0  0  0  0  0
   38.3010   26.4520   36.2690 C   0  0  0  0  0  0  0  0  0  0  0  0
   38.1340   27.5610   35.4370 C   0  0  0  0  0  0  0  0  0  0  0  0
   37.8050   27.3250   34.1260 N   0  0  0  0  0  0  0  0  0  0  0  0
   37.6440   26.0910   33.6270 C   0  0  0  0  0  0  0  0  0  0  0  0
   37.8060   25.0250   34.4280 N   0  0  0  0  0  0  0  0  0  0  0  0
   38.5550   26.6910   37.2770 H   0  0  0  0  0  0  0  0  0  0  0  0
   38.2480   28.5690   35.7750 H   0  0  0  0  0  0  0  0  0  0  0  0
   37.3840   25.9280   32.5860 H   0  0  0  0  0  0  0  0  0  0  0  0
   39.5880   23.3830   36.5930 C   0  0  0  0  0  0  0  0  0  0  0  0
   40.0240   22.5950   37.6220 C   0  0  0  0  0  0  0  0  0  0  0  0
   39.6290   22.2940   38.5760 H   0  0  0  0  0  0  0  0  0  0  0  0
   41.2850   22.1060   37.2750 C   0  0  0  0  0  0  0  0  0  0  0  0
   42.0540   21.4710   37.6880 H   0  0  0  0  0  0  0  0  0  0  0  0
   41.5480   22.6410   36.0170 C   0  0  0  0  0  0  0  0  0  0  0  0
   42.3190   22.6360   35.2560 H   0  0  0  0  0  0  0  0  0  0  0  0
   40.5200   23.3790   35.6690 O   0  0  0  0  0  0  0  0  0  0  0  0
  1  2  2  0  0  0  0
  3  4  1  0  0  0  0
  3  1  1  0  0  0  0
  4  9  1  0  0  0  0
  5 10  1  0  0  0  0
  5  4  2  0  0  0  0
  6  5  1  0  0  0  0
  7  6  2  0  0  0  0
  7  8  1  0  0  0  0
  8  3  2  0  0  0  0
 11  7  1  0  0  0  0
 12  1  1  0  0  0  0
 12 13  2  0  0  0  0
 13 14  1  0  0  0  0
 15 13  1  0  0  0  0
 15 16  1  0  0  0  0
 17 15  2  0  0  0  0
 18 17  1  0  0  0  0
 19 17  1  0  0  0  0
 19 12  1  0  0  0  0
M  END
>  <minimizedAffinity>
-3.73222852

$$$$

 OpenBabel03262522013D

 19 20  0  0  0  0  0  0  0  0999 V2000
   37.7310   27.1360   31.7950 C   0  0  0  0  0  0  0  0  0  0  0  0
   38.1510   27.9010   30.8980 O   0  0  0  0  0  0  0  0  0  0  0  0
   38.2310   27.1490   33.1540 C   0  0  0  0  0  0  0  0  0  0  0  0
   37.3240   27.4870   34.1560 C   0  0  0  0  0  0  0  0  0  0  0  0
   37.7720   27.5090   35.4790 C   0  0  0  0  0  0  0  0  0  0  0  0
   39.0880   27.1950   35.7060 N   0  0  0  0  0  0  0  0  0  0  0  0
   39.9410   26.8730   34.7230 C   0  0  0  0  0  0  0  0  0  0  0  0
   39.5080   26.8510   33.4520 N   0  0  0  0  0  0  0  0  0  0  0  0
   36.2950   27.7380   34.0350 H   0  0  0  0  0  0  0  0  0  0  0  0
   37.1420   27.7580   36.3060 H   0  0  0  0  0  0  0  0  0  0  0  0
   40.9780   26.6280   34.9270 H   0  0  0  0  0  0  0  0  0  0  0  0
   36.6920   26.1830   31.4740 C   0  0  0  0  0  0  0  0  0  0  0  0
   36.8630   24.8330   31.6130 C   0  0  0  0  0  0  0  0  0  0  0  0
   37.6630   24.1920   31.9390 H   0  0  0  0  0  0  0  0  0  0  0  0
   35.6750   24.2140   31.2190 C   0  0  0  0  0  0  0  0  0  0  0  0
   35.2660   23.2190   31.1280 H   0  0  0  0  0  0  0  0  0  0  0  0
   34.8270   25.2560   30.8530 C   0  0  0  0  0  0  0  0  0  0  0  0
   33.8230   25.4190   30.4810 H   0  0  0  0  0  0  0  0  0  0  0  0
   35.4760   26.3840   31.0230 O   0  0  0  0  0  0  0  0  0  0  0  0
  1  3  1  0  0  0  0
  2  1  2  0  0  0  0
  3  8  2  0  0  0  0
  3  4  1  0  0  0  0
  4  5  2  0  0  0  0
  5  6  1  0  0  0  0
  5 10  1  0  0  0  0
  7 11  1  0  0  0  0
  7  6  2  0  0  0  0
  8  7  1  0  0  0  0
  9  4  1  0  0  0  0
 12 13  2  0  0  0  0
 12  1  1  0  0  0  0
 13 14  1  0  0  0  0
 15 13  1  0  0  0  0
 16 15  1  0  0  0  0
 17 19  1  0  0  0  0
 17 15  2  0  0  0  0
 18 17  1  0  0  0  0
 19 12  1  0  0  0  0
M  END
>  <minimizedAffinity>
-3.71319747

$$$$

 OpenBabel03262522013D

 19 20  0  0  0  0  0  0  0  0999 V2000
   38.7580   22.7290   35.9160 C   0  0  0  0  0  0  0  0  0  0  0  0
   39.6840   22.1770   36.5520 O   0  0  0  0  0  0  0  0  0  0  0  0
   37.6450   22.0050   35.3370 C   0  0  0  0  0  0  0  0  0  0  0  0
   37.6460   21.8500   33.9530 C   0  0  0  0  0  0  0  0  0  0  0  0
   36.5870   21.1570   33.3620 C   0  0  0  0  0  0  0  0  0  0  0  0
   35.6080   20.6700   34.1900 N   0  0  0  0  0  0  0  0  0  0  0  0
   35.6320   20.8330   35.5200 C   0  0  0  0  0  0  0  0  0  0  0  0
   36.6500   21.4990   36.0880 N   0  0  0  0  0  0  0  0  0  0  0  0
   38.3790   22.2070   33.2660 H   0  0  0  0  0  0  0  0  0  0  0  0
   36.5110   20.9940   32.3070 H   0  0  0  0  0  0  0  0  0  0  0  0
   34.8460   20.4390   36.1560 H   0  0  0  0  0  0  0  0  0  0  0  0
   38.7850   24.1640   35.7430 C   0  0  0  0  0  0  0  0  0  0  0  0
   38.0870   25.0160   36.5530 C   0  0  0  0  0  0  0  0  0  0  0  0
   37.4330   24.9040   37.3990 H   0  0  0  0  0  0  0  0  0  0  0  0
   38.3350   26.3170   36.1110 C   0  0  0  0  0  0  0  0  0  0  0  0
   38.0600   27.3300   36.3650 H   0  0  0  0  0  0  0  0  0  0  0  0
   39.1960   26.1740   35.0260 C   0  0  0  0  0  0  0  0  0  0  0  0
   39.7220   26.7780   34.2960 H   0  0  0  0  0  0  0  0  0  0  0  0
   39.4240   24.8930   34.8580 O   0  0  0  0  0  0  0  0  0  0  0  0
  1  2  2  0  0  0  0
  3  1  1  0  0  0  0
  3  8  1  0  0  0  0
  4  3  2  0  0  0  0
  5  4  1  0  0  0  0
  5  6  2  0  0  0  0
  6  7  1  0  0  0  0
  7  8  2  0  0  0  0
  7 11  1  0  0  0  0
  9  4  1  0  0  0  0
 10  5  1  0  0  0  0
 12  1  1  0  0  0  0
 12 13  2  0  0  0  0
 13 14  1  0  0  0  0
 15 16  1  0  0  0  0
 15 13  1  0  0  0  0
 17 15  2  0  0  0  0
 18 17  1  0  0  0  0
 19 17  1  0  0  0  0
 19 12  1  0  0  0  0
M  END
>  <minimizedAffinity>
-3.68873072

$$$$

 OpenBabel03262522013D

 19 20  0  0  0  0  0  0  0  0999 V2000
   38.8500   26.3900   34.9250 C   0  0  0  0  0  0  0  0  0  0  0  0
   39.9480   26.9070   35.2290 O   0  0  0  0  0  0  0  0  0  0  0  0
   38.4510   25.0610   35.3370 C   0  0  0  0  0  0  0  0  0  0  0  0
   38.0870   24.8970   36.6720 C   0  0  0  0  0  0  0  0  0  0  0  0
   37.6970   23.6280   37.1040 C   0  0  0  0  0  0  0  0  0  0  0  0
   37.6990   22.6160   36.1770 N   0  0  0  0  0  0  0  0  0  0  0  0
   38.0540   22.8000   34.8980 C   0  0  0  0  0  0  0  0  0  0  0  0
   38.4280   24.0220   34.4830 N   0  0  0  0  0  0  0  0  0  0  0  0
   38.0680   25.6470   37.4300 H   0  0  0  0  0  0  0  0  0  0  0  0
   37.4040   23.4170   38.1100 H   0  0  0  0  0  0  0  0  0  0  0  0
   38.0480   21.9850   34.1820 H   0  0  0  0  0  0  0  0  0  0  0  0
   37.9180   27.1480   34.1190 C   0  0  0  0  0  0  0  0  0  0  0  0
   36.8700   27.8400   34.6620 C   0  0  0  0  0  0  0  0  0  0  0  0
   36.4910   28.0000   35.6560 H   0  0  0  0  0  0  0  0  0  0  0  0
   36.1800   28.4520   33.6140 C   0  0  0  0  0  0  0  0  0  0  0  0
   35.3190   29.0860   33.4670 H   0  0  0  0  0  0  0  0  0  0  0  0
   36.8710   28.0860   32.4620 C   0  0  0  0  0  0  0  0  0  0  0  0
   36.8340   28.2320   31.3890 H   0  0  0  0  0  0  0  0  0  0  0  0
   37.8770   27.3240   32.8190 O   0  0  0  0  0  0  0  0  0  0  0  0
  1  2  2  0  0  0  0
  1  3  1  0  0  0  0
  3  4  1  0  0  0  0
  4  5  2  0  0  0  0
  4  9  1  0  0  0  0
  5 10  1  0  0  0  0
  6  5  1  0  0  0  0
  7  6  2  0  0  0  0
  8  7  1  0  0  0  0
  8  3  2  0  0  0  0
 11  7  1  0  0  0  0
 12 13  2  0  0  0  0
 12  1  1  0  0  0  0
 13 14  1  0  0  0  0
 15 13  1  0  0  0  0
 16 15  1  0  0  0  0
 17 19  1  0  0  0  0
 17 15  2  0  0  0  0
 18 17  1  0  0  0  0
 19 12  1  0  0  0  0
M  END
>  <minimizedAffinity>
-3.68204427

$$$$

 OpenBabel03262522013D

 19 20  0  0  0  0  0  0  0  0999 V2000
   38.6230   26.1390   35.2800 C   0  0  0  0  0  0  0  0  0  0  0  0
   39.2740   27.1340   35.6700 O   0  0  0  0  0  0  0  0  0  0  0  0
   37.8060   26.1380   34.0840 C   0  0  0  0  0  0  0  0  0  0  0  0
   37.2380   27.3520   33.7070 C   0  0  0  0  0  0  0  0  0  0  0  0
   36.4440   27.3870   32.5580 C   0  0  0  0  0  0  0  0  0  0  0  0
   36.2740   26.2110   31.8710 N   0  0  0  0  0  0  0  0  0  0  0  0
   36.8320   25.0550   32.2570 C   0  0  0  0  0  0  0  0  0  0  0  0
   37.5950   25.0230   33.3610 N   0  0  0  0  0  0  0  0  0  0  0  0
   37.3390   28.2910   34.2030 H   0  0  0  0  0  0  0  0  0  0  0  0
   35.9720   28.2770   32.2000 H   0  0  0  0  0  0  0  0  0  0  0  0
   36.6830   24.1370   31.6970 H   0  0  0  0  0  0  0  0  0  0  0  0
   38.6800   24.9180   36.0530 C   0  0  0  0  0  0  0  0  0  0  0  0
   37.7740   24.6260   37.0350 C   0  0  0  0  0  0  0  0  0  0  0  0
   36.9120   25.1170   37.4520 H   0  0  0  0  0  0  0  0  0  0  0  0
   38.1190   23.3840   37.5720 C   0  0  0  0  0  0  0  0  0  0  0  0
   37.7710   22.7010   38.3320 H   0  0  0  0  0  0  0  0  0  0  0  0
   39.2470   22.9830   36.8620 C   0  0  0  0  0  0  0  0  0  0  0  0
   39.9470   22.1570   36.8110 H   0  0  0  0  0  0  0  0  0  0  0  0
   39.5290   23.9200   35.9870 O   0  0  0  0  0  0  0  0  0  0  0  0
  1  2  2  0  0  0  0
  1 12  1  0  0  0  0
  3  1  1  0  0  0  0
  4  3  1  0  0  0  0
  4  9  1  0  0  0  0
  5  4  2  0  0  0  0
  6  7  2  0  0  0  0
  6  5  1  0  0  0  0
  7  8  1  0  0  0  0
  8  3  2  0  0  0  0
 10  5  1  0  0  0  0
 11  7  1  0  0  0  0
 12 13  2  0  0  0  0
 13 14  1  0  0  0  0
 13 15  1  0  0  0  0
 15 16  1  0  0  0  0
 17 15  2  0  0  0  0
 18 17  1  0  0  0  0
 19 12  1  0  0  0  0
 19 17  1  0  0  0  0
M  END
>  <minimizedAffinity>
-3.65878344

$$$$

 OpenBabel03262522013D

 19 20  0  0  0  0  0  0  0  0999 V2000
   37.1010   22.8330   32.5840 C   0  0  0  0  0  0  0  0  0  0  0  0
   38.1120   22.7180   33.3110 O   0  0  0  0  0  0  0  0  0  0  0  0
   36.5710   24.1080   32.1470 C   0  0  0  0  0  0  0  0  0  0  0  0
   35.5190   24.0740   31.2340 C   0  0  0  0  0  0  0  0  0  0  0  0
   34.9840   25.2860   30.7920 C   0  0  0  0  0  0  0  0  0  0  0  0
   35.5340   26.4400   31.2900 N   0  0  0  0  0  0  0  0  0  0  0  0
   36.5460   26.4440   32.1690 C   0  0  0  0  0  0  0  0  0  0  0  0
   37.0600   25.2790   32.5940 N   0  0  0  0  0  0  0  0  0  0  0  0
   35.0560   23.2090   30.8170 H   0  0  0  0  0  0  0  0  0  0  0  0
   34.1780   25.3490   30.0920 H   0  0  0  0  0  0  0  0  0  0  0  0
   36.9660   27.3700   32.5490 H   0  0  0  0  0  0  0  0  0  0  0  0
   36.4130   21.6380   32.1470 C   0  0  0  0  0  0  0  0  0  0  0  0
   35.3770   21.0870   32.8500 C   0  0  0  0  0  0  0  0  0  0  0  0
   34.8590   21.3240   33.7630 H   0  0  0  0  0  0  0  0  0  0  0  0
   34.9500   19.9540   32.1540 C   0  0  0  0  0  0  0  0  0  0  0  0
   34.2060   19.1770   32.2430 H   0  0  0  0  0  0  0  0  0  0  0  0
   35.7750   19.8830   31.0360 C   0  0  0  0  0  0  0  0  0  0  0  0
   35.9370   19.2660   30.1600 H   0  0  0  0  0  0  0  0  0  0  0  0
   36.6110   20.8930   31.0850 O   0  0  0  0  0  0  0  0  0  0  0  0
  1  2  2  0  0  0  0
  3  1  1  0  0  0  0
  3  8  1  0  0  0  0
  4  3  2  0  0  0  0
  5  4  1  0  0  0  0
  5  6  2  0  0  0  0
  6  7  1  0  0  0  0
  7 11  1  0  0  0  0
  7  8  2  0  0  0  0
  9  4  1  0  0  0  0
 10  5  1  0  0  0  0
 12  1  1  0  0  0  0
 12 13  2  0  0  0  0
 13 14  1  0  0  0  0
 15 16  1  0  0  0  0
 15 13  1  0  0  0  0
 17 19  1  0  0  0  0
 17 15  2  0  0  0  0
 18 17  1  0  0  0  0
 19 12  1  0  0  0  0
M  END
>  <minimizedAffinity>
-3.63127565

$$$$

 OpenBabel03262522013D

 19 20  0  0  0  0  0  0  0  0999 V2000
   38.1920   23.7930   34.6170 C   0  0  0  0  0  0  0  0  0  0  0  0
   37.9170   22.8390   33.8540 O   0  0  0  0  0  0  0  0  0  0  0  0
   38.5080   23.6280   36.0200 C   0  0  0  0  0  0  0  0  0  0  0  0
   37.6580   24.2470   36.9340 C   0  0  0  0  0  0  0  0  0  0  0  0
   37.9330   24.1080   38.2970 C   0  0  0  0  0  0  0  0  0  0  0  0
   39.0320   23.3660   38.6480 N   0  0  0  0  0  0  0  0  0  0  0  0
   39.8340   22.7810   37.7470 C   0  0  0  0  0  0  0  0  0  0  0  0
   39.5680   22.9140   36.4380 N   0  0  0  0  0  0  0  0  0  0  0  0
   36.7940   24.8320   36.7160 H   0  0  0  0  0  0  0  0  0  0  0  0
   37.3320   24.5510   39.0620 H   0  0  0  0  0  0  0  0  0  0  0  0
   40.6980   22.1990   38.0490 H   0  0  0  0  0  0  0  0  0  0  0  0
   38.1990   25.1370   34.0820 C   0  0  0  0  0  0  0  0  0  0  0  0
   39.3560   25.8190   33.8220 C   0  0  0  0  0  0  0  0  0  0  0  0
   40.4070   25.6080   33.9160 H   0  0  0  0  0  0  0  0  0  0  0  0
   39.0030   27.0730   33.3200 C   0  0  0  0  0  0  0  0  0  0  0  0
   39.4830   27.9730   32.9660 H   0  0  0  0  0  0  0  0  0  0  0  0
   37.6110   27.0780   33.3030 C   0  0  0  0  0  0  0  0  0  0  0  0
   36.7850   27.7270   33.0370 H   0  0  0  0  0  0  0  0  0  0  0  0
   37.1970   25.9200   33.7600 O   0  0  0  0  0  0  0  0  0  0  0  0
  1  3  1  0  0  0  0
  2  1  2  0  0  0  0
  3  8  2  0  0  0  0
  3  4  1  0  0  0  0
  4  5  2  0  0  0  0
  5  6  1  0  0  0  0
  5 10  1  0  0  0  0
  7 11  1  0  0  0  0
  7  6  2  0  0  0  0
  8  7  1  0  0  0  0
  9  4  1  0  0  0  0
 12  1  1  0  0  0  0
 13 14  1  0  0  0  0
 13 12  2  0  0  0  0
 15 13  1  0  0  0  0
 16 15  1  0  0  0  0
 17 15  2  0  0  0  0
 17 19  1  0  0  0  0
 18 17  1  0  0  0  0
 19 12  1  0  0  0  0
M  END
>  <minimizedAffinity>
-3.624856

$$$$
