
 OpenBabel03272508543D

 37 40  0  0  1  0  0  0  0  0999 V2000
   38.3840   31.8490   44.5490 C   0  0  0  0  0  0  0  0  0  0  0  0
   37.2620   32.4270   44.4320 O   0  0  0  0  0  0  0  0  0  0  0  0
   38.9270   31.5620   45.8420 N   0  0  0  0  0  0  0  0  0  0  0  0
   39.9050   31.2390   46.0090 H   0  0  0  0  0  0  0  0  0  0  0  0
   39.1530   31.4630   43.3570 C   0  0  0  0  0  0  0  0  0  0  0  0
   40.1200   30.5020   43.4950 C   0  0  0  0  0  0  0  0  0  0  0  0
   40.8470   30.1190   42.3850 C   0  0  0  0  0  0  0  0  0  0  0  0
   40.5550   30.7340   41.1860 C   0  0  0  0  0  0  0  0  0  0  0  0
   39.5810   31.7060   41.0370 C   0  0  0  0  0  0  0  0  0  0  0  0
   38.9270   32.0150   42.1580 N   0  0  0  0  0  0  0  0  0  0  0  0
   40.3860   29.9900   44.4110 H   0  0  0  0  0  0  0  0  0  0  0  0
   41.6220   29.3670   42.4280 H   0  0  0  0  0  0  0  0  0  0  0  0
   41.1320   30.4280   40.3200 H   0  0  0  0  0  0  0  0  0  0  0  0
   39.2900   32.3430   39.7600 C   0  0  0  0  0  0  0  0  0  0  0  0
   38.6380   33.5620   39.6490 C   0  0  0  0  0  0  0  0  0  0  0  0
   38.2760   34.1730   40.4570 H   0  0  0  0  0  0  0  0  0  0  0  0
   38.5900   33.7570   38.2650 C   0  0  0  0  0  0  0  0  0  0  0  0
   38.1440   34.6220   37.7910 H   0  0  0  0  0  0  0  0  0  0  0  0
   39.1920   32.6870   37.6350 C   0  0  0  0  0  0  0  0  0  0  0  0
   39.3300   32.5090   36.5760 H   0  0  0  0  0  0  0  0  0  0  0  0
   39.6040   31.8500   38.5660 O   0  0  0  0  0  0  0  0  0  0  0  0
   38.4270   31.1230   48.2400 C   0  0  2  0  0  0  0  0  0  0  0  0
   38.6870   32.5650   48.1300 C   0  0  0  0  0  0  0  0  0  0  0  0
   38.0490   31.7360   46.9880 C   0  0  1  0  0  0  0  0  0  0  0  0
   39.3490   30.5120   48.3260 H   0  0  0  0  0  0  0  0  0  0  0  0
   38.0640   33.3210   48.6350 H   0  0  0  0  0  0  0  0  0  0  0  0
   39.7230   32.9240   47.9730 H   0  0  0  0  0  0  0  0  0  0  0  0
   36.9930   32.0560   46.7790 H   0  0  0  0  0  0  0  0  0  0  0  0
   35.0870   30.1980   49.5450 C   0  0  0  0  0  0  0  0  0  0  0  0
   35.4130   29.5410   50.7750 C   0  0  0  0  0  0  0  0  0  0  0  0
   36.8120   29.4440   51.1250 C   0  0  0  0  0  0  0  0  0  0  0  0
   37.7520   29.9700   50.2880 N   0  0  0  0  0  0  0  0  0  0  0  0
   37.3520   30.5810   49.1310 C   0  0  0  0  0  0  0  0  0  0  0  0
   36.0370   30.7110   48.7320 N   0  0  0  0  0  0  0  0  0  0  0  0
   34.0360   30.2350   49.3480 H   0  0  0  0  0  0  0  0  0  0  0  0
   34.6530   29.1410   51.4090 H   0  0  0  0  0  0  0  0  0  0  0  0
   37.0600   28.9510   52.0490 H   0  0  0  0  0  0  0  0  0  0  0  0
  1  3  1  0  0  0  0
  2  1  2  0  0  0  0
  3  4  1  0  0  0  0
  3 24  1  0  0  0  0
  5  6  1  0  0  0  0
  5  1  1  0  0  0  0
  6 11  1  0  0  0  0
  7 12  1  0  0  0  0
  7  6  2  0  0  0  0
  8  7  1  0  0  0  0
  9  8  2  0  0  0  0
  9 10  1  0  0  0  0
 10  5  2  0  0  0  0
 13  8  1  0  0  0  0
 14  9  1  0  0  0  0
 15 14  2  0  0  0  0
 15 16  1  0  0  0  0
 17 15  1  0  0  0  0
 18 17  1  0  0  0  0
 19 17  2  0  0  0  0
 19 21  1  0  0  0  0
 20 19  1  0  0  0  0
 21 14  1  0  0  0  0
 22 25  1  6  0  0  0
 22 33  1  0  0  0  0
 23 22  1  0  0  0  0
 23 26  1  0  0  0  0
 24 28  1  6  0  0  0
 24 23  1  0  0  0  0
 24 22  1  0  0  0  0
 27 23  1  0  0  0  0
 29 30  1  0  0  0  0
 30 31  2  0  0  0  0
 30 36  1  0  0  0  0
 31 37  1  0  0  0  0
 32 31  1  0  0  0  0
 33 32  2  0  0  0  0
 34 33  1  0  0  0  0
 34 29  2  0  0  0  0
 35 29  1  0  0  0  0
M  END
>  <minimizedAffinity>
-5.15821743

>  <minimizedRMSD>
0.359201223

$$$$
