
 OpenBabel03272510263D

 44 48  0  0  1  0  0  0  0  0999 V2000
   32.0890   27.5650   41.6850 C   0  0  0  0  0  0  0  0  0  0  0  0
   32.5760   27.6790   42.9640 C   0  0  0  0  0  0  0  0  0  0  0  0
   33.5240   28.6630   43.2950 C   0  0  0  0  0  0  0  0  0  0  0  0
   33.9310   29.5030   42.2560 C   0  0  0  0  0  0  0  0  0  0  0  0
   34.8280   30.5310   42.3120 N   0  0  0  0  0  0  0  0  0  0  0  0
   34.8940   31.0470   41.0780 C   0  0  0  0  0  0  0  0  0  0  0  0
   34.0830   30.3820   40.2790 N   0  0  0  0  0  0  0  0  0  0  0  0
   33.4620   29.4110   40.9700 C   0  0  0  0  0  0  0  0  0  0  0  0
   32.5190   28.4150   40.6870 C   0  0  0  0  0  0  0  0  0  0  0  0
   31.3580   26.8020   41.4390 H   0  0  0  0  0  0  0  0  0  0  0  0
   33.9290   28.7810   44.2960 H   0  0  0  0  0  0  0  0  0  0  0  0
   35.3450   30.8340   43.1570 H   0  0  0  0  0  0  0  0  0  0  0  0
   32.1490   28.3440   39.6730 H   0  0  0  0  0  0  0  0  0  0  0  0
   32.0500   25.6510   46.0930 C   0  0  0  0  0  0  0  0  0  0  0  0
   32.6550   26.5650   45.2300 C   0  0  0  0  0  0  0  0  0  0  0  0
   32.1020   26.7760   43.9960 C   0  0  0  0  0  0  0  0  0  0  0  0
   30.9660   26.0550   43.6890 N   0  0  0  0  0  0  0  0  0  0  0  0
   30.3880   25.1760   44.5250 C   0  0  0  0  0  0  0  0  0  0  0  0
   30.9310   24.9820   45.7120 N   0  0  0  0  0  0  0  0  0  0  0  0
   32.5020   25.4990   47.0620 H   0  0  0  0  0  0  0  0  0  0  0  0
   33.5400   27.1330   45.4550 H   0  0  0  0  0  0  0  0  0  0  0  0
   29.4970   24.6500   44.2100 H   0  0  0  0  0  0  0  0  0  0  0  0
   35.7210   32.1280   40.7640 O   0  0  0  0  0  0  0  0  0  0  0  0
   36.4190   31.3280   38.7190 N   0  0  0  0  0  0  0  0  0  0  0  0
   36.8810   31.8050   40.0050 C   0  0  1  0  0  0  0  0  0  0  0  0
   37.7370   32.9700   39.8480 C   0  0  0  0  0  0  0  0  0  0  0  0
   38.8820   32.5940   39.1250 O   0  0  0  0  0  0  0  0  0  0  0  0
   38.6410   31.9940   37.9230 C   0  0  0  0  0  0  0  0  0  0  0  0
   37.6150   30.8920   38.0220 C   0  0  1  0  0  0  0  0  0  0  0  0
   35.9640   31.9700   38.0960 H   0  0  0  0  0  0  0  0  0  0  0  0
   37.4350   30.9650   40.4580 H   0  0  0  0  0  0  0  0  0  0  0  0
   38.1500   33.2310   40.8700 H   0  0  0  0  0  0  0  0  0  0  0  0
   37.4550   33.8830   39.3970 H   0  0  0  0  0  0  0  0  0  0  0  0
   39.5760   31.5640   37.5630 H   0  0  0  0  0  0  0  0  0  0  0  0
   38.2410   32.7640   37.2100 H   0  0  0  0  0  0  0  0  0  0  0  0
   37.3880   30.5650   36.9790 H   0  0  0  0  0  0  0  0  0  0  0  0
   38.2100   29.7860   38.8180 C   0  0  0  0  0  0  0  0  0  0  0  0
   37.4440   28.6360   39.0420 C   0  0  0  0  0  0  0  0  0  0  0  0
   36.4380   28.3960   38.7220 H   0  0  0  0  0  0  0  0  0  0  0  0
   38.2010   27.7550   39.7980 C   0  0  0  0  0  0  0  0  0  0  0  0
   37.8860   26.7770   40.1370 H   0  0  0  0  0  0  0  0  0  0  0  0
   39.3930   28.4230   39.9940 C   0  0  0  0  0  0  0  0  0  0  0  0
   40.2080   27.9870   40.5590 H   0  0  0  0  0  0  0  0  0  0  0  0
   39.3700   29.6080   39.4080 O   0  0  0  0  0  0  0  0  0  0  0  0
  1  2  1  0  0  0  0
  2  3  2  0  0  0  0
  2 16  1  0  0  0  0
  3 11  1  0  0  0  0
  4  5  1  0  0  0  0
  4  3  1  0  0  0  0
  5 12  1  0  0  0  0
  6  5  1  0  0  0  0
  7  8  1  0  0  0  0
  7  6  2  0  0  0  0
  8  4  2  0  0  0  0
  9  8  1  0  0  0  0
  9  1  2  0  0  0  0
 10  1  1  0  0  0  0
 13  9  1  0  0  0  0
 14 20  1  0  0  0  0
 15 21  1  0  0  0  0
 15 14  2  0  0  0  0
 16 15  1  0  0  0  0
 17 16  2  0  0  0  0
 17 18  1  0  0  0  0
 18 19  2  0  0  0  0
 19 14  1  0  0  0  0
 22 18  1  0  0  0  0
 23  6  1  0  0  0  0
 24 25  1  0  0  0  0
 25 31  1  1  0  0  0
 25 23  1  0  0  0  0
 26 25  1  0  0  0  0
 26 32  1  0  0  0  0
 27 26  1  0  0  0  0
 28 29  1  0  0  0  0
 28 27  1  0  0  0  0
 29 36  1  6  0  0  0
 29 24  1  0  0  0  0
 29 37  1  0  0  0  0
 30 24  1  0  0  0  0
 33 26  1  0  0  0  0
 34 28  1  0  0  0  0
 35 28  1  0  0  0  0
 37 38  2  0  0  0  0
 37 44  1  0  0  0  0
 38 40  1  0  0  0  0
 39 38  1  0  0  0  0
 40 42  2  0  0  0  0
 40 41  1  0  0  0  0
 42 43  1  0  0  0  0
 44 42  1  0  0  0  0
M  END
>  <minimizedAffinity>
-1.21656728

>  <minimizedRMSD>
6.12639523

$$$$
