
 OpenBabel03272505133D

 38 41  0  0  0  0  0  0  0  0999 V2000
   36.4190   30.8460   45.6200 Cl  0  0  0  0  0  0  0  0  0  0  0  0
   36.6740   30.7090   47.3340 C   0  0  0  0  0  0  0  0  0  0  0  0
   37.9090   31.0480   47.8270 C   0  0  0  0  0  0  0  0  0  0  0  0
   38.1150   30.9400   49.1910 C   0  0  0  0  0  0  0  0  0  0  0  0
   37.1060   30.5080   50.0060 C   0  0  0  0  0  0  0  0  0  0  0  0
   35.8800   30.1810   49.4420 C   0  0  0  0  0  0  0  0  0  0  0  0
   35.5990   30.2600   48.1040 C   0  0  0  0  0  0  0  0  0  0  0  0
   39.0980   31.2130   49.5590 H   0  0  0  0  0  0  0  0  0  0  0  0
   37.2530   30.4190   51.0720 H   0  0  0  0  0  0  0  0  0  0  0  0
   35.0930   29.8390   50.1100 H   0  0  0  0  0  0  0  0  0  0  0  0
   40.1840   33.3110   46.0880 C   0  0  0  0  0  0  0  0  0  0  0  0
   40.9220   32.4670   45.2200 C   0  0  0  0  0  0  0  0  0  0  0  0
   40.6140   31.1030   45.2510 C   0  0  0  0  0  0  0  0  0  0  0  0
   39.6370   30.6670   46.1020 N   0  0  0  0  0  0  0  0  0  0  0  0
   38.9700   31.5100   46.9020 C   0  0  0  0  0  0  0  0  0  0  0  0
   39.2440   32.8200   46.8930 N   0  0  0  0  0  0  0  0  0  0  0  0
   40.4010   34.3520   46.0830 H   0  0  0  0  0  0  0  0  0  0  0  0
   41.6760   32.8380   44.5710 H   0  0  0  0  0  0  0  0  0  0  0  0
   41.1220   30.3800   44.6270 H   0  0  0  0  0  0  0  0  0  0  0  0
   34.0370   29.8460   47.3720 S   0  0  0  0  0  0  0  0  0  0  0  0
   33.9650   28.9550   44.3640 Cl  0  0  0  0  0  0  0  0  0  0  0  0
   33.8990   27.7840   45.6480 C   0  0  0  0  0  0  0  0  0  0  0  0
   33.9240   28.0940   47.0070 C   0  0  0  0  0  0  0  0  0  0  0  0
   33.8640   27.0810   47.9450 C   0  0  0  0  0  0  0  0  0  0  0  0
   33.7790   25.7700   47.5460 C   0  0  0  0  0  0  0  0  0  0  0  0
   33.7510   25.4020   46.2100 C   0  0  0  0  0  0  0  0  0  0  0  0
   33.8140   26.4460   45.3010 C   0  0  0  0  0  0  0  0  0  0  0  0
   33.8880   27.4080   48.9790 H   0  0  0  0  0  0  0  0  0  0  0  0
   33.7340   25.0200   48.3260 H   0  0  0  0  0  0  0  0  0  0  0  0
   33.6860   24.3830   45.9030 H   0  0  0  0  0  0  0  0  0  0  0  0
   33.7860   26.0740   43.8820 C   0  0  0  0  0  0  0  0  0  0  0  0
   34.8010   25.7020   43.0640 C   0  0  0  0  0  0  0  0  0  0  0  0
   35.8410   25.6360   43.4180 H   0  0  0  0  0  0  0  0  0  0  0  0
   34.3740   25.4280   41.7820 C   0  0  0  0  0  0  0  0  0  0  0  0
   34.9400   25.1110   40.9160 H   0  0  0  0  0  0  0  0  0  0  0  0
   33.0090   25.6660   41.8930 C   0  0  0  0  0  0  0  0  0  0  0  0
   32.2720   25.5650   41.0820 H   0  0  0  0  0  0  0  0  0  0  0  0
   32.7220   26.0350   43.1160 O   0  0  0  0  0  0  0  0  0  0  0  0
  1  2  1  0  0  0  0
  2  3  2  0  0  0  0
  2  7  1  0  0  0  0
  3  4  1  0  0  0  0
  4  8  1  0  0  0  0
  4  5  2  0  0  0  0
  5  9  1  0  0  0  0
  6  5  1  0  0  0  0
  6 10  1  0  0  0  0
  7  6  2  0  0  0  0
 11 16  1  0  0  0  0
 12 13  1  0  0  0  0
 12 11  2  0  0  0  0
 13 14  2  0  0  0  0
 14 15  1  0  0  0  0
 15  3  1  0  0  0  0
 16 15  2  0  0  0  0
 17 11  1  0  0  0  0
 18 12  1  0  0  0  0
 19 13  1  0  0  0  0
 20  7  1  0  0  0  0
 21 22  1  0  0  0  0
 22 23  1  0  0  0  0
 23 20  1  0  0  0  0
 23 24  2  0  0  0  0
 24 28  1  0  0  0  0
 25 24  1  0  0  0  0
 25 29  1  0  0  0  0
 26 25  2  0  0  0  0
 27 22  2  0  0  0  0
 27 26  1  0  0  0  0
 30 26  1  0  0  0  0
 31 27  1  0  0  0  0
 32 33  1  0  0  0  0
 32 31  2  0  0  0  0
 34 36  2  0  0  0  0
 34 32  1  0  0  0  0
 35 34  1  0  0  0  0
 36 38  1  0  0  0  0
 37 36  1  0  0  0  0
 38 31  1  0  0  0  0
M  END
>  <minimizedAffinity>
-5.62768412

>  <minimizedRMSD>
0.388155013

$$$$
