
 OpenBabel03272501373D

 35 38  0  0  1  0  0  0  0  0999 V2000
   37.0560   27.0990   33.4310 C   0  0  2  0  0  3  0  0  0  0  0  0
   37.4330   26.3950   32.4160 O   0  0  0  0  0  1  0  0  0  0  0  0
   35.7120   30.2040   31.8690 C   0  0  0  0  0  0  0  0  0  0  0  0
   36.3070   28.9780   32.0610 C   0  0  0  0  0  0  0  0  0  0  0  0
   36.3930   28.3650   33.3280 C   0  0  0  0  0  0  0  0  0  0  0  0
   35.8710   29.0240   34.3310 N   0  0  0  0  0  0  0  0  0  0  0  0
   35.2760   30.2520   34.1240 C   0  0  0  0  0  0  0  0  0  0  0  0
   35.1920   30.8370   32.9320 N   0  0  0  0  0  0  0  0  0  0  0  0
   35.6540   30.6620   30.8990 H   0  0  0  0  0  0  0  0  0  0  0  0
   36.7340   28.4530   31.2070 H   0  0  0  0  0  0  0  0  0  0  0  0
   34.7260   30.8990   35.3120 C   0  0  0  0  0  0  0  0  0  0  0  0
   35.5760   31.7660   36.0060 C   0  0  0  0  0  0  0  0  0  0  0  0
   36.6010   32.0730   35.8460 H   0  0  0  0  0  0  0  0  0  0  0  0
   34.8480   32.2620   37.0920 C   0  0  0  0  0  0  0  0  0  0  0  0
   35.0660   32.9500   37.9010 H   0  0  0  0  0  0  0  0  0  0  0  0
   33.5920   31.6550   36.9770 C   0  0  0  0  0  0  0  0  0  0  0  0
   32.6800   31.7150   37.5720 H   0  0  0  0  0  0  0  0  0  0  0  0
   33.5670   30.8590   35.9120 O   0  0  0  0  0  0  0  0  0  0  0  0
   37.3340   26.5670   34.8170 C   0  0  2  0  0  0  0  0  0  0  0  0
   38.7660   27.1050   35.2500 C   0  0  0  0  0  0  0  0  0  0  0  0
   38.4040   25.6560   35.0460 C   0  0  1  0  0  0  0  0  0  0  0  0
   36.5860   26.8870   35.5720 H   0  0  0  0  0  0  0  0  0  0  0  0
   39.3780   27.5880   34.5020 H   0  0  0  0  0  0  0  0  0  0  0  0
   38.7890   27.4960   36.2860 H   0  0  0  0  0  0  0  0  0  0  0  0
   38.8840   25.1990   34.1220 H   0  0  0  0  0  0  0  0  0  0  0  0
   38.5770   24.7980   36.2200 C   0  0  0  0  0  0  0  0  0  0  0  0
   37.8180   25.0870   37.3480 C   0  0  0  0  0  0  0  0  0  0  0  0
   37.9880   24.2790   38.4420 C   0  0  0  0  0  0  0  0  0  0  0  0
   38.8750   23.2140   38.4460 C   0  0  0  0  0  0  0  0  0  0  0  0
   39.6060   22.9660   37.3070 C   0  0  0  0  0  0  0  0  0  0  0  0
   39.4450   23.7510   36.2330 N   0  0  0  0  0  0  0  0  0  0  0  0
   37.1050   25.9020   37.4150 H   0  0  0  0  0  0  0  0  0  0  0  0
   37.4500   24.4100   39.3730 H   0  0  0  0  0  0  0  0  0  0  0  0
   39.0690   22.5330   39.2600 H   0  0  0  0  0  0  0  0  0  0  0  0
   40.3430   22.1870   37.1180 H   0  0  0  0  0  0  0  0  0  0  0  0
  1  2  1  1  0  0  0
  1 19  1  0  0  0  0
  3  4  2  0  0  0  0
  3  8  1  0  0  0  0
  4  5  1  0  0  0  0
  5  1  1  0  0  0  0
  5  6  2  0  0  0  0
  7  6  1  0  0  0  0
  7 11  1  0  0  0  0
  8  7  2  0  0  0  0
  9  3  1  0  0  0  0
 10  4  1  0  0  0  0
 11 18  1  0  0  0  0
 11 12  2  0  0  0  0
 12 14  1  0  0  0  0
 13 12  1  0  0  0  0
 14 15  1  0  0  0  0
 16 14  2  0  0  0  0
 16 17  1  0  0  0  0
 18 16  1  0  0  0  0
 19 21  1  0  0  0  0
 19 20  1  0  0  0  0
 19 22  1  1  0  0  0
 20 24  1  0  0  0  0
 21 25  1  6  0  0  0
 21 20  1  0  0  0  0
 21 26  1  0  0  0  0
 23 20  1  0  0  0  0
 26 31  2  0  0  0  0
 26 27  1  0  0  0  0
 27 32  1  0  0  0  0
 27 28  2  0  0  0  0
 28 29  1  0  0  0  0
 28 33  1  0  0  0  0
 29 34  1  0  0  0  0
 30 29  2  0  0  0  0
 31 30  1  0  0  0  0
 35 30  1  0  0  0  0
M  END
>  <minimizedAffinity>
-6.02499104

$$$$

 OpenBabel03272501373D

 35 38  0  0  1  0  0  0  0  0999 V2000
   38.1360   26.4280   32.9400 C   0  0  2  0  0  3  0  0  0  0  0  0
   38.8800   27.3310   32.3940 O   0  0  0  0  0  1  0  0  0  0  0  0
   35.0680   25.7850   30.9240 C   0  0  0  0  0  0  0  0  0  0  0  0
   36.0930   26.4070   31.5980 C   0  0  0  0  0  0  0  0  0  0  0  0
   37.1250   25.6910   32.2400 C   0  0  0  0  0  0  0  0  0  0  0  0
   37.0640   24.3860   32.1640 N   0  0  0  0  0  0  0  0  0  0  0  0
   36.0300   23.7750   31.4840 C   0  0  0  0  0  0  0  0  0  0  0  0
   35.0520   24.4440   30.8770 N   0  0  0  0  0  0  0  0  0  0  0  0
   34.2860   26.3410   30.4400 H   0  0  0  0  0  0  0  0  0  0  0  0
   36.1180   27.4950   31.6450 H   0  0  0  0  0  0  0  0  0  0  0  0
   36.0590   22.3150   31.4620 C   0  0  0  0  0  0  0  0  0  0  0  0
   35.1020   21.6550   32.2390 C   0  0  0  0  0  0  0  0  0  0  0  0
   34.3090   22.0090   32.8830 H   0  0  0  0  0  0  0  0  0  0  0  0
   35.3170   20.2840   32.0670 C   0  0  0  0  0  0  0  0  0  0  0  0
   34.8450   19.3880   32.4520 H   0  0  0  0  0  0  0  0  0  0  0  0
   36.4020   20.2090   31.1870 C   0  0  0  0  0  0  0  0  0  0  0  0
   36.9450   19.3730   30.7460 H   0  0  0  0  0  0  0  0  0  0  0  0
   36.8060   21.4330   30.8570 O   0  0  0  0  0  0  0  0  0  0  0  0
   38.3290   26.1290   34.4070 C   0  0  2  0  0  0  0  0  0  0  0  0
   39.8920   26.1790   34.6970 C   0  0  0  0  0  0  0  0  0  0  0  0
   39.0190   24.9570   34.8270 C   0  0  1  0  0  0  0  0  0  0  0  0
   37.8150   26.8510   35.0770 H   0  0  0  0  0  0  0  0  0  0  0  0
   40.5650   26.2380   33.8540 H   0  0  0  0  0  0  0  0  0  0  0  0
   40.1450   26.7400   35.6180 H   0  0  0  0  0  0  0  0  0  0  0  0
   39.2190   24.1750   34.0250 H   0  0  0  0  0  0  0  0  0  0  0  0
   38.9790   24.3570   36.1620 C   0  0  0  0  0  0  0  0  0  0  0  0
   38.0230   24.8300   37.0530 C   0  0  0  0  0  0  0  0  0  0  0  0
   37.9940   24.2640   38.3010 C   0  0  0  0  0  0  0  0  0  0  0  0
   38.8730   23.2610   38.6800 C   0  0  0  0  0  0  0  0  0  0  0  0
   39.8030   22.8260   37.7660 C   0  0  0  0  0  0  0  0  0  0  0  0
   39.8380   23.3740   36.5430 N   0  0  0  0  0  0  0  0  0  0  0  0
   37.3030   25.6100   36.8250 H   0  0  0  0  0  0  0  0  0  0  0  0
   37.2920   24.5530   39.0750 H   0  0  0  0  0  0  0  0  0  0  0  0
   38.9190   22.7650   39.6370 H   0  0  0  0  0  0  0  0  0  0  0  0
   40.5680   22.0580   37.8740 H   0  0  0  0  0  0  0  0  0  0  0  0
  1  2  1  1  0  0  0
  1 19  1  0  0  0  0
  3  4  1  0  0  0  0
  4 10  1  0  0  0  0
  4  5  2  0  0  0  0
  5  1  1  0  0  0  0
  6  5  1  0  0  0  0
  7  6  2  0  0  0  0
  8  3  2  0  0  0  0
  8  7  1  0  0  0  0
  9  3  1  0  0  0  0
 11  7  1  0  0  0  0
 11 12  2  0  0  0  0
 12 13  1  0  0  0  0
 14 12  1  0  0  0  0
 14 15  1  0  0  0  0
 16 14  2  0  0  0  0
 17 16  1  0  0  0  0
 18 16  1  0  0  0  0
 18 11  1  0  0  0  0
 19 20  1  0  0  0  0
 19 21  1  0  0  0  0
 19 22  1  1  0  0  0
 20 21  1  0  0  0  0
 20 24  1  0  0  0  0
 21 25  1  6  0  0  0
 21 26  1  0  0  0  0
 23 20  1  0  0  0  0
 26 31  2  0  0  0  0
 26 27  1  0  0  0  0
 27 28  2  0  0  0  0
 28 29  1  0  0  0  0
 28 33  1  0  0  0  0
 29 34  1  0  0  0  0
 30 35  1  0  0  0  0
 30 29  2  0  0  0  0
 31 30  1  0  0  0  0
 32 27  1  0  0  0  0
M  END
>  <minimizedAffinity>
-5.83214331

$$$$

 OpenBabel03272501373D

 35 38  0  0  1  0  0  0  0  0999 V2000
   37.3100   27.2730   33.1670 C   0  0  2  0  0  3  0  0  0  0  0  0
   37.9710   27.9370   32.2790 O   0  0  0  0  0  1  0  0  0  0  0  0
   37.4580   23.5780   32.7060 C   0  0  0  0  0  0  0  0  0  0  0  0
   37.2840   24.9260   32.4890 C   0  0  0  0  0  0  0  0  0  0  0  0
   37.5470   25.8950   33.4790 C   0  0  0  0  0  0  0  0  0  0  0  0
   37.9730   25.4480   34.6330 N   0  0  0  0  0  0  0  0  0  0  0  0
   38.1450   24.0940   34.8370 C   0  0  0  0  0  0  0  0  0  0  0  0
   37.8970   23.1740   33.9070 N   0  0  0  0  0  0  0  0  0  0  0  0
   37.2530   22.8480   31.9440 H   0  0  0  0  0  0  0  0  0  0  0  0
   36.9270   25.2690   31.5180 H   0  0  0  0  0  0  0  0  0  0  0  0
   38.6240   23.7060   36.1600 C   0  0  0  0  0  0  0  0  0  0  0  0
   37.8440   24.1000   37.2520 C   0  0  0  0  0  0  0  0  0  0  0  0
   36.9190   24.6560   37.3310 H   0  0  0  0  0  0  0  0  0  0  0  0
   38.4870   23.6270   38.4000 C   0  0  0  0  0  0  0  0  0  0  0  0
   38.2770   23.6770   39.4620 H   0  0  0  0  0  0  0  0  0  0  0  0
   39.6250   22.9710   37.9180 C   0  0  0  0  0  0  0  0  0  0  0  0
   40.4400   22.4390   38.4080 H   0  0  0  0  0  0  0  0  0  0  0  0
   39.6630   23.0440   36.5900 O   0  0  0  0  0  0  0  0  0  0  0  0
   36.2110   27.9820   33.9230 C   0  0  2  0  0  0  0  0  0  0  0  0
   35.2760   28.6860   32.8470 C   0  0  0  0  0  0  0  0  0  0  0  0
   36.1010   29.4010   33.8880 C   0  0  1  0  0  0  0  0  0  0  0  0
   35.5930   27.3010   34.5470 H   0  0  0  0  0  0  0  0  0  0  0  0
   35.6120   28.7160   31.8210 H   0  0  0  0  0  0  0  0  0  0  0  0
   34.1960   28.5400   33.0470 H   0  0  0  0  0  0  0  0  0  0  0  0
   36.9860   29.9640   33.4490 H   0  0  0  0  0  0  0  0  0  0  0  0
   35.3410   30.2360   34.8210 C   0  0  0  0  0  0  0  0  0  0  0  0
   36.0510   31.1420   35.6000 C   0  0  0  0  0  0  0  0  0  0  0  0
   35.3320   31.9180   36.4720 C   0  0  0  0  0  0  0  0  0  0  0  0
   33.9540   31.8190   36.5870 C   0  0  0  0  0  0  0  0  0  0  0  0
   33.2940   30.9080   35.7960 C   0  0  0  0  0  0  0  0  0  0  0  0
   33.9900   30.1460   34.9420 N   0  0  0  0  0  0  0  0  0  0  0  0
   37.1280   31.2730   35.5610 H   0  0  0  0  0  0  0  0  0  0  0  0
   35.7790   32.6560   37.1260 H   0  0  0  0  0  0  0  0  0  0  0  0
   33.3150   32.3880   37.2440 H   0  0  0  0  0  0  0  0  0  0  0  0
   32.2290   30.6860   35.7430 H   0  0  0  0  0  0  0  0  0  0  0  0
  1  2  1  6  0  0  0
  1  5  1  0  0  0  0
  1 19  1  0  0  0  0
  3  8  1  0  0  0  0
  4  3  2  0  0  0  0
  4  5  1  0  0  0  0
  5  6  2  0  0  0  0
  6  7  1  0  0  0  0
  7 11  1  0  0  0  0
  8  7  2  0  0  0  0
  9  3  1  0  0  0  0
 10  4  1  0  0  0  0
 11 18  1  0  0  0  0
 11 12  2  0  0  0  0
 12 13  1  0  0  0  0
 12 14  1  0  0  0  0
 14 15  1  0  0  0  0
 16 14  2  0  0  0  0
 16 17  1  0  0  0  0
 18 16  1  0  0  0  0
 19 22  1  1  0  0  0
 20 24  1  0  0  0  0
 20 21  1  0  0  0  0
 20 19  1  0  0  0  0
 21 25  1  6  0  0  0
 21 19  1  0  0  0  0
 21 26  1  0  0  0  0
 23 20  1  0  0  0  0
 26 31  2  0  0  0  0
 26 27  1  0  0  0  0
 27 28  2  0  0  0  0
 28 29  1  0  0  0  0
 28 33  1  0  0  0  0
 29 34  1  0  0  0  0
 30 29  2  0  0  0  0
 31 30  1  0  0  0  0
 32 27  1  0  0  0  0
 35 30  1  0  0  0  0
M  END
>  <minimizedAffinity>
-5.5997014

$$$$

 OpenBabel03272501373D

 35 38  0  0  1  0  0  0  0  0999 V2000
   37.2350   26.7770   33.3050 C   0  0  2  0  0  3  0  0  0  0  0  0
   36.8210   27.9830   33.0970 O   0  0  0  0  0  1  0  0  0  0  0  0
   38.8060   25.4650   30.1910 C   0  0  0  0  0  0  0  0  0  0  0  0
   38.4490   26.2740   31.2450 C   0  0  0  0  0  0  0  0  0  0  0  0
   37.5680   25.8530   32.2620 C   0  0  0  0  0  0  0  0  0  0  0  0
   37.0970   24.6360   32.1580 N   0  0  0  0  0  0  0  0  0  0  0  0
   37.4630   23.8340   31.0950 C   0  0  0  0  0  0  0  0  0  0  0  0
   38.2940   24.2260   30.1320 N   0  0  0  0  0  0  0  0  0  0  0  0
   39.4780   25.7980   29.4210 H   0  0  0  0  0  0  0  0  0  0  0  0
   38.8560   27.2830   31.3050 H   0  0  0  0  0  0  0  0  0  0  0  0
   36.8800   22.4960   31.0780 C   0  0  0  0  0  0  0  0  0  0  0  0
   35.6230   22.3510   31.6740 C   0  0  0  0  0  0  0  0  0  0  0  0
   34.9610   23.0480   32.1690 H   0  0  0  0  0  0  0  0  0  0  0  0
   35.2660   21.0050   31.5420 C   0  0  0  0  0  0  0  0  0  0  0  0
   34.4060   20.4160   31.8370 H   0  0  0  0  0  0  0  0  0  0  0  0
   36.3440   20.4230   30.8660 C   0  0  0  0  0  0  0  0  0  0  0  0
   36.5480   19.4080   30.5270 H   0  0  0  0  0  0  0  0  0  0  0  0
   37.2720   21.3420   30.6130 O   0  0  0  0  0  0  0  0  0  0  0  0
   37.3720   26.3010   34.7310 C   0  0  2  0  0  0  0  0  0  0  0  0
   38.6150   27.0630   35.3660 C   0  0  0  0  0  0  0  0  0  0  0  0
   38.5220   25.5730   35.1490 C   0  0  1  0  0  0  0  0  0  0  0  0
   36.4730   26.5000   35.3520 H   0  0  0  0  0  0  0  0  0  0  0  0
   39.2530   27.6350   34.7070 H   0  0  0  0  0  0  0  0  0  0  0  0
   38.4120   27.4550   36.3810 H   0  0  0  0  0  0  0  0  0  0  0  0
   39.2070   25.1960   34.3230 H   0  0  0  0  0  0  0  0  0  0  0  0
   38.6410   24.7570   36.3590 C   0  0  0  0  0  0  0  0  0  0  0  0
   37.8810   25.1250   37.4630 C   0  0  0  0  0  0  0  0  0  0  0  0
   38.0000   24.3570   38.5910 C   0  0  0  0  0  0  0  0  0  0  0  0
   38.8390   23.2550   38.6520 C   0  0  0  0  0  0  0  0  0  0  0  0
   39.5730   22.9290   37.5350 C   0  0  0  0  0  0  0  0  0  0  0  0
   39.4620   23.6750   36.4280 N   0  0  0  0  0  0  0  0  0  0  0  0
   37.2040   25.9730   37.4860 H   0  0  0  0  0  0  0  0  0  0  0  0
   37.4560   24.5500   39.5080 H   0  0  0  0  0  0  0  0  0  0  0  0
   38.9920   22.6000   39.4950 H   0  0  0  0  0  0  0  0  0  0  0  0
   40.2770   22.1110   37.3890 H   0  0  0  0  0  0  0  0  0  0  0  0
  1  2  1  6  0  0  0
  1 19  1  0  0  0  0
  3  4  1  0  0  0  0
  4 10  1  0  0  0  0
  4  5  2  0  0  0  0
  5  1  1  0  0  0  0
  6  5  1  0  0  0  0
  7  6  2  0  0  0  0
  8  3  2  0  0  0  0
  8  7  1  0  0  0  0
  9  3  1  0  0  0  0
 11  7  1  0  0  0  0
 11 12  2  0  0  0  0
 12 13  1  0  0  0  0
 14 12  1  0  0  0  0
 14 15  1  0  0  0  0
 16 14  2  0  0  0  0
 17 16  1  0  0  0  0
 18 16  1  0  0  0  0
 18 11  1  0  0  0  0
 19 21  1  0  0  0  0
 19 22  1  1  0  0  0
 19 20  1  0  0  0  0
 20 24  1  0  0  0  0
 21 25  1  6  0  0  0
 21 20  1  0  0  0  0
 21 26  1  0  0  0  0
 23 20  1  0  0  0  0
 26 31  2  0  0  0  0
 26 27  1  0  0  0  0
 27 32  1  0  0  0  0
 27 28  2  0  0  0  0
 28 29  1  0  0  0  0
 28 33  1  0  0  0  0
 29 34  1  0  0  0  0
 30 29  2  0  0  0  0
 31 30  1  0  0  0  0
 35 30  1  0  0  0  0
M  END
>  <minimizedAffinity>
-5.59056425

$$$$

 OpenBabel03272501373D

 35 38  0  0  1  0  0  0  0  0999 V2000
   35.7890   29.3300   31.4900 C   0  0  2  0  0  3  0  0  0  0  0  0
   36.0780   29.8800   30.3570 O   0  0  0  0  0  1  0  0  0  0  0  0
   36.2050   25.6390   31.1890 C   0  0  0  0  0  0  0  0  0  0  0  0
   35.9100   26.9560   30.9220 C   0  0  0  0  0  0  0  0  0  0  0  0
   36.1550   27.9920   31.8480 C   0  0  0  0  0  0  0  0  0  0  0  0
   36.6860   27.6390   32.9910 N   0  0  0  0  0  0  0  0  0  0  0  0
   36.9770   26.3140   33.2450 C   0  0  0  0  0  0  0  0  0  0  0  0
   36.7470   25.3310   32.3770 N   0  0  0  0  0  0  0  0  0  0  0  0
   36.0120   24.8580   30.4760 H   0  0  0  0  0  0  0  0  0  0  0  0
   35.4680   27.2210   29.9630 H   0  0  0  0  0  0  0  0  0  0  0  0
   37.5670   26.0320   34.5510 C   0  0  0  0  0  0  0  0  0  0  0  0
   37.8510   27.1340   35.3630 C   0  0  0  0  0  0  0  0  0  0  0  0
   37.7240   28.1990   35.2260 H   0  0  0  0  0  0  0  0  0  0  0  0
   38.4020   26.6320   36.5460 C   0  0  0  0  0  0  0  0  0  0  0  0
   38.7730   27.0800   37.4610 H   0  0  0  0  0  0  0  0  0  0  0  0
   38.4120   25.2440   36.3660 C   0  0  0  0  0  0  0  0  0  0  0  0
   38.7390   24.4150   36.9930 H   0  0  0  0  0  0  0  0  0  0  0  0
   37.9090   24.9370   35.1730 O   0  0  0  0  0  0  0  0  0  0  0  0
   35.0110   30.1370   32.5010 C   0  0  2  0  0  0  0  0  0  0  0  0
   35.8130   31.4880   32.7460 C   0  0  0  0  0  0  0  0  0  0  0  0
   35.5600   30.4230   33.7830 C   0  0  1  0  0  0  0  0  0  0  0  0
   33.9800   30.3850   32.1700 H   0  0  0  0  0  0  0  0  0  0  0  0
   36.8080   31.5720   32.3330 H   0  0  0  0  0  0  0  0  0  0  0  0
   35.1630   32.3850   32.7500 H   0  0  0  0  0  0  0  0  0  0  0  0
   36.4970   29.8450   34.0700 H   0  0  0  0  0  0  0  0  0  0  0  0
   34.8190   30.8670   34.9660 C   0  0  0  0  0  0  0  0  0  0  0  0
   35.4760   31.7010   35.8630 C   0  0  0  0  0  0  0  0  0  0  0  0
   34.7750   32.1090   36.9680 C   0  0  0  0  0  0  0  0  0  0  0  0
   33.4650   31.7200   37.2000 C   0  0  0  0  0  0  0  0  0  0  0  0
   32.8560   30.8940   36.2850 C   0  0  0  0  0  0  0  0  0  0  0  0
   33.5340   30.4890   35.2020 N   0  0  0  0  0  0  0  0  0  0  0  0
   36.4980   32.0460   35.7450 H   0  0  0  0  0  0  0  0  0  0  0  0
   35.1860   32.7590   37.7320 H   0  0  0  0  0  0  0  0  0  0  0  0
   32.8450   31.9940   38.0390 H   0  0  0  0  0  0  0  0  0  0  0  0
   31.8460   30.4850   36.2910 H   0  0  0  0  0  0  0  0  0  0  0  0
  1  2  1  6  0  0  0
  1  5  1  0  0  0  0
  1 19  1  0  0  0  0
  3  8  1  0  0  0  0
  4  3  2  0  0  0  0
  4  5  1  0  0  0  0
  5  6  2  0  0  0  0
  6  7  1  0  0  0  0
  7 11  1  0  0  0  0
  8  7  2  0  0  0  0
  9  3  1  0  0  0  0
 10  4  1  0  0  0  0
 11 18  1  0  0  0  0
 11 12  2  0  0  0  0
 12 14  1  0  0  0  0
 13 12  1  0  0  0  0
 14 15  1  0  0  0  0
 16 14  2  0  0  0  0
 16 17  1  0  0  0  0
 18 16  1  0  0  0  0
 19 22  1  6  0  0  0
 19 20  1  0  0  0  0
 19 21  1  0  0  0  0
 20 24  1  0  0  0  0
 20 21  1  0  0  0  0
 21 25  1  1  0  0  0
 21 26  1  0  0  0  0
 23 20  1  0  0  0  0
 26 31  2  0  0  0  0
 26 27  1  0  0  0  0
 27 28  2  0  0  0  0
 28 29  1  0  0  0  0
 28 33  1  0  0  0  0
 29 34  1  0  0  0  0
 30 35  1  0  0  0  0
 30 29  2  0  0  0  0
 31 30  1  0  0  0  0
 32 27  1  0  0  0  0
M  END
>  <minimizedAffinity>
-5.54054165

$$$$

 OpenBabel03272501373D

 35 38  0  0  1  0  0  0  0  0999 V2000
   38.4750   26.6490   32.6090 C   0  0  2  0  0  3  0  0  0  0  0  0
   39.4530   26.1500   31.9290 O   0  0  0  0  0  1  0  0  0  0  0  0
   37.0150   29.1720   30.2870 C   0  0  0  0  0  0  0  0  0  0  0  0
   37.8290   28.2150   30.8480 C   0  0  0  0  0  0  0  0  0  0  0  0
   37.5530   27.6180   32.0950 C   0  0  0  0  0  0  0  0  0  0  0  0
   36.4690   28.0220   32.7080 N   0  0  0  0  0  0  0  0  0  0  0  0
   35.6610   28.9830   32.1340 C   0  0  0  0  0  0  0  0  0  0  0  0
   35.9160   29.5510   30.9570 N   0  0  0  0  0  0  0  0  0  0  0  0
   37.2360   29.6210   29.3360 H   0  0  0  0  0  0  0  0  0  0  0  0
   38.7260   27.8980   30.3160 H   0  0  0  0  0  0  0  0  0  0  0  0
   34.4780   29.3590   32.9020 C   0  0  0  0  0  0  0  0  0  0  0  0
   34.6230   29.4170   34.2920 C   0  0  0  0  0  0  0  0  0  0  0  0
   35.4610   29.2340   34.9500 H   0  0  0  0  0  0  0  0  0  0  0  0
   33.3800   29.7910   34.8120 C   0  0  0  0  0  0  0  0  0  0  0  0
   32.9970   29.9650   35.8120 H   0  0  0  0  0  0  0  0  0  0  0  0
   32.5600   29.9360   33.6880 C   0  0  0  0  0  0  0  0  0  0  0  0
   31.5130   30.2130   33.5620 H   0  0  0  0  0  0  0  0  0  0  0  0
   33.2510   29.6710   32.5830 O   0  0  0  0  0  0  0  0  0  0  0  0
   38.2890   26.1960   34.0370 C   0  0  2  0  0  0  0  0  0  0  0  0
   39.3790   26.9500   34.9170 C   0  0  0  0  0  0  0  0  0  0  0  0
   39.3080   25.4580   34.7060 C   0  0  1  0  0  0  0  0  0  0  0  0
   37.2810   26.4190   34.4450 H   0  0  0  0  0  0  0  0  0  0  0  0
   40.1550   27.5000   34.4060 H   0  0  0  0  0  0  0  0  0  0  0  0
   38.9670   27.3630   35.8590 H   0  0  0  0  0  0  0  0  0  0  0  0
   40.1490   25.0570   34.0550 H   0  0  0  0  0  0  0  0  0  0  0  0
   39.1450   24.6620   35.9240 C   0  0  0  0  0  0  0  0  0  0  0  0
   38.1500   25.0440   36.8160 C   0  0  0  0  0  0  0  0  0  0  0  0
   38.0060   24.2940   37.9550 C   0  0  0  0  0  0  0  0  0  0  0  0
   38.8090   23.1970   38.2250 C   0  0  0  0  0  0  0  0  0  0  0  0
   39.7810   22.8570   37.3130 C   0  0  0  0  0  0  0  0  0  0  0  0
   39.9280   23.5850   36.1980 N   0  0  0  0  0  0  0  0  0  0  0  0
   37.4850   25.8890   36.6690 H   0  0  0  0  0  0  0  0  0  0  0  0
   37.2650   24.4990   38.7180 H   0  0  0  0  0  0  0  0  0  0  0  0
   38.7640   22.5560   39.0920 H   0  0  0  0  0  0  0  0  0  0  0  0
   40.5010   22.0400   37.3460 H   0  0  0  0  0  0  0  0  0  0  0  0
  1  2  1  1  0  0  0
  1 19  1  0  0  0  0
  3  4  2  0  0  0  0
  3  8  1  0  0  0  0
  4  5  1  0  0  0  0
  5  1  1  0  0  0  0
  5  6  2  0  0  0  0
  7  6  1  0  0  0  0
  7 11  1  0  0  0  0
  8  7  2  0  0  0  0
  9  3  1  0  0  0  0
 10  4  1  0  0  0  0
 11 12  2  0  0  0  0
 12 14  1  0  0  0  0
 12 13  1  0  0  0  0
 14 15  1  0  0  0  0
 16 14  2  0  0  0  0
 17 16  1  0  0  0  0
 18 11  1  0  0  0  0
 18 16  1  0  0  0  0
 19 22  1  1  0  0  0
 19 21  1  0  0  0  0
 19 20  1  0  0  0  0
 20 24  1  0  0  0  0
 21 25  1  6  0  0  0
 21 20  1  0  0  0  0
 21 26  1  0  0  0  0
 23 20  1  0  0  0  0
 26 31  2  0  0  0  0
 26 27  1  0  0  0  0
 27 28  2  0  0  0  0
 28 29  1  0  0  0  0
 28 33  1  0  0  0  0
 29 34  1  0  0  0  0
 30 35  1  0  0  0  0
 30 29  2  0  0  0  0
 31 30  1  0  0  0  0
 32 27  1  0  0  0  0
M  END
>  <minimizedAffinity>
-5.41187048

$$$$

 OpenBabel03272501373D

 35 38  0  0  1  0  0  0  0  0999 V2000
   36.8610   28.2000   32.7590 C   0  0  2  0  0  3  0  0  0  0  0  0
   37.0600   28.9470   31.7240 O   0  0  0  0  0  1  0  0  0  0  0  0
   39.4720   25.7680   33.8340 C   0  0  0  0  0  0  0  0  0  0  0  0
   38.7670   26.9270   33.6080 C   0  0  0  0  0  0  0  0  0  0  0  0
   37.5070   26.9390   32.9740 C   0  0  0  0  0  0  0  0  0  0  0  0
   37.0300   25.7770   32.6040 N   0  0  0  0  0  0  0  0  0  0  0  0
   37.7480   24.6220   32.8380 C   0  0  0  0  0  0  0  0  0  0  0  0
   38.9370   24.6040   33.4350 N   0  0  0  0  0  0  0  0  0  0  0  0
   40.4320   25.7720   34.3180 H   0  0  0  0  0  0  0  0  0  0  0  0
   39.1890   27.8800   33.9260 H   0  0  0  0  0  0  0  0  0  0  0  0
   37.1220   23.3830   32.3850 C   0  0  0  0  0  0  0  0  0  0  0  0
   35.9940   23.5110   31.5690 C   0  0  0  0  0  0  0  0  0  0  0  0
   35.4590   24.3690   31.1840 H   0  0  0  0  0  0  0  0  0  0  0  0
   35.5690   22.2140   31.2620 C   0  0  0  0  0  0  0  0  0  0  0  0
   34.7560   21.8010   30.6750 H   0  0  0  0  0  0  0  0  0  0  0  0
   36.4810   21.3820   31.9210 C   0  0  0  0  0  0  0  0  0  0  0  0
   36.5820   20.2990   31.9930 H   0  0  0  0  0  0  0  0  0  0  0  0
   37.3790   22.1170   32.5700 O   0  0  0  0  0  0  0  0  0  0  0  0
   35.8830   28.6730   33.8080 C   0  0  2  0  0  0  0  0  0  0  0  0
   34.5740   29.1580   33.0470 C   0  0  0  0  0  0  0  0  0  0  0  0
   35.4830   30.0380   33.8680 C   0  0  1  0  0  0  0  0  0  0  0  0
   35.6030   27.8840   34.5390 H   0  0  0  0  0  0  0  0  0  0  0  0
   34.6120   29.2480   31.9720 H   0  0  0  0  0  0  0  0  0  0  0  0
   33.6380   28.7940   33.5160 H   0  0  0  0  0  0  0  0  0  0  0  0
   36.0870   30.7680   33.2410 H   0  0  0  0  0  0  0  0  0  0  0  0
   34.8460   30.7060   35.0050 C   0  0  0  0  0  0  0  0  0  0  0  0
   35.6420   31.5140   35.8070 C   0  0  0  0  0  0  0  0  0  0  0  0
   35.0370   32.1340   36.8700 C   0  0  0  0  0  0  0  0  0  0  0  0
   33.6890   31.9750   37.1510 C   0  0  0  0  0  0  0  0  0  0  0  0
   32.9410   31.1640   36.3300 C   0  0  0  0  0  0  0  0  0  0  0  0
   33.5240   30.5540   35.2890 N   0  0  0  0  0  0  0  0  0  0  0  0
   36.7010   31.6860   35.6460 H   0  0  0  0  0  0  0  0  0  0  0  0
   35.5590   32.7860   37.5600 H   0  0  0  0  0  0  0  0  0  0  0  0
   33.1380   32.4230   37.9620 H   0  0  0  0  0  0  0  0  0  0  0  0
   31.8810   30.9170   36.3860 H   0  0  0  0  0  0  0  0  0  0  0  0
  1  2  1  6  0  0  0
  1  5  1  0  0  0  0
  1 19  1  0  0  0  0
  3  9  1  0  0  0  0
  4  3  1  0  0  0  0
  4 10  1  0  0  0  0
  5  4  2  0  0  0  0
  6  7  2  0  0  0  0
  6  5  1  0  0  0  0
  7  8  1  0  0  0  0
  8  3  2  0  0  0  0
 11 18  1  0  0  0  0
 11  7  1  0  0  0  0
 12 11  2  0  0  0  0
 13 12  1  0  0  0  0
 14 12  1  0  0  0  0
 14 16  2  0  0  0  0
 15 14  1  0  0  0  0
 16 17  1  0  0  0  0
 16 18  1  0  0  0  0
 19 21  1  0  0  0  0
 19 22  1  1  0  0  0
 20 24  1  0  0  0  0
 20 19  1  0  0  0  0
 20 21  1  0  0  0  0
 21 25  1  6  0  0  0
 21 26  1  0  0  0  0
 23 20  1  0  0  0  0
 26 31  2  0  0  0  0
 26 27  1  0  0  0  0
 27 28  2  0  0  0  0
 28 29  1  0  0  0  0
 28 33  1  0  0  0  0
 29 34  1  0  0  0  0
 30 35  1  0  0  0  0
 30 29  2  0  0  0  0
 31 30  1  0  0  0  0
 32 27  1  0  0  0  0
M  END
>  <minimizedAffinity>
-5.31718731

$$$$

 OpenBabel03272501373D

 35 38  0  0  1  0  0  0  0  0999 V2000
   38.6080   26.6740   32.6220 C   0  0  2  0  0  3  0  0  0  0  0  0
   39.5610   26.1360   31.9360 O   0  0  0  0  0  1  0  0  0  0  0  0
   35.5110   28.7250   32.3200 C   0  0  0  0  0  0  0  0  0  0  0  0
   36.4630   27.8350   32.7630 C   0  0  0  0  0  0  0  0  0  0  0  0
   37.6910   27.6430   32.0980 C   0  0  0  0  0  0  0  0  0  0  0  0
   37.8910   28.3620   31.0230 N   0  0  0  0  0  0  0  0  0  0  0  0
   36.9290   29.2520   30.5900 C   0  0  0  0  0  0  0  0  0  0  0  0
   35.7670   29.4370   31.2120 N   0  0  0  0  0  0  0  0  0  0  0  0
   34.5780   28.8630   32.8340 H   0  0  0  0  0  0  0  0  0  0  0  0
   36.2690   27.2500   33.6610 H   0  0  0  0  0  0  0  0  0  0  0  0
   37.2550   30.0020   29.3800 C   0  0  0  0  0  0  0  0  0  0  0  0
   36.9630   31.3690   29.3910 C   0  0  0  0  0  0  0  0  0  0  0  0
   36.5270   32.0210   30.1360 H   0  0  0  0  0  0  0  0  0  0  0  0
   37.3540   31.8750   28.1470 C   0  0  0  0  0  0  0  0  0  0  0  0
   37.3320   32.8560   27.6860 H   0  0  0  0  0  0  0  0  0  0  0  0
   37.8610   30.7660   27.4630 C   0  0  0  0  0  0  0  0  0  0  0  0
   38.2880   30.6370   26.4680 H   0  0  0  0  0  0  0  0  0  0  0  0
   37.7830   29.6820   28.2300 O   0  0  0  0  0  0  0  0  0  0  0  0
   38.4470   26.2690   34.0680 C   0  0  2  0  0  0  0  0  0  0  0  0
   39.7130   26.8200   34.8560 C   0  0  0  0  0  0  0  0  0  0  0  0
   39.3620   25.3650   34.6770 C   0  0  1  0  0  0  0  0  0  0  0  0
   37.5260   26.6720   34.5400 H   0  0  0  0  0  0  0  0  0  0  0  0
   40.5370   27.2200   34.2820 H   0  0  0  0  0  0  0  0  0  0  0  0
   39.4500   27.3060   35.8160 H   0  0  0  0  0  0  0  0  0  0  0  0
   40.0700   24.8150   33.9760 H   0  0  0  0  0  0  0  0  0  0  0  0
   39.1480   24.6170   35.9180 C   0  0  0  0  0  0  0  0  0  0  0  0
   38.1240   25.0410   36.7570 C   0  0  0  0  0  0  0  0  0  0  0  0
   37.9320   24.3360   37.9180 C   0  0  0  0  0  0  0  0  0  0  0  0
   38.7150   23.2440   38.2590 C   0  0  0  0  0  0  0  0  0  0  0  0
   39.7170   22.8620   37.3980 C   0  0  0  0  0  0  0  0  0  0  0  0
   39.9110   23.5450   36.2620 N   0  0  0  0  0  0  0  0  0  0  0  0
   37.4730   25.8850   36.5540 H   0  0  0  0  0  0  0  0  0  0  0  0
   37.1660   24.5760   38.6440 H   0  0  0  0  0  0  0  0  0  0  0  0
   38.6320   22.6380   39.1470 H   0  0  0  0  0  0  0  0  0  0  0  0
   40.4270   22.0410   37.4890 H   0  0  0  0  0  0  0  0  0  0  0  0
  1  2  1  1  0  0  0
  1 19  1  0  0  0  0
  3  4  1  0  0  0  0
  3  9  1  0  0  0  0
  4 10  1  0  0  0  0
  5  1  1  0  0  0  0
  5  4  2  0  0  0  0
  6  5  1  0  0  0  0
  7  6  2  0  0  0  0
  7  8  1  0  0  0  0
  8  3  2  0  0  0  0
 11 12  2  0  0  0  0
 11  7  1  0  0  0  0
 12 13  1  0  0  0  0
 14 12  1  0  0  0  0
 15 14  1  0  0  0  0
 16 14  2  0  0  0  0
 16 18  1  0  0  0  0
 17 16  1  0  0  0  0
 18 11  1  0  0  0  0
 19 22  1  1  0  0  0
 19 21  1  0  0  0  0
 19 20  1  0  0  0  0
 20 24  1  0  0  0  0
 21 25  1  6  0  0  0
 21 20  1  0  0  0  0
 21 26  1  0  0  0  0
 23 20  1  0  0  0  0
 26 31  2  0  0  0  0
 26 27  1  0  0  0  0
 27 28  2  0  0  0  0
 28 29  1  0  0  0  0
 28 33  1  0  0  0  0
 29 34  1  0  0  0  0
 30 35  1  0  0  0  0
 30 29  2  0  0  0  0
 31 30  1  0  0  0  0
 32 27  1  0  0  0  0
M  END
>  <minimizedAffinity>
-5.2262311

$$$$

 OpenBabel03272501373D

 35 38  0  0  1  0  0  0  0  0999 V2000
   35.2450   25.1870   30.9660 C   0  0  2  0  0  3  0  0  0  0  0  0
   34.2960   25.1150   30.0930 O   0  0  0  0  0  1  0  0  0  0  0  0
   38.0140   27.6660   31.2430 C   0  0  0  0  0  0  0  0  0  0  0  0
   37.2740   26.5490   30.9320 C   0  0  0  0  0  0  0  0  0  0  0  0
   35.9250   26.4000   31.3140 C   0  0  0  0  0  0  0  0  0  0  0  0
   35.3970   27.3900   31.9880 N   0  0  0  0  0  0  0  0  0  0  0  0
   36.1500   28.5060   32.2930 C   0  0  0  0  0  0  0  0  0  0  0  0
   37.4240   28.6520   31.9370 N   0  0  0  0  0  0  0  0  0  0  0  0
   39.0420   27.7680   30.9480 H   0  0  0  0  0  0  0  0  0  0  0  0
   37.7400   25.7400   30.3710 H   0  0  0  0  0  0  0  0  0  0  0  0
   35.4630   29.5500   33.0480 C   0  0  0  0  0  0  0  0  0  0  0  0
   35.7070   29.5940   34.4240 C   0  0  0  0  0  0  0  0  0  0  0  0
   36.3230   28.9940   35.0800 H   0  0  0  0  0  0  0  0  0  0  0  0
   34.9530   30.6570   34.9330 C   0  0  0  0  0  0  0  0  0  0  0  0
   34.8110   31.0820   35.9200 H   0  0  0  0  0  0  0  0  0  0  0  0
   34.2980   31.1870   33.8170 C   0  0  0  0  0  0  0  0  0  0  0  0
   33.6040   32.0180   33.6870 H   0  0  0  0  0  0  0  0  0  0  0  0
   34.6300   30.5020   32.7260 O   0  0  0  0  0  0  0  0  0  0  0  0
   35.6780   23.9190   31.6630 C   0  0  2  0  0  0  0  0  0  0  0  0
   36.9250   23.3430   30.8610 C   0  0  0  0  0  0  0  0  0  0  0  0
   35.5890   22.6600   31.0040 C   0  0  1  0  0  0  0  0  0  0  0  0
   35.9720   24.0750   32.7220 H   0  0  0  0  0  0  0  0  0  0  0  0
   37.1700   23.7900   29.9080 H   0  0  0  0  0  0  0  0  0  0  0  0
   37.7520   23.0150   31.5210 H   0  0  0  0  0  0  0  0  0  0  0  0
   34.9900   22.6380   30.0380 H   0  0  0  0  0  0  0  0  0  0  0  0
   35.6260   21.3420   31.6430 C   0  0  0  0  0  0  0  0  0  0  0  0
   35.4550   21.2880   33.0210 C   0  0  0  0  0  0  0  0  0  0  0  0
   35.4940   20.0510   33.6100 C   0  0  0  0  0  0  0  0  0  0  0  0
   35.6940   18.8890   32.8800 C   0  0  0  0  0  0  0  0  0  0  0  0
   35.8590   18.9920   31.5190 C   0  0  0  0  0  0  0  0  0  0  0  0
   35.8230   20.1980   30.9350 N   0  0  0  0  0  0  0  0  0  0  0  0
   35.2930   22.1540   33.6540 H   0  0  0  0  0  0  0  0  0  0  0  0
   35.3720   19.8890   34.6740 H   0  0  0  0  0  0  0  0  0  0  0  0
   35.7390   17.8810   33.2620 H   0  0  0  0  0  0  0  0  0  0  0  0
   36.0260   18.2050   30.7840 H   0  0  0  0  0  0  0  0  0  0  0  0
  1  2  1  6  0  0  0
  1  5  1  0  0  0  0
  1 19  1  0  0  0  0
  3  8  1  0  0  0  0
  4  3  2  0  0  0  0
  4  5  1  0  0  0  0
  5  6  2  0  0  0  0
  6  7  1  0  0  0  0
  7 11  1  0  0  0  0
  8  7  2  0  0  0  0
  9  3  1  0  0  0  0
 10  4  1  0  0  0  0
 11 12  2  0  0  0  0
 12 14  1  0  0  0  0
 12 13  1  0  0  0  0
 14 15  1  0  0  0  0
 16 14  2  0  0  0  0
 17 16  1  0  0  0  0
 18 11  1  0  0  0  0
 18 16  1  0  0  0  0
 19 22  1  1  0  0  0
 20 21  1  0  0  0  0
 20 24  1  0  0  0  0
 20 19  1  0  0  0  0
 21 25  1  6  0  0  0
 21 26  1  0  0  0  0
 21 19  1  0  0  0  0
 23 20  1  0  0  0  0
 26 27  1  0  0  0  0
 27 28  2  0  0  0  0
 27 32  1  0  0  0  0
 28 33  1  0  0  0  0
 29 34  1  0  0  0  0
 29 28  1  0  0  0  0
 30 29  2  0  0  0  0
 31 30  1  0  0  0  0
 31 26  2  0  0  0  0
 35 30  1  0  0  0  0
M  END
>  <minimizedAffinity>
-5.18913937

$$$$
