
 OpenBabel03272510023D

 20 21  0  0  0  0  0  0  0  0999 V2000
   38.3430   31.5580   50.1790 C   0  0  0  0  0  0  0  0  0  0  0  0
   38.5990   31.7460   48.8000 C   0  0  0  0  0  0  0  0  0  0  0  0
   37.7540   31.1240   47.8920 C   0  0  0  0  0  0  0  0  0  0  0  0
   36.7240   30.3690   48.3640 N   0  0  0  0  0  0  0  0  0  0  0  0
   36.5150   30.2160   49.6880 C   0  0  0  0  0  0  0  0  0  0  0  0
   37.3140   30.8030   50.5890 N   0  0  0  0  0  0  0  0  0  0  0  0
   38.9830   32.0280   50.9140 H   0  0  0  0  0  0  0  0  0  0  0  0
   39.4310   32.3570   48.4680 H   0  0  0  0  0  0  0  0  0  0  0  0
   37.9690   31.2810   46.4580 C   0  0  0  0  0  0  0  0  0  0  0  0
   38.2710   30.2530   45.5910 C   0  0  0  0  0  0  0  0  0  0  0  0
   38.3910   29.1990   45.8370 H   0  0  0  0  0  0  0  0  0  0  0  0
   38.3740   30.9230   44.3670 C   0  0  0  0  0  0  0  0  0  0  0  0
   38.6100   30.4020   43.4310 H   0  0  0  0  0  0  0  0  0  0  0  0
   38.1360   32.2690   44.5530 C   0  0  0  0  0  0  0  0  0  0  0  0
   38.1520   33.0330   43.7620 H   0  0  0  0  0  0  0  0  0  0  0  0
   37.8950   32.4380   45.8440 O   0  0  0  0  0  0  0  0  0  0  0  0
   35.3650   29.3780   50.1050 C   0  0  0  0  0  0  0  0  0  0  0  0
   35.3620   29.0960   51.4610 F   0  0  0  0  0  0  0  0  0  0  0  0
   34.1490   30.0340   49.8520 F   0  0  0  0  0  0  0  0  0  0  0  0
   35.2830   28.1910   49.4420 F   0  0  0  0  0  0  0  0  0  0  0  0
  1  6  1  0  0  0  0
  1  7  1  0  0  0  0
  2  1  2  0  0  0  0
  3  4  2  0  0  0  0
  3  2  1  0  0  0  0
  4  5  1  0  0  0  0
  5 17  1  0  0  0  0
  5  6  2  0  0  0  0
  8  2  1  0  0  0  0
  9  3  1  0  0  0  0
 10 11  1  0  0  0  0
 10  9  2  0  0  0  0
 12 14  2  0  0  0  0
 12 10  1  0  0  0  0
 13 12  1  0  0  0  0
 14 16  1  0  0  0  0
 15 14  1  0  0  0  0
 16  9  1  0  0  0  0
 17 18  1  0  0  0  0
 19 17  1  0  0  0  0
 20 17  1  0  0  0  0
M  END
>  <minimizedAffinity>
-4.9275465

>  <minimizedRMSD>
0.778161407

$$$$
