
 OpenBabel03272503283D

 32 34  0  0  1  0  0  0  0  0999 V2000
   37.0680   25.2730   32.4970 N   0  0  0  0  0  0  0  0  0  0  0  0
   37.6070   24.1190   31.8490 C   0  0  0  0  0  0  0  0  0  0  0  0
   36.4370   23.6300   31.0000 C   0  0  2  0  0  0  0  0  0  0  0  0
   35.2720   24.5510   31.3140 C   0  0  0  0  0  0  0  0  0  0  0  0
   36.0690   25.8260   31.6060 C   0  0  0  0  0  0  0  0  0  0  0  0
   37.8460   23.3380   32.5850 H   0  0  0  0  0  0  0  0  0  0  0  0
   38.4790   24.3630   31.1930 H   0  0  0  0  0  0  0  0  0  0  0  0
   36.7030   23.7600   29.9200 H   0  0  0  0  0  0  0  0  0  0  0  0
   34.7000   24.7450   30.4080 H   0  0  0  0  0  0  0  0  0  0  0  0
   34.6970   24.2670   32.1950 H   0  0  0  0  0  0  0  0  0  0  0  0
   36.4590   26.2850   30.7020 H   0  0  0  0  0  0  0  0  0  0  0  0
   35.3910   26.4960   32.1970 H   0  0  0  0  0  0  0  0  0  0  0  0
   37.4240   25.8070   33.7720 C   0  0  0  0  0  0  0  0  0  0  0  0
   37.4030   27.1900   33.9010 C   0  0  0  0  0  0  0  0  0  0  0  0
   37.7550   27.7230   35.1540 C   0  0  0  0  0  0  0  0  0  0  0  0
   38.0890   26.8540   36.1470 N   0  0  0  0  0  0  0  0  0  0  0  0
   38.0980   25.5210   35.9850 C   0  0  0  0  0  0  0  0  0  0  0  0
   37.7650   24.9940   34.7940 N   0  0  0  0  0  0  0  0  0  0  0  0
   37.1470   27.8990   33.1470 H   0  0  0  0  0  0  0  0  0  0  0  0
   37.7650   28.7780   35.3470 H   0  0  0  0  0  0  0  0  0  0  0  0
   38.4520   24.5820   37.0320 C   0  0  0  0  0  0  0  0  0  0  0  0
   38.0200   24.3930   38.3310 C   0  0  0  0  0  0  0  0  0  0  0  0
   37.2580   25.0190   38.7660 H   0  0  0  0  0  0  0  0  0  0  0  0
   38.7390   23.3270   38.8320 C   0  0  0  0  0  0  0  0  0  0  0  0
   38.6230   22.9370   39.8350 H   0  0  0  0  0  0  0  0  0  0  0  0
   39.5760   22.9180   37.8120 C   0  0  0  0  0  0  0  0  0  0  0  0
   40.2820   22.0790   37.9070 H   0  0  0  0  0  0  0  0  0  0  0  0
   39.3860   23.6810   36.7530 O   0  0  0  0  0  0  0  0  0  0  0  0
   36.1240   22.1800   31.2060 C   0  0  0  0  0  0  0  0  0  0  0  0
   35.8790   22.0510   32.5670 F   0  0  0  0  0  0  0  0  0  0  0  0
   37.2560   21.4660   30.9150 F   0  0  0  0  0  0  0  0  0  0  0  0
   35.0680   21.7300   30.4660 F   0  0  0  0  0  0  0  0  0  0  0  0
  1 13  1  0  0  0  0
  2  1  1  0  0  0  0
  2  6  1  0  0  0  0
  3  8  1  6  0  0  0
  3 29  1  0  0  0  0
  3  4  1  0  0  0  0
  3  2  1  0  0  0  0
  4  5  1  0  0  0  0
  4 10  1  0  0  0  0
  5 12  1  0  0  0  0
  5  1  1  0  0  0  0
  7  2  1  0  0  0  0
  9  4  1  0  0  0  0
 11  5  1  0  0  0  0
 13 14  2  0  0  0  0
 13 18  1  0  0  0  0
 14 15  1  0  0  0  0
 15 20  1  0  0  0  0
 15 16  2  0  0  0  0
 17 16  1  0  0  0  0
 17 21  1  0  0  0  0
 18 17  2  0  0  0  0
 19 14  1  0  0  0  0
 21 22  2  0  0  0  0
 22 23  1  0  0  0  0
 22 24  1  0  0  0  0
 24 25  1  0  0  0  0
 26 27  1  0  0  0  0
 26 24  2  0  0  0  0
 28 21  1  0  0  0  0
 28 26  1  0  0  0  0
 29 30  1  0  0  0  0
 31 29  1  0  0  0  0
 32 29  1  0  0  0  0
M  END
>  <minimizedAffinity>
-5.62061071

$$$$

 OpenBabel03272503283D

 32 34  0  0  1  0  0  0  0  0999 V2000
   34.8880   30.3360   32.9650 N   0  0  0  0  0  0  0  0  0  0  0  0
   34.8020   30.1160   34.3750 C   0  0  0  0  0  0  0  0  0  0  0  0
   34.7270   31.5340   34.9350 C   0  0  2  0  0  0  0  0  0  0  0  0
   34.8550   32.4670   33.7450 C   0  0  0  0  0  0  0  0  0  0  0  0
   34.1910   31.5750   32.6910 C   0  0  0  0  0  0  0  0  0  0  0  0
   35.7230   29.6480   34.7500 H   0  0  0  0  0  0  0  0  0  0  0  0
   33.8870   29.5430   34.6650 H   0  0  0  0  0  0  0  0  0  0  0  0
   33.7140   31.6840   35.3880 H   0  0  0  0  0  0  0  0  0  0  0  0
   34.2020   33.3270   33.8780 H   0  0  0  0  0  0  0  0  0  0  0  0
   35.8820   32.6820   33.4490 H   0  0  0  0  0  0  0  0  0  0  0  0
   33.1100   31.5340   32.8080 H   0  0  0  0  0  0  0  0  0  0  0  0
   34.5230   31.9620   31.6930 H   0  0  0  0  0  0  0  0  0  0  0  0
   35.5260   29.5140   31.9890 C   0  0  0  0  0  0  0  0  0  0  0  0
   36.1950   30.1650   30.9610 C   0  0  0  0  0  0  0  0  0  0  0  0
   36.8250   29.3610   29.9940 C   0  0  0  0  0  0  0  0  0  0  0  0
   36.7380   28.0100   30.1320 N   0  0  0  0  0  0  0  0  0  0  0  0
   36.0810   27.4140   31.1410 C   0  0  0  0  0  0  0  0  0  0  0  0
   35.4730   28.1680   32.0730 N   0  0  0  0  0  0  0  0  0  0  0  0
   36.2840   31.2190   30.8220 H   0  0  0  0  0  0  0  0  0  0  0  0
   37.3650   29.7760   29.1660 H   0  0  0  0  0  0  0  0  0  0  0  0
   35.9780   25.9770   31.3020 C   0  0  0  0  0  0  0  0  0  0  0  0
   35.0340   25.0400   30.9270 C   0  0  0  0  0  0  0  0  0  0  0  0
   34.1410   25.3240   30.3960 H   0  0  0  0  0  0  0  0  0  0  0  0
   35.5000   23.8170   31.3670 C   0  0  0  0  0  0  0  0  0  0  0  0
   34.9750   22.8810   31.2210 H   0  0  0  0  0  0  0  0  0  0  0  0
   36.7080   24.0690   31.9880 C   0  0  0  0  0  0  0  0  0  0  0  0
   37.3300   23.2850   32.4470 H   0  0  0  0  0  0  0  0  0  0  0  0
   36.9690   25.3620   31.9360 O   0  0  0  0  0  0  0  0  0  0  0  0
   35.7350   31.7970   36.0110 C   0  0  0  0  0  0  0  0  0  0  0  0
   36.5740   30.6900   36.0020 F   0  0  0  0  0  0  0  0  0  0  0  0
   35.0710   31.8080   37.2080 F   0  0  0  0  0  0  0  0  0  0  0  0
   36.4390   32.9550   35.8400 F   0  0  0  0  0  0  0  0  0  0  0  0
  1  2  1  0  0  0  0
  2  7  1  0  0  0  0
  2  6  1  0  0  0  0
  2  3  1  0  0  0  0
  3  8  1  1  0  0  0
  3 29  1  0  0  0  0
  4  9  1  0  0  0  0
  4  3  1  0  0  0  0
  5 11  1  0  0  0  0
  5  1  1  0  0  0  0
  5  4  1  0  0  0  0
 10  4  1  0  0  0  0
 12  5  1  0  0  0  0
 13 18  1  0  0  0  0
 13  1  1  0  0  0  0
 14 13  2  0  0  0  0
 15 16  2  0  0  0  0
 15 14  1  0  0  0  0
 16 17  1  0  0  0  0
 17 21  1  0  0  0  0
 17 18  2  0  0  0  0
 19 14  1  0  0  0  0
 20 15  1  0  0  0  0
 21 28  1  0  0  0  0
 22 21  2  0  0  0  0
 22 24  1  0  0  0  0
 23 22  1  0  0  0  0
 24 26  2  0  0  0  0
 25 24  1  0  0  0  0
 26 27  1  0  0  0  0
 28 26  1  0  0  0  0
 29 31  1  0  0  0  0
 30 29  1  0  0  0  0
 32 29  1  0  0  0  0
M  END
>  <minimizedAffinity>
-5.43408728

$$$$

 OpenBabel03272503283D

 32 34  0  0  1  0  0  0  0  0999 V2000
   38.0000   26.0470   34.4460 N   0  0  0  0  0  0  0  0  0  0  0  0
   38.5980   26.0570   35.7440 C   0  0  0  0  0  0  0  0  0  0  0  0
   38.7790   24.5720   36.0440 C   0  0  2  0  0  0  0  0  0  0  0  0
   38.1750   23.8250   34.8690 C   0  0  0  0  0  0  0  0  0  0  0  0
   38.4740   24.8550   33.7750 C   0  0  0  0  0  0  0  0  0  0  0  0
   37.9040   26.4750   36.4870 H   0  0  0  0  0  0  0  0  0  0  0  0
   39.5900   26.5720   35.7550 H   0  0  0  0  0  0  0  0  0  0  0  0
   39.8750   24.3460   36.0750 H   0  0  0  0  0  0  0  0  0  0  0  0
   38.7770   22.9480   34.6400 H   0  0  0  0  0  0  0  0  0  0  0  0
   37.0990   23.6670   34.9400 H   0  0  0  0  0  0  0  0  0  0  0  0
   39.5240   24.8680   33.4960 H   0  0  0  0  0  0  0  0  0  0  0  0
   37.7820   24.6230   32.9230 H   0  0  0  0  0  0  0  0  0  0  0  0
   37.1080   27.0110   33.8870 C   0  0  0  0  0  0  0  0  0  0  0  0
   36.6960   26.8000   32.5780 C   0  0  0  0  0  0  0  0  0  0  0  0
   35.8190   27.7460   32.0200 C   0  0  0  0  0  0  0  0  0  0  0  0
   35.4350   28.7970   32.7950 N   0  0  0  0  0  0  0  0  0  0  0  0
   35.8540   28.9690   34.0600 C   0  0  0  0  0  0  0  0  0  0  0  0
   36.6930   28.0740   34.6090 N   0  0  0  0  0  0  0  0  0  0  0  0
   36.9760   25.9910   31.9420 H   0  0  0  0  0  0  0  0  0  0  0  0
   35.4480   27.6650   31.0170 H   0  0  0  0  0  0  0  0  0  0  0  0
   35.4550   30.0820   34.8990 C   0  0  0  0  0  0  0  0  0  0  0  0
   36.1520   31.0110   35.6480 C   0  0  0  0  0  0  0  0  0  0  0  0
   37.2290   31.0030   35.6900 H   0  0  0  0  0  0  0  0  0  0  0  0
   35.2080   31.8290   36.2350 C   0  0  0  0  0  0  0  0  0  0  0  0
   35.4490   32.6600   36.8860 H   0  0  0  0  0  0  0  0  0  0  0  0
   33.9800   31.3580   35.8150 C   0  0  0  0  0  0  0  0  0  0  0  0
   33.0220   31.8080   36.1170 H   0  0  0  0  0  0  0  0  0  0  0  0
   34.1540   30.3180   35.0220 O   0  0  0  0  0  0  0  0  0  0  0  0
   38.2070   24.1640   37.3680 C   0  0  0  0  0  0  0  0  0  0  0  0
   39.0970   23.2280   37.8760 F   0  0  0  0  0  0  0  0  0  0  0  0
   37.0200   23.5250   37.1270 F   0  0  0  0  0  0  0  0  0  0  0  0
   38.0270   25.2020   38.2380 F   0  0  0  0  0  0  0  0  0  0  0  0
  1  2  1  0  0  0  0
  2  7  1  0  0  0  0
  2  3  1  0  0  0  0
  2  6  1  0  0  0  0
  3  8  1  1  0  0  0
  3 29  1  0  0  0  0
  4 10  1  0  0  0  0
  4  3  1  0  0  0  0
  5  1  1  0  0  0  0
  5  4  1  0  0  0  0
  9  4  1  0  0  0  0
 11  5  1  0  0  0  0
 12  5  1  0  0  0  0
 13  1  1  0  0  0  0
 13 18  1  0  0  0  0
 14 13  2  0  0  0  0
 15 14  1  0  0  0  0
 15 16  2  0  0  0  0
 16 17  1  0  0  0  0
 17 18  2  0  0  0  0
 17 21  1  0  0  0  0
 19 14  1  0  0  0  0
 20 15  1  0  0  0  0
 21 28  1  0  0  0  0
 21 22  2  0  0  0  0
 22 23  1  0  0  0  0
 22 24  1  0  0  0  0
 24 25  1  0  0  0  0
 26 27  1  0  0  0  0
 26 24  2  0  0  0  0
 28 26  1  0  0  0  0
 29 30  1  0  0  0  0
 29 32  1  0  0  0  0
 31 29  1  0  0  0  0
M  END
>  <minimizedAffinity>
-5.42131233

$$$$

 OpenBabel03272503283D

 32 34  0  0  1  0  0  0  0  0999 V2000
   37.5010   22.4240   32.2590 N   0  0  0  0  0  0  0  0  0  0  0  0
   37.5780   21.0100   32.4470 C   0  0  0  0  0  0  0  0  0  0  0  0
   36.3080   20.5080   31.7660 C   0  0  2  0  0  0  0  0  0  0  0  0
   35.5630   21.7440   31.2960 C   0  0  0  0  0  0  0  0  0  0  0  0
   36.7730   22.6430   31.0270 C   0  0  0  0  0  0  0  0  0  0  0  0
   37.5150   20.7580   33.5160 H   0  0  0  0  0  0  0  0  0  0  0  0
   38.4760   20.5590   31.9590 H   0  0  0  0  0  0  0  0  0  0  0  0
   36.6000   19.9130   30.8630 H   0  0  0  0  0  0  0  0  0  0  0  0
   35.1000   21.5510   30.3300 H   0  0  0  0  0  0  0  0  0  0  0  0
   34.9260   22.2020   32.0530 H   0  0  0  0  0  0  0  0  0  0  0  0
   37.3020   22.3630   30.1200 H   0  0  0  0  0  0  0  0  0  0  0  0
   36.3890   23.6970   31.0190 H   0  0  0  0  0  0  0  0  0  0  0  0
   38.0320   23.4490   33.0990 C   0  0  0  0  0  0  0  0  0  0  0  0
   38.4780   24.6050   32.4730 C   0  0  0  0  0  0  0  0  0  0  0  0
   39.0040   25.6180   33.2940 C   0  0  0  0  0  0  0  0  0  0  0  0
   39.0380   25.3980   34.6370 N   0  0  0  0  0  0  0  0  0  0  0  0
   38.5970   24.2660   35.2080 C   0  0  0  0  0  0  0  0  0  0  0  0
   38.0920   23.2860   34.4380 N   0  0  0  0  0  0  0  0  0  0  0  0
   38.4660   24.8110   31.4260 H   0  0  0  0  0  0  0  0  0  0  0  0
   39.3710   26.5450   32.8990 H   0  0  0  0  0  0  0  0  0  0  0  0
   38.6270   24.0160   36.6360 C   0  0  0  0  0  0  0  0  0  0  0  0
   39.2820   23.0930   37.4300 C   0  0  0  0  0  0  0  0  0  0  0  0
   39.9380   22.3520   37.0050 H   0  0  0  0  0  0  0  0  0  0  0  0
   38.9060   23.3600   38.7310 C   0  0  0  0  0  0  0  0  0  0  0  0
   39.2570   22.8000   39.5890 H   0  0  0  0  0  0  0  0  0  0  0  0
   38.0390   24.4330   38.6660 C   0  0  0  0  0  0  0  0  0  0  0  0
   37.5640   24.8840   39.5510 H   0  0  0  0  0  0  0  0  0  0  0  0
   37.8900   24.8040   37.4090 O   0  0  0  0  0  0  0  0  0  0  0  0
   35.4850   19.6100   32.6380 C   0  0  0  0  0  0  0  0  0  0  0  0
   36.1460   18.3900   32.6310 F   0  0  0  0  0  0  0  0  0  0  0  0
   34.2730   19.4340   32.0250 F   0  0  0  0  0  0  0  0  0  0  0  0
   35.3170   20.0770   33.9110 F   0  0  0  0  0  0  0  0  0  0  0  0
  1  2  1  0  0  0  0
  1 13  1  0  0  0  0
  2  6  1  0  0  0  0
  3  8  1  6  0  0  0
  3  2  1  0  0  0  0
  3 29  1  0  0  0  0
  4  3  1  0  0  0  0
  4 10  1  0  0  0  0
  5  4  1  0  0  0  0
  5  1  1  0  0  0  0
  7  2  1  0  0  0  0
  9  4  1  0  0  0  0
 11  5  1  0  0  0  0
 12  5  1  0  0  0  0
 13 18  1  0  0  0  0
 14 13  2  0  0  0  0
 14 15  1  0  0  0  0
 15 16  2  0  0  0  0
 16 17  1  0  0  0  0
 17 21  1  0  0  0  0
 18 17  2  0  0  0  0
 19 14  1  0  0  0  0
 20 15  1  0  0  0  0
 21 28  1  0  0  0  0
 21 22  2  0  0  0  0
 22 24  1  0  0  0  0
 23 22  1  0  0  0  0
 24 25  1  0  0  0  0
 26 24  2  0  0  0  0
 26 27  1  0  0  0  0
 28 26  1  0  0  0  0
 29 32  1  0  0  0  0
 30 29  1  0  0  0  0
 31 29  1  0  0  0  0
M  END
>  <minimizedAffinity>
-5.33291054

$$$$

 OpenBabel03272503283D

 32 34  0  0  1  0  0  0  0  0999 V2000
   38.5680   23.9490   34.4470 N   0  0  0  0  0  0  0  0  0  0  0  0
   38.9290   24.6580   35.6340 C   0  0  0  0  0  0  0  0  0  0  0  0
   39.1490   23.5360   36.6450 C   0  0  2  0  0  0  0  0  0  0  0  0
   38.8060   22.2440   35.9240 C   0  0  0  0  0  0  0  0  0  0  0  0
   39.2250   22.6610   34.5110 C   0  0  0  0  0  0  0  0  0  0  0  0
   38.0910   25.2770   35.9860 H   0  0  0  0  0  0  0  0  0  0  0  0
   39.8700   25.2500   35.5110 H   0  0  0  0  0  0  0  0  0  0  0  0
   40.2340   23.5070   36.9150 H   0  0  0  0  0  0  0  0  0  0  0  0
   39.4940   21.4580   36.2310 H   0  0  0  0  0  0  0  0  0  0  0  0
   37.7470   21.9900   35.9330 H   0  0  0  0  0  0  0  0  0  0  0  0
   40.3060   22.6860   34.3910 H   0  0  0  0  0  0  0  0  0  0  0  0
   38.7090   21.9580   33.8060 H   0  0  0  0  0  0  0  0  0  0  0  0
   37.7280   24.3960   33.3830 C   0  0  0  0  0  0  0  0  0  0  0  0
   37.2330   23.4240   32.5240 C   0  0  0  0  0  0  0  0  0  0  0  0
   36.4060   23.8570   31.4720 C   0  0  0  0  0  0  0  0  0  0  0  0
   36.1480   25.1890   31.3700 N   0  0  0  0  0  0  0  0  0  0  0  0
   36.6440   26.1020   32.2210 C   0  0  0  0  0  0  0  0  0  0  0  0
   37.4370   25.7060   33.2310 N   0  0  0  0  0  0  0  0  0  0  0  0
   37.4140   22.3740   32.5730 H   0  0  0  0  0  0  0  0  0  0  0  0
   35.9780   23.1780   30.7610 H   0  0  0  0  0  0  0  0  0  0  0  0
   36.3800   27.5240   32.1260 C   0  0  0  0  0  0  0  0  0  0  0  0
   36.2090   28.5290   33.0600 C   0  0  0  0  0  0  0  0  0  0  0  0
   36.2640   28.3270   34.1170 H   0  0  0  0  0  0  0  0  0  0  0  0
   35.9830   29.6900   32.3490 C   0  0  0  0  0  0  0  0  0  0  0  0
   35.8120   30.6560   32.8080 H   0  0  0  0  0  0  0  0  0  0  0  0
   36.0260   29.3370   31.0150 C   0  0  0  0  0  0  0  0  0  0  0  0
   35.8800   30.0540   30.1930 H   0  0  0  0  0  0  0  0  0  0  0  0
   36.2630   28.0430   30.9090 O   0  0  0  0  0  0  0  0  0  0  0  0
   38.3820   23.7300   37.9170 C   0  0  0  0  0  0  0  0  0  0  0  0
   38.0440   25.0760   37.9360 F   0  0  0  0  0  0  0  0  0  0  0  0
   39.2420   23.4990   38.9580 F   0  0  0  0  0  0  0  0  0  0  0  0
   37.2740   22.9380   38.0240 F   0  0  0  0  0  0  0  0  0  0  0  0
  1  5  1  0  0  0  0
  1  2  1  0  0  0  0
  2  6  1  0  0  0  0
  2  3  1  0  0  0  0
  3  8  1  1  0  0  0
  3 29  1  0  0  0  0
  4 10  1  0  0  0  0
  4  9  1  0  0  0  0
  4  3  1  0  0  0  0
  5  4  1  0  0  0  0
  7  2  1  0  0  0  0
 11  5  1  0  0  0  0
 12  5  1  0  0  0  0
 13  1  1  0  0  0  0
 14 19  1  0  0  0  0
 14 13  2  0  0  0  0
 15 14  1  0  0  0  0
 16 15  2  0  0  0  0
 16 17  1  0  0  0  0
 17 18  2  0  0  0  0
 18 13  1  0  0  0  0
 20 15  1  0  0  0  0
 21 17  1  0  0  0  0
 21 22  2  0  0  0  0
 22 23  1  0  0  0  0
 24 25  1  0  0  0  0
 24 22  1  0  0  0  0
 26 24  2  0  0  0  0
 27 26  1  0  0  0  0
 28 26  1  0  0  0  0
 28 21  1  0  0  0  0
 29 30  1  0  0  0  0
 29 32  1  0  0  0  0
 29 31  1  0  0  0  0
M  END
>  <minimizedAffinity>
-5.33220673

$$$$

 OpenBabel03272503283D

 32 34  0  0  1  0  0  0  0  0999 V2000
   38.4680   24.1370   34.5090 N   0  0  0  0  0  0  0  0  0  0  0  0
   37.9200   24.7570   35.6740 C   0  0  0  0  0  0  0  0  0  0  0  0
   38.9330   24.3970   36.7570 C   0  0  2  0  0  0  0  0  0  0  0  0
   39.9680   23.5090   36.0910 C   0  0  0  0  0  0  0  0  0  0  0  0
   39.9050   24.1120   34.6840 C   0  0  0  0  0  0  0  0  0  0  0  0
   36.9570   24.2970   35.9400 H   0  0  0  0  0  0  0  0  0  0  0  0
   37.8460   25.8670   35.5750 H   0  0  0  0  0  0  0  0  0  0  0  0
   39.4430   25.3350   37.0920 H   0  0  0  0  0  0  0  0  0  0  0  0
   40.9580   23.7390   36.4810 H   0  0  0  0  0  0  0  0  0  0  0  0
   39.6980   22.4540   36.0500 H   0  0  0  0  0  0  0  0  0  0  0  0
   40.3950   25.0800   34.6270 H   0  0  0  0  0  0  0  0  0  0  0  0
   40.3380   23.3440   33.9900 H   0  0  0  0  0  0  0  0  0  0  0  0
   37.7650   23.6320   33.3730 C   0  0  0  0  0  0  0  0  0  0  0  0
   37.5750   24.5090   32.3130 C   0  0  0  0  0  0  0  0  0  0  0  0
   36.8820   24.0200   31.1920 C   0  0  0  0  0  0  0  0  0  0  0  0
   36.4480   22.7300   31.2210 N   0  0  0  0  0  0  0  0  0  0  0  0
   36.6500   21.9100   32.2660 C   0  0  0  0  0  0  0  0  0  0  0  0
   37.3100   22.3620   33.3470 N   0  0  0  0  0  0  0  0  0  0  0  0
   37.9010   25.5230   32.2550 H   0  0  0  0  0  0  0  0  0  0  0  0
   36.6900   24.6240   30.3270 H   0  0  0  0  0  0  0  0  0  0  0  0
   36.1940   20.5350   32.3140 C   0  0  0  0  0  0  0  0  0  0  0  0
   35.5040   19.7900   33.2520 C   0  0  0  0  0  0  0  0  0  0  0  0
   35.1840   20.2210   34.1860 H   0  0  0  0  0  0  0  0  0  0  0  0
   35.3640   18.5240   32.7200 C   0  0  0  0  0  0  0  0  0  0  0  0
   34.8620   17.7080   33.2250 H   0  0  0  0  0  0  0  0  0  0  0  0
   35.9770   18.5590   31.4830 C   0  0  0  0  0  0  0  0  0  0  0  0
   36.0320   17.6910   30.8090 H   0  0  0  0  0  0  0  0  0  0  0  0
   36.4620   19.7660   31.2660 O   0  0  0  0  0  0  0  0  0  0  0  0
   38.3060   23.7780   37.9680 C   0  0  0  0  0  0  0  0  0  0  0  0
   37.9110   24.8470   38.7600 F   0  0  0  0  0  0  0  0  0  0  0  0
   39.2870   23.0990   38.6410 F   0  0  0  0  0  0  0  0  0  0  0  0
   37.2550   22.9510   37.6880 F   0  0  0  0  0  0  0  0  0  0  0  0
  1  5  1  0  0  0  0
  1  2  1  0  0  0  0
  2  6  1  0  0  0  0
  2  3  1  0  0  0  0
  3  8  1  1  0  0  0
  3 29  1  0  0  0  0
  4  9  1  0  0  0  0
  4  3  1  0  0  0  0
  5  4  1  0  0  0  0
  7  2  1  0  0  0  0
 10  4  1  0  0  0  0
 11  5  1  0  0  0  0
 12  5  1  0  0  0  0
 13  1  1  0  0  0  0
 14 13  2  0  0  0  0
 15 16  2  0  0  0  0
 15 14  1  0  0  0  0
 16 17  1  0  0  0  0
 17 21  1  0  0  0  0
 17 18  2  0  0  0  0
 18 13  1  0  0  0  0
 19 14  1  0  0  0  0
 20 15  1  0  0  0  0
 21 22  2  0  0  0  0
 22 23  1  0  0  0  0
 24 25  1  0  0  0  0
 24 22  1  0  0  0  0
 26 24  2  0  0  0  0
 27 26  1  0  0  0  0
 28 26  1  0  0  0  0
 28 21  1  0  0  0  0
 29 31  1  0  0  0  0
 29 30  1  0  0  0  0
 32 29  1  0  0  0  0
M  END
>  <minimizedAffinity>
-5.28530121

$$$$

 OpenBabel03272503283D

 32 34  0  0  1  0  0  0  0  0999 V2000
   38.4770   23.7650   34.3680 N   0  0  0  0  0  0  0  0  0  0  0  0
   38.8150   24.5740   35.4960 C   0  0  0  0  0  0  0  0  0  0  0  0
   39.1220   23.5390   36.5750 C   0  0  2  0  0  0  0  0  0  0  0  0
   38.8480   22.1830   35.9510 C   0  0  0  0  0  0  0  0  0  0  0  0
   39.2140   22.5270   34.5040 C   0  0  0  0  0  0  0  0  0  0  0  0
   37.9470   25.1640   35.8240 H   0  0  0  0  0  0  0  0  0  0  0  0
   39.7150   25.2120   35.3130 H   0  0  0  0  0  0  0  0  0  0  0  0
   40.2130   23.5960   36.8220 H   0  0  0  0  0  0  0  0  0  0  0  0
   39.5880   21.4630   36.2940 H   0  0  0  0  0  0  0  0  0  0  0  0
   37.8070   21.8660   36.0010 H   0  0  0  0  0  0  0  0  0  0  0  0
   40.2890   22.6090   34.3580 H   0  0  0  0  0  0  0  0  0  0  0  0
   38.7290   21.7470   33.8600 H   0  0  0  0  0  0  0  0  0  0  0  0
   37.5910   24.0860   33.2960 C   0  0  0  0  0  0  0  0  0  0  0  0
   36.9490   23.0240   32.6730 C   0  0  0  0  0  0  0  0  0  0  0  0
   36.0760   23.3320   31.6140 C   0  0  0  0  0  0  0  0  0  0  0  0
   35.9200   24.6410   31.2760 N   0  0  0  0  0  0  0  0  0  0  0  0
   36.5580   25.6440   31.9020 C   0  0  0  0  0  0  0  0  0  0  0  0
   37.3970   25.3670   32.9150 N   0  0  0  0  0  0  0  0  0  0  0  0
   37.0470   21.9890   32.9110 H   0  0  0  0  0  0  0  0  0  0  0  0
   35.5370   22.5780   31.0760 H   0  0  0  0  0  0  0  0  0  0  0  0
   36.4040   27.0420   31.5530 C   0  0  0  0  0  0  0  0  0  0  0  0
   35.6670   28.0830   32.0860 C   0  0  0  0  0  0  0  0  0  0  0  0
   35.0340   27.9400   32.9460 H   0  0  0  0  0  0  0  0  0  0  0  0
   35.9370   29.1920   31.3100 C   0  0  0  0  0  0  0  0  0  0  0  0
   35.5040   30.1700   31.4800 H   0  0  0  0  0  0  0  0  0  0  0  0
   36.8280   28.7730   30.3410 C   0  0  0  0  0  0  0  0  0  0  0  0
   37.2360   29.4360   29.5640 H   0  0  0  0  0  0  0  0  0  0  0  0
   37.0890   27.4900   30.5080 O   0  0  0  0  0  0  0  0  0  0  0  0
   38.3690   23.7740   37.8480 C   0  0  0  0  0  0  0  0  0  0  0  0
   37.1860   23.0610   37.7080 F   0  0  0  0  0  0  0  0  0  0  0  0
   38.0510   25.1050   37.9030 F   0  0  0  0  0  0  0  0  0  0  0  0
   39.0470   23.3950   38.9720 F   0  0  0  0  0  0  0  0  0  0  0  0
  1  5  1  0  0  0  0
  1  2  1  0  0  0  0
  2  6  1  0  0  0  0
  2  3  1  0  0  0  0
  3  8  1  1  0  0  0
  3 29  1  0  0  0  0
  4 10  1  0  0  0  0
  4  9  1  0  0  0  0
  4  3  1  0  0  0  0
  5  4  1  0  0  0  0
  7  2  1  0  0  0  0
 11  5  1  0  0  0  0
 12  5  1  0  0  0  0
 13  1  1  0  0  0  0
 14 19  1  0  0  0  0
 14 13  2  0  0  0  0
 15 14  1  0  0  0  0
 16 15  2  0  0  0  0
 16 17  1  0  0  0  0
 17 18  2  0  0  0  0
 18 13  1  0  0  0  0
 20 15  1  0  0  0  0
 21 17  1  0  0  0  0
 21 22  2  0  0  0  0
 22 23  1  0  0  0  0
 24 25  1  0  0  0  0
 24 22  1  0  0  0  0
 26 28  1  0  0  0  0
 26 24  2  0  0  0  0
 27 26  1  0  0  0  0
 28 21  1  0  0  0  0
 29 31  1  0  0  0  0
 29 32  1  0  0  0  0
 30 29  1  0  0  0  0
M  END
>  <minimizedAffinity>
-5.18967676

$$$$

 OpenBabel03272503283D

 32 34  0  0  1  0  0  0  0  0999 V2000
   37.8340   23.1790   33.7300 N   0  0  0  0  0  0  0  0  0  0  0  0
   37.5270   21.9640   34.4170 C   0  0  0  0  0  0  0  0  0  0  0  0
   36.9600   21.0820   33.3080 C   0  0  2  0  0  0  0  0  0  0  0  0
   36.9310   21.9410   32.0570 C   0  0  0  0  0  0  0  0  0  0  0  0
   38.1470   22.8200   32.3630 C   0  0  0  0  0  0  0  0  0  0  0  0
   36.7340   22.1300   35.1610 H   0  0  0  0  0  0  0  0  0  0  0  0
   38.4310   21.4820   34.8620 H   0  0  0  0  0  0  0  0  0  0  0  0
   37.6680   20.2330   33.1320 H   0  0  0  0  0  0  0  0  0  0  0  0
   37.1950   21.3390   31.1900 H   0  0  0  0  0  0  0  0  0  0  0  0
   36.0430   22.5650   31.9580 H   0  0  0  0  0  0  0  0  0  0  0  0
   39.0860   22.2870   32.2280 H   0  0  0  0  0  0  0  0  0  0  0  0
   38.0490   23.7330   31.7200 H   0  0  0  0  0  0  0  0  0  0  0  0
   37.8420   24.5050   34.2590 C   0  0  0  0  0  0  0  0  0  0  0  0
   38.3270   24.6620   35.5510 C   0  0  0  0  0  0  0  0  0  0  0  0
   38.3370   25.9640   36.0790 C   0  0  0  0  0  0  0  0  0  0  0  0
   37.8750   26.9760   35.2940 N   0  0  0  0  0  0  0  0  0  0  0  0
   37.4130   26.7870   34.0480 C   0  0  0  0  0  0  0  0  0  0  0  0
   37.3950   25.5470   33.5270 N   0  0  0  0  0  0  0  0  0  0  0  0
   38.6970   23.8940   36.1930 H   0  0  0  0  0  0  0  0  0  0  0  0
   38.6940   26.1810   37.0670 H   0  0  0  0  0  0  0  0  0  0  0  0
   36.9170   27.8520   33.1990 C   0  0  0  0  0  0  0  0  0  0  0  0
   37.1820   28.2400   31.8990 C   0  0  0  0  0  0  0  0  0  0  0  0
   37.8940   27.7080   31.2890 H   0  0  0  0  0  0  0  0  0  0  0  0
   36.3880   29.3400   31.6480 C   0  0  0  0  0  0  0  0  0  0  0  0
   36.3730   29.8730   30.7060 H   0  0  0  0  0  0  0  0  0  0  0  0
   35.6760   29.5700   32.8090 C   0  0  0  0  0  0  0  0  0  0  0  0
   34.9500   30.3890   32.9230 H   0  0  0  0  0  0  0  0  0  0  0  0
   36.0090   28.6710   33.7160 O   0  0  0  0  0  0  0  0  0  0  0  0
   35.6300   20.4840   33.6520 C   0  0  0  0  0  0  0  0  0  0  0  0
   34.7130   21.1500   32.8500 F   0  0  0  0  0  0  0  0  0  0  0  0
   35.3560   20.8050   34.9550 F   0  0  0  0  0  0  0  0  0  0  0  0
   35.5640   19.1320   33.4650 F   0  0  0  0  0  0  0  0  0  0  0  0
  1 13  1  0  0  0  0
  1  2  1  0  0  0  0
  2  7  1  0  0  0  0
  2  6  1  0  0  0  0
  3  8  1  6  0  0  0
  3 29  1  0  0  0  0
  3  2  1  0  0  0  0
  4  5  1  0  0  0  0
  4  3  1  0  0  0  0
  5  1  1  0  0  0  0
  9  4  1  0  0  0  0
 10  4  1  0  0  0  0
 11  5  1  0  0  0  0
 12  5  1  0  0  0  0
 13 14  1  0  0  0  0
 14 15  2  0  0  0  0
 14 19  1  0  0  0  0
 15 20  1  0  0  0  0
 16 15  1  0  0  0  0
 17 16  2  0  0  0  0
 18 17  1  0  0  0  0
 18 13  2  0  0  0  0
 21 28  1  0  0  0  0
 21 17  1  0  0  0  0
 22 21  2  0  0  0  0
 23 22  1  0  0  0  0
 24 22  1  0  0  0  0
 24 26  2  0  0  0  0
 25 24  1  0  0  0  0
 26 27  1  0  0  0  0
 26 28  1  0  0  0  0
 29 31  1  0  0  0  0
 30 29  1  0  0  0  0
 32 29  1  0  0  0  0
M  END
>  <minimizedAffinity>
-5.05729198

$$$$

 OpenBabel03272503283D

 32 34  0  0  1  0  0  0  0  0999 V2000
   36.0410   28.7190   33.3750 N   0  0  0  0  0  0  0  0  0  0  0  0
   35.2300   29.0950   34.4900 C   0  0  0  0  0  0  0  0  0  0  0  0
   35.0200   30.5900   34.2680 C   0  0  2  0  0  0  0  0  0  0  0  0
   35.8250   30.9520   33.0330 C   0  0  0  0  0  0  0  0  0  0  0  0
   35.7030   29.6170   32.2910 C   0  0  0  0  0  0  0  0  0  0  0  0
   35.7830   28.9630   35.4320 H   0  0  0  0  0  0  0  0  0  0  0  0
   34.2440   28.5690   34.5010 H   0  0  0  0  0  0  0  0  0  0  0  0
   33.9380   30.7680   34.0430 H   0  0  0  0  0  0  0  0  0  0  0  0
   35.2820   31.6860   32.4400 H   0  0  0  0  0  0  0  0  0  0  0  0
   36.8750   31.1700   33.2270 H   0  0  0  0  0  0  0  0  0  0  0  0
   34.7160   29.4730   31.8600 H   0  0  0  0  0  0  0  0  0  0  0  0
   36.5330   29.5970   31.5360 H   0  0  0  0  0  0  0  0  0  0  0  0
   37.0020   27.6660   33.3070 C   0  0  0  0  0  0  0  0  0  0  0  0
   37.8090   27.6250   32.1780 C   0  0  0  0  0  0  0  0  0  0  0  0
   38.7570   26.5900   32.1030 C   0  0  0  0  0  0  0  0  0  0  0  0
   38.8200   25.7060   33.1360 N   0  0  0  0  0  0  0  0  0  0  0  0
   38.0230   25.7770   34.2150 C   0  0  0  0  0  0  0  0  0  0  0  0
   37.1100   26.7600   34.3020 N   0  0  0  0  0  0  0  0  0  0  0  0
   37.7880   28.2990   31.3510 H   0  0  0  0  0  0  0  0  0  0  0  0
   39.4230   26.4790   31.2700 H   0  0  0  0  0  0  0  0  0  0  0  0
   38.0770   24.8440   35.3230 C   0  0  0  0  0  0  0  0  0  0  0  0
   38.0900   24.9930   36.6970 C   0  0  0  0  0  0  0  0  0  0  0  0
   38.0560   25.9670   37.1560 H   0  0  0  0  0  0  0  0  0  0  0  0
   38.1490   23.7210   37.2280 C   0  0  0  0  0  0  0  0  0  0  0  0
   38.1730   23.5090   38.2900 H   0  0  0  0  0  0  0  0  0  0  0  0
   38.1690   22.8560   36.1510 C   0  0  0  0  0  0  0  0  0  0  0  0
   38.2150   21.7620   36.2520 H   0  0  0  0  0  0  0  0  0  0  0  0
   38.1250   23.5500   35.0290 O   0  0  0  0  0  0  0  0  0  0  0  0
   35.3640   31.4190   35.4680 C   0  0  0  0  0  0  0  0  0  0  0  0
   35.5550   32.7040   34.9800 F   0  0  0  0  0  0  0  0  0  0  0  0
   36.5660   30.9720   35.9490 F   0  0  0  0  0  0  0  0  0  0  0  0
   34.4140   31.3950   36.4490 F   0  0  0  0  0  0  0  0  0  0  0  0
  1  2  1  0  0  0  0
  2  7  1  0  0  0  0
  2  6  1  0  0  0  0
  3  8  1  6  0  0  0
  3  2  1  0  0  0  0
  3 29  1  0  0  0  0
  4 10  1  0  0  0  0
  4  3  1  0  0  0  0
  5  4  1  0  0  0  0
  5  1  1  0  0  0  0
  9  4  1  0  0  0  0
 11  5  1  0  0  0  0
 12  5  1  0  0  0  0
 13  1  1  0  0  0  0
 13 18  1  0  0  0  0
 14 13  2  0  0  0  0
 15 14  1  0  0  0  0
 15 16  2  0  0  0  0
 16 17  1  0  0  0  0
 17 18  2  0  0  0  0
 17 21  1  0  0  0  0
 19 14  1  0  0  0  0
 20 15  1  0  0  0  0
 21 22  2  0  0  0  0
 22 23  1  0  0  0  0
 22 24  1  0  0  0  0
 24 25  1  0  0  0  0
 26 27  1  0  0  0  0
 26 24  2  0  0  0  0
 28 21  1  0  0  0  0
 28 26  1  0  0  0  0
 29 31  1  0  0  0  0
 29 32  1  0  0  0  0
 30 29  1  0  0  0  0
M  END
>  <minimizedAffinity>
-4.96306419

$$$$
