
 OpenBabel03272505123D

 38 41  0  0  0  0  0  0  0  0999 V2000
   36.4090   30.8500   45.6290 Cl  0  0  0  0  0  0  0  0  0  0  0  0
   36.6710   30.7100   47.3420 C   0  0  0  0  0  0  0  0  0  0  0  0
   37.9090   31.0440   47.8310 C   0  0  0  0  0  0  0  0  0  0  0  0
   38.1210   30.9330   49.1930 C   0  0  0  0  0  0  0  0  0  0  0  0
   37.1140   30.5020   50.0120 C   0  0  0  0  0  0  0  0  0  0  0  0
   35.8850   30.1790   49.4530 C   0  0  0  0  0  0  0  0  0  0  0  0
   35.5980   30.2620   48.1160 C   0  0  0  0  0  0  0  0  0  0  0  0
   39.1060   31.2030   49.5570 H   0  0  0  0  0  0  0  0  0  0  0  0
   37.2650   30.4110   51.0770 H   0  0  0  0  0  0  0  0  0  0  0  0
   35.1000   29.8380   50.1230 H   0  0  0  0  0  0  0  0  0  0  0  0
   40.1830   33.3050   46.0870 C   0  0  0  0  0  0  0  0  0  0  0  0
   40.9140   32.4610   45.2130 C   0  0  0  0  0  0  0  0  0  0  0  0
   40.6020   31.0980   45.2420 C   0  0  0  0  0  0  0  0  0  0  0  0
   39.6280   30.6630   46.0960 N   0  0  0  0  0  0  0  0  0  0  0  0
   38.9670   31.5060   46.9020 C   0  0  0  0  0  0  0  0  0  0  0  0
   39.2450   32.8140   46.8960 N   0  0  0  0  0  0  0  0  0  0  0  0
   40.4040   34.3450   46.0840 H   0  0  0  0  0  0  0  0  0  0  0  0
   41.6670   32.8310   44.5620 H   0  0  0  0  0  0  0  0  0  0  0  0
   41.1040   30.3750   44.6140 H   0  0  0  0  0  0  0  0  0  0  0  0
   34.0320   29.8530   47.3900 S   0  0  0  0  0  0  0  0  0  0  0  0
   33.9140   28.9920   44.3740 Cl  0  0  0  0  0  0  0  0  0  0  0  0
   33.8730   27.8080   45.6470 C   0  0  0  0  0  0  0  0  0  0  0  0
   33.9180   28.1050   47.0090 C   0  0  0  0  0  0  0  0  0  0  0  0
   33.8760   27.0820   47.9370 C   0  0  0  0  0  0  0  0  0  0  0  0
   33.7890   25.7750   47.5270 C   0  0  0  0  0  0  0  0  0  0  0  0
   33.7400   25.4200   46.1880 C   0  0  0  0  0  0  0  0  0  0  0  0
   33.7860   26.4740   45.2880 C   0  0  0  0  0  0  0  0  0  0  0  0
   33.9150   27.3990   48.9740 H   0  0  0  0  0  0  0  0  0  0  0  0
   33.7580   25.0170   48.3000 H   0  0  0  0  0  0  0  0  0  0  0  0
   33.6730   24.4050   45.8710 H   0  0  0  0  0  0  0  0  0  0  0  0
   33.7360   26.1160   43.8660 C   0  0  0  0  0  0  0  0  0  0  0  0
   32.6650   25.8590   43.0750 C   0  0  0  0  0  0  0  0  0  0  0  0
   31.6340   25.9000   43.4580 H   0  0  0  0  0  0  0  0  0  0  0  0
   33.0260   25.5550   41.7790 C   0  0  0  0  0  0  0  0  0  0  0  0
   32.4070   25.3080   40.9280 H   0  0  0  0  0  0  0  0  0  0  0  0
   34.4100   25.6490   41.8540 C   0  0  0  0  0  0  0  0  0  0  0  0
   35.1110   25.4780   41.0210 H   0  0  0  0  0  0  0  0  0  0  0  0
   34.7680   25.9720   43.0700 O   0  0  0  0  0  0  0  0  0  0  0  0
  1  2  1  0  0  0  0
  2  3  2  0  0  0  0
  2  7  1  0  0  0  0
  3  4  1  0  0  0  0
  4  8  1  0  0  0  0
  4  5  2  0  0  0  0
  5  9  1  0  0  0  0
  6  5  1  0  0  0  0
  6 10  1  0  0  0  0
  7  6  2  0  0  0  0
 11 16  1  0  0  0  0
 12 13  1  0  0  0  0
 12 11  2  0  0  0  0
 13 14  2  0  0  0  0
 14 15  1  0  0  0  0
 15  3  1  0  0  0  0
 16 15  2  0  0  0  0
 17 11  1  0  0  0  0
 18 12  1  0  0  0  0
 19 13  1  0  0  0  0
 20  7  1  0  0  0  0
 21 22  1  0  0  0  0
 22 23  1  0  0  0  0
 23 20  1  0  0  0  0
 23 24  2  0  0  0  0
 24 28  1  0  0  0  0
 25 24  1  0  0  0  0
 25 29  1  0  0  0  0
 26 25  2  0  0  0  0
 27 22  2  0  0  0  0
 27 26  1  0  0  0  0
 30 26  1  0  0  0  0
 31 27  1  0  0  0  0
 32 33  1  0  0  0  0
 32 31  2  0  0  0  0
 34 36  2  0  0  0  0
 34 32  1  0  0  0  0
 35 34  1  0  0  0  0
 36 38  1  0  0  0  0
 37 36  1  0  0  0  0
 38 31  1  0  0  0  0
M  END
>  <minimizedAffinity>
-5.60744095

>  <minimizedRMSD>
0.305356324

$$$$
