
 OpenBabel03272508123D

 33 35  0  0  0  0  0  0  0  0999 V2000
   36.6760   29.4380   44.0550 Cl  0  0  0  0  0  0  0  0  0  0  0  0
   38.3200   29.8350   43.5230 C   0  0  0  0  0  0  0  0  0  0  0  0
   39.3190   30.3340   44.3580 C   0  0  0  0  0  0  0  0  0  0  0  0
   40.5590   30.6020   43.8020 C   0  0  0  0  0  0  0  0  0  0  0  0
   40.7870   30.3800   42.4690 C   0  0  0  0  0  0  0  0  0  0  0  0
   39.8310   29.8950   41.6400 C   0  0  0  0  0  0  0  0  0  0  0  0
   38.5880   29.6180   42.1570 C   0  0  0  0  0  0  0  0  0  0  0  0
   41.2520   30.9830   44.5420 H   0  0  0  0  0  0  0  0  0  0  0  0
   41.7810   30.6150   42.1170 H   0  0  0  0  0  0  0  0  0  0  0  0
   40.0200   29.7220   40.5870 H   0  0  0  0  0  0  0  0  0  0  0  0
   37.5360   29.0940   41.2860 C   0  0  0  0  0  0  0  0  0  0  0  0
   37.3810   27.7720   40.9270 C   0  0  0  0  0  0  0  0  0  0  0  0
   37.9600   26.9090   41.1930 H   0  0  0  0  0  0  0  0  0  0  0  0
   36.2730   27.6760   40.0940 C   0  0  0  0  0  0  0  0  0  0  0  0
   35.7820   26.8710   39.5810 H   0  0  0  0  0  0  0  0  0  0  0  0
   35.8020   28.9900   39.9900 C   0  0  0  0  0  0  0  0  0  0  0  0
   34.9420   29.3270   39.4190 H   0  0  0  0  0  0  0  0  0  0  0  0
   36.5770   29.7730   40.7060 O   0  0  0  0  0  0  0  0  0  0  0  0
   38.8760   30.4780   45.6440 O   0  0  0  0  0  0  0  0  0  0  0  0
   39.4380   32.5210   47.1240 O   0  0  0  0  0  0  0  0  0  0  0  0
   38.3060   31.8390   46.4240 P   0  0  1  0  0  0  0  0  0  0  0  0
   37.7180   32.8490   45.1730 O   0  0  0  0  0  0  0  0  0  0  0  0
   38.3440   33.6110   45.0520 H   0  0  0  0  0  0  0  0  0  0  0  0
   37.0270   31.4180   47.4530 O   0  0  0  0  0  0  0  0  0  0  0  0
   37.6100   30.5300   50.9860 C   0  0  0  0  0  0  0  0  0  0  0  0
   37.6990   31.3000   49.8230 C   0  0  0  0  0  0  0  0  0  0  0  0
   37.0700   30.8440   48.6690 C   0  0  0  0  0  0  0  0  0  0  0  0
   36.3930   29.6580   48.7370 N   0  0  0  0  0  0  0  0  0  0  0  0
   36.3280   28.9390   49.8780 C   0  0  0  0  0  0  0  0  0  0  0  0
   36.9320   29.3730   50.9950 N   0  0  0  0  0  0  0  0  0  0  0  0
   38.1240   30.9480   51.8420 H   0  0  0  0  0  0  0  0  0  0  0  0
   38.2040   32.2270   49.6930 H   0  0  0  0  0  0  0  0  0  0  0  0
   35.7830   27.9920   49.9180 H   0  0  0  0  0  0  0  0  0  0  0  0
  2  1  1  0  0  0  0
  2  3  1  0  0  0  0
  3 19  1  0  0  0  0
  4  3  2  0  0  0  0
  4  8  1  0  0  0  0
  5  4  1  0  0  0  0
  6  7  1  0  0  0  0
  6  5  2  0  0  0  0
  7  2  2  0  0  0  0
  9  5  1  0  0  0  0
 10  6  1  0  0  0  0
 11  7  1  0  0  0  0
 12 13  1  0  0  0  0
 12 11  2  0  0  0  0
 14 12  1  0  0  0  0
 15 14  1  0  0  0  0
 16 14  2  0  0  0  0
 16 18  1  0  0  0  0
 17 16  1  0  0  0  0
 18 11  1  0  0  0  0
 19 21  1  0  0  0  0
 21 20  2  1  0  0  0
 21 24  1  0  0  0  0
 22 21  1  0  0  0  0
 23 22  1  0  0  0  0
 24 27  1  0  0  0  0
 25 30  1  0  0  0  0
 25 31  1  0  0  0  0
 26 25  2  0  0  0  0
 27 28  2  0  0  0  0
 27 26  1  0  0  0  0
 28 29  1  0  0  0  0
 29 33  1  0  0  0  0
 29 30  2  0  0  0  0
 32 26  1  0  0  0  0
M  END
>  <minimizedAffinity>
-4.79929304

>  <minimizedRMSD>
0.0895859227

$$$$
