
 OpenBabel03272505593D

 43 46  0  0  1  0  0  0  0  0999 V2000
   34.9710   30.0970   50.1120 C   0  0  2  0  0  0  0  0  0  0  0  0
   35.9200   31.0570   49.4950 C   0  0  0  0  0  0  0  0  0  0  0  0
   37.3870   30.6220   49.6340 C   0  0  2  0  0  0  0  0  0  0  0  0
   37.7980   30.3770   51.0230 C   0  0  0  0  0  0  0  0  0  0  0  0
   36.7400   29.6850   51.8620 C   0  0  0  0  0  0  0  0  0  0  0  0
   35.6490   29.0960   51.0170 C   0  0  0  0  0  0  0  0  0  0  0  0
   34.2050   30.6210   50.7580 H   0  0  0  0  0  0  0  0  0  0  0  0
   35.8470   31.3450   48.4760 H   0  0  0  0  0  0  0  0  0  0  0  0
   35.8720   32.0130   50.1000 H   0  0  0  0  0  0  0  0  0  0  0  0
   37.4950   29.7680   48.9730 H   0  0  0  0  0  0  0  0  0  0  0  0
   38.0850   31.2780   51.6000 H   0  0  0  0  0  0  0  0  0  0  0  0
   38.7450   29.7670   50.9930 H   0  0  0  0  0  0  0  0  0  0  0  0
   36.3460   30.3220   52.6720 H   0  0  0  0  0  0  0  0  0  0  0  0
   37.2340   28.8330   52.3720 H   0  0  0  0  0  0  0  0  0  0  0  0
   34.8910   28.6790   51.6990 H   0  0  0  0  0  0  0  0  0  0  0  0
   36.0400   28.2920   50.3850 H   0  0  0  0  0  0  0  0  0  0  0  0
   38.0170   30.3750   46.7770 Cl  0  0  0  0  0  0  0  0  0  0  0  0
   38.5350   31.7510   47.7350 C   0  0  0  0  0  0  0  0  0  0  0  0
   38.1560   31.7630   49.0620 C   0  0  0  0  0  0  0  0  0  0  0  0
   38.5990   32.8880   49.7440 C   0  0  0  0  0  0  0  0  0  0  0  0
   39.3390   33.8800   49.1430 C   0  0  0  0  0  0  0  0  0  0  0  0
   39.6770   33.7980   47.8220 C   0  0  0  0  0  0  0  0  0  0  0  0
   39.2590   32.6900   47.0850 C   0  0  0  0  0  0  0  0  0  0  0  0
   38.3250   32.9500   50.7970 H   0  0  0  0  0  0  0  0  0  0  0  0
   39.6510   34.7320   49.7440 H   0  0  0  0  0  0  0  0  0  0  0  0
   40.2540   34.6100   47.4290 H   0  0  0  0  0  0  0  0  0  0  0  0
   39.6760   32.7050   45.6930 C   0  0  0  0  0  0  0  0  0  0  0  0
   39.7720   33.7080   44.7550 C   0  0  0  0  0  0  0  0  0  0  0  0
   39.5420   34.7390   44.8850 H   0  0  0  0  0  0  0  0  0  0  0  0
   40.2170   33.2730   43.5470 C   0  0  0  0  0  0  0  0  0  0  0  0
   40.4140   33.7340   42.6090 H   0  0  0  0  0  0  0  0  0  0  0  0
   40.3920   31.9380   43.7870 C   0  0  0  0  0  0  0  0  0  0  0  0
   40.7360   31.0970   43.1640 H   0  0  0  0  0  0  0  0  0  0  0  0
   40.0800   31.6660   44.9960 O   0  0  0  0  0  0  0  0  0  0  0  0
   34.1910   29.3410   49.1210 C   0  0  0  0  0  0  0  0  0  0  0  0
   34.3900   29.7200   47.7920 C   0  0  0  0  0  0  0  0  0  0  0  0
   33.6830   29.0180   46.8060 C   0  0  0  0  0  0  0  0  0  0  0  0
   32.8260   27.9930   47.1920 N   0  0  0  0  0  0  0  0  0  0  0  0
   32.6680   27.6680   48.4880 C   0  0  0  0  0  0  0  0  0  0  0  0
   33.3500   28.3450   49.4150 N   0  0  0  0  0  0  0  0  0  0  0  0
   34.9460   30.4320   47.2130 H   0  0  0  0  0  0  0  0  0  0  0  0
   33.6500   29.0980   45.7390 H   0  0  0  0  0  0  0  0  0  0  0  0
   32.0180   26.8880   48.8140 H   0  0  0  0  0  0  0  0  0  0  0  0
  1  7  1  1  0  0  0
  1  6  1  0  0  0  0
  2  3  1  0  0  0  0
  2  9  1  0  0  0  0
  2  1  1  0  0  0  0
  3 10  1  6  0  0  0
  3  4  1  0  0  0  0
  4 11  1  0  0  0  0
  4  5  1  0  0  0  0
  5 14  1  0  0  0  0
  5 13  1  0  0  0  0
  6 15  1  0  0  0  0
  6  5  1  0  0  0  0
  8  2  1  0  0  0  0
 12  4  1  0  0  0  0
 16  6  1  0  0  0  0
 17 18  1  0  0  0  0
 18 19  1  0  0  0  0
 19  3  1  0  0  0  0
 19 20  2  0  0  0  0
 20 24  1  0  0  0  0
 21 20  1  0  0  0  0
 21 25  1  0  0  0  0
 22 21  2  0  0  0  0
 23 18  2  0  0  0  0
 23 22  1  0  0  0  0
 26 22  1  0  0  0  0
 27 23  1  0  0  0  0
 28 29  1  0  0  0  0
 28 27  2  0  0  0  0
 30 32  2  0  0  0  0
 30 28  1  0  0  0  0
 31 30  1  0  0  0  0
 32 34  1  0  0  0  0
 33 32  1  0  0  0  0
 34 27  1  0  0  0  0
 35 40  1  0  0  0  0
 35  1  1  0  0  0  0
 36 35  2  0  0  0  0
 37 38  2  0  0  0  0
 37 36  1  0  0  0  0
 38 39  1  0  0  0  0
 39 43  1  0  0  0  0
 39 40  2  0  0  0  0
 41 36  1  0  0  0  0
 42 37  1  0  0  0  0
M  END
>  <minimizedAffinity>
-7.5128479

>  <minimizedRMSD>
0.545046866

$$$$
