
 OpenBabel03272508013D

 20 21  0  0  0  0  0  0  0  0999 V2000
   37.9510   24.9010   34.9200 C   0  0  0  0  0  0  0  0  0  0  0  0
   37.8600   24.8900   36.3320 C   0  0  0  0  0  0  0  0  0  0  0  0
   38.3730   23.7800   37.0080 C   0  0  0  0  0  0  0  0  0  0  0  0
   38.9230   22.7870   36.2700 N   0  0  0  0  0  0  0  0  0  0  0  0
   39.0000   22.8160   34.9240 C   0  0  0  0  0  0  0  0  0  0  0  0
   38.5050   23.8890   34.2680 N   0  0  0  0  0  0  0  0  0  0  0  0
   37.4070   25.7250   36.8280 H   0  0  0  0  0  0  0  0  0  0  0  0
   39.4580   21.9740   34.4180 H   0  0  0  0  0  0  0  0  0  0  0  0
   37.4210   26.0540   34.2010 C   0  0  0  0  0  0  0  0  0  0  0  0
   37.1150   27.2960   34.7150 C   0  0  0  0  0  0  0  0  0  0  0  0
   37.2360   27.5740   35.7550 H   0  0  0  0  0  0  0  0  0  0  0  0
   36.6420   28.0790   33.6780 C   0  0  0  0  0  0  0  0  0  0  0  0
   36.3370   29.1140   33.8630 H   0  0  0  0  0  0  0  0  0  0  0  0
   36.6850   27.2570   32.5600 C   0  0  0  0  0  0  0  0  0  0  0  0
   36.3560   27.6580   31.6100 H   0  0  0  0  0  0  0  0  0  0  0  0
   37.1440   26.0840   32.9040 O   0  0  0  0  0  0  0  0  0  0  0  0
   38.2870   23.7480   38.4900 C   0  0  0  0  0  0  0  0  0  0  0  0
   39.5290   23.4340   38.9380 F   0  0  0  0  0  0  0  0  0  0  0  0
   37.9130   24.9540   39.0330 F   0  0  0  0  0  0  0  0  0  0  0  0
   37.3840   22.7700   38.9280 F   0  0  0  0  0  0  0  0  0  0  0  0
  1  2  1  0  0  0  0
  2  7  1  0  0  0  0
  2  3  2  0  0  0  0
  3 17  1  0  0  0  0
  4  3  1  0  0  0  0
  5  4  2  0  0  0  0
  6  1  2  0  0  0  0
  6  5  1  0  0  0  0
  8  5  1  0  0  0  0
  9 10  2  0  0  0  0
  9  1  1  0  0  0  0
 10 11  1  0  0  0  0
 12 13  1  0  0  0  0
 12 10  1  0  0  0  0
 14 16  1  0  0  0  0
 14 12  2  0  0  0  0
 15 14  1  0  0  0  0
 16  9  1  0  0  0  0
 17 20  1  0  0  0  0
 17 18  1  0  0  0  0
 17 19  1  0  0  0  0
M  END
>  <minimizedAffinity>
-4.91254234

$$$$

 OpenBabel03272508013D

 20 21  0  0  0  0  0  0  0  0999 V2000
   37.8170   22.4840   34.6870 C   0  0  0  0  0  0  0  0  0  0  0  0
   37.6790   22.5680   36.0920 C   0  0  0  0  0  0  0  0  0  0  0  0
   38.4130   23.5520   36.7610 C   0  0  0  0  0  0  0  0  0  0  0  0
   39.2090   24.3600   36.0220 N   0  0  0  0  0  0  0  0  0  0  0  0
   39.3280   24.2640   34.6820 C   0  0  0  0  0  0  0  0  0  0  0  0
   38.6180   23.3140   34.0330 N   0  0  0  0  0  0  0  0  0  0  0  0
   37.0220   21.8830   36.5900 H   0  0  0  0  0  0  0  0  0  0  0  0
   39.9900   24.9560   34.1750 H   0  0  0  0  0  0  0  0  0  0  0  0
   37.0560   21.4630   33.9760 C   0  0  0  0  0  0  0  0  0  0  0  0
   35.8990   20.8380   34.3900 C   0  0  0  0  0  0  0  0  0  0  0  0
   35.3980   21.0390   35.3290 H   0  0  0  0  0  0  0  0  0  0  0  0
   35.5250   19.9430   33.4040 C   0  0  0  0  0  0  0  0  0  0  0  0
   34.6250   19.3330   33.5260 H   0  0  0  0  0  0  0  0  0  0  0  0
   36.4950   20.0700   32.4180 C   0  0  0  0  0  0  0  0  0  0  0  0
   36.4130   19.4570   31.5300 H   0  0  0  0  0  0  0  0  0  0  0  0
   37.3710   20.9660   32.7870 O   0  0  0  0  0  0  0  0  0  0  0  0
   38.2830   23.6560   38.2360 C   0  0  0  0  0  0  0  0  0  0  0  0
   39.4820   23.2860   38.7530 F   0  0  0  0  0  0  0  0  0  0  0  0
   37.9940   24.9320   38.6620 F   0  0  0  0  0  0  0  0  0  0  0  0
   37.2900   22.7960   38.7230 F   0  0  0  0  0  0  0  0  0  0  0  0
  1  2  1  0  0  0  0
  2  7  1  0  0  0  0
  2  3  2  0  0  0  0
  3 17  1  0  0  0  0
  4  3  1  0  0  0  0
  5  4  2  0  0  0  0
  6  5  1  0  0  0  0
  6  1  2  0  0  0  0
  8  5  1  0  0  0  0
  9 10  2  0  0  0  0
  9  1  1  0  0  0  0
 10 11  1  0  0  0  0
 12 13  1  0  0  0  0
 12 10  1  0  0  0  0
 14 16  1  0  0  0  0
 14 12  2  0  0  0  0
 15 14  1  0  0  0  0
 16  9  1  0  0  0  0
 17 19  1  0  0  0  0
 17 20  1  0  0  0  0
 17 18  1  0  0  0  0
M  END
>  <minimizedAffinity>
-4.72569466

$$$$

 OpenBabel03272508013D

 20 21  0  0  0  0  0  0  0  0999 V2000
   38.3890   24.5400   36.2600 C   0  0  0  0  0  0  0  0  0  0  0  0
   39.5670   23.7810   36.0650 C   0  0  0  0  0  0  0  0  0  0  0  0
   40.0160   22.9920   37.1290 C   0  0  0  0  0  0  0  0  0  0  0  0
   39.2950   23.0060   38.2750 N   0  0  0  0  0  0  0  0  0  0  0  0
   38.1750   23.7370   38.4410 C   0  0  0  0  0  0  0  0  0  0  0  0
   37.7390   24.5000   37.4140 N   0  0  0  0  0  0  0  0  0  0  0  0
   40.0680   23.8350   35.1200 H   0  0  0  0  0  0  0  0  0  0  0  0
   37.6650   23.6840   39.3950 H   0  0  0  0  0  0  0  0  0  0  0  0
   37.9090   25.3670   35.1580 C   0  0  0  0  0  0  0  0  0  0  0  0
   37.5360   26.6940   35.2050 C   0  0  0  0  0  0  0  0  0  0  0  0
   37.5560   27.3030   36.1010 H   0  0  0  0  0  0  0  0  0  0  0  0
   37.1490   27.0700   33.9320 C   0  0  0  0  0  0  0  0  0  0  0  0
   36.8110   28.0920   33.7380 H   0  0  0  0  0  0  0  0  0  0  0  0
   37.3080   25.9290   33.1570 C   0  0  0  0  0  0  0  0  0  0  0  0
   37.0630   25.9800   32.1050 H   0  0  0  0  0  0  0  0  0  0  0  0
   37.7530   24.9560   33.9070 O   0  0  0  0  0  0  0  0  0  0  0  0
   41.2500   22.1880   36.9460 C   0  0  0  0  0  0  0  0  0  0  0  0
   42.2850   23.0670   36.9570 F   0  0  0  0  0  0  0  0  0  0  0  0
   41.4440   21.2650   37.9470 F   0  0  0  0  0  0  0  0  0  0  0  0
   41.2410   21.5100   35.7200 F   0  0  0  0  0  0  0  0  0  0  0  0
  1  6  1  0  0  0  0
  2  1  2  0  0  0  0
  2  3  1  0  0  0  0
  3  4  2  0  0  0  0
  4  5  1  0  0  0  0
  5  8  1  0  0  0  0
  6  5  2  0  0  0  0
  7  2  1  0  0  0  0
  9 10  2  0  0  0  0
  9  1  1  0  0  0  0
 10 11  1  0  0  0  0
 12 10  1  0  0  0  0
 13 12  1  0  0  0  0
 14 16  1  0  0  0  0
 14 12  2  0  0  0  0
 15 14  1  0  0  0  0
 16  9  1  0  0  0  0
 17 18  1  0  0  0  0
 17  3  1  0  0  0  0
 17 19  1  0  0  0  0
 20 17  1  0  0  0  0
M  END
>  <minimizedAffinity>
-4.48803616

$$$$

 OpenBabel03272508013D

 20 21  0  0  0  0  0  0  0  0999 V2000
   37.8660   22.2170   35.8680 C   0  0  0  0  0  0  0  0  0  0  0  0
   39.2500   21.9190   35.8610 C   0  0  0  0  0  0  0  0  0  0  0  0
   40.0230   22.3960   36.9230 C   0  0  0  0  0  0  0  0  0  0  0  0
   39.4000   23.1110   37.8890 N   0  0  0  0  0  0  0  0  0  0  0  0
   38.0800   23.3860   37.8780 C   0  0  0  0  0  0  0  0  0  0  0  0
   37.3300   22.9260   36.8520 N   0  0  0  0  0  0  0  0  0  0  0  0
   39.6510   21.3440   35.0510 H   0  0  0  0  0  0  0  0  0  0  0  0
   37.6700   23.9670   38.6950 H   0  0  0  0  0  0  0  0  0  0  0  0
   37.0470   21.7260   34.7660 C   0  0  0  0  0  0  0  0  0  0  0  0
   35.9820   20.8530   34.8370 C   0  0  0  0  0  0  0  0  0  0  0  0
   35.6140   20.4100   35.7540 H   0  0  0  0  0  0  0  0  0  0  0  0
   35.5020   20.6660   33.5530 C   0  0  0  0  0  0  0  0  0  0  0  0
   34.6500   20.0030   33.3740 H   0  0  0  0  0  0  0  0  0  0  0  0
   36.3170   21.4510   32.7480 C   0  0  0  0  0  0  0  0  0  0  0  0
   36.1300   21.4670   31.6820 H   0  0  0  0  0  0  0  0  0  0  0  0
   37.2060   22.0540   33.4910 O   0  0  0  0  0  0  0  0  0  0  0  0
   41.4770   22.0940   36.9350 C   0  0  0  0  0  0  0  0  0  0  0  0
   41.6860   21.2610   37.9860 F   0  0  0  0  0  0  0  0  0  0  0  0
   41.9070   21.4720   35.7870 F   0  0  0  0  0  0  0  0  0  0  0  0
   42.2380   23.2560   37.1160 F   0  0  0  0  0  0  0  0  0  0  0  0
  1  6  1  0  0  0  0
  2  1  2  0  0  0  0
  2  3  1  0  0  0  0
  3 17  1  0  0  0  0
  3  4  2  0  0  0  0
  5  4  1  0  0  0  0
  5  8  1  0  0  0  0
  6  5  2  0  0  0  0
  7  2  1  0  0  0  0
  9 10  2  0  0  0  0
  9  1  1  0  0  0  0
 10 11  1  0  0  0  0
 12 10  1  0  0  0  0
 13 12  1  0  0  0  0
 14 16  1  0  0  0  0
 14 12  2  0  0  0  0
 15 14  1  0  0  0  0
 16  9  1  0  0  0  0
 17 20  1  0  0  0  0
 17 18  1  0  0  0  0
 19 17  1  0  0  0  0
M  END
>  <minimizedAffinity>
-4.37927628

$$$$

 OpenBabel03272508013D

 20 21  0  0  0  0  0  0  0  0999 V2000
   37.9790   22.6410   34.7760 C   0  0  0  0  0  0  0  0  0  0  0  0
   37.1020   21.5550   34.5450 C   0  0  0  0  0  0  0  0  0  0  0  0
   36.5840   21.4000   33.2550 C   0  0  0  0  0  0  0  0  0  0  0  0
   36.9550   22.2980   32.3120 N   0  0  0  0  0  0  0  0  0  0  0  0
   37.7920   23.3270   32.5530 C   0  0  0  0  0  0  0  0  0  0  0  0
   38.2950   23.4790   33.7980 N   0  0  0  0  0  0  0  0  0  0  0  0
   36.8680   20.8960   35.3570 H   0  0  0  0  0  0  0  0  0  0  0  0
   38.0320   23.9950   31.7350 H   0  0  0  0  0  0  0  0  0  0  0  0
   38.5280   22.8140   36.1170 C   0  0  0  0  0  0  0  0  0  0  0  0
   39.7830   22.4580   36.5620 C   0  0  0  0  0  0  0  0  0  0  0  0
   40.5410   21.9890   35.9460 H   0  0  0  0  0  0  0  0  0  0  0  0
   39.8730   22.8070   37.8970 C   0  0  0  0  0  0  0  0  0  0  0  0
   40.7920   22.6130   38.4570 H   0  0  0  0  0  0  0  0  0  0  0  0
   38.6410   23.3710   38.2050 C   0  0  0  0  0  0  0  0  0  0  0  0
   38.4710   23.7250   39.2120 H   0  0  0  0  0  0  0  0  0  0  0  0
   37.8830   23.3570   37.1400 O   0  0  0  0  0  0  0  0  0  0  0  0
   35.6610   20.2680   32.9910 C   0  0  0  0  0  0  0  0  0  0  0  0
   35.4100   19.6900   34.1930 F   0  0  0  0  0  0  0  0  0  0  0  0
   34.4680   20.6650   32.4340 F   0  0  0  0  0  0  0  0  0  0  0  0
   36.2470   19.3190   32.1430 F   0  0  0  0  0  0  0  0  0  0  0  0
  1  9  1  0  0  0  0
  2  1  1  0  0  0  0
  2  7  1  0  0  0  0
  3  2  2  0  0  0  0
  4  5  2  0  0  0  0
  4  3  1  0  0  0  0
  5  6  1  0  0  0  0
  6  1  2  0  0  0  0
  8  5  1  0  0  0  0
  9 10  2  0  0  0  0
  9 16  1  0  0  0  0
 10 12  1  0  0  0  0
 11 10  1  0  0  0  0
 12 14  2  0  0  0  0
 12 13  1  0  0  0  0
 14 15  1  0  0  0  0
 16 14  1  0  0  0  0
 17  3  1  0  0  0  0
 17 18  1  0  0  0  0
 19 17  1  0  0  0  0
 20 17  1  0  0  0  0
M  END
>  <minimizedAffinity>
-4.33401394

$$$$

 OpenBabel03272508013D

 20 21  0  0  0  0  0  0  0  0999 V2000
   40.7340   22.2100   36.0530 C   0  0  0  0  0  0  0  0  0  0  0  0
   40.1250   22.5580   37.2830 C   0  0  0  0  0  0  0  0  0  0  0  0
   39.0020   23.3900   37.2400 C   0  0  0  0  0  0  0  0  0  0  0  0
   38.5700   23.8080   36.0270 N   0  0  0  0  0  0  0  0  0  0  0  0
   39.1630   23.4650   34.8660 C   0  0  0  0  0  0  0  0  0  0  0  0
   40.2490   22.6610   34.9050 N   0  0  0  0  0  0  0  0  0  0  0  0
   40.5420   22.1760   38.1930 H   0  0  0  0  0  0  0  0  0  0  0  0
   38.7450   23.8490   33.9440 H   0  0  0  0  0  0  0  0  0  0  0  0
   41.9060   21.3420   36.0820 C   0  0  0  0  0  0  0  0  0  0  0  0
   42.4660   20.7250   37.1800 C   0  0  0  0  0  0  0  0  0  0  0  0
   42.0890   20.8150   38.1920 H   0  0  0  0  0  0  0  0  0  0  0  0
   43.5610   20.0000   36.7460 C   0  0  0  0  0  0  0  0  0  0  0  0
   44.1610   19.4260   37.4590 H   0  0  0  0  0  0  0  0  0  0  0  0
   43.6130   20.2170   35.3750 C   0  0  0  0  0  0  0  0  0  0  0  0
   44.4010   19.7430   34.8060 H   0  0  0  0  0  0  0  0  0  0  0  0
   42.6310   21.0050   35.0250 O   0  0  0  0  0  0  0  0  0  0  0  0
   38.3490   23.7680   38.5190 C   0  0  0  0  0  0  0  0  0  0  0  0
   39.3140   23.7110   39.4720 F   0  0  0  0  0  0  0  0  0  0  0  0
   37.8220   25.0380   38.4990 F   0  0  0  0  0  0  0  0  0  0  0  0
   37.3250   22.8720   38.8530 F   0  0  0  0  0  0  0  0  0  0  0  0
  1  9  1  0  0  0  0
  1  2  1  0  0  0  0
  2  7  1  0  0  0  0
  3  2  2  0  0  0  0
  3 17  1  0  0  0  0
  4  3  1  0  0  0  0
  5  6  1  0  0  0  0
  5  4  2  0  0  0  0
  6  1  2  0  0  0  0
  8  5  1  0  0  0  0
  9 10  2  0  0  0  0
 10 11  1  0  0  0  0
 12 10  1  0  0  0  0
 12 13  1  0  0  0  0
 14 12  2  0  0  0  0
 15 14  1  0  0  0  0
 16 14  1  0  0  0  0
 16  9  1  0  0  0  0
 17 20  1  0  0  0  0
 17 18  1  0  0  0  0
 19 17  1  0  0  0  0
M  END
>  <minimizedAffinity>
-4.31915808

$$$$

 OpenBabel03272508013D

 20 21  0  0  0  0  0  0  0  0999 V2000
   38.1200   24.2330   35.0430 C   0  0  0  0  0  0  0  0  0  0  0  0
   37.8230   25.6020   34.8480 C   0  0  0  0  0  0  0  0  0  0  0  0
   37.3950   26.0010   33.5790 C   0  0  0  0  0  0  0  0  0  0  0  0
   37.2920   25.0520   32.6180 N   0  0  0  0  0  0  0  0  0  0  0  0
   37.5800   23.7510   32.8230 C   0  0  0  0  0  0  0  0  0  0  0  0
   37.9940   23.3630   34.0500 N   0  0  0  0  0  0  0  0  0  0  0  0
   37.9350   26.2790   35.6720 H   0  0  0  0  0  0  0  0  0  0  0  0
   37.4670   23.0640   31.9940 H   0  0  0  0  0  0  0  0  0  0  0  0
   38.5680   23.8020   36.3630 C   0  0  0  0  0  0  0  0  0  0  0  0
   37.9720   24.0650   37.5780 C   0  0  0  0  0  0  0  0  0  0  0  0
   37.0660   24.6450   37.7030 H   0  0  0  0  0  0  0  0  0  0  0  0
   38.7350   23.4630   38.5620 C   0  0  0  0  0  0  0  0  0  0  0  0
   38.4430   23.5450   39.6140 H   0  0  0  0  0  0  0  0  0  0  0  0
   39.7790   22.8500   37.8820 C   0  0  0  0  0  0  0  0  0  0  0  0
   40.5200   22.3060   38.4530 H   0  0  0  0  0  0  0  0  0  0  0  0
   39.6480   23.0710   36.6010 O   0  0  0  0  0  0  0  0  0  0  0  0
   37.0780   27.4340   33.3530 C   0  0  0  0  0  0  0  0  0  0  0  0
   38.0730   27.9270   32.5730 F   0  0  0  0  0  0  0  0  0  0  0  0
   35.8770   27.6250   32.7100 F   0  0  0  0  0  0  0  0  0  0  0  0
   37.0490   28.1460   34.5590 F   0  0  0  0  0  0  0  0  0  0  0  0
  1  9  1  0  0  0  0
  2  1  1  0  0  0  0
  2  7  1  0  0  0  0
  3  2  2  0  0  0  0
  4  5  2  0  0  0  0
  4  3  1  0  0  0  0
  5  6  1  0  0  0  0
  6  1  2  0  0  0  0
  8  5  1  0  0  0  0
  9 16  1  0  0  0  0
  9 10  2  0  0  0  0
 10 11  1  0  0  0  0
 10 12  1  0  0  0  0
 12 13  1  0  0  0  0
 14 15  1  0  0  0  0
 14 12  2  0  0  0  0
 16 14  1  0  0  0  0
 17  3  1  0  0  0  0
 17 20  1  0  0  0  0
 18 17  1  0  0  0  0
 19 17  1  0  0  0  0
M  END
>  <minimizedAffinity>
-4.28780222

$$$$

 OpenBabel03272508013D

 20 21  0  0  0  0  0  0  0  0999 V2000
   37.0640   25.7740   32.8500 C   0  0  0  0  0  0  0  0  0  0  0  0
   37.0950   24.3740   32.6490 C   0  0  0  0  0  0  0  0  0  0  0  0
   36.3010   23.8460   31.6260 C   0  0  0  0  0  0  0  0  0  0  0  0
   35.5540   24.7080   30.8960 N   0  0  0  0  0  0  0  0  0  0  0  0
   35.5380   26.0400   31.1040 C   0  0  0  0  0  0  0  0  0  0  0  0
   36.3050   26.5520   32.0910 N   0  0  0  0  0  0  0  0  0  0  0  0
   37.7200   23.7740   33.2790 H   0  0  0  0  0  0  0  0  0  0  0  0
   34.9080   26.6500   30.4690 H   0  0  0  0  0  0  0  0  0  0  0  0
   37.8890   26.3390   33.9130 C   0  0  0  0  0  0  0  0  0  0  0  0
   37.4640   27.0350   35.0250 C   0  0  0  0  0  0  0  0  0  0  0  0
   36.4270   27.2550   35.2500 H   0  0  0  0  0  0  0  0  0  0  0  0
   38.5820   27.3810   35.7610 C   0  0  0  0  0  0  0  0  0  0  0  0
   38.4760   27.9440   36.6930 H   0  0  0  0  0  0  0  0  0  0  0  0
   39.6560   26.8670   35.0450 C   0  0  0  0  0  0  0  0  0  0  0  0
   40.6540   27.0150   35.4330 H   0  0  0  0  0  0  0  0  0  0  0  0
   39.2110   26.2660   33.9730 O   0  0  0  0  0  0  0  0  0  0  0  0
   36.3180   22.3800   31.3980 C   0  0  0  0  0  0  0  0  0  0  0  0
   35.2140   22.0940   30.6630 F   0  0  0  0  0  0  0  0  0  0  0  0
   37.4300   21.9550   30.7080 F   0  0  0  0  0  0  0  0  0  0  0  0
   36.2560   21.6740   32.6070 F   0  0  0  0  0  0  0  0  0  0  0  0
  1  9  1  0  0  0  0
  2  1  1  0  0  0  0
  2  7  1  0  0  0  0
  3  2  2  0  0  0  0
  4  5  2  0  0  0  0
  4  3  1  0  0  0  0
  5  6  1  0  0  0  0
  6  1  2  0  0  0  0
  8  5  1  0  0  0  0
  9 16  1  0  0  0  0
  9 10  2  0  0  0  0
 10 11  1  0  0  0  0
 10 12  1  0  0  0  0
 12 13  1  0  0  0  0
 14 15  1  0  0  0  0
 14 12  2  0  0  0  0
 16 14  1  0  0  0  0
 17  3  1  0  0  0  0
 17 20  1  0  0  0  0
 18 17  1  0  0  0  0
 19 17  1  0  0  0  0
M  END
>  <minimizedAffinity>
-4.27965355

$$$$

 OpenBabel03272508013D

 20 21  0  0  0  0  0  0  0  0999 V2000
   39.8120   23.3220   36.2380 C   0  0  0  0  0  0  0  0  0  0  0  0
   40.0740   24.5680   35.6210 C   0  0  0  0  0  0  0  0  0  0  0  0
   39.0470   25.5170   35.6100 C   0  0  0  0  0  0  0  0  0  0  0  0
   37.8700   25.1820   36.1880 N   0  0  0  0  0  0  0  0  0  0  0  0
   37.6390   23.9880   36.7710 C   0  0  0  0  0  0  0  0  0  0  0  0
   38.6310   23.0700   36.7840 N   0  0  0  0  0  0  0  0  0  0  0  0
   41.0400   24.7400   35.1900 H   0  0  0  0  0  0  0  0  0  0  0  0
   36.6640   23.8110   37.2080 H   0  0  0  0  0  0  0  0  0  0  0  0
   40.8750   22.3220   36.2580 C   0  0  0  0  0  0  0  0  0  0  0  0
   41.3610   21.6360   37.3500 C   0  0  0  0  0  0  0  0  0  0  0  0
   40.9980   21.7620   38.3630 H   0  0  0  0  0  0  0  0  0  0  0  0
   42.3620   20.7910   36.9080 C   0  0  0  0  0  0  0  0  0  0  0  0
   42.8920   20.1460   37.6160 H   0  0  0  0  0  0  0  0  0  0  0  0
   42.4380   21.0100   35.5390 C   0  0  0  0  0  0  0  0  0  0  0  0
   43.1640   20.4510   34.9640 H   0  0  0  0  0  0  0  0  0  0  0  0
   41.5540   21.9100   35.1960 O   0  0  0  0  0  0  0  0  0  0  0  0
   39.3010   26.8310   34.9680 C   0  0  0  0  0  0  0  0  0  0  0  0
   38.7830   27.7700   35.8000 F   0  0  0  0  0  0  0  0  0  0  0  0
   40.6390   27.0920   34.7870 F   0  0  0  0  0  0  0  0  0  0  0  0
   38.6640   26.9230   33.7240 F   0  0  0  0  0  0  0  0  0  0  0  0
  1  9  1  0  0  0  0
  1  6  1  0  0  0  0
  2  1  2  0  0  0  0
  3  2  1  0  0  0  0
  3  4  2  0  0  0  0
  4  5  1  0  0  0  0
  5  6  2  0  0  0  0
  5  8  1  0  0  0  0
  7  2  1  0  0  0  0
  9 10  2  0  0  0  0
 10 11  1  0  0  0  0
 12 10  1  0  0  0  0
 12 13  1  0  0  0  0
 14 12  2  0  0  0  0
 15 14  1  0  0  0  0
 16 14  1  0  0  0  0
 16  9  1  0  0  0  0
 17  3  1  0  0  0  0
 17 18  1  0  0  0  0
 19 17  1  0  0  0  0
 20 17  1  0  0  0  0
M  END
>  <minimizedAffinity>
-4.21829939

$$$$
