
 OpenBabel03262521403D

 42 46  0  0  0  0  0  0  0  0999 V2000
   38.2870   31.4920   46.5430 C   0  0  0  0  0  0  0  0  0  0  0  0
   38.7720   31.5200   45.2660 N   0  0  0  0  0  0  0  0  0  0  0  0
   39.6730   32.4660   44.9040 C   0  0  0  0  0  0  0  0  0  0  0  0
   40.1250   33.3960   45.7540 N   0  0  0  0  0  0  0  0  0  0  0  0
   39.6780   33.4120   47.0270 C   0  0  0  0  0  0  0  0  0  0  0  0
   40.1540   34.3450   47.8980 C   0  0  0  0  0  0  0  0  0  0  0  0
   39.7340   34.3730   49.1990 C   0  0  0  0  0  0  0  0  0  0  0  0
   38.8110   33.4320   49.6160 C   0  0  0  0  0  0  0  0  0  0  0  0
   38.3320   32.4870   48.7160 C   0  0  0  0  0  0  0  0  0  0  0  0
   38.7490   32.4560   47.4340 C   0  0  0  0  0  0  0  0  0  0  0  0
   39.9520   32.3540   43.8770 H   0  0  0  0  0  0  0  0  0  0  0  0
   40.8580   35.0400   47.5160 H   0  0  0  0  0  0  0  0  0  0  0  0
   40.1720   35.1500   49.8060 H   0  0  0  0  0  0  0  0  0  0  0  0
   38.5810   33.5940   50.6680 H   0  0  0  0  0  0  0  0  0  0  0  0
   37.3580   31.6090   49.3840 C   0  0  0  0  0  0  0  0  0  0  0  0
   37.7670   30.7150   50.3880 C   0  0  0  0  0  0  0  0  0  0  0  0
   38.7750   30.5070   50.8320 H   0  0  0  0  0  0  0  0  0  0  0  0
   36.7940   29.9420   50.9340 C   0  0  0  0  0  0  0  0  0  0  0  0
   36.7830   29.1890   51.6910 H   0  0  0  0  0  0  0  0  0  0  0  0
   35.7230   30.3810   50.2300 C   0  0  0  0  0  0  0  0  0  0  0  0
   34.6590   30.0950   50.2640 H   0  0  0  0  0  0  0  0  0  0  0  0
   36.1320   31.2610   49.4390 O   0  0  0  0  0  0  0  0  0  0  0  0
   37.1710   30.2860   47.1410 S   0  0  0  0  0  0  0  0  0  0  0  0
   34.7130   28.8170   47.7670 F   0  0  0  0  0  0  0  0  0  0  0  0
   34.6690   29.3340   46.5040 C   0  0  0  0  0  0  0  0  0  0  0  0
   33.5660   29.1470   45.6750 C   0  0  0  0  0  0  0  0  0  0  0  0
   33.5750   29.6970   44.3990 C   0  0  0  0  0  0  0  0  0  0  0  0
   34.6660   30.4270   43.9370 C   0  0  0  0  0  0  0  0  0  0  0  0
   35.7310   30.5780   44.8080 C   0  0  0  0  0  0  0  0  0  0  0  0
   35.7580   30.0500   46.0770 C   0  0  0  0  0  0  0  0  0  0  0  0
   32.7090   29.5460   43.7560 H   0  0  0  0  0  0  0  0  0  0  0  0
   34.6080   30.8240   42.9410 H   0  0  0  0  0  0  0  0  0  0  0  0
   36.5410   31.1540   44.3900 H   0  0  0  0  0  0  0  0  0  0  0  0
   32.6350   27.0190   46.1290 C   0  0  0  0  0  0  0  0  0  0  0  0
   32.4830   28.3890   46.2060 C   0  0  0  0  0  0  0  0  0  0  0  0
   31.3100   28.8460   46.7830 C   0  0  0  0  0  0  0  0  0  0  0  0
   30.4010   27.9400   47.2290 N   0  0  0  0  0  0  0  0  0  0  0  0
   30.5880   26.6370   47.1350 C   0  0  0  0  0  0  0  0  0  0  0  0
   31.7020   26.1480   46.5870 N   0  0  0  0  0  0  0  0  0  0  0  0
   33.5070   26.5170   45.7010 H   0  0  0  0  0  0  0  0  0  0  0  0
   31.2150   29.9180   46.8300 H   0  0  0  0  0  0  0  0  0  0  0  0
   29.7320   26.1050   47.5550 H   0  0  0  0  0  0  0  0  0  0  0  0
  1 23  1  0  0  0  0
  1 10  1  0  0  0  0
  2  1  2  0  0  0  0
  3  2  1  0  0  0  0
  3  4  2  0  0  0  0
  4  5  1  0  0  0  0
  5 10  2  0  0  0  0
  5  6  1  0  0  0  0
  6  7  2  0  0  0  0
  7  8  1  0  0  0  0
  7 13  1  0  0  0  0
  8 14  1  0  0  0  0
  9 15  1  0  0  0  0
  9  8  2  0  0  0  0
 10  9  1  0  0  0  0
 11  3  1  0  0  0  0
 12  6  1  0  0  0  0
 15 22  1  0  0  0  0
 15 16  2  0  0  0  0
 16 17  1  0  0  0  0
 16 18  1  0  0  0  0
 18 19  1  0  0  0  0
 20 21  1  0  0  0  0
 20 18  2  0  0  0  0
 22 20  1  0  0  0  0
 25 24  1  0  0  0  0
 26 35  1  0  0  0  0
 26 25  2  0  0  0  0
 27 26  1  0  0  0  0
 28 27  2  0  0  0  0
 28 29  1  0  0  0  0
 29 30  2  0  0  0  0
 30 25  1  0  0  0  0
 30 23  1  0  0  0  0
 31 27  1  0  0  0  0
 32 28  1  0  0  0  0
 33 29  1  0  0  0  0
 34 35  2  0  0  0  0
 34 39  1  0  0  0  0
 35 36  1  0  0  0  0
 36 41  1  0  0  0  0
 36 37  2  0  0  0  0
 38 37  1  0  0  0  0
 38 42  1  0  0  0  0
 39 38  2  0  0  0  0
 40 34  1  0  0  0  0
M  END
>  <minimizedAffinity>
-6.45256996

>  <minimizedRMSD>
1.24920332

$$$$
