
 OpenBabel03272510273D

 44 48  0  0  1  0  0  0  0  0999 V2000
   36.1560   30.1790   46.3260 C   0  0  0  0  0  0  0  0  0  0  0  0
   37.0590   30.7880   47.1640 C   0  0  0  0  0  0  0  0  0  0  0  0
   38.0110   31.6950   46.6690 C   0  0  0  0  0  0  0  0  0  0  0  0
   37.9800   31.9350   45.2940 C   0  0  0  0  0  0  0  0  0  0  0  0
   38.7860   32.7660   44.5700 N   0  0  0  0  0  0  0  0  0  0  0  0
   38.3830   32.6730   43.2960 C   0  0  0  0  0  0  0  0  0  0  0  0
   37.3760   31.8260   43.2140 N   0  0  0  0  0  0  0  0  0  0  0  0
   37.0910   31.3410   44.4340 C   0  0  0  0  0  0  0  0  0  0  0  0
   36.1600   30.4440   44.9720 C   0  0  0  0  0  0  0  0  0  0  0  0
   35.4250   29.4800   46.7180 H   0  0  0  0  0  0  0  0  0  0  0  0
   38.7380   32.1930   47.3040 H   0  0  0  0  0  0  0  0  0  0  0  0
   39.5520   33.3470   44.9540 H   0  0  0  0  0  0  0  0  0  0  0  0
   35.4590   29.9760   44.2950 H   0  0  0  0  0  0  0  0  0  0  0  0
   37.6920   30.5710   50.8700 C   0  0  0  0  0  0  0  0  0  0  0  0
   37.8860   30.9640   49.5450 C   0  0  0  0  0  0  0  0  0  0  0  0
   37.0290   30.4970   48.5850 C   0  0  0  0  0  0  0  0  0  0  0  0
   36.0180   29.6550   49.0050 N   0  0  0  0  0  0  0  0  0  0  0  0
   35.8390   29.2810   50.2830 C   0  0  0  0  0  0  0  0  0  0  0  0
   36.6710   29.7380   51.1990 N   0  0  0  0  0  0  0  0  0  0  0  0
   38.3800   30.9510   51.6120 H   0  0  0  0  0  0  0  0  0  0  0  0
   38.6680   31.6170   49.2030 H   0  0  0  0  0  0  0  0  0  0  0  0
   35.0210   28.6180   50.5330 H   0  0  0  0  0  0  0  0  0  0  0  0
   38.9880   33.3960   42.2660 O   0  0  0  0  0  0  0  0  0  0  0  0
   38.1590   32.2310   40.4600 N   0  0  0  0  0  0  0  0  0  0  0  0
   38.2090   33.5360   41.0830 C   0  0  1  0  0  0  0  0  0  0  0  0
   36.8720   34.0120   41.3980 C   0  0  0  0  0  0  0  0  0  0  0  0
   36.1540   34.1680   40.2000 O   0  0  0  0  0  0  0  0  0  0  0  0
   36.1090   33.0620   39.3990 C   0  0  0  0  0  0  0  0  0  0  0  0
   37.4680   32.4370   39.1990 C   0  0  1  0  0  0  0  0  0  0  0  0
   37.6630   31.4900   40.9200 H   0  0  0  0  0  0  0  0  0  0  0  0
   38.7030   34.2010   40.3540 H   0  0  0  0  0  0  0  0  0  0  0  0
   36.9670   35.0720   41.7830 H   0  0  0  0  0  0  0  0  0  0  0  0
   36.1800   33.5250   42.0320 H   0  0  0  0  0  0  0  0  0  0  0  0
   35.7190   33.3610   38.4260 H   0  0  0  0  0  0  0  0  0  0  0  0
   35.4520   32.2920   39.8860 H   0  0  0  0  0  0  0  0  0  0  0  0
   37.3060   31.4740   38.6570 H   0  0  0  0  0  0  0  0  0  0  0  0
   38.2890   33.3790   38.3960 C   0  0  0  0  0  0  0  0  0  0  0  0
   37.6560   34.1520   37.4150 C   0  0  0  0  0  0  0  0  0  0  0  0
   36.6150   34.1860   37.1220 H   0  0  0  0  0  0  0  0  0  0  0  0
   38.6140   34.9450   36.8050 C   0  0  0  0  0  0  0  0  0  0  0  0
   38.4370   35.6530   36.0060 H   0  0  0  0  0  0  0  0  0  0  0  0
   39.7870   34.6090   37.4530 C   0  0  0  0  0  0  0  0  0  0  0  0
   40.7340   35.0670   37.1980 H   0  0  0  0  0  0  0  0  0  0  0  0
   39.5650   33.6900   38.3780 O   0  0  0  0  0  0  0  0  0  0  0  0
  1 10  1  0  0  0  0
  1  2  1  0  0  0  0
  2 16  1  0  0  0  0
  3  2  2  0  0  0  0
  3 11  1  0  0  0  0
  4  3  1  0  0  0  0
  5 12  1  0  0  0  0
  5  4  1  0  0  0  0
  6  5  1  0  0  0  0
  7  6  2  0  0  0  0
  7  8  1  0  0  0  0
  8  9  1  0  0  0  0
  8  4  2  0  0  0  0
  9  1  2  0  0  0  0
 13  9  1  0  0  0  0
 14 19  1  0  0  0  0
 14 20  1  0  0  0  0
 15 14  2  0  0  0  0
 16 17  2  0  0  0  0
 16 15  1  0  0  0  0
 17 18  1  0  0  0  0
 18 22  1  0  0  0  0
 18 19  2  0  0  0  0
 21 15  1  0  0  0  0
 23  6  1  0  0  0  0
 24 30  1  0  0  0  0
 24 25  1  0  0  0  0
 25 31  1  6  0  0  0
 25 26  1  0  0  0  0
 25 23  1  0  0  0  0
 26 32  1  0  0  0  0
 26 33  1  0  0  0  0
 27 26  1  0  0  0  0
 28 35  1  0  0  0  0
 28 27  1  0  0  0  0
 29 36  1  6  0  0  0
 29 28  1  0  0  0  0
 29 24  1  0  0  0  0
 34 28  1  0  0  0  0
 37 29  1  0  0  0  0
 38 37  2  0  0  0  0
 39 38  1  0  0  0  0
 40 38  1  0  0  0  0
 40 42  2  0  0  0  0
 41 40  1  0  0  0  0
 42 44  1  0  0  0  0
 43 42  1  0  0  0  0
 44 37  1  0  0  0  0
M  END
>  <minimizedAffinity>
-5.17272758

>  <minimizedRMSD>
1.58498609

$$$$
