
 OpenBabel03272508553D

 37 40  0  0  1  0  0  0  0  0999 V2000
   38.3320   31.8650   44.6430 C   0  0  0  0  0  0  0  0  0  0  0  0
   37.1680   32.3540   44.5260 O   0  0  0  0  0  0  0  0  0  0  0  0
   38.9150   31.6680   45.9350 N   0  0  0  0  0  0  0  0  0  0  0  0
   39.9170   31.4240   46.0960 H   0  0  0  0  0  0  0  0  0  0  0  0
   39.1080   31.4910   43.4520 C   0  0  0  0  0  0  0  0  0  0  0  0
   40.0650   30.5190   43.5830 C   0  0  0  0  0  0  0  0  0  0  0  0
   40.8000   30.1480   42.4740 C   0  0  0  0  0  0  0  0  0  0  0  0
   40.5230   30.7850   41.2820 C   0  0  0  0  0  0  0  0  0  0  0  0
   39.5590   31.7670   41.1400 C   0  0  0  0  0  0  0  0  0  0  0  0
   38.8980   32.0640   42.2600 N   0  0  0  0  0  0  0  0  0  0  0  0
   40.3190   29.9910   44.4940 H   0  0  0  0  0  0  0  0  0  0  0  0
   41.5680   29.3890   42.5120 H   0  0  0  0  0  0  0  0  0  0  0  0
   41.1060   30.4870   40.4170 H   0  0  0  0  0  0  0  0  0  0  0  0
   39.2860   32.4270   39.8700 C   0  0  0  0  0  0  0  0  0  0  0  0
   39.5500   31.8460   38.6390 C   0  0  0  0  0  0  0  0  0  0  0  0
   39.9750   30.8720   38.4640 H   0  0  0  0  0  0  0  0  0  0  0  0
   39.1310   32.8320   37.7400 C   0  0  0  0  0  0  0  0  0  0  0  0
   39.1850   32.7320   36.6640 H   0  0  0  0  0  0  0  0  0  0  0  0
   38.6520   33.9160   38.4480 C   0  0  0  0  0  0  0  0  0  0  0  0
   38.2510   34.8490   38.0750 H   0  0  0  0  0  0  0  0  0  0  0  0
   38.7600   33.6400   39.7310 O   0  0  0  0  0  0  0  0  0  0  0  0
   38.4220   31.1690   48.3230 C   0  0  2  0  0  0  0  0  0  0  0  0
   38.6990   32.6110   48.2510 C   0  0  0  0  0  0  0  0  0  0  0  0
   38.0450   31.8210   47.0900 C   0  0  1  0  0  0  0  0  0  0  0  0
   39.3380   30.5450   48.3870 H   0  0  0  0  0  0  0  0  0  0  0  0
   38.0870   33.3600   48.7800 H   0  0  0  0  0  0  0  0  0  0  0  0
   39.7380   32.9620   48.0980 H   0  0  0  0  0  0  0  0  0  0  0  0
   36.9920   32.1590   46.8960 H   0  0  0  0  0  0  0  0  0  0  0  0
   35.0840   30.1840   49.5870 C   0  0  0  0  0  0  0  0  0  0  0  0
   35.4040   29.5550   50.8330 C   0  0  0  0  0  0  0  0  0  0  0  0
   36.7990   29.4980   51.2080 C   0  0  0  0  0  0  0  0  0  0  0  0
   37.7400   30.0330   50.3780 N   0  0  0  0  0  0  0  0  0  0  0  0
   37.3450   30.6150   49.2050 C   0  0  0  0  0  0  0  0  0  0  0  0
   36.0340   30.7070   48.7820 N   0  0  0  0  0  0  0  0  0  0  0  0
   34.0360   30.1920   49.3720 H   0  0  0  0  0  0  0  0  0  0  0  0
   34.6430   29.1460   51.4600 H   0  0  0  0  0  0  0  0  0  0  0  0
   37.0430   29.0260   52.1440 H   0  0  0  0  0  0  0  0  0  0  0  0
  1  3  1  0  0  0  0
  2  1  2  0  0  0  0
  3  4  1  0  0  0  0
  3 24  1  0  0  0  0
  5  6  1  0  0  0  0
  5  1  1  0  0  0  0
  6 11  1  0  0  0  0
  7 12  1  0  0  0  0
  7  6  2  0  0  0  0
  8  7  1  0  0  0  0
  9  8  2  0  0  0  0
  9 10  1  0  0  0  0
 10  5  2  0  0  0  0
 13  8  1  0  0  0  0
 14  9  1  0  0  0  0
 15 14  2  0  0  0  0
 16 15  1  0  0  0  0
 17 19  2  0  0  0  0
 17 15  1  0  0  0  0
 18 17  1  0  0  0  0
 19 21  1  0  0  0  0
 20 19  1  0  0  0  0
 21 14  1  0  0  0  0
 22 25  1  6  0  0  0
 22 33  1  0  0  0  0
 23 22  1  0  0  0  0
 23 26  1  0  0  0  0
 24 28  1  6  0  0  0
 24 23  1  0  0  0  0
 24 22  1  0  0  0  0
 27 23  1  0  0  0  0
 29 30  1  0  0  0  0
 30 31  2  0  0  0  0
 30 36  1  0  0  0  0
 31 37  1  0  0  0  0
 32 31  1  0  0  0  0
 33 32  2  0  0  0  0
 34 33  1  0  0  0  0
 34 29  2  0  0  0  0
 35 29  1  0  0  0  0
M  END
>  <minimizedAffinity>
-5.14555025

>  <minimizedRMSD>
0.55655545

$$$$
