
 OpenBabel03272503183D

 24 26  0  0  0  0  0  0  0  0999 V2000
   37.6670   27.2120   33.7930 C   0  0  0  0  0  0  0  0  0  0  0  0
   37.8160   27.7730   34.9950 C   0  0  0  0  0  0  0  0  0  0  0  0
   38.1470   27.0510   36.0770 C   0  0  0  0  0  0  0  0  0  0  0  0
   38.3230   25.6890   35.8700 C   0  0  0  0  0  0  0  0  0  0  0  0
   37.9940   25.5090   34.0660 S   0  0  0  0  0  0  0  0  0  0  0  0
   37.6560   28.8650   35.0700 H   0  0  0  0  0  0  0  0  0  0  0  0
   38.2920   27.3910   37.0850 H   0  0  0  0  0  0  0  0  0  0  0  0
   36.0600   29.2280   31.0550 C   0  0  0  0  0  0  0  0  0  0  0  0
   36.3220   28.7460   32.3510 C   0  0  0  0  0  0  0  0  0  0  0  0
   37.3200   27.7760   32.4950 C   0  0  0  0  0  0  0  0  0  0  0  0
   37.9820   27.3470   31.4050 N   0  0  0  0  0  0  0  0  0  0  0  0
   37.7100   27.8270   30.1760 C   0  0  0  0  0  0  0  0  0  0  0  0
   36.7610   28.7560   30.0050 N   0  0  0  0  0  0  0  0  0  0  0  0
   35.2760   29.9650   31.0860 H   0  0  0  0  0  0  0  0  0  0  0  0
   35.8250   29.0520   33.2570 H   0  0  0  0  0  0  0  0  0  0  0  0
   38.2510   27.4750   29.2930 H   0  0  0  0  0  0  0  0  0  0  0  0
   38.6680   24.5600   36.6990 C   0  0  0  0  0  0  0  0  0  0  0  0
   38.0250   24.4060   37.8970 C   0  0  0  0  0  0  0  0  0  0  0  0
   37.2560   24.9910   38.3940 H   0  0  0  0  0  0  0  0  0  0  0  0
   38.5470   23.2500   38.4820 C   0  0  0  0  0  0  0  0  0  0  0  0
   38.3400   22.7470   39.4190 H   0  0  0  0  0  0  0  0  0  0  0  0
   39.4770   22.8200   37.5440 C   0  0  0  0  0  0  0  0  0  0  0  0
   40.1140   21.9320   37.6190 H   0  0  0  0  0  0  0  0  0  0  0  0
   39.5320   23.6140   36.4900 O   0  0  0  0  0  0  0  0  0  0  0  0
  1  5  1  0  0  0  0
  1  2  2  0  0  0  0
  2  6  1  0  0  0  0
  2  3  1  0  0  0  0
  3  7  1  0  0  0  0
  4  3  2  0  0  0  0
  4 17  1  0  0  0  0
  5  4  1  0  0  0  0
  8 14  1  0  0  0  0
  8  9  1  0  0  0  0
  9 10  2  0  0  0  0
  9 15  1  0  0  0  0
 10  1  1  0  0  0  0
 11 10  1  0  0  0  0
 12 11  2  0  0  0  0
 13 12  1  0  0  0  0
 13  8  2  0  0  0  0
 16 12  1  0  0  0  0
 17 18  2  0  0  0  0
 18 19  1  0  0  0  0
 18 20  1  0  0  0  0
 20 21  1  0  0  0  0
 22 23  1  0  0  0  0
 22 20  2  0  0  0  0
 24 17  1  0  0  0  0
 24 22  1  0  0  0  0
M  END
>  <minimizedAffinity>
-4.65713453

$$$$

 OpenBabel03272503183D

 24 26  0  0  0  0  0  0  0  0999 V2000
   37.5890   27.2740   33.8980 C   0  0  0  0  0  0  0  0  0  0  0  0
   37.8200   27.8140   35.0970 C   0  0  0  0  0  0  0  0  0  0  0  0
   38.1920   27.0690   36.1490 C   0  0  0  0  0  0  0  0  0  0  0  0
   38.3230   25.7050   35.9130 C   0  0  0  0  0  0  0  0  0  0  0  0
   37.8880   25.5600   34.1290 S   0  0  0  0  0  0  0  0  0  0  0  0
   37.6920   28.9080   35.1960 H   0  0  0  0  0  0  0  0  0  0  0  0
   38.4030   27.3890   37.1520 H   0  0  0  0  0  0  0  0  0  0  0  0
   37.2130   28.0310   30.2330 C   0  0  0  0  0  0  0  0  0  0  0  0
   37.6620   27.3910   31.4030 C   0  0  0  0  0  0  0  0  0  0  0  0
   37.1850   27.8660   32.6290 C   0  0  0  0  0  0  0  0  0  0  0  0
   36.3260   28.9020   32.6440 N   0  0  0  0  0  0  0  0  0  0  0  0
   35.9120   29.4950   31.5070 C   0  0  0  0  0  0  0  0  0  0  0  0
   36.3510   29.0640   30.3180 N   0  0  0  0  0  0  0  0  0  0  0  0
   37.6530   27.5700   29.3660 H   0  0  0  0  0  0  0  0  0  0  0  0
   38.3470   26.5600   31.4520 H   0  0  0  0  0  0  0  0  0  0  0  0
   35.2140   30.3370   31.5240 H   0  0  0  0  0  0  0  0  0  0  0  0
   38.6850   24.5560   36.7060 C   0  0  0  0  0  0  0  0  0  0  0  0
   38.0710   24.3740   37.9160 C   0  0  0  0  0  0  0  0  0  0  0  0
   37.3150   24.9480   38.4460 H   0  0  0  0  0  0  0  0  0  0  0  0
   38.6050   23.2030   38.4600 C   0  0  0  0  0  0  0  0  0  0  0  0
   38.4190   22.6780   39.3890 H   0  0  0  0  0  0  0  0  0  0  0  0
   39.5100   22.7950   37.4890 C   0  0  0  0  0  0  0  0  0  0  0  0
   40.1470   21.9040   37.5280 H   0  0  0  0  0  0  0  0  0  0  0  0
   39.5420   23.6140   36.4540 O   0  0  0  0  0  0  0  0  0  0  0  0
  1  5  1  0  0  0  0
  1  2  2  0  0  0  0
  2  6  1  0  0  0  0
  2  3  1  0  0  0  0
  3  7  1  0  0  0  0
  4  3  2  0  0  0  0
  4 17  1  0  0  0  0
  5  4  1  0  0  0  0
  8 13  2  0  0  0  0
  8  9  1  0  0  0  0
  9 15  1  0  0  0  0
  9 10  2  0  0  0  0
 10 11  1  0  0  0  0
 10  1  1  0  0  0  0
 12 16  1  0  0  0  0
 12 11  2  0  0  0  0
 13 12  1  0  0  0  0
 14  8  1  0  0  0  0
 17 18  2  0  0  0  0
 18 19  1  0  0  0  0
 18 20  1  0  0  0  0
 20 21  1  0  0  0  0
 22 23  1  0  0  0  0
 22 20  2  0  0  0  0
 24 17  1  0  0  0  0
 24 22  1  0  0  0  0
M  END
>  <minimizedAffinity>
-4.64522314

$$$$

 OpenBabel03272503183D

 24 26  0  0  0  0  0  0  0  0999 V2000
   38.1970   25.7740   35.4030 C   0  0  0  0  0  0  0  0  0  0  0  0
   37.7360   26.9940   35.6880 C   0  0  0  0  0  0  0  0  0  0  0  0
   37.3240   27.8370   34.7280 C   0  0  0  0  0  0  0  0  0  0  0  0
   37.4080   27.3630   33.4240 C   0  0  0  0  0  0  0  0  0  0  0  0
   38.0970   25.6710   33.6530 S   0  0  0  0  0  0  0  0  0  0  0  0
   37.7030   27.2900   36.7530 H   0  0  0  0  0  0  0  0  0  0  0  0
   36.9380   28.8330   34.8370 H   0  0  0  0  0  0  0  0  0  0  0  0
   38.6420   23.3390   38.2340 C   0  0  0  0  0  0  0  0  0  0  0  0
   38.0920   24.3930   37.4820 C   0  0  0  0  0  0  0  0  0  0  0  0
   38.6890   24.7000   36.2550 C   0  0  0  0  0  0  0  0  0  0  0  0
   39.7530   23.9840   35.8450 N   0  0  0  0  0  0  0  0  0  0  0  0
   40.2580   22.9790   36.5850 C   0  0  0  0  0  0  0  0  0  0  0  0
   39.7090   22.6610   37.7640 N   0  0  0  0  0  0  0  0  0  0  0  0
   38.0920   23.2090   39.1490 H   0  0  0  0  0  0  0  0  0  0  0  0
   37.2440   24.9990   37.7600 H   0  0  0  0  0  0  0  0  0  0  0  0
   41.1230   22.4010   36.2470 H   0  0  0  0  0  0  0  0  0  0  0  0
   37.0940   27.8900   32.1190 C   0  0  0  0  0  0  0  0  0  0  0  0
   36.3810   29.0550   32.0350 C   0  0  0  0  0  0  0  0  0  0  0  0
   35.9700   29.7160   32.7930 H   0  0  0  0  0  0  0  0  0  0  0  0
   36.2230   29.3270   30.6740 C   0  0  0  0  0  0  0  0  0  0  0  0
   35.7330   30.1330   30.1420 H   0  0  0  0  0  0  0  0  0  0  0  0
   36.8800   28.2640   30.0670 C   0  0  0  0  0  0  0  0  0  0  0  0
   36.9900   28.0980   28.9900 H   0  0  0  0  0  0  0  0  0  0  0  0
   37.3910   27.4210   30.9450 O   0  0  0  0  0  0  0  0  0  0  0  0
  1  2  2  0  0  0  0
  1 10  1  0  0  0  0
  2  6  1  0  0  0  0
  3  7  1  0  0  0  0
  3  2  1  0  0  0  0
  4  5  1  0  0  0  0
  4  3  2  0  0  0  0
  5  1  1  0  0  0  0
  8 14  1  0  0  0  0
  9 15  1  0  0  0  0
  9  8  2  0  0  0  0
 10  9  1  0  0  0  0
 11 10  2  0  0  0  0
 11 12  1  0  0  0  0
 12 13  2  0  0  0  0
 13  8  1  0  0  0  0
 16 12  1  0  0  0  0
 17  4  1  0  0  0  0
 18 17  2  0  0  0  0
 18 19  1  0  0  0  0
 20 18  1  0  0  0  0
 21 20  1  0  0  0  0
 22 20  2  0  0  0  0
 22 24  1  0  0  0  0
 23 22  1  0  0  0  0
 24 17  1  0  0  0  0
M  END
>  <minimizedAffinity>
-4.54533529

$$$$

 OpenBabel03272503183D

 24 26  0  0  0  0  0  0  0  0999 V2000
   37.2160   26.4850   33.4830 C   0  0  0  0  0  0  0  0  0  0  0  0
   37.5490   25.2720   33.0360 C   0  0  0  0  0  0  0  0  0  0  0  0
   38.0400   24.3270   33.8530 C   0  0  0  0  0  0  0  0  0  0  0  0
   38.1800   24.6880   35.1880 C   0  0  0  0  0  0  0  0  0  0  0  0
   37.5780   26.4290   35.2000 S   0  0  0  0  0  0  0  0  0  0  0  0
   37.4050   25.0690   31.9590 H   0  0  0  0  0  0  0  0  0  0  0  0
   38.3390   23.3250   33.6100 H   0  0  0  0  0  0  0  0  0  0  0  0
   35.5380   29.7700   32.7500 C   0  0  0  0  0  0  0  0  0  0  0  0
   36.0290   28.6830   33.4970 C   0  0  0  0  0  0  0  0  0  0  0  0
   36.6740   27.6540   32.8030 C   0  0  0  0  0  0  0  0  0  0  0  0
   36.7990   27.7400   31.4650 N   0  0  0  0  0  0  0  0  0  0  0  0
   36.3190   28.7930   30.7760 C   0  0  0  0  0  0  0  0  0  0  0  0
   35.6970   29.7940   31.4110 N   0  0  0  0  0  0  0  0  0  0  0  0
   35.0680   30.4860   33.4010 H   0  0  0  0  0  0  0  0  0  0  0  0
   35.9570   28.5610   34.5660 H   0  0  0  0  0  0  0  0  0  0  0  0
   36.4230   28.8590   29.6890 H   0  0  0  0  0  0  0  0  0  0  0  0
   38.6460   24.0340   36.3860 C   0  0  0  0  0  0  0  0  0  0  0  0
   37.9530   24.2270   37.5500 C   0  0  0  0  0  0  0  0  0  0  0  0
   37.0650   24.8080   37.7850 H   0  0  0  0  0  0  0  0  0  0  0  0
   38.6160   23.4870   38.5330 C   0  0  0  0  0  0  0  0  0  0  0  0
   38.4280   23.3440   39.5900 H   0  0  0  0  0  0  0  0  0  0  0  0
   39.6670   22.9120   37.8320 C   0  0  0  0  0  0  0  0  0  0  0  0
   40.4350   22.2470   38.2430 H   0  0  0  0  0  0  0  0  0  0  0  0
   39.6660   23.2500   36.5560 O   0  0  0  0  0  0  0  0  0  0  0  0
  1  5  1  0  0  0  0
  2  1  2  0  0  0  0
  2  3  1  0  0  0  0
  3  4  2  0  0  0  0
  4  5  1  0  0  0  0
  4 17  1  0  0  0  0
  6  2  1  0  0  0  0
  7  3  1  0  0  0  0
  8 14  1  0  0  0  0
  8  9  1  0  0  0  0
  9 15  1  0  0  0  0
 10  1  1  0  0  0  0
 10  9  2  0  0  0  0
 11 10  1  0  0  0  0
 12 13  1  0  0  0  0
 12 11  2  0  0  0  0
 13  8  2  0  0  0  0
 16 12  1  0  0  0  0
 17 24  1  0  0  0  0
 17 18  2  0  0  0  0
 18 19  1  0  0  0  0
 18 20  1  0  0  0  0
 20 21  1  0  0  0  0
 22 23  1  0  0  0  0
 22 20  2  0  0  0  0
 24 22  1  0  0  0  0
M  END
>  <minimizedAffinity>
-4.52746344

$$$$

 OpenBabel03272503183D

 24 26  0  0  0  0  0  0  0  0999 V2000
   37.9650   25.0950   34.8660 C   0  0  0  0  0  0  0  0  0  0  0  0
   37.9480   24.7510   33.5760 C   0  0  0  0  0  0  0  0  0  0  0  0
   37.4750   25.5760   32.6300 C   0  0  0  0  0  0  0  0  0  0  0  0
   37.0040   26.8060   33.0740 C   0  0  0  0  0  0  0  0  0  0  0  0
   37.2770   26.7100   34.8930 S   0  0  0  0  0  0  0  0  0  0  0  0
   38.3420   23.7530   33.3100 H   0  0  0  0  0  0  0  0  0  0  0  0
   37.4110   25.4100   31.5710 H   0  0  0  0  0  0  0  0  0  0  0  0
   39.8910   22.8880   37.2250 C   0  0  0  0  0  0  0  0  0  0  0  0
   39.5290   23.5310   36.0260 C   0  0  0  0  0  0  0  0  0  0  0  0
   38.4220   24.3840   36.0530 C   0  0  0  0  0  0  0  0  0  0  0  0
   37.7530   24.5580   37.2090 N   0  0  0  0  0  0  0  0  0  0  0  0
   38.1230   23.9300   38.3420 C   0  0  0  0  0  0  0  0  0  0  0  0
   39.1780   23.1070   38.3490 N   0  0  0  0  0  0  0  0  0  0  0  0
   40.7540   22.2660   37.0660 H   0  0  0  0  0  0  0  0  0  0  0  0
   40.0260   23.4290   35.0750 H   0  0  0  0  0  0  0  0  0  0  0  0
   37.5760   24.0740   39.2780 H   0  0  0  0  0  0  0  0  0  0  0  0
   36.4260   27.9710   32.4500 C   0  0  0  0  0  0  0  0  0  0  0  0
   37.0200   28.4750   31.3250 C   0  0  0  0  0  0  0  0  0  0  0  0
   37.8950   28.1660   30.7590 H   0  0  0  0  0  0  0  0  0  0  0  0
   36.2630   29.5840   30.9390 C   0  0  0  0  0  0  0  0  0  0  0  0
   36.3570   30.2830   30.1170 H   0  0  0  0  0  0  0  0  0  0  0  0
   35.2650   29.6290   31.9040 C   0  0  0  0  0  0  0  0  0  0  0  0
   34.4520   30.3610   31.9650 H   0  0  0  0  0  0  0  0  0  0  0  0
   35.3800   28.6590   32.7930 O   0  0  0  0  0  0  0  0  0  0  0  0
  1  5  1  0  0  0  0
  1 10  1  0  0  0  0
  2  1  2  0  0  0  0
  3  4  2  0  0  0  0
  3  2  1  0  0  0  0
  4  5  1  0  0  0  0
  6  2  1  0  0  0  0
  7  3  1  0  0  0  0
  8 13  1  0  0  0  0
  9 10  1  0  0  0  0
  9  8  2  0  0  0  0
 10 11  2  0  0  0  0
 11 12  1  0  0  0  0
 12 13  2  0  0  0  0
 12 16  1  0  0  0  0
 14  8  1  0  0  0  0
 15  9  1  0  0  0  0
 17 24  1  0  0  0  0
 17  4  1  0  0  0  0
 18 17  2  0  0  0  0
 19 18  1  0  0  0  0
 20 18  1  0  0  0  0
 20 22  2  0  0  0  0
 21 20  1  0  0  0  0
 22 23  1  0  0  0  0
 22 24  1  0  0  0  0
M  END
>  <minimizedAffinity>
-4.43437958

$$$$

 OpenBabel03272503183D

 24 26  0  0  0  0  0  0  0  0999 V2000
   38.9420   25.6360   34.8480 C   0  0  0  0  0  0  0  0  0  0  0  0
   39.9300   26.3090   34.2520 C   0  0  0  0  0  0  0  0  0  0  0  0
   39.7100   27.0930   33.1850 C   0  0  0  0  0  0  0  0  0  0  0  0
   38.3950   27.1590   32.7400 C   0  0  0  0  0  0  0  0  0  0  0  0
   37.5120   26.0540   33.9200 S   0  0  0  0  0  0  0  0  0  0  0  0
   40.9470   26.1990   34.6720 H   0  0  0  0  0  0  0  0  0  0  0  0
   40.4190   27.6760   32.6290 H   0  0  0  0  0  0  0  0  0  0  0  0
   39.7150   22.8400   37.2420 C   0  0  0  0  0  0  0  0  0  0  0  0
   39.8000   23.6470   36.0920 C   0  0  0  0  0  0  0  0  0  0  0  0
   38.9340   24.7420   35.9980 C   0  0  0  0  0  0  0  0  0  0  0  0
   38.0650   24.9800   36.9970 N   0  0  0  0  0  0  0  0  0  0  0  0
   38.0060   24.1910   38.0870 C   0  0  0  0  0  0  0  0  0  0  0  0
   38.8200   23.1360   38.2070 N   0  0  0  0  0  0  0  0  0  0  0  0
   40.4310   22.0400   37.1870 H   0  0  0  0  0  0  0  0  0  0  0  0
   40.4740   23.5040   35.2620 H   0  0  0  0  0  0  0  0  0  0  0  0
   37.2970   24.3890   38.8970 H   0  0  0  0  0  0  0  0  0  0  0  0
   37.7060   27.8430   31.6730 C   0  0  0  0  0  0  0  0  0  0  0  0
   36.7140   28.7290   31.9950 C   0  0  0  0  0  0  0  0  0  0  0  0
   36.3040   29.0540   32.9480 H   0  0  0  0  0  0  0  0  0  0  0  0
   36.2260   29.2350   30.7870 C   0  0  0  0  0  0  0  0  0  0  0  0
   35.4500   29.9550   30.5570 H   0  0  0  0  0  0  0  0  0  0  0  0
   37.0010   28.5780   29.8410 C   0  0  0  0  0  0  0  0  0  0  0  0
   36.9360   28.6950   28.7530 H   0  0  0  0  0  0  0  0  0  0  0  0
   37.8750   27.7540   30.3890 O   0  0  0  0  0  0  0  0  0  0  0  0
  1 10  1  0  0  0  0
  2  6  1  0  0  0  0
  2  1  2  0  0  0  0
  3  2  1  0  0  0  0
  4  3  2  0  0  0  0
  4  5  1  0  0  0  0
  5  1  1  0  0  0  0
  7  3  1  0  0  0  0
  8 13  1  0  0  0  0
  9  8  2  0  0  0  0
 10  9  1  0  0  0  0
 10 11  2  0  0  0  0
 11 12  1  0  0  0  0
 12 13  2  0  0  0  0
 12 16  1  0  0  0  0
 14  8  1  0  0  0  0
 15  9  1  0  0  0  0
 17 18  2  0  0  0  0
 17  4  1  0  0  0  0
 18 19  1  0  0  0  0
 20 18  1  0  0  0  0
 21 20  1  0  0  0  0
 22 24  1  0  0  0  0
 22 20  2  0  0  0  0
 23 22  1  0  0  0  0
 24 17  1  0  0  0  0
M  END
>  <minimizedAffinity>
-4.41833162

$$$$

 OpenBabel03272503183D

 24 26  0  0  0  0  0  0  0  0999 V2000
   38.1470   25.6780   35.1370 C   0  0  0  0  0  0  0  0  0  0  0  0
   37.3490   26.7380   35.2810 C   0  0  0  0  0  0  0  0  0  0  0  0
   37.0290   27.5300   34.2460 C   0  0  0  0  0  0  0  0  0  0  0  0
   37.5790   27.1790   33.0190 C   0  0  0  0  0  0  0  0  0  0  0  0
   38.5620   25.6770   33.4320 S   0  0  0  0  0  0  0  0  0  0  0  0
   36.9540   26.9440   36.2940 H   0  0  0  0  0  0  0  0  0  0  0  0
   36.4020   28.4010   34.2420 H   0  0  0  0  0  0  0  0  0  0  0  0
   38.5330   23.4960   38.1760 C   0  0  0  0  0  0  0  0  0  0  0  0
   37.9920   24.4730   37.3200 C   0  0  0  0  0  0  0  0  0  0  0  0
   38.6270   24.6880   36.0930 C   0  0  0  0  0  0  0  0  0  0  0  0
   39.7160   23.9620   35.7800 N   0  0  0  0  0  0  0  0  0  0  0  0
   40.2110   23.0310   36.6190 C   0  0  0  0  0  0  0  0  0  0  0  0
   39.6260   22.8020   37.8000 N   0  0  0  0  0  0  0  0  0  0  0  0
   37.9520   23.4310   39.0790 H   0  0  0  0  0  0  0  0  0  0  0  0
   37.1250   25.0840   37.5180 H   0  0  0  0  0  0  0  0  0  0  0  0
   41.0970   22.4440   36.3600 H   0  0  0  0  0  0  0  0  0  0  0  0
   37.5230   27.7100   31.6790 C   0  0  0  0  0  0  0  0  0  0  0  0
   38.6750   27.7550   30.9430 C   0  0  0  0  0  0  0  0  0  0  0  0
   39.6970   27.4570   31.1640 H   0  0  0  0  0  0  0  0  0  0  0  0
   38.3340   28.3060   29.7050 C   0  0  0  0  0  0  0  0  0  0  0  0
   38.9160   28.5290   28.8180 H   0  0  0  0  0  0  0  0  0  0  0  0
   36.9710   28.5400   29.8350 C   0  0  0  0  0  0  0  0  0  0  0  0
   36.3110   28.9710   29.0740 H   0  0  0  0  0  0  0  0  0  0  0  0
   36.5090   28.1770   31.0170 O   0  0  0  0  0  0  0  0  0  0  0  0
  1  2  2  0  0  0  0
  1 10  1  0  0  0  0
  2  6  1  0  0  0  0
  3  2  1  0  0  0  0
  4  5  1  0  0  0  0
  4  3  2  0  0  0  0
  5  1  1  0  0  0  0
  7  3  1  0  0  0  0
  8 14  1  0  0  0  0
  9 15  1  0  0  0  0
  9  8  2  0  0  0  0
 10  9  1  0  0  0  0
 11 10  2  0  0  0  0
 11 12  1  0  0  0  0
 12 13  2  0  0  0  0
 13  8  1  0  0  0  0
 16 12  1  0  0  0  0
 17  4  1  0  0  0  0
 18 19  1  0  0  0  0
 18 17  2  0  0  0  0
 20 22  2  0  0  0  0
 20 18  1  0  0  0  0
 21 20  1  0  0  0  0
 22 24  1  0  0  0  0
 23 22  1  0  0  0  0
 24 17  1  0  0  0  0
M  END
>  <minimizedAffinity>
-4.41234446

$$$$

 OpenBabel03272503183D

 24 26  0  0  0  0  0  0  0  0999 V2000
   37.2870   26.3220   33.1970 C   0  0  0  0  0  0  0  0  0  0  0  0
   37.6760   25.0790   32.9030 C   0  0  0  0  0  0  0  0  0  0  0  0
   38.0690   24.2170   33.8530 C   0  0  0  0  0  0  0  0  0  0  0  0
   38.0480   24.6960   35.1570 C   0  0  0  0  0  0  0  0  0  0  0  0
   37.4410   26.4220   34.9430 S   0  0  0  0  0  0  0  0  0  0  0  0
   37.6620   24.7800   31.8380 H   0  0  0  0  0  0  0  0  0  0  0  0
   38.4000   23.2020   33.7360 H   0  0  0  0  0  0  0  0  0  0  0  0
   36.7490   28.6620   30.3020 C   0  0  0  0  0  0  0  0  0  0  0  0
   37.2510   27.5690   31.0330 C   0  0  0  0  0  0  0  0  0  0  0  0
   36.8250   27.4180   32.3560 C   0  0  0  0  0  0  0  0  0  0  0  0
   35.9610   28.3110   32.8740 N   0  0  0  0  0  0  0  0  0  0  0  0
   35.4950   29.3480   32.1500 C   0  0  0  0  0  0  0  0  0  0  0  0
   35.8850   29.5200   30.8810 N   0  0  0  0  0  0  0  0  0  0  0  0
   37.1540   28.6590   29.3050 H   0  0  0  0  0  0  0  0  0  0  0  0
   37.9430   26.8250   30.6710 H   0  0  0  0  0  0  0  0  0  0  0  0
   34.7940   30.0710   32.5760 H   0  0  0  0  0  0  0  0  0  0  0  0
   38.3700   24.1560   36.4550 C   0  0  0  0  0  0  0  0  0  0  0  0
   39.4760   23.3580   36.5770 C   0  0  0  0  0  0  0  0  0  0  0  0
   40.2160   23.0200   35.8560 H   0  0  0  0  0  0  0  0  0  0  0  0
   39.5470   22.9810   37.9200 C   0  0  0  0  0  0  0  0  0  0  0  0
   40.2460   22.3620   38.4690 H   0  0  0  0  0  0  0  0  0  0  0  0
   38.4430   23.6120   38.4780 C   0  0  0  0  0  0  0  0  0  0  0  0
   38.1330   23.5720   39.5280 H   0  0  0  0  0  0  0  0  0  0  0  0
   37.7560   24.3060   37.5880 O   0  0  0  0  0  0  0  0  0  0  0  0
  1  5  1  0  0  0  0
  2  1  2  0  0  0  0
  2  3  1  0  0  0  0
  3  4  2  0  0  0  0
  4 17  1  0  0  0  0
  5  4  1  0  0  0  0
  6  2  1  0  0  0  0
  7  3  1  0  0  0  0
  8 13  2  0  0  0  0
  8  9  1  0  0  0  0
  9 10  2  0  0  0  0
 10 11  1  0  0  0  0
 10  1  1  0  0  0  0
 12 16  1  0  0  0  0
 12 11  2  0  0  0  0
 13 12  1  0  0  0  0
 14  8  1  0  0  0  0
 15  9  1  0  0  0  0
 17 18  2  0  0  0  0
 17 24  1  0  0  0  0
 18 20  1  0  0  0  0
 19 18  1  0  0  0  0
 20 21  1  0  0  0  0
 20 22  2  0  0  0  0
 22 23  1  0  0  0  0
 24 22  1  0  0  0  0
M  END
>  <minimizedAffinity>
-4.40359879

$$$$

 OpenBabel03272503183D

 24 26  0  0  0  0  0  0  0  0999 V2000
   37.8770   25.4920   34.4830 C   0  0  0  0  0  0  0  0  0  0  0  0
   37.6930   25.4550   35.8050 C   0  0  0  0  0  0  0  0  0  0  0  0
   38.4580   24.6960   36.6050 C   0  0  0  0  0  0  0  0  0  0  0  0
   39.4490   23.9530   35.9740 C   0  0  0  0  0  0  0  0  0  0  0  0
   39.2220   24.3990   34.2020 S   0  0  0  0  0  0  0  0  0  0  0  0
   36.8820   26.0790   36.2230 H   0  0  0  0  0  0  0  0  0  0  0  0
   38.4040   24.5880   37.6710 H   0  0  0  0  0  0  0  0  0  0  0  0
   36.3730   28.2320   32.3920 C   0  0  0  0  0  0  0  0  0  0  0  0
   37.0570   27.6160   33.4570 C   0  0  0  0  0  0  0  0  0  0  0  0
   37.1890   26.2240   33.4280 C   0  0  0  0  0  0  0  0  0  0  0  0
   36.6650   25.5360   32.3970 N   0  0  0  0  0  0  0  0  0  0  0  0
   36.0170   26.1520   31.3900 C   0  0  0  0  0  0  0  0  0  0  0  0
   35.8740   27.4830   31.3890 N   0  0  0  0  0  0  0  0  0  0  0  0
   36.3440   29.2980   32.5370 H   0  0  0  0  0  0  0  0  0  0  0  0
   37.4940   28.1160   34.3070 H   0  0  0  0  0  0  0  0  0  0  0  0
   35.5930   25.5880   30.5540 H   0  0  0  0  0  0  0  0  0  0  0  0
   40.4700   23.0300   36.4040 C   0  0  0  0  0  0  0  0  0  0  0  0
   41.7720   23.2920   36.0720 C   0  0  0  0  0  0  0  0  0  0  0  0
   42.2360   24.1020   35.5160 H   0  0  0  0  0  0  0  0  0  0  0  0
   42.5350   22.2520   36.6080 C   0  0  0  0  0  0  0  0  0  0  0  0
   43.5980   22.0440   36.5950 H   0  0  0  0  0  0  0  0  0  0  0  0
   41.5810   21.4520   37.2230 C   0  0  0  0  0  0  0  0  0  0  0  0
   41.7680   20.5210   37.7690 H   0  0  0  0  0  0  0  0  0  0  0  0
   40.3590   21.9340   37.0900 O   0  0  0  0  0  0  0  0  0  0  0  0
  1  2  2  0  0  0  0
  2  6  1  0  0  0  0
  2  3  1  0  0  0  0
  3  7  1  0  0  0  0
  4 17  1  0  0  0  0
  4  3  2  0  0  0  0
  5  1  1  0  0  0  0
  5  4  1  0  0  0  0
  8 14  1  0  0  0  0
  8  9  1  0  0  0  0
  9 15  1  0  0  0  0
 10  9  2  0  0  0  0
 10  1  1  0  0  0  0
 11 10  1  0  0  0  0
 12 11  2  0  0  0  0
 13 12  1  0  0  0  0
 13  8  2  0  0  0  0
 16 12  1  0  0  0  0
 17 24  1  0  0  0  0
 18 17  2  0  0  0  0
 18 20  1  0  0  0  0
 19 18  1  0  0  0  0
 20 22  2  0  0  0  0
 21 20  1  0  0  0  0
 22 23  1  0  0  0  0
 24 22  1  0  0  0  0
M  END
>  <minimizedAffinity>
-4.34440947

$$$$
