
 OpenBabel03272506473D

 41 44  0  0  1  0  0  0  0  0999 V2000
   32.2380   28.4240   47.5140 C   0  0  2  0  0  0  0  0  0  0  0  0
   33.5030   28.2380   48.2990 C   0  0  1  0  0  0  0  0  0  0  0  0
   33.8970   26.9430   48.1650 O   0  0  0  0  0  0  0  0  0  0  0  0
   33.1630   26.3410   47.1490 C   0  0  0  0  0  0  0  0  0  0  0  0
   32.5390   27.4500   46.3310 C   0  0  1  0  0  0  0  0  0  0  0  0
   31.3320   28.0650   47.9910 H   0  0  0  0  0  0  0  0  0  0  0  0
   33.2870   28.5560   49.3380 H   0  0  0  0  0  0  0  0  0  0  0  0
   32.4710   25.6620   47.6280 H   0  0  0  0  0  0  0  0  0  0  0  0
   33.9260   25.7760   46.5230 H   0  0  0  0  0  0  0  0  0  0  0  0
   33.2580   27.9480   45.6830 H   0  0  0  0  0  0  0  0  0  0  0  0
   32.1510   29.7380   47.0140 O   0  0  0  0  0  0  0  0  0  0  0  0
   32.6620   29.7490   46.1690 H   0  0  0  0  0  0  0  0  0  0  0  0
   34.7890   29.3040   47.5330 S   0  0  0  0  0  0  0  0  0  0  0  0
   37.1670   29.3220   50.7030 C   0  0  0  0  0  0  0  0  0  0  0  0
   37.6470   30.6290   50.7860 C   0  0  0  0  0  0  0  0  0  0  0  0
   37.2220   31.5390   49.8270 C   0  0  0  0  0  0  0  0  0  0  0  0
   36.3590   31.1180   48.8550 N   0  0  0  0  0  0  0  0  0  0  0  0
   35.9190   29.8420   48.8120 C   0  0  0  0  0  0  0  0  0  0  0  0
   36.3140   28.9260   49.7330 N   0  0  0  0  0  0  0  0  0  0  0  0
   37.4440   28.5470   51.4060 H   0  0  0  0  0  0  0  0  0  0  0  0
   38.3200   30.8910   51.5730 H   0  0  0  0  0  0  0  0  0  0  0  0
   37.5680   32.5660   49.8500 H   0  0  0  0  0  0  0  0  0  0  0  0
   31.3760   26.9880   45.7650 O   0  0  0  0  0  0  0  0  0  0  0  0
   30.1270   29.2450   44.3450 Cl  0  0  0  0  0  0  0  0  0  0  0  0
   29.4590   28.2590   45.6220 C   0  0  0  0  0  0  0  0  0  0  0  0
   30.1430   27.2160   46.2050 C   0  0  0  0  0  0  0  0  0  0  0  0
   29.4920   26.4810   47.1980 C   0  0  0  0  0  0  0  0  0  0  0  0
   28.2060   26.7970   47.5800 C   0  0  0  0  0  0  0  0  0  0  0  0
   27.5110   27.8440   47.0010 C   0  0  0  0  0  0  0  0  0  0  0  0
   28.1580   28.5690   46.0170 C   0  0  0  0  0  0  0  0  0  0  0  0
   29.9300   25.6450   47.7130 H   0  0  0  0  0  0  0  0  0  0  0  0
   27.6620   26.2640   48.3390 H   0  0  0  0  0  0  0  0  0  0  0  0
   26.5030   28.0990   47.2950 H   0  0  0  0  0  0  0  0  0  0  0  0
   27.4450   29.6800   45.3920 C   0  0  0  0  0  0  0  0  0  0  0  0
   26.6740   29.6450   44.2780 C   0  0  0  0  0  0  0  0  0  0  0  0
   26.4810   28.7410   43.6820 H   0  0  0  0  0  0  0  0  0  0  0  0
   26.1570   30.9000   43.9860 C   0  0  0  0  0  0  0  0  0  0  0  0
   25.5190   31.2270   43.1900 H   0  0  0  0  0  0  0  0  0  0  0  0
   26.6820   31.6660   45.0070 C   0  0  0  0  0  0  0  0  0  0  0  0
   26.5410   32.7430   45.1900 H   0  0  0  0  0  0  0  0  0  0  0  0
   27.4200   30.9310   45.8020 O   0  0  0  0  0  0  0  0  0  0  0  0
  1  6  1  1  0  0  0
  1  2  1  0  0  0  0
  2  7  1  1  0  0  0
  3  2  1  0  0  0  0
  4  8  1  0  0  0  0
  4  3  1  0  0  0  0
  5 10  1  6  0  0  0
  5  4  1  0  0  0  0
  5  1  1  0  0  0  0
  9  4  1  0  0  0  0
 11  1  1  0  0  0  0
 12 11  1  0  0  0  0
 13  2  1  0  0  0  0
 13 18  1  0  0  0  0
 14 15  1  0  0  0  0
 14 20  1  0  0  0  0
 15 21  1  0  0  0  0
 16 22  1  0  0  0  0
 16 15  2  0  0  0  0
 17 16  1  0  0  0  0
 18 17  2  0  0  0  0
 18 19  1  0  0  0  0
 19 14  2  0  0  0  0
 23 26  1  0  0  0  0
 23  5  1  0  0  0  0
 24 25  1  0  0  0  0
 25 30  2  0  0  0  0
 25 26  1  0  0  0  0
 26 27  2  0  0  0  0
 27 28  1  0  0  0  0
 27 31  1  0  0  0  0
 28 32  1  0  0  0  0
 29 33  1  0  0  0  0
 29 28  2  0  0  0  0
 30 29  1  0  0  0  0
 34 41  1  0  0  0  0
 34 30  1  0  0  0  0
 35 34  2  0  0  0  0
 36 35  1  0  0  0  0
 37 35  1  0  0  0  0
 37 39  2  0  0  0  0
 38 37  1  0  0  0  0
 39 40  1  0  0  0  0
 39 41  1  0  0  0  0
M  END
>  <minimizedAffinity>
-5.10444784

>  <minimizedRMSD>
0.38093859

$$$$
