
 OpenBabel03272503213D

 34 37  0  0  0  0  0  0  0  0999 V2000
   37.2020   26.7800   33.5170 C   0  0  0  0  0  0  0  0  0  0  0  0
   37.0960   25.6000   32.9050 C   0  0  0  0  0  0  0  0  0  0  0  0
   37.7650   24.5390   33.3770 C   0  0  0  0  0  0  0  0  0  0  0  0
   38.5490   24.7260   34.4980 C   0  0  0  0  0  0  0  0  0  0  0  0
   38.2990   26.5010   34.8710 S   0  0  0  0  0  0  0  0  0  0  0  0
   36.4560   25.5430   32.0280 H   0  0  0  0  0  0  0  0  0  0  0  0
   37.7730   23.5310   32.9860 H   0  0  0  0  0  0  0  0  0  0  0  0
   37.4490   23.9840   37.2570 Cl  0  0  0  0  0  0  0  0  0  0  0  0
   38.9550   23.4820   36.5310 C   0  0  0  0  0  0  0  0  0  0  0  0
   39.3960   23.8510   35.2800 C   0  0  0  0  0  0  0  0  0  0  0  0
   40.5450   23.4850   34.6880 C   0  0  0  0  0  0  0  0  0  0  0  0
   41.4100   22.6380   35.3960 C   0  0  0  0  0  0  0  0  0  0  0  0
   41.0470   22.2210   36.6520 C   0  0  0  0  0  0  0  0  0  0  0  0
   42.0730   21.1620   37.5980 Cl  0  0  0  0  0  0  0  0  0  0  0  0
   39.8440   22.6310   37.2160 C   0  0  0  0  0  0  0  0  0  0  0  0
   40.8580   23.7980   33.7000 H   0  0  0  0  0  0  0  0  0  0  0  0
   42.3470   22.3260   34.9410 H   0  0  0  0  0  0  0  0  0  0  0  0
   39.5820   22.2890   38.2080 H   0  0  0  0  0  0  0  0  0  0  0  0
   35.9430   29.8560   31.7390 C   0  0  0  0  0  0  0  0  0  0  0  0
   36.5290   28.5880   31.9220 C   0  0  0  0  0  0  0  0  0  0  0  0
   36.6050   28.0920   33.2430 C   0  0  0  0  0  0  0  0  0  0  0  0
   36.1290   28.8300   34.2470 N   0  0  0  0  0  0  0  0  0  0  0  0
   35.5720   30.0400   34.0390 C   0  0  0  0  0  0  0  0  0  0  0  0
   35.4820   30.5430   32.7980 N   0  0  0  0  0  0  0  0  0  0  0  0
   35.8830   30.2400   30.7230 H   0  0  0  0  0  0  0  0  0  0  0  0
   36.9150   27.9950   31.1080 H   0  0  0  0  0  0  0  0  0  0  0  0
   35.0650   30.8020   35.1850 C   0  0  0  0  0  0  0  0  0  0  0  0
   35.7550   31.6490   36.0350 C   0  0  0  0  0  0  0  0  0  0  0  0
   36.7990   31.8460   35.9350 H   0  0  0  0  0  0  0  0  0  0  0  0
   34.8290   32.1140   36.9420 C   0  0  0  0  0  0  0  0  0  0  0  0
   35.0560   32.7930   37.7340 H   0  0  0  0  0  0  0  0  0  0  0  0
   33.6160   31.5450   36.6240 C   0  0  0  0  0  0  0  0  0  0  0  0
   32.7050   31.7240   37.1600 H   0  0  0  0  0  0  0  0  0  0  0  0
   33.8100   30.7810   35.5810 O   0  0  0  0  0  0  0  0  0  0  0  0
  1  5  1  0  0  0  0
  2  3  1  0  0  0  0
  2  1  2  0  0  0  0
  3  4  2  0  0  0  0
  4  5  1  0  0  0  0
  4 10  1  0  0  0  0
  6  2  1  0  0  0  0
  7  3  1  0  0  0  0
  9 15  1  0  0  0  0
  9  8  1  0  0  0  0
 10  9  2  0  0  0  0
 11 10  1  0  0  0  0
 11 12  2  0  0  0  0
 12 13  1  0  0  0  0
 13 15  2  0  0  0  0
 13 14  1  0  0  0  0
 15 18  1  0  0  0  0
 16 11  1  0  0  0  0
 17 12  1  0  0  0  0
 19 20  2  0  0  0  0
 19 24  1  0  0  0  0
 20 21  1  0  0  0  0
 21  1  1  0  0  0  0
 21 22  2  0  0  0  0
 23 22  1  0  0  0  0
 23 27  1  0  0  0  0
 24 23  2  0  0  0  0
 25 19  1  0  0  0  0
 26 20  1  0  0  0  0
 27 34  1  0  0  0  0
 27 28  2  0  0  0  0
 28 30  1  0  0  0  0
 29 28  1  0  0  0  0
 30 31  1  0  0  0  0
 32 30  2  0  0  0  0
 32 33  1  0  0  0  0
 34 32  1  0  0  0  0
M  END
>  <minimizedAffinity>
-6.10505486

$$$$

 OpenBabel03272503213D

 34 37  0  0  0  0  0  0  0  0999 V2000
   36.7240   27.5470   32.8080 C   0  0  0  0  0  0  0  0  0  0  0  0
   36.0960   28.4400   32.0440 C   0  0  0  0  0  0  0  0  0  0  0  0
   35.5080   29.5050   32.6070 C   0  0  0  0  0  0  0  0  0  0  0  0
   35.5860   29.6250   33.9800 C   0  0  0  0  0  0  0  0  0  0  0  0
   36.5440   28.1400   34.4600 S   0  0  0  0  0  0  0  0  0  0  0  0
   36.0830   28.2670   30.9710 H   0  0  0  0  0  0  0  0  0  0  0  0
   34.9680   30.3030   32.1160 H   0  0  0  0  0  0  0  0  0  0  0  0
   32.6230   29.3550   34.7040 Cl  0  0  0  0  0  0  0  0  0  0  0  0
   33.7680   30.5340   35.2910 C   0  0  0  0  0  0  0  0  0  0  0  0
   35.0930   30.6040   34.9260 C   0  0  0  0  0  0  0  0  0  0  0  0
   36.0040   31.4950   35.3560 C   0  0  0  0  0  0  0  0  0  0  0  0
   35.5890   32.4700   36.2740 C   0  0  0  0  0  0  0  0  0  0  0  0
   34.2820   32.4730   36.6910 C   0  0  0  0  0  0  0  0  0  0  0  0
   33.6870   33.6580   37.8360 Cl  0  0  0  0  0  0  0  0  0  0  0  0
   33.3820   31.5260   36.2130 C   0  0  0  0  0  0  0  0  0  0  0  0
   37.0400   31.5170   35.0440 H   0  0  0  0  0  0  0  0  0  0  0  0
   36.3040   33.2030   36.6370 H   0  0  0  0  0  0  0  0  0  0  0  0
   32.3570   31.5500   36.5580 H   0  0  0  0  0  0  0  0  0  0  0  0
   39.4360   25.1070   31.8560 C   0  0  0  0  0  0  0  0  0  0  0  0
   38.8150   26.3360   32.1500 C   0  0  0  0  0  0  0  0  0  0  0  0
   37.4440   26.3080   32.4890 C   0  0  0  0  0  0  0  0  0  0  0  0
   36.8020   25.1390   32.5160 N   0  0  0  0  0  0  0  0  0  0  0  0
   37.4240   23.9770   32.2300 C   0  0  0  0  0  0  0  0  0  0  0  0
   38.7260   23.9660   31.9050 N   0  0  0  0  0  0  0  0  0  0  0  0
   40.4920   25.1270   31.5960 H   0  0  0  0  0  0  0  0  0  0  0  0
   39.3370   27.2800   32.1270 H   0  0  0  0  0  0  0  0  0  0  0  0
   36.6630   22.7250   32.2780 C   0  0  0  0  0  0  0  0  0  0  0  0
   35.6230   22.3120   31.4630 C   0  0  0  0  0  0  0  0  0  0  0  0
   35.2440   22.9060   30.6620 H   0  0  0  0  0  0  0  0  0  0  0  0
   35.2540   21.0660   31.9190 C   0  0  0  0  0  0  0  0  0  0  0  0
   34.4700   20.4810   31.4920 H   0  0  0  0  0  0  0  0  0  0  0  0
   36.0690   20.7580   32.9860 C   0  0  0  0  0  0  0  0  0  0  0  0
   36.0130   19.8460   33.5460 H   0  0  0  0  0  0  0  0  0  0  0  0
   36.8810   21.7690   33.1560 O   0  0  0  0  0  0  0  0  0  0  0  0
  1  5  1  0  0  0  0
  2  3  1  0  0  0  0
  2  1  2  0  0  0  0
  3  4  2  0  0  0  0
  4  5  1  0  0  0  0
  4 10  1  0  0  0  0
  6  2  1  0  0  0  0
  7  3  1  0  0  0  0
  8  9  1  0  0  0  0
  9 15  1  0  0  0  0
 10  9  2  0  0  0  0
 10 11  1  0  0  0  0
 11 12  2  0  0  0  0
 12 17  1  0  0  0  0
 12 13  1  0  0  0  0
 13 14  1  0  0  0  0
 15 18  1  0  0  0  0
 15 13  2  0  0  0  0
 16 11  1  0  0  0  0
 19 24  2  0  0  0  0
 19 20  1  0  0  0  0
 20 21  2  0  0  0  0
 21 22  1  0  0  0  0
 21  1  1  0  0  0  0
 23 27  1  0  0  0  0
 23 22  2  0  0  0  0
 24 23  1  0  0  0  0
 25 19  1  0  0  0  0
 26 20  1  0  0  0  0
 27 34  1  0  0  0  0
 28 30  1  0  0  0  0
 28 27  2  0  0  0  0
 29 28  1  0  0  0  0
 30 32  2  0  0  0  0
 31 30  1  0  0  0  0
 32 34  1  0  0  0  0
 32 33  1  0  0  0  0
M  END
>  <minimizedAffinity>
-5.89039373

$$$$

 OpenBabel03272503213D

 34 37  0  0  0  0  0  0  0  0999 V2000
   36.6310   26.9300   32.5320 C   0  0  0  0  0  0  0  0  0  0  0  0
   37.4100   26.2310   33.3580 C   0  0  0  0  0  0  0  0  0  0  0  0
   37.5690   24.9130   33.1730 C   0  0  0  0  0  0  0  0  0  0  0  0
   36.9030   24.3340   32.1110 C   0  0  0  0  0  0  0  0  0  0  0  0
   36.0220   25.7550   31.3650 S   0  0  0  0  0  0  0  0  0  0  0  0
   37.8960   26.7690   34.1680 H   0  0  0  0  0  0  0  0  0  0  0  0
   38.1640   24.2270   33.7590 H   0  0  0  0  0  0  0  0  0  0  0  0
   39.4340   23.3310   30.7090 Cl  0  0  0  0  0  0  0  0  0  0  0  0
   37.9330   22.4740   30.9590 C   0  0  0  0  0  0  0  0  0  0  0  0
   36.8260   22.9820   31.6000 C   0  0  0  0  0  0  0  0  0  0  0  0
   35.6570   22.3540   31.8120 C   0  0  0  0  0  0  0  0  0  0  0  0
   35.5190   21.0410   31.3400 C   0  0  0  0  0  0  0  0  0  0  0  0
   36.5760   20.4580   30.6880 C   0  0  0  0  0  0  0  0  0  0  0  0
   36.4820   18.8210   30.0700 Cl  0  0  0  0  0  0  0  0  0  0  0  0
   37.7650   21.1540   30.4970 C   0  0  0  0  0  0  0  0  0  0  0  0
   34.8070   22.7890   32.3220 H   0  0  0  0  0  0  0  0  0  0  0  0
   34.5840   20.5100   31.4980 H   0  0  0  0  0  0  0  0  0  0  0  0
   38.5820   20.6720   29.9800 H   0  0  0  0  0  0  0  0  0  0  0  0
   35.9620   30.4280   31.2960 C   0  0  0  0  0  0  0  0  0  0  0  0
   36.3220   29.0670   31.2650 C   0  0  0  0  0  0  0  0  0  0  0  0
   36.2710   28.3520   32.4820 C   0  0  0  0  0  0  0  0  0  0  0  0
   35.8910   28.9820   33.5940 N   0  0  0  0  0  0  0  0  0  0  0  0
   35.5510   30.2880   33.5930 C   0  0  0  0  0  0  0  0  0  0  0  0
   35.5880   30.9980   32.4550 N   0  0  0  0  0  0  0  0  0  0  0  0
   36.0000   30.9800   30.3590 H   0  0  0  0  0  0  0  0  0  0  0  0
   36.6300   28.5600   30.3630 H   0  0  0  0  0  0  0  0  0  0  0  0
   35.1410   30.9230   34.8490 C   0  0  0  0  0  0  0  0  0  0  0  0
   35.9200   31.6020   35.7700 C   0  0  0  0  0  0  0  0  0  0  0  0
   36.9710   31.7400   35.6510 H   0  0  0  0  0  0  0  0  0  0  0  0
   35.0620   32.0040   36.7710 C   0  0  0  0  0  0  0  0  0  0  0  0
   35.3650   32.5550   37.6330 H   0  0  0  0  0  0  0  0  0  0  0  0
   33.8010   31.5640   36.4350 C   0  0  0  0  0  0  0  0  0  0  0  0
   32.9240   31.7300   37.0290 H   0  0  0  0  0  0  0  0  0  0  0  0
   33.9030   30.9330   35.2940 O   0  0  0  0  0  0  0  0  0  0  0  0
  1  2  2  0  0  0  0
  2  6  1  0  0  0  0
  3  2  1  0  0  0  0
  3  7  1  0  0  0  0
  4  3  2  0  0  0  0
  5  4  1  0  0  0  0
  5  1  1  0  0  0  0
  8  9  1  0  0  0  0
  9 10  1  0  0  0  0
 10 11  2  0  0  0  0
 10  4  1  0  0  0  0
 11 16  1  0  0  0  0
 12 17  1  0  0  0  0
 12 11  1  0  0  0  0
 13 12  2  0  0  0  0
 14 13  1  0  0  0  0
 15 13  1  0  0  0  0
 15  9  2  0  0  0  0
 18 15  1  0  0  0  0
 19 24  1  0  0  0  0
 20 19  2  0  0  0  0
 20 21  1  0  0  0  0
 21  1  1  0  0  0  0
 21 22  2  0  0  0  0
 23 22  1  0  0  0  0
 23 27  1  0  0  0  0
 24 23  2  0  0  0  0
 25 19  1  0  0  0  0
 26 20  1  0  0  0  0
 27 34  1  0  0  0  0
 27 28  2  0  0  0  0
 28 30  1  0  0  0  0
 29 28  1  0  0  0  0
 30 31  1  0  0  0  0
 32 30  2  0  0  0  0
 32 33  1  0  0  0  0
 34 32  1  0  0  0  0
M  END
>  <minimizedAffinity>
-5.8630209

$$$$

 OpenBabel03272503213D

 34 37  0  0  0  0  0  0  0  0999 V2000
   36.8210   27.2930   33.4230 C   0  0  0  0  0  0  0  0  0  0  0  0
   37.0030   26.2530   32.6090 C   0  0  0  0  0  0  0  0  0  0  0  0
   37.7250   25.2010   33.0180 C   0  0  0  0  0  0  0  0  0  0  0  0
   38.2560   25.2490   34.2920 C   0  0  0  0  0  0  0  0  0  0  0  0
   37.6830   26.8760   34.9060 S   0  0  0  0  0  0  0  0  0  0  0  0
   36.5490   26.3000   31.6220 H   0  0  0  0  0  0  0  0  0  0  0  0
   37.9530   24.2980   32.4700 H   0  0  0  0  0  0  0  0  0  0  0  0
   41.2710   25.7680   34.1740 Cl  0  0  0  0  0  0  0  0  0  0  0  0
   40.4310   24.5190   35.0570 C   0  0  0  0  0  0  0  0  0  0  0  0
   39.0660   24.3360   35.0700 C   0  0  0  0  0  0  0  0  0  0  0  0
   38.3840   23.3890   35.7360 C   0  0  0  0  0  0  0  0  0  0  0  0
   39.1130   22.4730   36.5090 C   0  0  0  0  0  0  0  0  0  0  0  0
   40.4790   22.5830   36.5520 C   0  0  0  0  0  0  0  0  0  0  0  0
   41.4590   21.4780   37.4940 Cl  0  0  0  0  0  0  0  0  0  0  0  0
   41.1340   23.5850   35.8420 C   0  0  0  0  0  0  0  0  0  0  0  0
   37.3070   23.2780   35.7210 H   0  0  0  0  0  0  0  0  0  0  0  0
   38.5860   21.6970   37.0570 H   0  0  0  0  0  0  0  0  0  0  0  0
   42.2120   23.6500   35.8930 H   0  0  0  0  0  0  0  0  0  0  0  0
   35.0710   30.2650   31.9010 C   0  0  0  0  0  0  0  0  0  0  0  0
   35.7660   29.0420   31.9760 C   0  0  0  0  0  0  0  0  0  0  0  0
   36.0970   28.5590   33.2610 C   0  0  0  0  0  0  0  0  0  0  0  0
   35.7440   29.2660   34.3360 N   0  0  0  0  0  0  0  0  0  0  0  0
   35.0770   30.4340   34.2330 C   0  0  0  0  0  0  0  0  0  0  0  0
   34.7470   30.9240   33.0280 N   0  0  0  0  0  0  0  0  0  0  0  0
   34.8150   30.6390   30.9120 H   0  0  0  0  0  0  0  0  0  0  0  0
   36.0510   28.4740   31.1050 H   0  0  0  0  0  0  0  0  0  0  0  0
   34.7170   31.1640   35.4530 C   0  0  0  0  0  0  0  0  0  0  0  0
   35.4520   32.1110   36.1430 C   0  0  0  0  0  0  0  0  0  0  0  0
   36.4240   32.4280   35.8370 H   0  0  0  0  0  0  0  0  0  0  0  0
   34.6740   32.4900   37.2150 C   0  0  0  0  0  0  0  0  0  0  0  0
   34.9680   33.2140   37.9420 H   0  0  0  0  0  0  0  0  0  0  0  0
   33.5000   31.7720   37.1470 C   0  0  0  0  0  0  0  0  0  0  0  0
   32.6980   31.8570   37.8530 H   0  0  0  0  0  0  0  0  0  0  0  0
   33.5770   31.0060   36.0900 O   0  0  0  0  0  0  0  0  0  0  0  0
  1  5  1  0  0  0  0
  2  3  1  0  0  0  0
  2  1  2  0  0  0  0
  3  4  2  0  0  0  0
  4  5  1  0  0  0  0
  4 10  1  0  0  0  0
  6  2  1  0  0  0  0
  7  3  1  0  0  0  0
  8  9  1  0  0  0  0
  9 10  2  0  0  0  0
  9 15  1  0  0  0  0
 10 11  1  0  0  0  0
 11 12  2  0  0  0  0
 12 13  1  0  0  0  0
 12 17  1  0  0  0  0
 13 14  1  0  0  0  0
 15 18  1  0  0  0  0
 15 13  2  0  0  0  0
 16 11  1  0  0  0  0
 19 20  2  0  0  0  0
 19 24  1  0  0  0  0
 20 21  1  0  0  0  0
 21  1  1  0  0  0  0
 21 22  2  0  0  0  0
 23 22  1  0  0  0  0
 23 27  1  0  0  0  0
 24 23  2  0  0  0  0
 25 19  1  0  0  0  0
 26 20  1  0  0  0  0
 27 34  1  0  0  0  0
 27 28  2  0  0  0  0
 28 30  1  0  0  0  0
 29 28  1  0  0  0  0
 30 31  1  0  0  0  0
 32 30  2  0  0  0  0
 32 33  1  0  0  0  0
 34 32  1  0  0  0  0
M  END
>  <minimizedAffinity>
-5.834867

$$$$

 OpenBabel03272503213D

 34 37  0  0  0  0  0  0  0  0999 V2000
   37.9530   25.1440   34.8170 C   0  0  0  0  0  0  0  0  0  0  0  0
   37.6530   24.7580   33.5770 C   0  0  0  0  0  0  0  0  0  0  0  0
   37.2070   25.6550   32.6870 C   0  0  0  0  0  0  0  0  0  0  0  0
   37.0780   26.9630   33.1080 C   0  0  0  0  0  0  0  0  0  0  0  0
   37.6240   26.8780   34.8540 S   0  0  0  0  0  0  0  0  0  0  0  0
   37.7840   23.7070   33.3310 H   0  0  0  0  0  0  0  0  0  0  0  0
   36.9270   25.4850   31.6560 H   0  0  0  0  0  0  0  0  0  0  0  0
   38.8080   27.8680   30.7500 Cl  0  0  0  0  0  0  0  0  0  0  0  0
   37.3800   28.6400   31.3930 C   0  0  0  0  0  0  0  0  0  0  0  0
   36.6420   28.1810   32.4600 C   0  0  0  0  0  0  0  0  0  0  0  0
   35.5400   28.7460   32.9820 C   0  0  0  0  0  0  0  0  0  0  0  0
   35.0670   29.9310   32.3990 C   0  0  0  0  0  0  0  0  0  0  0  0
   35.7450   30.4570   31.3280 C   0  0  0  0  0  0  0  0  0  0  0  0
   35.2170   31.9330   30.5450 Cl  0  0  0  0  0  0  0  0  0  0  0  0
   36.8810   29.8300   30.8280 C   0  0  0  0  0  0  0  0  0  0  0  0
   34.9860   28.3540   33.8260 H   0  0  0  0  0  0  0  0  0  0  0  0
   34.1790   30.4090   32.8010 H   0  0  0  0  0  0  0  0  0  0  0  0
   37.3970   30.2650   29.9840 H   0  0  0  0  0  0  0  0  0  0  0  0
   38.2730   23.6870   38.2790 C   0  0  0  0  0  0  0  0  0  0  0  0
   37.7300   24.4130   37.2010 C   0  0  0  0  0  0  0  0  0  0  0  0
   38.4510   24.4110   35.9860 C   0  0  0  0  0  0  0  0  0  0  0  0
   39.5980   23.7330   35.9080 N   0  0  0  0  0  0  0  0  0  0  0  0
   40.0920   23.0450   36.9580 C   0  0  0  0  0  0  0  0  0  0  0  0
   39.4340   23.0250   38.1270 N   0  0  0  0  0  0  0  0  0  0  0  0
   37.7190   23.6870   39.2150 H   0  0  0  0  0  0  0  0  0  0  0  0
   36.8040   24.9610   37.2680 H   0  0  0  0  0  0  0  0  0  0  0  0
   41.3570   22.3200   36.8080 C   0  0  0  0  0  0  0  0  0  0  0  0
   42.5210   22.7290   36.1810 C   0  0  0  0  0  0  0  0  0  0  0  0
   42.6210   23.6810   35.7100 H   0  0  0  0  0  0  0  0  0  0  0  0
   43.4120   21.6880   36.3160 C   0  0  0  0  0  0  0  0  0  0  0  0
   44.4090   21.7000   35.9330 H   0  0  0  0  0  0  0  0  0  0  0  0
   42.7750   20.6860   37.0140 C   0  0  0  0  0  0  0  0  0  0  0  0
   43.2250   19.7470   37.2700 H   0  0  0  0  0  0  0  0  0  0  0  0
   41.5660   21.1090   37.2790 O   0  0  0  0  0  0  0  0  0  0  0  0
  1  5  1  0  0  0  0
  1 21  1  0  0  0  0
  2  1  2  0  0  0  0
  3  4  2  0  0  0  0
  3  2  1  0  0  0  0
  4  5  1  0  0  0  0
  6  2  1  0  0  0  0
  7  3  1  0  0  0  0
  8  9  1  0  0  0  0
  9 10  1  0  0  0  0
 10 11  2  0  0  0  0
 10  4  1  0  0  0  0
 11 16  1  0  0  0  0
 12 17  1  0  0  0  0
 12 11  1  0  0  0  0
 13 12  2  0  0  0  0
 14 13  1  0  0  0  0
 15 13  1  0  0  0  0
 15  9  2  0  0  0  0
 18 15  1  0  0  0  0
 19 25  1  0  0  0  0
 20 26  1  0  0  0  0
 20 19  2  0  0  0  0
 21 20  1  0  0  0  0
 22 21  2  0  0  0  0
 22 23  1  0  0  0  0
 23 24  2  0  0  0  0
 24 19  1  0  0  0  0
 27 23  1  0  0  0  0
 27 34  1  0  0  0  0
 28 30  1  0  0  0  0
 28 27  2  0  0  0  0
 29 28  1  0  0  0  0
 30 32  2  0  0  0  0
 31 30  1  0  0  0  0
 32 33  1  0  0  0  0
 32 34  1  0  0  0  0
M  END
>  <minimizedAffinity>
-5.83386135

$$$$

 OpenBabel03272503213D

 34 37  0  0  0  0  0  0  0  0999 V2000
   37.5720   27.2860   34.0300 C   0  0  0  0  0  0  0  0  0  0  0  0
   37.8010   27.5200   35.3220 C   0  0  0  0  0  0  0  0  0  0  0  0
   38.5030   26.6390   36.0470 C   0  0  0  0  0  0  0  0  0  0  0  0
   38.9630   25.5070   35.4060 C   0  0  0  0  0  0  0  0  0  0  0  0
   38.3530   25.7390   33.6950 S   0  0  0  0  0  0  0  0  0  0  0  0
   37.4010   28.4380   35.7460 H   0  0  0  0  0  0  0  0  0  0  0  0
   38.7620   26.6980   37.0960 H   0  0  0  0  0  0  0  0  0  0  0  0
   37.4940   23.5910   37.2890 Cl  0  0  0  0  0  0  0  0  0  0  0  0
   39.1260   23.4610   36.6840 C   0  0  0  0  0  0  0  0  0  0  0  0
   39.7330   24.3590   35.8360 C   0  0  0  0  0  0  0  0  0  0  0  0
   40.9840   24.2920   35.3490 C   0  0  0  0  0  0  0  0  0  0  0  0
   41.7820   23.2030   35.7290 C   0  0  0  0  0  0  0  0  0  0  0  0
   41.2540   22.2600   36.5740 C   0  0  0  0  0  0  0  0  0  0  0  0
   42.1870   20.8710   37.0940 Cl  0  0  0  0  0  0  0  0  0  0  0  0
   39.9520   22.3790   37.0470 C   0  0  0  0  0  0  0  0  0  0  0  0
   41.4260   25.0210   34.6820 H   0  0  0  0  0  0  0  0  0  0  0  0
   42.7970   23.1250   35.3510 H   0  0  0  0  0  0  0  0  0  0  0  0
   39.5600   21.6220   37.7120 H   0  0  0  0  0  0  0  0  0  0  0  0
   36.6690   28.9800   30.7860 C   0  0  0  0  0  0  0  0  0  0  0  0
   37.4180   28.2400   31.7200 C   0  0  0  0  0  0  0  0  0  0  0  0
   36.8540   28.0460   33.0000 C   0  0  0  0  0  0  0  0  0  0  0  0
   35.6540   28.5640   33.2700 N   0  0  0  0  0  0  0  0  0  0  0  0
   34.9600   29.2680   32.3540 C   0  0  0  0  0  0  0  0  0  0  0  0
   35.4650   29.4720   31.1280 N   0  0  0  0  0  0  0  0  0  0  0  0
   37.1020   29.1300   29.7990 H   0  0  0  0  0  0  0  0  0  0  0  0
   38.3880   27.8230   31.4980 H   0  0  0  0  0  0  0  0  0  0  0  0
   33.6450   29.8110   32.7130 C   0  0  0  0  0  0  0  0  0  0  0  0
   32.9810   29.7400   33.9240 C   0  0  0  0  0  0  0  0  0  0  0  0
   33.3860   29.2470   34.7790 H   0  0  0  0  0  0  0  0  0  0  0  0
   31.7870   30.4030   33.7430 C   0  0  0  0  0  0  0  0  0  0  0  0
   31.0470   30.5210   34.5030 H   0  0  0  0  0  0  0  0  0  0  0  0
   31.7590   30.8550   32.4420 C   0  0  0  0  0  0  0  0  0  0  0  0
   30.9480   31.4090   32.0120 H   0  0  0  0  0  0  0  0  0  0  0  0
   32.8780   30.4790   31.8790 O   0  0  0  0  0  0  0  0  0  0  0  0
  1  2  2  0  0  0  0
  2  6  1  0  0  0  0
  2  3  1  0  0  0  0
  3  7  1  0  0  0  0
  4 10  1  0  0  0  0
  4  3  2  0  0  0  0
  5  1  1  0  0  0  0
  5  4  1  0  0  0  0
  9 15  1  0  0  0  0
  9  8  1  0  0  0  0
 10  9  2  0  0  0  0
 11 12  2  0  0  0  0
 11 10  1  0  0  0  0
 12 13  1  0  0  0  0
 13 15  2  0  0  0  0
 13 14  1  0  0  0  0
 15 18  1  0  0  0  0
 16 11  1  0  0  0  0
 17 12  1  0  0  0  0
 19 24  2  0  0  0  0
 19 20  1  0  0  0  0
 20 21  2  0  0  0  0
 21 22  1  0  0  0  0
 21  1  1  0  0  0  0
 23 27  1  0  0  0  0
 23 22  2  0  0  0  0
 24 23  1  0  0  0  0
 25 19  1  0  0  0  0
 26 20  1  0  0  0  0
 27 28  2  0  0  0  0
 28 29  1  0  0  0  0
 30 28  1  0  0  0  0
 30 31  1  0  0  0  0
 32 30  2  0  0  0  0
 33 32  1  0  0  0  0
 34 32  1  0  0  0  0
 34 27  1  0  0  0  0
M  END
>  <minimizedAffinity>
-5.78844261

$$$$

 OpenBabel03272503213D

 34 37  0  0  0  0  0  0  0  0999 V2000
   37.5430   27.3620   34.0810 C   0  0  0  0  0  0  0  0  0  0  0  0
   37.7920   27.5590   35.3760 C   0  0  0  0  0  0  0  0  0  0  0  0
   38.4950   26.6510   36.0670 C   0  0  0  0  0  0  0  0  0  0  0  0
   38.9350   25.5330   35.3890 C   0  0  0  0  0  0  0  0  0  0  0  0
   38.3040   25.8180   33.6930 S   0  0  0  0  0  0  0  0  0  0  0  0
   37.4060   28.4680   35.8310 H   0  0  0  0  0  0  0  0  0  0  0  0
   38.7700   26.6790   37.1130 H   0  0  0  0  0  0  0  0  0  0  0  0
   37.4680   23.5710   37.2250 Cl  0  0  0  0  0  0  0  0  0  0  0  0
   39.0940   23.4470   36.6020 C   0  0  0  0  0  0  0  0  0  0  0  0
   39.7000   24.3670   35.7760 C   0  0  0  0  0  0  0  0  0  0  0  0
   40.9460   24.3060   35.2770 C   0  0  0  0  0  0  0  0  0  0  0  0
   41.7390   23.2000   35.6160 C   0  0  0  0  0  0  0  0  0  0  0  0
   41.2120   22.2350   36.4360 C   0  0  0  0  0  0  0  0  0  0  0  0
   42.1380   20.8240   36.9040 Cl  0  0  0  0  0  0  0  0  0  0  0  0
   39.9140   22.3480   36.9240 C   0  0  0  0  0  0  0  0  0  0  0  0
   41.3890   25.0520   34.6290 H   0  0  0  0  0  0  0  0  0  0  0  0
   42.7510   23.1260   35.2260 H   0  0  0  0  0  0  0  0  0  0  0  0
   39.5230   21.5740   37.5690 H   0  0  0  0  0  0  0  0  0  0  0  0
   34.9010   29.4260   32.3580 C   0  0  0  0  0  0  0  0  0  0  0  0
   35.5340   28.6730   33.3660 C   0  0  0  0  0  0  0  0  0  0  0  0
   36.8170   28.1560   33.0830 C   0  0  0  0  0  0  0  0  0  0  0  0
   37.3710   28.3970   31.8930 N   0  0  0  0  0  0  0  0  0  0  0  0
   36.7400   29.1220   30.9470 C   0  0  0  0  0  0  0  0  0  0  0  0
   35.5200   29.6290   31.1810 N   0  0  0  0  0  0  0  0  0  0  0  0
   33.9120   29.8250   32.5740 H   0  0  0  0  0  0  0  0  0  0  0  0
   35.0830   28.4800   34.3260 H   0  0  0  0  0  0  0  0  0  0  0  0
   37.4030   29.3510   29.6590 C   0  0  0  0  0  0  0  0  0  0  0  0
   37.3720   30.4790   28.8580 C   0  0  0  0  0  0  0  0  0  0  0  0
   36.8220   31.3570   29.1150 H   0  0  0  0  0  0  0  0  0  0  0  0
   38.1540   30.1900   27.7630 C   0  0  0  0  0  0  0  0  0  0  0  0
   38.3290   30.8670   26.9560 H   0  0  0  0  0  0  0  0  0  0  0  0
   38.6350   28.9090   27.9250 C   0  0  0  0  0  0  0  0  0  0  0  0
   39.2760   28.4110   27.2250 H   0  0  0  0  0  0  0  0  0  0  0  0
   38.1630   28.4600   29.0590 O   0  0  0  0  0  0  0  0  0  0  0  0
  1  2  2  0  0  0  0
  2  6  1  0  0  0  0
  2  3  1  0  0  0  0
  3  7  1  0  0  0  0
  4 10  1  0  0  0  0
  4  3  2  0  0  0  0
  5  1  1  0  0  0  0
  5  4  1  0  0  0  0
  9 15  1  0  0  0  0
  9  8  1  0  0  0  0
 10  9  2  0  0  0  0
 11 12  2  0  0  0  0
 11 10  1  0  0  0  0
 12 13  1  0  0  0  0
 13 14  1  0  0  0  0
 13 15  2  0  0  0  0
 15 18  1  0  0  0  0
 16 11  1  0  0  0  0
 17 12  1  0  0  0  0
 19 25  1  0  0  0  0
 19 20  1  0  0  0  0
 20 26  1  0  0  0  0
 21 20  2  0  0  0  0
 21  1  1  0  0  0  0
 22 21  1  0  0  0  0
 23 24  1  0  0  0  0
 23 22  2  0  0  0  0
 24 19  2  0  0  0  0
 27 23  1  0  0  0  0
 28 29  1  0  0  0  0
 28 27  2  0  0  0  0
 30 32  2  0  0  0  0
 30 28  1  0  0  0  0
 31 30  1  0  0  0  0
 32 34  1  0  0  0  0
 33 32  1  0  0  0  0
 34 27  1  0  0  0  0
M  END
>  <minimizedAffinity>
-5.72561836

$$$$

 OpenBabel03272503213D

 34 37  0  0  0  0  0  0  0  0999 V2000
   37.0500   27.2180   33.3600 C   0  0  0  0  0  0  0  0  0  0  0  0
   36.5450   28.0510   32.4500 C   0  0  0  0  0  0  0  0  0  0  0  0
   35.8980   29.1570   32.8420 C   0  0  0  0  0  0  0  0  0  0  0  0
   35.7850   29.3830   34.1990 C   0  0  0  0  0  0  0  0  0  0  0  0
   36.6490   27.9380   34.9200 S   0  0  0  0  0  0  0  0  0  0  0  0
   36.6810   27.7950   31.4020 H   0  0  0  0  0  0  0  0  0  0  0  0
   35.4420   29.9150   32.2210 H   0  0  0  0  0  0  0  0  0  0  0  0
   32.7230   29.3840   34.2200 Cl  0  0  0  0  0  0  0  0  0  0  0  0
   33.8030   30.4860   35.0370 C   0  0  0  0  0  0  0  0  0  0  0  0
   35.1780   30.4320   34.9890 C   0  0  0  0  0  0  0  0  0  0  0  0
   36.0400   31.2600   35.6030 C   0  0  0  0  0  0  0  0  0  0  0  0
   35.5140   32.2990   36.3840 C   0  0  0  0  0  0  0  0  0  0  0  0
   34.1520   32.4250   36.4870 C   0  0  0  0  0  0  0  0  0  0  0  0
   33.4180   33.6960   37.4430 Cl  0  0  0  0  0  0  0  0  0  0  0  0
   33.3050   31.5390   35.8290 C   0  0  0  0  0  0  0  0  0  0  0  0
   37.1190   31.1850   35.5400 H   0  0  0  0  0  0  0  0  0  0  0  0
   36.1890   32.9830   36.8920 H   0  0  0  0  0  0  0  0  0  0  0  0
   32.2350   31.6600   35.9260 H   0  0  0  0  0  0  0  0  0  0  0  0
   38.7780   24.1830   31.9390 C   0  0  0  0  0  0  0  0  0  0  0  0
   38.0610   25.3950   31.9730 C   0  0  0  0  0  0  0  0  0  0  0  0
   37.7920   25.9570   33.2400 C   0  0  0  0  0  0  0  0  0  0  0  0
   38.2190   25.3290   34.3380 N   0  0  0  0  0  0  0  0  0  0  0  0
   38.9040   24.1690   34.2740 C   0  0  0  0  0  0  0  0  0  0  0  0
   39.1780   23.6070   33.0870 N   0  0  0  0  0  0  0  0  0  0  0  0
   38.9870   23.7490   30.9640 H   0  0  0  0  0  0  0  0  0  0  0  0
   37.7170   25.8990   31.0840 H   0  0  0  0  0  0  0  0  0  0  0  0
   39.3470   23.5290   35.5160 C   0  0  0  0  0  0  0  0  0  0  0  0
   40.4230   22.6820   35.7190 C   0  0  0  0  0  0  0  0  0  0  0  0
   41.0840   22.3890   34.9350 H   0  0  0  0  0  0  0  0  0  0  0  0
   40.4060   22.3590   37.0570 C   0  0  0  0  0  0  0  0  0  0  0  0
   41.1160   21.7140   37.5260 H   0  0  0  0  0  0  0  0  0  0  0  0
   39.3330   23.0090   37.6260 C   0  0  0  0  0  0  0  0  0  0  0  0
   39.0680   22.9450   38.6630 H   0  0  0  0  0  0  0  0  0  0  0  0
   38.7430   23.6850   36.6750 O   0  0  0  0  0  0  0  0  0  0  0  0
  1  5  1  0  0  0  0
  2  3  1  0  0  0  0
  2  1  2  0  0  0  0
  3  4  2  0  0  0  0
  4  5  1  0  0  0  0
  4 10  1  0  0  0  0
  6  2  1  0  0  0  0
  7  3  1  0  0  0  0
  8  9  1  0  0  0  0
  9 15  1  0  0  0  0
 10  9  2  0  0  0  0
 10 11  1  0  0  0  0
 11 12  2  0  0  0  0
 12 13  1  0  0  0  0
 12 17  1  0  0  0  0
 13 14  1  0  0  0  0
 15 18  1  0  0  0  0
 15 13  2  0  0  0  0
 16 11  1  0  0  0  0
 19 20  2  0  0  0  0
 19 24  1  0  0  0  0
 20 21  1  0  0  0  0
 21  1  1  0  0  0  0
 21 22  2  0  0  0  0
 23 22  1  0  0  0  0
 23 27  1  0  0  0  0
 24 23  2  0  0  0  0
 25 19  1  0  0  0  0
 26 20  1  0  0  0  0
 27 28  2  0  0  0  0
 27 34  1  0  0  0  0
 28 30  1  0  0  0  0
 29 28  1  0  0  0  0
 30 31  1  0  0  0  0
 30 32  2  0  0  0  0
 32 33  1  0  0  0  0
 34 32  1  0  0  0  0
M  END
>  <minimizedAffinity>
-5.66363239

$$$$

 OpenBabel03272503213D

 34 37  0  0  0  0  0  0  0  0999 V2000
   38.8210   26.6280   33.5620 C   0  0  0  0  0  0  0  0  0  0  0  0
   39.8910   27.0980   34.2010 C   0  0  0  0  0  0  0  0  0  0  0  0
   40.6580   26.2670   34.9210 C   0  0  0  0  0  0  0  0  0  0  0  0
   40.2920   24.9370   34.9650 C   0  0  0  0  0  0  0  0  0  0  0  0
   38.7850   24.9010   33.9240 S   0  0  0  0  0  0  0  0  0  0  0  0
   40.1060   28.1600   34.1130 H   0  0  0  0  0  0  0  0  0  0  0  0
   41.5480   26.5070   35.4870 H   0  0  0  0  0  0  0  0  0  0  0  0
   38.5940   23.7820   37.2360 Cl  0  0  0  0  0  0  0  0  0  0  0  0
   40.1310   23.2040   36.6430 C   0  0  0  0  0  0  0  0  0  0  0  0
   40.8480   23.7690   35.6130 C   0  0  0  0  0  0  0  0  0  0  0  0
   42.0310   23.3530   35.1290 C   0  0  0  0  0  0  0  0  0  0  0  0
   42.6230   22.2250   35.7160 C   0  0  0  0  0  0  0  0  0  0  0  0
   41.9740   21.6000   36.7500 C   0  0  0  0  0  0  0  0  0  0  0  0
   42.6490   20.1860   37.5340 Cl  0  0  0  0  0  0  0  0  0  0  0  0
   40.7500   22.0740   37.2110 C   0  0  0  0  0  0  0  0  0  0  0  0
   42.5660   23.8260   34.3150 H   0  0  0  0  0  0  0  0  0  0  0  0
   43.5800   21.8680   35.3440 H   0  0  0  0  0  0  0  0  0  0  0  0
   40.2600   21.5630   38.0280 H   0  0  0  0  0  0  0  0  0  0  0  0
   36.9530   27.9510   30.5660 C   0  0  0  0  0  0  0  0  0  0  0  0
   37.9610   27.3090   31.3110 C   0  0  0  0  0  0  0  0  0  0  0  0
   37.8130   27.2770   32.7150 C   0  0  0  0  0  0  0  0  0  0  0  0
   36.7420   27.8470   33.2720 N   0  0  0  0  0  0  0  0  0  0  0  0
   35.7920   28.4540   32.5310 C   0  0  0  0  0  0  0  0  0  0  0  0
   35.9000   28.5020   31.1950 N   0  0  0  0  0  0  0  0  0  0  0  0
   37.0650   27.9760   29.4840 H   0  0  0  0  0  0  0  0  0  0  0  0
   38.8260   26.8500   30.8570 H   0  0  0  0  0  0  0  0  0  0  0  0
   34.6390   29.0600   33.2040 C   0  0  0  0  0  0  0  0  0  0  0  0
   33.4110   29.4120   32.6690 C   0  0  0  0  0  0  0  0  0  0  0  0
   33.1640   29.2680   31.6410 H   0  0  0  0  0  0  0  0  0  0  0  0
   32.6800   29.9400   33.7100 C   0  0  0  0  0  0  0  0  0  0  0  0
   31.6820   30.3060   33.6150 H   0  0  0  0  0  0  0  0  0  0  0  0
   33.4730   29.8960   34.8360 C   0  0  0  0  0  0  0  0  0  0  0  0
   33.1680   30.2410   35.8040 H   0  0  0  0  0  0  0  0  0  0  0  0
   34.6160   29.3680   34.4830 O   0  0  0  0  0  0  0  0  0  0  0  0
  1  5  1  0  0  0  0
  1  2  2  0  0  0  0
  2  3  1  0  0  0  0
  3  4  2  0  0  0  0
  3  7  1  0  0  0  0
  4 10  1  0  0  0  0
  5  4  1  0  0  0  0
  6  2  1  0  0  0  0
  9 15  1  0  0  0  0
  9  8  1  0  0  0  0
 10  9  2  0  0  0  0
 11 10  1  0  0  0  0
 11 12  2  0  0  0  0
 12 13  1  0  0  0  0
 13 15  2  0  0  0  0
 13 14  1  0  0  0  0
 15 18  1  0  0  0  0
 16 11  1  0  0  0  0
 17 12  1  0  0  0  0
 19 24  2  0  0  0  0
 19 20  1  0  0  0  0
 20 21  2  0  0  0  0
 21 22  1  0  0  0  0
 21  1  1  0  0  0  0
 23 27  1  0  0  0  0
 23 22  2  0  0  0  0
 24 23  1  0  0  0  0
 25 19  1  0  0  0  0
 26 20  1  0  0  0  0
 27 34  1  0  0  0  0
 28 27  2  0  0  0  0
 28 30  1  0  0  0  0
 29 28  1  0  0  0  0
 30 32  2  0  0  0  0
 31 30  1  0  0  0  0
 32 33  1  0  0  0  0
 34 32  1  0  0  0  0
M  END
>  <minimizedAffinity>
-5.5093751

$$$$
