
 OpenBabel03272510273D

 44 48  0  0  1  0  0  0  0  0999 V2000
   34.9370   29.4620   47.4780 C   0  0  0  0  0  0  0  0  0  0  0  0
   36.0940   30.1320   47.7940 C   0  0  0  0  0  0  0  0  0  0  0  0
   36.7830   30.8840   46.8280 C   0  0  0  0  0  0  0  0  0  0  0  0
   36.2260   30.9070   45.5480 C   0  0  0  0  0  0  0  0  0  0  0  0
   36.6920   31.5580   44.4420 N   0  0  0  0  0  0  0  0  0  0  0  0
   35.8300   31.2930   43.4520 C   0  0  0  0  0  0  0  0  0  0  0  0
   34.8680   30.5130   43.9040 N   0  0  0  0  0  0  0  0  0  0  0  0
   35.0730   30.2470   45.2050 C   0  0  0  0  0  0  0  0  0  0  0  0
   34.4200   29.5090   46.2000 C   0  0  0  0  0  0  0  0  0  0  0  0
   34.4110   28.8830   48.2310 H   0  0  0  0  0  0  0  0  0  0  0  0
   37.7000   31.4260   47.0450 H   0  0  0  0  0  0  0  0  0  0  0  0
   37.5480   32.1390   44.4020 H   0  0  0  0  0  0  0  0  0  0  0  0
   33.5110   28.9900   45.9290 H   0  0  0  0  0  0  0  0  0  0  0  0
   38.1550   30.3570   50.9380 C   0  0  0  0  0  0  0  0  0  0  0  0
   37.8360   30.4990   49.5870 C   0  0  0  0  0  0  0  0  0  0  0  0
   36.6120   30.0710   49.1480 C   0  0  0  0  0  0  0  0  0  0  0  0
   35.7680   29.5190   50.0910 N   0  0  0  0  0  0  0  0  0  0  0  0
   36.0830   29.3850   51.3900 C   0  0  0  0  0  0  0  0  0  0  0  0
   37.2650   29.8010   51.8010 N   0  0  0  0  0  0  0  0  0  0  0  0
   39.1270   30.7010   51.2630 H   0  0  0  0  0  0  0  0  0  0  0  0
   38.4820   30.9260   48.8410 H   0  0  0  0  0  0  0  0  0  0  0  0
   35.3660   28.9420   52.0680 H   0  0  0  0  0  0  0  0  0  0  0  0
   35.9940   31.8030   42.1630 O   0  0  0  0  0  0  0  0  0  0  0  0
   34.8990   33.5960   43.1100 N   0  0  0  0  0  0  0  0  0  0  0  0
   35.1940   32.9400   41.8540 C   0  0  1  0  0  0  0  0  0  0  0  0
   35.8990   33.8380   40.9530 C   0  0  0  0  0  0  0  0  0  0  0  0
   35.0590   34.9230   40.6500 O   0  0  0  0  0  0  0  0  0  0  0  0
   34.5640   35.5970   41.7300 C   0  0  0  0  0  0  0  0  0  0  0  0
   33.9840   34.6720   42.7720 C   0  0  1  0  0  0  0  0  0  0  0  0
   35.6470   34.0300   43.6200 H   0  0  0  0  0  0  0  0  0  0  0  0
   34.2200   32.6420   41.4320 H   0  0  0  0  0  0  0  0  0  0  0  0
   36.0080   33.3080   39.9580 H   0  0  0  0  0  0  0  0  0  0  0  0
   36.8290   34.2990   41.1490 H   0  0  0  0  0  0  0  0  0  0  0  0
   33.7760   36.2650   41.3830 H   0  0  0  0  0  0  0  0  0  0  0  0
   35.4030   36.1660   42.2140 H   0  0  0  0  0  0  0  0  0  0  0  0
   33.7400   35.2990   43.6630 H   0  0  0  0  0  0  0  0  0  0  0  0
   32.7640   34.0470   42.1980 C   0  0  0  0  0  0  0  0  0  0  0  0
   31.8550   34.8600   41.5120 C   0  0  0  0  0  0  0  0  0  0  0  0
   31.8850   35.9230   41.3130 H   0  0  0  0  0  0  0  0  0  0  0  0
   30.8090   34.0630   41.0730 C   0  0  0  0  0  0  0  0  0  0  0  0
   29.9480   34.3980   40.5120 H   0  0  0  0  0  0  0  0  0  0  0  0
   31.1420   32.8000   41.5220 C   0  0  0  0  0  0  0  0  0  0  0  0
   30.5120   31.9410   41.3350 H   0  0  0  0  0  0  0  0  0  0  0  0
   32.2910   32.8220   42.1770 O   0  0  0  0  0  0  0  0  0  0  0  0
  1  2  1  0  0  0  0
  1 10  1  0  0  0  0
  2 16  1  0  0  0  0
  3 11  1  0  0  0  0
  3  2  2  0  0  0  0
  4  3  1  0  0  0  0
  5  4  1  0  0  0  0
  6  7  2  0  0  0  0
  6  5  1  0  0  0  0
  7  8  1  0  0  0  0
  8  4  2  0  0  0  0
  8  9  1  0  0  0  0
  9  1  2  0  0  0  0
 12  5  1  0  0  0  0
 13  9  1  0  0  0  0
 14 20  1  0  0  0  0
 14 19  1  0  0  0  0
 15 14  2  0  0  0  0
 16 15  1  0  0  0  0
 16 17  2  0  0  0  0
 17 18  1  0  0  0  0
 18 19  2  0  0  0  0
 18 22  1  0  0  0  0
 21 15  1  0  0  0  0
 23  6  1  0  0  0  0
 24 30  1  0  0  0  0
 25 31  1  6  0  0  0
 25 23  1  0  0  0  0
 25 24  1  0  0  0  0
 26 33  1  0  0  0  0
 26 25  1  0  0  0  0
 27 26  1  0  0  0  0
 27 28  1  0  0  0  0
 28 35  1  0  0  0  0
 28 29  1  0  0  0  0
 29 24  1  0  0  0  0
 29 36  1  1  0  0  0
 32 26  1  0  0  0  0
 34 28  1  0  0  0  0
 37 29  1  0  0  0  0
 38 37  2  0  0  0  0
 39 38  1  0  0  0  0
 40 38  1  0  0  0  0
 40 42  2  0  0  0  0
 41 40  1  0  0  0  0
 42 44  1  0  0  0  0
 43 42  1  0  0  0  0
 44 37  1  0  0  0  0
M  END
>  <minimizedAffinity>
-5.61077166

>  <minimizedRMSD>
5.0241785

$$$$
