
 OpenBabel03262523373D

 33 35  0  0  1  0  0  0  0  0999 V2000
   38.0350   25.9840   33.4890 C   0  0  2  0  0  0  0  0  0  0  0  0
   38.3790   24.9810   34.5660 C   0  0  0  0  0  0  0  0  0  0  0  0
   37.8480   25.3620   35.9140 C   0  0  2  0  0  0  0  0  0  0  0  0
   38.2370   26.7460   36.3500 C   0  0  0  0  0  0  0  0  0  0  0  0
   38.1810   27.7600   35.2490 C   0  0  0  0  0  0  0  0  0  0  0  0
   37.4590   27.2500   34.0200 C   0  0  0  0  0  0  0  0  0  0  0  0
   38.9270   26.2190   32.8700 H   0  0  0  0  0  0  0  0  0  0  0  0
   38.0550   23.9660   34.3430 H   0  0  0  0  0  0  0  0  0  0  0  0
   39.4990   24.9750   34.6590 H   0  0  0  0  0  0  0  0  0  0  0  0
   36.7370   25.2280   35.9240 H   0  0  0  0  0  0  0  0  0  0  0  0
   37.5340   27.0160   37.1920 H   0  0  0  0  0  0  0  0  0  0  0  0
   39.2680   26.7040   36.7610 H   0  0  0  0  0  0  0  0  0  0  0  0
   39.2030   28.1330   35.0030 H   0  0  0  0  0  0  0  0  0  0  0  0
   37.6170   28.6580   35.6000 H   0  0  0  0  0  0  0  0  0  0  0  0
   37.4890   28.0380   33.2650 H   0  0  0  0  0  0  0  0  0  0  0  0
   36.4050   27.0690   34.3140 H   0  0  0  0  0  0  0  0  0  0  0  0
   37.0380   25.3930   32.5440 C   0  0  0  0  0  0  0  0  0  0  0  0
   36.2240   26.3080   31.8500 C   0  0  0  0  0  0  0  0  0  0  0  0
   35.2790   25.7680   30.9680 C   0  0  0  0  0  0  0  0  0  0  0  0
   35.1960   24.4020   30.8270 N   0  0  0  0  0  0  0  0  0  0  0  0
   36.0080   23.5570   31.5230 C   0  0  0  0  0  0  0  0  0  0  0  0
   36.9120   24.0570   32.3670 N   0  0  0  0  0  0  0  0  0  0  0  0
   36.2410   27.3650   31.9190 H   0  0  0  0  0  0  0  0  0  0  0  0
   34.6050   26.4030   30.3860 H   0  0  0  0  0  0  0  0  0  0  0  0
   35.8710   22.5000   31.3480 H   0  0  0  0  0  0  0  0  0  0  0  0
   38.4370   24.3930   36.8960 C   0  0  0  0  0  0  0  0  0  0  0  0
   38.0410   24.2620   38.2240 C   0  0  0  0  0  0  0  0  0  0  0  0
   37.2650   24.8190   38.7620 H   0  0  0  0  0  0  0  0  0  0  0  0
   38.8390   23.2590   38.7680 C   0  0  0  0  0  0  0  0  0  0  0  0
   38.8020   22.8890   39.8020 H   0  0  0  0  0  0  0  0  0  0  0  0
   39.6770   22.8380   37.7320 C   0  0  0  0  0  0  0  0  0  0  0  0
   40.4290   22.0570   37.8270 H   0  0  0  0  0  0  0  0  0  0  0  0
   39.4070   23.5270   36.6580 O   0  0  0  0  0  0  0  0  0  0  0  0
  1  7  1  6  0  0  0
  1  6  1  0  0  0  0
  1  2  1  0  0  0  0
  2  9  1  0  0  0  0
  2  3  1  0  0  0  0
  3 10  1  1  0  0  0
  3  4  1  0  0  0  0
  3 26  1  0  0  0  0
  4 12  1  0  0  0  0
  4 11  1  0  0  0  0
  5 14  1  0  0  0  0
  5  4  1  0  0  0  0
  6 16  1  0  0  0  0
  6  5  1  0  0  0  0
  8  2  1  0  0  0  0
 13  5  1  0  0  0  0
 15  6  1  0  0  0  0
 17  1  1  0  0  0  0
 18 23  1  0  0  0  0
 18 17  2  0  0  0  0
 19 18  1  0  0  0  0
 20 19  2  0  0  0  0
 20 21  1  0  0  0  0
 21 22  2  0  0  0  0
 22 17  1  0  0  0  0
 24 19  1  0  0  0  0
 25 21  1  0  0  0  0
 26 27  2  0  0  0  0
 27 28  1  0  0  0  0
 27 29  1  0  0  0  0
 29 30  1  0  0  0  0
 31 32  1  0  0  0  0
 31 29  2  0  0  0  0
 33 26  1  0  0  0  0
 33 31  1  0  0  0  0
M  END
>  <minimizedAffinity>
-5.38973999

$$$$

 OpenBabel03262523373D

 33 35  0  0  1  0  0  0  0  0999 V2000
   39.2060   22.5110   36.5980 C   0  0  2  0  0  0  0  0  0  0  0  0
   38.7250   23.5420   35.6030 C   0  0  0  0  0  0  0  0  0  0  0  0
   38.6920   24.9300   36.1660 C   0  0  2  0  0  0  0  0  0  0  0  0
   37.9190   25.0460   37.4480 C   0  0  0  0  0  0  0  0  0  0  0  0
   38.1400   23.9010   38.3880 C   0  0  0  0  0  0  0  0  0  0  0  0
   39.3150   23.0340   37.9880 C   0  0  0  0  0  0  0  0  0  0  0  0
   38.5440   21.6200   36.5940 H   0  0  0  0  0  0  0  0  0  0  0  0
   39.2960   23.5600   34.6760 H   0  0  0  0  0  0  0  0  0  0  0  0
   37.6620   23.2790   35.3510 H   0  0  0  0  0  0  0  0  0  0  0  0
   39.7400   25.3050   36.2840 H   0  0  0  0  0  0  0  0  0  0  0  0
   38.2340   26.0250   37.9140 H   0  0  0  0  0  0  0  0  0  0  0  0
   36.8390   25.1150   37.1980 H   0  0  0  0  0  0  0  0  0  0  0  0
   37.2060   23.3030   38.5090 H   0  0  0  0  0  0  0  0  0  0  0  0
   38.3690   24.2970   39.4070 H   0  0  0  0  0  0  0  0  0  0  0  0
   39.3860   22.2160   38.7070 H   0  0  0  0  0  0  0  0  0  0  0  0
   40.2250   23.6640   38.0630 H   0  0  0  0  0  0  0  0  0  0  0  0
   40.5560   22.0080   36.1960 C   0  0  0  0  0  0  0  0  0  0  0  0
   41.3980   21.5880   37.2430 C   0  0  0  0  0  0  0  0  0  0  0  0
   42.6690   21.1220   36.8820 C   0  0  0  0  0  0  0  0  0  0  0  0
   43.0220   21.1000   35.5520 N   0  0  0  0  0  0  0  0  0  0  0  0
   42.1700   21.5180   34.5740 C   0  0  0  0  0  0  0  0  0  0  0  0
   40.9560   21.9640   34.9040 N   0  0  0  0  0  0  0  0  0  0  0  0
   41.1820   21.5850   38.2810 H   0  0  0  0  0  0  0  0  0  0  0  0
   43.3890   20.7750   37.6280 H   0  0  0  0  0  0  0  0  0  0  0  0
   42.5340   21.4640   33.5590 H   0  0  0  0  0  0  0  0  0  0  0  0
   38.0100   25.7900   35.1430 C   0  0  0  0  0  0  0  0  0  0  0  0
   37.7160   27.1420   35.3040 C   0  0  0  0  0  0  0  0  0  0  0  0
   37.9220   27.7860   36.1660 H   0  0  0  0  0  0  0  0  0  0  0  0
   37.0890   27.5430   34.1270 C   0  0  0  0  0  0  0  0  0  0  0  0
   36.7180   28.5530   33.9020 H   0  0  0  0  0  0  0  0  0  0  0  0
   37.0390   26.4060   33.3170 C   0  0  0  0  0  0  0  0  0  0  0  0
   36.6060   26.3800   32.3190 H   0  0  0  0  0  0  0  0  0  0  0  0
   37.5880   25.4060   33.9500 O   0  0  0  0  0  0  0  0  0  0  0  0
  1  7  1  6  0  0  0
  1  6  1  0  0  0  0
  2  3  1  0  0  0  0
  2  1  1  0  0  0  0
  3 10  1  1  0  0  0
  3  4  1  0  0  0  0
  4 11  1  0  0  0  0
  4  5  1  0  0  0  0
  5 13  1  0  0  0  0
  5 14  1  0  0  0  0
  6 16  1  0  0  0  0
  6  5  1  0  0  0  0
  6 15  1  0  0  0  0
  8  2  1  0  0  0  0
  9  2  1  0  0  0  0
 12  4  1  0  0  0  0
 17  1  1  0  0  0  0
 17 18  1  0  0  0  0
 18 23  1  0  0  0  0
 19 18  2  0  0  0  0
 19 24  1  0  0  0  0
 20 19  1  0  0  0  0
 21 22  1  0  0  0  0
 21 20  2  0  0  0  0
 22 17  2  0  0  0  0
 25 21  1  0  0  0  0
 26 27  2  0  0  0  0
 26  3  1  0  0  0  0
 27 28  1  0  0  0  0
 29 27  1  0  0  0  0
 30 29  1  0  0  0  0
 31 33  1  0  0  0  0
 31 29  2  0  0  0  0
 32 31  1  0  0  0  0
 33 26  1  0  0  0  0
M  END
>  <minimizedAffinity>
-4.82909489

$$$$

 OpenBabel03262523373D

 33 35  0  0  1  0  0  0  0  0999 V2000
   37.4870   26.9710   33.1820 C   0  0  2  0  0  0  0  0  0  0  0  0
   38.9810   26.7460   33.1510 C   0  0  0  0  0  0  0  0  0  0  0  0
   39.5390   26.3300   34.4780 C   0  0  2  0  0  0  0  0  0  0  0  0
   39.1770   27.2550   35.6050 C   0  0  0  0  0  0  0  0  0  0  0  0
   37.7620   27.7440   35.5490 C   0  0  0  0  0  0  0  0  0  0  0  0
   36.9160   26.9740   34.5570 C   0  0  0  0  0  0  0  0  0  0  0  0
   37.2210   27.9230   32.6740 H   0  0  0  0  0  0  0  0  0  0  0  0
   39.3030   26.0260   32.4010 H   0  0  0  0  0  0  0  0  0  0  0  0
   39.4540   27.7360   32.9070 H   0  0  0  0  0  0  0  0  0  0  0  0
   39.2270   25.2780   34.6960 H   0  0  0  0  0  0  0  0  0  0  0  0
   39.3730   26.6780   36.5560 H   0  0  0  0  0  0  0  0  0  0  0  0
   39.8690   28.1230   35.5790 H   0  0  0  0  0  0  0  0  0  0  0  0
   37.7310   28.8420   35.3550 H   0  0  0  0  0  0  0  0  0  0  0  0
   37.2830   27.6090   36.5490 H   0  0  0  0  0  0  0  0  0  0  0  0
   35.9160   27.4110   34.5620 H   0  0  0  0  0  0  0  0  0  0  0  0
   36.8570   25.9280   34.9230 H   0  0  0  0  0  0  0  0  0  0  0  0
   36.7950   25.8970   32.4060 C   0  0  0  0  0  0  0  0  0  0  0  0
   35.7750   26.3210   31.5330 C   0  0  0  0  0  0  0  0  0  0  0  0
   35.1130   25.3250   30.8050 C   0  0  0  0  0  0  0  0  0  0  0  0
   35.4840   24.0110   30.9760 N   0  0  0  0  0  0  0  0  0  0  0  0
   36.4790   23.6500   31.8340 C   0  0  0  0  0  0  0  0  0  0  0  0
   37.1180   24.5880   32.5340 N   0  0  0  0  0  0  0  0  0  0  0  0
   35.4460   27.3140   31.3630 H   0  0  0  0  0  0  0  0  0  0  0  0
   34.3080   25.5620   30.1040 H   0  0  0  0  0  0  0  0  0  0  0  0
   36.7010   22.5950   31.9020 H   0  0  0  0  0  0  0  0  0  0  0  0
   41.0330   26.3470   34.3380 C   0  0  0  0  0  0  0  0  0  0  0  0
   41.8910   25.3610   34.8180 C   0  0  0  0  0  0  0  0  0  0  0  0
   41.6380   24.4410   35.3580 H   0  0  0  0  0  0  0  0  0  0  0  0
   43.1780   25.7690   34.4760 C   0  0  0  0  0  0  0  0  0  0  0  0
   44.1100   25.2310   34.6980 H   0  0  0  0  0  0  0  0  0  0  0  0
   43.0240   26.9860   33.8060 C   0  0  0  0  0  0  0  0  0  0  0  0
   43.8460   27.5750   33.4030 H   0  0  0  0  0  0  0  0  0  0  0  0
   41.7550   27.2840   33.7480 O   0  0  0  0  0  0  0  0  0  0  0  0
  1  7  1  6  0  0  0
  1  6  1  0  0  0  0
  2  1  1  0  0  0  0
  2  3  1  0  0  0  0
  3 10  1  1  0  0  0
  3  4  1  0  0  0  0
  4 11  1  0  0  0  0
  5  4  1  0  0  0  0
  5 14  1  0  0  0  0
  6 15  1  0  0  0  0
  6 16  1  0  0  0  0
  6  5  1  0  0  0  0
  8  2  1  0  0  0  0
  9  2  1  0  0  0  0
 12  4  1  0  0  0  0
 13  5  1  0  0  0  0
 17 22  1  0  0  0  0
 17  1  1  0  0  0  0
 18 17  2  0  0  0  0
 19 20  2  0  0  0  0
 19 18  1  0  0  0  0
 20 21  1  0  0  0  0
 21 25  1  0  0  0  0
 21 22  2  0  0  0  0
 23 18  1  0  0  0  0
 24 19  1  0  0  0  0
 26  3  1  0  0  0  0
 26 27  2  0  0  0  0
 27 28  1  0  0  0  0
 29 30  1  0  0  0  0
 29 27  1  0  0  0  0
 31 29  2  0  0  0  0
 32 31  1  0  0  0  0
 33 31  1  0  0  0  0
 33 26  1  0  0  0  0
M  END
>  <minimizedAffinity>
-4.79721355

$$$$

 OpenBabel03262523373D

 33 35  0  0  1  0  0  0  0  0999 V2000
   38.6600   25.1450   35.8370 C   0  0  2  0  0  0  0  0  0  0  0  0
   39.7790   24.1360   35.7180 C   0  0  0  0  0  0  0  0  0  0  0  0
   39.4870   22.8500   36.4300 C   0  0  2  0  0  0  0  0  0  0  0  0
   39.1010   23.0300   37.8710 C   0  0  0  0  0  0  0  0  0  0  0  0
   38.1940   24.1980   38.1070 C   0  0  0  0  0  0  0  0  0  0  0  0
   37.6160   24.7600   36.8260 C   0  0  0  0  0  0  0  0  0  0  0  0
   39.0610   26.1480   36.0990 H   0  0  0  0  0  0  0  0  0  0  0  0
   40.0570   23.9040   34.6910 H   0  0  0  0  0  0  0  0  0  0  0  0
   40.6760   24.5820   36.2280 H   0  0  0  0  0  0  0  0  0  0  0  0
   38.7050   22.2840   35.8650 H   0  0  0  0  0  0  0  0  0  0  0  0
   38.6120   22.0610   38.1850 H   0  0  0  0  0  0  0  0  0  0  0  0
   40.0290   23.1570   38.4670 H   0  0  0  0  0  0  0  0  0  0  0  0
   38.7090   24.9830   38.7090 H   0  0  0  0  0  0  0  0  0  0  0  0
   37.3260   23.8730   38.7320 H   0  0  0  0  0  0  0  0  0  0  0  0
   36.9940   25.6180   37.0880 H   0  0  0  0  0  0  0  0  0  0  0  0
   36.9770   23.9700   36.3830 H   0  0  0  0  0  0  0  0  0  0  0  0
   37.9890   25.3170   34.5120 C   0  0  0  0  0  0  0  0  0  0  0  0
   37.4840   26.6020   34.2350 C   0  0  0  0  0  0  0  0  0  0  0  0
   36.8450   26.7760   33.0010 C   0  0  0  0  0  0  0  0  0  0  0  0
   36.7450   25.7070   32.1410 N   0  0  0  0  0  0  0  0  0  0  0  0
   37.2500   24.4810   32.4550 C   0  0  0  0  0  0  0  0  0  0  0  0
   37.8620   24.3010   33.6270 N   0  0  0  0  0  0  0  0  0  0  0  0
   37.5300   27.4590   34.8570 H   0  0  0  0  0  0  0  0  0  0  0  0
   36.4230   27.7390   32.7010 H   0  0  0  0  0  0  0  0  0  0  0  0
   37.1250   23.7020   31.7180 H   0  0  0  0  0  0  0  0  0  0  0  0
   40.7520   22.0440   36.3960 C   0  0  0  0  0  0  0  0  0  0  0  0
   41.4230   21.5620   37.5160 C   0  0  0  0  0  0  0  0  0  0  0  0
   41.1570   21.6810   38.5730 H   0  0  0  0  0  0  0  0  0  0  0  0
   42.5350   20.8760   37.0350 C   0  0  0  0  0  0  0  0  0  0  0  0
   43.2940   20.3630   37.6420 H   0  0  0  0  0  0  0  0  0  0  0  0
   42.4730   20.9830   35.6430 C   0  0  0  0  0  0  0  0  0  0  0  0
   43.2020   20.5510   34.9590 H   0  0  0  0  0  0  0  0  0  0  0  0
   41.4160   21.6730   35.3140 O   0  0  0  0  0  0  0  0  0  0  0  0
  1  7  1  1  0  0  0
  1  6  1  0  0  0  0
  2  1  1  0  0  0  0
  2  9  1  0  0  0  0
  2  3  1  0  0  0  0
  3 10  1  6  0  0  0
  3  4  1  0  0  0  0
  4  5  1  0  0  0  0
  4 11  1  0  0  0  0
  4 12  1  0  0  0  0
  5 13  1  0  0  0  0
  5 14  1  0  0  0  0
  6 15  1  0  0  0  0
  6  5  1  0  0  0  0
  8  2  1  0  0  0  0
 16  6  1  0  0  0  0
 17  1  1  0  0  0  0
 18 17  1  0  0  0  0
 18 23  1  0  0  0  0
 19 18  2  0  0  0  0
 20 21  2  0  0  0  0
 20 19  1  0  0  0  0
 21 22  1  0  0  0  0
 22 17  2  0  0  0  0
 24 19  1  0  0  0  0
 25 21  1  0  0  0  0
 26  3  1  0  0  0  0
 26 27  2  0  0  0  0
 27 28  1  0  0  0  0
 29 27  1  0  0  0  0
 29 30  1  0  0  0  0
 31 29  2  0  0  0  0
 32 31  1  0  0  0  0
 33 31  1  0  0  0  0
 33 26  1  0  0  0  0
M  END
>  <minimizedAffinity>
-4.77563715

$$$$

 OpenBabel03262523373D

 33 35  0  0  1  0  0  0  0  0999 V2000
   38.4570   26.0910   35.4870 C   0  0  2  0  0  0  0  0  0  0  0  0
   37.3980   25.6880   34.4860 C   0  0  0  0  0  0  0  0  0  0  0  0
   37.9590   25.3900   33.1290 C   0  0  2  0  0  0  0  0  0  0  0  0
   38.8100   26.4930   32.5690 C   0  0  0  0  0  0  0  0  0  0  0  0
   39.7050   27.1340   33.5840 C   0  0  0  0  0  0  0  0  0  0  0  0
   39.7890   26.3450   34.8730 C   0  0  0  0  0  0  0  0  0  0  0  0
   38.1380   26.9900   36.0560 H   0  0  0  0  0  0  0  0  0  0  0  0
   36.7920   24.8410   34.8020 H   0  0  0  0  0  0  0  0  0  0  0  0
   36.7180   26.5730   34.3580 H   0  0  0  0  0  0  0  0  0  0  0  0
   38.5160   24.4210   33.1650 H   0  0  0  0  0  0  0  0  0  0  0  0
   39.4080   26.0300   31.7300 H   0  0  0  0  0  0  0  0  0  0  0  0
   38.1390   27.2620   32.1300 H   0  0  0  0  0  0  0  0  0  0  0  0
   39.4030   28.1920   33.7660 H   0  0  0  0  0  0  0  0  0  0  0  0
   40.7450   27.1920   33.1790 H   0  0  0  0  0  0  0  0  0  0  0  0
   40.4350   26.8940   35.5600 H   0  0  0  0  0  0  0  0  0  0  0  0
   40.2620   25.3720   34.6280 H   0  0  0  0  0  0  0  0  0  0  0  0
   38.6260   25.0110   36.5080 C   0  0  0  0  0  0  0  0  0  0  0  0
   39.4880   23.9550   36.1570 C   0  0  0  0  0  0  0  0  0  0  0  0
   39.6500   22.9330   37.1000 C   0  0  0  0  0  0  0  0  0  0  0  0
   38.9730   23.0090   38.2950 N   0  0  0  0  0  0  0  0  0  0  0  0
   38.1490   24.0530   38.5890 C   0  0  0  0  0  0  0  0  0  0  0  0
   37.9850   25.0350   37.7000 N   0  0  0  0  0  0  0  0  0  0  0  0
   40.0320   23.8420   35.2540 H   0  0  0  0  0  0  0  0  0  0  0  0
   40.3010   22.0740   36.9130 H   0  0  0  0  0  0  0  0  0  0  0  0
   37.6590   24.0280   39.5520 H   0  0  0  0  0  0  0  0  0  0  0  0
   36.7850   25.2110   32.2110 C   0  0  0  0  0  0  0  0  0  0  0  0
   36.1470   26.2370   31.5210 C   0  0  0  0  0  0  0  0  0  0  0  0
   36.3780   27.3080   31.5260 H   0  0  0  0  0  0  0  0  0  0  0  0
   35.1220   25.6350   30.7950 C   0  0  0  0  0  0  0  0  0  0  0  0
   34.4090   26.1470   30.1330 H   0  0  0  0  0  0  0  0  0  0  0  0
   35.1980   24.2720   31.0900 C   0  0  0  0  0  0  0  0  0  0  0  0
   34.5320   23.5150   30.6810 H   0  0  0  0  0  0  0  0  0  0  0  0
   36.1840   24.0690   31.9200 O   0  0  0  0  0  0  0  0  0  0  0  0
  1  7  1  1  0  0  0
  1 17  1  0  0  0  0
  2  8  1  0  0  0  0
  2  1  1  0  0  0  0
  3 10  1  1  0  0  0
  3  2  1  0  0  0  0
  4  3  1  0  0  0  0
  4  5  1  0  0  0  0
  5 13  1  0  0  0  0
  5  6  1  0  0  0  0
  6  1  1  0  0  0  0
  6 15  1  0  0  0  0
  9  2  1  0  0  0  0
 11  4  1  0  0  0  0
 12  4  1  0  0  0  0
 14  5  1  0  0  0  0
 16  6  1  0  0  0  0
 17 22  1  0  0  0  0
 18 17  2  0  0  0  0
 18 19  1  0  0  0  0
 19 20  2  0  0  0  0
 20 21  1  0  0  0  0
 21 25  1  0  0  0  0
 22 21  2  0  0  0  0
 23 18  1  0  0  0  0
 24 19  1  0  0  0  0
 26  3  1  0  0  0  0
 27 28  1  0  0  0  0
 27 26  2  0  0  0  0
 29 31  2  0  0  0  0
 29 27  1  0  0  0  0
 30 29  1  0  0  0  0
 31 33  1  0  0  0  0
 32 31  1  0  0  0  0
 33 26  1  0  0  0  0
M  END
>  <minimizedAffinity>
-4.72436953

$$$$

 OpenBabel03262523373D

 33 35  0  0  1  0  0  0  0  0999 V2000
   39.0650   25.6950   35.2400 C   0  0  2  0  0  0  0  0  0  0  0  0
   38.1960   25.1970   34.1090 C   0  0  0  0  0  0  0  0  0  0  0  0
   37.6520   26.3040   33.2570 C   0  0  2  0  0  0  0  0  0  0  0  0
   36.9320   27.3690   34.0340 C   0  0  0  0  0  0  0  0  0  0  0  0
   37.6040   27.7270   35.3240 C   0  0  0  0  0  0  0  0  0  0  0  0
   39.0080   27.1710   35.4280 C   0  0  0  0  0  0  0  0  0  0  0  0
   38.7950   25.1940   36.1950 H   0  0  0  0  0  0  0  0  0  0  0  0
   38.6870   24.4740   33.4600 H   0  0  0  0  0  0  0  0  0  0  0  0
   37.3070   24.6940   34.5780 H   0  0  0  0  0  0  0  0  0  0  0  0
   38.4790   26.7350   32.6400 H   0  0  0  0  0  0  0  0  0  0  0  0
   36.8630   28.2620   33.3470 H   0  0  0  0  0  0  0  0  0  0  0  0
   35.9010   27.0120   34.2420 H   0  0  0  0  0  0  0  0  0  0  0  0
   36.9750   27.4260   36.1950 H   0  0  0  0  0  0  0  0  0  0  0  0
   37.6960   28.8380   35.4000 H   0  0  0  0  0  0  0  0  0  0  0  0
   39.4090   27.4550   36.4020 H   0  0  0  0  0  0  0  0  0  0  0  0
   39.6100   27.6560   34.6320 H   0  0  0  0  0  0  0  0  0  0  0  0
   40.4910   25.3250   34.9860 C   0  0  0  0  0  0  0  0  0  0  0  0
   41.3260   26.3580   34.5200 C   0  0  0  0  0  0  0  0  0  0  0  0
   42.6630   26.0240   34.2690 C   0  0  0  0  0  0  0  0  0  0  0  0
   43.0830   24.7320   34.4840 N   0  0  0  0  0  0  0  0  0  0  0  0
   42.2360   23.7660   34.9360 C   0  0  0  0  0  0  0  0  0  0  0  0
   40.9590   24.0690   35.1800 N   0  0  0  0  0  0  0  0  0  0  0  0
   41.0590   27.3670   34.3340 H   0  0  0  0  0  0  0  0  0  0  0  0
   43.3840   26.7620   33.9050 H   0  0  0  0  0  0  0  0  0  0  0  0
   42.6540   22.7800   35.0760 H   0  0  0  0  0  0  0  0  0  0  0  0
   36.6610   25.6760   32.3220 C   0  0  0  0  0  0  0  0  0  0  0  0
   35.7870   26.3770   31.4950 C   0  0  0  0  0  0  0  0  0  0  0  0
   35.6750   27.4620   31.3870 H   0  0  0  0  0  0  0  0  0  0  0  0
   35.0540   25.4160   30.8040 C   0  0  0  0  0  0  0  0  0  0  0  0
   34.2680   25.6100   30.0610 H   0  0  0  0  0  0  0  0  0  0  0  0
   35.5280   24.1820   31.2540 C   0  0  0  0  0  0  0  0  0  0  0  0
   35.1600   23.2170   30.9080 H   0  0  0  0  0  0  0  0  0  0  0  0
   36.4660   24.3810   32.1390 O   0  0  0  0  0  0  0  0  0  0  0  0
  1  6  1  0  0  0  0
  1  7  1  1  0  0  0
  2  9  1  0  0  0  0
  2  1  1  0  0  0  0
  3 10  1  6  0  0  0
  3  4  1  0  0  0  0
  3  2  1  0  0  0  0
  4 12  1  0  0  0  0
  4  5  1  0  0  0  0
  5 14  1  0  0  0  0
  5  6  1  0  0  0  0
  5 13  1  0  0  0  0
  6 15  1  0  0  0  0
  8  2  1  0  0  0  0
 11  4  1  0  0  0  0
 16  6  1  0  0  0  0
 17 22  1  0  0  0  0
 17  1  1  0  0  0  0
 18 17  2  0  0  0  0
 19 20  2  0  0  0  0
 19 18  1  0  0  0  0
 20 21  1  0  0  0  0
 21 25  1  0  0  0  0
 21 22  2  0  0  0  0
 23 18  1  0  0  0  0
 24 19  1  0  0  0  0
 26  3  1  0  0  0  0
 27 26  2  0  0  0  0
 28 27  1  0  0  0  0
 29 31  2  0  0  0  0
 29 27  1  0  0  0  0
 30 29  1  0  0  0  0
 31 33  1  0  0  0  0
 32 31  1  0  0  0  0
 33 26  1  0  0  0  0
M  END
>  <minimizedAffinity>
-4.70705557

$$$$

 OpenBabel03262523373D

 33 35  0  0  1  0  0  0  0  0999 V2000
   38.2280   26.9690   34.0920 C   0  0  2  0  0  0  0  0  0  0  0  0
   37.2070   27.9150   34.6780 C   0  0  0  0  0  0  0  0  0  0  0  0
   36.0780   28.2140   33.7390 C   0  0  2  0  0  0  0  0  0  0  0  0
   36.5230   28.7020   32.3910 C   0  0  0  0  0  0  0  0  0  0  0  0
   37.7210   27.9790   31.8570 C   0  0  0  0  0  0  0  0  0  0  0  0
   38.0400   26.7200   32.6360 C   0  0  0  0  0  0  0  0  0  0  0  0
   39.2590   27.3420   34.2690 H   0  0  0  0  0  0  0  0  0  0  0  0
   36.7870   27.5810   35.6250 H   0  0  0  0  0  0  0  0  0  0  0  0
   37.7340   28.8920   34.8580 H   0  0  0  0  0  0  0  0  0  0  0  0
   35.4220   27.3120   33.6520 H   0  0  0  0  0  0  0  0  0  0  0  0
   35.6330   28.5810   31.7060 H   0  0  0  0  0  0  0  0  0  0  0  0
   36.7520   29.7860   32.4710 H   0  0  0  0  0  0  0  0  0  0  0  0
   38.6010   28.6620   31.7960 H   0  0  0  0  0  0  0  0  0  0  0  0
   37.5240   27.6600   30.8050 H   0  0  0  0  0  0  0  0  0  0  0  0
   38.9360   26.2750   32.1990 H   0  0  0  0  0  0  0  0  0  0  0  0
   37.1850   26.0270   32.4980 H   0  0  0  0  0  0  0  0  0  0  0  0
   38.1560   25.6490   34.7900 C   0  0  0  0  0  0  0  0  0  0  0  0
   38.0670   25.6950   36.1950 C   0  0  0  0  0  0  0  0  0  0  0  0
   38.0080   24.4660   36.8640 C   0  0  0  0  0  0  0  0  0  0  0  0
   38.0390   23.3010   36.1320 N   0  0  0  0  0  0  0  0  0  0  0  0
   38.1250   23.3090   34.7720 C   0  0  0  0  0  0  0  0  0  0  0  0
   38.1830   24.4720   34.1210 N   0  0  0  0  0  0  0  0  0  0  0  0
   38.0420   26.5580   36.8100 H   0  0  0  0  0  0  0  0  0  0  0  0
   37.9370   24.4050   37.9530 H   0  0  0  0  0  0  0  0  0  0  0  0
   38.1440   22.3460   34.2820 H   0  0  0  0  0  0  0  0  0  0  0  0
   35.2710   29.3080   34.3750 C   0  0  0  0  0  0  0  0  0  0  0  0
   35.8020   30.4440   34.9810 C   0  0  0  0  0  0  0  0  0  0  0  0
   36.8550   30.7260   35.0950 H   0  0  0  0  0  0  0  0  0  0  0  0
   34.7130   31.1850   35.4330 C   0  0  0  0  0  0  0  0  0  0  0  0
   34.7580   32.1470   35.9620 H   0  0  0  0  0  0  0  0  0  0  0  0
   33.5800   30.4520   35.0740 C   0  0  0  0  0  0  0  0  0  0  0  0
   32.5560   30.7580   35.2830 H   0  0  0  0  0  0  0  0  0  0  0  0
   33.9520   29.3640   34.4580 O   0  0  0  0  0  0  0  0  0  0  0  0
  1  7  1  1  0  0  0
  1  2  1  0  0  0  0
  1 17  1  0  0  0  0
  2  9  1  0  0  0  0
  2  8  1  0  0  0  0
  3 10  1  6  0  0  0
  3 26  1  0  0  0  0
  3  2  1  0  0  0  0
  4 12  1  0  0  0  0
  4  3  1  0  0  0  0
  5  4  1  0  0  0  0
  5  6  1  0  0  0  0
  6  1  1  0  0  0  0
 11  4  1  0  0  0  0
 13  5  1  0  0  0  0
 14  5  1  0  0  0  0
 15  6  1  0  0  0  0
 16  6  1  0  0  0  0
 17 18  1  0  0  0  0
 18 23  1  0  0  0  0
 18 19  2  0  0  0  0
 19 24  1  0  0  0  0
 20 19  1  0  0  0  0
 21 20  2  0  0  0  0
 22 21  1  0  0  0  0
 22 17  2  0  0  0  0
 25 21  1  0  0  0  0
 26 33  1  0  0  0  0
 26 27  2  0  0  0  0
 27 28  1  0  0  0  0
 27 29  1  0  0  0  0
 29 30  1  0  0  0  0
 31 32  1  0  0  0  0
 31 29  2  0  0  0  0
 33 31  1  0  0  0  0
M  END
>  <minimizedAffinity>
-4.65421104

$$$$

 OpenBabel03262523373D

 33 35  0  0  1  0  0  0  0  0999 V2000
   38.8220   26.3480   35.1410 C   0  0  2  0  0  0  0  0  0  0  0  0
   37.6100   27.2160   34.8920 C   0  0  0  0  0  0  0  0  0  0  0  0
   37.1730   27.2130   33.4580 C   0  0  2  0  0  0  0  0  0  0  0  0
   38.2670   27.5600   32.4900 C   0  0  0  0  0  0  0  0  0  0  0  0
   39.5890   26.9440   32.8330 C   0  0  0  0  0  0  0  0  0  0  0  0
   39.4770   25.8690   33.8930 C   0  0  0  0  0  0  0  0  0  0  0  0
   39.5700   26.8860   35.7630 H   0  0  0  0  0  0  0  0  0  0  0  0
   36.7520   26.9640   35.5130 H   0  0  0  0  0  0  0  0  0  0  0  0
   37.9120   28.2730   35.1270 H   0  0  0  0  0  0  0  0  0  0  0  0
   36.7100   26.2240   33.2160 H   0  0  0  0  0  0  0  0  0  0  0  0
   37.9060   27.2170   31.4770 H   0  0  0  0  0  0  0  0  0  0  0  0
   38.3710   28.6660   32.4640 H   0  0  0  0  0  0  0  0  0  0  0  0
   40.3290   27.7290   33.1170 H   0  0  0  0  0  0  0  0  0  0  0  0
   40.0160   26.4530   31.9250 H   0  0  0  0  0  0  0  0  0  0  0  0
   40.4820   25.4970   34.0990 H   0  0  0  0  0  0  0  0  0  0  0  0
   38.8670   25.0490   33.4610 H   0  0  0  0  0  0  0  0  0  0  0  0
   38.4310   25.1460   35.9390 C   0  0  0  0  0  0  0  0  0  0  0  0
   38.3320   23.9350   35.2280 C   0  0  0  0  0  0  0  0  0  0  0  0
   37.9580   22.8020   35.9600 C   0  0  0  0  0  0  0  0  0  0  0  0
   37.7100   22.9260   37.3070 N   0  0  0  0  0  0  0  0  0  0  0  0
   37.8190   24.1210   37.9520 C   0  0  0  0  0  0  0  0  0  0  0  0
   38.1740   25.2090   37.2670 N   0  0  0  0  0  0  0  0  0  0  0  0
   38.5080   23.7800   34.1940 H   0  0  0  0  0  0  0  0  0  0  0  0
   37.8570   21.8190   35.4900 H   0  0  0  0  0  0  0  0  0  0  0  0
   37.6050   24.1220   39.0100 H   0  0  0  0  0  0  0  0  0  0  0  0
   36.1070   28.2620   33.3340 C   0  0  0  0  0  0  0  0  0  0  0  0
   35.8130   29.2200   34.3000 C   0  0  0  0  0  0  0  0  0  0  0  0
   36.2870   29.3710   35.2770 H   0  0  0  0  0  0  0  0  0  0  0  0
   34.7680   29.9820   33.7830 C   0  0  0  0  0  0  0  0  0  0  0  0
   34.2790   30.8330   34.2780 H   0  0  0  0  0  0  0  0  0  0  0  0
   34.4880   29.4380   32.5270 C   0  0  0  0  0  0  0  0  0  0  0  0
   33.7160   29.8070   31.8550 H   0  0  0  0  0  0  0  0  0  0  0  0
   35.2930   28.4360   32.3060 O   0  0  0  0  0  0  0  0  0  0  0  0
  1  7  1  1  0  0  0
  1 17  1  0  0  0  0
  2  9  1  0  0  0  0
  2  1  1  0  0  0  0
  2  8  1  0  0  0  0
  3 10  1  6  0  0  0
  3  2  1  0  0  0  0
  4  5  1  0  0  0  0
  4  3  1  0  0  0  0
  5 13  1  0  0  0  0
  5  6  1  0  0  0  0
  6 15  1  0  0  0  0
  6  1  1  0  0  0  0
 11  4  1  0  0  0  0
 12  4  1  0  0  0  0
 14  5  1  0  0  0  0
 16  6  1  0  0  0  0
 17 22  1  0  0  0  0
 18 17  2  0  0  0  0
 18 19  1  0  0  0  0
 19 20  2  0  0  0  0
 20 21  1  0  0  0  0
 21 25  1  0  0  0  0
 22 21  2  0  0  0  0
 23 18  1  0  0  0  0
 24 19  1  0  0  0  0
 26  3  1  0  0  0  0
 26 27  2  0  0  0  0
 27 28  1  0  0  0  0
 29 30  1  0  0  0  0
 29 27  1  0  0  0  0
 31 29  2  0  0  0  0
 32 31  1  0  0  0  0
 33 31  1  0  0  0  0
 33 26  1  0  0  0  0
M  END
>  <minimizedAffinity>
-4.65369129

$$$$

 OpenBabel03262523373D

 33 35  0  0  1  0  0  0  0  0999 V2000
   36.9250   24.0960   31.0390 C   0  0  2  0  0  0  0  0  0  0  0  0
   37.7630   24.6310   32.1770 C   0  0  0  0  0  0  0  0  0  0  0  0
   37.0140   25.5830   33.0590 C   0  0  2  0  0  0  0  0  0  0  0  0
   36.3640   26.7150   32.3160 C   0  0  0  0  0  0  0  0  0  0  0  0
   35.7370   26.3000   31.0210 C   0  0  0  0  0  0  0  0  0  0  0  0
   35.6210   24.7970   30.8810 C   0  0  0  0  0  0  0  0  0  0  0  0
   37.4850   24.1440   30.0810 H   0  0  0  0  0  0  0  0  0  0  0  0
   38.2040   23.8570   32.8030 H   0  0  0  0  0  0  0  0  0  0  0  0
   38.6000   25.2220   31.7150 H   0  0  0  0  0  0  0  0  0  0  0  0
   36.2690   25.0130   33.6690 H   0  0  0  0  0  0  0  0  0  0  0  0
   35.5970   27.1510   33.0220 H   0  0  0  0  0  0  0  0  0  0  0  0
   37.1340   27.4910   32.1210 H   0  0  0  0  0  0  0  0  0  0  0  0
   36.2750   26.7560   30.1570 H   0  0  0  0  0  0  0  0  0  0  0  0
   34.6970   26.7060   30.9650 H   0  0  0  0  0  0  0  0  0  0  0  0
   35.1820   24.5860   29.9040 H   0  0  0  0  0  0  0  0  0  0  0  0
   34.9290   24.4490   31.6740 H   0  0  0  0  0  0  0  0  0  0  0  0
   36.6360   22.6450   31.2600 C   0  0  0  0  0  0  0  0  0  0  0  0
   35.4320   22.3480   31.9260 C   0  0  0  0  0  0  0  0  0  0  0  0
   35.1510   20.9940   32.1470 C   0  0  0  0  0  0  0  0  0  0  0  0
   36.0470   20.0440   31.7140 N   0  0  0  0  0  0  0  0  0  0  0  0
   37.2010   20.3820   31.0740 C   0  0  0  0  0  0  0  0  0  0  0  0
   37.4810   21.6690   30.8560 N   0  0  0  0  0  0  0  0  0  0  0  0
   34.7070   23.0340   32.2830 H   0  0  0  0  0  0  0  0  0  0  0  0
   34.2390   20.6690   32.6560 H   0  0  0  0  0  0  0  0  0  0  0  0
   37.8440   19.5690   30.7700 H   0  0  0  0  0  0  0  0  0  0  0  0
   38.0200   26.1760   34.0010 C   0  0  0  0  0  0  0  0  0  0  0  0
   37.7120   26.8390   35.1860 C   0  0  0  0  0  0  0  0  0  0  0  0
   36.7250   27.0360   35.6190 H   0  0  0  0  0  0  0  0  0  0  0  0
   38.9300   27.2220   35.7420 C   0  0  0  0  0  0  0  0  0  0  0  0
   39.0690   27.7700   36.6850 H   0  0  0  0  0  0  0  0  0  0  0  0
   39.9110   26.7660   34.8580 C   0  0  0  0  0  0  0  0  0  0  0  0
   40.9810   26.9040   35.0010 H   0  0  0  0  0  0  0  0  0  0  0  0
   39.3350   26.1610   33.8560 O   0  0  0  0  0  0  0  0  0  0  0  0
  1  7  1  6  0  0  0
  1 17  1  0  0  0  0
  1  2  1  0  0  0  0
  2  8  1  0  0  0  0
  2  3  1  0  0  0  0
  3 10  1  1  0  0  0
  3 26  1  0  0  0  0
  4 11  1  0  0  0  0
  4  3  1  0  0  0  0
  5  4  1  0  0  0  0
  6  5  1  0  0  0  0
  6  1  1  0  0  0  0
  6 16  1  0  0  0  0
  9  2  1  0  0  0  0
 12  4  1  0  0  0  0
 13  5  1  0  0  0  0
 14  5  1  0  0  0  0
 15  6  1  0  0  0  0
 17 18  1  0  0  0  0
 18 19  2  0  0  0  0
 18 23  1  0  0  0  0
 19 24  1  0  0  0  0
 20 19  1  0  0  0  0
 21 20  2  0  0  0  0
 22 21  1  0  0  0  0
 22 17  2  0  0  0  0
 25 21  1  0  0  0  0
 26 27  2  0  0  0  0
 27 28  1  0  0  0  0
 27 29  1  0  0  0  0
 29 30  1  0  0  0  0
 31 32  1  0  0  0  0
 31 29  2  0  0  0  0
 33 26  1  0  0  0  0
 33 31  1  0  0  0  0
M  END
>  <minimizedAffinity>
-4.63452625

$$$$
