
 OpenBabel03272500033D

 27 29  0  0  0  0  0  0  0  0999 V2000
   38.1050   24.7630   34.3110 C   0  0  0  0  0  0  0  0  0  0  0  0
   38.7690   25.0500   35.5300 C   0  0  0  0  0  0  0  0  0  0  0  0
   38.5850   26.3240   36.0800 C   0  0  0  0  0  0  0  0  0  0  0  0
   37.7840   27.2020   35.4130 N   0  0  0  0  0  0  0  0  0  0  0  0
   37.1730   26.8990   34.2640 C   0  0  0  0  0  0  0  0  0  0  0  0
   37.3250   25.6730   33.6960 N   0  0  0  0  0  0  0  0  0  0  0  0
   38.1990   23.8070   33.8310 H   0  0  0  0  0  0  0  0  0  0  0  0
   39.0930   26.5410   37.0100 H   0  0  0  0  0  0  0  0  0  0  0  0
   39.5740   24.0330   36.1120 N   0  0  0  0  0  0  0  0  0  0  0  0
   40.8020   23.7490   35.6550 C   0  0  0  0  0  0  0  0  0  0  0  0
   41.5600   22.7450   36.2550 C   0  0  0  0  0  0  0  0  0  0  0  0
   40.9190   22.1240   37.3080 C   0  0  0  0  0  0  0  0  0  0  0  0
   41.5830   21.1950   37.8850 O   0  0  0  0  0  0  0  0  0  0  0  0
   39.6990   22.3790   37.7910 N   0  0  0  0  0  0  0  0  0  0  0  0
   39.0250   23.3670   37.1580 C   0  0  0  0  0  0  0  0  0  0  0  0
   37.8650   23.6210   37.6050 O   0  0  0  0  0  0  0  0  0  0  0  0
   41.2270   24.2910   34.8190 H   0  0  0  0  0  0  0  0  0  0  0  0
   42.5420   22.4640   35.9460 H   0  0  0  0  0  0  0  0  0  0  0  0
   39.2870   21.8740   38.5810 H   0  0  0  0  0  0  0  0  0  0  0  0
   36.3840   28.0250   33.7780 C   0  0  0  0  0  0  0  0  0  0  0  0
   35.8460   29.1690   34.3290 C   0  0  0  0  0  0  0  0  0  0  0  0
   36.0020   29.3560   35.3810 H   0  0  0  0  0  0  0  0  0  0  0  0
   35.2060   29.8010   33.2730 C   0  0  0  0  0  0  0  0  0  0  0  0
   34.6920   30.7490   33.4600 H   0  0  0  0  0  0  0  0  0  0  0  0
   35.3860   29.0160   32.1490 C   0  0  0  0  0  0  0  0  0  0  0  0
   34.9630   29.3220   31.1900 H   0  0  0  0  0  0  0  0  0  0  0  0
   36.1010   27.9530   32.4870 O   0  0  0  0  0  0  0  0  0  0  0  0
  1  2  1  0  0  0  0
  2  3  2  0  0  0  0
  2  9  1  0  0  0  0
  3  8  1  0  0  0  0
  4  3  1  0  0  0  0
  5  4  2  0  0  0  0
  6  5  1  0  0  0  0
  6  1  2  0  0  0  0
  7  1  1  0  0  0  0
  9 15  1  0  0  0  0
 10  9  1  0  0  0  0
 10 11  2  0  0  0  0
 11 12  1  0  0  0  0
 12 14  1  0  0  0  0
 12 13  2  0  0  0  0
 14 19  1  0  0  0  0
 15 16  2  0  0  0  0
 15 14  1  0  0  0  0
 17 10  1  0  0  0  0
 18 11  1  0  0  0  0
 20  5  1  0  0  0  0
 20 21  2  0  0  0  0
 21 22  1  0  0  0  0
 23 24  1  0  0  0  0
 23 21  1  0  0  0  0
 25 27  1  0  0  0  0
 25 23  2  0  0  0  0
 26 25  1  0  0  0  0
 27 20  1  0  0  0  0
M  END
>  <minimizedAffinity>
-5.38569689

$$$$

 OpenBabel03272500033D

 27 29  0  0  0  0  0  0  0  0999 V2000
   38.5520   26.5890   35.9770 C   0  0  0  0  0  0  0  0  0  0  0  0
   38.5790   25.3220   35.3410 C   0  0  0  0  0  0  0  0  0  0  0  0
   37.8320   25.1740   34.1670 C   0  0  0  0  0  0  0  0  0  0  0  0
   37.1300   26.2510   33.7120 N   0  0  0  0  0  0  0  0  0  0  0  0
   37.1270   27.4310   34.3360 C   0  0  0  0  0  0  0  0  0  0  0  0
   37.8400   27.6170   35.4800 N   0  0  0  0  0  0  0  0  0  0  0  0
   39.1020   26.7760   36.8810 H   0  0  0  0  0  0  0  0  0  0  0  0
   37.8530   24.2070   33.6840 H   0  0  0  0  0  0  0  0  0  0  0  0
   39.3570   24.2890   35.9330 N   0  0  0  0  0  0  0  0  0  0  0  0
   40.6170   24.0390   35.5480 C   0  0  0  0  0  0  0  0  0  0  0  0
   41.3460   23.0170   36.1540 C   0  0  0  0  0  0  0  0  0  0  0  0
   40.6430   22.3440   37.1330 C   0  0  0  0  0  0  0  0  0  0  0  0
   41.2790   21.3970   37.7130 O   0  0  0  0  0  0  0  0  0  0  0  0
   39.3900   22.5630   37.5420 N   0  0  0  0  0  0  0  0  0  0  0  0
   38.7470   23.5710   36.9080 C   0  0  0  0  0  0  0  0  0  0  0  0
   37.5560   23.7920   37.2850 O   0  0  0  0  0  0  0  0  0  0  0  0
   41.0900   24.6220   34.7680 H   0  0  0  0  0  0  0  0  0  0  0  0
   42.3500   22.7610   35.9010 H   0  0  0  0  0  0  0  0  0  0  0  0
   38.9330   22.0190   38.2790 H   0  0  0  0  0  0  0  0  0  0  0  0
   36.2940   28.3960   33.6280 C   0  0  0  0  0  0  0  0  0  0  0  0
   35.4120   29.3940   33.9850 C   0  0  0  0  0  0  0  0  0  0  0  0
   35.2360   29.5740   35.0360 H   0  0  0  0  0  0  0  0  0  0  0  0
   34.9710   29.9220   32.7810 C   0  0  0  0  0  0  0  0  0  0  0  0
   34.2490   30.7450   32.8000 H   0  0  0  0  0  0  0  0  0  0  0  0
   35.6000   29.2240   31.7670 C   0  0  0  0  0  0  0  0  0  0  0  0
   35.4020   29.4730   30.7220 H   0  0  0  0  0  0  0  0  0  0  0  0
   36.3920   28.3120   32.3110 O   0  0  0  0  0  0  0  0  0  0  0  0
  1  7  1  0  0  0  0
  2  9  1  0  0  0  0
  2  1  2  0  0  0  0
  3  2  1  0  0  0  0
  4  3  2  0  0  0  0
  4  5  1  0  0  0  0
  5  6  2  0  0  0  0
  6  1  1  0  0  0  0
  8  3  1  0  0  0  0
  9 15  1  0  0  0  0
 10  9  1  0  0  0  0
 10 11  2  0  0  0  0
 11 12  1  0  0  0  0
 12 14  1  0  0  0  0
 12 13  2  0  0  0  0
 14 19  1  0  0  0  0
 15 16  2  0  0  0  0
 15 14  1  0  0  0  0
 17 10  1  0  0  0  0
 18 11  1  0  0  0  0
 20 21  2  0  0  0  0
 20  5  1  0  0  0  0
 21 22  1  0  0  0  0
 23 24  1  0  0  0  0
 23 21  1  0  0  0  0
 25 27  1  0  0  0  0
 25 23  2  0  0  0  0
 26 25  1  0  0  0  0
 27 20  1  0  0  0  0
M  END
>  <minimizedAffinity>
-5.34089756

$$$$

 OpenBabel03272500033D

 27 29  0  0  0  0  0  0  0  0999 V2000
   39.7100   25.6350   35.3800 C   0  0  0  0  0  0  0  0  0  0  0  0
   39.4110   24.2600   35.2070 C   0  0  0  0  0  0  0  0  0  0  0  0
   38.3360   23.9350   34.3710 C   0  0  0  0  0  0  0  0  0  0  0  0
   37.6510   24.9550   33.7800 N   0  0  0  0  0  0  0  0  0  0  0  0
   37.9600   26.2410   33.9650 C   0  0  0  0  0  0  0  0  0  0  0  0
   38.9970   26.5990   34.7700 N   0  0  0  0  0  0  0  0  0  0  0  0
   40.5210   25.9590   36.0060 H   0  0  0  0  0  0  0  0  0  0  0  0
   38.1080   22.8860   34.2400 H   0  0  0  0  0  0  0  0  0  0  0  0
   40.2140   23.3060   35.8880 N   0  0  0  0  0  0  0  0  0  0  0  0
   41.4000   22.9030   35.4100 C   0  0  0  0  0  0  0  0  0  0  0  0
   42.1570   21.9650   36.1100 C   0  0  0  0  0  0  0  0  0  0  0  0
   41.5610   21.5360   37.2790 C   0  0  0  0  0  0  0  0  0  0  0  0
   42.2260   20.6730   37.9500 O   0  0  0  0  0  0  0  0  0  0  0  0
   40.3840   21.9120   37.7860 N   0  0  0  0  0  0  0  0  0  0  0  0
   39.7070   22.8260   37.0510 C   0  0  0  0  0  0  0  0  0  0  0  0
   38.5870   23.1930   37.5190 O   0  0  0  0  0  0  0  0  0  0  0  0
   41.7910   23.2960   34.4810 H   0  0  0  0  0  0  0  0  0  0  0  0
   43.1070   21.5980   35.7920 H   0  0  0  0  0  0  0  0  0  0  0  0
   40.0040   21.5480   38.6650 H   0  0  0  0  0  0  0  0  0  0  0  0
   37.0630   27.1090   33.2130 C   0  0  0  0  0  0  0  0  0  0  0  0
   36.3550   28.2650   33.4700 C   0  0  0  0  0  0  0  0  0  0  0  0
   36.4290   28.7050   34.4540 H   0  0  0  0  0  0  0  0  0  0  0  0
   35.6980   28.5480   32.2830 C   0  0  0  0  0  0  0  0  0  0  0  0
   35.0590   29.4360   32.2330 H   0  0  0  0  0  0  0  0  0  0  0  0
   36.0360   27.5600   31.3760 C   0  0  0  0  0  0  0  0  0  0  0  0
   35.6290   27.5800   30.3630 H   0  0  0  0  0  0  0  0  0  0  0  0
   36.8600   26.7090   31.9680 O   0  0  0  0  0  0  0  0  0  0  0  0
  1  7  1  0  0  0  0
  2  1  1  0  0  0  0
  2  9  1  0  0  0  0
  3  2  2  0  0  0  0
  4  5  2  0  0  0  0
  4  3  1  0  0  0  0
  5  6  1  0  0  0  0
  6  1  2  0  0  0  0
  8  3  1  0  0  0  0
  9 15  1  0  0  0  0
 10  9  1  0  0  0  0
 10 11  2  0  0  0  0
 11 12  1  0  0  0  0
 12 14  1  0  0  0  0
 12 13  2  0  0  0  0
 14 19  1  0  0  0  0
 15 16  2  0  0  0  0
 15 14  1  0  0  0  0
 17 10  1  0  0  0  0
 18 11  1  0  0  0  0
 20 21  2  0  0  0  0
 20  5  1  0  0  0  0
 21 22  1  0  0  0  0
 23 21  1  0  0  0  0
 24 23  1  0  0  0  0
 25 27  1  0  0  0  0
 25 23  2  0  0  0  0
 26 25  1  0  0  0  0
 27 20  1  0  0  0  0
M  END
>  <minimizedAffinity>
-5.0479641

$$$$

 OpenBabel03272500033D

 27 29  0  0  0  0  0  0  0  0999 V2000
   38.2650   24.9940   32.7930 C   0  0  0  0  0  0  0  0  0  0  0  0
   38.1950   26.4080   32.8560 C   0  0  0  0  0  0  0  0  0  0  0  0
   38.2370   26.9990   34.1250 C   0  0  0  0  0  0  0  0  0  0  0  0
   38.3420   26.1830   35.2110 N   0  0  0  0  0  0  0  0  0  0  0  0
   38.4050   24.8520   35.1160 C   0  0  0  0  0  0  0  0  0  0  0  0
   38.3680   24.2380   33.9030 N   0  0  0  0  0  0  0  0  0  0  0  0
   38.2380   24.4710   31.8550 H   0  0  0  0  0  0  0  0  0  0  0  0
   38.1830   28.0790   34.1710 H   0  0  0  0  0  0  0  0  0  0  0  0
   38.0870   27.1320   31.6380 N   0  0  0  0  0  0  0  0  0  0  0  0
   39.1580   27.6530   31.0230 C   0  0  0  0  0  0  0  0  0  0  0  0
   39.0080   28.3560   29.8280 C   0  0  0  0  0  0  0  0  0  0  0  0
   37.7000   28.4370   29.3950 C   0  0  0  0  0  0  0  0  0  0  0  0
   37.5220   29.0750   28.3010 O   0  0  0  0  0  0  0  0  0  0  0  0
   36.6100   27.9320   29.9800 N   0  0  0  0  0  0  0  0  0  0  0  0
   36.8340   27.2630   31.1350 C   0  0  0  0  0  0  0  0  0  0  0  0
   35.8080   26.7780   31.7020 O   0  0  0  0  0  0  0  0  0  0  0  0
   40.1510   27.5390   31.4370 H   0  0  0  0  0  0  0  0  0  0  0  0
   39.8130   28.7980   29.2840 H   0  0  0  0  0  0  0  0  0  0  0  0
   35.6650   28.0320   29.5970 H   0  0  0  0  0  0  0  0  0  0  0  0
   38.5130   24.2370   36.4330 C   0  0  0  0  0  0  0  0  0  0  0  0
   37.7830   24.2640   37.6030 C   0  0  0  0  0  0  0  0  0  0  0  0
   36.8890   24.8690   37.6370 H   0  0  0  0  0  0  0  0  0  0  0  0
   38.4730   23.4300   38.4690 C   0  0  0  0  0  0  0  0  0  0  0  0
   38.0830   23.2840   39.4820 H   0  0  0  0  0  0  0  0  0  0  0  0
   39.5750   22.9460   37.7890 C   0  0  0  0  0  0  0  0  0  0  0  0
   40.2690   22.2620   38.2810 H   0  0  0  0  0  0  0  0  0  0  0  0
   39.5700   23.4500   36.5640 O   0  0  0  0  0  0  0  0  0  0  0  0
  1  2  2  0  0  0  0
  1  6  1  0  0  0  0
  2  3  1  0  0  0  0
  3  8  1  0  0  0  0
  3  4  2  0  0  0  0
  5  4  1  0  0  0  0
  5 20  1  0  0  0  0
  6  5  2  0  0  0  0
  7  1  1  0  0  0  0
  9  2  1  0  0  0  0
 10 17  1  0  0  0  0
 10  9  1  0  0  0  0
 11 10  2  0  0  0  0
 12 11  1  0  0  0  0
 12 14  1  0  0  0  0
 13 12  2  0  0  0  0
 14 15  1  0  0  0  0
 15  9  1  0  0  0  0
 15 16  2  0  0  0  0
 18 11  1  0  0  0  0
 19 14  1  0  0  0  0
 20 27  1  0  0  0  0
 20 21  2  0  0  0  0
 21 22  1  0  0  0  0
 21 23  1  0  0  0  0
 23 24  1  0  0  0  0
 25 26  1  0  0  0  0
 25 23  2  0  0  0  0
 27 25  1  0  0  0  0
M  END
>  <minimizedAffinity>
-5.02735329

$$$$

 OpenBabel03272500033D

 27 29  0  0  0  0  0  0  0  0999 V2000
   37.4170   25.7600   33.5150 C   0  0  0  0  0  0  0  0  0  0  0  0
   37.4530   27.1460   33.8140 C   0  0  0  0  0  0  0  0  0  0  0  0
   37.8250   27.5150   35.1120 C   0  0  0  0  0  0  0  0  0  0  0  0
   38.1270   26.5260   36.0000 N   0  0  0  0  0  0  0  0  0  0  0  0
   38.0820   25.2290   35.6850 C   0  0  0  0  0  0  0  0  0  0  0  0
   37.7250   24.8270   34.4360 N   0  0  0  0  0  0  0  0  0  0  0  0
   37.1410   25.4030   32.5410 H   0  0  0  0  0  0  0  0  0  0  0  0
   37.8520   28.5730   35.3390 H   0  0  0  0  0  0  0  0  0  0  0  0
   37.1120   28.0650   32.7850 N   0  0  0  0  0  0  0  0  0  0  0  0
   37.7920   28.1250   31.6310 C   0  0  0  0  0  0  0  0  0  0  0  0
   37.4240   29.0410   30.6470 C   0  0  0  0  0  0  0  0  0  0  0  0
   36.3430   29.8240   30.9980 C   0  0  0  0  0  0  0  0  0  0  0  0
   35.9750   30.6790   30.1190 O   0  0  0  0  0  0  0  0  0  0  0  0
   35.6430   29.7940   32.1350 N   0  0  0  0  0  0  0  0  0  0  0  0
   36.0580   28.8780   33.0420 C   0  0  0  0  0  0  0  0  0  0  0  0
   35.4030   28.8380   34.1280 O   0  0  0  0  0  0  0  0  0  0  0  0
   38.6310   27.4680   31.4410 H   0  0  0  0  0  0  0  0  0  0  0  0
   37.9170   29.1460   29.7060 H   0  0  0  0  0  0  0  0  0  0  0  0
   34.8460   30.4100   32.3260 H   0  0  0  0  0  0  0  0  0  0  0  0
   38.4520   24.4000   36.8250 C   0  0  0  0  0  0  0  0  0  0  0  0
   38.0210   24.2540   38.1270 C   0  0  0  0  0  0  0  0  0  0  0  0
   37.2040   24.8730   38.4710 H   0  0  0  0  0  0  0  0  0  0  0  0
   38.8340   23.2660   38.6610 C   0  0  0  0  0  0  0  0  0  0  0  0
   38.6840   22.9660   39.7030 H   0  0  0  0  0  0  0  0  0  0  0  0
   39.7090   22.8680   37.6670 C   0  0  0  0  0  0  0  0  0  0  0  0
   40.4490   22.0900   37.8640 H   0  0  0  0  0  0  0  0  0  0  0  0
   39.4520   23.5700   36.5730 O   0  0  0  0  0  0  0  0  0  0  0  0
  1  2  2  0  0  0  0
  1  6  1  0  0  0  0
  2  3  1  0  0  0  0
  3  8  1  0  0  0  0
  3  4  2  0  0  0  0
  5  4  1  0  0  0  0
  5 20  1  0  0  0  0
  6  5  2  0  0  0  0
  7  1  1  0  0  0  0
  9 15  1  0  0  0  0
  9  2  1  0  0  0  0
 10  9  1  0  0  0  0
 11 12  1  0  0  0  0
 11 10  2  0  0  0  0
 12 14  1  0  0  0  0
 13 12  2  0  0  0  0
 14 19  1  0  0  0  0
 14 15  1  0  0  0  0
 15 16  2  0  0  0  0
 17 10  1  0  0  0  0
 18 11  1  0  0  0  0
 20 21  2  0  0  0  0
 21 22  1  0  0  0  0
 21 23  1  0  0  0  0
 23 24  1  0  0  0  0
 25 26  1  0  0  0  0
 25 23  2  0  0  0  0
 27 20  1  0  0  0  0
 27 25  1  0  0  0  0
M  END
>  <minimizedAffinity>
-5.01217365

$$$$

 OpenBabel03272500033D

 27 29  0  0  0  0  0  0  0  0999 V2000
   38.5010   26.6800   36.0240 C   0  0  0  0  0  0  0  0  0  0  0  0
   38.4850   25.3910   35.4340 C   0  0  0  0  0  0  0  0  0  0  0  0
   37.7440   25.2310   34.2580 C   0  0  0  0  0  0  0  0  0  0  0  0
   37.0890   26.3160   33.7570 N   0  0  0  0  0  0  0  0  0  0  0  0
   37.1260   27.5180   34.3400 C   0  0  0  0  0  0  0  0  0  0  0  0
   37.8340   27.7170   35.4840 N   0  0  0  0  0  0  0  0  0  0  0  0
   39.0490   26.8780   36.9270 H   0  0  0  0  0  0  0  0  0  0  0  0
   37.7320   24.2470   33.8090 H   0  0  0  0  0  0  0  0  0  0  0  0
   39.2170   24.3510   36.0700 N   0  0  0  0  0  0  0  0  0  0  0  0
   38.7650   23.7340   37.1710 C   0  0  0  0  0  0  0  0  0  0  0  0
   39.5130   22.7190   37.7640 C   0  0  0  0  0  0  0  0  0  0  0  0
   40.7000   22.4540   37.1100 C   0  0  0  0  0  0  0  0  0  0  0  0
   41.4160   21.5270   37.6240 O   0  0  0  0  0  0  0  0  0  0  0  0
   41.1820   23.0460   36.0140 N   0  0  0  0  0  0  0  0  0  0  0  0
   40.4000   24.0210   35.4950 C   0  0  0  0  0  0  0  0  0  0  0  0
   40.8450   24.5940   34.4540 O   0  0  0  0  0  0  0  0  0  0  0  0
   37.8180   24.0090   37.6170 H   0  0  0  0  0  0  0  0  0  0  0  0
   39.2180   22.1850   38.6390 H   0  0  0  0  0  0  0  0  0  0  0  0
   42.0770   22.7940   35.5820 H   0  0  0  0  0  0  0  0  0  0  0  0
   36.3370   28.4880   33.5890 C   0  0  0  0  0  0  0  0  0  0  0  0
   35.5260   29.5590   33.9000 C   0  0  0  0  0  0  0  0  0  0  0  0
   35.3860   29.8130   34.9400 H   0  0  0  0  0  0  0  0  0  0  0  0
   35.0910   30.0400   32.6740 C   0  0  0  0  0  0  0  0  0  0  0  0
   34.4220   30.9060   32.6550 H   0  0  0  0  0  0  0  0  0  0  0  0
   35.6530   29.2440   31.6930 C   0  0  0  0  0  0  0  0  0  0  0  0
   35.4470   29.4400   30.6390 H   0  0  0  0  0  0  0  0  0  0  0  0
   36.4000   28.3180   32.2780 O   0  0  0  0  0  0  0  0  0  0  0  0
  1  7  1  0  0  0  0
  2  1  2  0  0  0  0
  2  9  1  0  0  0  0
  3  2  1  0  0  0  0
  4  3  2  0  0  0  0
  4  5  1  0  0  0  0
  5  6  2  0  0  0  0
  6  1  1  0  0  0  0
  8  3  1  0  0  0  0
  9 10  1  0  0  0  0
 10 17  1  0  0  0  0
 10 11  2  0  0  0  0
 11 18  1  0  0  0  0
 12 13  2  0  0  0  0
 12 11  1  0  0  0  0
 14 12  1  0  0  0  0
 15 14  1  0  0  0  0
 15  9  1  0  0  0  0
 16 15  2  0  0  0  0
 19 14  1  0  0  0  0
 20 21  2  0  0  0  0
 20  5  1  0  0  0  0
 21 22  1  0  0  0  0
 23 21  1  0  0  0  0
 24 23  1  0  0  0  0
 25 27  1  0  0  0  0
 25 23  2  0  0  0  0
 26 25  1  0  0  0  0
 27 20  1  0  0  0  0
M  END
>  <minimizedAffinity>
-4.87545681

$$$$

 OpenBabel03272500033D

 27 29  0  0  0  0  0  0  0  0999 V2000
   39.0980   27.0770   33.8670 C   0  0  0  0  0  0  0  0  0  0  0  0
   38.1680   26.5800   32.9200 C   0  0  0  0  0  0  0  0  0  0  0  0
   37.4900   25.3980   33.2430 C   0  0  0  0  0  0  0  0  0  0  0  0
   37.7660   24.8050   34.4390 N   0  0  0  0  0  0  0  0  0  0  0  0
   38.6500   25.3020   35.3080 C   0  0  0  0  0  0  0  0  0  0  0  0
   39.3300   26.4470   35.0340 N   0  0  0  0  0  0  0  0  0  0  0  0
   39.6540   27.9790   33.6880 H   0  0  0  0  0  0  0  0  0  0  0  0
   36.7810   25.0190   32.5190 H   0  0  0  0  0  0  0  0  0  0  0  0
   37.9830   27.3060   31.7120 N   0  0  0  0  0  0  0  0  0  0  0  0
   37.2110   28.4000   31.6510 C   0  0  0  0  0  0  0  0  0  0  0  0
   37.0560   29.0840   30.4460 C   0  0  0  0  0  0  0  0  0  0  0  0
   37.7570   28.5210   29.3980 C   0  0  0  0  0  0  0  0  0  0  0  0
   37.6400   29.1210   28.2740 O   0  0  0  0  0  0  0  0  0  0  0  0
   38.5350   27.4350   29.4210 N   0  0  0  0  0  0  0  0  0  0  0  0
   38.6360   26.8250   30.6250 C   0  0  0  0  0  0  0  0  0  0  0  0
   39.3710   25.7920   30.6630 O   0  0  0  0  0  0  0  0  0  0  0  0
   36.6970   28.7710   32.5280 H   0  0  0  0  0  0  0  0  0  0  0  0
   36.4590   29.9590   30.3220 H   0  0  0  0  0  0  0  0  0  0  0  0
   39.0260   27.0740   28.5980 H   0  0  0  0  0  0  0  0  0  0  0  0
   38.7410   24.4640   36.4980 C   0  0  0  0  0  0  0  0  0  0  0  0
   38.0620   24.3630   37.6940 C   0  0  0  0  0  0  0  0  0  0  0  0
   37.2390   25.0380   37.8760 H   0  0  0  0  0  0  0  0  0  0  0  0
   38.6920   23.3300   38.3720 C   0  0  0  0  0  0  0  0  0  0  0  0
   38.3270   23.0530   39.3660 H   0  0  0  0  0  0  0  0  0  0  0  0
   39.7100   22.8630   37.5610 C   0  0  0  0  0  0  0  0  0  0  0  0
   40.3470   22.0410   37.8950 H   0  0  0  0  0  0  0  0  0  0  0  0
   39.7130   23.5670   36.4390 O   0  0  0  0  0  0  0  0  0  0  0  0
  1  6  1  0  0  0  0
  2  3  1  0  0  0  0
  2  1  2  0  0  0  0
  3  4  2  0  0  0  0
  4  5  1  0  0  0  0
  5 20  1  0  0  0  0
  6  5  2  0  0  0  0
  7  1  1  0  0  0  0
  8  3  1  0  0  0  0
  9  2  1  0  0  0  0
 10  9  1  0  0  0  0
 10 17  1  0  0  0  0
 11 10  2  0  0  0  0
 12 14  1  0  0  0  0
 12 11  1  0  0  0  0
 13 12  2  0  0  0  0
 14 15  1  0  0  0  0
 15 16  2  0  0  0  0
 15  9  1  0  0  0  0
 18 11  1  0  0  0  0
 19 14  1  0  0  0  0
 20 21  2  0  0  0  0
 21 22  1  0  0  0  0
 21 23  1  0  0  0  0
 23 24  1  0  0  0  0
 25 26  1  0  0  0  0
 25 23  2  0  0  0  0
 27 20  1  0  0  0  0
 27 25  1  0  0  0  0
M  END
>  <minimizedAffinity>
-4.83637571

$$$$

 OpenBabel03272500033D

 27 29  0  0  0  0  0  0  0  0999 V2000
   37.6680   25.3070   33.1620 C   0  0  0  0  0  0  0  0  0  0  0  0
   37.8840   26.7040   33.2700 C   0  0  0  0  0  0  0  0  0  0  0  0
   38.3040   27.1970   34.5110 C   0  0  0  0  0  0  0  0  0  0  0  0
   38.4800   26.3080   35.5300 N   0  0  0  0  0  0  0  0  0  0  0  0
   38.2680   24.9960   35.3930 C   0  0  0  0  0  0  0  0  0  0  0  0
   37.8580   24.4770   34.2050 N   0  0  0  0  0  0  0  0  0  0  0  0
   37.3460   24.8580   32.2410 H   0  0  0  0  0  0  0  0  0  0  0  0
   38.4670   28.2630   34.5920 H   0  0  0  0  0  0  0  0  0  0  0  0
   37.6590   27.5100   32.1210 N   0  0  0  0  0  0  0  0  0  0  0  0
   36.4790   28.1000   31.8860 C   0  0  0  0  0  0  0  0  0  0  0  0
   36.3000   28.8840   30.7470 C   0  0  0  0  0  0  0  0  0  0  0  0
   37.4250   28.9620   29.9490 C   0  0  0  0  0  0  0  0  0  0  0  0
   37.3000   29.6730   28.8920 O   0  0  0  0  0  0  0  0  0  0  0  0
   38.6150   28.3890   30.1500 N   0  0  0  0  0  0  0  0  0  0  0  0
   38.7120   27.6460   31.2770 C   0  0  0  0  0  0  0  0  0  0  0  0
   39.8360   27.0950   31.4820 O   0  0  0  0  0  0  0  0  0  0  0  0
   35.6480   27.9830   32.5700 H   0  0  0  0  0  0  0  0  0  0  0  0
   35.3920   29.3820   30.4940 H   0  0  0  0  0  0  0  0  0  0  0  0
   39.4080   28.4940   29.5110 H   0  0  0  0  0  0  0  0  0  0  0  0
   38.5330   24.2900   36.6400 C   0  0  0  0  0  0  0  0  0  0  0  0
   37.9880   24.2770   37.9080 C   0  0  0  0  0  0  0  0  0  0  0  0
   37.1470   24.9240   38.1130 H   0  0  0  0  0  0  0  0  0  0  0  0
   38.7470   23.3530   38.6090 C   0  0  0  0  0  0  0  0  0  0  0  0
   38.5040   23.1600   39.6590 H   0  0  0  0  0  0  0  0  0  0  0  0
   39.7030   22.8580   37.7420 C   0  0  0  0  0  0  0  0  0  0  0  0
   40.4200   22.1080   38.0820 H   0  0  0  0  0  0  0  0  0  0  0  0
   39.5470   23.4430   36.5630 O   0  0  0  0  0  0  0  0  0  0  0  0
  1  2  2  0  0  0  0
  1  6  1  0  0  0  0
  2  3  1  0  0  0  0
  3  8  1  0  0  0  0
  3  4  2  0  0  0  0
  5  4  1  0  0  0  0
  5 20  1  0  0  0  0
  6  5  2  0  0  0  0
  7  1  1  0  0  0  0
  9  2  1  0  0  0  0
 10  9  1  0  0  0  0
 10 17  1  0  0  0  0
 11 10  2  0  0  0  0
 12 14  1  0  0  0  0
 12 11  1  0  0  0  0
 13 12  2  0  0  0  0
 14 15  1  0  0  0  0
 15 16  2  0  0  0  0
 15  9  1  0  0  0  0
 18 11  1  0  0  0  0
 19 14  1  0  0  0  0
 20 21  2  0  0  0  0
 21 22  1  0  0  0  0
 21 23  1  0  0  0  0
 23 24  1  0  0  0  0
 25 26  1  0  0  0  0
 25 23  2  0  0  0  0
 27 20  1  0  0  0  0
 27 25  1  0  0  0  0
M  END
>  <minimizedAffinity>
-4.81123877

$$$$

 OpenBabel03272500033D

 27 29  0  0  0  0  0  0  0  0999 V2000
   37.0420   25.7430   32.4440 C   0  0  0  0  0  0  0  0  0  0  0  0
   36.1020   26.4630   31.6630 C   0  0  0  0  0  0  0  0  0  0  0  0
   35.1640   25.7200   30.9370 C   0  0  0  0  0  0  0  0  0  0  0  0
   35.2130   24.3600   31.0260 N   0  0  0  0  0  0  0  0  0  0  0  0
   36.1120   23.7140   31.7710 C   0  0  0  0  0  0  0  0  0  0  0  0
   37.0410   24.3970   32.4930 N   0  0  0  0  0  0  0  0  0  0  0  0
   37.7900   26.2460   33.0280 H   0  0  0  0  0  0  0  0  0  0  0  0
   34.4490   26.2700   30.3410 H   0  0  0  0  0  0  0  0  0  0  0  0
   36.1720   27.8820   31.6670 N   0  0  0  0  0  0  0  0  0  0  0  0
   35.4850   28.6260   32.5460 C   0  0  0  0  0  0  0  0  0  0  0  0
   35.5820   30.0160   32.5160 C   0  0  0  0  0  0  0  0  0  0  0  0
   36.4200   30.4900   31.5270 C   0  0  0  0  0  0  0  0  0  0  0  0
   36.5350   31.7630   31.4680 O   0  0  0  0  0  0  0  0  0  0  0  0
   37.1190   29.7820   30.6360 N   0  0  0  0  0  0  0  0  0  0  0  0
   36.9760   28.4390   30.7270 C   0  0  0  0  0  0  0  0  0  0  0  0
   37.6330   27.7530   29.8860 O   0  0  0  0  0  0  0  0  0  0  0  0
   34.8480   28.1650   33.2910 H   0  0  0  0  0  0  0  0  0  0  0  0
   35.0650   30.6710   33.1820 H   0  0  0  0  0  0  0  0  0  0  0  0
   37.7260   30.2060   29.9270 H   0  0  0  0  0  0  0  0  0  0  0  0
   35.9300   22.2700   31.6780 C   0  0  0  0  0  0  0  0  0  0  0  0
   35.0760   21.3410   32.2340 C   0  0  0  0  0  0  0  0  0  0  0  0
   34.3210   21.6850   32.9260 H   0  0  0  0  0  0  0  0  0  0  0  0
   35.4740   20.1270   31.6930 C   0  0  0  0  0  0  0  0  0  0  0  0
   34.9380   19.2190   31.9860 H   0  0  0  0  0  0  0  0  0  0  0  0
   36.5370   20.3800   30.8460 C   0  0  0  0  0  0  0  0  0  0  0  0
   37.0160   19.5620   30.3040 H   0  0  0  0  0  0  0  0  0  0  0  0
   36.7870   21.6810   30.8580 O   0  0  0  0  0  0  0  0  0  0  0  0
  1  6  1  0  0  0  0
  1  7  1  0  0  0  0
  2  9  1  0  0  0  0
  2  1  2  0  0  0  0
  3  4  2  0  0  0  0
  3  2  1  0  0  0  0
  4  5  1  0  0  0  0
  5  6  2  0  0  0  0
  8  3  1  0  0  0  0
  9 10  1  0  0  0  0
 10 17  1  0  0  0  0
 11 10  2  0  0  0  0
 11 18  1  0  0  0  0
 12 11  1  0  0  0  0
 13 12  2  0  0  0  0
 14 15  1  0  0  0  0
 14 12  1  0  0  0  0
 15  9  1  0  0  0  0
 16 15  2  0  0  0  0
 19 14  1  0  0  0  0
 20  5  1  0  0  0  0
 20 21  2  0  0  0  0
 21 22  1  0  0  0  0
 23 24  1  0  0  0  0
 23 21  1  0  0  0  0
 25 27  1  0  0  0  0
 25 23  2  0  0  0  0
 26 25  1  0  0  0  0
 27 20  1  0  0  0  0
M  END
>  <minimizedAffinity>
-4.70478058

$$$$
