
 OpenBabel03272510213D

 35 38  0  0  0  0  0  0  0  0999 V2000
   37.3490   29.2110   50.8680 Br  0  0  0  0  0  0  0  0  0  0  0  0
   35.9500   29.2720   49.5600 C   0  0  0  0  0  0  0  0  0  0  0  0
   35.9610   30.2350   48.5630 C   0  0  0  0  0  0  0  0  0  0  0  0
   34.9250   30.2280   47.6490 C   0  0  0  0  0  0  0  0  0  0  0  0
   33.8920   29.2950   47.7070 C   0  0  0  0  0  0  0  0  0  0  0  0
   33.9110   28.3650   48.6980 C   0  0  0  0  0  0  0  0  0  0  0  0
   34.9410   28.3620   49.6170 C   0  0  0  0  0  0  0  0  0  0  0  0
   34.8670   30.9460   46.8460 H   0  0  0  0  0  0  0  0  0  0  0  0
   33.1250   27.6470   48.7520 H   0  0  0  0  0  0  0  0  0  0  0  0
   34.9010   27.5980   50.3820 H   0  0  0  0  0  0  0  0  0  0  0  0
   37.9910   33.1490   49.4160 C   0  0  0  0  0  0  0  0  0  0  0  0
   39.0010   33.1440   48.4190 C   0  0  0  0  0  0  0  0  0  0  0  0
   38.9730   32.1340   47.4600 C   0  0  0  0  0  0  0  0  0  0  0  0
   37.9750   31.1900   47.5180 N   0  0  0  0  0  0  0  0  0  0  0  0
   37.0310   31.2240   48.4780 C   0  0  0  0  0  0  0  0  0  0  0  0
   37.0440   32.2060   49.4240 N   0  0  0  0  0  0  0  0  0  0  0  0
   38.0550   33.9480   50.1360 H   0  0  0  0  0  0  0  0  0  0  0  0
   39.7600   33.9030   48.4160 H   0  0  0  0  0  0  0  0  0  0  0  0
   39.7100   32.0840   46.6880 H   0  0  0  0  0  0  0  0  0  0  0  0
   32.7930   29.2860   46.7410 C   0  0  0  0  0  0  0  0  0  0  0  0
   32.0340   28.1730   46.4320 C   0  0  0  0  0  0  0  0  0  0  0  0
   31.0020   28.2200   45.5060 C   0  0  0  0  0  0  0  0  0  0  0  0
   30.7150   29.3590   44.8850 N   0  0  0  0  0  0  0  0  0  0  0  0
   31.4470   30.4510   45.1770 C   0  0  0  0  0  0  0  0  0  0  0  0
   32.4420   30.4040   46.0700 N   0  0  0  0  0  0  0  0  0  0  0  0
   32.2740   27.2480   46.9430 H   0  0  0  0  0  0  0  0  0  0  0  0
   30.4420   27.3160   45.3050 H   0  0  0  0  0  0  0  0  0  0  0  0
   31.2640   31.7770   44.5880 C   0  0  0  0  0  0  0  0  0  0  0  0
   31.8860   32.8840   45.1770 C   0  0  0  0  0  0  0  0  0  0  0  0
   32.5180   32.9180   46.0540 H   0  0  0  0  0  0  0  0  0  0  0  0
   31.5510   34.0100   44.4250 C   0  0  0  0  0  0  0  0  0  0  0  0
   31.8970   35.0100   44.6570 H   0  0  0  0  0  0  0  0  0  0  0  0
   30.7330   33.5010   43.4090 C   0  0  0  0  0  0  0  0  0  0  0  0
   30.3030   34.1380   42.6460 H   0  0  0  0  0  0  0  0  0  0  0  0
   30.6000   32.2210   43.5450 O   0  0  0  0  0  0  0  0  0  0  0  0
  2  7  1  0  0  0  0
  2  1  1  0  0  0  0
  3  2  2  0  0  0  0
  4  5  2  0  0  0  0
  4  3  1  0  0  0  0
  5  6  1  0  0  0  0
  6  9  1  0  0  0  0
  6  7  2  0  0  0  0
  7 10  1  0  0  0  0
  8  4  1  0  0  0  0
 11 16  1  0  0  0  0
 11 17  1  0  0  0  0
 12 11  2  0  0  0  0
 13 14  2  0  0  0  0
 13 12  1  0  0  0  0
 14 15  1  0  0  0  0
 15  3  1  0  0  0  0
 15 16  2  0  0  0  0
 18 12  1  0  0  0  0
 19 13  1  0  0  0  0
 20  5  1  0  0  0  0
 21 20  1  0  0  0  0
 21 26  1  0  0  0  0
 22 21  2  0  0  0  0
 23 24  2  0  0  0  0
 23 22  1  0  0  0  0
 24 25  1  0  0  0  0
 25 20  2  0  0  0  0
 27 22  1  0  0  0  0
 28 29  2  0  0  0  0
 28 24  1  0  0  0  0
 29 30  1  0  0  0  0
 31 32  1  0  0  0  0
 31 29  1  0  0  0  0
 33 35  1  0  0  0  0
 33 31  2  0  0  0  0
 34 33  1  0  0  0  0
 35 28  1  0  0  0  0
M  END
>  <minimizedAffinity>
-6.38225937

>  <minimizedRMSD>
0.186473429

$$$$
