
 OpenBabel03272510013D

 20 21  0  0  0  0  0  0  0  0999 V2000
   38.2360   31.4550   50.2020 C   0  0  0  0  0  0  0  0  0  0  0  0
   38.5320   31.4340   48.8170 C   0  0  0  0  0  0  0  0  0  0  0  0
   37.6970   30.7010   47.9860 C   0  0  0  0  0  0  0  0  0  0  0  0
   36.6390   30.0420   48.5340 N   0  0  0  0  0  0  0  0  0  0  0  0
   36.3920   30.0890   49.8590 C   0  0  0  0  0  0  0  0  0  0  0  0
   37.1800   30.7880   50.6870 N   0  0  0  0  0  0  0  0  0  0  0  0
   38.8670   32.0170   50.8770 H   0  0  0  0  0  0  0  0  0  0  0  0
   39.3850   31.9740   48.4240 H   0  0  0  0  0  0  0  0  0  0  0  0
   37.9530   30.6410   46.5520 C   0  0  0  0  0  0  0  0  0  0  0  0
   36.9800   30.6800   45.5770 C   0  0  0  0  0  0  0  0  0  0  0  0
   35.9030   30.7590   45.7250 H   0  0  0  0  0  0  0  0  0  0  0  0
   37.7360   30.5940   44.4030 C   0  0  0  0  0  0  0  0  0  0  0  0
   37.2770   30.5960   43.4080 H   0  0  0  0  0  0  0  0  0  0  0  0
   39.0750   30.5120   44.7200 C   0  0  0  0  0  0  0  0  0  0  0  0
   39.8970   30.4340   43.9940 H   0  0  0  0  0  0  0  0  0  0  0  0
   39.1570   30.5440   46.0410 O   0  0  0  0  0  0  0  0  0  0  0  0
   35.2140   29.3430   50.3610 C   0  0  0  0  0  0  0  0  0  0  0  0
   35.2660   29.0980   51.7230 F   0  0  0  0  0  0  0  0  0  0  0  0
   34.0320   30.0730   50.1540 F   0  0  0  0  0  0  0  0  0  0  0  0
   35.0160   28.1470   49.7390 F   0  0  0  0  0  0  0  0  0  0  0  0
  1  6  1  0  0  0  0
  1  7  1  0  0  0  0
  2  1  2  0  0  0  0
  3  4  2  0  0  0  0
  3  2  1  0  0  0  0
  4  5  1  0  0  0  0
  5 17  1  0  0  0  0
  5  6  2  0  0  0  0
  8  2  1  0  0  0  0
  9  3  1  0  0  0  0
 10 11  1  0  0  0  0
 10  9  2  0  0  0  0
 12 14  2  0  0  0  0
 12 10  1  0  0  0  0
 13 12  1  0  0  0  0
 14 16  1  0  0  0  0
 15 14  1  0  0  0  0
 16  9  1  0  0  0  0
 17 18  1  0  0  0  0
 19 17  1  0  0  0  0
 20 17  1  0  0  0  0
M  END
>  <minimizedAffinity>
-5.02191496

>  <minimizedRMSD>
1.03015924

$$$$
