
 OpenBabel03262521043D

 27 29  0  0  0  0  0  0  0  0999 V2000
   38.4630   31.4820   48.4670 Br  0  0  0  0  0  0  0  0  0  0  0  0
   37.3230   30.9220   47.0710 C   0  0  0  0  0  0  0  0  0  0  0  0
   36.1820   30.2390   47.4570 C   0  0  0  0  0  0  0  0  0  0  0  0
   35.3000   29.7980   46.4700 C   0  0  0  0  0  0  0  0  0  0  0  0
   35.5620   30.0410   45.1250 C   0  0  0  0  0  0  0  0  0  0  0  0
   36.7050   30.7190   44.8220 C   0  0  0  0  0  0  0  0  0  0  0  0
   37.5970   31.1690   45.7540 C   0  0  0  0  0  0  0  0  0  0  0  0
   34.3940   29.2620   46.6890 H   0  0  0  0  0  0  0  0  0  0  0  0
   34.8920   29.7090   44.3440 H   0  0  0  0  0  0  0  0  0  0  0  0
   36.9290   30.9180   43.7830 H   0  0  0  0  0  0  0  0  0  0  0  0
   36.6180   29.3670   49.7870 C   0  0  0  0  0  0  0  0  0  0  0  0
   35.7620   29.9050   48.8150 C   0  0  0  0  0  0  0  0  0  0  0  0
   34.4230   30.1350   49.1670 C   0  0  0  0  0  0  0  0  0  0  0  0
   34.0370   29.8170   50.4510 N   0  0  0  0  0  0  0  0  0  0  0  0
   34.9000   29.3030   51.3430 C   0  0  0  0  0  0  0  0  0  0  0  0
   36.1960   29.0750   51.0190 N   0  0  0  0  0  0  0  0  0  0  0  0
   37.6530   29.2030   49.4740 H   0  0  0  0  0  0  0  0  0  0  0  0
   33.6840   30.5460   48.4940 H   0  0  0  0  0  0  0  0  0  0  0  0
   34.5610   29.0640   52.3430 H   0  0  0  0  0  0  0  0  0  0  0  0
   38.8110   31.8910   45.4000 C   0  0  0  0  0  0  0  0  0  0  0  0
   40.1130   31.3890   45.4560 C   0  0  0  0  0  0  0  0  0  0  0  0
   40.4250   30.3890   45.7700 H   0  0  0  0  0  0  0  0  0  0  0  0
   40.9210   32.4360   45.0250 C   0  0  0  0  0  0  0  0  0  0  0  0
   42.0060   32.4200   44.9350 H   0  0  0  0  0  0  0  0  0  0  0  0
   40.0790   33.5060   44.7350 C   0  0  0  0  0  0  0  0  0  0  0  0
   40.4730   34.4520   44.3760 H   0  0  0  0  0  0  0  0  0  0  0  0
   38.8350   33.1320   44.9740 O   0  0  0  0  0  0  0  0  0  0  0  0
  2  3  1  0  0  0  0
  2  1  1  0  0  0  0
  3 12  1  0  0  0  0
  4  8  1  0  0  0  0
  4  3  2  0  0  0  0
  5  4  1  0  0  0  0
  6  5  2  0  0  0  0
  6  7  1  0  0  0  0
  7  2  2  0  0  0  0
  9  5  1  0  0  0  0
 10  6  1  0  0  0  0
 11 16  1  0  0  0  0
 12 13  1  0  0  0  0
 12 11  2  0  0  0  0
 13 14  2  0  0  0  0
 14 15  1  0  0  0  0
 15 19  1  0  0  0  0
 16 15  2  0  0  0  0
 17 11  1  0  0  0  0
 18 13  1  0  0  0  0
 20 21  2  0  0  0  0
 20  7  1  0  0  0  0
 21 22  1  0  0  0  0
 23 21  1  0  0  0  0
 24 23  1  0  0  0  0
 25 27  1  0  0  0  0
 25 23  2  0  0  0  0
 26 25  1  0  0  0  0
 27 20  1  0  0  0  0
M  END
>  <minimizedAffinity>
-5.31174088

>  <minimizedRMSD>
2.73204732

$$$$
