
 OpenBabel03272508553D

 37 40  0  0  1  0  0  0  0  0999 V2000
   38.3850   31.8640   44.5340 C   0  0  0  0  0  0  0  0  0  0  0  0
   37.2620   32.4420   44.4200 O   0  0  0  0  0  0  0  0  0  0  0  0
   38.9300   31.5730   45.8250 N   0  0  0  0  0  0  0  0  0  0  0  0
   39.9070   31.2490   45.9910 H   0  0  0  0  0  0  0  0  0  0  0  0
   39.1510   31.4800   43.3400 C   0  0  0  0  0  0  0  0  0  0  0  0
   40.1280   30.5280   43.4770 C   0  0  0  0  0  0  0  0  0  0  0  0
   40.8540   30.1480   42.3640 C   0  0  0  0  0  0  0  0  0  0  0  0
   40.5490   30.7560   41.1650 C   0  0  0  0  0  0  0  0  0  0  0  0
   39.5660   31.7180   41.0170 C   0  0  0  0  0  0  0  0  0  0  0  0
   38.9140   32.0260   42.1400 N   0  0  0  0  0  0  0  0  0  0  0  0
   40.4030   30.0230   44.3940 H   0  0  0  0  0  0  0  0  0  0  0  0
   41.6350   29.4030   42.4070 H   0  0  0  0  0  0  0  0  0  0  0  0
   41.1260   30.4520   40.2970 H   0  0  0  0  0  0  0  0  0  0  0  0
   39.2630   32.3480   39.7390 C   0  0  0  0  0  0  0  0  0  0  0  0
   38.6390   33.5810   39.6270 C   0  0  0  0  0  0  0  0  0  0  0  0
   38.3090   34.2100   40.4360 H   0  0  0  0  0  0  0  0  0  0  0  0
   38.5650   33.7610   38.2430 C   0  0  0  0  0  0  0  0  0  0  0  0
   38.1300   34.6310   37.7680 H   0  0  0  0  0  0  0  0  0  0  0  0
   39.1270   32.6700   37.6120 C   0  0  0  0  0  0  0  0  0  0  0  0
   39.2390   32.4780   36.5540 H   0  0  0  0  0  0  0  0  0  0  0  0
   39.5400   31.8340   38.5440 O   0  0  0  0  0  0  0  0  0  0  0  0
   38.4310   31.1250   48.2220 C   0  0  2  0  0  0  0  0  0  0  0  0
   38.6950   32.5670   48.1180 C   0  0  0  0  0  0  0  0  0  0  0  0
   38.0540   31.7440   46.9730 C   0  0  1  0  0  0  0  0  0  0  0  0
   39.3520   30.5110   48.3040 H   0  0  0  0  0  0  0  0  0  0  0  0
   38.0750   33.3230   48.6270 H   0  0  0  0  0  0  0  0  0  0  0  0
   39.7320   32.9240   47.9610 H   0  0  0  0  0  0  0  0  0  0  0  0
   36.9980   32.0680   46.7670 H   0  0  0  0  0  0  0  0  0  0  0  0
   35.0890   30.2190   49.5360 C   0  0  0  0  0  0  0  0  0  0  0  0
   35.4160   29.5400   50.7540 C   0  0  0  0  0  0  0  0  0  0  0  0
   36.8160   29.4220   51.0920 C   0  0  0  0  0  0  0  0  0  0  0  0
   37.7560   29.9490   50.2570 N   0  0  0  0  0  0  0  0  0  0  0  0
   37.3560   30.5820   49.1120 C   0  0  0  0  0  0  0  0  0  0  0  0
   36.0400   30.7330   48.7240 N   0  0  0  0  0  0  0  0  0  0  0  0
   34.0380   30.2710   49.3470 H   0  0  0  0  0  0  0  0  0  0  0  0
   34.6550   29.1390   51.3860 H   0  0  0  0  0  0  0  0  0  0  0  0
   37.0640   28.9120   52.0080 H   0  0  0  0  0  0  0  0  0  0  0  0
  1  3  1  0  0  0  0
  2  1  2  0  0  0  0
  3  4  1  0  0  0  0
  3 24  1  0  0  0  0
  5  6  1  0  0  0  0
  5  1  1  0  0  0  0
  6 11  1  0  0  0  0
  7 12  1  0  0  0  0
  7  6  2  0  0  0  0
  8  7  1  0  0  0  0
  9  8  2  0  0  0  0
  9 10  1  0  0  0  0
 10  5  2  0  0  0  0
 13  8  1  0  0  0  0
 14  9  1  0  0  0  0
 15 14  2  0  0  0  0
 15 16  1  0  0  0  0
 17 15  1  0  0  0  0
 18 17  1  0  0  0  0
 19 17  2  0  0  0  0
 19 21  1  0  0  0  0
 20 19  1  0  0  0  0
 21 14  1  0  0  0  0
 22 25  1  6  0  0  0
 22 33  1  0  0  0  0
 23 22  1  0  0  0  0
 23 26  1  0  0  0  0
 24 28  1  6  0  0  0
 24 23  1  0  0  0  0
 24 22  1  0  0  0  0
 27 23  1  0  0  0  0
 29 30  1  0  0  0  0
 30 31  2  0  0  0  0
 30 36  1  0  0  0  0
 31 37  1  0  0  0  0
 32 31  1  0  0  0  0
 33 32  2  0  0  0  0
 34 33  1  0  0  0  0
 34 29  2  0  0  0  0
 35 29  1  0  0  0  0
M  END
>  <minimizedAffinity>
-5.15373564

>  <minimizedRMSD>
0.15943861

$$$$
