
 OpenBabel03272508553D

 37 40  0  0  1  0  0  0  0  0999 V2000
   38.3200   31.8900   44.5660 C   0  0  0  0  0  0  0  0  0  0  0  0
   37.1400   32.3420   44.4610 O   0  0  0  0  0  0  0  0  0  0  0  0
   38.9280   31.7240   45.8510 N   0  0  0  0  0  0  0  0  0  0  0  0
   39.9380   31.5120   46.0000 H   0  0  0  0  0  0  0  0  0  0  0  0
   39.0900   31.5270   43.3670 C   0  0  0  0  0  0  0  0  0  0  0  0
   40.0620   30.5690   43.4890 C   0  0  0  0  0  0  0  0  0  0  0  0
   40.7920   30.2090   42.3730 C   0  0  0  0  0  0  0  0  0  0  0  0
   40.4950   30.8410   41.1840 C   0  0  0  0  0  0  0  0  0  0  0  0
   39.5160   31.8100   41.0520 C   0  0  0  0  0  0  0  0  0  0  0  0
   38.8600   32.0970   42.1780 N   0  0  0  0  0  0  0  0  0  0  0  0
   40.3320   30.0440   44.3970 H   0  0  0  0  0  0  0  0  0  0  0  0
   41.5710   29.4600   42.4030 H   0  0  0  0  0  0  0  0  0  0  0  0
   41.0730   30.5520   40.3130 H   0  0  0  0  0  0  0  0  0  0  0  0
   39.2210   32.4660   39.7850 C   0  0  0  0  0  0  0  0  0  0  0  0
   39.3600   31.8410   38.5550 C   0  0  0  0  0  0  0  0  0  0  0  0
   39.6900   30.8310   38.3790 H   0  0  0  0  0  0  0  0  0  0  0  0
   38.9690   32.8420   37.6590 C   0  0  0  0  0  0  0  0  0  0  0  0
   38.9490   32.7160   36.5840 H   0  0  0  0  0  0  0  0  0  0  0  0
   38.6270   33.9760   38.3660 C   0  0  0  0  0  0  0  0  0  0  0  0
   38.2830   34.9320   37.9960 H   0  0  0  0  0  0  0  0  0  0  0  0
   38.7900   33.7160   39.6470 O   0  0  0  0  0  0  0  0  0  0  0  0
   38.4560   31.1890   48.2360 C   0  0  2  0  0  0  0  0  0  0  0  0
   38.7380   32.6310   48.1840 C   0  0  0  0  0  0  0  0  0  0  0  0
   38.0700   31.8620   47.0180 C   0  0  1  0  0  0  0  0  0  0  0  0
   39.3690   30.5600   48.2810 H   0  0  0  0  0  0  0  0  0  0  0  0
   38.1360   33.3740   48.7310 H   0  0  0  0  0  0  0  0  0  0  0  0
   39.7780   32.9790   48.0270 H   0  0  0  0  0  0  0  0  0  0  0  0
   37.0160   32.2080   46.8400 H   0  0  0  0  0  0  0  0  0  0  0  0
   35.1230   30.2290   49.5330 C   0  0  0  0  0  0  0  0  0  0  0  0
   35.4540   29.5490   50.7490 C   0  0  0  0  0  0  0  0  0  0  0  0
   36.8550   29.4480   51.0910 C   0  0  0  0  0  0  0  0  0  0  0  0
   37.7900   29.9930   50.2620 N   0  0  0  0  0  0  0  0  0  0  0  0
   37.3850   30.6260   49.1190 C   0  0  0  0  0  0  0  0  0  0  0  0
   36.0680   30.7610   48.7270 N   0  0  0  0  0  0  0  0  0  0  0  0
   34.0710   30.2670   49.3400 H   0  0  0  0  0  0  0  0  0  0  0  0
   34.6970   29.1330   51.3760 H   0  0  0  0  0  0  0  0  0  0  0  0
   37.1070   28.9370   52.0050 H   0  0  0  0  0  0  0  0  0  0  0  0
  1  3  1  0  0  0  0
  2  1  2  0  0  0  0
  3  4  1  0  0  0  0
  3 24  1  0  0  0  0
  5  6  1  0  0  0  0
  5  1  1  0  0  0  0
  6 11  1  0  0  0  0
  7 12  1  0  0  0  0
  7  6  2  0  0  0  0
  8  7  1  0  0  0  0
  9  8  2  0  0  0  0
  9 10  1  0  0  0  0
 10  5  2  0  0  0  0
 13  8  1  0  0  0  0
 14  9  1  0  0  0  0
 15 14  2  0  0  0  0
 16 15  1  0  0  0  0
 17 19  2  0  0  0  0
 17 15  1  0  0  0  0
 18 17  1  0  0  0  0
 19 21  1  0  0  0  0
 20 19  1  0  0  0  0
 21 14  1  0  0  0  0
 22 25  1  6  0  0  0
 22 33  1  0  0  0  0
 23 22  1  0  0  0  0
 23 26  1  0  0  0  0
 24 28  1  6  0  0  0
 24 23  1  0  0  0  0
 24 22  1  0  0  0  0
 27 23  1  0  0  0  0
 29 30  1  0  0  0  0
 30 31  2  0  0  0  0
 30 36  1  0  0  0  0
 31 37  1  0  0  0  0
 32 31  1  0  0  0  0
 33 32  2  0  0  0  0
 34 33  1  0  0  0  0
 34 29  2  0  0  0  0
 35 29  1  0  0  0  0
M  END
>  <minimizedAffinity>
-5.14730835

>  <minimizedRMSD>
0.507721722

$$$$
