
 OpenBabel03272505333D

 39 42  0  0  0  0  0  0  0  0999 V2000
   37.9830   24.3860   34.4290 N   0  0  0  0  0  0  0  0  0  0  0  0
   37.6930   25.7040   34.2720 C   0  0  0  0  0  0  0  0  0  0  0  0
   37.0370   26.1800   33.1430 C   0  0  0  0  0  0  0  0  0  0  0  0
   36.6800   25.2490   32.1580 C   0  0  0  0  0  0  0  0  0  0  0  0
   36.0910   25.6290   31.1300 O   0  0  0  0  0  0  0  0  0  0  0  0
   36.9760   23.9130   32.3240 N   0  0  0  0  0  0  0  0  0  0  0  0
   37.6060   23.5880   33.4480 C   0  0  0  0  0  0  0  0  0  0  0  0
   37.8570   22.3660   33.5600 O   0  0  0  0  0  0  0  0  0  0  0  0
   37.9780   26.4080   35.0460 H   0  0  0  0  0  0  0  0  0  0  0  0
   38.6990   23.3500   37.9290 C   0  0  0  0  0  0  0  0  0  0  0  0
   38.0250   23.8300   36.7960 C   0  0  0  0  0  0  0  0  0  0  0  0
   38.6430   23.9100   35.5680 C   0  0  0  0  0  0  0  0  0  0  0  0
   39.9370   23.5050   35.4990 N   0  0  0  0  0  0  0  0  0  0  0  0
   40.6110   23.0360   36.5860 C   0  0  0  0  0  0  0  0  0  0  0  0
   39.9770   22.9660   37.7910 N   0  0  0  0  0  0  0  0  0  0  0  0
   38.1660   23.3110   38.8530 H   0  0  0  0  0  0  0  0  0  0  0  0
   37.0030   24.1340   36.9190 H   0  0  0  0  0  0  0  0  0  0  0  0
   41.6370   22.7410   36.4210 H   0  0  0  0  0  0  0  0  0  0  0  0
   36.7060   27.5710   32.9300 C   0  0  0  0  0  0  0  0  0  0  0  0
   36.9170   28.2240   31.7320 C   0  0  0  0  0  0  0  0  0  0  0  0
   36.6150   29.5410   31.4950 C   0  0  0  0  0  0  0  0  0  0  0  0
   36.0550   30.2890   32.5250 C   0  0  0  0  0  0  0  0  0  0  0  0
   35.8570   29.5950   33.7190 C   0  0  0  0  0  0  0  0  0  0  0  0
   36.1670   28.3200   33.8970 N   0  0  0  0  0  0  0  0  0  0  0  0
   37.3520   27.6740   30.9070 H   0  0  0  0  0  0  0  0  0  0  0  0
   36.7860   30.0390   30.5510 H   0  0  0  0  0  0  0  0  0  0  0  0
   35.7950   31.3280   32.4030 H   0  0  0  0  0  0  0  0  0  0  0  0
   35.2690   30.3870   34.7970 C   0  0  0  0  0  0  0  0  0  0  0  0
   35.9560   31.2100   35.6720 C   0  0  0  0  0  0  0  0  0  0  0  0
   37.0270   31.4140   35.7220 H   0  0  0  0  0  0  0  0  0  0  0  0
   35.0590   31.7880   36.5470 C   0  0  0  0  0  0  0  0  0  0  0  0
   35.1640   32.4820   37.3740 H   0  0  0  0  0  0  0  0  0  0  0  0
   33.8230   31.2700   36.1450 C   0  0  0  0  0  0  0  0  0  0  0  0
   32.8600   31.4840   36.5870 H   0  0  0  0  0  0  0  0  0  0  0  0
   34.0020   30.4620   35.1250 O   0  0  0  0  0  0  0  0  0  0  0  0
   36.6050   22.9690   31.3070 C   0  0  0  0  0  0  0  0  0  0  0  0
   35.4140   23.3030   30.7530 F   0  0  0  0  0  0  0  0  0  0  0  0
   36.4710   21.6680   31.7810 F   0  0  0  0  0  0  0  0  0  0  0  0
   37.5720   23.0020   30.3000 F   0  0  0  0  0  0  0  0  0  0  0  0
  1 12  1  0  0  0  0
  2  1  1  0  0  0  0
  2  9  1  0  0  0  0
  3  2  2  0  0  0  0
  4  6  1  0  0  0  0
  4  3  1  0  0  0  0
  5  4  2  0  0  0  0
  6  7  1  0  0  0  0
  7  8  2  0  0  0  0
  7  1  1  0  0  0  0
 10 16  1  0  0  0  0
 11 17  1  0  0  0  0
 11 10  2  0  0  0  0
 12 11  1  0  0  0  0
 13 12  2  0  0  0  0
 13 14  1  0  0  0  0
 14 15  2  0  0  0  0
 15 10  1  0  0  0  0
 18 14  1  0  0  0  0
 19  3  1  0  0  0  0
 19 24  1  0  0  0  0
 20 19  2  0  0  0  0
 21 20  1  0  0  0  0
 21 22  2  0  0  0  0
 22 23  1  0  0  0  0
 23 24  2  0  0  0  0
 23 28  1  0  0  0  0
 25 20  1  0  0  0  0
 26 21  1  0  0  0  0
 27 22  1  0  0  0  0
 28 35  1  0  0  0  0
 28 29  2  0  0  0  0
 29 30  1  0  0  0  0
 29 31  1  0  0  0  0
 31 32  1  0  0  0  0
 33 31  2  0  0  0  0
 33 34  1  0  0  0  0
 35 33  1  0  0  0  0
 36 38  1  0  0  0  0
 36  6  1  0  0  0  0
 37 36  1  0  0  0  0
 39 36  1  0  0  0  0
M  END
>  <minimizedAffinity>
-6.83079529

$$$$

 OpenBabel03272505333D

 39 42  0  0  0  0  0  0  0  0999 V2000
   35.8980   29.2700   33.7550 N   0  0  0  0  0  0  0  0  0  0  0  0
   36.2740   28.0030   34.0660 C   0  0  0  0  0  0  0  0  0  0  0  0
   36.9100   27.1810   33.1440 C   0  0  0  0  0  0  0  0  0  0  0  0
   37.1550   27.7040   31.8670 C   0  0  0  0  0  0  0  0  0  0  0  0
   37.7220   27.0050   31.0080 O   0  0  0  0  0  0  0  0  0  0  0  0
   36.7720   28.9930   31.5580 N   0  0  0  0  0  0  0  0  0  0  0  0
   36.1730   29.6740   32.5290 C   0  0  0  0  0  0  0  0  0  0  0  0
   35.8410   30.8380   32.2090 O   0  0  0  0  0  0  0  0  0  0  0  0
   36.0750   27.6170   35.0590 H   0  0  0  0  0  0  0  0  0  0  0  0
   35.2980   31.7860   36.4300 C   0  0  0  0  0  0  0  0  0  0  0  0
   35.9530   30.9640   35.5000 C   0  0  0  0  0  0  0  0  0  0  0  0
   35.2580   30.0960   34.6870 C   0  0  0  0  0  0  0  0  0  0  0  0
   33.9080   30.0680   34.8240 N   0  0  0  0  0  0  0  0  0  0  0  0
   33.2510   30.8570   35.7200 C   0  0  0  0  0  0  0  0  0  0  0  0
   33.9620   31.7090   36.5130 N   0  0  0  0  0  0  0  0  0  0  0  0
   35.8920   32.4370   37.0310 H   0  0  0  0  0  0  0  0  0  0  0  0
   37.0220   31.0350   35.4430 H   0  0  0  0  0  0  0  0  0  0  0  0
   32.1750   30.7560   35.7460 H   0  0  0  0  0  0  0  0  0  0  0  0
   37.3290   25.8260   33.4260 C   0  0  0  0  0  0  0  0  0  0  0  0
   37.3450   24.8260   32.4750 C   0  0  0  0  0  0  0  0  0  0  0  0
   37.7370   23.5310   32.7070 C   0  0  0  0  0  0  0  0  0  0  0  0
   38.1490   23.1840   33.9890 C   0  0  0  0  0  0  0  0  0  0  0  0
   38.1190   24.2200   34.9210 C   0  0  0  0  0  0  0  0  0  0  0  0
   37.7320   25.4560   34.6450 N   0  0  0  0  0  0  0  0  0  0  0  0
   37.0300   25.0600   31.4660 H   0  0  0  0  0  0  0  0  0  0  0  0
   37.7440   22.7590   31.9510 H   0  0  0  0  0  0  0  0  0  0  0  0
   38.4690   22.1840   34.2350 H   0  0  0  0  0  0  0  0  0  0  0  0
   38.5530   23.8470   36.2650 C   0  0  0  0  0  0  0  0  0  0  0  0
   37.9100   24.1670   37.4480 C   0  0  0  0  0  0  0  0  0  0  0  0
   36.9920   24.7390   37.5950 H   0  0  0  0  0  0  0  0  0  0  0  0
   38.6220   23.6390   38.5060 C   0  0  0  0  0  0  0  0  0  0  0  0
   38.4790   23.6500   39.5810 H   0  0  0  0  0  0  0  0  0  0  0  0
   39.7030   22.9990   37.8920 C   0  0  0  0  0  0  0  0  0  0  0  0
   40.4980   22.4590   38.3870 H   0  0  0  0  0  0  0  0  0  0  0  0
   39.6150   23.1500   36.5900 O   0  0  0  0  0  0  0  0  0  0  0  0
   37.0290   29.5170   30.2460 C   0  0  0  0  0  0  0  0  0  0  0  0
   38.3330   29.8620   30.1130 F   0  0  0  0  0  0  0  0  0  0  0  0
   36.2860   30.6550   29.9490 F   0  0  0  0  0  0  0  0  0  0  0  0
   36.7500   28.5190   29.3100 F   0  0  0  0  0  0  0  0  0  0  0  0
  1  2  1  0  0  0  0
  1 12  1  0  0  0  0
  2  9  1  0  0  0  0
  3 19  1  0  0  0  0
  3  2  2  0  0  0  0
  4  3  1  0  0  0  0
  5  4  2  0  0  0  0
  6  4  1  0  0  0  0
  6  7  1  0  0  0  0
  7  1  1  0  0  0  0
  8  7  2  0  0  0  0
 10 15  1  0  0  0  0
 10 16  1  0  0  0  0
 11 10  2  0  0  0  0
 12 13  2  0  0  0  0
 12 11  1  0  0  0  0
 13 14  1  0  0  0  0
 14 18  1  0  0  0  0
 14 15  2  0  0  0  0
 17 11  1  0  0  0  0
 19 24  1  0  0  0  0
 20 21  1  0  0  0  0
 20 19  2  0  0  0  0
 21 22  2  0  0  0  0
 22 27  1  0  0  0  0
 22 23  1  0  0  0  0
 23 28  1  0  0  0  0
 24 23  2  0  0  0  0
 25 20  1  0  0  0  0
 26 21  1  0  0  0  0
 28 35  1  0  0  0  0
 28 29  2  0  0  0  0
 29 30  1  0  0  0  0
 29 31  1  0  0  0  0
 31 32  1  0  0  0  0
 33 34  1  0  0  0  0
 33 31  2  0  0  0  0
 35 33  1  0  0  0  0
 36  6  1  0  0  0  0
 37 36  1  0  0  0  0
 38 36  1  0  0  0  0
 39 36  1  0  0  0  0
M  END
>  <minimizedAffinity>
-6.56083107

$$$$

 OpenBabel03272505333D

 39 42  0  0  0  0  0  0  0  0999 V2000
   38.0340   23.5860   34.2980 N   0  0  0  0  0  0  0  0  0  0  0  0
   38.0400   24.8350   33.7670 C   0  0  0  0  0  0  0  0  0  0  0  0
   37.4050   25.1230   32.5650 C   0  0  0  0  0  0  0  0  0  0  0  0
   36.7490   24.0720   31.9080 C   0  0  0  0  0  0  0  0  0  0  0  0
   36.1660   24.2830   30.8290 O   0  0  0  0  0  0  0  0  0  0  0  0
   36.7460   22.8060   32.4530 N   0  0  0  0  0  0  0  0  0  0  0  0
   37.3910   22.6640   33.6070 C   0  0  0  0  0  0  0  0  0  0  0  0
   37.3650   21.5000   34.0680 O   0  0  0  0  0  0  0  0  0  0  0  0
   38.5530   25.6350   34.2900 H   0  0  0  0  0  0  0  0  0  0  0  0
   38.7690   23.3150   37.9350 C   0  0  0  0  0  0  0  0  0  0  0  0
   38.1150   23.6080   36.7280 C   0  0  0  0  0  0  0  0  0  0  0  0
   38.6750   23.3000   35.5090 C   0  0  0  0  0  0  0  0  0  0  0  0
   39.8930   22.6980   35.5220 N   0  0  0  0  0  0  0  0  0  0  0  0
   40.5460   22.4050   36.6820 C   0  0  0  0  0  0  0  0  0  0  0  0
   39.9690   22.7200   37.8760 N   0  0  0  0  0  0  0  0  0  0  0  0
   38.2820   23.5780   38.8470 H   0  0  0  0  0  0  0  0  0  0  0  0
   37.1550   24.0840   36.7880 H   0  0  0  0  0  0  0  0  0  0  0  0
   41.5090   21.9260   36.5790 H   0  0  0  0  0  0  0  0  0  0  0  0
   37.3820   26.4360   31.9590 C   0  0  0  0  0  0  0  0  0  0  0  0
   38.3980   26.9170   31.1570 C   0  0  0  0  0  0  0  0  0  0  0  0
   38.4090   28.1550   30.5670 C   0  0  0  0  0  0  0  0  0  0  0  0
   37.3270   29.0010   30.7810 C   0  0  0  0  0  0  0  0  0  0  0  0
   36.3210   28.4810   31.5950 C   0  0  0  0  0  0  0  0  0  0  0  0
   36.3590   27.2750   32.1420 N   0  0  0  0  0  0  0  0  0  0  0  0
   39.2570   26.2850   30.9690 H   0  0  0  0  0  0  0  0  0  0  0  0
   39.2130   28.5180   29.9410 H   0  0  0  0  0  0  0  0  0  0  0  0
   37.2750   29.9860   30.3450 H   0  0  0  0  0  0  0  0  0  0  0  0
   35.1880   29.3760   31.8160 C   0  0  0  0  0  0  0  0  0  0  0  0
   35.0320   30.6410   31.2780 C   0  0  0  0  0  0  0  0  0  0  0  0
   35.7020   31.1900   30.6140 H   0  0  0  0  0  0  0  0  0  0  0  0
   33.8360   31.1730   31.7160 C   0  0  0  0  0  0  0  0  0  0  0  0
   33.3310   32.1180   31.5430 H   0  0  0  0  0  0  0  0  0  0  0  0
   33.3020   30.1670   32.5280 C   0  0  0  0  0  0  0  0  0  0  0  0
   32.3630   30.2000   33.0620 H   0  0  0  0  0  0  0  0  0  0  0  0
   34.1270   29.1450   32.5510 O   0  0  0  0  0  0  0  0  0  0  0  0
   36.0710   21.7380   31.7710 C   0  0  0  0  0  0  0  0  0  0  0  0
   35.2900   22.2220   30.7750 F   0  0  0  0  0  0  0  0  0  0  0  0
   35.2410   20.9890   32.5980 F   0  0  0  0  0  0  0  0  0  0  0  0
   37.0330   20.9050   31.1960 F   0  0  0  0  0  0  0  0  0  0  0  0
  1 12  1  0  0  0  0
  2  9  1  0  0  0  0
  2  1  1  0  0  0  0
  3  2  2  0  0  0  0
  4  6  1  0  0  0  0
  4  3  1  0  0  0  0
  5  4  2  0  0  0  0
  6  7  1  0  0  0  0
  7  8  2  0  0  0  0
  7  1  1  0  0  0  0
 10 16  1  0  0  0  0
 11 17  1  0  0  0  0
 11 10  2  0  0  0  0
 12 13  2  0  0  0  0
 12 11  1  0  0  0  0
 13 14  1  0  0  0  0
 14 15  2  0  0  0  0
 15 10  1  0  0  0  0
 18 14  1  0  0  0  0
 19 24  1  0  0  0  0
 19  3  1  0  0  0  0
 20 19  2  0  0  0  0
 21 22  2  0  0  0  0
 21 20  1  0  0  0  0
 22 23  1  0  0  0  0
 23 28  1  0  0  0  0
 23 24  2  0  0  0  0
 25 20  1  0  0  0  0
 26 21  1  0  0  0  0
 27 22  1  0  0  0  0
 28 35  1  0  0  0  0
 29 31  1  0  0  0  0
 29 28  2  0  0  0  0
 30 29  1  0  0  0  0
 31 33  2  0  0  0  0
 32 31  1  0  0  0  0
 33 35  1  0  0  0  0
 33 34  1  0  0  0  0
 36  6  1  0  0  0  0
 36 38  1  0  0  0  0
 37 36  1  0  0  0  0
 39 36  1  0  0  0  0
M  END
>  <minimizedAffinity>
-6.30404997

$$$$

 OpenBabel03272505333D

 39 42  0  0  0  0  0  0  0  0999 V2000
   37.3460   25.2330   32.4700 N   0  0  0  0  0  0  0  0  0  0  0  0
   38.0400   24.9300   33.5970 C   0  0  0  0  0  0  0  0  0  0  0  0
   38.0630   23.6420   34.1190 C   0  0  0  0  0  0  0  0  0  0  0  0
   37.3410   22.6520   33.4390 C   0  0  0  0  0  0  0  0  0  0  0  0
   37.3330   21.4850   33.8680 O   0  0  0  0  0  0  0  0  0  0  0  0
   36.6390   22.9670   32.2940 N   0  0  0  0  0  0  0  0  0  0  0  0
   36.6980   24.2350   31.9010 C   0  0  0  0  0  0  0  0  0  0  0  0
   36.0480   24.4780   30.8580 O   0  0  0  0  0  0  0  0  0  0  0  0
   38.5930   25.7100   34.1090 H   0  0  0  0  0  0  0  0  0  0  0  0
   36.4370   28.7890   31.8640 C   0  0  0  0  0  0  0  0  0  0  0  0
   36.4470   27.4920   32.3970 C   0  0  0  0  0  0  0  0  0  0  0  0
   37.3250   26.5320   31.9470 C   0  0  0  0  0  0  0  0  0  0  0  0
   38.1860   26.8950   30.9620 N   0  0  0  0  0  0  0  0  0  0  0  0
   38.1950   28.1490   30.4290 C   0  0  0  0  0  0  0  0  0  0  0  0
   37.3150   29.0820   30.8920 N   0  0  0  0  0  0  0  0  0  0  0  0
   35.7320   29.4890   32.2550 H   0  0  0  0  0  0  0  0  0  0  0  0
   35.7400   27.2710   33.1740 H   0  0  0  0  0  0  0  0  0  0  0  0
   38.9210   28.3310   29.6500 H   0  0  0  0  0  0  0  0  0  0  0  0
   38.7860   23.2700   35.3140 C   0  0  0  0  0  0  0  0  0  0  0  0
   38.3720   23.6100   36.5860 C   0  0  0  0  0  0  0  0  0  0  0  0
   39.0320   23.2730   37.7410 C   0  0  0  0  0  0  0  0  0  0  0  0
   40.2060   22.5360   37.6420 C   0  0  0  0  0  0  0  0  0  0  0  0
   40.5930   22.2110   36.3420 C   0  0  0  0  0  0  0  0  0  0  0  0
   39.9180   22.5620   35.2570 N   0  0  0  0  0  0  0  0  0  0  0  0
   37.4610   24.1850   36.7020 H   0  0  0  0  0  0  0  0  0  0  0  0
   38.6940   23.5480   38.7300 H   0  0  0  0  0  0  0  0  0  0  0  0
   40.7710   22.2400   38.5110 H   0  0  0  0  0  0  0  0  0  0  0  0
   41.8280   21.4380   36.2460 C   0  0  0  0  0  0  0  0  0  0  0  0
   42.4020   20.6900   37.2590 C   0  0  0  0  0  0  0  0  0  0  0  0
   42.0540   20.5430   38.2830 H   0  0  0  0  0  0  0  0  0  0  0  0
   43.5590   20.1040   36.7870 C   0  0  0  0  0  0  0  0  0  0  0  0
   44.3020   19.4530   37.2350 H   0  0  0  0  0  0  0  0  0  0  0  0
   43.6360   20.5400   35.4610 C   0  0  0  0  0  0  0  0  0  0  0  0
   44.4080   20.2970   34.7450 H   0  0  0  0  0  0  0  0  0  0  0  0
   42.6050   21.3120   35.1980 O   0  0  0  0  0  0  0  0  0  0  0  0
   35.9020   21.9430   31.6060 C   0  0  0  0  0  0  0  0  0  0  0  0
   35.1520   22.4760   30.6120 F   0  0  0  0  0  0  0  0  0  0  0  0
   35.0280   21.2420   32.4310 F   0  0  0  0  0  0  0  0  0  0  0  0
   36.8140   21.0570   31.0290 F   0  0  0  0  0  0  0  0  0  0  0  0
  1  2  1  0  0  0  0
  2  9  1  0  0  0  0
  2  3  2  0  0  0  0
  3 19  1  0  0  0  0
  4  5  2  0  0  0  0
  4  3  1  0  0  0  0
  6  4  1  0  0  0  0
  7  6  1  0  0  0  0
  7  1  1  0  0  0  0
  8  7  2  0  0  0  0
 10 16  1  0  0  0  0
 10 11  1  0  0  0  0
 11 17  1  0  0  0  0
 12 11  2  0  0  0  0
 12  1  1  0  0  0  0
 13 12  1  0  0  0  0
 14 15  1  0  0  0  0
 14 13  2  0  0  0  0
 15 10  2  0  0  0  0
 18 14  1  0  0  0  0
 19 20  1  0  0  0  0
 20 25  1  0  0  0  0
 20 21  2  0  0  0  0
 21 26  1  0  0  0  0
 22 21  1  0  0  0  0
 22 27  1  0  0  0  0
 23 22  2  0  0  0  0
 24 19  2  0  0  0  0
 24 23  1  0  0  0  0
 28 23  1  0  0  0  0
 28 29  2  0  0  0  0
 29 30  1  0  0  0  0
 31 32  1  0  0  0  0
 31 29  1  0  0  0  0
 33 31  2  0  0  0  0
 34 33  1  0  0  0  0
 35 33  1  0  0  0  0
 35 28  1  0  0  0  0
 36  6  1  0  0  0  0
 36 38  1  0  0  0  0
 37 36  1  0  0  0  0
 39 36  1  0  0  0  0
M  END
>  <minimizedAffinity>
-6.28180933

$$$$

 OpenBabel03272505333D

 39 42  0  0  0  0  0  0  0  0999 V2000
   38.0860   23.5180   34.2160 N   0  0  0  0  0  0  0  0  0  0  0  0
   38.0690   24.7830   33.7220 C   0  0  0  0  0  0  0  0  0  0  0  0
   37.3550   25.1110   32.5760 C   0  0  0  0  0  0  0  0  0  0  0  0
   36.6440   24.0860   31.9360 C   0  0  0  0  0  0  0  0  0  0  0  0
   35.9900   24.3340   30.9070 O   0  0  0  0  0  0  0  0  0  0  0  0
   36.6650   22.8050   32.4440 N   0  0  0  0  0  0  0  0  0  0  0  0
   37.3860   22.6230   33.5450 C   0  0  0  0  0  0  0  0  0  0  0  0
   37.3790   21.4460   33.9730 O   0  0  0  0  0  0  0  0  0  0  0  0
   38.6250   25.5620   34.2310 H   0  0  0  0  0  0  0  0  0  0  0  0
   39.0800   23.1590   37.7830 C   0  0  0  0  0  0  0  0  0  0  0  0
   38.3480   23.4930   36.6340 C   0  0  0  0  0  0  0  0  0  0  0  0
   38.8060   23.1910   35.3710 C   0  0  0  0  0  0  0  0  0  0  0  0
   40.0010   22.5520   35.2840 N   0  0  0  0  0  0  0  0  0  0  0  0
   40.7300   22.2180   36.3860 C   0  0  0  0  0  0  0  0  0  0  0  0
   40.2530   22.5290   37.6250 N   0  0  0  0  0  0  0  0  0  0  0  0
   38.6720   23.4210   38.7340 H   0  0  0  0  0  0  0  0  0  0  0  0
   37.4100   23.9970   36.7730 H   0  0  0  0  0  0  0  0  0  0  0  0
   41.6670   21.7120   36.2030 H   0  0  0  0  0  0  0  0  0  0  0  0
   37.3050   26.4420   32.0110 C   0  0  0  0  0  0  0  0  0  0  0  0
   36.6050   27.4830   32.5870 C   0  0  0  0  0  0  0  0  0  0  0  0
   36.5360   28.7550   32.0790 C   0  0  0  0  0  0  0  0  0  0  0  0
   37.2150   29.0350   30.8990 C   0  0  0  0  0  0  0  0  0  0  0  0
   37.9100   27.9590   30.3470 C   0  0  0  0  0  0  0  0  0  0  0  0
   37.9450   26.7470   30.8780 N   0  0  0  0  0  0  0  0  0  0  0  0
   36.0640   27.3010   33.5080 H   0  0  0  0  0  0  0  0  0  0  0  0
   35.9830   29.5600   32.5430 H   0  0  0  0  0  0  0  0  0  0  0  0
   37.2010   30.0150   30.4490 H   0  0  0  0  0  0  0  0  0  0  0  0
   38.6200   28.2610   29.1060 C   0  0  0  0  0  0  0  0  0  0  0  0
   38.7240   29.5040   28.5080 C   0  0  0  0  0  0  0  0  0  0  0  0
   38.3100   30.4590   28.8370 H   0  0  0  0  0  0  0  0  0  0  0  0
   39.4710   29.3890   27.3530 C   0  0  0  0  0  0  0  0  0  0  0  0
   39.7900   30.0980   26.5970 H   0  0  0  0  0  0  0  0  0  0  0  0
   39.7980   28.0300   27.3040 C   0  0  0  0  0  0  0  0  0  0  0  0
   40.3820   27.5340   26.5420 H   0  0  0  0  0  0  0  0  0  0  0  0
   39.2790   27.4200   28.3460 O   0  0  0  0  0  0  0  0  0  0  0  0
   35.9330   21.7630   31.7790 C   0  0  0  0  0  0  0  0  0  0  0  0
   35.2660   22.2540   30.7070 F   0  0  0  0  0  0  0  0  0  0  0  0
   34.9830   21.1490   32.5900 F   0  0  0  0  0  0  0  0  0  0  0  0
   36.8430   20.8090   31.3200 F   0  0  0  0  0  0  0  0  0  0  0  0
  1 12  1  0  0  0  0
  2  1  1  0  0  0  0
  2  9  1  0  0  0  0
  3  2  2  0  0  0  0
  4  6  1  0  0  0  0
  4  3  1  0  0  0  0
  5  4  2  0  0  0  0
  6  7  1  0  0  0  0
  7  8  2  0  0  0  0
  7  1  1  0  0  0  0
 10 16  1  0  0  0  0
 11 17  1  0  0  0  0
 11 10  2  0  0  0  0
 12 11  1  0  0  0  0
 13 12  2  0  0  0  0
 13 14  1  0  0  0  0
 14 15  2  0  0  0  0
 15 10  1  0  0  0  0
 18 14  1  0  0  0  0
 19  3  1  0  0  0  0
 19 20  1  0  0  0  0
 20 25  1  0  0  0  0
 21 26  1  0  0  0  0
 21 20  2  0  0  0  0
 22 21  1  0  0  0  0
 23 24  1  0  0  0  0
 23 22  2  0  0  0  0
 24 19  2  0  0  0  0
 27 22  1  0  0  0  0
 28 23  1  0  0  0  0
 29 30  1  0  0  0  0
 29 28  2  0  0  0  0
 31 29  1  0  0  0  0
 32 31  1  0  0  0  0
 33 31  2  0  0  0  0
 33 35  1  0  0  0  0
 34 33  1  0  0  0  0
 35 28  1  0  0  0  0
 36  6  1  0  0  0  0
 36 38  1  0  0  0  0
 37 36  1  0  0  0  0
 39 36  1  0  0  0  0
M  END
>  <minimizedAffinity>
-6.15429211

$$$$

 OpenBabel03272505333D

 39 42  0  0  0  0  0  0  0  0999 V2000
   37.3810   22.5240   33.4920 N   0  0  0  0  0  0  0  0  0  0  0  0
   37.3590   23.6450   32.7280 C   0  0  0  0  0  0  0  0  0  0  0  0
   37.7310   24.8850   33.2360 C   0  0  0  0  0  0  0  0  0  0  0  0
   38.1340   24.9430   34.5770 C   0  0  0  0  0  0  0  0  0  0  0  0
   38.4760   26.0310   35.0750 O   0  0  0  0  0  0  0  0  0  0  0  0
   38.1550   23.7990   35.3470 N   0  0  0  0  0  0  0  0  0  0  0  0
   37.7760   22.6790   34.7410 C   0  0  0  0  0  0  0  0  0  0  0  0
   37.8090   21.6640   35.4750 O   0  0  0  0  0  0  0  0  0  0  0  0
   37.0440   23.5800   31.6930 H   0  0  0  0  0  0  0  0  0  0  0  0
   35.3650   19.5330   32.5790 C   0  0  0  0  0  0  0  0  0  0  0  0
   35.7260   20.7840   33.1010 C   0  0  0  0  0  0  0  0  0  0  0  0
   37.0060   21.2770   32.9770 C   0  0  0  0  0  0  0  0  0  0  0  0
   37.9080   20.4980   32.3250 N   0  0  0  0  0  0  0  0  0  0  0  0
   37.5790   19.2800   31.8110 C   0  0  0  0  0  0  0  0  0  0  0  0
   36.3050   18.8150   31.9470 N   0  0  0  0  0  0  0  0  0  0  0  0
   34.3570   19.2060   32.7080 H   0  0  0  0  0  0  0  0  0  0  0  0
   34.9650   21.3490   33.6050 H   0  0  0  0  0  0  0  0  0  0  0  0
   38.3730   18.7430   31.3120 H   0  0  0  0  0  0  0  0  0  0  0  0
   37.7250   26.1070   32.4640 C   0  0  0  0  0  0  0  0  0  0  0  0
   38.7500   26.4710   31.6140 C   0  0  0  0  0  0  0  0  0  0  0  0
   38.7770   27.6210   30.8670 C   0  0  0  0  0  0  0  0  0  0  0  0
   37.7010   28.4970   30.9610 C   0  0  0  0  0  0  0  0  0  0  0  0
   36.6850   28.0960   31.8290 C   0  0  0  0  0  0  0  0  0  0  0  0
   36.7080   26.9720   32.5290 N   0  0  0  0  0  0  0  0  0  0  0  0
   39.6040   25.8120   31.5160 H   0  0  0  0  0  0  0  0  0  0  0  0
   39.5880   27.8920   30.2060 H   0  0  0  0  0  0  0  0  0  0  0  0
   37.6620   29.4180   30.4000 H   0  0  0  0  0  0  0  0  0  0  0  0
   35.5600   29.0220   31.9220 C   0  0  0  0  0  0  0  0  0  0  0  0
   35.4160   30.2050   31.2190 C   0  0  0  0  0  0  0  0  0  0  0  0
   36.0920   30.6540   30.4890 H   0  0  0  0  0  0  0  0  0  0  0  0
   34.2240   30.8010   31.5760 C   0  0  0  0  0  0  0  0  0  0  0  0
   33.7280   31.7180   31.2750 H   0  0  0  0  0  0  0  0  0  0  0  0
   33.6790   29.9180   32.5140 C   0  0  0  0  0  0  0  0  0  0  0  0
   32.7390   30.0300   33.0360 H   0  0  0  0  0  0  0  0  0  0  0  0
   34.4950   28.9020   32.6780 O   0  0  0  0  0  0  0  0  0  0  0  0
   38.5700   23.8730   36.7200 C   0  0  0  0  0  0  0  0  0  0  0  0
   37.9410   22.9310   37.4630 F   0  0  0  0  0  0  0  0  0  0  0  0
   38.2950   25.0990   37.3170 F   0  0  0  0  0  0  0  0  0  0  0  0
   39.9420   23.6210   36.7790 F   0  0  0  0  0  0  0  0  0  0  0  0
  1  7  1  0  0  0  0
  2  3  2  0  0  0  0
  2  1  1  0  0  0  0
  3  4  1  0  0  0  0
  4  5  2  0  0  0  0
  4  6  1  0  0  0  0
  6 36  1  0  0  0  0
  7  6  1  0  0  0  0
  7  8  2  0  0  0  0
  9  2  1  0  0  0  0
 10 16  1  0  0  0  0
 10 11  1  0  0  0  0
 11 17  1  0  0  0  0
 12 11  2  0  0  0  0
 12  1  1  0  0  0  0
 13 12  1  0  0  0  0
 14 15  1  0  0  0  0
 14 13  2  0  0  0  0
 15 10  2  0  0  0  0
 18 14  1  0  0  0  0
 19 24  1  0  0  0  0
 19  3  1  0  0  0  0
 20 19  2  0  0  0  0
 21 22  2  0  0  0  0
 21 20  1  0  0  0  0
 22 23  1  0  0  0  0
 23 28  1  0  0  0  0
 23 24  2  0  0  0  0
 25 20  1  0  0  0  0
 26 21  1  0  0  0  0
 27 22  1  0  0  0  0
 28 35  1  0  0  0  0
 29 31  1  0  0  0  0
 29 28  2  0  0  0  0
 30 29  1  0  0  0  0
 31 33  2  0  0  0  0
 32 31  1  0  0  0  0
 33 35  1  0  0  0  0
 33 34  1  0  0  0  0
 36 39  1  0  0  0  0
 36 38  1  0  0  0  0
 36 37  1  0  0  0  0
M  END
>  <minimizedAffinity>
-6.07533503

$$$$

 OpenBabel03272505333D

 39 42  0  0  0  0  0  0  0  0999 V2000
   35.6430   29.7840   33.9790 N   0  0  0  0  0  0  0  0  0  0  0  0
   36.2070   28.5650   34.1790 C   0  0  0  0  0  0  0  0  0  0  0  0
   36.9020   27.9060   33.1710 C   0  0  0  0  0  0  0  0  0  0  0  0
   37.0050   28.5440   31.9270 C   0  0  0  0  0  0  0  0  0  0  0  0
   37.6180   27.9920   30.9960 O   0  0  0  0  0  0  0  0  0  0  0  0
   36.4310   29.7820   31.7320 N   0  0  0  0  0  0  0  0  0  0  0  0
   35.7940   30.3040   32.7760 C   0  0  0  0  0  0  0  0  0  0  0  0
   35.2870   31.4280   32.5560 O   0  0  0  0  0  0  0  0  0  0  0  0
   36.1160   28.0880   35.1480 H   0  0  0  0  0  0  0  0  0  0  0  0
   34.8430   31.9950   36.8620 C   0  0  0  0  0  0  0  0  0  0  0  0
   35.5560   31.3390   35.8470 C   0  0  0  0  0  0  0  0  0  0  0  0
   34.9450   30.4450   34.9960 C   0  0  0  0  0  0  0  0  0  0  0  0
   33.6180   30.2240   35.1810 N   0  0  0  0  0  0  0  0  0  0  0  0
   32.9060   30.8490   36.1600 C   0  0  0  0  0  0  0  0  0  0  0  0
   33.5340   31.7300   36.9890 N   0  0  0  0  0  0  0  0  0  0  0  0
   35.3730   32.6760   37.4890 H   0  0  0  0  0  0  0  0  0  0  0  0
   36.6020   31.5600   35.7550 H   0  0  0  0  0  0  0  0  0  0  0  0
   31.8560   30.6000   36.2190 H   0  0  0  0  0  0  0  0  0  0  0  0
   37.5200   26.6080   33.3340 C   0  0  0  0  0  0  0  0  0  0  0  0
   38.6830   26.4090   34.0490 C   0  0  0  0  0  0  0  0  0  0  0  0
   39.2950   25.1930   34.2230 C   0  0  0  0  0  0  0  0  0  0  0  0
   38.7160   24.0700   33.6450 C   0  0  0  0  0  0  0  0  0  0  0  0
   37.5420   24.3110   32.9310 C   0  0  0  0  0  0  0  0  0  0  0  0
   36.9900   25.5070   32.7920 N   0  0  0  0  0  0  0  0  0  0  0  0
   39.1630   27.2610   34.5140 H   0  0  0  0  0  0  0  0  0  0  0  0
   40.2070   25.0530   34.7870 H   0  0  0  0  0  0  0  0  0  0  0  0
   39.1480   23.0870   33.7450 H   0  0  0  0  0  0  0  0  0  0  0  0
   36.9390   23.1270   32.3250 C   0  0  0  0  0  0  0  0  0  0  0  0
   35.7850   23.0990   31.5630 C   0  0  0  0  0  0  0  0  0  0  0  0
   35.1310   23.9250   31.2810 H   0  0  0  0  0  0  0  0  0  0  0  0
   35.5360   21.8000   31.1680 C   0  0  0  0  0  0  0  0  0  0  0  0
   34.7560   21.3370   30.5740 H   0  0  0  0  0  0  0  0  0  0  0  0
   36.5910   21.0740   31.7310 C   0  0  0  0  0  0  0  0  0  0  0  0
   36.7570   20.0090   31.6500 H   0  0  0  0  0  0  0  0  0  0  0  0
   37.3770   21.8930   32.3920 O   0  0  0  0  0  0  0  0  0  0  0  0
   36.5430   30.4260   30.4530 C   0  0  0  0  0  0  0  0  0  0  0  0
   35.4520   31.1870   30.2000 F   0  0  0  0  0  0  0  0  0  0  0  0
   36.6580   29.5330   29.3920 F   0  0  0  0  0  0  0  0  0  0  0  0
   37.6580   31.2660   30.4790 F   0  0  0  0  0  0  0  0  0  0  0  0
  1  2  1  0  0  0  0
  1 12  1  0  0  0  0
  2  9  1  0  0  0  0
  3 19  1  0  0  0  0
  3  2  2  0  0  0  0
  4  3  1  0  0  0  0
  5  4  2  0  0  0  0
  6  4  1  0  0  0  0
  6  7  1  0  0  0  0
  7  1  1  0  0  0  0
  8  7  2  0  0  0  0
 10 15  1  0  0  0  0
 10 16  1  0  0  0  0
 11 10  2  0  0  0  0
 12 13  2  0  0  0  0
 12 11  1  0  0  0  0
 13 14  1  0  0  0  0
 14 18  1  0  0  0  0
 14 15  2  0  0  0  0
 17 11  1  0  0  0  0
 19 20  1  0  0  0  0
 20 21  2  0  0  0  0
 20 25  1  0  0  0  0
 21 26  1  0  0  0  0
 22 27  1  0  0  0  0
 22 21  1  0  0  0  0
 23 22  2  0  0  0  0
 24 23  1  0  0  0  0
 24 19  2  0  0  0  0
 28 35  1  0  0  0  0
 28 23  1  0  0  0  0
 29 28  2  0  0  0  0
 30 29  1  0  0  0  0
 31 29  1  0  0  0  0
 31 33  2  0  0  0  0
 32 31  1  0  0  0  0
 33 35  1  0  0  0  0
 34 33  1  0  0  0  0
 36 39  1  0  0  0  0
 36  6  1  0  0  0  0
 37 36  1  0  0  0  0
 38 36  1  0  0  0  0
M  END
>  <minimizedAffinity>
-6.06979895

$$$$

 OpenBabel03272505333D

 39 42  0  0  0  0  0  0  0  0999 V2000
   37.4850   26.5340   34.2780 N   0  0  0  0  0  0  0  0  0  0  0  0
   36.9080   27.5830   34.9190 C   0  0  0  0  0  0  0  0  0  0  0  0
   36.1610   28.5360   34.2380 C   0  0  0  0  0  0  0  0  0  0  0  0
   36.0180   28.3820   32.8520 C   0  0  0  0  0  0  0  0  0  0  0  0
   35.3570   29.2100   32.2010 O   0  0  0  0  0  0  0  0  0  0  0  0
   36.6050   27.3140   32.2070 N   0  0  0  0  0  0  0  0  0  0  0  0
   37.2930   26.4740   32.9740 C   0  0  0  0  0  0  0  0  0  0  0  0
   37.8100   25.5180   32.3500 O   0  0  0  0  0  0  0  0  0  0  0  0
   37.0310   27.6850   35.9910 H   0  0  0  0  0  0  0  0  0  0  0  0
   38.4690   23.8560   36.6650 C   0  0  0  0  0  0  0  0  0  0  0  0
   37.7040   24.8140   35.9830 C   0  0  0  0  0  0  0  0  0  0  0  0
   38.2370   25.5750   34.9670 C   0  0  0  0  0  0  0  0  0  0  0  0
   39.5400   25.3600   34.6520 N   0  0  0  0  0  0  0  0  0  0  0  0
   40.3020   24.4350   35.3010 C   0  0  0  0  0  0  0  0  0  0  0  0
   39.7500   23.6940   36.3030 N   0  0  0  0  0  0  0  0  0  0  0  0
   37.9990   23.2980   37.4440 H   0  0  0  0  0  0  0  0  0  0  0  0
   36.6800   24.9340   36.2820 H   0  0  0  0  0  0  0  0  0  0  0  0
   41.3270   24.3450   34.9700 H   0  0  0  0  0  0  0  0  0  0  0  0
   35.5280   29.6700   34.8750 C   0  0  0  0  0  0  0  0  0  0  0  0
   36.2340   30.7180   35.4300 C   0  0  0  0  0  0  0  0  0  0  0  0
   35.6670   31.8070   36.0400 C   0  0  0  0  0  0  0  0  0  0  0  0
   34.2810   31.8780   36.1150 C   0  0  0  0  0  0  0  0  0  0  0  0
   33.6020   30.8020   35.5430 C   0  0  0  0  0  0  0  0  0  0  0  0
   34.1980   29.7720   34.9640 N   0  0  0  0  0  0  0  0  0  0  0  0
   37.3160   30.6960   35.3900 H   0  0  0  0  0  0  0  0  0  0  0  0
   36.2350   32.6210   36.4710 H   0  0  0  0  0  0  0  0  0  0  0  0
   33.7740   32.7080   36.5810 H   0  0  0  0  0  0  0  0  0  0  0  0
   32.1460   30.8840   35.6260 C   0  0  0  0  0  0  0  0  0  0  0  0
   31.4190   31.4640   36.6500 C   0  0  0  0  0  0  0  0  0  0  0  0
   31.7820   31.9510   37.5570 H   0  0  0  0  0  0  0  0  0  0  0  0
   30.0720   31.3450   36.3720 C   0  0  0  0  0  0  0  0  0  0  0  0
   29.1720   31.6530   36.8930 H   0  0  0  0  0  0  0  0  0  0  0  0
   30.0450   30.6730   35.1460 C   0  0  0  0  0  0  0  0  0  0  0  0
   29.1650   30.3880   34.5860 H   0  0  0  0  0  0  0  0  0  0  0  0
   31.2760   30.4290   34.7570 O   0  0  0  0  0  0  0  0  0  0  0  0
   36.4500   27.1670   30.7870 C   0  0  0  0  0  0  0  0  0  0  0  0
   36.1550   28.3560   30.2100 F   0  0  0  0  0  0  0  0  0  0  0  0
   35.4330   26.2880   30.4290 F   0  0  0  0  0  0  0  0  0  0  0  0
   37.6620   26.7200   30.2560 F   0  0  0  0  0  0  0  0  0  0  0  0
  1  2  1  0  0  0  0
  1 12  1  0  0  0  0
  2  9  1  0  0  0  0
  3 19  1  0  0  0  0
  3  2  2  0  0  0  0
  4  3  1  0  0  0  0
  5  4  2  0  0  0  0
  6  4  1  0  0  0  0
  6  7  1  0  0  0  0
  7  1  1  0  0  0  0
  8  7  2  0  0  0  0
 10 16  1  0  0  0  0
 11 17  1  0  0  0  0
 11 10  2  0  0  0  0
 12 11  1  0  0  0  0
 13 12  2  0  0  0  0
 13 14  1  0  0  0  0
 14 15  2  0  0  0  0
 15 10  1  0  0  0  0
 18 14  1  0  0  0  0
 19 24  2  0  0  0  0
 19 20  1  0  0  0  0
 20 21  2  0  0  0  0
 21 22  1  0  0  0  0
 21 26  1  0  0  0  0
 22 27  1  0  0  0  0
 23 28  1  0  0  0  0
 23 22  2  0  0  0  0
 24 23  1  0  0  0  0
 25 20  1  0  0  0  0
 28 29  2  0  0  0  0
 29 30  1  0  0  0  0
 31 29  1  0  0  0  0
 31 32  1  0  0  0  0
 33 31  2  0  0  0  0
 34 33  1  0  0  0  0
 35 33  1  0  0  0  0
 35 28  1  0  0  0  0
 36  6  1  0  0  0  0
 37 36  1  0  0  0  0
 38 36  1  0  0  0  0
 39 36  1  0  0  0  0
M  END
>  <minimizedAffinity>
-5.99001122

$$$$

 OpenBabel03272505333D

 39 42  0  0  0  0  0  0  0  0999 V2000
   38.0340   24.6800   34.1710 N   0  0  0  0  0  0  0  0  0  0  0  0
   37.6980   25.9960   34.1750 C   0  0  0  0  0  0  0  0  0  0  0  0
   36.9040   26.5520   33.1790 C   0  0  0  0  0  0  0  0  0  0  0  0
   36.4550   25.7040   32.1570 C   0  0  0  0  0  0  0  0  0  0  0  0
   35.7410   26.1570   31.2440 O   0  0  0  0  0  0  0  0  0  0  0  0
   36.8000   24.3690   32.1600 N   0  0  0  0  0  0  0  0  0  0  0  0
   37.5640   23.9630   33.1690 C   0  0  0  0  0  0  0  0  0  0  0  0
   37.8540   22.7450   33.1340 O   0  0  0  0  0  0  0  0  0  0  0  0
   38.0560   26.6350   34.9740 H   0  0  0  0  0  0  0  0  0  0  0  0
   40.9830   23.4090   36.0490 C   0  0  0  0  0  0  0  0  0  0  0  0
   40.1950   23.9680   35.0320 C   0  0  0  0  0  0  0  0  0  0  0  0
   38.8340   24.1240   35.1760 C   0  0  0  0  0  0  0  0  0  0  0  0
   38.2850   23.7130   36.3480 N   0  0  0  0  0  0  0  0  0  0  0  0
   39.0320   23.1670   37.3490 C   0  0  0  0  0  0  0  0  0  0  0  0
   40.3780   23.0240   37.1820 N   0  0  0  0  0  0  0  0  0  0  0  0
   42.0330   23.3150   35.8770 H   0  0  0  0  0  0  0  0  0  0  0  0
   40.6910   24.2730   34.1310 H   0  0  0  0  0  0  0  0  0  0  0  0
   38.4950   22.8730   38.2390 H   0  0  0  0  0  0  0  0  0  0  0  0
   36.5190   27.9450   33.1380 C   0  0  0  0  0  0  0  0  0  0  0  0
   35.8650   28.5790   34.1750 C   0  0  0  0  0  0  0  0  0  0  0  0
   35.4850   29.8980   34.1700 C   0  0  0  0  0  0  0  0  0  0  0  0
   35.7720   30.6660   33.0470 C   0  0  0  0  0  0  0  0  0  0  0  0
   36.4330   29.9910   32.0220 C   0  0  0  0  0  0  0  0  0  0  0  0
   36.7780   28.7130   32.0760 N   0  0  0  0  0  0  0  0  0  0  0  0
   35.6250   28.0120   35.0650 H   0  0  0  0  0  0  0  0  0  0  0  0
   34.9730   30.3810   34.9910 H   0  0  0  0  0  0  0  0  0  0  0  0
   35.5000   31.7070   32.9820 H   0  0  0  0  0  0  0  0  0  0  0  0
   36.7300   30.8040   30.8450 C   0  0  0  0  0  0  0  0  0  0  0  0
   37.0070   32.1600   30.8410 C   0  0  0  0  0  0  0  0  0  0  0  0
   37.0530   32.8520   31.6830 H   0  0  0  0  0  0  0  0  0  0  0  0
   37.2350   32.5700   29.5430 C   0  0  0  0  0  0  0  0  0  0  0  0
   37.4810   33.5260   29.0940 H   0  0  0  0  0  0  0  0  0  0  0  0
   37.0810   31.3990   28.7930 C   0  0  0  0  0  0  0  0  0  0  0  0
   37.1810   31.3010   27.7210 H   0  0  0  0  0  0  0  0  0  0  0  0
   36.7880   30.4030   29.5990 O   0  0  0  0  0  0  0  0  0  0  0  0
   36.3330   23.5100   31.1060 C   0  0  0  0  0  0  0  0  0  0  0  0
   36.0210   22.2840   31.5890 F   0  0  0  0  0  0  0  0  0  0  0  0
   37.2700   23.3140   30.0970 F   0  0  0  0  0  0  0  0  0  0  0  0
   35.1730   24.0680   30.5660 F   0  0  0  0  0  0  0  0  0  0  0  0
  1  2  1  0  0  0  0
  1 12  1  0  0  0  0
  2  9  1  0  0  0  0
  3  2  2  0  0  0  0
  4  6  1  0  0  0  0
  4  3  1  0  0  0  0
  5  4  2  0  0  0  0
  6  7  1  0  0  0  0
  7  1  1  0  0  0  0
  8  7  2  0  0  0  0
 10 15  1  0  0  0  0
 11 12  1  0  0  0  0
 11 10  2  0  0  0  0
 12 13  2  0  0  0  0
 13 14  1  0  0  0  0
 14 18  1  0  0  0  0
 15 14  2  0  0  0  0
 16 10  1  0  0  0  0
 17 11  1  0  0  0  0
 19  3  1  0  0  0  0
 19 20  1  0  0  0  0
 20 25  1  0  0  0  0
 21 20  2  0  0  0  0
 21 26  1  0  0  0  0
 22 21  1  0  0  0  0
 23 24  1  0  0  0  0
 23 22  2  0  0  0  0
 24 19  2  0  0  0  0
 27 22  1  0  0  0  0
 28 23  1  0  0  0  0
 29 28  2  0  0  0  0
 29 30  1  0  0  0  0
 31 29  1  0  0  0  0
 32 31  1  0  0  0  0
 33 31  2  0  0  0  0
 33 35  1  0  0  0  0
 34 33  1  0  0  0  0
 35 28  1  0  0  0  0
 36 37  1  0  0  0  0
 36  6  1  0  0  0  0
 38 36  1  0  0  0  0
 39 36  1  0  0  0  0
M  END
>  <minimizedAffinity>
-5.88714075

$$$$
