
 OpenBabel03262522523D

 32 35  0  0  0  0  0  0  0  0999 V2000
   36.0310   30.1350   48.7870 C   0  0  0  0  0  0  0  0  0  0  0  0
   35.9840   29.1040   49.6280 C   0  0  0  0  0  0  0  0  0  0  0  0
   34.8960   28.2580   49.5940 C   0  0  0  0  0  0  0  0  0  0  0  0
   33.9330   28.5540   48.6780 C   0  0  0  0  0  0  0  0  0  0  0  0
   34.5860   30.0440   47.8650 S   0  0  0  0  0  0  0  0  0  0  0  0
   36.8140   28.9420   50.3400 H   0  0  0  0  0  0  0  0  0  0  0  0
   34.7640   27.3910   50.2390 H   0  0  0  0  0  0  0  0  0  0  0  0
   38.0190   33.1220   49.4290 C   0  0  0  0  0  0  0  0  0  0  0  0
   38.9780   33.1020   48.4000 C   0  0  0  0  0  0  0  0  0  0  0  0
   38.9340   32.0380   47.4710 C   0  0  0  0  0  0  0  0  0  0  0  0
   37.9630   31.0880   47.6230 N   0  0  0  0  0  0  0  0  0  0  0  0
   37.0730   31.1660   48.6320 C   0  0  0  0  0  0  0  0  0  0  0  0
   37.0730   32.1540   49.5390 N   0  0  0  0  0  0  0  0  0  0  0  0
   38.0610   33.9300   50.1250 H   0  0  0  0  0  0  0  0  0  0  0  0
   39.7340   33.8690   48.3070 H   0  0  0  0  0  0  0  0  0  0  0  0
   39.6500   31.9950   46.6780 H   0  0  0  0  0  0  0  0  0  0  0  0
   32.6760   27.8510   48.4040 C   0  0  0  0  0  0  0  0  0  0  0  0
   32.5880   27.0530   47.3050 C   0  0  0  0  0  0  0  0  0  0  0  0
   31.3830   26.4160   47.0980 C   0  0  0  0  0  0  0  0  0  0  0  0
   30.3300   26.5650   47.9370 N   0  0  0  0  0  0  0  0  0  0  0  0
   30.5280   27.3830   48.9990 C   0  0  0  0  0  0  0  0  0  0  0  0
   31.6740   28.0410   49.2700 N   0  0  0  0  0  0  0  0  0  0  0  0
   33.4180   26.9180   46.6230 H   0  0  0  0  0  0  0  0  0  0  0  0
   31.2780   25.7740   46.2360 H   0  0  0  0  0  0  0  0  0  0  0  0
   29.3720   27.5250   49.8850 C   0  0  0  0  0  0  0  0  0  0  0  0
   28.4230   28.5200   49.7690 C   0  0  0  0  0  0  0  0  0  0  0  0
   28.3520   29.3190   49.0660 H   0  0  0  0  0  0  0  0  0  0  0  0
   27.5040   28.3130   50.7780 C   0  0  0  0  0  0  0  0  0  0  0  0
   26.6180   28.8190   51.0750 H   0  0  0  0  0  0  0  0  0  0  0  0
   27.9270   27.1940   51.4770 C   0  0  0  0  0  0  0  0  0  0  0  0
   27.4860   26.6940   52.3470 H   0  0  0  0  0  0  0  0  0  0  0  0
   29.0310   26.7770   50.9030 O   0  0  0  0  0  0  0  0  0  0  0  0
  1  2  2  0  0  0  0
  2  6  1  0  0  0  0
  3  2  1  0  0  0  0
  3  7  1  0  0  0  0
  4  3  2  0  0  0  0
  5  4  1  0  0  0  0
  5  1  1  0  0  0  0
  8 13  1  0  0  0  0
  8 14  1  0  0  0  0
  9  8  2  0  0  0  0
 10 11  2  0  0  0  0
 10  9  1  0  0  0  0
 11 12  1  0  0  0  0
 12  1  1  0  0  0  0
 12 13  2  0  0  0  0
 15  9  1  0  0  0  0
 16 10  1  0  0  0  0
 17  4  1  0  0  0  0
 17 22  1  0  0  0  0
 18 17  2  0  0  0  0
 19 18  1  0  0  0  0
 19 20  2  0  0  0  0
 20 21  1  0  0  0  0
 21 22  2  0  0  0  0
 21 25  1  0  0  0  0
 23 18  1  0  0  0  0
 24 19  1  0  0  0  0
 25 32  1  0  0  0  0
 26 25  2  0  0  0  0
 26 28  1  0  0  0  0
 27 26  1  0  0  0  0
 28 29  1  0  0  0  0
 28 30  2  0  0  0  0
 30 31  1  0  0  0  0
 32 30  1  0  0  0  0
M  END
>  <minimizedAffinity>
-6.8268404

>  <minimizedRMSD>
0.850333095

$$$$
