
 OpenBabel03272510213D

 35 38  0  0  0  0  0  0  0  0999 V2000
   37.2950   29.3950   51.1040 Br  0  0  0  0  0  0  0  0  0  0  0  0
   35.9490   29.3140   49.7420 C   0  0  0  0  0  0  0  0  0  0  0  0
   35.9900   30.1810   48.6620 C   0  0  0  0  0  0  0  0  0  0  0  0
   34.9910   30.0750   47.7120 C   0  0  0  0  0  0  0  0  0  0  0  0
   33.9680   29.1360   47.8160 C   0  0  0  0  0  0  0  0  0  0  0  0
   33.9570   28.3010   48.8890 C   0  0  0  0  0  0  0  0  0  0  0  0
   34.9490   28.3980   49.8430 C   0  0  0  0  0  0  0  0  0  0  0  0
   34.9580   30.7150   46.8440 H   0  0  0  0  0  0  0  0  0  0  0  0
   33.1780   27.5790   48.9780 H   0  0  0  0  0  0  0  0  0  0  0  0
   34.8870   27.7080   50.6740 H   0  0  0  0  0  0  0  0  0  0  0  0
   37.9930   33.1530   49.3670 C   0  0  0  0  0  0  0  0  0  0  0  0
   39.0040   33.1060   48.3720 C   0  0  0  0  0  0  0  0  0  0  0  0
   38.9870   32.0490   47.4660 C   0  0  0  0  0  0  0  0  0  0  0  0
   37.9970   31.1000   47.5710 N   0  0  0  0  0  0  0  0  0  0  0  0
   37.0510   31.1740   48.5270 C   0  0  0  0  0  0  0  0  0  0  0  0
   37.0540   32.2030   49.4220 N   0  0  0  0  0  0  0  0  0  0  0  0
   38.0490   33.9880   50.0450 H   0  0  0  0  0  0  0  0  0  0  0  0
   39.7560   33.8710   48.3310 H   0  0  0  0  0  0  0  0  0  0  0  0
   39.7250   31.9660   46.6980 H   0  0  0  0  0  0  0  0  0  0  0  0
   32.9090   29.0210   46.8120 C   0  0  0  0  0  0  0  0  0  0  0  0
   32.3250   27.8300   46.4250 C   0  0  0  0  0  0  0  0  0  0  0  0
   31.3240   27.7780   45.4670 C   0  0  0  0  0  0  0  0  0  0  0  0
   30.8950   28.8960   44.8900 N   0  0  0  0  0  0  0  0  0  0  0  0
   31.4550   30.0630   45.2580 C   0  0  0  0  0  0  0  0  0  0  0  0
   32.4220   30.1110   46.1820 N   0  0  0  0  0  0  0  0  0  0  0  0
   32.6810   26.9230   46.9010 H   0  0  0  0  0  0  0  0  0  0  0  0
   30.9040   26.8160   45.2040 H   0  0  0  0  0  0  0  0  0  0  0  0
   31.1020   31.3780   44.7250 C   0  0  0  0  0  0  0  0  0  0  0  0
   31.8440   32.5000   45.1140 C   0  0  0  0  0  0  0  0  0  0  0  0
   32.6870   32.5530   45.7880 H   0  0  0  0  0  0  0  0  0  0  0  0
   31.3040   33.6120   44.4660 C   0  0  0  0  0  0  0  0  0  0  0  0
   31.6850   34.6190   44.5860 H   0  0  0  0  0  0  0  0  0  0  0  0
   30.2500   33.0800   43.7120 C   0  0  0  0  0  0  0  0  0  0  0  0
   29.6220   33.7010   43.0860 H   0  0  0  0  0  0  0  0  0  0  0  0
   30.1770   31.8000   43.8940 O   0  0  0  0  0  0  0  0  0  0  0  0
  2  7  1  0  0  0  0
  2  1  1  0  0  0  0
  3  2  2  0  0  0  0
  4  5  2  0  0  0  0
  4  3  1  0  0  0  0
  5  6  1  0  0  0  0
  6  9  1  0  0  0  0
  6  7  2  0  0  0  0
  7 10  1  0  0  0  0
  8  4  1  0  0  0  0
 11 16  1  0  0  0  0
 11 17  1  0  0  0  0
 12 11  2  0  0  0  0
 13 14  2  0  0  0  0
 13 12  1  0  0  0  0
 14 15  1  0  0  0  0
 15  3  1  0  0  0  0
 15 16  2  0  0  0  0
 18 12  1  0  0  0  0
 19 13  1  0  0  0  0
 20  5  1  0  0  0  0
 21 20  1  0  0  0  0
 21 26  1  0  0  0  0
 22 21  2  0  0  0  0
 23 24  2  0  0  0  0
 23 22  1  0  0  0  0
 24 25  1  0  0  0  0
 25 20  2  0  0  0  0
 27 22  1  0  0  0  0
 28 29  2  0  0  0  0
 28 24  1  0  0  0  0
 29 30  1  0  0  0  0
 31 32  1  0  0  0  0
 31 29  1  0  0  0  0
 33 35  1  0  0  0  0
 33 31  2  0  0  0  0
 34 33  1  0  0  0  0
 35 28  1  0  0  0  0
M  END
>  <minimizedAffinity>
-6.37088966

>  <minimizedRMSD>
0.22423479

$$$$
