
 OpenBabel03272508123D

 33 35  0  0  0  0  0  0  0  0999 V2000
   36.6230   29.4880   44.0470 Cl  0  0  0  0  0  0  0  0  0  0  0  0
   38.2650   29.8620   43.4930 C   0  0  0  0  0  0  0  0  0  0  0  0
   39.2860   30.3320   44.3180 C   0  0  0  0  0  0  0  0  0  0  0  0
   40.5220   30.5850   43.7470 C   0  0  0  0  0  0  0  0  0  0  0  0
   40.7250   30.3760   42.4070 C   0  0  0  0  0  0  0  0  0  0  0  0
   39.7470   29.9190   41.5870 C   0  0  0  0  0  0  0  0  0  0  0  0
   38.5070   29.6580   42.1210 C   0  0  0  0  0  0  0  0  0  0  0  0
   41.2330   30.9450   44.4800 H   0  0  0  0  0  0  0  0  0  0  0  0
   41.7170   30.5980   42.0420 H   0  0  0  0  0  0  0  0  0  0  0  0
   39.9160   29.7570   40.5290 H   0  0  0  0  0  0  0  0  0  0  0  0
   37.4330   29.1640   41.2600 C   0  0  0  0  0  0  0  0  0  0  0  0
   36.6110   29.9470   40.4800 C   0  0  0  0  0  0  0  0  0  0  0  0
   36.5870   31.0120   40.3520 H   0  0  0  0  0  0  0  0  0  0  0  0
   35.7220   29.1120   39.8130 C   0  0  0  0  0  0  0  0  0  0  0  0
   34.9200   29.2680   39.1170 H   0  0  0  0  0  0  0  0  0  0  0  0
   36.0680   27.8250   40.2390 C   0  0  0  0  0  0  0  0  0  0  0  0
   35.5980   26.8940   39.9370 H   0  0  0  0  0  0  0  0  0  0  0  0
   37.0710   27.9170   41.0820 O   0  0  0  0  0  0  0  0  0  0  0  0
   38.8660   30.4680   45.6130 O   0  0  0  0  0  0  0  0  0  0  0  0
   39.4550   32.4840   47.1190 O   0  0  0  0  0  0  0  0  0  0  0  0
   38.3130   31.8240   46.4130 P   0  0  1  0  0  0  0  0  0  0  0  0
   37.7330   32.8580   45.1780 O   0  0  0  0  0  0  0  0  0  0  0  0
   38.3660   33.6140   45.0650 H   0  0  0  0  0  0  0  0  0  0  0  0
   37.0330   31.4030   47.4400 O   0  0  0  0  0  0  0  0  0  0  0  0
   37.6130   30.5340   50.9780 C   0  0  0  0  0  0  0  0  0  0  0  0
   37.7030   31.2980   49.8120 C   0  0  0  0  0  0  0  0  0  0  0  0
   37.0750   30.8360   48.6600 C   0  0  0  0  0  0  0  0  0  0  0  0
   36.3970   29.6510   48.7340 N   0  0  0  0  0  0  0  0  0  0  0  0
   36.3300   28.9380   49.8790 C   0  0  0  0  0  0  0  0  0  0  0  0
   36.9340   29.3770   50.9930 N   0  0  0  0  0  0  0  0  0  0  0  0
   38.1270   30.9560   51.8330 H   0  0  0  0  0  0  0  0  0  0  0  0
   38.2090   32.2230   49.6770 H   0  0  0  0  0  0  0  0  0  0  0  0
   35.7840   27.9920   49.9230 H   0  0  0  0  0  0  0  0  0  0  0  0
  2  1  1  0  0  0  0
  2  3  1  0  0  0  0
  3 19  1  0  0  0  0
  4  3  2  0  0  0  0
  4  8  1  0  0  0  0
  5  4  1  0  0  0  0
  6  7  1  0  0  0  0
  6  5  2  0  0  0  0
  7  2  2  0  0  0  0
  9  5  1  0  0  0  0
 10  6  1  0  0  0  0
 11  7  1  0  0  0  0
 12 11  2  0  0  0  0
 13 12  1  0  0  0  0
 14 16  2  0  0  0  0
 14 12  1  0  0  0  0
 15 14  1  0  0  0  0
 16 18  1  0  0  0  0
 17 16  1  0  0  0  0
 18 11  1  0  0  0  0
 19 21  1  0  0  0  0
 21 20  2  1  0  0  0
 21 24  1  0  0  0  0
 22 21  1  0  0  0  0
 23 22  1  0  0  0  0
 24 27  1  0  0  0  0
 25 30  1  0  0  0  0
 25 31  1  0  0  0  0
 26 25  2  0  0  0  0
 27 28  2  0  0  0  0
 27 26  1  0  0  0  0
 28 29  1  0  0  0  0
 29 33  1  0  0  0  0
 29 30  2  0  0  0  0
 32 26  1  0  0  0  0
M  END
>  <minimizedAffinity>
-4.79330444

>  <minimizedRMSD>
0.160037324

$$$$
