
 OpenBabel03272500093D

 38 41  0  0  0  0  0  0  0  0999 V2000
   37.9320   23.9860   33.3510 C   0  0  0  0  0  0  0  0  0  0  0  0
   38.4380   24.5560   34.5290 C   0  0  0  0  0  0  0  0  0  0  0  0
   38.0730   25.8670   34.8210 C   0  0  0  0  0  0  0  0  0  0  0  0
   37.2540   26.5270   33.9650 N   0  0  0  0  0  0  0  0  0  0  0  0
   36.7880   25.9580   32.8510 C   0  0  0  0  0  0  0  0  0  0  0  0
   37.1200   24.6640   32.5180 N   0  0  0  0  0  0  0  0  0  0  0  0
   38.1810   22.9730   33.0720 H   0  0  0  0  0  0  0  0  0  0  0  0
   38.4610   26.2980   35.7190 H   0  0  0  0  0  0  0  0  0  0  0  0
   39.2890   23.7660   35.3470 N   0  0  0  0  0  0  0  0  0  0  0  0
   40.6170   23.7500   35.1860 C   0  0  0  0  0  0  0  0  0  0  0  0
   41.3970   22.9570   36.0180 C   0  0  0  0  0  0  0  0  0  0  0  0
   40.7220   22.2430   36.9540 C   0  0  0  0  0  0  0  0  0  0  0  0
   41.4130   21.5130   37.7240 O   0  0  0  0  0  0  0  0  0  0  0  0
   39.4170   22.2330   37.1440 N   0  0  0  0  0  0  0  0  0  0  0  0
   38.6680   23.0240   36.3090 C   0  0  0  0  0  0  0  0  0  0  0  0
   37.4180   23.0280   36.4750 O   0  0  0  0  0  0  0  0  0  0  0  0
   41.0940   24.3560   34.4040 H   0  0  0  0  0  0  0  0  0  0  0  0
   42.4840   22.9170   35.9180 H   0  0  0  0  0  0  0  0  0  0  0  0
   38.9330   21.6800   37.8650 H   0  0  0  0  0  0  0  0  0  0  0  0
   35.9430   26.6350   31.9650 O   0  0  0  0  0  0  0  0  0  0  0  0
   36.4830   27.7700   31.3720 C   0  0  0  0  0  0  0  0  0  0  0  0
   37.4560   27.4960   30.4280 C   0  0  0  0  0  0  0  0  0  0  0  0
   38.0850   28.5260   29.7530 C   0  0  0  0  0  0  0  0  0  0  0  0
   37.7180   29.8490   30.0420 C   0  0  0  0  0  0  0  0  0  0  0  0
   36.7510   30.0990   30.9820 C   0  0  0  0  0  0  0  0  0  0  0  0
   36.1420   29.0770   31.6350 C   0  0  0  0  0  0  0  0  0  0  0  0
   37.7740   26.4940   30.1690 H   0  0  0  0  0  0  0  0  0  0  0  0
   38.8430   28.3110   29.0180 H   0  0  0  0  0  0  0  0  0  0  0  0
   38.1880   30.6870   29.5350 H   0  0  0  0  0  0  0  0  0  0  0  0
   36.4800   31.1260   31.1930 H   0  0  0  0  0  0  0  0  0  0  0  0
   35.1180   29.2940   32.6320 C   0  0  0  0  0  0  0  0  0  0  0  0
   35.3700   29.6560   33.9520 C   0  0  0  0  0  0  0  0  0  0  0  0
   36.3470   29.8210   34.4060 H   0  0  0  0  0  0  0  0  0  0  0  0
   34.1640   29.7750   34.6120 C   0  0  0  0  0  0  0  0  0  0  0  0
   33.9390   30.0320   35.6200 H   0  0  0  0  0  0  0  0  0  0  0  0
   33.2200   29.4830   33.6750 C   0  0  0  0  0  0  0  0  0  0  0  0
   32.1420   29.4370   33.6870 H   0  0  0  0  0  0  0  0  0  0  0  0
   33.8330   29.2150   32.5580 O   0  0  0  0  0  0  0  0  0  0  0  0
  1  2  1  0  0  0  0
  2  3  2  0  0  0  0
  2  9  1  0  0  0  0
  3  8  1  0  0  0  0
  4  3  1  0  0  0  0
  5  4  2  0  0  0  0
  6  5  1  0  0  0  0
  6  1  2  0  0  0  0
  7  1  1  0  0  0  0
  9 15  1  0  0  0  0
 10  9  1  0  0  0  0
 10 11  2  0  0  0  0
 11 12  1  0  0  0  0
 12 14  1  0  0  0  0
 12 13  2  0  0  0  0
 14 19  1  0  0  0  0
 15 16  2  0  0  0  0
 15 14  1  0  0  0  0
 17 10  1  0  0  0  0
 18 11  1  0  0  0  0
 20  5  1  0  0  0  0
 21 26  1  0  0  0  0
 21 20  1  0  0  0  0
 22 21  2  0  0  0  0
 23 24  2  0  0  0  0
 23 22  1  0  0  0  0
 24 25  1  0  0  0  0
 25 30  1  0  0  0  0
 25 26  2  0  0  0  0
 26 31  1  0  0  0  0
 27 22  1  0  0  0  0
 28 23  1  0  0  0  0
 29 24  1  0  0  0  0
 31 32  2  0  0  0  0
 32 33  1  0  0  0  0
 32 34  1  0  0  0  0
 34 35  1  0  0  0  0
 36 37  1  0  0  0  0
 36 34  2  0  0  0  0
 38 31  1  0  0  0  0
 38 36  1  0  0  0  0
M  END
>  <minimizedAffinity>
-5.83169079

$$$$

 OpenBabel03272500093D

 38 41  0  0  0  0  0  0  0  0999 V2000
   38.0550   26.7660   33.6050 C   0  0  0  0  0  0  0  0  0  0  0  0
   36.9800   27.0710   32.7560 C   0  0  0  0  0  0  0  0  0  0  0  0
   36.3820   26.0200   32.0680 C   0  0  0  0  0  0  0  0  0  0  0  0
   36.8580   24.7630   32.2470 N   0  0  0  0  0  0  0  0  0  0  0  0
   37.8820   24.5030   33.0620 C   0  0  0  0  0  0  0  0  0  0  0  0
   38.5080   25.5080   33.7640 N   0  0  0  0  0  0  0  0  0  0  0  0
   38.5590   27.5400   34.1640 H   0  0  0  0  0  0  0  0  0  0  0  0
   35.5620   26.2560   31.4230 H   0  0  0  0  0  0  0  0  0  0  0  0
   36.5700   28.4270   32.6500 N   0  0  0  0  0  0  0  0  0  0  0  0
   35.8380   29.0250   33.5970 C   0  0  0  0  0  0  0  0  0  0  0  0
   35.4680   30.3540   33.4390 C   0  0  0  0  0  0  0  0  0  0  0  0
   35.8960   30.9510   32.2980 C   0  0  0  0  0  0  0  0  0  0  0  0
   35.5700   32.1640   32.1310 O   0  0  0  0  0  0  0  0  0  0  0  0
   36.6180   30.3970   31.3430 N   0  0  0  0  0  0  0  0  0  0  0  0
   36.9700   29.0830   31.5240 C   0  0  0  0  0  0  0  0  0  0  0  0
   37.6600   28.5360   30.6220 O   0  0  0  0  0  0  0  0  0  0  0  0
   35.5290   28.4750   34.4970 H   0  0  0  0  0  0  0  0  0  0  0  0
   34.8710   30.8770   34.1890 H   0  0  0  0  0  0  0  0  0  0  0  0
   36.9270   30.8790   30.4880 H   0  0  0  0  0  0  0  0  0  0  0  0
   38.3770   23.2070   33.2490 O   0  0  0  0  0  0  0  0  0  0  0  0
   37.4370   22.2570   33.6310 C   0  0  0  0  0  0  0  0  0  0  0  0
   36.6950   21.7520   32.5800 C   0  0  0  0  0  0  0  0  0  0  0  0
   35.7210   20.7970   32.8050 C   0  0  0  0  0  0  0  0  0  0  0  0
   35.5000   20.3520   34.1190 C   0  0  0  0  0  0  0  0  0  0  0  0
   36.2470   20.8660   35.1480 C   0  0  0  0  0  0  0  0  0  0  0  0
   37.2000   21.8020   34.9090 C   0  0  0  0  0  0  0  0  0  0  0  0
   36.8260   22.0620   31.5510 H   0  0  0  0  0  0  0  0  0  0  0  0
   35.1430   20.4050   31.9850 H   0  0  0  0  0  0  0  0  0  0  0  0
   34.7450   19.6040   34.3390 H   0  0  0  0  0  0  0  0  0  0  0  0
   36.0630   20.5110   36.1540 H   0  0  0  0  0  0  0  0  0  0  0  0
   38.0100   22.3710   35.9620 C   0  0  0  0  0  0  0  0  0  0  0  0
   37.5510   23.2940   36.8960 C   0  0  0  0  0  0  0  0  0  0  0  0
   36.5440   23.7070   36.9620 H   0  0  0  0  0  0  0  0  0  0  0  0
   38.5900   23.6150   37.7450 C   0  0  0  0  0  0  0  0  0  0  0  0
   38.6370   24.2750   38.5780 H   0  0  0  0  0  0  0  0  0  0  0  0
   39.6450   22.8770   37.3030 C   0  0  0  0  0  0  0  0  0  0  0  0
   40.6710   22.7710   37.6210 H   0  0  0  0  0  0  0  0  0  0  0  0
   39.2470   22.1840   36.2750 O   0  0  0  0  0  0  0  0  0  0  0  0
  1  6  1  0  0  0  0
  1  7  1  0  0  0  0
  2  1  2  0  0  0  0
  3  4  2  0  0  0  0
  3  2  1  0  0  0  0
  4  5  1  0  0  0  0
  5 20  1  0  0  0  0
  5  6  2  0  0  0  0
  8  3  1  0  0  0  0
  9  2  1  0  0  0  0
  9 10  1  0  0  0  0
 10 17  1  0  0  0  0
 11 10  2  0  0  0  0
 11 18  1  0  0  0  0
 12 11  1  0  0  0  0
 13 12  2  0  0  0  0
 14 15  1  0  0  0  0
 14 12  1  0  0  0  0
 15  9  1  0  0  0  0
 16 15  2  0  0  0  0
 19 14  1  0  0  0  0
 20 21  1  0  0  0  0
 21 26  1  0  0  0  0
 22 23  1  0  0  0  0
 22 21  2  0  0  0  0
 23 24  2  0  0  0  0
 24 29  1  0  0  0  0
 24 25  1  0  0  0  0
 25 30  1  0  0  0  0
 26 25  2  0  0  0  0
 26 31  1  0  0  0  0
 27 22  1  0  0  0  0
 28 23  1  0  0  0  0
 31 38  1  0  0  0  0
 31 32  2  0  0  0  0
 32 33  1  0  0  0  0
 32 34  1  0  0  0  0
 34 35  1  0  0  0  0
 36 37  1  0  0  0  0
 36 34  2  0  0  0  0
 38 36  1  0  0  0  0
M  END
>  <minimizedAffinity>
-5.73902512

$$$$

 OpenBabel03272500093D

 38 41  0  0  0  0  0  0  0  0999 V2000
   36.0950   24.2420   31.3940 C   0  0  0  0  0  0  0  0  0  0  0  0
   36.9620   23.2780   31.9320 C   0  0  0  0  0  0  0  0  0  0  0  0
   38.1690   23.7190   32.4640 C   0  0  0  0  0  0  0  0  0  0  0  0
   38.4520   25.0450   32.4410 N   0  0  0  0  0  0  0  0  0  0  0  0
   37.6070   25.9390   31.9230 C   0  0  0  0  0  0  0  0  0  0  0  0
   36.4010   25.5540   31.3840 N   0  0  0  0  0  0  0  0  0  0  0  0
   35.1460   23.9590   30.9670 H   0  0  0  0  0  0  0  0  0  0  0  0
   38.8270   22.9810   32.8730 H   0  0  0  0  0  0  0  0  0  0  0  0
   36.5560   21.9160   31.8990 N   0  0  0  0  0  0  0  0  0  0  0  0
   35.5980   21.4400   32.7030 C   0  0  0  0  0  0  0  0  0  0  0  0
   35.2440   20.1000   32.6260 C   0  0  0  0  0  0  0  0  0  0  0  0
   35.9230   19.3640   31.7100 C   0  0  0  0  0  0  0  0  0  0  0  0
   35.6170   18.1380   31.6210 O   0  0  0  0  0  0  0  0  0  0  0  0
   36.8710   19.7960   30.9010 N   0  0  0  0  0  0  0  0  0  0  0  0
   37.2030   21.1240   30.9980 C   0  0  0  0  0  0  0  0  0  0  0  0
   38.1070   21.5560   30.2330 O   0  0  0  0  0  0  0  0  0  0  0  0
   35.0910   22.0990   33.4220 H   0  0  0  0  0  0  0  0  0  0  0  0
   34.4670   19.6740   33.2650 H   0  0  0  0  0  0  0  0  0  0  0  0
   37.3680   19.2110   30.2150 H   0  0  0  0  0  0  0  0  0  0  0  0
   37.8950   27.3090   31.8960 O   0  0  0  0  0  0  0  0  0  0  0  0
   36.9240   28.1350   32.4510 C   0  0  0  0  0  0  0  0  0  0  0  0
   36.2860   28.9430   31.5280 C   0  0  0  0  0  0  0  0  0  0  0  0
   35.2950   29.8180   31.9310 C   0  0  0  0  0  0  0  0  0  0  0  0
   34.9510   29.8720   33.2910 C   0  0  0  0  0  0  0  0  0  0  0  0
   35.5970   29.0630   34.1900 C   0  0  0  0  0  0  0  0  0  0  0  0
   36.5670   28.2080   33.7780 C   0  0  0  0  0  0  0  0  0  0  0  0
   36.5140   28.9390   30.4700 H   0  0  0  0  0  0  0  0  0  0  0  0
   34.7980   30.4470   31.2110 H   0  0  0  0  0  0  0  0  0  0  0  0
   34.1790   30.5460   33.6500 H   0  0  0  0  0  0  0  0  0  0  0  0
   35.3180   29.1180   35.2360 H   0  0  0  0  0  0  0  0  0  0  0  0
   37.2730   27.3370   34.6910 C   0  0  0  0  0  0  0  0  0  0  0  0
   38.5350   27.6020   35.2130 C   0  0  0  0  0  0  0  0  0  0  0  0
   39.1510   28.4790   35.0110 H   0  0  0  0  0  0  0  0  0  0  0  0
   38.8950   26.5600   36.0430 C   0  0  0  0  0  0  0  0  0  0  0  0
   39.7730   26.3950   36.6190 H   0  0  0  0  0  0  0  0  0  0  0  0
   37.8430   25.6970   35.9990 C   0  0  0  0  0  0  0  0  0  0  0  0
   37.6340   24.7470   36.4660 H   0  0  0  0  0  0  0  0  0  0  0  0
   36.9430   26.2010   35.2050 O   0  0  0  0  0  0  0  0  0  0  0  0
  1  2  1  0  0  0  0
  2  3  2  0  0  0  0
  3  8  1  0  0  0  0
  4  3  1  0  0  0  0
  5  4  2  0  0  0  0
  6  1  2  0  0  0  0
  6  5  1  0  0  0  0
  7  1  1  0  0  0  0
  9  2  1  0  0  0  0
  9 10  1  0  0  0  0
 10 17  1  0  0  0  0
 11 10  2  0  0  0  0
 11 18  1  0  0  0  0
 12 11  1  0  0  0  0
 13 12  2  0  0  0  0
 14 15  1  0  0  0  0
 14 12  1  0  0  0  0
 15  9  1  0  0  0  0
 16 15  2  0  0  0  0
 19 14  1  0  0  0  0
 20  5  1  0  0  0  0
 20 21  1  0  0  0  0
 21 26  1  0  0  0  0
 22 23  1  0  0  0  0
 22 21  2  0  0  0  0
 23 24  2  0  0  0  0
 24 29  1  0  0  0  0
 24 25  1  0  0  0  0
 25 30  1  0  0  0  0
 26 25  2  0  0  0  0
 26 31  1  0  0  0  0
 27 22  1  0  0  0  0
 28 23  1  0  0  0  0
 31 38  1  0  0  0  0
 31 32  2  0  0  0  0
 32 34  1  0  0  0  0
 33 32  1  0  0  0  0
 34 35  1  0  0  0  0
 36 34  2  0  0  0  0
 36 37  1  0  0  0  0
 38 36  1  0  0  0  0
M  END
>  <minimizedAffinity>
-5.68263674

$$$$

 OpenBabel03272500093D

 38 41  0  0  0  0  0  0  0  0999 V2000
   37.1310   25.7160   32.6620 C   0  0  0  0  0  0  0  0  0  0  0  0
   37.6940   26.9860   32.8580 C   0  0  0  0  0  0  0  0  0  0  0  0
   38.8300   27.0740   33.6580 C   0  0  0  0  0  0  0  0  0  0  0  0
   39.3360   25.9410   34.2050 N   0  0  0  0  0  0  0  0  0  0  0  0
   38.7790   24.7460   34.0010 C   0  0  0  0  0  0  0  0  0  0  0  0
   37.6550   24.6070   33.2190 N   0  0  0  0  0  0  0  0  0  0  0  0
   36.2500   25.5870   32.0530 H   0  0  0  0  0  0  0  0  0  0  0  0
   39.2560   28.0440   33.8040 H   0  0  0  0  0  0  0  0  0  0  0  0
   37.0740   28.1010   32.2320 N   0  0  0  0  0  0  0  0  0  0  0  0
   37.3310   28.4380   30.9630 C   0  0  0  0  0  0  0  0  0  0  0  0
   36.6930   29.5380   30.4050 C   0  0  0  0  0  0  0  0  0  0  0  0
   35.8350   30.1980   31.2230 C   0  0  0  0  0  0  0  0  0  0  0  0
   35.2410   31.2050   30.7360 O   0  0  0  0  0  0  0  0  0  0  0  0
   35.5550   29.8970   32.4770 N   0  0  0  0  0  0  0  0  0  0  0  0
   36.1990   28.8060   33.0050 C   0  0  0  0  0  0  0  0  0  0  0  0
   35.9440   28.5020   34.2010 O   0  0  0  0  0  0  0  0  0  0  0  0
   38.0400   27.8530   30.3610 H   0  0  0  0  0  0  0  0  0  0  0  0
   36.8760   29.8450   29.3730 H   0  0  0  0  0  0  0  0  0  0  0  0
   34.8970   30.4180   33.0720 H   0  0  0  0  0  0  0  0  0  0  0  0
   39.2980   23.5750   34.5640 O   0  0  0  0  0  0  0  0  0  0  0  0
   39.1780   23.4710   35.9450 C   0  0  0  0  0  0  0  0  0  0  0  0
   37.9640   23.9130   36.4350 C   0  0  0  0  0  0  0  0  0  0  0  0
   37.6980   23.8710   37.7910 C   0  0  0  0  0  0  0  0  0  0  0  0
   38.6820   23.3720   38.6580 C   0  0  0  0  0  0  0  0  0  0  0  0
   39.8810   22.9380   38.1520 C   0  0  0  0  0  0  0  0  0  0  0  0
   40.1250   22.9850   36.8180 C   0  0  0  0  0  0  0  0  0  0  0  0
   37.1730   24.3060   35.8080 H   0  0  0  0  0  0  0  0  0  0  0  0
   36.7510   24.2160   38.1710 H   0  0  0  0  0  0  0  0  0  0  0  0
   38.5140   23.3220   39.7300 H   0  0  0  0  0  0  0  0  0  0  0  0
   40.6280   22.5560   38.8360 H   0  0  0  0  0  0  0  0  0  0  0  0
   41.3740   22.5390   36.2420 C   0  0  0  0  0  0  0  0  0  0  0  0
   42.5800   23.2230   36.3530 C   0  0  0  0  0  0  0  0  0  0  0  0
   42.7480   24.1660   36.8740 H   0  0  0  0  0  0  0  0  0  0  0  0
   43.5530   22.5090   35.6840 C   0  0  0  0  0  0  0  0  0  0  0  0
   44.5900   22.7000   35.5420 H   0  0  0  0  0  0  0  0  0  0  0  0
   42.9090   21.4150   35.1910 C   0  0  0  0  0  0  0  0  0  0  0  0
   43.2210   20.5640   34.6050 H   0  0  0  0  0  0  0  0  0  0  0  0
   41.6590   21.4920   35.5460 O   0  0  0  0  0  0  0  0  0  0  0  0
  1  2  2  0  0  0  0
  1  6  1  0  0  0  0
  2  3  1  0  0  0  0
  3  8  1  0  0  0  0
  3  4  2  0  0  0  0
  5  4  1  0  0  0  0
  5 20  1  0  0  0  0
  6  5  2  0  0  0  0
  7  1  1  0  0  0  0
  9  2  1  0  0  0  0
  9 15  1  0  0  0  0
 10  9  1  0  0  0  0
 11 10  2  0  0  0  0
 11 12  1  0  0  0  0
 12 14  1  0  0  0  0
 13 12  2  0  0  0  0
 14 15  1  0  0  0  0
 14 19  1  0  0  0  0
 15 16  2  0  0  0  0
 17 10  1  0  0  0  0
 18 11  1  0  0  0  0
 20 21  1  0  0  0  0
 21 22  2  0  0  0  0
 21 26  1  0  0  0  0
 22 23  1  0  0  0  0
 23 28  1  0  0  0  0
 23 24  2  0  0  0  0
 24 29  1  0  0  0  0
 25 24  1  0  0  0  0
 25 30  1  0  0  0  0
 26 25  2  0  0  0  0
 27 22  1  0  0  0  0
 31 32  2  0  0  0  0
 31 26  1  0  0  0  0
 32 33  1  0  0  0  0
 34 32  1  0  0  0  0
 35 34  1  0  0  0  0
 36 38  1  0  0  0  0
 36 34  2  0  0  0  0
 37 36  1  0  0  0  0
 38 31  1  0  0  0  0
M  END
>  <minimizedAffinity>
-5.67874384

$$$$

 OpenBabel03272500093D

 38 41  0  0  0  0  0  0  0  0999 V2000
   37.2910   26.8430   32.4730 C   0  0  0  0  0  0  0  0  0  0  0  0
   36.1650   27.1080   31.6780 C   0  0  0  0  0  0  0  0  0  0  0  0
   35.6190   26.0490   30.9590 C   0  0  0  0  0  0  0  0  0  0  0  0
   36.1910   24.8240   31.0570 N   0  0  0  0  0  0  0  0  0  0  0  0
   37.2620   24.6020   31.8220 C   0  0  0  0  0  0  0  0  0  0  0  0
   37.8400   25.6160   32.5520 N   0  0  0  0  0  0  0  0  0  0  0  0
   37.7590   27.6250   33.0520 H   0  0  0  0  0  0  0  0  0  0  0  0
   34.7600   26.2550   30.3550 H   0  0  0  0  0  0  0  0  0  0  0  0
   35.6550   28.4330   31.6560 N   0  0  0  0  0  0  0  0  0  0  0  0
   34.7780   28.8730   32.5650 C   0  0  0  0  0  0  0  0  0  0  0  0
   34.3140   30.1810   32.4920 C   0  0  0  0  0  0  0  0  0  0  0  0
   34.8080   30.9230   31.4700 C   0  0  0  0  0  0  0  0  0  0  0  0
   34.3990   32.1190   31.3830 O   0  0  0  0  0  0  0  0  0  0  0  0
   35.6720   30.5260   30.5560 N   0  0  0  0  0  0  0  0  0  0  0  0
   36.1140   29.2310   30.6490 C   0  0  0  0  0  0  0  0  0  0  0  0
   36.9400   28.8330   29.7850 O   0  0  0  0  0  0  0  0  0  0  0  0
   34.4220   28.2120   33.3670 H   0  0  0  0  0  0  0  0  0  0  0  0
   33.5980   30.5770   33.2160 H   0  0  0  0  0  0  0  0  0  0  0  0
   36.0280   31.1160   29.7900 H   0  0  0  0  0  0  0  0  0  0  0  0
   37.8560   23.3390   31.9260 O   0  0  0  0  0  0  0  0  0  0  0  0
   37.0710   22.3550   32.5150 C   0  0  0  0  0  0  0  0  0  0  0  0
   36.1750   21.7610   31.6460 C   0  0  0  0  0  0  0  0  0  0  0  0
   35.3270   20.7630   32.0880 C   0  0  0  0  0  0  0  0  0  0  0  0
   35.3920   20.3660   33.4330 C   0  0  0  0  0  0  0  0  0  0  0  0
   36.2880   20.9680   34.2790 C   0  0  0  0  0  0  0  0  0  0  0  0
   37.1150   21.9460   33.8290 C   0  0  0  0  0  0  0  0  0  0  0  0
   36.0860   22.0310   30.6010 H   0  0  0  0  0  0  0  0  0  0  0  0
   34.6290   20.3020   31.4100 H   0  0  0  0  0  0  0  0  0  0  0  0
   34.7430   19.5870   33.8220 H   0  0  0  0  0  0  0  0  0  0  0  0
   36.3240   20.6490   35.3140 H   0  0  0  0  0  0  0  0  0  0  0  0
   38.0730   22.6070   34.6850 C   0  0  0  0  0  0  0  0  0  0  0  0
   39.3700   22.1540   34.9100 C   0  0  0  0  0  0  0  0  0  0  0  0
   39.8310   21.2630   34.4840 H   0  0  0  0  0  0  0  0  0  0  0  0
   39.9960   23.0280   35.7760 C   0  0  0  0  0  0  0  0  0  0  0  0
   40.9780   23.0270   36.1830 H   0  0  0  0  0  0  0  0  0  0  0  0
   39.0630   23.9810   36.0480 C   0  0  0  0  0  0  0  0  0  0  0  0
   39.0560   24.8700   36.6610 H   0  0  0  0  0  0  0  0  0  0  0  0
   37.9790   23.6820   35.3910 O   0  0  0  0  0  0  0  0  0  0  0  0
  1  6  1  0  0  0  0
  1  7  1  0  0  0  0
  2  1  2  0  0  0  0
  3  4  2  0  0  0  0
  3  2  1  0  0  0  0
  4  5  1  0  0  0  0
  5 20  1  0  0  0  0
  5  6  2  0  0  0  0
  8  3  1  0  0  0  0
  9  2  1  0  0  0  0
  9 10  1  0  0  0  0
 10 17  1  0  0  0  0
 11 10  2  0  0  0  0
 11 18  1  0  0  0  0
 12 11  1  0  0  0  0
 13 12  2  0  0  0  0
 14 15  1  0  0  0  0
 14 12  1  0  0  0  0
 15  9  1  0  0  0  0
 16 15  2  0  0  0  0
 19 14  1  0  0  0  0
 20 21  1  0  0  0  0
 21 26  1  0  0  0  0
 22 23  1  0  0  0  0
 22 21  2  0  0  0  0
 23 24  2  0  0  0  0
 24 29  1  0  0  0  0
 24 25  1  0  0  0  0
 25 30  1  0  0  0  0
 26 25  2  0  0  0  0
 26 31  1  0  0  0  0
 27 22  1  0  0  0  0
 28 23  1  0  0  0  0
 31 32  2  0  0  0  0
 31 38  1  0  0  0  0
 32 34  1  0  0  0  0
 33 32  1  0  0  0  0
 34 36  2  0  0  0  0
 34 35  1  0  0  0  0
 36 37  1  0  0  0  0
 38 36  1  0  0  0  0
M  END
>  <minimizedAffinity>
-5.66096735

$$$$

 OpenBabel03272500093D

 38 41  0  0  0  0  0  0  0  0999 V2000
   38.7690   25.0310   30.8830 C   0  0  0  0  0  0  0  0  0  0  0  0
   38.3170   26.1940   31.5270 C   0  0  0  0  0  0  0  0  0  0  0  0
   38.0910   26.1270   32.8980 C   0  0  0  0  0  0  0  0  0  0  0  0
   38.3150   24.9550   33.5440 N   0  0  0  0  0  0  0  0  0  0  0  0
   38.7450   23.8660   32.9050 C   0  0  0  0  0  0  0  0  0  0  0  0
   38.9820   23.8800   31.5490 N   0  0  0  0  0  0  0  0  0  0  0  0
   38.9600   25.0230   29.8210 H   0  0  0  0  0  0  0  0  0  0  0  0
   37.7480   27.0150   33.3860 H   0  0  0  0  0  0  0  0  0  0  0  0
   38.1190   27.3620   30.7440 N   0  0  0  0  0  0  0  0  0  0  0  0
   39.1410   28.1020   30.2980 C   0  0  0  0  0  0  0  0  0  0  0  0
   38.8840   29.2350   29.5360 C   0  0  0  0  0  0  0  0  0  0  0  0
   37.5750   29.5010   29.3020 C   0  0  0  0  0  0  0  0  0  0  0  0
   37.3160   30.5300   28.6080 O   0  0  0  0  0  0  0  0  0  0  0  0
   36.5410   28.7970   29.7220 N   0  0  0  0  0  0  0  0  0  0  0  0
   36.8210   27.6840   30.4730 C   0  0  0  0  0  0  0  0  0  0  0  0
   35.8470   26.9980   30.8840 O   0  0  0  0  0  0  0  0  0  0  0  0
   40.1780   27.8230   30.5300 H   0  0  0  0  0  0  0  0  0  0  0  0
   39.6910   29.8640   29.1550 H   0  0  0  0  0  0  0  0  0  0  0  0
   35.5570   29.0270   29.5260 H   0  0  0  0  0  0  0  0  0  0  0  0
   38.9770   22.6550   33.5670 O   0  0  0  0  0  0  0  0  0  0  0  0
   37.8390   21.9690   33.9770 C   0  0  0  0  0  0  0  0  0  0  0  0
   37.0970   21.4460   32.9330 C   0  0  0  0  0  0  0  0  0  0  0  0
   35.9380   20.7370   33.1860 C   0  0  0  0  0  0  0  0  0  0  0  0
   35.5290   20.5590   34.5170 C   0  0  0  0  0  0  0  0  0  0  0  0
   36.2790   21.0860   35.5370 C   0  0  0  0  0  0  0  0  0  0  0  0
   37.4150   21.7790   35.2720 C   0  0  0  0  0  0  0  0  0  0  0  0
   37.3700   21.5560   31.8910 H   0  0  0  0  0  0  0  0  0  0  0  0
   35.3610   20.3300   32.3720 H   0  0  0  0  0  0  0  0  0  0  0  0
   34.6240   20.0090   34.7580 H   0  0  0  0  0  0  0  0  0  0  0  0
   35.9480   20.9390   36.5580 H   0  0  0  0  0  0  0  0  0  0  0  0
   38.2350   22.3510   36.3160 C   0  0  0  0  0  0  0  0  0  0  0  0
   37.7880   23.2850   37.2450 C   0  0  0  0  0  0  0  0  0  0  0  0
   36.7830   23.7040   37.3140 H   0  0  0  0  0  0  0  0  0  0  0  0
   38.8350   23.6060   38.0850 C   0  0  0  0  0  0  0  0  0  0  0  0
   38.8910   24.2730   38.9110 H   0  0  0  0  0  0  0  0  0  0  0  0
   39.8830   22.8590   37.6410 C   0  0  0  0  0  0  0  0  0  0  0  0
   40.9100   22.7490   37.9530 H   0  0  0  0  0  0  0  0  0  0  0  0
   39.4740   22.1590   36.6210 O   0  0  0  0  0  0  0  0  0  0  0  0
  1  2  2  0  0  0  0
  1  6  1  0  0  0  0
  2  3  1  0  0  0  0
  3  8  1  0  0  0  0
  3  4  2  0  0  0  0
  5  4  1  0  0  0  0
  5 20  1  0  0  0  0
  6  5  2  0  0  0  0
  7  1  1  0  0  0  0
  9  2  1  0  0  0  0
 10 17  1  0  0  0  0
 10  9  1  0  0  0  0
 11 10  2  0  0  0  0
 12 11  1  0  0  0  0
 12 14  1  0  0  0  0
 13 12  2  0  0  0  0
 14 15  1  0  0  0  0
 15  9  1  0  0  0  0
 15 16  2  0  0  0  0
 18 11  1  0  0  0  0
 19 14  1  0  0  0  0
 20 21  1  0  0  0  0
 21 26  1  0  0  0  0
 22 23  1  0  0  0  0
 22 21  2  0  0  0  0
 23 24  2  0  0  0  0
 24 29  1  0  0  0  0
 24 25  1  0  0  0  0
 25 30  1  0  0  0  0
 26 25  2  0  0  0  0
 26 31  1  0  0  0  0
 27 22  1  0  0  0  0
 28 23  1  0  0  0  0
 31 38  1  0  0  0  0
 31 32  2  0  0  0  0
 32 33  1  0  0  0  0
 32 34  1  0  0  0  0
 34 35  1  0  0  0  0
 36 37  1  0  0  0  0
 36 34  2  0  0  0  0
 38 36  1  0  0  0  0
M  END
>  <minimizedAffinity>
-5.6127677

$$$$

 OpenBabel03272500093D

 38 41  0  0  0  0  0  0  0  0999 V2000
   39.2120   25.5300   33.0580 C   0  0  0  0  0  0  0  0  0  0  0  0
   38.5140   25.2640   31.8710 C   0  0  0  0  0  0  0  0  0  0  0  0
   38.1050   23.9540   31.6410 C   0  0  0  0  0  0  0  0  0  0  0  0
   38.3950   23.0040   32.5640 N   0  0  0  0  0  0  0  0  0  0  0  0
   39.0610   23.2870   33.6850 C   0  0  0  0  0  0  0  0  0  0  0  0
   39.4880   24.5670   33.9580 N   0  0  0  0  0  0  0  0  0  0  0  0
   39.5550   26.5270   33.2900 H   0  0  0  0  0  0  0  0  0  0  0  0
   37.5720   23.7550   30.7350 H   0  0  0  0  0  0  0  0  0  0  0  0
   38.2680   26.3420   30.9790 N   0  0  0  0  0  0  0  0  0  0  0  0
   39.2420   26.8970   30.2480 C   0  0  0  0  0  0  0  0  0  0  0  0
   38.9410   27.9490   29.3920 C   0  0  0  0  0  0  0  0  0  0  0  0
   37.6410   28.3360   29.3710 C   0  0  0  0  0  0  0  0  0  0  0  0
   37.3420   29.2940   28.5980 O   0  0  0  0  0  0  0  0  0  0  0  0
   36.6540   27.8150   30.0750 N   0  0  0  0  0  0  0  0  0  0  0  0
   36.9770   26.7780   30.9130 C   0  0  0  0  0  0  0  0  0  0  0  0
   36.0480   26.2670   31.5940 O   0  0  0  0  0  0  0  0  0  0  0  0
   40.2740   26.5280   30.3180 H   0  0  0  0  0  0  0  0  0  0  0  0
   39.7080   28.4270   28.7790 H   0  0  0  0  0  0  0  0  0  0  0  0
   35.6750   28.1320   30.0360 H   0  0  0  0  0  0  0  0  0  0  0  0
   39.3640   22.3100   34.6400 O   0  0  0  0  0  0  0  0  0  0  0  0
   39.0740   22.6500   35.9570 C   0  0  0  0  0  0  0  0  0  0  0  0
   37.7300   22.8680   36.1940 C   0  0  0  0  0  0  0  0  0  0  0  0
   37.2880   23.2130   37.4580 C   0  0  0  0  0  0  0  0  0  0  0  0
   38.2290   23.3380   38.4920 C   0  0  0  0  0  0  0  0  0  0  0  0
   39.5580   23.1180   38.2360 C   0  0  0  0  0  0  0  0  0  0  0  0
   39.9750   22.7790   36.9900 C   0  0  0  0  0  0  0  0  0  0  0  0
   36.9660   22.7840   35.4310 H   0  0  0  0  0  0  0  0  0  0  0  0
   36.2410   23.3830   37.6410 H   0  0  0  0  0  0  0  0  0  0  0  0
   37.9250   23.6090   39.4990 H   0  0  0  0  0  0  0  0  0  0  0  0
   40.2700   23.2190   39.0470 H   0  0  0  0  0  0  0  0  0  0  0  0
   41.3650   22.5370   36.6760 C   0  0  0  0  0  0  0  0  0  0  0  0
   42.0190   21.3270   36.8810 C   0  0  0  0  0  0  0  0  0  0  0  0
   41.5860   20.4160   37.2970 H   0  0  0  0  0  0  0  0  0  0  0  0
   43.3290   21.4590   36.4690 C   0  0  0  0  0  0  0  0  0  0  0  0
   44.1360   20.7670   36.4650 H   0  0  0  0  0  0  0  0  0  0  0  0
   43.4290   22.7430   36.0270 C   0  0  0  0  0  0  0  0  0  0  0  0
   44.2330   23.3310   35.6100 H   0  0  0  0  0  0  0  0  0  0  0  0
   42.2660   23.3100   36.1720 O   0  0  0  0  0  0  0  0  0  0  0  0
  1  7  1  0  0  0  0
  1  6  1  0  0  0  0
  2  1  2  0  0  0  0
  3  2  1  0  0  0  0
  3  4  2  0  0  0  0
  4  5  1  0  0  0  0
  5  6  2  0  0  0  0
  5 20  1  0  0  0  0
  8  3  1  0  0  0  0
  9  2  1  0  0  0  0
 10 17  1  0  0  0  0
 10  9  1  0  0  0  0
 11 10  2  0  0  0  0
 12 11  1  0  0  0  0
 12 14  1  0  0  0  0
 13 12  2  0  0  0  0
 14 15  1  0  0  0  0
 15  9  1  0  0  0  0
 15 16  2  0  0  0  0
 18 11  1  0  0  0  0
 19 14  1  0  0  0  0
 20 21  1  0  0  0  0
 21 22  2  0  0  0  0
 21 26  1  0  0  0  0
 22 23  1  0  0  0  0
 23 28  1  0  0  0  0
 23 24  2  0  0  0  0
 24 29  1  0  0  0  0
 25 24  1  0  0  0  0
 25 30  1  0  0  0  0
 26 25  2  0  0  0  0
 27 22  1  0  0  0  0
 31 32  2  0  0  0  0
 31 26  1  0  0  0  0
 32 33  1  0  0  0  0
 34 32  1  0  0  0  0
 35 34  1  0  0  0  0
 36 38  1  0  0  0  0
 36 34  2  0  0  0  0
 37 36  1  0  0  0  0
 38 31  1  0  0  0  0
M  END
>  <minimizedAffinity>
-5.56032848

$$$$

 OpenBabel03272500093D

 38 41  0  0  0  0  0  0  0  0999 V2000
   36.2490   28.2560   32.9300 C   0  0  0  0  0  0  0  0  0  0  0  0
   36.5190   28.0660   31.5660 C   0  0  0  0  0  0  0  0  0  0  0  0
   36.1330   29.0720   30.6850 C   0  0  0  0  0  0  0  0  0  0  0  0
   35.5210   30.1770   31.1780 N   0  0  0  0  0  0  0  0  0  0  0  0
   35.2770   30.3300   32.4810 C   0  0  0  0  0  0  0  0  0  0  0  0
   35.6380   29.3640   33.3920 N   0  0  0  0  0  0  0  0  0  0  0  0
   36.5240   27.5110   33.6600 H   0  0  0  0  0  0  0  0  0  0  0  0
   36.3410   28.9240   29.6470 H   0  0  0  0  0  0  0  0  0  0  0  0
   37.1660   26.8650   31.1700 N   0  0  0  0  0  0  0  0  0  0  0  0
   38.4920   26.7930   31.0030 C   0  0  0  0  0  0  0  0  0  0  0  0
   39.0680   25.5910   30.6140 C   0  0  0  0  0  0  0  0  0  0  0  0
   38.2070   24.5590   30.4310 C   0  0  0  0  0  0  0  0  0  0  0  0
   38.7100   23.4510   30.0770 O   0  0  0  0  0  0  0  0  0  0  0  0
   36.8980   24.5900   30.5860 N   0  0  0  0  0  0  0  0  0  0  0  0
   36.3530   25.7890   30.9700 C   0  0  0  0  0  0  0  0  0  0  0  0
   35.1030   25.8390   31.1220 O   0  0  0  0  0  0  0  0  0  0  0  0
   39.1260   27.6750   31.1710 H   0  0  0  0  0  0  0  0  0  0  0  0
   40.1460   25.4920   30.4680 H   0  0  0  0  0  0  0  0  0  0  0  0
   36.2700   23.7870   30.4390 H   0  0  0  0  0  0  0  0  0  0  0  0
   34.6450   31.4690   32.9930 O   0  0  0  0  0  0  0  0  0  0  0  0
   35.4390   32.2860   33.7900 C   0  0  0  0  0  0  0  0  0  0  0  0
   36.4480   32.9300   33.0970 C   0  0  0  0  0  0  0  0  0  0  0  0
   37.3180   33.7790   33.7560 C   0  0  0  0  0  0  0  0  0  0  0  0
   37.1590   33.9720   35.1370 C   0  0  0  0  0  0  0  0  0  0  0  0
   36.1520   33.3240   35.8060 C   0  0  0  0  0  0  0  0  0  0  0  0
   35.3060   32.4950   35.1430 C   0  0  0  0  0  0  0  0  0  0  0  0
   36.6120   32.8150   32.0330 H   0  0  0  0  0  0  0  0  0  0  0  0
   38.1030   34.2790   33.2150 H   0  0  0  0  0  0  0  0  0  0  0  0
   37.8220   34.6290   35.6930 H   0  0  0  0  0  0  0  0  0  0  0  0
   36.0450   33.4850   36.8710 H   0  0  0  0  0  0  0  0  0  0  0  0
   34.2320   31.7920   35.8070 C   0  0  0  0  0  0  0  0  0  0  0  0
   33.6670   32.1810   37.0180 C   0  0  0  0  0  0  0  0  0  0  0  0
   33.9480   33.0460   37.6190 H   0  0  0  0  0  0  0  0  0  0  0  0
   32.6740   31.2810   37.3490 C   0  0  0  0  0  0  0  0  0  0  0  0
   32.0210   31.2360   38.1870 H   0  0  0  0  0  0  0  0  0  0  0  0
   32.6660   30.3770   36.3320 C   0  0  0  0  0  0  0  0  0  0  0  0
   32.0840   29.4930   36.1200 H   0  0  0  0  0  0  0  0  0  0  0  0
   33.5850   30.7260   35.4780 O   0  0  0  0  0  0  0  0  0  0  0  0
  1  6  1  0  0  0  0
  1  7  1  0  0  0  0
  2  1  2  0  0  0  0
  3  4  2  0  0  0  0
  3  2  1  0  0  0  0
  4  5  1  0  0  0  0
  5 20  1  0  0  0  0
  5  6  2  0  0  0  0
  8  3  1  0  0  0  0
  9  2  1  0  0  0  0
 10  9  1  0  0  0  0
 10 17  1  0  0  0  0
 11 10  2  0  0  0  0
 12 14  1  0  0  0  0
 12 11  1  0  0  0  0
 13 12  2  0  0  0  0
 14 15  1  0  0  0  0
 15 16  2  0  0  0  0
 15  9  1  0  0  0  0
 18 11  1  0  0  0  0
 19 14  1  0  0  0  0
 20 21  1  0  0  0  0
 21 26  1  0  0  0  0
 22 23  1  0  0  0  0
 22 21  2  0  0  0  0
 23 24  2  0  0  0  0
 24 29  1  0  0  0  0
 24 25  1  0  0  0  0
 25 30  1  0  0  0  0
 26 25  2  0  0  0  0
 26 31  1  0  0  0  0
 27 22  1  0  0  0  0
 28 23  1  0  0  0  0
 31 32  2  0  0  0  0
 32 34  1  0  0  0  0
 32 33  1  0  0  0  0
 34 35  1  0  0  0  0
 36 34  2  0  0  0  0
 37 36  1  0  0  0  0
 38 31  1  0  0  0  0
 38 36  1  0  0  0  0
M  END
>  <minimizedAffinity>
-5.51651621

$$$$

 OpenBabel03272500093D

 38 41  0  0  0  0  0  0  0  0999 V2000
   36.3390   28.3380   34.5520 C   0  0  0  0  0  0  0  0  0  0  0  0
   35.7720   29.5260   34.0650 C   0  0  0  0  0  0  0  0  0  0  0  0
   35.8440   29.7630   32.6960 C   0  0  0  0  0  0  0  0  0  0  0  0
   36.4510   28.8470   31.9020 N   0  0  0  0  0  0  0  0  0  0  0  0
   36.9810   27.7250   32.3930 C   0  0  0  0  0  0  0  0  0  0  0  0
   36.9370   27.4450   33.7400 N   0  0  0  0  0  0  0  0  0  0  0  0
   36.3140   28.1010   35.6040 H   0  0  0  0  0  0  0  0  0  0  0  0
   35.4100   30.6690   32.3290 H   0  0  0  0  0  0  0  0  0  0  0  0
   35.1620   30.4100   34.9950 N   0  0  0  0  0  0  0  0  0  0  0  0
   35.8700   31.3040   35.6960 C   0  0  0  0  0  0  0  0  0  0  0  0
   35.2180   32.1430   36.5900 C   0  0  0  0  0  0  0  0  0  0  0  0
   33.8740   31.9780   36.6790 C   0  0  0  0  0  0  0  0  0  0  0  0
   33.2580   32.7320   37.4890 O   0  0  0  0  0  0  0  0  0  0  0  0
   33.1430   31.1100   36.0070 N   0  0  0  0  0  0  0  0  0  0  0  0
   33.8100   30.2930   35.1300 C   0  0  0  0  0  0  0  0  0  0  0  0
   33.1280   29.4570   34.4780 O   0  0  0  0  0  0  0  0  0  0  0  0
   36.9580   31.3800   35.5690 H   0  0  0  0  0  0  0  0  0  0  0  0
   35.7600   32.8850   37.1800 H   0  0  0  0  0  0  0  0  0  0  0  0
   32.1220   31.0090   36.0970 H   0  0  0  0  0  0  0  0  0  0  0  0
   37.6090   26.7770   31.5780 O   0  0  0  0  0  0  0  0  0  0  0  0
   37.0890   25.4900   31.6460 C   0  0  0  0  0  0  0  0  0  0  0  0
   35.8230   25.3710   31.1020 C   0  0  0  0  0  0  0  0  0  0  0  0
   35.1760   24.1490   31.0970 C   0  0  0  0  0  0  0  0  0  0  0  0
   35.8250   23.0360   31.6530 C   0  0  0  0  0  0  0  0  0  0  0  0
   37.0800   23.1750   32.1880 C   0  0  0  0  0  0  0  0  0  0  0  0
   37.7030   24.3820   32.1850 C   0  0  0  0  0  0  0  0  0  0  0  0
   35.2810   26.1970   30.6620 H   0  0  0  0  0  0  0  0  0  0  0  0
   34.1900   24.0580   30.6730 H   0  0  0  0  0  0  0  0  0  0  0  0
   35.3520   22.0590   31.6700 H   0  0  0  0  0  0  0  0  0  0  0  0
   37.5660   22.3060   32.6130 H   0  0  0  0  0  0  0  0  0  0  0  0
   39.0240   24.5740   32.7370 C   0  0  0  0  0  0  0  0  0  0  0  0
   39.3010   24.6750   34.0970 C   0  0  0  0  0  0  0  0  0  0  0  0
   38.5800   24.6250   34.9130 H   0  0  0  0  0  0  0  0  0  0  0  0
   40.6600   24.8530   34.2570 C   0  0  0  0  0  0  0  0  0  0  0  0
   41.2530   24.9700   35.1320 H   0  0  0  0  0  0  0  0  0  0  0  0
   41.1650   24.8550   32.9930 C   0  0  0  0  0  0  0  0  0  0  0  0
   42.1580   24.9590   32.5830 H   0  0  0  0  0  0  0  0  0  0  0  0
   40.1740   24.6900   32.1650 O   0  0  0  0  0  0  0  0  0  0  0  0
  1  7  1  0  0  0  0
  2  1  1  0  0  0  0
  2  9  1  0  0  0  0
  3  2  2  0  0  0  0
  4  5  2  0  0  0  0
  4  3  1  0  0  0  0
  5  6  1  0  0  0  0
  6  1  2  0  0  0  0
  8  3  1  0  0  0  0
  9 15  1  0  0  0  0
  9 10  1  0  0  0  0
 10 11  2  0  0  0  0
 11 12  1  0  0  0  0
 11 18  1  0  0  0  0
 12 13  2  0  0  0  0
 14 19  1  0  0  0  0
 14 12  1  0  0  0  0
 15 14  1  0  0  0  0
 16 15  2  0  0  0  0
 17 10  1  0  0  0  0
 20 21  1  0  0  0  0
 20  5  1  0  0  0  0
 21 26  1  0  0  0  0
 22 21  2  0  0  0  0
 23 22  1  0  0  0  0
 23 24  2  0  0  0  0
 24 29  1  0  0  0  0
 24 25  1  0  0  0  0
 25 30  1  0  0  0  0
 26 25  2  0  0  0  0
 26 31  1  0  0  0  0
 27 22  1  0  0  0  0
 28 23  1  0  0  0  0
 31 32  2  0  0  0  0
 32 34  1  0  0  0  0
 32 33  1  0  0  0  0
 34 35  1  0  0  0  0
 36 34  2  0  0  0  0
 37 36  1  0  0  0  0
 38 31  1  0  0  0  0
 38 36  1  0  0  0  0
M  END
>  <minimizedAffinity>
-5.49855709

$$$$
