
 OpenBabel03272503203D

 34 37  0  0  0  0  0  0  0  0999 V2000
   37.1510   30.9360   47.4340 C   0  0  0  0  0  0  0  0  0  0  0  0
   38.0810   31.8900   47.4550 C   0  0  0  0  0  0  0  0  0  0  0  0
   38.5620   32.3790   46.3030 C   0  0  0  0  0  0  0  0  0  0  0  0
   38.0590   31.8580   45.1290 C   0  0  0  0  0  0  0  0  0  0  0  0
   36.8490   30.6200   45.7250 S   0  0  0  0  0  0  0  0  0  0  0  0
   38.4210   32.2430   48.4250 H   0  0  0  0  0  0  0  0  0  0  0  0
   39.3120   33.1480   46.1690 H   0  0  0  0  0  0  0  0  0  0  0  0
   40.8010   30.9380   44.1240 Cl  0  0  0  0  0  0  0  0  0  0  0  0
   39.5360   31.7290   43.2180 C   0  0  0  0  0  0  0  0  0  0  0  0
   38.3190   32.1190   43.7290 C   0  0  0  0  0  0  0  0  0  0  0  0
   37.3220   32.7280   43.0650 C   0  0  0  0  0  0  0  0  0  0  0  0
   37.5120   33.0090   41.7040 C   0  0  0  0  0  0  0  0  0  0  0  0
   38.6980   32.6530   41.1140 C   0  0  0  0  0  0  0  0  0  0  0  0
   39.0110   32.9690   39.4200 Cl  0  0  0  0  0  0  0  0  0  0  0  0
   39.6970   32.0230   41.8500 C   0  0  0  0  0  0  0  0  0  0  0  0
   36.3760   33.0210   43.5030 H   0  0  0  0  0  0  0  0  0  0  0  0
   36.7220   33.5010   41.1430 H   0  0  0  0  0  0  0  0  0  0  0  0
   40.6220   31.7530   41.3620 H   0  0  0  0  0  0  0  0  0  0  0  0
   36.1700   29.5830   50.8130 C   0  0  0  0  0  0  0  0  0  0  0  0
   36.8960   30.2990   49.8420 C   0  0  0  0  0  0  0  0  0  0  0  0
   36.4480   30.2190   48.5050 C   0  0  0  0  0  0  0  0  0  0  0  0
   35.3740   29.4820   48.2190 N   0  0  0  0  0  0  0  0  0  0  0  0
   34.6980   28.8070   49.1720 C   0  0  0  0  0  0  0  0  0  0  0  0
   35.0950   28.8600   50.4520 N   0  0  0  0  0  0  0  0  0  0  0  0
   36.5130   29.6430   51.8440 H   0  0  0  0  0  0  0  0  0  0  0  0
   37.7650   30.8940   50.0770 H   0  0  0  0  0  0  0  0  0  0  0  0
   33.5240   28.0150   48.7930 C   0  0  0  0  0  0  0  0  0  0  0  0
   33.4460   26.9500   47.9120 C   0  0  0  0  0  0  0  0  0  0  0  0
   34.2910   26.5730   47.3830 H   0  0  0  0  0  0  0  0  0  0  0  0
   32.1260   26.5560   47.9070 C   0  0  0  0  0  0  0  0  0  0  0  0
   31.7440   25.7500   47.3210 H   0  0  0  0  0  0  0  0  0  0  0  0
   31.4450   27.3820   48.7750 C   0  0  0  0  0  0  0  0  0  0  0  0
   30.3950   27.3120   48.9770 H   0  0  0  0  0  0  0  0  0  0  0  0
   32.3150   28.2230   49.2700 O   0  0  0  0  0  0  0  0  0  0  0  0
  1  2  2  0  0  0  0
  1 21  1  0  0  0  0
  2  6  1  0  0  0  0
  3  2  1  0  0  0  0
  4  5  1  0  0  0  0
  4  3  2  0  0  0  0
  5  1  1  0  0  0  0
  7  3  1  0  0  0  0
  9 10  1  0  0  0  0
  9  8  1  0  0  0  0
 10  4  1  0  0  0  0
 11 16  1  0  0  0  0
 11 10  2  0  0  0  0
 12 11  1  0  0  0  0
 13 12  2  0  0  0  0
 13 15  1  0  0  0  0
 14 13  1  0  0  0  0
 15  9  2  0  0  0  0
 17 12  1  0  0  0  0
 18 15  1  0  0  0  0
 19 25  1  0  0  0  0
 20 26  1  0  0  0  0
 20 19  2  0  0  0  0
 21 20  1  0  0  0  0
 22 21  2  0  0  0  0
 22 23  1  0  0  0  0
 23 24  2  0  0  0  0
 24 19  1  0  0  0  0
 27 23  1  0  0  0  0
 27 34  1  0  0  0  0
 28 27  2  0  0  0  0
 29 28  1  0  0  0  0
 30 28  1  0  0  0  0
 30 32  2  0  0  0  0
 31 30  1  0  0  0  0
 32 33  1  0  0  0  0
 32 34  1  0  0  0  0
M  END
>  <minimizedAffinity>
-5.95355225

>  <minimizedRMSD>
1.3858676

$$$$
