
 OpenBabel03272510023D

 20 21  0  0  0  0  0  0  0  0999 V2000
   38.2530   31.7200   49.9940 C   0  0  0  0  0  0  0  0  0  0  0  0
   38.5640   31.6340   48.6160 C   0  0  0  0  0  0  0  0  0  0  0  0
   37.7900   30.7950   47.8270 C   0  0  0  0  0  0  0  0  0  0  0  0
   36.7740   30.1000   48.4070 N   0  0  0  0  0  0  0  0  0  0  0  0
   36.5100   30.2120   49.7260 C   0  0  0  0  0  0  0  0  0  0  0  0
   37.2400   31.0130   50.5140 N   0  0  0  0  0  0  0  0  0  0  0  0
   38.8370   32.3640   50.6370 H   0  0  0  0  0  0  0  0  0  0  0  0
   39.3830   32.2060   48.1950 H   0  0  0  0  0  0  0  0  0  0  0  0
   38.0650   30.6650   46.4000 C   0  0  0  0  0  0  0  0  0  0  0  0
   37.1100   30.7130   45.4070 C   0  0  0  0  0  0  0  0  0  0  0  0
   36.0370   30.8510   45.5340 H   0  0  0  0  0  0  0  0  0  0  0  0
   37.8790   30.5430   44.2510 C   0  0  0  0  0  0  0  0  0  0  0  0
   37.4370   30.5280   43.2480 H   0  0  0  0  0  0  0  0  0  0  0  0
   39.2070   30.4050   44.5940 C   0  0  0  0  0  0  0  0  0  0  0  0
   40.0370   30.2580   43.8870 H   0  0  0  0  0  0  0  0  0  0  0  0
   39.2710   30.4880   45.9160 O   0  0  0  0  0  0  0  0  0  0  0  0
   35.3800   29.4190   50.2650 C   0  0  0  0  0  0  0  0  0  0  0  0
   35.4890   29.1730   51.6240 F   0  0  0  0  0  0  0  0  0  0  0  0
   34.1640   30.1030   50.1010 F   0  0  0  0  0  0  0  0  0  0  0  0
   35.2080   28.2180   49.6460 F   0  0  0  0  0  0  0  0  0  0  0  0
  1  6  1  0  0  0  0
  1  7  1  0  0  0  0
  2  1  2  0  0  0  0
  3  4  2  0  0  0  0
  3  2  1  0  0  0  0
  4  5  1  0  0  0  0
  5 17  1  0  0  0  0
  5  6  2  0  0  0  0
  8  2  1  0  0  0  0
  9  3  1  0  0  0  0
 10 11  1  0  0  0  0
 10  9  2  0  0  0  0
 12 14  2  0  0  0  0
 12 10  1  0  0  0  0
 13 12  1  0  0  0  0
 14 16  1  0  0  0  0
 15 14  1  0  0  0  0
 16  9  1  0  0  0  0
 17 18  1  0  0  0  0
 19 17  1  0  0  0  0
 20 17  1  0  0  0  0
M  END
>  <minimizedAffinity>
-4.98347282

>  <minimizedRMSD>
1.16925967

$$$$
