
 OpenBabel03272500283D

 33 35  0  0  0  0  0  0  0  0999 V2000
   37.0960   26.7090   33.4160 C   0  0  0  0  0  0  0  0  0  0  0  0
   37.2360   26.1760   32.4320 H   0  0  0  0  0  0  0  0  0  0  0  0
   36.3270   26.0520   33.9220 H   0  0  0  0  0  0  0  0  0  0  0  0
   36.5240   27.9960   33.1360 C   0  0  0  0  0  0  0  0  0  0  0  0
   36.4610   28.4750   31.8660 C   0  0  0  0  0  0  0  0  0  0  0  0
   35.9060   29.7280   31.5710 C   0  0  0  0  0  0  0  0  0  0  0  0
   35.4350   30.4250   32.6620 N   0  0  0  0  0  0  0  0  0  0  0  0
   35.5050   29.9380   33.9140 C   0  0  0  0  0  0  0  0  0  0  0  0
   36.0530   28.7230   34.1200 N   0  0  0  0  0  0  0  0  0  0  0  0
   36.8230   27.9480   30.9800 H   0  0  0  0  0  0  0  0  0  0  0  0
   35.8520   30.1150   30.5670 H   0  0  0  0  0  0  0  0  0  0  0  0
   34.9970   30.7030   35.0490 C   0  0  0  0  0  0  0  0  0  0  0  0
   35.8140   31.4870   35.8650 C   0  0  0  0  0  0  0  0  0  0  0  0
   36.8940   31.6700   35.8240 H   0  0  0  0  0  0  0  0  0  0  0  0
   35.0350   32.0800   36.8410 C   0  0  0  0  0  0  0  0  0  0  0  0
   35.2140   32.7400   37.6590 H   0  0  0  0  0  0  0  0  0  0  0  0
   33.7610   31.6200   36.5690 C   0  0  0  0  0  0  0  0  0  0  0  0
   32.7860   31.7580   37.0010 H   0  0  0  0  0  0  0  0  0  0  0  0
   33.8020   30.8430   35.5390 O   0  0  0  0  0  0  0  0  0  0  0  0
   38.3110   26.6040   34.2300 C   0  0  0  0  0  0  0  0  0  0  0  0
   38.6290   27.5480   34.7540 H   0  0  0  0  0  0  0  0  0  0  0  0
   39.2040   26.3710   33.5750 H   0  0  0  0  0  0  0  0  0  0  0  0
   38.3020   25.5250   35.2290 C   0  0  0  0  0  0  0  0  0  0  0  0
   38.3510   24.1940   34.8250 C   0  0  0  0  0  0  0  0  0  0  0  0
   38.3300   23.3950   35.9370 C   0  0  0  0  0  0  0  0  0  0  0  0
   38.2700   24.2110   36.9880 N   0  0  0  0  0  0  0  0  0  0  0  0
   38.2550   25.4590   36.5460 N   0  0  0  0  0  0  0  0  0  0  0  0
   38.3990   23.7510   33.8250 H   0  0  0  0  0  0  0  0  0  0  0  0
   38.3550   22.3210   36.0180 H   0  0  0  0  0  0  0  0  0  0  0  0
   38.2260   23.8720   38.4040 C   0  0  0  0  0  0  0  0  0  0  0  0
   37.9000   24.9850   39.1610 F   0  0  0  0  0  0  0  0  0  0  0  0
   39.4440   23.3790   38.8500 F   0  0  0  0  0  0  0  0  0  0  0  0
   37.2520   22.9090   38.6640 F   0  0  0  0  0  0  0  0  0  0  0  0
  1  3  1  0  0  0  0
  1 20  1  0  0  0  0
  2  1  1  0  0  0  0
  4  1  1  0  0  0  0
  4  9  1  0  0  0  0
  5  4  2  0  0  0  0
  6  5  1  0  0  0  0
  6  7  2  0  0  0  0
  7  8  1  0  0  0  0
  8  9  2  0  0  0  0
  8 12  1  0  0  0  0
 10  5  1  0  0  0  0
 11  6  1  0  0  0  0
 12 19  1  0  0  0  0
 12 13  2  0  0  0  0
 13 15  1  0  0  0  0
 14 13  1  0  0  0  0
 15 16  1  0  0  0  0
 17 15  2  0  0  0  0
 17 18  1  0  0  0  0
 19 17  1  0  0  0  0
 20 21  1  0  0  0  0
 20 23  1  0  0  0  0
 22 20  1  0  0  0  0
 23 27  2  0  0  0  0
 24 23  1  0  0  0  0
 24 25  2  0  0  0  0
 25 29  1  0  0  0  0
 25 26  1  0  0  0  0
 26 30  1  0  0  0  0
 27 26  1  0  0  0  0
 28 24  1  0  0  0  0
 30 33  1  0  0  0  0
 30 32  1  0  0  0  0
 30 31  1  0  0  0  0
M  END
>  <minimizedAffinity>
-5.92803335

$$$$

 OpenBabel03272500283D

 33 35  0  0  0  0  0  0  0  0999 V2000
   38.3630   25.9530   32.7830 C   0  0  0  0  0  0  0  0  0  0  0  0
   38.8060   26.7130   32.0780 H   0  0  0  0  0  0  0  0  0  0  0  0
   39.1830   25.1740   32.8190 H   0  0  0  0  0  0  0  0  0  0  0  0
   37.1990   25.4000   32.1510 C   0  0  0  0  0  0  0  0  0  0  0  0
   36.2680   26.2000   31.5710 C   0  0  0  0  0  0  0  0  0  0  0  0
   35.1240   25.6810   30.9490 C   0  0  0  0  0  0  0  0  0  0  0  0
   35.0230   24.3080   30.9730 N   0  0  0  0  0  0  0  0  0  0  0  0
   35.9540   23.5270   31.5520 C   0  0  0  0  0  0  0  0  0  0  0  0
   37.0280   24.1000   32.1310 N   0  0  0  0  0  0  0  0  0  0  0  0
   36.3170   27.2920   31.5340 H   0  0  0  0  0  0  0  0  0  0  0  0
   34.3800   26.3100   30.4870 H   0  0  0  0  0  0  0  0  0  0  0  0
   35.8170   22.0730   31.5600 C   0  0  0  0  0  0  0  0  0  0  0  0
   35.0550   21.3870   32.5060 C   0  0  0  0  0  0  0  0  0  0  0  0
   34.4630   21.7610   33.3500 H   0  0  0  0  0  0  0  0  0  0  0  0
   35.1270   20.0320   32.2410 C   0  0  0  0  0  0  0  0  0  0  0  0
   34.7220   19.1490   32.6820 H   0  0  0  0  0  0  0  0  0  0  0  0
   35.9440   19.9570   31.1300 C   0  0  0  0  0  0  0  0  0  0  0  0
   36.3300   19.1660   30.5120 H   0  0  0  0  0  0  0  0  0  0  0  0
   36.3040   21.1490   30.7890 O   0  0  0  0  0  0  0  0  0  0  0  0
   38.2750   26.5040   34.1390 C   0  0  0  0  0  0  0  0  0  0  0  0
   37.3300   27.0680   34.3740 H   0  0  0  0  0  0  0  0  0  0  0  0
   39.0770   27.2860   34.2970 H   0  0  0  0  0  0  0  0  0  0  0  0
   38.4930   25.5350   35.2230 C   0  0  0  0  0  0  0  0  0  0  0  0
   39.3860   24.4810   35.0520 C   0  0  0  0  0  0  0  0  0  0  0  0
   39.4060   23.7310   36.1990 C   0  0  0  0  0  0  0  0  0  0  0  0
   38.5530   24.3080   37.0430 N   0  0  0  0  0  0  0  0  0  0  0  0
   38.0290   25.3670   36.4460 N   0  0  0  0  0  0  0  0  0  0  0  0
   40.0120   24.2040   34.1990 H   0  0  0  0  0  0  0  0  0  0  0  0
   39.9710   22.8460   36.4360 H   0  0  0  0  0  0  0  0  0  0  0  0
   38.2010   23.9090   38.3990 C   0  0  0  0  0  0  0  0  0  0  0  0
   37.2910   22.8650   38.3790 F   0  0  0  0  0  0  0  0  0  0  0  0
   37.6490   24.9600   39.1160 F   0  0  0  0  0  0  0  0  0  0  0  0
   39.3190   23.4540   39.0980 F   0  0  0  0  0  0  0  0  0  0  0  0
  1  3  1  0  0  0  0
  1 20  1  0  0  0  0
  2  1  1  0  0  0  0
  4  1  1  0  0  0  0
  5  4  2  0  0  0  0
  6  7  2  0  0  0  0
  6  5  1  0  0  0  0
  7  8  1  0  0  0  0
  8 12  1  0  0  0  0
  8  9  2  0  0  0  0
  9  4  1  0  0  0  0
 10  5  1  0  0  0  0
 11  6  1  0  0  0  0
 12 13  2  0  0  0  0
 13 14  1  0  0  0  0
 15 13  1  0  0  0  0
 15 16  1  0  0  0  0
 17 15  2  0  0  0  0
 18 17  1  0  0  0  0
 19 17  1  0  0  0  0
 19 12  1  0  0  0  0
 20 22  1  0  0  0  0
 20 21  1  0  0  0  0
 20 23  1  0  0  0  0
 23 27  2  0  0  0  0
 24 23  1  0  0  0  0
 24 25  2  0  0  0  0
 25 29  1  0  0  0  0
 25 26  1  0  0  0  0
 26 30  1  0  0  0  0
 27 26  1  0  0  0  0
 28 24  1  0  0  0  0
 30 33  1  0  0  0  0
 30 32  1  0  0  0  0
 31 30  1  0  0  0  0
M  END
>  <minimizedAffinity>
-5.7826829

$$$$

 OpenBabel03272500283D

 33 35  0  0  0  0  0  0  0  0999 V2000
   37.0650   25.2710   31.8920 C   0  0  0  0  0  0  0  0  0  0  0  0
   37.9690   24.6650   31.5950 H   0  0  0  0  0  0  0  0  0  0  0  0
   37.1100   26.1230   31.1480 H   0  0  0  0  0  0  0  0  0  0  0  0
   37.2940   25.7740   33.2170 C   0  0  0  0  0  0  0  0  0  0  0  0
   37.0380   27.0700   33.5290 C   0  0  0  0  0  0  0  0  0  0  0  0
   37.2550   27.5820   34.8170 C   0  0  0  0  0  0  0  0  0  0  0  0
   37.7430   26.6710   35.7280 N   0  0  0  0  0  0  0  0  0  0  0  0
   37.9930   25.3890   35.4030 C   0  0  0  0  0  0  0  0  0  0  0  0
   37.7590   24.9710   34.1430 N   0  0  0  0  0  0  0  0  0  0  0  0
   36.6500   27.8170   32.8320 H   0  0  0  0  0  0  0  0  0  0  0  0
   37.0540   28.6090   35.0740 H   0  0  0  0  0  0  0  0  0  0  0  0
   38.5110   24.4490   36.3930 C   0  0  0  0  0  0  0  0  0  0  0  0
   37.9810   24.3300   37.6780 C   0  0  0  0  0  0  0  0  0  0  0  0
   37.1520   24.8640   38.1580 H   0  0  0  0  0  0  0  0  0  0  0  0
   38.6860   23.3600   38.3650 C   0  0  0  0  0  0  0  0  0  0  0  0
   38.6420   22.9390   39.3440 H   0  0  0  0  0  0  0  0  0  0  0  0
   39.6270   22.9280   37.4510 C   0  0  0  0  0  0  0  0  0  0  0  0
   40.4190   22.2020   37.4490 H   0  0  0  0  0  0  0  0  0  0  0  0
   39.4770   23.5830   36.3490 O   0  0  0  0  0  0  0  0  0  0  0  0
   35.8350   24.5350   31.5840 C   0  0  0  0  0  0  0  0  0  0  0  0
   35.3230   24.8240   30.6240 H   0  0  0  0  0  0  0  0  0  0  0  0
   35.0430   24.7530   32.3620 H   0  0  0  0  0  0  0  0  0  0  0  0
   35.9640   23.0710   31.5950 C   0  0  0  0  0  0  0  0  0  0  0  0
   37.1150   22.4640   31.1040 C   0  0  0  0  0  0  0  0  0  0  0  0
   36.9840   21.1060   31.2290 C   0  0  0  0  0  0  0  0  0  0  0  0
   35.7910   20.8900   31.7790 N   0  0  0  0  0  0  0  0  0  0  0  0
   35.2100   22.0610   31.9850 N   0  0  0  0  0  0  0  0  0  0  0  0
   38.0240   22.8960   30.6720 H   0  0  0  0  0  0  0  0  0  0  0  0
   37.6670   20.3180   30.9580 H   0  0  0  0  0  0  0  0  0  0  0  0
   35.1630   19.6210   32.1240 C   0  0  0  0  0  0  0  0  0  0  0  0
   35.7050   18.5900   31.3760 F   0  0  0  0  0  0  0  0  0  0  0  0
   33.7930   19.6510   31.9020 F   0  0  0  0  0  0  0  0  0  0  0  0
   35.3740   19.3010   33.4640 F   0  0  0  0  0  0  0  0  0  0  0  0
  1  4  1  0  0  0  0
  2  1  1  0  0  0  0
  3  1  1  0  0  0  0
  4  5  2  0  0  0  0
  4  9  1  0  0  0  0
  5  6  1  0  0  0  0
  6 11  1  0  0  0  0
  6  7  2  0  0  0  0
  8  7  1  0  0  0  0
  8 12  1  0  0  0  0
  9  8  2  0  0  0  0
 10  5  1  0  0  0  0
 12 13  2  0  0  0  0
 13 14  1  0  0  0  0
 13 15  1  0  0  0  0
 15 16  1  0  0  0  0
 17 15  2  0  0  0  0
 18 17  1  0  0  0  0
 19 12  1  0  0  0  0
 19 17  1  0  0  0  0
 20 23  1  0  0  0  0
 20  1  1  0  0  0  0
 20 22  1  0  0  0  0
 21 20  1  0  0  0  0
 23 27  2  0  0  0  0
 24 25  2  0  0  0  0
 24 23  1  0  0  0  0
 25 26  1  0  0  0  0
 26 27  1  0  0  0  0
 26 30  1  0  0  0  0
 28 24  1  0  0  0  0
 29 25  1  0  0  0  0
 30 33  1  0  0  0  0
 31 30  1  0  0  0  0
 32 30  1  0  0  0  0
M  END
>  <minimizedAffinity>
-5.75429201

$$$$

 OpenBabel03272500283D

 33 35  0  0  0  0  0  0  0  0999 V2000
   36.8470   27.6110   34.5050 C   0  0  0  0  0  0  0  0  0  0  0  0
   35.9840   27.1130   35.0340 H   0  0  0  0  0  0  0  0  0  0  0  0
   37.2630   28.2710   35.3230 H   0  0  0  0  0  0  0  0  0  0  0  0
   36.3020   28.4270   33.4570 C   0  0  0  0  0  0  0  0  0  0  0  0
   35.1700   29.1530   33.6480 C   0  0  0  0  0  0  0  0  0  0  0  0
   34.6210   29.9550   32.6390 C   0  0  0  0  0  0  0  0  0  0  0  0
   35.3160   29.9480   31.4490 N   0  0  0  0  0  0  0  0  0  0  0  0
   36.4370   29.2230   31.2740 C   0  0  0  0  0  0  0  0  0  0  0  0
   36.9040   28.4740   32.2930 N   0  0  0  0  0  0  0  0  0  0  0  0
   34.5950   29.1820   34.5770 H   0  0  0  0  0  0  0  0  0  0  0  0
   33.7230   30.5340   32.7820 H   0  0  0  0  0  0  0  0  0  0  0  0
   37.1500   29.2380   30.0000 C   0  0  0  0  0  0  0  0  0  0  0  0
   37.2110   30.3610   29.1750 C   0  0  0  0  0  0  0  0  0  0  0  0
   36.7790   31.3610   29.3030 H   0  0  0  0  0  0  0  0  0  0  0  0
   37.9570   30.0530   28.0530 C   0  0  0  0  0  0  0  0  0  0  0  0
   38.2630   30.5780   27.1760 H   0  0  0  0  0  0  0  0  0  0  0  0
   38.3200   28.7360   28.2510 C   0  0  0  0  0  0  0  0  0  0  0  0
   38.8910   28.0060   27.7060 H   0  0  0  0  0  0  0  0  0  0  0  0
   37.8330   28.3270   29.3740 O   0  0  0  0  0  0  0  0  0  0  0  0
   37.8970   26.6320   34.2070 C   0  0  0  0  0  0  0  0  0  0  0  0
   38.9210   27.0590   34.0230 H   0  0  0  0  0  0  0  0  0  0  0  0
   37.6720   26.0990   33.2350 H   0  0  0  0  0  0  0  0  0  0  0  0
   38.0380   25.5490   35.1920 C   0  0  0  0  0  0  0  0  0  0  0  0
   38.2090   24.2350   34.7710 C   0  0  0  0  0  0  0  0  0  0  0  0
   38.3150   23.4290   35.8740 C   0  0  0  0  0  0  0  0  0  0  0  0
   38.2100   24.2260   36.9350 N   0  0  0  0  0  0  0  0  0  0  0  0
   38.0480   25.4680   36.5090 N   0  0  0  0  0  0  0  0  0  0  0  0
   38.2650   23.8070   33.7640 H   0  0  0  0  0  0  0  0  0  0  0  0
   38.4530   22.3630   35.9400 H   0  0  0  0  0  0  0  0  0  0  0  0
   38.2560   23.8720   38.3480 C   0  0  0  0  0  0  0  0  0  0  0  0
   37.2840   22.9330   38.6470 F   0  0  0  0  0  0  0  0  0  0  0  0
   38.0610   24.9810   39.1600 F   0  0  0  0  0  0  0  0  0  0  0  0
   39.4830   23.3030   38.6870 F   0  0  0  0  0  0  0  0  0  0  0  0
  1  2  1  0  0  0  0
  1  3  1  0  0  0  0
  4  5  1  0  0  0  0
  4  1  1  0  0  0  0
  5 10  1  0  0  0  0
  6 11  1  0  0  0  0
  6  5  2  0  0  0  0
  7  6  1  0  0  0  0
  8  7  2  0  0  0  0
  8  9  1  0  0  0  0
  9  4  2  0  0  0  0
 12  8  1  0  0  0  0
 13 14  1  0  0  0  0
 13 12  2  0  0  0  0
 15 17  2  0  0  0  0
 15 13  1  0  0  0  0
 16 15  1  0  0  0  0
 17 19  1  0  0  0  0
 18 17  1  0  0  0  0
 19 12  1  0  0  0  0
 20  1  1  0  0  0  0
 20 23  1  0  0  0  0
 21 20  1  0  0  0  0
 22 20  1  0  0  0  0
 23 27  2  0  0  0  0
 24 23  1  0  0  0  0
 24 25  2  0  0  0  0
 25 29  1  0  0  0  0
 25 26  1  0  0  0  0
 26 30  1  0  0  0  0
 27 26  1  0  0  0  0
 28 24  1  0  0  0  0
 30 31  1  0  0  0  0
 30 33  1  0  0  0  0
 30 32  1  0  0  0  0
M  END
>  <minimizedAffinity>
-5.51917648

$$$$

 OpenBabel03272500283D

 33 35  0  0  0  0  0  0  0  0999 V2000
   37.8390   26.1430   34.5100 C   0  0  0  0  0  0  0  0  0  0  0  0
   38.9480   26.3350   34.4350 H   0  0  0  0  0  0  0  0  0  0  0  0
   37.7300   25.2020   33.8930 H   0  0  0  0  0  0  0  0  0  0  0  0
   37.1640   27.2290   33.8570 C   0  0  0  0  0  0  0  0  0  0  0  0
   37.1100   27.3090   32.5030 C   0  0  0  0  0  0  0  0  0  0  0  0
   36.4570   28.3610   31.8450 C   0  0  0  0  0  0  0  0  0  0  0  0
   35.8810   29.2960   32.6770 N   0  0  0  0  0  0  0  0  0  0  0  0
   35.9430   29.2040   34.0180 C   0  0  0  0  0  0  0  0  0  0  0  0
   36.5900   28.1610   34.5780 N   0  0  0  0  0  0  0  0  0  0  0  0
   37.5550   26.5860   31.8150 H   0  0  0  0  0  0  0  0  0  0  0  0
   36.4090   28.4330   30.7710 H   0  0  0  0  0  0  0  0  0  0  0  0
   35.3200   30.2120   34.8710 C   0  0  0  0  0  0  0  0  0  0  0  0
   36.0540   31.0790   35.6830 C   0  0  0  0  0  0  0  0  0  0  0  0
   37.1370   31.1700   35.8300 H   0  0  0  0  0  0  0  0  0  0  0  0
   35.1780   31.9060   36.3590 C   0  0  0  0  0  0  0  0  0  0  0  0
   35.2740   32.6990   37.0670 H   0  0  0  0  0  0  0  0  0  0  0  0
   33.9340   31.4970   35.9210 C   0  0  0  0  0  0  0  0  0  0  0  0
   32.9170   31.7890   36.1150 H   0  0  0  0  0  0  0  0  0  0  0  0
   34.0790   30.5330   35.0770 O   0  0  0  0  0  0  0  0  0  0  0  0
   37.4780   25.7670   35.8810 C   0  0  0  0  0  0  0  0  0  0  0  0
   36.4050   25.4690   36.0360 H   0  0  0  0  0  0  0  0  0  0  0  0
   37.5920   26.6540   36.5740 H   0  0  0  0  0  0  0  0  0  0  0  0
   38.3200   24.7240   36.4840 C   0  0  0  0  0  0  0  0  0  0  0  0
   38.0020   24.1990   37.7320 C   0  0  0  0  0  0  0  0  0  0  0  0
   38.9350   23.2520   38.0630 C   0  0  0  0  0  0  0  0  0  0  0  0
   39.7960   23.2000   37.0490 N   0  0  0  0  0  0  0  0  0  0  0  0
   39.4140   24.0740   36.1320 N   0  0  0  0  0  0  0  0  0  0  0  0
   37.1780   24.4280   38.4160 H   0  0  0  0  0  0  0  0  0  0  0  0
   39.0160   22.6390   38.9450 H   0  0  0  0  0  0  0  0  0  0  0  0
   40.9760   22.3580   36.8970 C   0  0  0  0  0  0  0  0  0  0  0  0
   40.9370   21.6780   35.6910 F   0  0  0  0  0  0  0  0  0  0  0  0
   41.0770   21.4280   37.9220 F   0  0  0  0  0  0  0  0  0  0  0  0
   42.1430   23.1190   36.8920 F   0  0  0  0  0  0  0  0  0  0  0  0
  1 20  1  0  0  0  0
  2  1  1  0  0  0  0
  3  1  1  0  0  0  0
  4  1  1  0  0  0  0
  4  9  1  0  0  0  0
  5  4  2  0  0  0  0
  6  5  1  0  0  0  0
  6  7  2  0  0  0  0
  7  8  1  0  0  0  0
  8  9  2  0  0  0  0
  8 12  1  0  0  0  0
 10  5  1  0  0  0  0
 11  6  1  0  0  0  0
 12 19  1  0  0  0  0
 12 13  2  0  0  0  0
 13 14  1  0  0  0  0
 13 15  1  0  0  0  0
 15 16  1  0  0  0  0
 17 18  1  0  0  0  0
 17 15  2  0  0  0  0
 19 17  1  0  0  0  0
 20 21  1  0  0  0  0
 20 23  1  0  0  0  0
 20 22  1  0  0  0  0
 23 24  1  0  0  0  0
 24 25  2  0  0  0  0
 24 28  1  0  0  0  0
 25 29  1  0  0  0  0
 26 25  1  0  0  0  0
 27 23  2  0  0  0  0
 27 26  1  0  0  0  0
 30 26  1  0  0  0  0
 30 32  1  0  0  0  0
 31 30  1  0  0  0  0
 33 30  1  0  0  0  0
M  END
>  <minimizedAffinity>
-5.49188614

$$$$

 OpenBabel03272500283D

 33 35  0  0  0  0  0  0  0  0999 V2000
   38.8450   24.4240   32.3920 C   0  0  0  0  0  0  0  0  0  0  0  0
   39.5810   24.5000   31.5410 H   0  0  0  0  0  0  0  0  0  0  0  0
   38.7940   23.3040   32.5470 H   0  0  0  0  0  0  0  0  0  0  0  0
   37.5780   24.9030   31.9150 C   0  0  0  0  0  0  0  0  0  0  0  0
   36.5780   24.0430   31.5950 C   0  0  0  0  0  0  0  0  0  0  0  0
   35.3340   24.4900   31.1270 C   0  0  0  0  0  0  0  0  0  0  0  0
   35.2120   25.8580   31.0210 N   0  0  0  0  0  0  0  0  0  0  0  0
   36.2130   26.6990   31.3420 C   0  0  0  0  0  0  0  0  0  0  0  0
   37.3820   26.1930   31.7850 N   0  0  0  0  0  0  0  0  0  0  0  0
   36.6410   22.9550   31.6680 H   0  0  0  0  0  0  0  0  0  0  0  0
   34.5340   23.8140   30.8710 H   0  0  0  0  0  0  0  0  0  0  0  0
   36.0510   28.1440   31.2180 C   0  0  0  0  0  0  0  0  0  0  0  0
   36.8050   28.9210   30.3380 C   0  0  0  0  0  0  0  0  0  0  0  0
   37.5930   28.6330   29.6310 H   0  0  0  0  0  0  0  0  0  0  0  0
   36.4130   30.2410   30.4580 C   0  0  0  0  0  0  0  0  0  0  0  0
   36.6990   31.1630   30.0030 H   0  0  0  0  0  0  0  0  0  0  0  0
   35.4240   30.2040   31.4210 C   0  0  0  0  0  0  0  0  0  0  0  0
   34.7870   30.9290   31.8960 H   0  0  0  0  0  0  0  0  0  0  0  0
   35.2620   28.9860   31.8140 O   0  0  0  0  0  0  0  0  0  0  0  0
   39.4260   24.9720   33.6210 C   0  0  0  0  0  0  0  0  0  0  0  0
   39.2780   26.0760   33.7790 H   0  0  0  0  0  0  0  0  0  0  0  0
   40.5530   24.8740   33.6000 H   0  0  0  0  0  0  0  0  0  0  0  0
   39.0250   24.2900   34.8600 C   0  0  0  0  0  0  0  0  0  0  0  0
   38.6500   22.9500   34.8340 C   0  0  0  0  0  0  0  0  0  0  0  0
   38.3260   22.5580   36.1060 C   0  0  0  0  0  0  0  0  0  0  0  0
   38.4980   23.6240   36.8850 N   0  0  0  0  0  0  0  0  0  0  0  0
   38.9100   24.6300   36.1300 N   0  0  0  0  0  0  0  0  0  0  0  0
   38.5870   22.2410   34.0020 H   0  0  0  0  0  0  0  0  0  0  0  0
   37.9930   21.6010   36.4710 H   0  0  0  0  0  0  0  0  0  0  0  0
   38.2920   23.7450   38.3220 C   0  0  0  0  0  0  0  0  0  0  0  0
   37.3170   22.8610   38.7510 F   0  0  0  0  0  0  0  0  0  0  0  0
   37.9080   25.0300   38.6780 F   0  0  0  0  0  0  0  0  0  0  0  0
   39.4540   23.4350   39.0270 F   0  0  0  0  0  0  0  0  0  0  0  0
  1  3  1  0  0  0  0
  1 20  1  0  0  0  0
  2  1  1  0  0  0  0
  4  1  1  0  0  0  0
  5 10  1  0  0  0  0
  5  4  2  0  0  0  0
  6  5  1  0  0  0  0
  7  6  2  0  0  0  0
  7  8  1  0  0  0  0
  8  9  2  0  0  0  0
  9  4  1  0  0  0  0
 11  6  1  0  0  0  0
 12  8  1  0  0  0  0
 12 19  1  0  0  0  0
 13 15  1  0  0  0  0
 13 12  2  0  0  0  0
 14 13  1  0  0  0  0
 15 17  2  0  0  0  0
 16 15  1  0  0  0  0
 17 19  1  0  0  0  0
 17 18  1  0  0  0  0
 20 21  1  0  0  0  0
 20 23  1  0  0  0  0
 22 20  1  0  0  0  0
 23 27  2  0  0  0  0
 24 23  1  0  0  0  0
 24 25  2  0  0  0  0
 25 29  1  0  0  0  0
 25 26  1  0  0  0  0
 26 30  1  0  0  0  0
 27 26  1  0  0  0  0
 28 24  1  0  0  0  0
 30 32  1  0  0  0  0
 30 31  1  0  0  0  0
 30 33  1  0  0  0  0
M  END
>  <minimizedAffinity>
-5.34906101

$$$$

 OpenBabel03272500283D

 33 35  0  0  0  0  0  0  0  0999 V2000
   38.1800   26.6600   33.6540 C   0  0  0  0  0  0  0  0  0  0  0  0
   38.0410   26.9680   34.7290 H   0  0  0  0  0  0  0  0  0  0  0  0
   39.2780   26.8780   33.4960 H   0  0  0  0  0  0  0  0  0  0  0  0
   37.3910   27.5420   32.8420 C   0  0  0  0  0  0  0  0  0  0  0  0
   37.7990   27.9040   31.5980 C   0  0  0  0  0  0  0  0  0  0  0  0
   37.0440   28.7650   30.7890 C   0  0  0  0  0  0  0  0  0  0  0  0
   35.8680   29.2080   31.3530 N   0  0  0  0  0  0  0  0  0  0  0  0
   35.4770   28.8420   32.5870 C   0  0  0  0  0  0  0  0  0  0  0  0
   36.2570   28.0090   33.3060 N   0  0  0  0  0  0  0  0  0  0  0  0
   38.7240   27.5710   31.1210 H   0  0  0  0  0  0  0  0  0  0  0  0
   37.3600   29.0570   29.8010 H   0  0  0  0  0  0  0  0  0  0  0  0
   34.2240   29.3300   33.1560 C   0  0  0  0  0  0  0  0  0  0  0  0
   34.0750   29.6470   34.5070 C   0  0  0  0  0  0  0  0  0  0  0  0
   34.7950   29.6000   35.3320 H   0  0  0  0  0  0  0  0  0  0  0  0
   32.7800   30.0780   34.7250 C   0  0  0  0  0  0  0  0  0  0  0  0
   32.2230   30.4150   35.5700 H   0  0  0  0  0  0  0  0  0  0  0  0
   32.1930   30.0000   33.4770 C   0  0  0  0  0  0  0  0  0  0  0  0
   31.2190   30.2090   33.0720 H   0  0  0  0  0  0  0  0  0  0  0  0
   33.0620   29.5700   32.6270 O   0  0  0  0  0  0  0  0  0  0  0  0
   38.0370   25.2060   33.5180 C   0  0  0  0  0  0  0  0  0  0  0  0
   38.7080   24.7210   32.7560 H   0  0  0  0  0  0  0  0  0  0  0  0
   37.0030   24.9480   33.1380 H   0  0  0  0  0  0  0  0  0  0  0  0
   38.1650   24.4470   34.7700 C   0  0  0  0  0  0  0  0  0  0  0  0
   38.3890   23.0740   34.7390 C   0  0  0  0  0  0  0  0  0  0  0  0
   38.4690   22.6120   36.0260 C   0  0  0  0  0  0  0  0  0  0  0  0
   38.2990   23.6690   36.8190 N   0  0  0  0  0  0  0  0  0  0  0  0
   38.1220   24.7360   36.0570 N   0  0  0  0  0  0  0  0  0  0  0  0
   38.4990   22.3860   33.8950 H   0  0  0  0  0  0  0  0  0  0  0  0
   38.6340   21.6130   36.3930 H   0  0  0  0  0  0  0  0  0  0  0  0
   38.2950   23.7250   38.2740 C   0  0  0  0  0  0  0  0  0  0  0  0
   37.9870   25.0020   38.7120 F   0  0  0  0  0  0  0  0  0  0  0  0
   39.5250   23.3630   38.8050 F   0  0  0  0  0  0  0  0  0  0  0  0
   37.3300   22.8730   38.8110 F   0  0  0  0  0  0  0  0  0  0  0  0
  1  2  1  0  0  0  0
  3  1  1  0  0  0  0
  4  9  1  0  0  0  0
  4  1  1  0  0  0  0
  5  4  2  0  0  0  0
  6  7  2  0  0  0  0
  6  5  1  0  0  0  0
  7  8  1  0  0  0  0
  8 12  1  0  0  0  0
  8  9  2  0  0  0  0
 10  5  1  0  0  0  0
 11  6  1  0  0  0  0
 12 13  2  0  0  0  0
 13 15  1  0  0  0  0
 13 14  1  0  0  0  0
 15 16  1  0  0  0  0
 17 15  2  0  0  0  0
 18 17  1  0  0  0  0
 19 12  1  0  0  0  0
 19 17  1  0  0  0  0
 20  1  1  0  0  0  0
 20 23  1  0  0  0  0
 21 20  1  0  0  0  0
 22 20  1  0  0  0  0
 23 27  2  0  0  0  0
 24 23  1  0  0  0  0
 24 25  2  0  0  0  0
 25 29  1  0  0  0  0
 25 26  1  0  0  0  0
 26 30  1  0  0  0  0
 27 26  1  0  0  0  0
 28 24  1  0  0  0  0
 30 31  1  0  0  0  0
 30 32  1  0  0  0  0
 30 33  1  0  0  0  0
M  END
>  <minimizedAffinity>
-5.32054806

$$$$

 OpenBabel03272500283D

 33 35  0  0  0  0  0  0  0  0999 V2000
   37.0480   22.9530   31.2890 C   0  0  0  0  0  0  0  0  0  0  0  0
   37.0580   22.1720   30.4760 H   0  0  0  0  0  0  0  0  0  0  0  0
   38.1080   23.3440   31.2390 H   0  0  0  0  0  0  0  0  0  0  0  0
   36.8400   22.2780   32.5380 C   0  0  0  0  0  0  0  0  0  0  0  0
   35.8540   21.3560   32.6820 C   0  0  0  0  0  0  0  0  0  0  0  0
   35.6330   20.6850   33.8940 C   0  0  0  0  0  0  0  0  0  0  0  0
   36.4900   21.0350   34.9140 N   0  0  0  0  0  0  0  0  0  0  0  0
   37.4630   21.9510   34.7570 C   0  0  0  0  0  0  0  0  0  0  0  0
   37.6130   22.5540   33.5600 N   0  0  0  0  0  0  0  0  0  0  0  0
   35.1580   21.0550   31.8940 H   0  0  0  0  0  0  0  0  0  0  0  0
   34.8530   19.9520   34.0170 H   0  0  0  0  0  0  0  0  0  0  0  0
   38.3540   22.2990   35.8600 C   0  0  0  0  0  0  0  0  0  0  0  0
   37.9620   23.1030   36.9300 C   0  0  0  0  0  0  0  0  0  0  0  0
   37.0010   23.5880   37.1410 H   0  0  0  0  0  0  0  0  0  0  0  0
   39.0270   23.2410   37.8000 C   0  0  0  0  0  0  0  0  0  0  0  0
   39.1930   23.7480   38.7240 H   0  0  0  0  0  0  0  0  0  0  0  0
   40.0330   22.5040   37.2070 C   0  0  0  0  0  0  0  0  0  0  0  0
   41.0560   22.2700   37.4440 H   0  0  0  0  0  0  0  0  0  0  0  0
   39.5910   21.9920   36.1090 O   0  0  0  0  0  0  0  0  0  0  0  0
   36.1880   24.0770   30.9050 C   0  0  0  0  0  0  0  0  0  0  0  0
   35.0870   23.8520   30.8580 H   0  0  0  0  0  0  0  0  0  0  0  0
   36.4200   24.4060   29.8480 H   0  0  0  0  0  0  0  0  0  0  0  0
   36.3580   25.2960   31.7100 C   0  0  0  0  0  0  0  0  0  0  0  0
   35.8860   26.5180   31.2420 C   0  0  0  0  0  0  0  0  0  0  0  0
   36.1670   27.4840   32.1730 C   0  0  0  0  0  0  0  0  0  0  0  0
   36.7910   26.8710   33.1770 N   0  0  0  0  0  0  0  0  0  0  0  0
   36.8910   25.5850   32.8820 N   0  0  0  0  0  0  0  0  0  0  0  0
   35.3690   26.7770   30.3130 H   0  0  0  0  0  0  0  0  0  0  0  0
   35.9560   28.5400   32.1580 H   0  0  0  0  0  0  0  0  0  0  0  0
   37.3030   27.4420   34.4150 C   0  0  0  0  0  0  0  0  0  0  0  0
   38.6680   27.6540   34.3260 F   0  0  0  0  0  0  0  0  0  0  0  0
   37.0570   26.6140   35.5010 F   0  0  0  0  0  0  0  0  0  0  0  0
   36.7200   28.6810   34.6800 F   0  0  0  0  0  0  0  0  0  0  0  0
  1  4  1  0  0  0  0
  2  1  1  0  0  0  0
  3  1  1  0  0  0  0
  4  5  2  0  0  0  0
  4  9  1  0  0  0  0
  5  6  1  0  0  0  0
  6 11  1  0  0  0  0
  6  7  2  0  0  0  0
  8  7  1  0  0  0  0
  8 12  1  0  0  0  0
  9  8  2  0  0  0  0
 10  5  1  0  0  0  0
 12 19  1  0  0  0  0
 12 13  2  0  0  0  0
 13 14  1  0  0  0  0
 13 15  1  0  0  0  0
 15 16  1  0  0  0  0
 17 18  1  0  0  0  0
 17 15  2  0  0  0  0
 19 17  1  0  0  0  0
 20  1  1  0  0  0  0
 20 23  1  0  0  0  0
 21 20  1  0  0  0  0
 22 20  1  0  0  0  0
 23 27  2  0  0  0  0
 24 23  1  0  0  0  0
 24 25  2  0  0  0  0
 25 26  1  0  0  0  0
 26 30  1  0  0  0  0
 27 26  1  0  0  0  0
 28 24  1  0  0  0  0
 29 25  1  0  0  0  0
 30 33  1  0  0  0  0
 30 32  1  0  0  0  0
 31 30  1  0  0  0  0
M  END
>  <minimizedAffinity>
-5.29124784

$$$$

 OpenBabel03272500283D

 33 35  0  0  0  0  0  0  0  0999 V2000
   36.8870   28.0960   34.6530 C   0  0  0  0  0  0  0  0  0  0  0  0
   37.8230   28.7260   34.6590 H   0  0  0  0  0  0  0  0  0  0  0  0
   36.5310   28.2090   35.7200 H   0  0  0  0  0  0  0  0  0  0  0  0
   37.2800   26.7360   34.4160 C   0  0  0  0  0  0  0  0  0  0  0  0
   37.1460   26.1700   33.1890 C   0  0  0  0  0  0  0  0  0  0  0  0
   37.5230   24.8440   32.9360 C   0  0  0  0  0  0  0  0  0  0  0  0
   38.0350   24.1690   34.0230 N   0  0  0  0  0  0  0  0  0  0  0  0
   38.1620   24.7430   35.2340 C   0  0  0  0  0  0  0  0  0  0  0  0
   37.7770   26.0250   35.3990 N   0  0  0  0  0  0  0  0  0  0  0  0
   36.7450   26.6760   32.3070 H   0  0  0  0  0  0  0  0  0  0  0  0
   37.4200   24.3870   31.9650 H   0  0  0  0  0  0  0  0  0  0  0  0
   38.7090   24.0000   36.3650 C   0  0  0  0  0  0  0  0  0  0  0  0
   38.2120   24.1190   37.6640 C   0  0  0  0  0  0  0  0  0  0  0  0
   37.3930   24.7320   38.0590 H   0  0  0  0  0  0  0  0  0  0  0  0
   38.9390   23.2900   38.4980 C   0  0  0  0  0  0  0  0  0  0  0  0
   38.9230   23.0550   39.5390 H   0  0  0  0  0  0  0  0  0  0  0  0
   39.8580   22.6980   37.6540 C   0  0  0  0  0  0  0  0  0  0  0  0
   40.6540   21.9830   37.7650 H   0  0  0  0  0  0  0  0  0  0  0  0
   39.6770   23.1400   36.4550 O   0  0  0  0  0  0  0  0  0  0  0  0
   35.8560   28.7230   33.8180 C   0  0  0  0  0  0  0  0  0  0  0  0
   35.1860   28.0130   33.2600 H   0  0  0  0  0  0  0  0  0  0  0  0
   36.3350   29.3200   32.9860 H   0  0  0  0  0  0  0  0  0  0  0  0
   34.9960   29.6920   34.5120 C   0  0  0  0  0  0  0  0  0  0  0  0
   33.6110   29.5960   34.4170 C   0  0  0  0  0  0  0  0  0  0  0  0
   33.0480   30.6080   35.1490 C   0  0  0  0  0  0  0  0  0  0  0  0
   34.0570   31.3010   35.6750 N   0  0  0  0  0  0  0  0  0  0  0  0
   35.1920   30.7420   35.2870 N   0  0  0  0  0  0  0  0  0  0  0  0
   32.9780   28.8810   33.8810 H   0  0  0  0  0  0  0  0  0  0  0  0
   32.0110   30.8520   35.3080 H   0  0  0  0  0  0  0  0  0  0  0  0
   34.0050   32.4750   36.5350 C   0  0  0  0  0  0  0  0  0  0  0  0
   33.3850   33.5290   35.8840 F   0  0  0  0  0  0  0  0  0  0  0  0
   35.2740   32.8830   36.9220 F   0  0  0  0  0  0  0  0  0  0  0  0
   33.2650   32.2250   37.6890 F   0  0  0  0  0  0  0  0  0  0  0  0
  1  2  1  0  0  0  0
  1  3  1  0  0  0  0
  4  1  1  0  0  0  0
  4  9  1  0  0  0  0
  5  4  2  0  0  0  0
  6  5  1  0  0  0  0
  6  7  2  0  0  0  0
  7  8  1  0  0  0  0
  8  9  2  0  0  0  0
  8 12  1  0  0  0  0
 10  5  1  0  0  0  0
 11  6  1  0  0  0  0
 12 19  1  0  0  0  0
 12 13  2  0  0  0  0
 13 14  1  0  0  0  0
 13 15  1  0  0  0  0
 15 16  1  0  0  0  0
 17 18  1  0  0  0  0
 17 15  2  0  0  0  0
 19 17  1  0  0  0  0
 20 23  1  0  0  0  0
 20  1  1  0  0  0  0
 21 20  1  0  0  0  0
 22 20  1  0  0  0  0
 23 27  2  0  0  0  0
 24 23  1  0  0  0  0
 24 25  2  0  0  0  0
 25 29  1  0  0  0  0
 25 26  1  0  0  0  0
 26 30  1  0  0  0  0
 27 26  1  0  0  0  0
 28 24  1  0  0  0  0
 30 32  1  0  0  0  0
 30 33  1  0  0  0  0
 31 30  1  0  0  0  0
M  END
>  <minimizedAffinity>
-5.24758005

$$$$
