
 OpenBabel03272507113D

 26 28  0  0  0  0  0  0  0  0999 V2000
   37.2800   26.3950   33.7990 C   0  0  0  0  0  0  0  0  0  0  0  0
   37.6430   27.4740   34.5630 C   0  0  0  0  0  0  0  0  0  0  0  0
   38.1660   26.9760   35.7660 C   0  0  0  0  0  0  0  0  0  0  0  0
   38.0830   25.5990   35.6460 C   0  0  0  0  0  0  0  0  0  0  0  0
   37.5620   25.3170   34.4860 O   0  0  0  0  0  0  0  0  0  0  0  0
   37.6020   28.5590   34.4170 H   0  0  0  0  0  0  0  0  0  0  0  0
   38.5690   27.4350   36.6510 H   0  0  0  0  0  0  0  0  0  0  0  0
   38.5050   24.5980   36.6450 C   0  0  0  0  0  0  0  0  0  0  0  0
   37.9850   24.4520   37.9140 C   0  0  0  0  0  0  0  0  0  0  0  0
   37.2000   25.0630   38.3190 H   0  0  0  0  0  0  0  0  0  0  0  0
   38.6460   23.4070   38.5300 C   0  0  0  0  0  0  0  0  0  0  0  0
   38.4190   23.0920   39.5390 H   0  0  0  0  0  0  0  0  0  0  0  0
   39.5600   22.9600   37.5770 C   0  0  0  0  0  0  0  0  0  0  0  0
   40.2270   22.1310   37.7920 H   0  0  0  0  0  0  0  0  0  0  0  0
   39.4470   23.6820   36.4870 O   0  0  0  0  0  0  0  0  0  0  0  0
   36.6990   26.5410   32.4810 C   0  0  0  0  0  0  0  0  0  0  0  0
   36.5310   25.5370   31.7760 O   0  0  0  0  0  0  0  0  0  0  0  0
   36.3410   27.8920   32.0670 C   0  0  0  0  0  0  0  0  0  0  0  0
   37.2170   28.5170   31.1800 C   0  0  0  0  0  0  0  0  0  0  0  0
   36.9180   29.8180   30.7510 C   0  0  0  0  0  0  0  0  0  0  0  0
   35.7610   30.3830   31.2500 N   0  0  0  0  0  0  0  0  0  0  0  0
   34.9450   29.7590   32.0970 C   0  0  0  0  0  0  0  0  0  0  0  0
   35.2310   28.5130   32.5080 N   0  0  0  0  0  0  0  0  0  0  0  0
   38.1200   28.0640   30.7970 H   0  0  0  0  0  0  0  0  0  0  0  0
   37.5690   30.3350   30.0670 H   0  0  0  0  0  0  0  0  0  0  0  0
   34.0800   30.3110   32.4080 H   0  0  0  0  0  0  0  0  0  0  0  0
  1  5  1  0  0  0  0
  1  2  2  0  0  0  0
  2  3  1  0  0  0  0
  3  7  1  0  0  0  0
  4  3  2  0  0  0  0
  4  8  1  0  0  0  0
  5  4  1  0  0  0  0
  6  2  1  0  0  0  0
  8  9  2  0  0  0  0
  9 10  1  0  0  0  0
  9 11  1  0  0  0  0
 11 12  1  0  0  0  0
 13 14  1  0  0  0  0
 13 11  2  0  0  0  0
 15  8  1  0  0  0  0
 15 13  1  0  0  0  0
 16  1  1  0  0  0  0
 17 16  2  0  0  0  0
 18 16  1  0  0  0  0
 18 23  1  0  0  0  0
 19 18  2  0  0  0  0
 20 19  1  0  0  0  0
 20 21  2  0  0  0  0
 21 22  1  0  0  0  0
 22 26  1  0  0  0  0
 22 23  2  0  0  0  0
 24 19  1  0  0  0  0
 25 20  1  0  0  0  0
M  END
>  <minimizedAffinity>
-4.91998959

$$$$

 OpenBabel03272507113D

 26 28  0  0  0  0  0  0  0  0999 V2000
   38.0110   25.4670   36.0180 C   0  0  0  0  0  0  0  0  0  0  0  0
   38.4840   26.6990   36.3910 C   0  0  0  0  0  0  0  0  0  0  0  0
   38.1210   27.6070   35.3840 C   0  0  0  0  0  0  0  0  0  0  0  0
   37.4380   26.8450   34.4500 C   0  0  0  0  0  0  0  0  0  0  0  0
   37.4030   25.6130   34.8690 O   0  0  0  0  0  0  0  0  0  0  0  0
   39.0440   27.0700   37.2560 H   0  0  0  0  0  0  0  0  0  0  0  0
   38.2700   28.6620   35.2420 H   0  0  0  0  0  0  0  0  0  0  0  0
   36.8390   27.3230   33.1880 C   0  0  0  0  0  0  0  0  0  0  0  0
   36.2830   28.5680   32.9770 C   0  0  0  0  0  0  0  0  0  0  0  0
   36.2260   29.3380   33.7230 H   0  0  0  0  0  0  0  0  0  0  0  0
   35.8360   28.6200   31.6710 C   0  0  0  0  0  0  0  0  0  0  0  0
   35.3570   29.4970   31.2570 H   0  0  0  0  0  0  0  0  0  0  0  0
   36.1510   27.3700   31.1410 C   0  0  0  0  0  0  0  0  0  0  0  0
   35.9110   27.1250   30.1120 H   0  0  0  0  0  0  0  0  0  0  0  0
   36.7380   26.6390   32.0600 O   0  0  0  0  0  0  0  0  0  0  0  0
   38.2080   24.2850   36.8320 C   0  0  0  0  0  0  0  0  0  0  0  0
   37.4090   24.0360   37.7440 O   0  0  0  0  0  0  0  0  0  0  0  0
   39.3600   23.4510   36.5120 C   0  0  0  0  0  0  0  0  0  0  0  0
   39.9320   22.7570   37.5780 C   0  0  0  0  0  0  0  0  0  0  0  0
   41.0430   21.9410   37.3230 C   0  0  0  0  0  0  0  0  0  0  0  0
   41.4870   21.8900   36.0160 N   0  0  0  0  0  0  0  0  0  0  0  0
   40.9180   22.5660   35.0210 C   0  0  0  0  0  0  0  0  0  0  0  0
   39.8530   23.3490   35.2640 N   0  0  0  0  0  0  0  0  0  0  0  0
   39.5760   22.8050   38.5960 H   0  0  0  0  0  0  0  0  0  0  0  0
   41.5140   21.3880   38.1180 H   0  0  0  0  0  0  0  0  0  0  0  0
   41.3610   22.4390   34.0520 H   0  0  0  0  0  0  0  0  0  0  0  0
  1  2  2  0  0  0  0
  1 16  1  0  0  0  0
  2  6  1  0  0  0  0
  3  2  1  0  0  0  0
  4  5  1  0  0  0  0
  4  3  2  0  0  0  0
  5  1  1  0  0  0  0
  7  3  1  0  0  0  0
  8  4  1  0  0  0  0
  9  8  2  0  0  0  0
  9 10  1  0  0  0  0
 11  9  1  0  0  0  0
 12 11  1  0  0  0  0
 13 11  2  0  0  0  0
 13 15  1  0  0  0  0
 14 13  1  0  0  0  0
 15  8  1  0  0  0  0
 16 17  2  0  0  0  0
 18 16  1  0  0  0  0
 18 19  1  0  0  0  0
 19 24  1  0  0  0  0
 20 19  2  0  0  0  0
 20 25  1  0  0  0  0
 21 20  1  0  0  0  0
 22 23  1  0  0  0  0
 22 21  2  0  0  0  0
 23 18  2  0  0  0  0
 26 22  1  0  0  0  0
M  END
>  <minimizedAffinity>
-4.89015436

$$$$

 OpenBabel03272507113D

 26 28  0  0  0  0  0  0  0  0999 V2000
   37.9940   26.5920   33.9970 C   0  0  0  0  0  0  0  0  0  0  0  0
   38.0400   27.6010   34.9250 C   0  0  0  0  0  0  0  0  0  0  0  0
   38.2960   27.0090   36.1720 C   0  0  0  0  0  0  0  0  0  0  0  0
   38.3900   25.6530   35.9080 C   0  0  0  0  0  0  0  0  0  0  0  0
   38.2080   25.4670   34.6310 O   0  0  0  0  0  0  0  0  0  0  0  0
   37.9230   28.6880   34.8740 H   0  0  0  0  0  0  0  0  0  0  0  0
   38.4150   27.3920   37.1690 H   0  0  0  0  0  0  0  0  0  0  0  0
   38.6530   24.5780   36.8850 C   0  0  0  0  0  0  0  0  0  0  0  0
   38.0240   24.4210   38.1030 C   0  0  0  0  0  0  0  0  0  0  0  0
   37.2600   25.0750   38.4770 H   0  0  0  0  0  0  0  0  0  0  0  0
   38.5520   23.3010   38.7150 C   0  0  0  0  0  0  0  0  0  0  0  0
   38.2220   22.9620   39.6870 H   0  0  0  0  0  0  0  0  0  0  0  0
   39.5010   22.8220   37.8130 C   0  0  0  0  0  0  0  0  0  0  0  0
   40.0830   21.9330   38.0370 H   0  0  0  0  0  0  0  0  0  0  0  0
   39.5310   23.5970   36.7540 O   0  0  0  0  0  0  0  0  0  0  0  0
   37.7470   26.8450   32.5930 C   0  0  0  0  0  0  0  0  0  0  0  0
   38.2830   27.8190   32.0480 O   0  0  0  0  0  0  0  0  0  0  0  0
   36.8640   25.9130   31.9030 C   0  0  0  0  0  0  0  0  0  0  0  0
   37.3920   24.6500   31.6320 C   0  0  0  0  0  0  0  0  0  0  0  0
   36.5820   23.7170   30.9680 C   0  0  0  0  0  0  0  0  0  0  0  0
   35.3080   24.1310   30.6320 N   0  0  0  0  0  0  0  0  0  0  0  0
   34.8350   25.3440   30.9050 C   0  0  0  0  0  0  0  0  0  0  0  0
   35.6100   26.2400   31.5410 N   0  0  0  0  0  0  0  0  0  0  0  0
   38.3900   24.3390   31.8990 H   0  0  0  0  0  0  0  0  0  0  0  0
   36.9530   22.7320   30.7400 H   0  0  0  0  0  0  0  0  0  0  0  0
   33.8290   25.5390   30.5890 H   0  0  0  0  0  0  0  0  0  0  0  0
  1  5  1  0  0  0  0
  1  2  2  0  0  0  0
  2  3  1  0  0  0  0
  3  7  1  0  0  0  0
  4  3  2  0  0  0  0
  4  8  1  0  0  0  0
  5  4  1  0  0  0  0
  6  2  1  0  0  0  0
  8  9  2  0  0  0  0
  9 10  1  0  0  0  0
  9 11  1  0  0  0  0
 11 12  1  0  0  0  0
 13 14  1  0  0  0  0
 13 11  2  0  0  0  0
 15  8  1  0  0  0  0
 15 13  1  0  0  0  0
 16  1  1  0  0  0  0
 17 16  2  0  0  0  0
 18 16  1  0  0  0  0
 19 24  1  0  0  0  0
 19 18  1  0  0  0  0
 20 19  2  0  0  0  0
 21 22  2  0  0  0  0
 21 20  1  0  0  0  0
 22 23  1  0  0  0  0
 23 18  2  0  0  0  0
 25 20  1  0  0  0  0
 26 22  1  0  0  0  0
M  END
>  <minimizedAffinity>
-4.8538084

$$$$

 OpenBabel03272507113D

 26 28  0  0  0  0  0  0  0  0999 V2000
   36.9270   25.6330   31.5720 C   0  0  0  0  0  0  0  0  0  0  0  0
   35.6590   25.8570   31.0990 C   0  0  0  0  0  0  0  0  0  0  0  0
   35.0310   24.6070   30.9830 C   0  0  0  0  0  0  0  0  0  0  0  0
   35.9820   23.6920   31.4010 C   0  0  0  0  0  0  0  0  0  0  0  0
   37.0620   24.3410   31.7320 O   0  0  0  0  0  0  0  0  0  0  0  0
   35.0970   26.7550   30.8220 H   0  0  0  0  0  0  0  0  0  0  0  0
   34.0550   24.2900   30.6620 H   0  0  0  0  0  0  0  0  0  0  0  0
   35.8270   22.2260   31.4730 C   0  0  0  0  0  0  0  0  0  0  0  0
   35.0650   21.5370   32.3950 C   0  0  0  0  0  0  0  0  0  0  0  0
   34.4910   22.0030   33.1730 H   0  0  0  0  0  0  0  0  0  0  0  0
   35.1840   20.1870   32.1240 C   0  0  0  0  0  0  0  0  0  0  0  0
   34.6770   19.4320   32.7090 H   0  0  0  0  0  0  0  0  0  0  0  0
   36.0360   20.1240   31.0220 C   0  0  0  0  0  0  0  0  0  0  0  0
   36.3100   19.1690   30.5860 H   0  0  0  0  0  0  0  0  0  0  0  0
   36.3910   21.3370   30.6710 O   0  0  0  0  0  0  0  0  0  0  0  0
   37.8630   26.7110   31.8120 C   0  0  0  0  0  0  0  0  0  0  0  0
   38.2290   27.4190   30.8650 O   0  0  0  0  0  0  0  0  0  0  0  0
   38.3190   26.8920   33.1840 C   0  0  0  0  0  0  0  0  0  0  0  0
   37.3710   27.3650   34.0920 C   0  0  0  0  0  0  0  0  0  0  0  0
   37.7600   27.5560   35.4250 C   0  0  0  0  0  0  0  0  0  0  0  0
   39.0720   27.2570   35.7360 N   0  0  0  0  0  0  0  0  0  0  0  0
   39.9530   26.8070   34.8450 C   0  0  0  0  0  0  0  0  0  0  0  0
   39.5810   26.6230   33.5670 N   0  0  0  0  0  0  0  0  0  0  0  0
   36.3480   27.5960   33.8350 H   0  0  0  0  0  0  0  0  0  0  0  0
   37.0580   27.9200   36.1560 H   0  0  0  0  0  0  0  0  0  0  0  0
   40.9400   26.6130   35.2170 H   0  0  0  0  0  0  0  0  0  0  0  0
  1  5  1  0  0  0  0
  1 16  1  0  0  0  0
  2  1  2  0  0  0  0
  3  2  1  0  0  0  0
  3  4  2  0  0  0  0
  4  8  1  0  0  0  0
  4  5  1  0  0  0  0
  6  2  1  0  0  0  0
  7  3  1  0  0  0  0
  8  9  2  0  0  0  0
  9 10  1  0  0  0  0
 11  9  1  0  0  0  0
 11 12  1  0  0  0  0
 13 11  2  0  0  0  0
 14 13  1  0  0  0  0
 15 13  1  0  0  0  0
 15  8  1  0  0  0  0
 16 18  1  0  0  0  0
 17 16  2  0  0  0  0
 18 23  2  0  0  0  0
 18 19  1  0  0  0  0
 19 20  2  0  0  0  0
 20 21  1  0  0  0  0
 20 25  1  0  0  0  0
 22 26  1  0  0  0  0
 22 21  2  0  0  0  0
 23 22  1  0  0  0  0
 24 19  1  0  0  0  0
M  END
>  <minimizedAffinity>
-4.78500748

$$$$

 OpenBabel03272507113D

 26 28  0  0  0  0  0  0  0  0999 V2000
   37.2060   26.0140   33.5290 C   0  0  0  0  0  0  0  0  0  0  0  0
   37.3180   27.1420   34.3020 C   0  0  0  0  0  0  0  0  0  0  0  0
   37.8200   26.7430   35.5510 C   0  0  0  0  0  0  0  0  0  0  0  0
   37.9810   25.3710   35.4460 C   0  0  0  0  0  0  0  0  0  0  0  0
   37.6110   25.0020   34.2530 O   0  0  0  0  0  0  0  0  0  0  0  0
   37.1060   28.2030   34.1370 H   0  0  0  0  0  0  0  0  0  0  0  0
   38.0670   27.2650   36.4570 H   0  0  0  0  0  0  0  0  0  0  0  0
   38.4850   24.4580   36.4910 C   0  0  0  0  0  0  0  0  0  0  0  0
   37.9960   24.3510   37.7760 C   0  0  0  0  0  0  0  0  0  0  0  0
   37.1790   24.9300   38.1620 H   0  0  0  0  0  0  0  0  0  0  0  0
   38.7360   23.3890   38.4370 C   0  0  0  0  0  0  0  0  0  0  0  0
   38.5470   23.1180   39.4660 H   0  0  0  0  0  0  0  0  0  0  0  0
   39.6630   22.9500   37.4920 C   0  0  0  0  0  0  0  0  0  0  0  0
   40.3880   22.1810   37.7400 H   0  0  0  0  0  0  0  0  0  0  0  0
   39.4840   23.5990   36.3660 O   0  0  0  0  0  0  0  0  0  0  0  0
   36.7150   26.0570   32.1680 C   0  0  0  0  0  0  0  0  0  0  0  0
   35.9260   25.1850   31.7800 O   0  0  0  0  0  0  0  0  0  0  0  0
   37.1930   27.1490   31.3300 C   0  0  0  0  0  0  0  0  0  0  0  0
   38.5440   27.1130   30.9820 C   0  0  0  0  0  0  0  0  0  0  0  0
   39.0530   28.1420   30.1780 C   0  0  0  0  0  0  0  0  0  0  0  0
   38.1620   29.1220   29.7890 N   0  0  0  0  0  0  0  0  0  0  0  0
   36.8780   29.1280   30.1380 C   0  0  0  0  0  0  0  0  0  0  0  0
   36.3890   28.1420   30.9100 N   0  0  0  0  0  0  0  0  0  0  0  0
   39.2310   26.3400   31.2940 H   0  0  0  0  0  0  0  0  0  0  0  0
   40.0900   28.1500   29.8880 H   0  0  0  0  0  0  0  0  0  0  0  0
   36.2940   29.9480   29.7690 H   0  0  0  0  0  0  0  0  0  0  0  0
  1  5  1  0  0  0  0
  1  2  2  0  0  0  0
  2  3  1  0  0  0  0
  3  7  1  0  0  0  0
  4  3  2  0  0  0  0
  4  8  1  0  0  0  0
  5  4  1  0  0  0  0
  6  2  1  0  0  0  0
  8  9  2  0  0  0  0
  9 10  1  0  0  0  0
  9 11  1  0  0  0  0
 11 12  1  0  0  0  0
 13 14  1  0  0  0  0
 13 11  2  0  0  0  0
 15  8  1  0  0  0  0
 15 13  1  0  0  0  0
 16  1  1  0  0  0  0
 17 16  2  0  0  0  0
 18 16  1  0  0  0  0
 19 24  1  0  0  0  0
 19 18  1  0  0  0  0
 20 19  2  0  0  0  0
 21 22  2  0  0  0  0
 21 20  1  0  0  0  0
 22 23  1  0  0  0  0
 23 18  2  0  0  0  0
 25 20  1  0  0  0  0
 26 22  1  0  0  0  0
M  END
>  <minimizedAffinity>
-4.7693038

$$$$

 OpenBabel03272507113D

 26 28  0  0  0  0  0  0  0  0999 V2000
   36.4180   25.9640   31.9090 C   0  0  0  0  0  0  0  0  0  0  0  0
   35.3780   25.9260   31.0170 C   0  0  0  0  0  0  0  0  0  0  0  0
   35.0100   24.5810   30.8620 C   0  0  0  0  0  0  0  0  0  0  0  0
   35.8720   23.8800   31.6900 C   0  0  0  0  0  0  0  0  0  0  0  0
   36.6670   24.7320   32.2730 O   0  0  0  0  0  0  0  0  0  0  0  0
   34.8300   26.6880   30.4530 H   0  0  0  0  0  0  0  0  0  0  0  0
   34.2630   24.0740   30.2790 H   0  0  0  0  0  0  0  0  0  0  0  0
   35.9070   22.4190   31.8960 C   0  0  0  0  0  0  0  0  0  0  0  0
   35.4730   21.4650   30.9990 C   0  0  0  0  0  0  0  0  0  0  0  0
   35.0570   21.6870   30.0350 H   0  0  0  0  0  0  0  0  0  0  0  0
   35.6750   20.2220   31.5670 C   0  0  0  0  0  0  0  0  0  0  0  0
   35.4150   19.3030   31.0590 H   0  0  0  0  0  0  0  0  0  0  0  0
   36.2350   20.4920   32.8140 C   0  0  0  0  0  0  0  0  0  0  0  0
   36.5020   19.6860   33.4910 H   0  0  0  0  0  0  0  0  0  0  0  0
   36.3550   21.7890   32.9700 O   0  0  0  0  0  0  0  0  0  0  0  0
   37.0520   27.2040   32.3050 C   0  0  0  0  0  0  0  0  0  0  0  0
   36.8760   28.2210   31.6200 O   0  0  0  0  0  0  0  0  0  0  0  0
   37.8690   27.1700   33.5110 C   0  0  0  0  0  0  0  0  0  0  0  0
   39.2350   26.9590   33.3240 C   0  0  0  0  0  0  0  0  0  0  0  0
   40.0650   26.9170   34.4530 C   0  0  0  0  0  0  0  0  0  0  0  0
   39.4520   27.0910   35.6780 N   0  0  0  0  0  0  0  0  0  0  0  0
   38.1450   27.2910   35.8230 C   0  0  0  0  0  0  0  0  0  0  0  0
   37.3480   27.3310   34.7410 N   0  0  0  0  0  0  0  0  0  0  0  0
   39.7020   26.8230   32.3590 H   0  0  0  0  0  0  0  0  0  0  0  0
   41.1250   26.7550   34.3500 H   0  0  0  0  0  0  0  0  0  0  0  0
   37.7960   27.4110   36.8300 H   0  0  0  0  0  0  0  0  0  0  0  0
  1  5  1  0  0  0  0
  1 16  1  0  0  0  0
  2  1  2  0  0  0  0
  3  2  1  0  0  0  0
  3  4  2  0  0  0  0
  4  8  1  0  0  0  0
  4  5  1  0  0  0  0
  6  2  1  0  0  0  0
  7  3  1  0  0  0  0
  8 15  1  0  0  0  0
  9 11  1  0  0  0  0
  9  8  2  0  0  0  0
 10  9  1  0  0  0  0
 11 13  2  0  0  0  0
 12 11  1  0  0  0  0
 13 15  1  0  0  0  0
 13 14  1  0  0  0  0
 16 18  1  0  0  0  0
 17 16  2  0  0  0  0
 18 23  1  0  0  0  0
 19 18  2  0  0  0  0
 19 20  1  0  0  0  0
 20 21  2  0  0  0  0
 21 22  1  0  0  0  0
 22 26  1  0  0  0  0
 23 22  2  0  0  0  0
 24 19  1  0  0  0  0
 25 20  1  0  0  0  0
M  END
>  <minimizedAffinity>
-4.72941875

$$$$

 OpenBabel03272507113D

 26 28  0  0  0  0  0  0  0  0999 V2000
   38.5150   25.2970   35.7940 C   0  0  0  0  0  0  0  0  0  0  0  0
   37.7430   24.6450   36.7220 C   0  0  0  0  0  0  0  0  0  0  0  0
   38.4350   23.4830   37.0960 C   0  0  0  0  0  0  0  0  0  0  0  0
   39.6040   23.5100   36.3530 C   0  0  0  0  0  0  0  0  0  0  0  0
   39.5980   24.5840   35.6160 O   0  0  0  0  0  0  0  0  0  0  0  0
   36.7720   24.8500   37.1840 H   0  0  0  0  0  0  0  0  0  0  0  0
   38.2280   22.6790   37.7800 H   0  0  0  0  0  0  0  0  0  0  0  0
   40.6880   22.5090   36.3730 C   0  0  0  0  0  0  0  0  0  0  0  0
   41.1170   21.8040   37.4790 C   0  0  0  0  0  0  0  0  0  0  0  0
   40.6980   21.9090   38.4620 H   0  0  0  0  0  0  0  0  0  0  0  0
   42.1450   20.9710   37.0820 C   0  0  0  0  0  0  0  0  0  0  0  0
   42.6540   20.3100   37.7700 H   0  0  0  0  0  0  0  0  0  0  0  0
   42.2930   21.2220   35.7180 C   0  0  0  0  0  0  0  0  0  0  0  0
   43.0440   20.6980   35.1350 H   0  0  0  0  0  0  0  0  0  0  0  0
   41.4220   22.1270   35.3410 O   0  0  0  0  0  0  0  0  0  0  0  0
   38.1030   26.5450   35.1870 C   0  0  0  0  0  0  0  0  0  0  0  0
   38.3680   27.6130   35.7550 O   0  0  0  0  0  0  0  0  0  0  0  0
   37.3900   26.4560   33.9190 C   0  0  0  0  0  0  0  0  0  0  0  0
   36.8200   27.6390   33.4490 C   0  0  0  0  0  0  0  0  0  0  0  0
   36.1230   27.6070   32.2330 C   0  0  0  0  0  0  0  0  0  0  0  0
   36.0560   26.3860   31.5900 N   0  0  0  0  0  0  0  0  0  0  0  0
   36.6120   25.2750   32.0660 C   0  0  0  0  0  0  0  0  0  0  0  0
   37.2800   25.3050   33.2320 N   0  0  0  0  0  0  0  0  0  0  0  0
   36.8790   28.5880   33.9620 H   0  0  0  0  0  0  0  0  0  0  0  0
   35.6680   28.4980   31.8360 H   0  0  0  0  0  0  0  0  0  0  0  0
   36.4860   24.3930   31.4690 H   0  0  0  0  0  0  0  0  0  0  0  0
  1  2  2  0  0  0  0
  2  3  1  0  0  0  0
  2  6  1  0  0  0  0
  3  7  1  0  0  0  0
  4  8  1  0  0  0  0
  4  3  2  0  0  0  0
  5  1  1  0  0  0  0
  5  4  1  0  0  0  0
  8  9  2  0  0  0  0
  9 10  1  0  0  0  0
 11  9  1  0  0  0  0
 11 12  1  0  0  0  0
 13 11  2  0  0  0  0
 14 13  1  0  0  0  0
 15 13  1  0  0  0  0
 15  8  1  0  0  0  0
 16 17  2  0  0  0  0
 16  1  1  0  0  0  0
 18 16  1  0  0  0  0
 19 18  1  0  0  0  0
 19 24  1  0  0  0  0
 20 19  2  0  0  0  0
 21 22  2  0  0  0  0
 21 20  1  0  0  0  0
 22 23  1  0  0  0  0
 23 18  2  0  0  0  0
 25 20  1  0  0  0  0
 26 22  1  0  0  0  0
M  END
>  <minimizedAffinity>
-4.67673683

$$$$

 OpenBabel03272507113D

 26 28  0  0  0  0  0  0  0  0999 V2000
   37.4380   26.2610   33.6960 C   0  0  0  0  0  0  0  0  0  0  0  0
   37.6540   27.3590   34.4900 C   0  0  0  0  0  0  0  0  0  0  0  0
   38.0980   26.8910   35.7370 C   0  0  0  0  0  0  0  0  0  0  0  0
   38.1210   25.5120   35.6100 C   0  0  0  0  0  0  0  0  0  0  0  0
   37.7300   25.2020   34.4070 O   0  0  0  0  0  0  0  0  0  0  0  0
   37.5520   28.4390   34.3400 H   0  0  0  0  0  0  0  0  0  0  0  0
   38.3850   27.3720   36.6540 H   0  0  0  0  0  0  0  0  0  0  0  0
   38.5190   24.5370   36.6440 C   0  0  0  0  0  0  0  0  0  0  0  0
   37.9460   24.4030   37.8920 C   0  0  0  0  0  0  0  0  0  0  0  0
   37.1330   25.0040   38.2510 H   0  0  0  0  0  0  0  0  0  0  0  0
   38.6000   23.3820   38.5550 C   0  0  0  0  0  0  0  0  0  0  0  0
   38.3360   23.0790   39.5580 H   0  0  0  0  0  0  0  0  0  0  0  0
   39.5630   22.9370   37.6500 C   0  0  0  0  0  0  0  0  0  0  0  0
   40.2360   22.1250   37.9090 H   0  0  0  0  0  0  0  0  0  0  0  0
   39.4840   23.6370   36.5440 O   0  0  0  0  0  0  0  0  0  0  0  0
   36.9710   26.3750   32.3310 C   0  0  0  0  0  0  0  0  0  0  0  0
   35.9440   27.0250   32.0940 O   0  0  0  0  0  0  0  0  0  0  0  0
   37.7590   25.7020   31.3070 C   0  0  0  0  0  0  0  0  0  0  0  0
   38.7040   26.4850   30.6430 C   0  0  0  0  0  0  0  0  0  0  0  0
   39.4880   25.8850   29.6480 C   0  0  0  0  0  0  0  0  0  0  0  0
   39.2580   24.5450   29.4030 N   0  0  0  0  0  0  0  0  0  0  0  0
   38.3480   23.8260   30.0550 C   0  0  0  0  0  0  0  0  0  0  0  0
   37.5960   24.4000   31.0090 N   0  0  0  0  0  0  0  0  0  0  0  0
   38.8740   27.5330   30.8440 H   0  0  0  0  0  0  0  0  0  0  0  0
   40.2280   26.4550   29.1120 H   0  0  0  0  0  0  0  0  0  0  0  0
   38.2700   22.7950   29.7680 H   0  0  0  0  0  0  0  0  0  0  0  0
  1  5  1  0  0  0  0
  1  2  2  0  0  0  0
  2  3  1  0  0  0  0
  3  7  1  0  0  0  0
  4  3  2  0  0  0  0
  4  8  1  0  0  0  0
  5  4  1  0  0  0  0
  6  2  1  0  0  0  0
  8  9  2  0  0  0  0
  9 10  1  0  0  0  0
  9 11  1  0  0  0  0
 11 12  1  0  0  0  0
 13 14  1  0  0  0  0
 13 11  2  0  0  0  0
 15  8  1  0  0  0  0
 15 13  1  0  0  0  0
 16  1  1  0  0  0  0
 17 16  2  0  0  0  0
 18 16  1  0  0  0  0
 19 24  1  0  0  0  0
 19 18  2  0  0  0  0
 20 19  1  0  0  0  0
 21 20  2  0  0  0  0
 21 22  1  0  0  0  0
 22 23  2  0  0  0  0
 23 18  1  0  0  0  0
 25 20  1  0  0  0  0
 26 22  1  0  0  0  0
M  END
>  <minimizedAffinity>
-4.67254829

$$$$

 OpenBabel03272507113D

 26 28  0  0  0  0  0  0  0  0999 V2000
   37.3870   25.3280   33.5170 C   0  0  0  0  0  0  0  0  0  0  0  0
   37.4340   26.5600   34.1170 C   0  0  0  0  0  0  0  0  0  0  0  0
   37.8900   26.3660   35.4300 C   0  0  0  0  0  0  0  0  0  0  0  0
   38.0930   25.0000   35.5370 C   0  0  0  0  0  0  0  0  0  0  0  0
   37.7850   24.4470   34.3990 O   0  0  0  0  0  0  0  0  0  0  0  0
   37.2020   27.5780   33.7870 H   0  0  0  0  0  0  0  0  0  0  0  0
   38.0830   27.0240   36.2580 H   0  0  0  0  0  0  0  0  0  0  0  0
   38.5740   24.2680   36.7250 C   0  0  0  0  0  0  0  0  0  0  0  0
   38.0380   24.3430   37.9940 C   0  0  0  0  0  0  0  0  0  0  0  0
   37.1940   24.9530   38.2580 H   0  0  0  0  0  0  0  0  0  0  0  0
   38.7710   23.5110   38.8180 C   0  0  0  0  0  0  0  0  0  0  0  0
   38.5470   23.3930   39.8690 H   0  0  0  0  0  0  0  0  0  0  0  0
   39.7420   22.9590   37.9850 C   0  0  0  0  0  0  0  0  0  0  0  0
   40.4720   22.2550   38.3720 H   0  0  0  0  0  0  0  0  0  0  0  0
   39.5940   23.4270   36.7680 O   0  0  0  0  0  0  0  0  0  0  0  0
   36.9550   25.1530   32.1460 C   0  0  0  0  0  0  0  0  0  0  0  0
   36.7310   26.1520   31.4480 O   0  0  0  0  0  0  0  0  0  0  0  0
   36.8130   23.7830   31.6700 C   0  0  0  0  0  0  0  0  0  0  0  0
   37.9770   23.1660   31.2130 C   0  0  0  0  0  0  0  0  0  0  0  0
   37.8930   21.8470   30.7440 C   0  0  0  0  0  0  0  0  0  0  0  0
   36.6450   21.2580   30.7740 N   0  0  0  0  0  0  0  0  0  0  0  0
   35.5520   21.8760   31.2160 C   0  0  0  0  0  0  0  0  0  0  0  0
   35.6310   23.1390   31.6660 N   0  0  0  0  0  0  0  0  0  0  0  0
   38.9480   23.6380   31.1940 H   0  0  0  0  0  0  0  0  0  0  0  0
   38.7690   21.3350   30.3830 H   0  0  0  0  0  0  0  0  0  0  0  0
   34.6440   21.3050   31.1850 H   0  0  0  0  0  0  0  0  0  0  0  0
  1  2  2  0  0  0  0
  1  5  1  0  0  0  0
  2  3  1  0  0  0  0
  3  4  2  0  0  0  0
  3  7  1  0  0  0  0
  4  8  1  0  0  0  0
  5  4  1  0  0  0  0
  6  2  1  0  0  0  0
  8 15  1  0  0  0  0
  8  9  2  0  0  0  0
  9 10  1  0  0  0  0
  9 11  1  0  0  0  0
 11 12  1  0  0  0  0
 13 14  1  0  0  0  0
 13 11  2  0  0  0  0
 15 13  1  0  0  0  0
 16  1  1  0  0  0  0
 17 16  2  0  0  0  0
 18 16  1  0  0  0  0
 19 18  2  0  0  0  0
 20 21  2  0  0  0  0
 20 19  1  0  0  0  0
 21 22  1  0  0  0  0
 22 23  2  0  0  0  0
 23 18  1  0  0  0  0
 24 19  1  0  0  0  0
 25 20  1  0  0  0  0
 26 22  1  0  0  0  0
M  END
>  <minimizedAffinity>
-4.60722828

$$$$
