
 OpenBabel03272506493D

 41 44  0  0  1  0  0  0  0  0999 V2000
   37.5380   25.0160   31.2810 C   0  0  2  0  0  0  0  0  0  0  0  0
   37.5280   23.5960   31.7640 C   0  0  1  0  0  0  0  0  0  0  0  0
   37.9330   23.5880   33.0630 O   0  0  0  0  0  0  0  0  0  0  0  0
   37.9400   24.8900   33.5500 C   0  0  0  0  0  0  0  0  0  0  0  0
   37.1080   25.7260   32.6040 C   0  0  1  0  0  0  0  0  0  0  0  0
   38.5110   25.4150   31.0140 H   0  0  0  0  0  0  0  0  0  0  0  0
   38.1680   23.0150   31.0710 H   0  0  0  0  0  0  0  0  0  0  0  0
   38.9780   25.1780   33.6460 H   0  0  0  0  0  0  0  0  0  0  0  0
   37.4350   24.8310   34.5670 H   0  0  0  0  0  0  0  0  0  0  0  0
   36.0400   25.5580   32.7240 H   0  0  0  0  0  0  0  0  0  0  0  0
   36.5390   25.2180   30.3080 O   0  0  0  0  0  0  0  0  0  0  0  0
   35.7030   25.4050   30.8010 H   0  0  0  0  0  0  0  0  0  0  0  0
   35.7880   23.0060   31.7090 S   0  0  0  0  0  0  0  0  0  0  0  0
   36.2310   19.1690   30.8260 C   0  0  0  0  0  0  0  0  0  0  0  0
   35.8010   18.4850   31.9630 C   0  0  0  0  0  0  0  0  0  0  0  0
   35.3580   19.2370   33.0450 C   0  0  0  0  0  0  0  0  0  0  0  0
   35.3630   20.5990   32.9450 N   0  0  0  0  0  0  0  0  0  0  0  0
   35.7880   21.2200   31.8240 C   0  0  0  0  0  0  0  0  0  0  0  0
   36.2270   20.5170   30.7490 N   0  0  0  0  0  0  0  0  0  0  0  0
   36.5920   18.6660   29.9380 H   0  0  0  0  0  0  0  0  0  0  0  0
   35.8240   17.4170   31.9730 H   0  0  0  0  0  0  0  0  0  0  0  0
   35.0150   18.7510   33.9500 H   0  0  0  0  0  0  0  0  0  0  0  0
   37.5620   27.0220   32.6360 O   0  0  0  0  0  0  0  0  0  0  0  0
   36.8090   28.2500   35.2050 Cl  0  0  0  0  0  0  0  0  0  0  0  0
   36.4060   28.7740   33.5880 C   0  0  0  0  0  0  0  0  0  0  0  0
   36.8300   28.1170   32.4550 C   0  0  0  0  0  0  0  0  0  0  0  0
   36.4670   28.6490   31.2160 C   0  0  0  0  0  0  0  0  0  0  0  0
   35.7070   29.7960   31.1370 C   0  0  0  0  0  0  0  0  0  0  0  0
   35.2750   30.4620   32.2700 C   0  0  0  0  0  0  0  0  0  0  0  0
   35.6370   29.9330   33.4950 C   0  0  0  0  0  0  0  0  0  0  0  0
   36.7490   28.2210   30.2710 H   0  0  0  0  0  0  0  0  0  0  0  0
   35.4000   30.2450   30.2100 H   0  0  0  0  0  0  0  0  0  0  0  0
   34.6780   31.3620   32.2180 H   0  0  0  0  0  0  0  0  0  0  0  0
   35.1930   30.6200   34.7060 C   0  0  0  0  0  0  0  0  0  0  0  0
   35.9060   31.4690   35.4850 C   0  0  0  0  0  0  0  0  0  0  0  0
   36.9500   31.7580   35.2960 H   0  0  0  0  0  0  0  0  0  0  0  0
   35.1480   31.9260   36.5550 C   0  0  0  0  0  0  0  0  0  0  0  0
   35.3950   32.5980   37.3520 H   0  0  0  0  0  0  0  0  0  0  0  0
   33.9440   31.2850   36.3430 C   0  0  0  0  0  0  0  0  0  0  0  0
   33.0260   31.3440   36.9480 H   0  0  0  0  0  0  0  0  0  0  0  0
   34.0030   30.5380   35.2680 O   0  0  0  0  0  0  0  0  0  0  0  0
  1  6  1  6  0  0  0
  1  2  1  0  0  0  0
  1  5  1  0  0  0  0
  2  7  1  6  0  0  0
  2  3  1  0  0  0  0
  3  4  1  0  0  0  0
  4  8  1  0  0  0  0
  4  9  1  0  0  0  0
  5 23  1  0  0  0  0
  5 10  1  1  0  0  0
  5  4  1  0  0  0  0
 11 12  1  0  0  0  0
 11  1  1  0  0  0  0
 13  2  1  0  0  0  0
 13 18  1  0  0  0  0
 14 15  1  0  0  0  0
 15 21  1  0  0  0  0
 15 16  2  0  0  0  0
 16 22  1  0  0  0  0
 17 16  1  0  0  0  0
 18 17  2  0  0  0  0
 19 14  2  0  0  0  0
 19 18  1  0  0  0  0
 20 14  1  0  0  0  0
 25 24  1  0  0  0  0
 26 23  1  0  0  0  0
 26 25  2  0  0  0  0
 27 26  1  0  0  0  0
 28 27  2  0  0  0  0
 28 29  1  0  0  0  0
 29 30  2  0  0  0  0
 30 25  1  0  0  0  0
 30 34  1  0  0  0  0
 31 27  1  0  0  0  0
 32 28  1  0  0  0  0
 33 29  1  0  0  0  0
 34 41  1  0  0  0  0
 34 35  2  0  0  0  0
 35 37  1  0  0  0  0
 36 35  1  0  0  0  0
 37 38  1  0  0  0  0
 39 37  2  0  0  0  0
 39 40  1  0  0  0  0
 41 39  1  0  0  0  0
M  END
>  <minimizedAffinity>
-5.72134304

$$$$

 OpenBabel03272506493D

 41 44  0  0  1  0  0  0  0  0999 V2000
   37.1380   28.0470   33.0440 C   0  0  2  0  0  0  0  0  0  0  0  0
   36.2420   29.0600   32.3950 C   0  0  1  0  0  0  0  0  0  0  0  0
   36.0680   28.6980   31.0950 O   0  0  0  0  0  0  0  0  0  0  0  0
   36.5390   27.4030   30.9100 C   0  0  0  0  0  0  0  0  0  0  0  0
   36.6590   26.7720   32.2790 C   0  0  1  0  0  0  0  0  0  0  0  0
   38.1980   28.1550   32.8380 H   0  0  0  0  0  0  0  0  0  0  0  0
   36.7140   30.0510   32.5450 H   0  0  0  0  0  0  0  0  0  0  0  0
   37.4590   27.4860   30.3460 H   0  0  0  0  0  0  0  0  0  0  0  0
   35.7330   26.8760   30.3060 H   0  0  0  0  0  0  0  0  0  0  0  0
   35.6950   26.4920   32.6970 H   0  0  0  0  0  0  0  0  0  0  0  0
   36.8220   27.9060   34.4100 O   0  0  0  0  0  0  0  0  0  0  0  0
   36.0770   27.2590   34.4590 H   0  0  0  0  0  0  0  0  0  0  0  0
   34.6090   28.9690   33.2320 S   0  0  0  0  0  0  0  0  0  0  0  0
   33.4120   31.2410   36.2510 C   0  0  0  0  0  0  0  0  0  0  0  0
   34.5680   31.8770   36.7030 C   0  0  0  0  0  0  0  0  0  0  0  0
   35.7620   31.5950   36.0530 C   0  0  0  0  0  0  0  0  0  0  0  0
   35.7510   30.7140   35.0080 N   0  0  0  0  0  0  0  0  0  0  0  0
   34.6070   30.1200   34.6030 C   0  0  0  0  0  0  0  0  0  0  0  0
   33.4230   30.3740   35.2160 N   0  0  0  0  0  0  0  0  0  0  0  0
   32.4390   31.4000   36.6970 H   0  0  0  0  0  0  0  0  0  0  0  0
   34.5040   32.5550   37.5270 H   0  0  0  0  0  0  0  0  0  0  0  0
   36.6860   32.0640   36.3680 H   0  0  0  0  0  0  0  0  0  0  0  0
   37.6470   25.8180   32.2460 O   0  0  0  0  0  0  0  0  0  0  0  0
   39.1720   25.6230   34.7580 Cl  0  0  0  0  0  0  0  0  0  0  0  0
   38.2650   24.3780   33.9360 C   0  0  0  0  0  0  0  0  0  0  0  0
   37.5780   24.5950   32.7630 C   0  0  0  0  0  0  0  0  0  0  0  0
   36.8640   23.5280   32.2140 C   0  0  0  0  0  0  0  0  0  0  0  0
   36.8530   22.2960   32.8330 C   0  0  0  0  0  0  0  0  0  0  0  0
   37.5410   22.0670   34.0120 C   0  0  0  0  0  0  0  0  0  0  0  0
   38.2460   23.1270   34.5520 C   0  0  0  0  0  0  0  0  0  0  0  0
   36.2900   23.5890   31.3080 H   0  0  0  0  0  0  0  0  0  0  0  0
   36.3220   21.4430   32.4530 H   0  0  0  0  0  0  0  0  0  0  0  0
   37.5390   21.1050   34.5040 H   0  0  0  0  0  0  0  0  0  0  0  0
   38.9810   22.9100   35.7960 C   0  0  0  0  0  0  0  0  0  0  0  0
   40.1830   22.3050   35.9520 C   0  0  0  0  0  0  0  0  0  0  0  0
   40.7800   21.8850   35.1290 H   0  0  0  0  0  0  0  0  0  0  0  0
   40.5650   22.2830   37.2870 C   0  0  0  0  0  0  0  0  0  0  0  0
   41.4430   21.8880   37.7580 H   0  0  0  0  0  0  0  0  0  0  0  0
   39.5010   22.9170   37.8960 C   0  0  0  0  0  0  0  0  0  0  0  0
   39.3600   23.1310   38.9670 H   0  0  0  0  0  0  0  0  0  0  0  0
   38.6030   23.2660   37.0070 O   0  0  0  0  0  0  0  0  0  0  0  0
  1  6  1  6  0  0  0
  1 11  1  0  0  0  0
  2  7  1  1  0  0  0
  2  1  1  0  0  0  0
  2 13  1  0  0  0  0
  3  2  1  0  0  0  0
  4  3  1  0  0  0  0
  4  5  1  0  0  0  0
  5 10  1  1  0  0  0
  5  1  1  0  0  0  0
  8  4  1  0  0  0  0
  9  4  1  0  0  0  0
 11 12  1  0  0  0  0
 13 18  1  0  0  0  0
 14 20  1  0  0  0  0
 14 15  1  0  0  0  0
 15 21  1  0  0  0  0
 16 22  1  0  0  0  0
 16 15  2  0  0  0  0
 17 16  1  0  0  0  0
 18 17  2  0  0  0  0
 18 19  1  0  0  0  0
 19 14  2  0  0  0  0
 23  5  1  0  0  0  0
 23 26  1  0  0  0  0
 25 30  1  0  0  0  0
 25 24  1  0  0  0  0
 26 25  2  0  0  0  0
 27 26  1  0  0  0  0
 27 28  2  0  0  0  0
 28 29  1  0  0  0  0
 29 33  1  0  0  0  0
 29 30  2  0  0  0  0
 30 34  1  0  0  0  0
 31 27  1  0  0  0  0
 32 28  1  0  0  0  0
 34 35  2  0  0  0  0
 34 41  1  0  0  0  0
 35 37  1  0  0  0  0
 36 35  1  0  0  0  0
 37 38  1  0  0  0  0
 37 39  2  0  0  0  0
 39 40  1  0  0  0  0
 41 39  1  0  0  0  0
M  END
>  <minimizedAffinity>
-5.48673439

$$$$

 OpenBabel03272506493D

 41 44  0  0  1  0  0  0  0  0999 V2000
   37.1030   28.0340   33.0350 C   0  0  2  0  0  0  0  0  0  0  0  0
   36.2080   29.0980   32.4720 C   0  0  1  0  0  0  0  0  0  0  0  0
   35.9880   28.8140   31.1590 O   0  0  0  0  0  0  0  0  0  0  0  0
   36.4300   27.5240   30.8870 C   0  0  0  0  0  0  0  0  0  0  0  0
   36.5780   26.8140   32.2140 C   0  0  1  0  0  0  0  0  0  0  0  0
   38.1580   28.1360   32.8050 H   0  0  0  0  0  0  0  0  0  0  0  0
   36.7020   30.0700   32.6640 H   0  0  0  0  0  0  0  0  0  0  0  0
   37.3340   27.6240   30.3020 H   0  0  0  0  0  0  0  0  0  0  0  0
   35.5970   27.0460   30.2790 H   0  0  0  0  0  0  0  0  0  0  0  0
   35.6210   26.5270   32.6450 H   0  0  0  0  0  0  0  0  0  0  0  0
   36.8230   27.8210   34.4000 O   0  0  0  0  0  0  0  0  0  0  0  0
   36.0680   27.1860   34.4350 H   0  0  0  0  0  0  0  0  0  0  0  0
   34.5980   28.9880   33.3520 S   0  0  0  0  0  0  0  0  0  0  0  0
   35.8060   31.6190   36.0570 C   0  0  0  0  0  0  0  0  0  0  0  0
   34.6530   31.9690   36.7600 C   0  0  0  0  0  0  0  0  0  0  0  0
   33.4570   31.3710   36.3840 C   0  0  0  0  0  0  0  0  0  0  0  0
   33.4640   30.4750   35.3540 N   0  0  0  0  0  0  0  0  0  0  0  0
   34.6040   30.1650   34.7000 C   0  0  0  0  0  0  0  0  0  0  0  0
   35.7900   30.7300   35.0410 N   0  0  0  0  0  0  0  0  0  0  0  0
   36.7800   32.0350   36.2810 H   0  0  0  0  0  0  0  0  0  0  0  0
   34.7200   32.6780   37.5570 H   0  0  0  0  0  0  0  0  0  0  0  0
   32.5350   31.6120   36.9000 H   0  0  0  0  0  0  0  0  0  0  0  0
   37.5460   25.8470   32.0980 O   0  0  0  0  0  0  0  0  0  0  0  0
   36.1170   23.6180   30.8060 Cl  0  0  0  0  0  0  0  0  0  0  0  0
   36.9940   23.6200   32.3170 C   0  0  0  0  0  0  0  0  0  0  0  0
   37.6350   24.7310   32.8160 C   0  0  0  0  0  0  0  0  0  0  0  0
   38.3280   24.6020   34.0210 C   0  0  0  0  0  0  0  0  0  0  0  0
   38.3620   23.3950   34.6870 C   0  0  0  0  0  0  0  0  0  0  0  0
   37.7200   22.2730   34.1950 C   0  0  0  0  0  0  0  0  0  0  0  0
   37.0360   22.4060   33.0010 C   0  0  0  0  0  0  0  0  0  0  0  0
   38.8670   25.4010   34.4960 H   0  0  0  0  0  0  0  0  0  0  0  0
   38.8790   23.2430   35.6170 H   0  0  0  0  0  0  0  0  0  0  0  0
   37.7410   21.3230   34.7110 H   0  0  0  0  0  0  0  0  0  0  0  0
   36.3490   21.2340   32.4610 C   0  0  0  0  0  0  0  0  0  0  0  0
   35.0770   20.8350   32.7050 C   0  0  0  0  0  0  0  0  0  0  0  0
   34.3750   21.3640   33.3670 H   0  0  0  0  0  0  0  0  0  0  0  0
   34.7750   19.6700   32.0120 C   0  0  0  0  0  0  0  0  0  0  0  0
   33.8740   19.0900   31.9770 H   0  0  0  0  0  0  0  0  0  0  0  0
   35.9580   19.4210   31.3480 C   0  0  0  0  0  0  0  0  0  0  0  0
   36.1930   18.5880   30.6670 H   0  0  0  0  0  0  0  0  0  0  0  0
   36.8480   20.3420   31.6290 O   0  0  0  0  0  0  0  0  0  0  0  0
  1  6  1  6  0  0  0
  1 11  1  0  0  0  0
  2  7  1  1  0  0  0
  2  1  1  0  0  0  0
  2 13  1  0  0  0  0
  3  2  1  0  0  0  0
  4  3  1  0  0  0  0
  4  5  1  0  0  0  0
  5 10  1  1  0  0  0
  5  1  1  0  0  0  0
  8  4  1  0  0  0  0
  9  4  1  0  0  0  0
 11 12  1  0  0  0  0
 13 18  1  0  0  0  0
 14 20  1  0  0  0  0
 14 15  1  0  0  0  0
 15 21  1  0  0  0  0
 16 15  2  0  0  0  0
 16 22  1  0  0  0  0
 17 16  1  0  0  0  0
 18 19  1  0  0  0  0
 18 17  2  0  0  0  0
 19 14  2  0  0  0  0
 23  5  1  0  0  0  0
 23 26  1  0  0  0  0
 24 25  1  0  0  0  0
 25 26  2  0  0  0  0
 25 30  1  0  0  0  0
 26 27  1  0  0  0  0
 27 31  1  0  0  0  0
 27 28  2  0  0  0  0
 28 32  1  0  0  0  0
 29 28  1  0  0  0  0
 29 33  1  0  0  0  0
 30 29  2  0  0  0  0
 34 35  2  0  0  0  0
 34 30  1  0  0  0  0
 35 36  1  0  0  0  0
 37 35  1  0  0  0  0
 38 37  1  0  0  0  0
 39 41  1  0  0  0  0
 39 37  2  0  0  0  0
 40 39  1  0  0  0  0
 41 34  1  0  0  0  0
M  END
>  <minimizedAffinity>
-5.42939377

$$$$

 OpenBabel03272506493D

 41 44  0  0  1  0  0  0  0  0999 V2000
   38.8220   24.6030   32.3990 C   0  0  2  0  0  0  0  0  0  0  0  0
   39.4100   23.5050   33.2350 C   0  0  1  0  0  0  0  0  0  0  0  0
   40.3100   24.0620   34.0910 O   0  0  0  0  0  0  0  0  0  0  0  0
   40.1610   25.4450   34.0800 C   0  0  0  0  0  0  0  0  0  0  0  0
   38.8120   25.7440   33.4660 C   0  0  1  0  0  0  0  0  0  0  0  0
   39.4380   24.9500   31.5760 H   0  0  0  0  0  0  0  0  0  0  0  0
   39.8310   22.7570   32.5350 H   0  0  0  0  0  0  0  0  0  0  0  0
   41.0180   25.8430   33.5530 H   0  0  0  0  0  0  0  0  0  0  0  0
   40.1700   25.7540   35.1730 H   0  0  0  0  0  0  0  0  0  0  0  0
   37.9880   25.5390   34.1450 H   0  0  0  0  0  0  0  0  0  0  0  0
   37.4920   24.2990   32.0430 O   0  0  0  0  0  0  0  0  0  0  0  0
   36.9270   24.5900   32.7990 H   0  0  0  0  0  0  0  0  0  0  0  0
   38.0480   22.7830   34.2360 S   0  0  0  0  0  0  0  0  0  0  0  0
   39.7500   22.6470   37.8120 C   0  0  0  0  0  0  0  0  0  0  0  0
   38.9700   23.4800   38.6140 C   0  0  0  0  0  0  0  0  0  0  0  0
   37.8780   24.1090   38.0290 C   0  0  0  0  0  0  0  0  0  0  0  0
   37.6190   23.8840   36.7070 N   0  0  0  0  0  0  0  0  0  0  0  0
   38.4010   23.0680   35.9670 C   0  0  0  0  0  0  0  0  0  0  0  0
   39.4750   22.4380   36.5060 N   0  0  0  0  0  0  0  0  0  0  0  0
   40.6190   22.1170   38.1820 H   0  0  0  0  0  0  0  0  0  0  0  0
   39.2310   23.6110   39.6420 H   0  0  0  0  0  0  0  0  0  0  0  0
   37.2440   24.7650   38.6120 H   0  0  0  0  0  0  0  0  0  0  0  0
   38.8580   26.9790   32.8660 O   0  0  0  0  0  0  0  0  0  0  0  0
   37.2570   28.1520   35.0410 Cl  0  0  0  0  0  0  0  0  0  0  0  0
   36.9890   28.2490   33.3170 C   0  0  0  0  0  0  0  0  0  0  0  0
   37.8220   27.6620   32.3910 C   0  0  0  0  0  0  0  0  0  0  0  0
   37.5200   27.8340   31.0390 C   0  0  0  0  0  0  0  0  0  0  0  0
   36.4200   28.5680   30.6500 C   0  0  0  0  0  0  0  0  0  0  0  0
   35.5770   29.1600   31.5730 C   0  0  0  0  0  0  0  0  0  0  0  0
   35.8800   28.9890   32.9120 C   0  0  0  0  0  0  0  0  0  0  0  0
   38.1050   27.4250   30.2340 H   0  0  0  0  0  0  0  0  0  0  0  0
   36.1430   28.7280   29.6240 H   0  0  0  0  0  0  0  0  0  0  0  0
   34.7120   29.7370   31.2770 H   0  0  0  0  0  0  0  0  0  0  0  0
   35.0030   29.6050   33.9050 C   0  0  0  0  0  0  0  0  0  0  0  0
   35.1910   30.7760   34.5610 C   0  0  0  0  0  0  0  0  0  0  0  0
   36.0610   31.4350   34.4230 H   0  0  0  0  0  0  0  0  0  0  0  0
   34.1420   31.0360   35.4330 C   0  0  0  0  0  0  0  0  0  0  0  0
   33.9710   31.8600   36.0970 H   0  0  0  0  0  0  0  0  0  0  0  0
   33.3320   29.9370   35.2370 C   0  0  0  0  0  0  0  0  0  0  0  0
   32.3700   29.7050   35.7230 H   0  0  0  0  0  0  0  0  0  0  0  0
   33.8570   29.1290   34.3490 O   0  0  0  0  0  0  0  0  0  0  0  0
  1  6  1  6  0  0  0
  1  2  1  0  0  0  0
  1  5  1  0  0  0  0
  2  7  1  6  0  0  0
  2  3  1  0  0  0  0
  2 13  1  0  0  0  0
  4  3  1  0  0  0  0
  4  9  1  0  0  0  0
  5  4  1  0  0  0  0
  5 10  1  1  0  0  0
  8  4  1  0  0  0  0
 11  1  1  0  0  0  0
 11 12  1  0  0  0  0
 13 18  1  0  0  0  0
 14 20  1  0  0  0  0
 14 15  1  0  0  0  0
 15 21  1  0  0  0  0
 16 22  1  0  0  0  0
 16 15  2  0  0  0  0
 17 16  1  0  0  0  0
 18 19  1  0  0  0  0
 18 17  2  0  0  0  0
 19 14  2  0  0  0  0
 23  5  1  0  0  0  0
 25 24  1  0  0  0  0
 26 23  1  0  0  0  0
 26 25  2  0  0  0  0
 27 26  1  0  0  0  0
 28 27  2  0  0  0  0
 28 29  1  0  0  0  0
 29 30  2  0  0  0  0
 30 25  1  0  0  0  0
 30 34  1  0  0  0  0
 31 27  1  0  0  0  0
 32 28  1  0  0  0  0
 33 29  1  0  0  0  0
 34 41  1  0  0  0  0
 34 35  2  0  0  0  0
 35 37  1  0  0  0  0
 36 35  1  0  0  0  0
 37 38  1  0  0  0  0
 39 37  2  0  0  0  0
 39 40  1  0  0  0  0
 41 39  1  0  0  0  0
M  END
>  <minimizedAffinity>
-5.32074976

$$$$

 OpenBabel03272506493D

 41 44  0  0  1  0  0  0  0  0999 V2000
   37.2110   25.6330   33.2740 C   0  0  2  0  0  0  0  0  0  0  0  0
   38.3660   24.7450   32.9190 C   0  0  1  0  0  0  0  0  0  0  0  0
   38.6420   24.9180   31.5980 O   0  0  0  0  0  0  0  0  0  0  0  0
   37.9570   26.0330   31.1270 C   0  0  0  0  0  0  0  0  0  0  0  0
   37.5310   26.8380   32.3340 C   0  0  1  0  0  0  0  0  0  0  0  0
   36.2300   25.2660   32.9890 H   0  0  0  0  0  0  0  0  0  0  0  0
   38.0800   23.7140   33.2060 H   0  0  0  0  0  0  0  0  0  0  0  0
   37.1560   25.6620   30.5010 H   0  0  0  0  0  0  0  0  0  0  0  0
   38.7190   26.6160   30.5180 H   0  0  0  0  0  0  0  0  0  0  0  0
   38.3570   27.3850   32.7860 H   0  0  0  0  0  0  0  0  0  0  0  0
   37.3050   26.0610   34.6140 O   0  0  0  0  0  0  0  0  0  0  0  0
   37.8960   26.8520   34.6130 H   0  0  0  0  0  0  0  0  0  0  0  0
   39.8220   25.3220   33.8820 S   0  0  0  0  0  0  0  0  0  0  0  0
   39.0730   23.2450   37.1730 C   0  0  0  0  0  0  0  0  0  0  0  0
   40.2850   22.6340   37.4970 C   0  0  0  0  0  0  0  0  0  0  0  0
   41.3740   22.8710   36.6680 C   0  0  0  0  0  0  0  0  0  0  0  0
   41.2120   23.6860   35.5830 N   0  0  0  0  0  0  0  0  0  0  0  0
   40.0190   24.2570   35.3070 C   0  0  0  0  0  0  0  0  0  0  0  0
   38.9350   24.0470   36.0950 N   0  0  0  0  0  0  0  0  0  0  0  0
   38.1740   23.1170   37.7610 H   0  0  0  0  0  0  0  0  0  0  0  0
   40.3420   22.0090   38.3620 H   0  0  0  0  0  0  0  0  0  0  0  0
   42.3360   22.4190   36.8790 H   0  0  0  0  0  0  0  0  0  0  0  0
   36.3900   27.5380   32.0250 O   0  0  0  0  0  0  0  0  0  0  0  0
   35.5460   28.6390   34.6220 Cl  0  0  0  0  0  0  0  0  0  0  0  0
   35.8640   29.4900   33.1310 C   0  0  0  0  0  0  0  0  0  0  0  0
   36.2680   28.8610   31.9750 C   0  0  0  0  0  0  0  0  0  0  0  0
   36.5200   29.6520   30.8520 C   0  0  0  0  0  0  0  0  0  0  0  0
   36.3660   31.0210   30.9070 C   0  0  0  0  0  0  0  0  0  0  0  0
   35.9600   31.6620   32.0630 C   0  0  0  0  0  0  0  0  0  0  0  0
   35.7120   30.8750   33.1730 C   0  0  0  0  0  0  0  0  0  0  0  0
   36.8440   29.2660   29.9030 H   0  0  0  0  0  0  0  0  0  0  0  0
   36.5450   31.6740   30.0720 H   0  0  0  0  0  0  0  0  0  0  0  0
   35.8360   32.7350   32.1150 H   0  0  0  0  0  0  0  0  0  0  0  0
   35.2810   31.5310   34.4060 C   0  0  0  0  0  0  0  0  0  0  0  0
   36.0620   32.0070   35.4060 C   0  0  0  0  0  0  0  0  0  0  0  0
   37.1610   31.9580   35.4150 H   0  0  0  0  0  0  0  0  0  0  0  0
   35.2950   32.5660   36.4190 C   0  0  0  0  0  0  0  0  0  0  0  0
   35.5830   33.0260   37.3430 H   0  0  0  0  0  0  0  0  0  0  0  0
   34.0140   32.3810   35.9390 C   0  0  0  0  0  0  0  0  0  0  0  0
   33.0620   32.6700   36.4120 H   0  0  0  0  0  0  0  0  0  0  0  0
   34.0410   31.7810   34.7740 O   0  0  0  0  0  0  0  0  0  0  0  0
  1  6  1  6  0  0  0
  1 11  1  0  0  0  0
  2  7  1  1  0  0  0
  2  1  1  0  0  0  0
  2 13  1  0  0  0  0
  3  2  1  0  0  0  0
  4  3  1  0  0  0  0
  4  5  1  0  0  0  0
  5 10  1  1  0  0  0
  5  1  1  0  0  0  0
  8  4  1  0  0  0  0
  9  4  1  0  0  0  0
 12 11  1  0  0  0  0
 13 18  1  0  0  0  0
 14 15  1  0  0  0  0
 14 20  1  0  0  0  0
 15 21  1  0  0  0  0
 16 22  1  0  0  0  0
 16 15  2  0  0  0  0
 17 16  1  0  0  0  0
 18 17  2  0  0  0  0
 18 19  1  0  0  0  0
 19 14  2  0  0  0  0
 23  5  1  0  0  0  0
 25 30  1  0  0  0  0
 25 24  1  0  0  0  0
 26 23  1  0  0  0  0
 26 25  2  0  0  0  0
 27 28  2  0  0  0  0
 27 26  1  0  0  0  0
 28 29  1  0  0  0  0
 29 33  1  0  0  0  0
 29 30  2  0  0  0  0
 30 34  1  0  0  0  0
 31 27  1  0  0  0  0
 32 28  1  0  0  0  0
 34 41  1  0  0  0  0
 34 35  2  0  0  0  0
 35 36  1  0  0  0  0
 35 37  1  0  0  0  0
 37 38  1  0  0  0  0
 39 40  1  0  0  0  0
 39 37  2  0  0  0  0
 41 39  1  0  0  0  0
M  END
>  <minimizedAffinity>
-5.27335072

$$$$

 OpenBabel03272506493D

 41 44  0  0  1  0  0  0  0  0999 V2000
   37.8440   26.8920   31.2460 C   0  0  2  0  0  0  0  0  0  0  0  0
   36.7180   27.8250   30.9120 C   0  0  1  0  0  0  0  0  0  0  0  0
   35.6070   27.0780   30.6730 O   0  0  0  0  0  0  0  0  0  0  0  0
   35.8330   25.7700   31.0870 C   0  0  0  0  0  0  0  0  0  0  0  0
   37.0340   25.7940   32.0060 C   0  0  1  0  0  0  0  0  0  0  0  0
   38.3160   26.4030   30.4010 H   0  0  0  0  0  0  0  0  0  0  0  0
   37.0570   28.4470   30.0600 H   0  0  0  0  0  0  0  0  0  0  0  0
   35.9390   25.1760   30.1890 H   0  0  0  0  0  0  0  0  0  0  0  0
   34.9020   25.4750   31.6680 H   0  0  0  0  0  0  0  0  0  0  0  0
   36.8000   26.1940   32.9900 H   0  0  0  0  0  0  0  0  0  0  0  0
   38.7440   27.4990   32.1450 O   0  0  0  0  0  0  0  0  0  0  0  0
   38.3750   27.3570   33.0490 H   0  0  0  0  0  0  0  0  0  0  0  0
   36.3980   28.8570   32.3990 S   0  0  0  0  0  0  0  0  0  0  0  0
   33.5120   31.2930   31.1970 C   0  0  0  0  0  0  0  0  0  0  0  0
   32.3780   30.8810   31.8970 C   0  0  0  0  0  0  0  0  0  0  0  0
   32.5080   29.8100   32.7730 C   0  0  0  0  0  0  0  0  0  0  0  0
   33.7300   29.2150   32.9080 N   0  0  0  0  0  0  0  0  0  0  0  0
   34.8030   29.6470   32.2100 C   0  0  0  0  0  0  0  0  0  0  0  0
   34.7110   30.6900   31.3470 N   0  0  0  0  0  0  0  0  0  0  0  0
   33.5030   32.1160   30.4950 H   0  0  0  0  0  0  0  0  0  0  0  0
   31.4520   31.3920   31.7430 H   0  0  0  0  0  0  0  0  0  0  0  0
   31.6550   29.4550   33.3380 H   0  0  0  0  0  0  0  0  0  0  0  0
   37.6710   24.5790   31.9410 O   0  0  0  0  0  0  0  0  0  0  0  0
   39.1440   25.0130   34.4540 Cl  0  0  0  0  0  0  0  0  0  0  0  0
   38.1640   23.6440   33.9890 C   0  0  0  0  0  0  0  0  0  0  0  0
   37.5100   23.5610   32.7800 C   0  0  0  0  0  0  0  0  0  0  0  0
   36.7330   22.4270   32.5340 C   0  0  0  0  0  0  0  0  0  0  0  0
   36.6290   21.4260   33.4750 C   0  0  0  0  0  0  0  0  0  0  0  0
   37.2830   21.5000   34.6920 C   0  0  0  0  0  0  0  0  0  0  0  0
   38.0510   22.6240   34.9330 C   0  0  0  0  0  0  0  0  0  0  0  0
   36.1770   22.2630   31.6280 H   0  0  0  0  0  0  0  0  0  0  0  0
   36.0450   20.5340   33.3350 H   0  0  0  0  0  0  0  0  0  0  0  0
   37.2070   20.7190   35.4360 H   0  0  0  0  0  0  0  0  0  0  0  0
   38.7520   22.7250   36.2110 C   0  0  0  0  0  0  0  0  0  0  0  0
   38.2930   23.2650   37.3660 C   0  0  0  0  0  0  0  0  0  0  0  0
   37.2960   23.7140   37.4900 H   0  0  0  0  0  0  0  0  0  0  0  0
   39.2450   23.1800   38.3730 C   0  0  0  0  0  0  0  0  0  0  0  0
   39.2150   23.5030   39.3940 H   0  0  0  0  0  0  0  0  0  0  0  0
   40.2880   22.5510   37.7240 C   0  0  0  0  0  0  0  0  0  0  0  0
   41.2720   22.2710   38.1320 H   0  0  0  0  0  0  0  0  0  0  0  0
   39.9720   22.3020   36.4770 O   0  0  0  0  0  0  0  0  0  0  0  0
  1  6  1  6  0  0  0
  1  5  1  0  0  0  0
  1 11  1  0  0  0  0
  2  7  1  6  0  0  0
  2  1  1  0  0  0  0
  2 13  1  0  0  0  0
  3  2  1  0  0  0  0
  3  4  1  0  0  0  0
  4  9  1  0  0  0  0
  4  5  1  0  0  0  0
  5 10  1  1  0  0  0
  8  4  1  0  0  0  0
 11 12  1  0  0  0  0
 14 19  2  0  0  0  0
 14 15  1  0  0  0  0
 15 16  2  0  0  0  0
 16 17  1  0  0  0  0
 16 22  1  0  0  0  0
 18 13  1  0  0  0  0
 18 17  2  0  0  0  0
 19 18  1  0  0  0  0
 20 14  1  0  0  0  0
 21 15  1  0  0  0  0
 23  5  1  0  0  0  0
 23 26  1  0  0  0  0
 25 24  1  0  0  0  0
 25 30  1  0  0  0  0
 26 25  2  0  0  0  0
 27 26  1  0  0  0  0
 27 28  2  0  0  0  0
 28 29  1  0  0  0  0
 29 30  2  0  0  0  0
 29 33  1  0  0  0  0
 30 34  1  0  0  0  0
 31 27  1  0  0  0  0
 32 28  1  0  0  0  0
 34 41  1  0  0  0  0
 34 35  2  0  0  0  0
 35 36  1  0  0  0  0
 35 37  1  0  0  0  0
 37 38  1  0  0  0  0
 39 40  1  0  0  0  0
 39 37  2  0  0  0  0
 41 39  1  0  0  0  0
M  END
>  <minimizedAffinity>
-5.20798111

$$$$

 OpenBabel03272506493D

 41 44  0  0  1  0  0  0  0  0999 V2000
   35.4430   30.1840   31.0460 C   0  0  2  0  0  0  0  0  0  0  0  0
   34.6950   31.2320   31.8160 C   0  0  1  0  0  0  0  0  0  0  0  0
   33.8860   30.6020   32.7110 O   0  0  0  0  0  0  0  0  0  0  0  0
   34.2390   29.2590   32.7850 C   0  0  0  0  0  0  0  0  0  0  0  0
   35.6190   29.1260   32.1820 C   0  0  1  0  0  0  0  0  0  0  0  0
   34.8870   29.6990   30.2510 H   0  0  0  0  0  0  0  0  0  0  0  0
   34.1690   31.8630   31.0740 H   0  0  0  0  0  0  0  0  0  0  0  0
   33.4520   28.7050   32.2900 H   0  0  0  0  0  0  0  0  0  0  0  0
   34.2730   29.0200   33.8950 H   0  0  0  0  0  0  0  0  0  0  0  0
   36.4020   29.4940   32.8420 H   0  0  0  0  0  0  0  0  0  0  0  0
   36.7130   30.6590   30.6630 O   0  0  0  0  0  0  0  0  0  0  0  0
   37.3130   30.5040   31.4320 H   0  0  0  0  0  0  0  0  0  0  0  0
   35.9310   32.2100   32.7610 S   0  0  0  0  0  0  0  0  0  0  0  0
   33.9630   33.7530   35.8350 C   0  0  0  0  0  0  0  0  0  0  0  0
   34.3030   32.9480   36.9220 C   0  0  0  0  0  0  0  0  0  0  0  0
   35.1730   31.8880   36.6980 C   0  0  0  0  0  0  0  0  0  0  0  0
   35.6520   31.6840   35.4350 N   0  0  0  0  0  0  0  0  0  0  0  0
   35.2950   32.4890   34.4110 C   0  0  0  0  0  0  0  0  0  0  0  0
   34.4480   33.5340   34.5940 N   0  0  0  0  0  0  0  0  0  0  0  0
   33.2930   34.6000   35.9160 H   0  0  0  0  0  0  0  0  0  0  0  0
   33.8920   33.1650   37.8840 H   0  0  0  0  0  0  0  0  0  0  0  0
   35.4660   31.2350   37.5110 H   0  0  0  0  0  0  0  0  0  0  0  0
   35.7590   27.8630   31.6600 O   0  0  0  0  0  0  0  0  0  0  0  0
   34.8700   25.2460   30.6430 Cl  0  0  0  0  0  0  0  0  0  0  0  0
   36.1410   25.5940   31.7890 C   0  0  0  0  0  0  0  0  0  0  0  0
   36.4740   26.8710   32.1820 C   0  0  0  0  0  0  0  0  0  0  0  0
   37.5290   27.0250   33.0840 C   0  0  0  0  0  0  0  0  0  0  0  0
   38.2110   25.9270   33.5630 C   0  0  0  0  0  0  0  0  0  0  0  0
   37.8830   24.6400   33.1760 C   0  0  0  0  0  0  0  0  0  0  0  0
   36.8390   24.4920   32.2820 C   0  0  0  0  0  0  0  0  0  0  0  0
   37.8750   27.9740   33.4500 H   0  0  0  0  0  0  0  0  0  0  0  0
   39.0280   25.9910   34.2580 H   0  0  0  0  0  0  0  0  0  0  0  0
   38.4130   23.7740   33.5470 H   0  0  0  0  0  0  0  0  0  0  0  0
   36.4740   23.1420   31.8580 C   0  0  0  0  0  0  0  0  0  0  0  0
   37.1910   22.2980   31.0770 C   0  0  0  0  0  0  0  0  0  0  0  0
   38.1760   22.5330   30.6470 H   0  0  0  0  0  0  0  0  0  0  0  0
   36.5210   21.0970   30.8890 C   0  0  0  0  0  0  0  0  0  0  0  0
   36.7950   20.2210   30.3350 H   0  0  0  0  0  0  0  0  0  0  0  0
   35.3650   21.3010   31.6150 C   0  0  0  0  0  0  0  0  0  0  0  0
   34.5200   20.6090   31.7570 H   0  0  0  0  0  0  0  0  0  0  0  0
   35.3690   22.4920   32.1620 O   0  0  0  0  0  0  0  0  0  0  0  0
  1  6  1  6  0  0  0
  1  2  1  0  0  0  0
  1  5  1  0  0  0  0
  2  7  1  6  0  0  0
  2  3  1  0  0  0  0
  2 13  1  0  0  0  0
  3  4  1  0  0  0  0
  4  9  1  0  0  0  0
  5  4  1  0  0  0  0
  5 10  1  1  0  0  0
  8  4  1  0  0  0  0
 11  1  1  0  0  0  0
 11 12  1  0  0  0  0
 13 18  1  0  0  0  0
 14 20  1  0  0  0  0
 14 15  1  0  0  0  0
 15 21  1  0  0  0  0
 16 15  2  0  0  0  0
 16 22  1  0  0  0  0
 17 16  1  0  0  0  0
 18 19  1  0  0  0  0
 18 17  2  0  0  0  0
 19 14  2  0  0  0  0
 23  5  1  0  0  0  0
 23 26  1  0  0  0  0
 24 25  1  0  0  0  0
 25 26  2  0  0  0  0
 25 30  1  0  0  0  0
 26 27  1  0  0  0  0
 27 31  1  0  0  0  0
 27 28  2  0  0  0  0
 28 32  1  0  0  0  0
 29 33  1  0  0  0  0
 29 28  1  0  0  0  0
 30 29  2  0  0  0  0
 34 41  1  0  0  0  0
 34 30  1  0  0  0  0
 35 34  2  0  0  0  0
 36 35  1  0  0  0  0
 37 35  1  0  0  0  0
 37 39  2  0  0  0  0
 38 37  1  0  0  0  0
 39 40  1  0  0  0  0
 39 41  1  0  0  0  0
M  END
>  <minimizedAffinity>
-5.17259502

$$$$

 OpenBabel03272506493D

 41 44  0  0  1  0  0  0  0  0999 V2000
   36.6000   24.4360   32.5330 C   0  0  2  0  0  0  0  0  0  0  0  0
   35.6360   23.5640   31.7840 C   0  0  1  0  0  0  0  0  0  0  0  0
   34.9460   24.3480   30.9130 O   0  0  0  0  0  0  0  0  0  0  0  0
   35.5590   25.5940   30.8300 C   0  0  0  0  0  0  0  0  0  0  0  0
   36.9540   25.4440   31.3940 C   0  0  1  0  0  0  0  0  0  0  0  0
   36.1750   25.0170   33.3450 H   0  0  0  0  0  0  0  0  0  0  0  0
   35.0150   23.0460   32.5400 H   0  0  0  0  0  0  0  0  0  0  0  0
   34.9130   26.2910   31.3480 H   0  0  0  0  0  0  0  0  0  0  0  0
   35.6090   25.8280   29.7190 H   0  0  0  0  0  0  0  0  0  0  0  0
   37.6280   24.9310   30.7120 H   0  0  0  0  0  0  0  0  0  0  0  0
   37.7590   23.7130   32.8800 O   0  0  0  0  0  0  0  0  0  0  0  0
   38.3560   23.7490   32.0950 H   0  0  0  0  0  0  0  0  0  0  0  0
   36.6250   22.3640   30.8040 S   0  0  0  0  0  0  0  0  0  0  0  0
   36.4080   18.4170   31.0950 C   0  0  0  0  0  0  0  0  0  0  0  0
   35.7970   18.1800   32.3260 C   0  0  0  0  0  0  0  0  0  0  0  0
   35.4390   19.2790   33.0970 C   0  0  0  0  0  0  0  0  0  0  0  0
   35.6980   20.5320   32.6180 N   0  0  0  0  0  0  0  0  0  0  0  0
   36.2920   20.7160   31.4180 C   0  0  0  0  0  0  0  0  0  0  0  0
   36.6550   19.6650   30.6400 N   0  0  0  0  0  0  0  0  0  0  0  0
   36.7210   17.6230   30.4300 H   0  0  0  0  0  0  0  0  0  0  0  0
   35.6240   17.1730   32.6400 H   0  0  0  0  0  0  0  0  0  0  0  0
   34.9620   19.1450   34.0600 H   0  0  0  0  0  0  0  0  0  0  0  0
   37.3580   26.6490   31.9130 O   0  0  0  0  0  0  0  0  0  0  0  0
   40.2600   26.1800   31.7280 Cl  0  0  0  0  0  0  0  0  0  0  0  0
   39.3180   26.6390   33.1250 C   0  0  0  0  0  0  0  0  0  0  0  0
   37.9570   26.8420   33.0840 C   0  0  0  0  0  0  0  0  0  0  0  0
   37.3170   27.2350   34.2610 C   0  0  0  0  0  0  0  0  0  0  0  0
   38.0330   27.4120   35.4260 C   0  0  0  0  0  0  0  0  0  0  0  0
   39.4010   27.2100   35.4780 C   0  0  0  0  0  0  0  0  0  0  0  0
   40.0300   26.8210   34.3100 C   0  0  0  0  0  0  0  0  0  0  0  0
   36.2620   27.4260   34.3390 H   0  0  0  0  0  0  0  0  0  0  0  0
   37.5900   27.7120   36.3580 H   0  0  0  0  0  0  0  0  0  0  0  0
   39.9700   27.3450   36.3870 H   0  0  0  0  0  0  0  0  0  0  0  0
   41.4750   26.6010   34.3400 C   0  0  0  0  0  0  0  0  0  0  0  0
   42.1420   25.5630   34.8990 C   0  0  0  0  0  0  0  0  0  0  0  0
   41.6610   24.7220   35.4200 H   0  0  0  0  0  0  0  0  0  0  0  0
   43.5130   25.6980   34.7280 C   0  0  0  0  0  0  0  0  0  0  0  0
   44.3230   25.0680   35.0400 H   0  0  0  0  0  0  0  0  0  0  0  0
   43.5970   26.8860   34.0320 C   0  0  0  0  0  0  0  0  0  0  0  0
   44.5010   27.4010   33.6720 H   0  0  0  0  0  0  0  0  0  0  0  0
   42.4020   27.3830   33.8240 O   0  0  0  0  0  0  0  0  0  0  0  0
  1 11  1  0  0  0  0
  1  6  1  1  0  0  0
  2  1  1  0  0  0  0
  2  7  1  1  0  0  0
  3  2  1  0  0  0  0
  4  3  1  0  0  0  0
  4  8  1  0  0  0  0
  4  5  1  0  0  0  0
  5 10  1  6  0  0  0
  5 23  1  0  0  0  0
  5  1  1  0  0  0  0
  9  4  1  0  0  0  0
 12 11  1  0  0  0  0
 13 18  1  0  0  0  0
 13  2  1  0  0  0  0
 14 15  1  0  0  0  0
 15 21  1  0  0  0  0
 15 16  2  0  0  0  0
 16 22  1  0  0  0  0
 17 16  1  0  0  0  0
 18 17  2  0  0  0  0
 19 14  2  0  0  0  0
 19 18  1  0  0  0  0
 20 14  1  0  0  0  0
 23 26  1  0  0  0  0
 24 25  1  0  0  0  0
 25 30  1  0  0  0  0
 26 25  2  0  0  0  0
 26 27  1  0  0  0  0
 27 31  1  0  0  0  0
 27 28  2  0  0  0  0
 28 29  1  0  0  0  0
 28 32  1  0  0  0  0
 29 33  1  0  0  0  0
 30 34  1  0  0  0  0
 30 29  2  0  0  0  0
 34 35  2  0  0  0  0
 35 36  1  0  0  0  0
 37 35  1  0  0  0  0
 37 38  1  0  0  0  0
 39 37  2  0  0  0  0
 40 39  1  0  0  0  0
 41 39  1  0  0  0  0
 41 34  1  0  0  0  0
M  END
>  <minimizedAffinity>
-5.17127991

$$$$

 OpenBabel03272506493D

 41 44  0  0  1  0  0  0  0  0999 V2000
   37.7710   24.7860   31.4570 C   0  0  2  0  0  0  0  0  0  0  0  0
   37.6700   23.3930   32.0060 C   0  0  1  0  0  0  0  0  0  0  0  0
   37.8630   23.4540   33.3510 O   0  0  0  0  0  0  0  0  0  0  0  0
   37.8070   24.7800   33.7650 C   0  0  0  0  0  0  0  0  0  0  0  0
   37.1440   25.5660   32.6560 C   0  0  1  0  0  0  0  0  0  0  0  0
   38.7770   25.1680   31.3270 H   0  0  0  0  0  0  0  0  0  0  0  0
   38.4060   22.7760   31.4550 H   0  0  0  0  0  0  0  0  0  0  0  0
   38.8200   25.0710   34.0090 H   0  0  0  0  0  0  0  0  0  0  0  0
   37.1470   24.7770   34.6900 H   0  0  0  0  0  0  0  0  0  0  0  0
   36.0690   25.4060   32.6140 H   0  0  0  0  0  0  0  0  0  0  0  0
   36.9400   24.9380   30.3290 O   0  0  0  0  0  0  0  0  0  0  0  0
   36.0390   25.1510   30.6720 H   0  0  0  0  0  0  0  0  0  0  0  0
   35.9540   22.8050   31.7060 S   0  0  0  0  0  0  0  0  0  0  0  0
   35.4500   19.0710   32.9360 C   0  0  0  0  0  0  0  0  0  0  0  0
   35.9240   18.2800   31.8890 C   0  0  0  0  0  0  0  0  0  0  0  0
   36.4170   18.9230   30.7600 C   0  0  0  0  0  0  0  0  0  0  0  0
   36.4170   20.2890   30.7270 N   0  0  0  0  0  0  0  0  0  0  0  0
   35.9480   21.0160   31.7640 C   0  0  0  0  0  0  0  0  0  0  0  0
   35.4600   20.4210   32.8820 N   0  0  0  0  0  0  0  0  0  0  0  0
   35.0480   18.6570   33.8520 H   0  0  0  0  0  0  0  0  0  0  0  0
   35.8950   17.2160   31.9820 H   0  0  0  0  0  0  0  0  0  0  0  0
   36.7950   18.3510   29.9220 H   0  0  0  0  0  0  0  0  0  0  0  0
   37.6000   26.8610   32.6920 O   0  0  0  0  0  0  0  0  0  0  0  0
   39.0490   27.9800   30.3850 Cl  0  0  0  0  0  0  0  0  0  0  0  0
   37.5710   28.5480   31.1220 C   0  0  0  0  0  0  0  0  0  0  0  0
   36.9790   27.9280   32.1990 C   0  0  0  0  0  0  0  0  0  0  0  0
   35.7820   28.4590   32.6830 C   0  0  0  0  0  0  0  0  0  0  0  0
   35.2160   29.5710   32.0960 C   0  0  0  0  0  0  0  0  0  0  0  0
   35.8040   30.2010   31.0140 C   0  0  0  0  0  0  0  0  0  0  0  0
   36.9890   29.6720   30.5370 C   0  0  0  0  0  0  0  0  0  0  0  0
   35.2330   28.0520   33.5130 H   0  0  0  0  0  0  0  0  0  0  0  0
   34.2980   30.0190   32.4300 H   0  0  0  0  0  0  0  0  0  0  0  0
   35.3680   31.0740   30.5470 H   0  0  0  0  0  0  0  0  0  0  0  0
   37.6290   30.3210   29.3950 C   0  0  0  0  0  0  0  0  0  0  0  0
   38.3830   31.4460   29.3980 C   0  0  0  0  0  0  0  0  0  0  0  0
   38.6170   32.0360   30.2970 H   0  0  0  0  0  0  0  0  0  0  0  0
   38.8220   31.7600   28.1190 C   0  0  0  0  0  0  0  0  0  0  0  0
   39.4280   32.5700   27.7650 H   0  0  0  0  0  0  0  0  0  0  0  0
   38.2720   30.7390   27.3720 C   0  0  0  0  0  0  0  0  0  0  0  0
   38.3520   30.5700   26.2870 H   0  0  0  0  0  0  0  0  0  0  0  0
   37.5880   29.9240   28.1380 O   0  0  0  0  0  0  0  0  0  0  0  0
  1  6  1  6  0  0  0
  1  2  1  0  0  0  0
  1  5  1  0  0  0  0
  2  7  1  6  0  0  0
  2  3  1  0  0  0  0
  3  4  1  0  0  0  0
  4  8  1  0  0  0  0
  4  9  1  0  0  0  0
  5 10  1  1  0  0  0
  5 23  1  0  0  0  0
  5  4  1  0  0  0  0
 11 12  1  0  0  0  0
 11  1  1  0  0  0  0
 13 18  1  0  0  0  0
 13  2  1  0  0  0  0
 14 20  1  0  0  0  0
 15 21  1  0  0  0  0
 15 14  2  0  0  0  0
 16 15  1  0  0  0  0
 17 16  2  0  0  0  0
 17 18  1  0  0  0  0
 18 19  2  0  0  0  0
 19 14  1  0  0  0  0
 22 16  1  0  0  0  0
 24 25  1  0  0  0  0
 25 26  1  0  0  0  0
 26 27  2  0  0  0  0
 26 23  1  0  0  0  0
 27 31  1  0  0  0  0
 28 32  1  0  0  0  0
 28 27  1  0  0  0  0
 29 28  2  0  0  0  0
 30 29  1  0  0  0  0
 30 25  2  0  0  0  0
 33 29  1  0  0  0  0
 34 35  2  0  0  0  0
 34 30  1  0  0  0  0
 35 36  1  0  0  0  0
 37 35  1  0  0  0  0
 38 37  1  0  0  0  0
 39 37  2  0  0  0  0
 39 41  1  0  0  0  0
 40 39  1  0  0  0  0
 41 34  1  0  0  0  0
M  END
>  <minimizedAffinity>
-5.1656518

$$$$
