
 OpenBabel03272510273D

 44 48  0  0  1  0  0  0  0  0999 V2000
   36.4810   30.3600   46.1310 C   0  0  0  0  0  0  0  0  0  0  0  0
   37.3940   30.9790   46.9490 C   0  0  0  0  0  0  0  0  0  0  0  0
   38.3220   31.9000   46.4350 C   0  0  0  0  0  0  0  0  0  0  0  0
   38.2560   32.1430   45.0610 C   0  0  0  0  0  0  0  0  0  0  0  0
   39.0330   32.9870   44.3200 N   0  0  0  0  0  0  0  0  0  0  0  0
   38.6020   32.8910   43.0560 C   0  0  0  0  0  0  0  0  0  0  0  0
   37.6050   32.0300   42.9960 N   0  0  0  0  0  0  0  0  0  0  0  0
   37.3550   31.5390   44.2210 C   0  0  0  0  0  0  0  0  0  0  0  0
   36.4500   30.6270   44.7780 C   0  0  0  0  0  0  0  0  0  0  0  0
   35.7690   29.6490   46.5380 H   0  0  0  0  0  0  0  0  0  0  0  0
   39.0570   32.4070   47.0530 H   0  0  0  0  0  0  0  0  0  0  0  0
   39.8000   33.5780   44.6880 H   0  0  0  0  0  0  0  0  0  0  0  0
   35.7400   30.1520   44.1160 H   0  0  0  0  0  0  0  0  0  0  0  0
   38.0160   30.8710   50.6620 C   0  0  0  0  0  0  0  0  0  0  0  0
   38.1510   31.2950   49.3390 C   0  0  0  0  0  0  0  0  0  0  0  0
   37.4010   30.6840   48.3700 C   0  0  0  0  0  0  0  0  0  0  0  0
   36.5520   29.6760   48.7790 N   0  0  0  0  0  0  0  0  0  0  0  0
   36.4280   29.2730   50.0550 C   0  0  0  0  0  0  0  0  0  0  0  0
   37.1560   29.8690   50.9800 N   0  0  0  0  0  0  0  0  0  0  0  0
   38.6180   31.3660   51.4110 H   0  0  0  0  0  0  0  0  0  0  0  0
   38.8080   32.0780   49.0050 H   0  0  0  0  0  0  0  0  0  0  0  0
   35.7390   28.4750   50.2960 H   0  0  0  0  0  0  0  0  0  0  0  0
   39.1730   33.6250   42.0150 O   0  0  0  0  0  0  0  0  0  0  0  0
   38.3590   32.4450   40.2100 N   0  0  0  0  0  0  0  0  0  0  0  0
   38.3700   33.7460   40.8450 C   0  0  1  0  0  0  0  0  0  0  0  0
   37.0210   34.1680   41.1860 C   0  0  0  0  0  0  0  0  0  0  0  0
   36.2790   34.3070   40.0010 O   0  0  0  0  0  0  0  0  0  0  0  0
   36.2620   33.2080   39.1910 C   0  0  0  0  0  0  0  0  0  0  0  0
   37.6390   32.6360   38.9630 C   0  0  1  0  0  0  0  0  0  0  0  0
   37.8990   31.6820   40.6720 H   0  0  0  0  0  0  0  0  0  0  0  0
   38.8270   34.4350   40.1150 H   0  0  0  0  0  0  0  0  0  0  0  0
   37.0830   35.2280   41.5800 H   0  0  0  0  0  0  0  0  0  0  0  0
   36.3590   33.6500   41.8270 H   0  0  0  0  0  0  0  0  0  0  0  0
   35.8450   33.5010   38.2270 H   0  0  0  0  0  0  0  0  0  0  0  0
   35.6420   32.4090   39.6810 H   0  0  0  0  0  0  0  0  0  0  0  0
   37.5050   31.6730   38.4150 H   0  0  0  0  0  0  0  0  0  0  0  0
   38.4120   33.6160   38.1560 C   0  0  0  0  0  0  0  0  0  0  0  0
   37.7330   34.3780   37.1990 C   0  0  0  0  0  0  0  0  0  0  0  0
   36.6860   34.3810   36.9260 H   0  0  0  0  0  0  0  0  0  0  0  0
   38.6520   35.2110   36.5790 C   0  0  0  0  0  0  0  0  0  0  0  0
   38.4350   35.9220   35.7940 H   0  0  0  0  0  0  0  0  0  0  0  0
   39.8480   34.9070   37.1990 C   0  0  0  0  0  0  0  0  0  0  0  0
   40.7740   35.3990   36.9310 H   0  0  0  0  0  0  0  0  0  0  0  0
   39.6770   33.9690   38.1170 O   0  0  0  0  0  0  0  0  0  0  0  0
  1 10  1  0  0  0  0
  1  2  1  0  0  0  0
  2 16  1  0  0  0  0
  3  2  2  0  0  0  0
  3 11  1  0  0  0  0
  4  3  1  0  0  0  0
  5 12  1  0  0  0  0
  5  4  1  0  0  0  0
  6  5  1  0  0  0  0
  7  6  2  0  0  0  0
  7  8  1  0  0  0  0
  8  9  1  0  0  0  0
  8  4  2  0  0  0  0
  9  1  2  0  0  0  0
 13  9  1  0  0  0  0
 14 19  1  0  0  0  0
 14 20  1  0  0  0  0
 15 14  2  0  0  0  0
 16 17  2  0  0  0  0
 16 15  1  0  0  0  0
 17 18  1  0  0  0  0
 18 22  1  0  0  0  0
 18 19  2  0  0  0  0
 21 15  1  0  0  0  0
 23  6  1  0  0  0  0
 24 30  1  0  0  0  0
 24 25  1  0  0  0  0
 25 31  1  6  0  0  0
 25 26  1  0  0  0  0
 25 23  1  0  0  0  0
 26 32  1  0  0  0  0
 26 33  1  0  0  0  0
 27 26  1  0  0  0  0
 28 35  1  0  0  0  0
 28 27  1  0  0  0  0
 29 36  1  6  0  0  0
 29 28  1  0  0  0  0
 29 24  1  0  0  0  0
 34 28  1  0  0  0  0
 37 29  1  0  0  0  0
 38 37  2  0  0  0  0
 39 38  1  0  0  0  0
 40 42  2  0  0  0  0
 40 38  1  0  0  0  0
 41 40  1  0  0  0  0
 42 44  1  0  0  0  0
 43 42  1  0  0  0  0
 44 37  1  0  0  0  0
M  END
>  <minimizedAffinity>
-5.23212194

>  <minimizedRMSD>
1.83945465

$$$$
