
 OpenBabel03272500023D

 27 29  0  0  0  0  0  0  0  0999 V2000
   36.1380   29.2520   49.2830 C   0  0  0  0  0  0  0  0  0  0  0  0
   35.9890   30.4070   48.4740 C   0  0  0  0  0  0  0  0  0  0  0  0
   34.8650   30.4700   47.6430 C   0  0  0  0  0  0  0  0  0  0  0  0
   33.9910   29.4250   47.6630 N   0  0  0  0  0  0  0  0  0  0  0  0
   34.1620   28.3500   48.4380 C   0  0  0  0  0  0  0  0  0  0  0  0
   35.2400   28.2490   49.2610 N   0  0  0  0  0  0  0  0  0  0  0  0
   36.9750   29.1340   49.9460 H   0  0  0  0  0  0  0  0  0  0  0  0
   34.7530   31.3520   47.0260 H   0  0  0  0  0  0  0  0  0  0  0  0
   36.9830   31.4190   48.5580 N   0  0  0  0  0  0  0  0  0  0  0  0
   37.1590   32.1540   49.6660 C   0  0  0  0  0  0  0  0  0  0  0  0
   38.1460   33.1370   49.7070 C   0  0  0  0  0  0  0  0  0  0  0  0
   38.8660   33.2450   48.5350 C   0  0  0  0  0  0  0  0  0  0  0  0
   39.7820   34.1390   48.5330 O   0  0  0  0  0  0  0  0  0  0  0  0
   38.7200   32.5340   47.4130 N   0  0  0  0  0  0  0  0  0  0  0  0
   37.7430   31.5980   47.4490 C   0  0  0  0  0  0  0  0  0  0  0  0
   37.5920   30.9140   46.3910 O   0  0  0  0  0  0  0  0  0  0  0  0
   36.5440   31.9980   50.5430 H   0  0  0  0  0  0  0  0  0  0  0  0
   38.3430   33.7590   50.5520 H   0  0  0  0  0  0  0  0  0  0  0  0
   39.2960   32.6710   46.5770 H   0  0  0  0  0  0  0  0  0  0  0  0
   33.0760   27.3950   48.2550 C   0  0  0  0  0  0  0  0  0  0  0  0
   32.9260   26.1710   47.6350 C   0  0  0  0  0  0  0  0  0  0  0  0
   33.7810   25.7400   47.1350 H   0  0  0  0  0  0  0  0  0  0  0  0
   31.6030   25.8230   47.8580 C   0  0  0  0  0  0  0  0  0  0  0  0
   31.2330   24.8740   47.4560 H   0  0  0  0  0  0  0  0  0  0  0  0
   31.0230   26.8410   48.5920 C   0  0  0  0  0  0  0  0  0  0  0  0
   29.9740   26.7800   48.8850 H   0  0  0  0  0  0  0  0  0  0  0  0
   31.9380   27.7730   48.8160 O   0  0  0  0  0  0  0  0  0  0  0  0
  1  7  1  0  0  0  0
  2  9  1  0  0  0  0
  2  1  2  0  0  0  0
  3  4  2  0  0  0  0
  3  2  1  0  0  0  0
  4  5  1  0  0  0  0
  5  6  2  0  0  0  0
  6  1  1  0  0  0  0
  8  3  1  0  0  0  0
  9 10  1  0  0  0  0
 10 11  2  0  0  0  0
 10 17  1  0  0  0  0
 11 18  1  0  0  0  0
 12 11  1  0  0  0  0
 13 12  2  0  0  0  0
 14 15  1  0  0  0  0
 14 12  1  0  0  0  0
 15  9  1  0  0  0  0
 16 15  2  0  0  0  0
 19 14  1  0  0  0  0
 20  5  1  0  0  0  0
 20 27  1  0  0  0  0
 21 23  1  0  0  0  0
 21 20  2  0  0  0  0
 22 21  1  0  0  0  0
 23 25  2  0  0  0  0
 24 23  1  0  0  0  0
 25 27  1  0  0  0  0
 25 26  1  0  0  0  0
M  END
>  <minimizedAffinity>
-5.63338804

>  <minimizedRMSD>
0.437281489

$$$$
