
 OpenBabel03272505123D

 38 41  0  0  0  0  0  0  0  0999 V2000
   36.4020   30.9160   45.7030 Cl  0  0  0  0  0  0  0  0  0  0  0  0
   36.6920   30.7660   47.4100 C   0  0  0  0  0  0  0  0  0  0  0  0
   37.9430   31.0820   47.8780 C   0  0  0  0  0  0  0  0  0  0  0  0
   38.1780   30.9640   49.2370 C   0  0  0  0  0  0  0  0  0  0  0  0
   37.1790   30.5440   50.0720 C   0  0  0  0  0  0  0  0  0  0  0  0
   35.9360   30.2410   49.5340 C   0  0  0  0  0  0  0  0  0  0  0  0
   35.6270   30.3320   48.2020 C   0  0  0  0  0  0  0  0  0  0  0  0
   39.1730   31.2180   49.5840 H   0  0  0  0  0  0  0  0  0  0  0  0
   37.3480   30.4480   51.1340 H   0  0  0  0  0  0  0  0  0  0  0  0
   35.1590   29.9090   50.2170 H   0  0  0  0  0  0  0  0  0  0  0  0
   40.2050   33.3180   46.0880 C   0  0  0  0  0  0  0  0  0  0  0  0
   40.9210   32.4640   45.2110 C   0  0  0  0  0  0  0  0  0  0  0  0
   40.6030   31.1020   45.2550 C   0  0  0  0  0  0  0  0  0  0  0  0
   39.6380   30.6790   46.1250 N   0  0  0  0  0  0  0  0  0  0  0  0
   38.9910   31.5310   46.9320 C   0  0  0  0  0  0  0  0  0  0  0  0
   39.2760   32.8380   46.9120 N   0  0  0  0  0  0  0  0  0  0  0  0
   40.4300   34.3570   46.0730 H   0  0  0  0  0  0  0  0  0  0  0  0
   41.6670   32.8250   44.5470 H   0  0  0  0  0  0  0  0  0  0  0  0
   41.0940   30.3730   44.6260 H   0  0  0  0  0  0  0  0  0  0  0  0
   34.0430   29.9470   47.5030 S   0  0  0  0  0  0  0  0  0  0  0  0
   33.7850   29.1610   44.4760 Cl  0  0  0  0  0  0  0  0  0  0  0  0
   33.8020   27.9460   45.7190 C   0  0  0  0  0  0  0  0  0  0  0  0
   33.9110   28.2090   47.0850 C   0  0  0  0  0  0  0  0  0  0  0  0
   33.9110   27.1630   47.9880 C   0  0  0  0  0  0  0  0  0  0  0  0
   33.8050   25.8670   47.5500 C   0  0  0  0  0  0  0  0  0  0  0  0
   33.6940   25.5450   46.2070 C   0  0  0  0  0  0  0  0  0  0  0  0
   33.6990   26.6200   45.3320 C   0  0  0  0  0  0  0  0  0  0  0  0
   33.9990   27.4540   49.0300 H   0  0  0  0  0  0  0  0  0  0  0  0
   33.8100   25.0900   48.3050 H   0  0  0  0  0  0  0  0  0  0  0  0
   33.6120   24.5370   45.8690 H   0  0  0  0  0  0  0  0  0  0  0  0
   33.5830   26.2980   43.9060 C   0  0  0  0  0  0  0  0  0  0  0  0
   34.5460   25.9580   43.0140 C   0  0  0  0  0  0  0  0  0  0  0  0
   35.6060   25.8840   43.3000 H   0  0  0  0  0  0  0  0  0  0  0  0
   34.0390   25.7270   41.7520 C   0  0  0  0  0  0  0  0  0  0  0  0
   34.5510   25.4440   40.8430 H   0  0  0  0  0  0  0  0  0  0  0  0
   32.6850   25.9560   41.9560 C   0  0  0  0  0  0  0  0  0  0  0  0
   31.8980   25.8800   41.1900 H   0  0  0  0  0  0  0  0  0  0  0  0
   32.4730   26.2800   43.2060 O   0  0  0  0  0  0  0  0  0  0  0  0
  1  2  1  0  0  0  0
  2  3  2  0  0  0  0
  2  7  1  0  0  0  0
  3  4  1  0  0  0  0
  4  8  1  0  0  0  0
  4  5  2  0  0  0  0
  5  9  1  0  0  0  0
  6  5  1  0  0  0  0
  6 10  1  0  0  0  0
  7  6  2  0  0  0  0
 11 16  1  0  0  0  0
 12 13  1  0  0  0  0
 12 11  2  0  0  0  0
 13 14  2  0  0  0  0
 14 15  1  0  0  0  0
 15  3  1  0  0  0  0
 16 15  2  0  0  0  0
 17 11  1  0  0  0  0
 18 12  1  0  0  0  0
 19 13  1  0  0  0  0
 20  7  1  0  0  0  0
 21 22  1  0  0  0  0
 22 23  1  0  0  0  0
 23 20  1  0  0  0  0
 23 24  2  0  0  0  0
 24 28  1  0  0  0  0
 25 24  1  0  0  0  0
 25 29  1  0  0  0  0
 26 25  2  0  0  0  0
 27 22  2  0  0  0  0
 27 26  1  0  0  0  0
 30 26  1  0  0  0  0
 31 27  1  0  0  0  0
 32 33  1  0  0  0  0
 32 31  2  0  0  0  0
 34 36  2  0  0  0  0
 34 32  1  0  0  0  0
 35 34  1  0  0  0  0
 36 38  1  0  0  0  0
 37 36  1  0  0  0  0
 38 31  1  0  0  0  0
M  END
>  <minimizedAffinity>
-5.62064552

>  <minimizedRMSD>
0.471126705

$$$$
