
 OpenBabel03262523263D

 39 42  0  0  1  0  0  0  0  0999 V2000
   39.5930   33.0420   44.5900 C   0  0  0  0  0  0  0  0  0  0  0  0
   40.4550   32.0310   44.1740 C   0  0  0  0  0  0  0  0  0  0  0  0
   40.5240   30.8890   44.9420 C   0  0  0  0  0  0  0  0  0  0  0  0
   39.7480   30.8210   46.0590 N   0  0  0  0  0  0  0  0  0  0  0  0
   38.9200   31.8190   46.4390 C   0  0  0  0  0  0  0  0  0  0  0  0
   38.8450   32.9220   45.7070 N   0  0  0  0  0  0  0  0  0  0  0  0
   38.1320   31.6630   47.6400 N   0  0  0  0  0  0  0  0  0  0  0  0
   38.0310   32.7470   48.5770 C   0  0  0  0  0  0  0  0  0  0  0  0
   37.8490   32.2840   50.0020 C   0  0  0  0  0  0  0  0  0  0  0  0
   38.3320   30.8640   50.1000 C   0  0  0  0  0  0  0  0  0  0  0  0
   37.3650   30.0170   49.3140 C   0  0  0  0  0  0  0  0  0  0  0  0
   37.4480   30.3890   47.8760 C   0  0  1  0  0  0  0  0  0  0  0  0
   39.4870   33.9700   44.0350 H   0  0  0  0  0  0  0  0  0  0  0  0
   41.0450   32.1460   43.2780 H   0  0  0  0  0  0  0  0  0  0  0  0
   41.1810   30.1100   44.6310 H   0  0  0  0  0  0  0  0  0  0  0  0
   38.8810   33.4510   48.4810 H   0  0  0  0  0  0  0  0  0  0  0  0
   37.1150   33.3220   48.3240 H   0  0  0  0  0  0  0  0  0  0  0  0
   36.8260   32.4250   50.3880 H   0  0  0  0  0  0  0  0  0  0  0  0
   38.5210   32.9080   50.6450 H   0  0  0  0  0  0  0  0  0  0  0  0
   38.3640   30.5280   51.1450 H   0  0  0  0  0  0  0  0  0  0  0  0
   39.3240   30.8070   49.6180 H   0  0  0  0  0  0  0  0  0  0  0  0
   37.6970   28.9500   49.4780 H   0  0  0  0  0  0  0  0  0  0  0  0
   36.3990   30.1010   49.8000 H   0  0  0  0  0  0  0  0  0  0  0  0
   38.1170   29.6410   47.3570 H   0  0  0  0  0  0  0  0  0  0  0  0
   36.1670   30.3200   47.1700 C   0  0  0  0  0  0  0  0  0  0  0  0
   34.8910   30.2330   47.7250 C   0  0  0  0  0  0  0  0  0  0  0  0
   33.8080   30.1750   46.9080 C   0  0  0  0  0  0  0  0  0  0  0  0
   34.0620   30.2090   45.4910 C   0  0  0  0  0  0  0  0  0  0  0  0
   35.9450   30.3290   45.4620 S   0  0  0  0  0  0  0  0  0  0  0  0
   34.6790   30.2080   48.7860 H   0  0  0  0  0  0  0  0  0  0  0  0
   32.7540   30.1070   47.1030 H   0  0  0  0  0  0  0  0  0  0  0  0
   33.2860   30.1750   44.3240 C   0  0  0  0  0  0  0  0  0  0  0  0
   33.5470   30.9960   43.2780 C   0  0  0  0  0  0  0  0  0  0  0  0
   34.3110   31.7460   43.1560 H   0  0  0  0  0  0  0  0  0  0  0  0
   32.6070   30.7250   42.2730 C   0  0  0  0  0  0  0  0  0  0  0  0
   32.4640   31.1510   41.2890 H   0  0  0  0  0  0  0  0  0  0  0  0
   31.8220   29.7090   42.8340 C   0  0  0  0  0  0  0  0  0  0  0  0
   30.9720   29.1890   42.4120 H   0  0  0  0  0  0  0  0  0  0  0  0
   32.2570   29.4070   44.0580 O   0  0  0  0  0  0  0  0  0  0  0  0
  1  6  1  0  0  0  0
  2  1  2  0  0  0  0
  2  3  1  0  0  0  0
  3  4  2  0  0  0  0
  4  5  1  0  0  0  0
  5  7  1  0  0  0  0
  6  5  2  0  0  0  0
  7 12  1  0  0  0  0
  7  8  1  0  0  0  0
  8  9  1  0  0  0  0
  9 10  1  0  0  0  0
  9 18  1  0  0  0  0
  9 19  1  0  0  0  0
 10 20  1  0  0  0  0
 11 22  1  0  0  0  0
 11 23  1  0  0  0  0
 11 10  1  0  0  0  0
 12 24  1  6  0  0  0
 12 11  1  0  0  0  0
 13  1  1  0  0  0  0
 14  2  1  0  0  0  0
 15  3  1  0  0  0  0
 16  8  1  0  0  0  0
 17  8  1  0  0  0  0
 21 10  1  0  0  0  0
 25 26  2  0  0  0  0
 25 12  1  0  0  0  0
 26 30  1  0  0  0  0
 27 31  1  0  0  0  0
 27 26  1  0  0  0  0
 28 27  2  0  0  0  0
 29 28  1  0  0  0  0
 29 25  1  0  0  0  0
 32 28  1  0  0  0  0
 33 32  2  0  0  0  0
 34 33  1  0  0  0  0
 35 37  2  0  0  0  0
 35 33  1  0  0  0  0
 36 35  1  0  0  0  0
 37 39  1  0  0  0  0
 38 37  1  0  0  0  0
 39 32  1  0  0  0  0
M  END
>  <minimizedAffinity>
-5.51145601

>  <minimizedRMSD>
0.282097608

$$$$
