
 OpenBabel03272508543D

 37 40  0  0  1  0  0  0  0  0999 V2000
   38.3930   31.8490   44.5440 C   0  0  0  0  0  0  0  0  0  0  0  0
   37.2790   32.4440   44.4280 O   0  0  0  0  0  0  0  0  0  0  0  0
   38.9260   31.5420   45.8360 N   0  0  0  0  0  0  0  0  0  0  0  0
   39.8980   31.2030   46.0050 H   0  0  0  0  0  0  0  0  0  0  0  0
   39.1600   31.4600   43.3520 C   0  0  0  0  0  0  0  0  0  0  0  0
   40.1280   30.5000   43.4900 C   0  0  0  0  0  0  0  0  0  0  0  0
   40.8540   30.1170   42.3800 C   0  0  0  0  0  0  0  0  0  0  0  0
   40.5590   30.7290   41.1800 C   0  0  0  0  0  0  0  0  0  0  0  0
   39.5840   31.6980   41.0310 C   0  0  0  0  0  0  0  0  0  0  0  0
   38.9310   32.0100   42.1520 N   0  0  0  0  0  0  0  0  0  0  0  0
   40.3960   29.9910   44.4070 H   0  0  0  0  0  0  0  0  0  0  0  0
   41.6300   29.3650   42.4230 H   0  0  0  0  0  0  0  0  0  0  0  0
   41.1350   30.4210   40.3140 H   0  0  0  0  0  0  0  0  0  0  0  0
   39.2900   32.3330   39.7520 C   0  0  0  0  0  0  0  0  0  0  0  0
   39.4720   31.7010   38.5310 C   0  0  0  0  0  0  0  0  0  0  0  0
   39.8400   30.7020   38.3720 H   0  0  0  0  0  0  0  0  0  0  0  0
   39.0670   32.6790   37.6180 C   0  0  0  0  0  0  0  0  0  0  0  0
   39.0690   32.5440   36.5440 H   0  0  0  0  0  0  0  0  0  0  0  0
   38.6730   33.8090   38.3080 C   0  0  0  0  0  0  0  0  0  0  0  0
   38.3040   34.7490   37.9220 H   0  0  0  0  0  0  0  0  0  0  0  0
   38.8200   33.5660   39.5950 O   0  0  0  0  0  0  0  0  0  0  0  0
   38.4250   31.1160   48.2370 C   0  0  2  0  0  0  0  0  0  0  0  0
   38.6810   32.5580   48.1180 C   0  0  0  0  0  0  0  0  0  0  0  0
   38.0470   31.7200   46.9810 C   0  0  1  0  0  0  0  0  0  0  0  0
   39.3500   30.5080   48.3270 H   0  0  0  0  0  0  0  0  0  0  0  0
   38.0550   33.3150   48.6180 H   0  0  0  0  0  0  0  0  0  0  0  0
   39.7160   32.9200   47.9600 H   0  0  0  0  0  0  0  0  0  0  0  0
   36.9900   32.0350   46.7700 H   0  0  0  0  0  0  0  0  0  0  0  0
   35.0860   30.2010   49.5520 C   0  0  0  0  0  0  0  0  0  0  0  0
   35.4140   29.5380   50.7780 C   0  0  0  0  0  0  0  0  0  0  0  0
   36.8140   29.4330   51.1220 C   0  0  0  0  0  0  0  0  0  0  0  0
   37.7530   29.9570   50.2830 N   0  0  0  0  0  0  0  0  0  0  0  0
   37.3510   30.5750   49.1300 C   0  0  0  0  0  0  0  0  0  0  0  0
   36.0350   30.7130   48.7370 N   0  0  0  0  0  0  0  0  0  0  0  0
   34.0350   30.2440   49.3590 H   0  0  0  0  0  0  0  0  0  0  0  0
   34.6550   29.1390   51.4130 H   0  0  0  0  0  0  0  0  0  0  0  0
   37.0630   28.9350   52.0430 H   0  0  0  0  0  0  0  0  0  0  0  0
  1  3  1  0  0  0  0
  2  1  2  0  0  0  0
  3  4  1  0  0  0  0
  3 24  1  0  0  0  0
  5  6  1  0  0  0  0
  5  1  1  0  0  0  0
  6 11  1  0  0  0  0
  7 12  1  0  0  0  0
  7  6  2  0  0  0  0
  8  7  1  0  0  0  0
  9  8  2  0  0  0  0
  9 10  1  0  0  0  0
 10  5  2  0  0  0  0
 13  8  1  0  0  0  0
 14  9  1  0  0  0  0
 15 14  2  0  0  0  0
 16 15  1  0  0  0  0
 17 19  2  0  0  0  0
 17 15  1  0  0  0  0
 18 17  1  0  0  0  0
 19 21  1  0  0  0  0
 20 19  1  0  0  0  0
 21 14  1  0  0  0  0
 22 25  1  6  0  0  0
 22 33  1  0  0  0  0
 23 22  1  0  0  0  0
 23 26  1  0  0  0  0
 24 28  1  6  0  0  0
 24 23  1  0  0  0  0
 24 22  1  0  0  0  0
 27 23  1  0  0  0  0
 29 30  1  0  0  0  0
 30 31  2  0  0  0  0
 30 36  1  0  0  0  0
 31 37  1  0  0  0  0
 32 31  1  0  0  0  0
 33 32  2  0  0  0  0
 34 33  1  0  0  0  0
 34 29  2  0  0  0  0
 35 29  1  0  0  0  0
M  END
>  <minimizedAffinity>
-5.15009928

>  <minimizedRMSD>
0.300249219

$$$$
