
 OpenBabel03272508013D

 20 21  0  0  0  0  0  0  0  0999 V2000
   37.3690   31.0480   48.7420 C   0  0  0  0  0  0  0  0  0  0  0  0
   37.8980   32.2640   49.2330 C   0  0  0  0  0  0  0  0  0  0  0  0
   38.8750   32.9060   48.4660 C   0  0  0  0  0  0  0  0  0  0  0  0
   39.2520   32.3230   47.3040 N   0  0  0  0  0  0  0  0  0  0  0  0
   38.7360   31.1620   46.8520 C   0  0  0  0  0  0  0  0  0  0  0  0
   37.7900   30.5400   47.5920 N   0  0  0  0  0  0  0  0  0  0  0  0
   37.5350   32.6480   50.1660 H   0  0  0  0  0  0  0  0  0  0  0  0
   39.0990   30.7720   45.9100 H   0  0  0  0  0  0  0  0  0  0  0  0
   36.3480   30.3670   49.5310 C   0  0  0  0  0  0  0  0  0  0  0  0
   36.5210   29.6800   50.7140 C   0  0  0  0  0  0  0  0  0  0  0  0
   37.4730   29.5590   51.2170 H   0  0  0  0  0  0  0  0  0  0  0  0
   35.2870   29.2000   51.1080 C   0  0  0  0  0  0  0  0  0  0  0  0
   35.1900   28.6190   52.0310 H   0  0  0  0  0  0  0  0  0  0  0  0
   34.4040   29.6270   50.1250 C   0  0  0  0  0  0  0  0  0  0  0  0
   33.3580   29.3660   50.2190 H   0  0  0  0  0  0  0  0  0  0  0  0
   35.0600   30.3050   49.2210 O   0  0  0  0  0  0  0  0  0  0  0  0
   39.4440   34.1840   48.9640 C   0  0  0  0  0  0  0  0  0  0  0  0
   39.9180   33.9310   50.2110 F   0  0  0  0  0  0  0  0  0  0  0  0
   40.4760   34.6530   48.1860 F   0  0  0  0  0  0  0  0  0  0  0  0
   38.4650   35.1820   49.0430 F   0  0  0  0  0  0  0  0  0  0  0  0
  1  2  1  0  0  0  0
  1  9  1  0  0  0  0
  2  7  1  0  0  0  0
  3 17  1  0  0  0  0
  3  2  2  0  0  0  0
  4  3  1  0  0  0  0
  5  4  2  0  0  0  0
  5  6  1  0  0  0  0
  6  1  2  0  0  0  0
  8  5  1  0  0  0  0
  9 10  2  0  0  0  0
 10 12  1  0  0  0  0
 10 11  1  0  0  0  0
 12 13  1  0  0  0  0
 14 15  1  0  0  0  0
 14 12  2  0  0  0  0
 16  9  1  0  0  0  0
 16 14  1  0  0  0  0
 17 20  1  0  0  0  0
 17 18  1  0  0  0  0
 19 17  1  0  0  0  0
M  END
>  <minimizedAffinity>
-5.24984074

>  <minimizedRMSD>
3.7856257

$$$$
