
 OpenBabel03272502203D

 27 29  0  0  0  0  0  0  0  0999 V2000
   37.8310   31.9700   47.2440 C   0  0  0  0  0  0  0  0  0  0  0  0
   38.1320   31.9150   45.8580 C   0  0  0  0  0  0  0  0  0  0  0  0
   37.3870   31.0410   45.0770 C   0  0  0  0  0  0  0  0  0  0  0  0
   36.4180   30.2900   45.6790 N   0  0  0  0  0  0  0  0  0  0  0  0
   36.1540   30.3630   47.0030 C   0  0  0  0  0  0  0  0  0  0  0  0
   36.8700   31.2110   47.7800 N   0  0  0  0  0  0  0  0  0  0  0  0
   38.8850   32.4960   45.3770 H   0  0  0  0  0  0  0  0  0  0  0  0
   37.5280   30.9150   44.0080 H   0  0  0  0  0  0  0  0  0  0  0  0
   36.9230   29.3910   49.8780 Br  0  0  0  0  0  0  0  0  0  0  0  0
   35.3140   29.0530   48.9110 C   0  0  0  0  0  0  0  0  0  0  0  0
   35.1180   29.5570   47.6330 C   0  0  0  0  0  0  0  0  0  0  0  0
   33.9320   29.2660   47.0070 C   0  0  0  0  0  0  0  0  0  0  0  0
   32.9350   28.5060   47.5800 C   0  0  0  0  0  0  0  0  0  0  0  0
   33.1520   28.0200   48.8430 C   0  0  0  0  0  0  0  0  0  0  0  0
   34.3480   28.2950   49.5100 C   0  0  0  0  0  0  0  0  0  0  0  0
   33.7300   29.6380   46.0040 H   0  0  0  0  0  0  0  0  0  0  0  0
   32.0030   28.2900   47.0630 H   0  0  0  0  0  0  0  0  0  0  0  0
   32.3600   27.4260   49.2790 H   0  0  0  0  0  0  0  0  0  0  0  0
   34.4090   27.8580   50.5060 H   0  0  0  0  0  0  0  0  0  0  0  0
   38.6220   32.8940   48.0520 C   0  0  0  0  0  0  0  0  0  0  0  0
   38.4650   33.0830   49.4100 C   0  0  0  0  0  0  0  0  0  0  0  0
   37.7900   32.6330   50.1110 H   0  0  0  0  0  0  0  0  0  0  0  0
   39.4170   34.0340   49.7210 C   0  0  0  0  0  0  0  0  0  0  0  0
   39.6740   34.5000   50.6640 H   0  0  0  0  0  0  0  0  0  0  0  0
   40.1120   34.3890   48.5580 C   0  0  0  0  0  0  0  0  0  0  0  0
   40.9170   35.0720   48.3280 H   0  0  0  0  0  0  0  0  0  0  0  0
   39.5780   33.6620   47.5910 O   0  0  0  0  0  0  0  0  0  0  0  0
  1  6  1  0  0  0  0
  1 20  1  0  0  0  0
  2  1  2  0  0  0  0
  3  4  2  0  0  0  0
  3  2  1  0  0  0  0
  4  5  1  0  0  0  0
  5 11  1  0  0  0  0
  5  6  2  0  0  0  0
  7  2  1  0  0  0  0
  8  3  1  0  0  0  0
 10 15  1  0  0  0  0
 10  9  1  0  0  0  0
 11 10  2  0  0  0  0
 12 13  2  0  0  0  0
 12 11  1  0  0  0  0
 13 14  1  0  0  0  0
 14 18  1  0  0  0  0
 14 15  2  0  0  0  0
 15 19  1  0  0  0  0
 16 12  1  0  0  0  0
 17 13  1  0  0  0  0
 20 21  2  0  0  0  0
 21 23  1  0  0  0  0
 21 22  1  0  0  0  0
 23 24  1  0  0  0  0
 25 23  2  0  0  0  0
 26 25  1  0  0  0  0
 27 20  1  0  0  0  0
 27 25  1  0  0  0  0
M  END
>  <minimizedAffinity>
-5.49944067

>  <minimizedRMSD>
2.37881804

$$$$
