
 OpenBabel03272503023D

 27 29  0  0  0  0  0  0  0  0999 V2000
   38.0080   30.7530   47.2110 F   0  0  0  0  0  0  0  0  0  0  0  0
   38.4610   31.8550   47.8320 C   0  0  0  0  0  0  0  0  0  0  0  0
   38.0930   32.1080   49.1250 C   0  0  0  0  0  0  0  0  0  0  0  0
   38.5920   33.2550   49.7080 C   0  0  0  0  0  0  0  0  0  0  0  0
   39.4290   34.1250   49.0320 C   0  0  0  0  0  0  0  0  0  0  0  0
   39.7840   33.8510   47.7360 C   0  0  0  0  0  0  0  0  0  0  0  0
   39.2990   32.7160   47.1400 C   0  0  0  0  0  0  0  0  0  0  0  0
   38.3040   33.4640   50.7380 H   0  0  0  0  0  0  0  0  0  0  0  0
   39.8180   35.0210   49.4850 H   0  0  0  0  0  0  0  0  0  0  0  0
   40.4410   34.5050   47.1630 H   0  0  0  0  0  0  0  0  0  0  0  0
   36.7520   29.5090   51.5140 C   0  0  0  0  0  0  0  0  0  0  0  0
   37.6290   30.4170   50.9020 C   0  0  0  0  0  0  0  0  0  0  0  0
   37.2090   31.1560   49.7870 C   0  0  0  0  0  0  0  0  0  0  0  0
   35.9520   30.9440   49.3590 N   0  0  0  0  0  0  0  0  0  0  0  0
   35.1270   30.0660   49.9650 C   0  0  0  0  0  0  0  0  0  0  0  0
   35.5260   29.3550   51.0340 N   0  0  0  0  0  0  0  0  0  0  0  0
   37.1010   28.9580   52.3630 H   0  0  0  0  0  0  0  0  0  0  0  0
   38.6350   30.5540   51.2830 H   0  0  0  0  0  0  0  0  0  0  0  0
   34.1480   30.0200   49.4890 H   0  0  0  0  0  0  0  0  0  0  0  0
   39.6600   32.3990   45.7620 C   0  0  0  0  0  0  0  0  0  0  0  0
   40.5560   31.4370   45.3530 C   0  0  0  0  0  0  0  0  0  0  0  0
   41.1360   30.7630   45.9540 H   0  0  0  0  0  0  0  0  0  0  0  0
   40.5910   31.4790   43.9830 C   0  0  0  0  0  0  0  0  0  0  0  0
   41.1610   30.8930   43.2620 H   0  0  0  0  0  0  0  0  0  0  0  0
   39.7150   32.4630   43.6070 C   0  0  0  0  0  0  0  0  0  0  0  0
   39.4080   32.8580   42.6480 H   0  0  0  0  0  0  0  0  0  0  0  0
   39.1650   33.0050   44.6920 O   0  0  0  0  0  0  0  0  0  0  0  0
  1  2  1  0  0  0  0
  2  3  1  0  0  0  0
  3  4  2  0  0  0  0
  3 13  1  0  0  0  0
  4  8  1  0  0  0  0
  5  9  1  0  0  0  0
  5  4  1  0  0  0  0
  6  5  2  0  0  0  0
  7  6  1  0  0  0  0
  7  2  2  0  0  0  0
 10  6  1  0  0  0  0
 11 17  1  0  0  0  0
 12 18  1  0  0  0  0
 12 11  2  0  0  0  0
 13 12  1  0  0  0  0
 14 13  2  0  0  0  0
 14 15  1  0  0  0  0
 15 16  2  0  0  0  0
 16 11  1  0  0  0  0
 19 15  1  0  0  0  0
 20  7  1  0  0  0  0
 21 20  2  0  0  0  0
 21 22  1  0  0  0  0
 23 21  1  0  0  0  0
 24 23  1  0  0  0  0
 25 23  2  0  0  0  0
 25 27  1  0  0  0  0
 26 25  1  0  0  0  0
 27 20  1  0  0  0  0
M  END
>  <minimizedAffinity>
-6.63297653

>  <minimizedRMSD>
0.39956215

$$$$
