
 OpenBabel03272508123D

 33 35  0  0  0  0  0  0  0  0999 V2000
   36.7190   29.4160   44.0210 Cl  0  0  0  0  0  0  0  0  0  0  0  0
   38.3800   29.8130   43.5460 C   0  0  0  0  0  0  0  0  0  0  0  0
   39.3460   30.3230   44.4130 C   0  0  0  0  0  0  0  0  0  0  0  0
   40.6050   30.5900   43.9010 C   0  0  0  0  0  0  0  0  0  0  0  0
   40.8830   30.3570   42.5790 C   0  0  0  0  0  0  0  0  0  0  0  0
   39.9600   29.8610   41.7190 C   0  0  0  0  0  0  0  0  0  0  0  0
   38.6990   29.5840   42.1930 C   0  0  0  0  0  0  0  0  0  0  0  0
   41.2680   30.9800   44.6630 H   0  0  0  0  0  0  0  0  0  0  0  0
   41.8890   30.5920   42.2620 H   0  0  0  0  0  0  0  0  0  0  0  0
   40.1880   29.6800   40.6760 H   0  0  0  0  0  0  0  0  0  0  0  0
   37.6820   29.0490   41.2890 C   0  0  0  0  0  0  0  0  0  0  0  0
   36.9000   29.7960   40.4360 C   0  0  0  0  0  0  0  0  0  0  0  0
   36.8730   30.8560   40.2680 H   0  0  0  0  0  0  0  0  0  0  0  0
   36.0600   28.9290   39.7460 C   0  0  0  0  0  0  0  0  0  0  0  0
   35.2990   29.0510   38.9990 H   0  0  0  0  0  0  0  0  0  0  0  0
   36.3920   27.6610   40.2360 C   0  0  0  0  0  0  0  0  0  0  0  0
   35.9510   26.7160   39.9390 H   0  0  0  0  0  0  0  0  0  0  0  0
   37.3430   27.7920   41.1320 O   0  0  0  0  0  0  0  0  0  0  0  0
   38.8550   30.4770   45.6800 O   0  0  0  0  0  0  0  0  0  0  0  0
   39.4300   32.5430   47.1220 O   0  0  0  0  0  0  0  0  0  0  0  0
   38.2920   31.8520   46.4400 P   0  0  1  0  0  0  0  0  0  0  0  0
   37.6990   32.8430   45.1750 O   0  0  0  0  0  0  0  0  0  0  0  0
   38.3260   33.6010   45.0380 H   0  0  0  0  0  0  0  0  0  0  0  0
   37.0180   31.4510   47.4830 O   0  0  0  0  0  0  0  0  0  0  0  0
   37.6100   30.5190   51.0030 C   0  0  0  0  0  0  0  0  0  0  0  0
   37.6940   31.3050   49.8510 C   0  0  0  0  0  0  0  0  0  0  0  0
   37.0650   30.8620   48.6920 C   0  0  0  0  0  0  0  0  0  0  0  0
   36.3910   29.6730   48.7460 N   0  0  0  0  0  0  0  0  0  0  0  0
   36.3290   28.9390   49.8780 C   0  0  0  0  0  0  0  0  0  0  0  0
   36.9350   29.3600   50.9990 N   0  0  0  0  0  0  0  0  0  0  0  0
   38.1240   30.9270   51.8650 H   0  0  0  0  0  0  0  0  0  0  0  0
   38.1970   32.2340   49.7320 H   0  0  0  0  0  0  0  0  0  0  0  0
   35.7870   27.9910   49.9060 H   0  0  0  0  0  0  0  0  0  0  0  0
  2  1  1  0  0  0  0
  2  3  1  0  0  0  0
  3 19  1  0  0  0  0
  4  3  2  0  0  0  0
  4  8  1  0  0  0  0
  5  4  1  0  0  0  0
  6  7  1  0  0  0  0
  6  5  2  0  0  0  0
  7  2  2  0  0  0  0
  9  5  1  0  0  0  0
 10  6  1  0  0  0  0
 11  7  1  0  0  0  0
 12 11  2  0  0  0  0
 13 12  1  0  0  0  0
 14 16  2  0  0  0  0
 14 12  1  0  0  0  0
 15 14  1  0  0  0  0
 16 18  1  0  0  0  0
 17 16  1  0  0  0  0
 18 11  1  0  0  0  0
 19 21  1  0  0  0  0
 21 20  2  1  0  0  0
 21 24  1  0  0  0  0
 22 21  1  0  0  0  0
 23 22  1  0  0  0  0
 24 27  1  0  0  0  0
 25 31  1  0  0  0  0
 26 25  2  0  0  0  0
 27 28  2  0  0  0  0
 27 26  1  0  0  0  0
 28 29  1  0  0  0  0
 29 33  1  0  0  0  0
 29 30  2  0  0  0  0
 30 25  1  0  0  0  0
 32 26  1  0  0  0  0
M  END
>  <minimizedAffinity>
-4.78571033

>  <minimizedRMSD>
0.372405648

$$$$
