
 OpenBabel03272506473D

 41 44  0  0  1  0  0  0  0  0999 V2000
   32.1640   28.4240   47.4840 C   0  0  2  0  0  0  0  0  0  0  0  0
   33.4170   28.2850   48.2970 C   0  0  1  0  0  0  0  0  0  0  0  0
   33.8450   26.9980   48.1970 O   0  0  0  0  0  0  0  0  0  0  0  0
   33.1470   26.3580   47.1790 C   0  0  0  0  0  0  0  0  0  0  0  0
   32.5130   27.4350   46.3270 C   0  0  1  0  0  0  0  0  0  0  0  0
   31.2570   28.0520   47.9500 H   0  0  0  0  0  0  0  0  0  0  0  0
   33.1720   28.6190   49.3250 H   0  0  0  0  0  0  0  0  0  0  0  0
   32.4620   25.6720   47.6590 H   0  0  0  0  0  0  0  0  0  0  0  0
   33.9360   25.8000   46.5810 H   0  0  0  0  0  0  0  0  0  0  0  0
   33.2320   27.9370   45.6840 H   0  0  0  0  0  0  0  0  0  0  0  0
   32.0550   29.7260   46.9550 O   0  0  0  0  0  0  0  0  0  0  0  0
   32.5830   29.7330   46.1210 H   0  0  0  0  0  0  0  0  0  0  0  0
   34.6920   29.3680   47.5360 S   0  0  0  0  0  0  0  0  0  0  0  0
   37.1440   29.2880   50.6470 C   0  0  0  0  0  0  0  0  0  0  0  0
   37.6170   30.5950   50.7670 C   0  0  0  0  0  0  0  0  0  0  0  0
   37.1620   31.5370   49.8530 C   0  0  0  0  0  0  0  0  0  0  0  0
   36.2800   31.1440   48.8870 N   0  0  0  0  0  0  0  0  0  0  0  0
   35.8480   29.8670   48.8070 C   0  0  0  0  0  0  0  0  0  0  0  0
   36.2720   28.9220   49.6840 N   0  0  0  0  0  0  0  0  0  0  0  0
   37.4440   28.4900   51.3140 H   0  0  0  0  0  0  0  0  0  0  0  0
   38.3070   30.8330   51.5480 H   0  0  0  0  0  0  0  0  0  0  0  0
   37.5020   32.5640   49.9060 H   0  0  0  0  0  0  0  0  0  0  0  0
   31.3740   26.9330   45.7480 O   0  0  0  0  0  0  0  0  0  0  0  0
   30.0870   29.0490   44.1540 Cl  0  0  0  0  0  0  0  0  0  0  0  0
   29.4230   28.1310   45.4840 C   0  0  0  0  0  0  0  0  0  0  0  0
   30.1250   27.1510   46.1480 C   0  0  0  0  0  0  0  0  0  0  0  0
   29.4770   26.4650   47.1780 C   0  0  0  0  0  0  0  0  0  0  0  0
   28.1740   26.7660   47.5130 C   0  0  0  0  0  0  0  0  0  0  0  0
   27.4610   27.7500   46.8520 C   0  0  0  0  0  0  0  0  0  0  0  0
   28.1060   28.4260   45.8330 C   0  0  0  0  0  0  0  0  0  0  0  0
   29.9290   25.6800   47.7560 H   0  0  0  0  0  0  0  0  0  0  0  0
   27.6320   26.2700   48.2970 H   0  0  0  0  0  0  0  0  0  0  0  0
   26.4390   27.9930   47.1090 H   0  0  0  0  0  0  0  0  0  0  0  0
   27.3720   29.4700   45.1200 C   0  0  0  0  0  0  0  0  0  0  0  0
   26.5420   29.3200   44.0600 C   0  0  0  0  0  0  0  0  0  0  0  0
   26.3070   28.3570   43.5840 H   0  0  0  0  0  0  0  0  0  0  0  0
   26.0250   30.5420   43.6510 C   0  0  0  0  0  0  0  0  0  0  0  0
   25.3480   30.7860   42.8560 H   0  0  0  0  0  0  0  0  0  0  0  0
   26.6130   31.4110   44.5460 C   0  0  0  0  0  0  0  0  0  0  0  0
   26.4960   32.5050   44.6100 H   0  0  0  0  0  0  0  0  0  0  0  0
   27.3850   30.7610   45.3820 O   0  0  0  0  0  0  0  0  0  0  0  0
  1  6  1  1  0  0  0
  1  2  1  0  0  0  0
  2  7  1  1  0  0  0
  3  2  1  0  0  0  0
  4  8  1  0  0  0  0
  4  3  1  0  0  0  0
  5 10  1  6  0  0  0
  5  4  1  0  0  0  0
  5  1  1  0  0  0  0
  9  4  1  0  0  0  0
 11  1  1  0  0  0  0
 12 11  1  0  0  0  0
 13  2  1  0  0  0  0
 13 18  1  0  0  0  0
 14 15  1  0  0  0  0
 14 20  1  0  0  0  0
 15 21  1  0  0  0  0
 16 22  1  0  0  0  0
 16 15  2  0  0  0  0
 17 16  1  0  0  0  0
 18 17  2  0  0  0  0
 18 19  1  0  0  0  0
 19 14  2  0  0  0  0
 23 26  1  0  0  0  0
 23  5  1  0  0  0  0
 24 25  1  0  0  0  0
 25 30  2  0  0  0  0
 25 26  1  0  0  0  0
 26 27  2  0  0  0  0
 27 28  1  0  0  0  0
 27 31  1  0  0  0  0
 28 32  1  0  0  0  0
 29 33  1  0  0  0  0
 29 28  2  0  0  0  0
 30 29  1  0  0  0  0
 34 41  1  0  0  0  0
 34 30  1  0  0  0  0
 35 34  2  0  0  0  0
 36 35  1  0  0  0  0
 37 35  1  0  0  0  0
 37 39  2  0  0  0  0
 38 37  1  0  0  0  0
 39 40  1  0  0  0  0
 39 41  1  0  0  0  0
M  END
>  <minimizedAffinity>
-5.07697916

>  <minimizedRMSD>
0.425178647

$$$$
