
 OpenBabel03262523443D

 27 29  0  0  0  0  0  0  0  0999 V2000
   38.0560   33.3430   49.6110 Cl  0  0  0  0  0  0  0  0  0  0  0  0
   38.4940   32.5020   48.1530 C   0  0  0  0  0  0  0  0  0  0  0  0
   38.0650   31.2050   47.9450 C   0  0  0  0  0  0  0  0  0  0  0  0
   38.4460   30.5900   46.7660 C   0  0  0  0  0  0  0  0  0  0  0  0
   39.2210   31.2140   45.8170 C   0  0  0  0  0  0  0  0  0  0  0  0
   39.6300   32.5180   46.0670 C   0  0  0  0  0  0  0  0  0  0  0  0
   40.6210   33.3100   44.8500 Cl  0  0  0  0  0  0  0  0  0  0  0  0
   39.2740   33.1770   47.2340 C   0  0  0  0  0  0  0  0  0  0  0  0
   38.1100   29.5750   46.6050 H   0  0  0  0  0  0  0  0  0  0  0  0
   39.6020   34.2040   47.4200 H   0  0  0  0  0  0  0  0  0  0  0  0
   37.0410   29.3530   51.0890 C   0  0  0  0  0  0  0  0  0  0  0  0
   37.8180   29.9560   50.0870 C   0  0  0  0  0  0  0  0  0  0  0  0
   37.2490   30.5850   48.9740 C   0  0  0  0  0  0  0  0  0  0  0  0
   35.8980   30.5770   48.9200 N   0  0  0  0  0  0  0  0  0  0  0  0
   35.1610   29.9960   49.8860 C   0  0  0  0  0  0  0  0  0  0  0  0
   35.7200   29.3970   50.9460 N   0  0  0  0  0  0  0  0  0  0  0  0
   37.5570   28.8910   51.9100 H   0  0  0  0  0  0  0  0  0  0  0  0
   38.9020   29.9330   50.1780 H   0  0  0  0  0  0  0  0  0  0  0  0
   34.0810   30.0690   49.7060 H   0  0  0  0  0  0  0  0  0  0  0  0
   39.6120   30.5460   44.5800 C   0  0  0  0  0  0  0  0  0  0  0  0
   38.8900   29.5300   43.9870 C   0  0  0  0  0  0  0  0  0  0  0  0
   37.9590   29.1190   44.3720 H   0  0  0  0  0  0  0  0  0  0  0  0
   39.5350   29.1220   42.8320 C   0  0  0  0  0  0  0  0  0  0  0  0
   39.1660   28.3370   42.1900 H   0  0  0  0  0  0  0  0  0  0  0  0
   40.6540   29.9440   42.7890 C   0  0  0  0  0  0  0  0  0  0  0  0
   41.3790   29.8620   41.9730 H   0  0  0  0  0  0  0  0  0  0  0  0
   40.6500   30.7530   43.8290 O   0  0  0  0  0  0  0  0  0  0  0  0
  2  1  1  0  0  0  0
  3  2  1  0  0  0  0
  3 13  1  0  0  0  0
  4  3  2  0  0  0  0
  5  6  2  0  0  0  0
  5  4  1  0  0  0  0
  6  8  1  0  0  0  0
  7  6  1  0  0  0  0
  8 10  1  0  0  0  0
  8  2  2  0  0  0  0
  9  4  1  0  0  0  0
 11 17  1  0  0  0  0
 12 18  1  0  0  0  0
 12 11  2  0  0  0  0
 13 12  1  0  0  0  0
 14 13  2  0  0  0  0
 14 15  1  0  0  0  0
 15 16  2  0  0  0  0
 16 11  1  0  0  0  0
 19 15  1  0  0  0  0
 20  5  1  0  0  0  0
 21 22  1  0  0  0  0
 21 20  2  0  0  0  0
 23 21  1  0  0  0  0
 24 23  1  0  0  0  0
 25 23  2  0  0  0  0
 25 27  1  0  0  0  0
 26 25  1  0  0  0  0
 27 20  1  0  0  0  0
M  END
>  <minimizedAffinity>
-6.40871143

>  <minimizedRMSD>
0.210637301

$$$$
