
 OpenBabel03272508123D

 33 35  0  0  0  0  0  0  0  0999 V2000
   36.6750   29.4370   44.0550 Cl  0  0  0  0  0  0  0  0  0  0  0  0
   38.3190   29.8330   43.5230 C   0  0  0  0  0  0  0  0  0  0  0  0
   39.3180   30.3330   44.3580 C   0  0  0  0  0  0  0  0  0  0  0  0
   40.5580   30.6010   43.8030 C   0  0  0  0  0  0  0  0  0  0  0  0
   40.7860   30.3780   42.4700 C   0  0  0  0  0  0  0  0  0  0  0  0
   39.8300   29.8930   41.6400 C   0  0  0  0  0  0  0  0  0  0  0  0
   38.5870   29.6160   42.1570 C   0  0  0  0  0  0  0  0  0  0  0  0
   41.2500   30.9820   44.5430 H   0  0  0  0  0  0  0  0  0  0  0  0
   41.7800   30.6140   42.1170 H   0  0  0  0  0  0  0  0  0  0  0  0
   40.0190   29.7210   40.5870 H   0  0  0  0  0  0  0  0  0  0  0  0
   37.5350   29.0920   41.2860 C   0  0  0  0  0  0  0  0  0  0  0  0
   37.3810   27.7720   40.9260 C   0  0  0  0  0  0  0  0  0  0  0  0
   37.9610   26.9080   41.1920 H   0  0  0  0  0  0  0  0  0  0  0  0
   36.2720   27.6760   40.0930 C   0  0  0  0  0  0  0  0  0  0  0  0
   35.7810   26.8710   39.5810 H   0  0  0  0  0  0  0  0  0  0  0  0
   35.8010   28.9900   39.9900 C   0  0  0  0  0  0  0  0  0  0  0  0
   34.9420   29.3270   39.4200 H   0  0  0  0  0  0  0  0  0  0  0  0
   36.5760   29.7710   40.7060 O   0  0  0  0  0  0  0  0  0  0  0  0
   38.8750   30.4770   45.6440 O   0  0  0  0  0  0  0  0  0  0  0  0
   39.4390   32.5200   47.1230 O   0  0  0  0  0  0  0  0  0  0  0  0
   38.3060   31.8390   46.4240 P   0  0  1  0  0  0  0  0  0  0  0  0
   37.7180   32.8490   45.1730 O   0  0  0  0  0  0  0  0  0  0  0  0
   38.3440   33.6110   45.0520 H   0  0  0  0  0  0  0  0  0  0  0  0
   37.0270   31.4190   47.4530 O   0  0  0  0  0  0  0  0  0  0  0  0
   37.6100   30.5300   50.9860 C   0  0  0  0  0  0  0  0  0  0  0  0
   37.6990   31.3010   49.8240 C   0  0  0  0  0  0  0  0  0  0  0  0
   37.0700   30.8440   48.6700 C   0  0  0  0  0  0  0  0  0  0  0  0
   36.3940   29.6580   48.7380 N   0  0  0  0  0  0  0  0  0  0  0  0
   36.3280   28.9390   49.8780 C   0  0  0  0  0  0  0  0  0  0  0  0
   36.9330   29.3720   50.9950 N   0  0  0  0  0  0  0  0  0  0  0  0
   38.1240   30.9480   51.8430 H   0  0  0  0  0  0  0  0  0  0  0  0
   38.2040   32.2270   49.6940 H   0  0  0  0  0  0  0  0  0  0  0  0
   35.7830   27.9920   49.9180 H   0  0  0  0  0  0  0  0  0  0  0  0
  2  1  1  0  0  0  0
  2  3  1  0  0  0  0
  3 19  1  0  0  0  0
  4  3  2  0  0  0  0
  4  8  1  0  0  0  0
  5  4  1  0  0  0  0
  6  7  1  0  0  0  0
  6  5  2  0  0  0  0
  7  2  2  0  0  0  0
  9  5  1  0  0  0  0
 10  6  1  0  0  0  0
 11  7  1  0  0  0  0
 12 13  1  0  0  0  0
 12 11  2  0  0  0  0
 14 12  1  0  0  0  0
 15 14  1  0  0  0  0
 16 14  2  0  0  0  0
 16 18  1  0  0  0  0
 17 16  1  0  0  0  0
 18 11  1  0  0  0  0
 19 21  1  0  0  0  0
 21 20  2  1  0  0  0
 21 24  1  0  0  0  0
 22 21  1  0  0  0  0
 23 22  1  0  0  0  0
 24 27  1  0  0  0  0
 25 30  1  0  0  0  0
 25 31  1  0  0  0  0
 26 25  2  0  0  0  0
 27 28  2  0  0  0  0
 27 26  1  0  0  0  0
 28 29  1  0  0  0  0
 29 33  1  0  0  0  0
 29 30  2  0  0  0  0
 32 26  1  0  0  0  0
M  END
>  <minimizedAffinity>
-4.80177784

>  <minimizedRMSD>
0.343622208

$$$$
