
 OpenBabel03262523363D

 33 35  0  0  1  0  0  0  0  0999 V2000
   35.4050   30.1550   49.8820 C   0  0  2  0  0  0  0  0  0  0  0  0
   36.2960   31.1820   49.2220 C   0  0  0  0  0  0  0  0  0  0  0  0
   37.7550   30.8850   49.3890 C   0  0  2  0  0  0  0  0  0  0  0  0
   38.1730   30.6760   50.8160 C   0  0  0  0  0  0  0  0  0  0  0  0
   37.1880   29.8830   51.6190 C   0  0  0  0  0  0  0  0  0  0  0  0
   36.1430   29.2050   50.7590 C   0  0  0  0  0  0  0  0  0  0  0  0
   34.6030   30.6490   50.4710 H   0  0  0  0  0  0  0  0  0  0  0  0
   36.0930   31.3270   48.1630 H   0  0  0  0  0  0  0  0  0  0  0  0
   36.1110   32.1580   49.7470 H   0  0  0  0  0  0  0  0  0  0  0  0
   38.0280   30.0080   48.7500 H   0  0  0  0  0  0  0  0  0  0  0  0
   39.1770   30.1610   50.7740 H   0  0  0  0  0  0  0  0  0  0  0  0
   38.3150   31.6720   51.2860 H   0  0  0  0  0  0  0  0  0  0  0  0
   36.7250   30.5150   52.4130 H   0  0  0  0  0  0  0  0  0  0  0  0
   37.7250   29.0710   52.1670 H   0  0  0  0  0  0  0  0  0  0  0  0
   35.4570   28.6760   51.4230 H   0  0  0  0  0  0  0  0  0  0  0  0
   36.6730   28.4680   50.1230 H   0  0  0  0  0  0  0  0  0  0  0  0
   34.6960   29.3520   48.8380 C   0  0  0  0  0  0  0  0  0  0  0  0
   34.3170   30.0470   47.6740 C   0  0  0  0  0  0  0  0  0  0  0  0
   33.6450   29.3100   46.6910 C   0  0  0  0  0  0  0  0  0  0  0  0
   33.3940   27.9750   46.9070 N   0  0  0  0  0  0  0  0  0  0  0  0
   33.7820   27.3470   48.0530 C   0  0  0  0  0  0  0  0  0  0  0  0
   34.4230   28.0360   48.9980 N   0  0  0  0  0  0  0  0  0  0  0  0
   34.4800   31.0710   47.4540 H   0  0  0  0  0  0  0  0  0  0  0  0
   33.3130   29.7670   45.7540 H   0  0  0  0  0  0  0  0  0  0  0  0
   33.5430   26.2970   48.1350 H   0  0  0  0  0  0  0  0  0  0  0  0
   38.4970   32.0810   48.8680 C   0  0  0  0  0  0  0  0  0  0  0  0
   38.6940   33.2670   49.5700 C   0  0  0  0  0  0  0  0  0  0  0  0
   38.3570   33.5240   50.5810 H   0  0  0  0  0  0  0  0  0  0  0  0
   39.4240   34.0990   48.7250 C   0  0  0  0  0  0  0  0  0  0  0  0
   39.7600   35.1210   48.9520 H   0  0  0  0  0  0  0  0  0  0  0  0
   39.6270   33.3660   47.5540 C   0  0  0  0  0  0  0  0  0  0  0  0
   40.1690   33.7330   46.6840 H   0  0  0  0  0  0  0  0  0  0  0  0
   39.0700   32.1930   47.6810 O   0  0  0  0  0  0  0  0  0  0  0  0
  1  7  1  1  0  0  0
  1  6  1  0  0  0  0
  2  3  1  0  0  0  0
  2  9  1  0  0  0  0
  2  1  1  0  0  0  0
  3 10  1  6  0  0  0
  3  4  1  0  0  0  0
  4 12  1  0  0  0  0
  4  5  1  0  0  0  0
  5 14  1  0  0  0  0
  5 13  1  0  0  0  0
  6 15  1  0  0  0  0
  6  5  1  0  0  0  0
  8  2  1  0  0  0  0
 11  4  1  0  0  0  0
 16  6  1  0  0  0  0
 17 22  1  0  0  0  0
 17  1  1  0  0  0  0
 18 17  2  0  0  0  0
 19 20  2  0  0  0  0
 19 18  1  0  0  0  0
 20 21  1  0  0  0  0
 21 25  1  0  0  0  0
 21 22  2  0  0  0  0
 23 18  1  0  0  0  0
 24 19  1  0  0  0  0
 26  3  1  0  0  0  0
 26 27  2  0  0  0  0
 27 28  1  0  0  0  0
 29 30  1  0  0  0  0
 29 27  1  0  0  0  0
 31 33  1  0  0  0  0
 31 29  2  0  0  0  0
 32 31  1  0  0  0  0
 33 26  1  0  0  0  0
M  END
>  <minimizedAffinity>
-6.23035812

>  <minimizedRMSD>
0.423795193

$$$$
