
 OpenBabel03272510273D

 44 48  0  0  1  0  0  0  0  0999 V2000
   36.0180   30.0710   46.6090 C   0  0  0  0  0  0  0  0  0  0  0  0
   36.9350   30.6680   47.4400 C   0  0  0  0  0  0  0  0  0  0  0  0
   37.8980   31.5590   46.9370 C   0  0  0  0  0  0  0  0  0  0  0  0
   37.8640   31.7950   45.5610 C   0  0  0  0  0  0  0  0  0  0  0  0
   38.6780   32.6120   44.8300 N   0  0  0  0  0  0  0  0  0  0  0  0
   38.2670   32.5210   43.5590 C   0  0  0  0  0  0  0  0  0  0  0  0
   37.2460   31.6900   43.4850 N   0  0  0  0  0  0  0  0  0  0  0  0
   36.9600   31.2130   44.7080 C   0  0  0  0  0  0  0  0  0  0  0  0
   36.0190   30.3320   45.2540 C   0  0  0  0  0  0  0  0  0  0  0  0
   35.2780   29.3840   47.0060 H   0  0  0  0  0  0  0  0  0  0  0  0
   38.6370   32.0470   47.5660 H   0  0  0  0  0  0  0  0  0  0  0  0
   39.4560   33.1820   45.2080 H   0  0  0  0  0  0  0  0  0  0  0  0
   35.3070   29.8740   44.5810 H   0  0  0  0  0  0  0  0  0  0  0  0
   37.6310   30.3830   51.1300 C   0  0  0  0  0  0  0  0  0  0  0  0
   37.8330   30.7540   49.7990 C   0  0  0  0  0  0  0  0  0  0  0  0
   36.9080   30.3810   48.8620 C   0  0  0  0  0  0  0  0  0  0  0  0
   35.8240   29.6530   49.3080 N   0  0  0  0  0  0  0  0  0  0  0  0
   35.6360   29.2990   50.5910 C   0  0  0  0  0  0  0  0  0  0  0  0
   36.5340   29.6640   51.4850 N   0  0  0  0  0  0  0  0  0  0  0  0
   38.3730   30.6870   51.8540 H   0  0  0  0  0  0  0  0  0  0  0  0
   38.6720   31.3200   49.4370 H   0  0  0  0  0  0  0  0  0  0  0  0
   34.7590   28.7270   50.8610 H   0  0  0  0  0  0  0  0  0  0  0  0
   38.8780   33.2320   42.5240 O   0  0  0  0  0  0  0  0  0  0  0  0
   38.1150   32.0140   40.7230 N   0  0  0  0  0  0  0  0  0  0  0  0
   38.1180   33.3310   41.3240 C   0  0  1  0  0  0  0  0  0  0  0  0
   36.7630   33.7750   41.6050 C   0  0  0  0  0  0  0  0  0  0  0  0
   36.0650   33.8900   40.3900 O   0  0  0  0  0  0  0  0  0  0  0  0
   36.0650   32.7700   39.6090 C   0  0  0  0  0  0  0  0  0  0  0  0
   37.4430   32.1780   39.4460 C   0  0  1  0  0  0  0  0  0  0  0  0
   37.6300   31.2680   41.1870 H   0  0  0  0  0  0  0  0  0  0  0  0
   38.6080   33.9960   40.5930 H   0  0  0  0  0  0  0  0  0  0  0  0
   36.8220   34.8450   41.9720 H   0  0  0  0  0  0  0  0  0  0  0  0
   36.0720   33.2810   42.2340 H   0  0  0  0  0  0  0  0  0  0  0  0
   35.6860   33.0410   38.6230 H   0  0  0  0  0  0  0  0  0  0  0  0
   35.4190   31.9910   40.0980 H   0  0  0  0  0  0  0  0  0  0  0  0
   37.3180   31.2030   38.9190 H   0  0  0  0  0  0  0  0  0  0  0  0
   38.2550   33.1290   38.6420 C   0  0  0  0  0  0  0  0  0  0  0  0
   37.6070   33.9220   37.6890 C   0  0  0  0  0  0  0  0  0  0  0  0
   36.5600   33.9690   37.4170 H   0  0  0  0  0  0  0  0  0  0  0  0
   38.5590   34.7200   37.0720 C   0  0  0  0  0  0  0  0  0  0  0  0
   38.3710   35.4420   36.2890 H   0  0  0  0  0  0  0  0  0  0  0  0
   39.7410   34.3640   37.6890 C   0  0  0  0  0  0  0  0  0  0  0  0
   40.6860   34.8200   37.4230 H   0  0  0  0  0  0  0  0  0  0  0  0
   39.5330   33.4310   38.6040 O   0  0  0  0  0  0  0  0  0  0  0  0
  1 10  1  0  0  0  0
  1  2  1  0  0  0  0
  2 16  1  0  0  0  0
  3  2  2  0  0  0  0
  3 11  1  0  0  0  0
  4  3  1  0  0  0  0
  5 12  1  0  0  0  0
  5  4  1  0  0  0  0
  6  5  1  0  0  0  0
  7  6  2  0  0  0  0
  7  8  1  0  0  0  0
  8  9  1  0  0  0  0
  8  4  2  0  0  0  0
  9  1  2  0  0  0  0
 13  9  1  0  0  0  0
 14 19  1  0  0  0  0
 14 20  1  0  0  0  0
 15 14  2  0  0  0  0
 16 17  2  0  0  0  0
 16 15  1  0  0  0  0
 17 18  1  0  0  0  0
 18 22  1  0  0  0  0
 18 19  2  0  0  0  0
 21 15  1  0  0  0  0
 23  6  1  0  0  0  0
 24 30  1  0  0  0  0
 24 25  1  0  0  0  0
 25 31  1  6  0  0  0
 25 26  1  0  0  0  0
 25 23  1  0  0  0  0
 26 32  1  0  0  0  0
 26 33  1  0  0  0  0
 27 26  1  0  0  0  0
 28 35  1  0  0  0  0
 28 27  1  0  0  0  0
 29 36  1  6  0  0  0
 29 28  1  0  0  0  0
 29 24  1  0  0  0  0
 34 28  1  0  0  0  0
 37 29  1  0  0  0  0
 38 37  2  0  0  0  0
 39 38  1  0  0  0  0
 40 42  2  0  0  0  0
 40 38  1  0  0  0  0
 41 40  1  0  0  0  0
 42 44  1  0  0  0  0
 43 42  1  0  0  0  0
 44 37  1  0  0  0  0
M  END
>  <minimizedAffinity>
-5.19521189

>  <minimizedRMSD>
1.55385828

$$$$
