
 OpenBabel03272508113D

 33 35  0  0  0  0  0  0  0  0999 V2000
   36.6750   29.4380   44.0540 Cl  0  0  0  0  0  0  0  0  0  0  0  0
   38.3190   29.8340   43.5220 C   0  0  0  0  0  0  0  0  0  0  0  0
   39.3190   30.3330   44.3570 C   0  0  0  0  0  0  0  0  0  0  0  0
   40.5590   30.6010   43.8020 C   0  0  0  0  0  0  0  0  0  0  0  0
   40.7870   30.3790   42.4690 C   0  0  0  0  0  0  0  0  0  0  0  0
   39.8310   29.8940   41.6390 C   0  0  0  0  0  0  0  0  0  0  0  0
   38.5870   29.6170   42.1570 C   0  0  0  0  0  0  0  0  0  0  0  0
   41.2510   30.9820   44.5420 H   0  0  0  0  0  0  0  0  0  0  0  0
   41.7810   30.6140   42.1170 H   0  0  0  0  0  0  0  0  0  0  0  0
   40.0200   29.7210   40.5860 H   0  0  0  0  0  0  0  0  0  0  0  0
   37.5360   29.0930   41.2850 C   0  0  0  0  0  0  0  0  0  0  0  0
   37.3810   27.7720   40.9250 C   0  0  0  0  0  0  0  0  0  0  0  0
   37.9610   26.9090   41.1900 H   0  0  0  0  0  0  0  0  0  0  0  0
   36.2730   27.6770   40.0910 C   0  0  0  0  0  0  0  0  0  0  0  0
   35.7820   26.8720   39.5800 H   0  0  0  0  0  0  0  0  0  0  0  0
   35.8020   28.9910   39.9900 C   0  0  0  0  0  0  0  0  0  0  0  0
   34.9420   29.3280   39.4200 H   0  0  0  0  0  0  0  0  0  0  0  0
   36.5760   29.7730   40.7050 O   0  0  0  0  0  0  0  0  0  0  0  0
   38.8750   30.4770   45.6430 O   0  0  0  0  0  0  0  0  0  0  0  0
   39.4380   32.5200   47.1230 O   0  0  0  0  0  0  0  0  0  0  0  0
   38.3060   31.8380   46.4230 P   0  0  1  0  0  0  0  0  0  0  0  0
   37.7180   32.8490   45.1720 O   0  0  0  0  0  0  0  0  0  0  0  0
   38.3440   33.6110   45.0520 H   0  0  0  0  0  0  0  0  0  0  0  0
   37.0270   31.4180   47.4520 O   0  0  0  0  0  0  0  0  0  0  0  0
   37.6110   30.5300   50.9860 C   0  0  0  0  0  0  0  0  0  0  0  0
   37.6990   31.3010   49.8230 C   0  0  0  0  0  0  0  0  0  0  0  0
   37.0700   30.8440   48.6690 C   0  0  0  0  0  0  0  0  0  0  0  0
   36.3930   29.6580   48.7370 N   0  0  0  0  0  0  0  0  0  0  0  0
   36.3280   28.9390   49.8780 C   0  0  0  0  0  0  0  0  0  0  0  0
   36.9330   29.3730   50.9950 N   0  0  0  0  0  0  0  0  0  0  0  0
   38.1240   30.9480   51.8420 H   0  0  0  0  0  0  0  0  0  0  0  0
   38.2040   32.2270   49.6930 H   0  0  0  0  0  0  0  0  0  0  0  0
   35.7830   27.9920   49.9180 H   0  0  0  0  0  0  0  0  0  0  0  0
  2  1  1  0  0  0  0
  2  3  1  0  0  0  0
  3 19  1  0  0  0  0
  4  3  2  0  0  0  0
  4  8  1  0  0  0  0
  5  4  1  0  0  0  0
  6  7  1  0  0  0  0
  6  5  2  0  0  0  0
  7  2  2  0  0  0  0
  9  5  1  0  0  0  0
 10  6  1  0  0  0  0
 11  7  1  0  0  0  0
 12 13  1  0  0  0  0
 12 11  2  0  0  0  0
 14 12  1  0  0  0  0
 15 14  1  0  0  0  0
 16 14  2  0  0  0  0
 16 18  1  0  0  0  0
 17 16  1  0  0  0  0
 18 11  1  0  0  0  0
 19 21  1  0  0  0  0
 21 20  2  1  0  0  0
 21 24  1  0  0  0  0
 22 21  1  0  0  0  0
 23 22  1  0  0  0  0
 24 27  1  0  0  0  0
 25 30  1  0  0  0  0
 25 31  1  0  0  0  0
 26 25  2  0  0  0  0
 27 28  2  0  0  0  0
 27 26  1  0  0  0  0
 28 29  1  0  0  0  0
 29 33  1  0  0  0  0
 29 30  2  0  0  0  0
 32 26  1  0  0  0  0
M  END
>  <minimizedAffinity>
-4.79934406

>  <minimizedRMSD>
0.428621083

$$$$
