
 OpenBabel03272508543D

 37 40  0  0  1  0  0  0  0  0999 V2000
   38.3850   31.8630   44.5340 C   0  0  0  0  0  0  0  0  0  0  0  0
   37.2610   32.4400   44.4200 O   0  0  0  0  0  0  0  0  0  0  0  0
   38.9300   31.5740   45.8250 N   0  0  0  0  0  0  0  0  0  0  0  0
   39.9080   31.2520   45.9910 H   0  0  0  0  0  0  0  0  0  0  0  0
   39.1510   31.4790   43.3400 C   0  0  0  0  0  0  0  0  0  0  0  0
   40.1270   30.5280   43.4770 C   0  0  0  0  0  0  0  0  0  0  0  0
   40.8540   30.1480   42.3650 C   0  0  0  0  0  0  0  0  0  0  0  0
   40.5500   30.7560   41.1650 C   0  0  0  0  0  0  0  0  0  0  0  0
   39.5660   31.7170   41.0170 C   0  0  0  0  0  0  0  0  0  0  0  0
   38.9140   32.0250   42.1400 N   0  0  0  0  0  0  0  0  0  0  0  0
   40.4020   30.0220   44.3940 H   0  0  0  0  0  0  0  0  0  0  0  0
   41.6350   29.4030   42.4070 H   0  0  0  0  0  0  0  0  0  0  0  0
   41.1260   30.4510   40.2980 H   0  0  0  0  0  0  0  0  0  0  0  0
   39.2640   32.3470   39.7390 C   0  0  0  0  0  0  0  0  0  0  0  0
   38.6390   33.5800   39.6290 C   0  0  0  0  0  0  0  0  0  0  0  0
   38.3080   34.2090   40.4380 H   0  0  0  0  0  0  0  0  0  0  0  0
   38.5650   33.7610   38.2430 C   0  0  0  0  0  0  0  0  0  0  0  0
   38.1290   34.6320   37.7700 H   0  0  0  0  0  0  0  0  0  0  0  0
   39.1270   32.6700   37.6120 C   0  0  0  0  0  0  0  0  0  0  0  0
   39.2390   32.4790   36.5540 H   0  0  0  0  0  0  0  0  0  0  0  0
   39.5400   31.8350   38.5440 O   0  0  0  0  0  0  0  0  0  0  0  0
   38.4310   31.1260   48.2220 C   0  0  2  0  0  0  0  0  0  0  0  0
   38.6960   32.5680   48.1180 C   0  0  0  0  0  0  0  0  0  0  0  0
   38.0540   31.7460   46.9730 C   0  0  1  0  0  0  0  0  0  0  0  0
   39.3520   30.5110   48.3040 H   0  0  0  0  0  0  0  0  0  0  0  0
   38.0760   33.3230   48.6280 H   0  0  0  0  0  0  0  0  0  0  0  0
   39.7330   32.9240   47.9620 H   0  0  0  0  0  0  0  0  0  0  0  0
   36.9990   32.0700   46.7680 H   0  0  0  0  0  0  0  0  0  0  0  0
   35.0890   30.2190   49.5350 C   0  0  0  0  0  0  0  0  0  0  0  0
   35.4150   29.5410   50.7540 C   0  0  0  0  0  0  0  0  0  0  0  0
   36.8150   29.4230   51.0920 C   0  0  0  0  0  0  0  0  0  0  0  0
   37.7560   29.9500   50.2570 N   0  0  0  0  0  0  0  0  0  0  0  0
   37.3560   30.5830   49.1120 C   0  0  0  0  0  0  0  0  0  0  0  0
   36.0400   30.7330   48.7230 N   0  0  0  0  0  0  0  0  0  0  0  0
   34.0380   30.2710   49.3450 H   0  0  0  0  0  0  0  0  0  0  0  0
   34.6550   29.1400   51.3860 H   0  0  0  0  0  0  0  0  0  0  0  0
   37.0630   28.9140   52.0080 H   0  0  0  0  0  0  0  0  0  0  0  0
  1  3  1  0  0  0  0
  2  1  2  0  0  0  0
  3  4  1  0  0  0  0
  3 24  1  0  0  0  0
  5  6  1  0  0  0  0
  5  1  1  0  0  0  0
  6 11  1  0  0  0  0
  7 12  1  0  0  0  0
  7  6  2  0  0  0  0
  8  7  1  0  0  0  0
  9  8  2  0  0  0  0
  9 10  1  0  0  0  0
 10  5  2  0  0  0  0
 13  8  1  0  0  0  0
 14  9  1  0  0  0  0
 15 14  2  0  0  0  0
 15 16  1  0  0  0  0
 17 15  1  0  0  0  0
 18 17  1  0  0  0  0
 19 17  2  0  0  0  0
 19 21  1  0  0  0  0
 20 19  1  0  0  0  0
 21 14  1  0  0  0  0
 22 25  1  6  0  0  0
 22 33  1  0  0  0  0
 23 22  1  0  0  0  0
 23 26  1  0  0  0  0
 24 28  1  6  0  0  0
 24 23  1  0  0  0  0
 24 22  1  0  0  0  0
 27 23  1  0  0  0  0
 29 30  1  0  0  0  0
 30 31  2  0  0  0  0
 30 36  1  0  0  0  0
 31 37  1  0  0  0  0
 32 31  1  0  0  0  0
 33 32  2  0  0  0  0
 34 33  1  0  0  0  0
 34 29  2  0  0  0  0
 35 29  1  0  0  0  0
M  END
>  <minimizedAffinity>
-5.15382099

>  <minimizedRMSD>
0.51640445

$$$$
