
 OpenBabel03272510223D

 35 38  0  0  0  0  0  0  0  0999 V2000
   35.2310   31.7900   32.1150 Br  0  0  0  0  0  0  0  0  0  0  0  0
   35.9110   30.0560   32.5680 C   0  0  0  0  0  0  0  0  0  0  0  0
   35.7860   29.5680   33.8580 C   0  0  0  0  0  0  0  0  0  0  0  0
   36.2960   28.3110   34.1240 C   0  0  0  0  0  0  0  0  0  0  0  0
   36.9200   27.5430   33.1440 C   0  0  0  0  0  0  0  0  0  0  0  0
   37.0270   28.0530   31.8880 C   0  0  0  0  0  0  0  0  0  0  0  0
   36.5210   29.3060   31.6110 C   0  0  0  0  0  0  0  0  0  0  0  0
   36.2350   27.8650   35.1050 H   0  0  0  0  0  0  0  0  0  0  0  0
   37.5030   27.4730   31.1310 H   0  0  0  0  0  0  0  0  0  0  0  0
   36.6360   29.6580   30.5950 H   0  0  0  0  0  0  0  0  0  0  0  0
   33.1220   30.8610   35.9960 C   0  0  0  0  0  0  0  0  0  0  0  0
   33.8010   31.7730   36.8450 C   0  0  0  0  0  0  0  0  0  0  0  0
   35.1740   31.9340   36.6730 C   0  0  0  0  0  0  0  0  0  0  0  0
   35.8100   31.2080   35.6940 N   0  0  0  0  0  0  0  0  0  0  0  0
   35.1360   30.3510   34.9050 C   0  0  0  0  0  0  0  0  0  0  0  0
   33.7910   30.1820   35.0600 N   0  0  0  0  0  0  0  0  0  0  0  0
   32.0620   30.7710   36.1680 H   0  0  0  0  0  0  0  0  0  0  0  0
   33.2600   32.3180   37.5960 H   0  0  0  0  0  0  0  0  0  0  0  0
   35.7330   32.6080   37.2860 H   0  0  0  0  0  0  0  0  0  0  0  0
   37.4620   26.2130   33.4220 C   0  0  0  0  0  0  0  0  0  0  0  0
   37.8310   25.3010   32.4510 C   0  0  0  0  0  0  0  0  0  0  0  0
   38.3400   24.0500   32.7720 C   0  0  0  0  0  0  0  0  0  0  0  0
   38.4870   23.6970   34.0440 N   0  0  0  0  0  0  0  0  0  0  0  0
   38.1320   24.5760   34.9990 C   0  0  0  0  0  0  0  0  0  0  0  0
   37.6410   25.7810   34.6890 N   0  0  0  0  0  0  0  0  0  0  0  0
   37.7080   25.5980   31.4160 H   0  0  0  0  0  0  0  0  0  0  0  0
   38.6120   23.3780   31.9680 H   0  0  0  0  0  0  0  0  0  0  0  0
   38.2290   24.3470   36.4400 C   0  0  0  0  0  0  0  0  0  0  0  0
   38.9650   23.2540   36.9150 C   0  0  0  0  0  0  0  0  0  0  0  0
   39.5070   22.5060   36.3510 H   0  0  0  0  0  0  0  0  0  0  0  0
   38.8950   23.2680   38.3080 C   0  0  0  0  0  0  0  0  0  0  0  0
   39.3790   22.5320   38.9400 H   0  0  0  0  0  0  0  0  0  0  0  0
   38.1060   24.3890   38.5910 C   0  0  0  0  0  0  0  0  0  0  0  0
   37.8640   24.6770   39.6070 H   0  0  0  0  0  0  0  0  0  0  0  0
   37.7500   24.9720   37.4910 O   0  0  0  0  0  0  0  0  0  0  0  0
  1  2  1  0  0  0  0
  2  3  1  0  0  0  0
  3  4  2  0  0  0  0
  3 15  1  0  0  0  0
  4  8  1  0  0  0  0
  5 20  1  0  0  0  0
  5  4  1  0  0  0  0
  6  5  2  0  0  0  0
  7  6  1  0  0  0  0
  7  2  2  0  0  0  0
  9  6  1  0  0  0  0
 10  7  1  0  0  0  0
 11 17  1  0  0  0  0
 11 12  1  0  0  0  0
 12 18  1  0  0  0  0
 13 12  2  0  0  0  0
 13 19  1  0  0  0  0
 14 13  1  0  0  0  0
 15 16  1  0  0  0  0
 15 14  2  0  0  0  0
 16 11  2  0  0  0  0
 20 25  1  0  0  0  0
 21 22  1  0  0  0  0
 21 20  2  0  0  0  0
 22 23  2  0  0  0  0
 23 24  1  0  0  0  0
 24 28  1  0  0  0  0
 25 24  2  0  0  0  0
 26 21  1  0  0  0  0
 27 22  1  0  0  0  0
 28 29  2  0  0  0  0
 28 35  1  0  0  0  0
 29 31  1  0  0  0  0
 30 29  1  0  0  0  0
 31 33  2  0  0  0  0
 31 32  1  0  0  0  0
 33 34  1  0  0  0  0
 35 33  1  0  0  0  0
M  END
>  <minimizedAffinity>
-6.20588636

$$$$

 OpenBabel03272510223D

 35 38  0  0  0  0  0  0  0  0999 V2000
   34.7460   31.8350   32.2470 Br  0  0  0  0  0  0  0  0  0  0  0  0
   35.6030   30.1940   32.7400 C   0  0  0  0  0  0  0  0  0  0  0  0
   35.5660   29.7480   34.0520 C   0  0  0  0  0  0  0  0  0  0  0  0
   36.2020   28.5570   34.3460 C   0  0  0  0  0  0  0  0  0  0  0  0
   36.8670   27.8130   33.3730 C   0  0  0  0  0  0  0  0  0  0  0  0
   36.8850   28.2800   32.0970 C   0  0  0  0  0  0  0  0  0  0  0  0
   36.2530   29.4680   31.7910 C   0  0  0  0  0  0  0  0  0  0  0  0
   36.2140   28.1470   35.3440 H   0  0  0  0  0  0  0  0  0  0  0  0
   37.3910   27.7180   31.3460 H   0  0  0  0  0  0  0  0  0  0  0  0
   36.3020   29.7880   30.7600 H   0  0  0  0  0  0  0  0  0  0  0  0
   35.0660   32.1240   36.7800 C   0  0  0  0  0  0  0  0  0  0  0  0
   33.6840   31.9940   37.0740 C   0  0  0  0  0  0  0  0  0  0  0  0
   32.9350   31.0880   36.3280 C   0  0  0  0  0  0  0  0  0  0  0  0
   33.5620   30.3600   35.3440 N   0  0  0  0  0  0  0  0  0  0  0  0
   34.8760   30.5070   35.0900 C   0  0  0  0  0  0  0  0  0  0  0  0
   35.6230   31.3910   35.8120 N   0  0  0  0  0  0  0  0  0  0  0  0
   35.6030   32.8380   37.3830 H   0  0  0  0  0  0  0  0  0  0  0  0
   33.2400   32.5860   37.8530 H   0  0  0  0  0  0  0  0  0  0  0  0
   31.8910   30.9520   36.5090 H   0  0  0  0  0  0  0  0  0  0  0  0
   37.5430   26.5520   33.6820 C   0  0  0  0  0  0  0  0  0  0  0  0
   38.5490   26.4140   34.6190 C   0  0  0  0  0  0  0  0  0  0  0  0
   39.1570   25.1930   34.8720 C   0  0  0  0  0  0  0  0  0  0  0  0
   38.7770   24.1090   34.2050 N   0  0  0  0  0  0  0  0  0  0  0  0
   37.7980   24.2290   33.2900 C   0  0  0  0  0  0  0  0  0  0  0  0
   37.2120   25.4080   33.0460 N   0  0  0  0  0  0  0  0  0  0  0  0
   38.8530   27.3040   35.1590 H   0  0  0  0  0  0  0  0  0  0  0  0
   39.9400   25.1460   35.6180 H   0  0  0  0  0  0  0  0  0  0  0  0
   37.2620   23.1410   32.4720 C   0  0  0  0  0  0  0  0  0  0  0  0
   36.0230   23.3010   31.8400 C   0  0  0  0  0  0  0  0  0  0  0  0
   35.3570   24.1530   31.8620 H   0  0  0  0  0  0  0  0  0  0  0  0
   35.7520   22.1280   31.1350 C   0  0  0  0  0  0  0  0  0  0  0  0
   34.8530   21.9750   30.5500 H   0  0  0  0  0  0  0  0  0  0  0  0
   36.8660   21.3200   31.3910 C   0  0  0  0  0  0  0  0  0  0  0  0
   36.9590   20.3230   30.9760 H   0  0  0  0  0  0  0  0  0  0  0  0
   37.7010   21.9430   32.1600 O   0  0  0  0  0  0  0  0  0  0  0  0
  1  2  1  0  0  0  0
  2  3  1  0  0  0  0
  3  4  2  0  0  0  0
  3 15  1  0  0  0  0
  4  8  1  0  0  0  0
  5 20  1  0  0  0  0
  5  4  1  0  0  0  0
  6  5  2  0  0  0  0
  7  6  1  0  0  0  0
  7  2  2  0  0  0  0
  9  6  1  0  0  0  0
 10  7  1  0  0  0  0
 11 12  1  0  0  0  0
 11 17  1  0  0  0  0
 12 18  1  0  0  0  0
 13 19  1  0  0  0  0
 13 12  2  0  0  0  0
 14 13  1  0  0  0  0
 15 14  2  0  0  0  0
 15 16  1  0  0  0  0
 16 11  2  0  0  0  0
 20 21  1  0  0  0  0
 21 22  2  0  0  0  0
 21 26  1  0  0  0  0
 22 27  1  0  0  0  0
 23 22  1  0  0  0  0
 24 23  2  0  0  0  0
 25 24  1  0  0  0  0
 25 20  2  0  0  0  0
 28 24  1  0  0  0  0
 29 30  1  0  0  0  0
 29 28  2  0  0  0  0
 31 33  2  0  0  0  0
 31 29  1  0  0  0  0
 32 31  1  0  0  0  0
 33 35  1  0  0  0  0
 34 33  1  0  0  0  0
 35 28  1  0  0  0  0
M  END
>  <minimizedAffinity>
-5.84293032

$$$$

 OpenBabel03272510223D

 35 38  0  0  0  0  0  0  0  0999 V2000
   36.6560   30.4160   30.6920 Br  0  0  0  0  0  0  0  0  0  0  0  0
   37.1250   28.7290   31.4700 C   0  0  0  0  0  0  0  0  0  0  0  0
   36.4570   28.2630   32.5910 C   0  0  0  0  0  0  0  0  0  0  0  0
   36.8410   27.0400   33.1070 C   0  0  0  0  0  0  0  0  0  0  0  0
   37.8630   26.2830   32.5370 C   0  0  0  0  0  0  0  0  0  0  0  0
   38.4980   26.7710   31.4390 C   0  0  0  0  0  0  0  0  0  0  0  0
   38.1240   27.9910   30.9150 C   0  0  0  0  0  0  0  0  0  0  0  0
   36.3660   26.6120   33.9760 H   0  0  0  0  0  0  0  0  0  0  0  0
   39.2810   26.2000   30.9950 H   0  0  0  0  0  0  0  0  0  0  0  0
   38.6650   28.3270   30.0410 H   0  0  0  0  0  0  0  0  0  0  0  0
   34.7880   30.5540   34.8940 C   0  0  0  0  0  0  0  0  0  0  0  0
   33.4400   30.5330   34.4510 C   0  0  0  0  0  0  0  0  0  0  0  0
   33.1180   29.7290   33.3610 C   0  0  0  0  0  0  0  0  0  0  0  0
   34.1120   28.9920   32.7630 N   0  0  0  0  0  0  0  0  0  0  0  0
   35.3820   29.0340   33.2080 C   0  0  0  0  0  0  0  0  0  0  0  0
   35.7140   29.8170   34.2740 N   0  0  0  0  0  0  0  0  0  0  0  0
   34.9880   31.1910   35.7390 H   0  0  0  0  0  0  0  0  0  0  0  0
   32.6980   31.1270   34.9520 H   0  0  0  0  0  0  0  0  0  0  0  0
   32.1180   29.6770   32.9880 H   0  0  0  0  0  0  0  0  0  0  0  0
   38.2720   24.9880   33.0820 C   0  0  0  0  0  0  0  0  0  0  0  0
   38.6450   23.9000   32.3140 C   0  0  0  0  0  0  0  0  0  0  0  0
   39.0230   22.6930   32.8830 C   0  0  0  0  0  0  0  0  0  0  0  0
   39.0370   22.5550   34.2050 N   0  0  0  0  0  0  0  0  0  0  0  0
   38.6760   23.6060   34.9630 C   0  0  0  0  0  0  0  0  0  0  0  0
   38.3100   24.7700   34.4130 N   0  0  0  0  0  0  0  0  0  0  0  0
   38.6310   24.0220   31.2370 H   0  0  0  0  0  0  0  0  0  0  0  0
   39.3060   21.8770   32.2320 H   0  0  0  0  0  0  0  0  0  0  0  0
   38.6360   23.6220   36.4260 C   0  0  0  0  0  0  0  0  0  0  0  0
   37.7790   24.5160   37.0800 C   0  0  0  0  0  0  0  0  0  0  0  0
   37.1000   25.2410   36.6500 H   0  0  0  0  0  0  0  0  0  0  0  0
   37.9360   24.3260   38.4530 C   0  0  0  0  0  0  0  0  0  0  0  0
   37.3910   24.8890   39.2020 H   0  0  0  0  0  0  0  0  0  0  0  0
   38.8960   23.3110   38.5420 C   0  0  0  0  0  0  0  0  0  0  0  0
   39.2410   22.9300   39.4960 H   0  0  0  0  0  0  0  0  0  0  0  0
   39.2650   22.9430   37.3560 O   0  0  0  0  0  0  0  0  0  0  0  0
  1  2  1  0  0  0  0
  2  3  1  0  0  0  0
  3  4  2  0  0  0  0
  3 15  1  0  0  0  0
  4  8  1  0  0  0  0
  5 20  1  0  0  0  0
  5  4  1  0  0  0  0
  6  5  2  0  0  0  0
  7  6  1  0  0  0  0
  7  2  2  0  0  0  0
  9  6  1  0  0  0  0
 10  7  1  0  0  0  0
 11 17  1  0  0  0  0
 12 11  1  0  0  0  0
 12 18  1  0  0  0  0
 13 12  2  0  0  0  0
 14 15  2  0  0  0  0
 14 13  1  0  0  0  0
 15 16  1  0  0  0  0
 16 11  2  0  0  0  0
 19 13  1  0  0  0  0
 20 25  1  0  0  0  0
 21 22  1  0  0  0  0
 21 20  2  0  0  0  0
 22 23  2  0  0  0  0
 23 24  1  0  0  0  0
 24 28  1  0  0  0  0
 25 24  2  0  0  0  0
 26 21  1  0  0  0  0
 27 22  1  0  0  0  0
 28 29  2  0  0  0  0
 28 35  1  0  0  0  0
 29 31  1  0  0  0  0
 30 29  1  0  0  0  0
 31 33  2  0  0  0  0
 31 32  1  0  0  0  0
 33 34  1  0  0  0  0
 35 33  1  0  0  0  0
M  END
>  <minimizedAffinity>
-5.69517851

$$$$

 OpenBabel03272510223D

 35 38  0  0  0  0  0  0  0  0999 V2000
   36.9430   28.8480   31.3540 Br  0  0  0  0  0  0  0  0  0  0  0  0
   37.3470   27.6650   32.8060 C   0  0  0  0  0  0  0  0  0  0  0  0
   36.7760   27.8640   34.0530 C   0  0  0  0  0  0  0  0  0  0  0  0
   37.1060   26.9780   35.0610 C   0  0  0  0  0  0  0  0  0  0  0  0
   37.9800   25.9140   34.8540 C   0  0  0  0  0  0  0  0  0  0  0  0
   38.5230   25.7480   33.6200 C   0  0  0  0  0  0  0  0  0  0  0  0
   38.2020   26.6260   32.6050 C   0  0  0  0  0  0  0  0  0  0  0  0
   36.7000   27.0690   36.0570 H   0  0  0  0  0  0  0  0  0  0  0  0
   39.1940   24.9370   33.4510 H   0  0  0  0  0  0  0  0  0  0  0  0
   38.6640   26.4440   31.6450 H   0  0  0  0  0  0  0  0  0  0  0  0
   33.6930   29.8210   33.9690 C   0  0  0  0  0  0  0  0  0  0  0  0
   34.0330   30.9930   34.6930 C   0  0  0  0  0  0  0  0  0  0  0  0
   35.3240   31.0980   35.2050 C   0  0  0  0  0  0  0  0  0  0  0  0
   36.2100   30.0700   34.9890 N   0  0  0  0  0  0  0  0  0  0  0  0
   35.8560   28.9710   34.2970 C   0  0  0  0  0  0  0  0  0  0  0  0
   34.5960   28.8520   33.7890 N   0  0  0  0  0  0  0  0  0  0  0  0
   32.6840   29.7850   33.5940 H   0  0  0  0  0  0  0  0  0  0  0  0
   33.3050   31.7690   34.8360 H   0  0  0  0  0  0  0  0  0  0  0  0
   35.6310   31.9600   35.7580 H   0  0  0  0  0  0  0  0  0  0  0  0
   38.3320   24.9740   35.9200 C   0  0  0  0  0  0  0  0  0  0  0  0
   37.7000   24.9130   37.1480 C   0  0  0  0  0  0  0  0  0  0  0  0
   38.0750   24.0020   38.1240 C   0  0  0  0  0  0  0  0  0  0  0  0
   39.0690   23.1510   37.8950 N   0  0  0  0  0  0  0  0  0  0  0  0
   39.6930   23.2000   36.7030 C   0  0  0  0  0  0  0  0  0  0  0  0
   39.3310   24.0800   35.7620 N   0  0  0  0  0  0  0  0  0  0  0  0
   36.8890   25.6110   37.3260 H   0  0  0  0  0  0  0  0  0  0  0  0
   37.5420   24.0000   39.0670 H   0  0  0  0  0  0  0  0  0  0  0  0
   40.8010   22.3390   36.2910 C   0  0  0  0  0  0  0  0  0  0  0  0
   41.4710   21.5730   37.2520 C   0  0  0  0  0  0  0  0  0  0  0  0
   41.2890   21.5120   38.3170 H   0  0  0  0  0  0  0  0  0  0  0  0
   42.4720   20.8530   36.5990 C   0  0  0  0  0  0  0  0  0  0  0  0
   43.1490   20.1730   37.1040 H   0  0  0  0  0  0  0  0  0  0  0  0
   42.3410   21.2380   35.2600 C   0  0  0  0  0  0  0  0  0  0  0  0
   42.9870   20.8450   34.4840 H   0  0  0  0  0  0  0  0  0  0  0  0
   41.3720   22.0890   35.1350 O   0  0  0  0  0  0  0  0  0  0  0  0
  1  2  1  0  0  0  0
  2  3  1  0  0  0  0
  3 15  1  0  0  0  0
  3  4  2  0  0  0  0
  4  8  1  0  0  0  0
  5  4  1  0  0  0  0
  5 20  1  0  0  0  0
  6  5  2  0  0  0  0
  7  2  2  0  0  0  0
  7  6  1  0  0  0  0
  9  6  1  0  0  0  0
 10  7  1  0  0  0  0
 11 12  1  0  0  0  0
 12 18  1  0  0  0  0
 12 13  2  0  0  0  0
 13 19  1  0  0  0  0
 14 13  1  0  0  0  0
 15 14  2  0  0  0  0
 16 11  2  0  0  0  0
 16 15  1  0  0  0  0
 17 11  1  0  0  0  0
 20 21  1  0  0  0  0
 21 26  1  0  0  0  0
 21 22  2  0  0  0  0
 22 27  1  0  0  0  0
 23 22  1  0  0  0  0
 24 23  2  0  0  0  0
 25 20  2  0  0  0  0
 25 24  1  0  0  0  0
 28 24  1  0  0  0  0
 28 29  2  0  0  0  0
 29 30  1  0  0  0  0
 31 32  1  0  0  0  0
 31 29  1  0  0  0  0
 33 31  2  0  0  0  0
 34 33  1  0  0  0  0
 35 33  1  0  0  0  0
 35 28  1  0  0  0  0
M  END
>  <minimizedAffinity>
-5.66684961

$$$$

 OpenBabel03272510223D

 35 38  0  0  0  0  0  0  0  0999 V2000
   39.5040   23.1180   36.4620 Br  0  0  0  0  0  0  0  0  0  0  0  0
   38.6360   24.5810   35.5790 C   0  0  0  0  0  0  0  0  0  0  0  0
   38.2080   24.4550   34.2670 C   0  0  0  0  0  0  0  0  0  0  0  0
   37.5890   25.5440   33.6840 C   0  0  0  0  0  0  0  0  0  0  0  0
   37.3910   26.7390   34.3720 C   0  0  0  0  0  0  0  0  0  0  0  0
   37.8230   26.8290   35.6570 C   0  0  0  0  0  0  0  0  0  0  0  0
   38.4430   25.7480   36.2500 C   0  0  0  0  0  0  0  0  0  0  0  0
   37.2290   25.5200   32.6670 H   0  0  0  0  0  0  0  0  0  0  0  0
   37.6770   27.7390   36.1930 H   0  0  0  0  0  0  0  0  0  0  0  0
   38.7660   25.8790   37.2740 H   0  0  0  0  0  0  0  0  0  0  0  0
   37.4960   21.1340   32.9230 C   0  0  0  0  0  0  0  0  0  0  0  0
   38.6540   20.8380   32.1600 C   0  0  0  0  0  0  0  0  0  0  0  0
   39.6730   21.7870   32.1140 C   0  0  0  0  0  0  0  0  0  0  0  0
   39.5150   22.9640   32.8070 N   0  0  0  0  0  0  0  0  0  0  0  0
   38.4020   23.2140   33.5230 C   0  0  0  0  0  0  0  0  0  0  0  0
   37.3960   22.2960   33.5770 N   0  0  0  0  0  0  0  0  0  0  0  0
   36.7360   20.3710   32.9270 H   0  0  0  0  0  0  0  0  0  0  0  0
   38.7310   19.9040   31.6360 H   0  0  0  0  0  0  0  0  0  0  0  0
   40.5660   21.6130   31.5540 H   0  0  0  0  0  0  0  0  0  0  0  0
   36.7360   27.8950   33.7570 C   0  0  0  0  0  0  0  0  0  0  0  0
   36.6740   28.1240   32.3960 C   0  0  0  0  0  0  0  0  0  0  0  0
   36.0400   29.2390   31.8660 C   0  0  0  0  0  0  0  0  0  0  0  0
   35.4680   30.1260   32.6720 N   0  0  0  0  0  0  0  0  0  0  0  0
   35.5210   29.9140   34.0000 C   0  0  0  0  0  0  0  0  0  0  0  0
   36.1330   28.8390   34.5100 N   0  0  0  0  0  0  0  0  0  0  0  0
   37.1430   27.3950   31.7450 H   0  0  0  0  0  0  0  0  0  0  0  0
   36.0230   29.3650   30.7910 H   0  0  0  0  0  0  0  0  0  0  0  0
   34.9450   30.7880   35.0220 C   0  0  0  0  0  0  0  0  0  0  0  0
   35.7930   31.4410   35.9250 C   0  0  0  0  0  0  0  0  0  0  0  0
   36.8720   31.4000   35.9920 H   0  0  0  0  0  0  0  0  0  0  0  0
   34.9950   32.2010   36.7820 C   0  0  0  0  0  0  0  0  0  0  0  0
   35.3920   32.8120   37.5840 H   0  0  0  0  0  0  0  0  0  0  0  0
   33.6930   31.9530   36.3330 C   0  0  0  0  0  0  0  0  0  0  0  0
   32.8290   32.4070   36.8020 H   0  0  0  0  0  0  0  0  0  0  0  0
   33.7170   31.1400   35.3250 O   0  0  0  0  0  0  0  0  0  0  0  0
  2  7  1  0  0  0  0
  2  1  1  0  0  0  0
  3  2  2  0  0  0  0
  4  3  1  0  0  0  0
  4  5  2  0  0  0  0
  5  6  1  0  0  0  0
  6  9  1  0  0  0  0
  6  7  2  0  0  0  0
  7 10  1  0  0  0  0
  8  4  1  0  0  0  0
 11 17  1  0  0  0  0
 11 16  1  0  0  0  0
 12 11  2  0  0  0  0
 13 12  1  0  0  0  0
 13 14  2  0  0  0  0
 14 15  1  0  0  0  0
 15 16  2  0  0  0  0
 15  3  1  0  0  0  0
 18 12  1  0  0  0  0
 19 13  1  0  0  0  0
 20  5  1  0  0  0  0
 20 25  1  0  0  0  0
 21 20  2  0  0  0  0
 22 21  1  0  0  0  0
 22 23  2  0  0  0  0
 23 24  1  0  0  0  0
 24 25  2  0  0  0  0
 24 28  1  0  0  0  0
 26 21  1  0  0  0  0
 27 22  1  0  0  0  0
 28 35  1  0  0  0  0
 28 29  2  0  0  0  0
 29 30  1  0  0  0  0
 29 31  1  0  0  0  0
 31 32  1  0  0  0  0
 33 31  2  0  0  0  0
 33 34  1  0  0  0  0
 35 33  1  0  0  0  0
M  END
>  <minimizedAffinity>
-5.62462997

$$$$

 OpenBabel03272510223D

 35 38  0  0  0  0  0  0  0  0999 V2000
   36.9990   22.6880   32.0320 Br  0  0  0  0  0  0  0  0  0  0  0  0
   36.7760   24.5870   32.1540 C   0  0  0  0  0  0  0  0  0  0  0  0
   37.4740   25.3170   33.1030 C   0  0  0  0  0  0  0  0  0  0  0  0
   37.2710   26.6830   33.1420 C   0  0  0  0  0  0  0  0  0  0  0  0
   36.3990   27.3270   32.2680 C   0  0  0  0  0  0  0  0  0  0  0  0
   35.7290   26.5820   31.3500 C   0  0  0  0  0  0  0  0  0  0  0  0
   35.9230   25.2160   31.3010 C   0  0  0  0  0  0  0  0  0  0  0  0
   37.7810   27.3160   33.8520 H   0  0  0  0  0  0  0  0  0  0  0  0
   35.0590   27.0650   30.6770 H   0  0  0  0  0  0  0  0  0  0  0  0
   35.3630   24.6760   30.5510 H   0  0  0  0  0  0  0  0  0  0  0  0
   40.5930   23.9350   34.4080 C   0  0  0  0  0  0  0  0  0  0  0  0
   40.2230   23.4590   35.6930 C   0  0  0  0  0  0  0  0  0  0  0  0
   38.9010   23.6180   36.0980 C   0  0  0  0  0  0  0  0  0  0  0  0
   38.0130   24.2260   35.2430 N   0  0  0  0  0  0  0  0  0  0  0  0
   38.3960   24.6680   34.0300 C   0  0  0  0  0  0  0  0  0  0  0  0
   39.6870   24.5190   33.6180 N   0  0  0  0  0  0  0  0  0  0  0  0
   41.6260   23.7910   34.1400 H   0  0  0  0  0  0  0  0  0  0  0  0
   40.9540   22.9900   36.3250 H   0  0  0  0  0  0  0  0  0  0  0  0
   38.5700   23.2760   37.0560 H   0  0  0  0  0  0  0  0  0  0  0  0
   36.1810   28.7740   32.3070 C   0  0  0  0  0  0  0  0  0  0  0  0
   36.4550   29.6340   31.2610 C   0  0  0  0  0  0  0  0  0  0  0  0
   36.2300   31.0000   31.3530 C   0  0  0  0  0  0  0  0  0  0  0  0
   35.7360   31.5210   32.4710 N   0  0  0  0  0  0  0  0  0  0  0  0
   35.4640   30.6940   33.4980 C   0  0  0  0  0  0  0  0  0  0  0  0
   35.6820   29.3760   33.4080 N   0  0  0  0  0  0  0  0  0  0  0  0
   36.8580   29.2010   30.3520 H   0  0  0  0  0  0  0  0  0  0  0  0
   36.4630   31.6250   30.5000 H   0  0  0  0  0  0  0  0  0  0  0  0
   34.9190   31.1010   34.7920 C   0  0  0  0  0  0  0  0  0  0  0  0
   35.7690   31.6700   35.7480 C   0  0  0  0  0  0  0  0  0  0  0  0
   36.8300   31.8680   35.6780 H   0  0  0  0  0  0  0  0  0  0  0  0
   35.0040   31.9610   36.8780 C   0  0  0  0  0  0  0  0  0  0  0  0
   35.4090   32.4120   37.7760 H   0  0  0  0  0  0  0  0  0  0  0  0
   33.7160   31.5420   36.5250 C   0  0  0  0  0  0  0  0  0  0  0  0
   32.8760   31.6360   37.2030 H   0  0  0  0  0  0  0  0  0  0  0  0
   33.7190   31.0570   35.3230 O   0  0  0  0  0  0  0  0  0  0  0  0
  1  2  1  0  0  0  0
  2  3  1  0  0  0  0
  3  4  2  0  0  0  0
  3 15  1  0  0  0  0
  4  8  1  0  0  0  0
  5 20  1  0  0  0  0
  5  4  1  0  0  0  0
  6  5  2  0  0  0  0
  7  6  1  0  0  0  0
  7  2  2  0  0  0  0
  9  6  1  0  0  0  0
 10  7  1  0  0  0  0
 11 12  1  0  0  0  0
 12 13  2  0  0  0  0
 12 18  1  0  0  0  0
 13 19  1  0  0  0  0
 14 13  1  0  0  0  0
 15 14  2  0  0  0  0
 16 15  1  0  0  0  0
 16 11  2  0  0  0  0
 17 11  1  0  0  0  0
 20 25  1  0  0  0  0
 21 22  1  0  0  0  0
 21 20  2  0  0  0  0
 22 23  2  0  0  0  0
 23 24  1  0  0  0  0
 24 28  1  0  0  0  0
 25 24  2  0  0  0  0
 26 21  1  0  0  0  0
 27 22  1  0  0  0  0
 28 35  1  0  0  0  0
 28 29  2  0  0  0  0
 29 31  1  0  0  0  0
 30 29  1  0  0  0  0
 31 32  1  0  0  0  0
 33 31  2  0  0  0  0
 33 34  1  0  0  0  0
 35 33  1  0  0  0  0
M  END
>  <minimizedAffinity>
-5.5706439

$$$$

 OpenBabel03272510223D

 35 38  0  0  0  0  0  0  0  0999 V2000
   37.1890   28.2400   31.5480 Br  0  0  0  0  0  0  0  0  0  0  0  0
   37.6340   27.0890   33.0150 C   0  0  0  0  0  0  0  0  0  0  0  0
   38.4330   25.9750   32.8160 C   0  0  0  0  0  0  0  0  0  0  0  0
   38.7180   25.1830   33.9120 C   0  0  0  0  0  0  0  0  0  0  0  0
   38.2300   25.4750   35.1840 C   0  0  0  0  0  0  0  0  0  0  0  0
   37.4480   26.5750   35.3440 C   0  0  0  0  0  0  0  0  0  0  0  0
   37.1560   27.3730   34.2570 C   0  0  0  0  0  0  0  0  0  0  0  0
   39.3340   24.3000   33.8340 H   0  0  0  0  0  0  0  0  0  0  0  0
   37.0700   26.8070   36.3120 H   0  0  0  0  0  0  0  0  0  0  0  0
   36.5300   28.2340   34.4460 H   0  0  0  0  0  0  0  0  0  0  0  0
   38.8140   24.2230   29.6340 C   0  0  0  0  0  0  0  0  0  0  0  0
   39.8660   24.9320   28.9980 C   0  0  0  0  0  0  0  0  0  0  0  0
   40.4360   26.0090   29.6720 C   0  0  0  0  0  0  0  0  0  0  0  0
   39.9580   26.3390   30.9190 N   0  0  0  0  0  0  0  0  0  0  0  0
   38.9580   25.6460   31.4950 C   0  0  0  0  0  0  0  0  0  0  0  0
   38.3900   24.5880   30.8470 N   0  0  0  0  0  0  0  0  0  0  0  0
   38.4050   23.3990   29.0730 H   0  0  0  0  0  0  0  0  0  0  0  0
   40.2040   24.6360   28.0220 H   0  0  0  0  0  0  0  0  0  0  0  0
   41.2310   26.5760   29.2380 H   0  0  0  0  0  0  0  0  0  0  0  0
   38.5300   24.6380   36.3460 C   0  0  0  0  0  0  0  0  0  0  0  0
   37.7710   24.6030   37.5010 C   0  0  0  0  0  0  0  0  0  0  0  0
   38.1020   23.7910   38.5750 C   0  0  0  0  0  0  0  0  0  0  0  0
   39.1770   23.0120   38.5150 N   0  0  0  0  0  0  0  0  0  0  0  0
   39.9250   23.0360   37.3960 C   0  0  0  0  0  0  0  0  0  0  0  0
   39.6050   23.8210   36.3610 N   0  0  0  0  0  0  0  0  0  0  0  0
   36.8960   25.2420   37.5410 H   0  0  0  0  0  0  0  0  0  0  0  0
   37.4700   23.8060   39.4530 H   0  0  0  0  0  0  0  0  0  0  0  0
   41.1340   22.2450   37.1670 C   0  0  0  0  0  0  0  0  0  0  0  0
   42.1560   22.7680   36.3670 C   0  0  0  0  0  0  0  0  0  0  0  0
   42.1980   23.7220   35.8590 H   0  0  0  0  0  0  0  0  0  0  0  0
   43.1800   21.8210   36.3130 C   0  0  0  0  0  0  0  0  0  0  0  0
   44.1010   21.9650   35.7590 H   0  0  0  0  0  0  0  0  0  0  0  0
   42.7010   20.7670   37.0990 C   0  0  0  0  0  0  0  0  0  0  0  0
   43.2760   19.8630   37.2590 H   0  0  0  0  0  0  0  0  0  0  0  0
   41.5270   21.0570   37.5650 O   0  0  0  0  0  0  0  0  0  0  0  0
  1  2  1  0  0  0  0
  2  7  1  0  0  0  0
  3  2  2  0  0  0  0
  3  4  1  0  0  0  0
  4  5  2  0  0  0  0
  5  6  1  0  0  0  0
  5 20  1  0  0  0  0
  6  9  1  0  0  0  0
  7 10  1  0  0  0  0
  7  6  2  0  0  0  0
  8  4  1  0  0  0  0
 11 16  1  0  0  0  0
 12 11  2  0  0  0  0
 12 13  1  0  0  0  0
 13 14  2  0  0  0  0
 14 15  1  0  0  0  0
 15  3  1  0  0  0  0
 16 15  2  0  0  0  0
 17 11  1  0  0  0  0
 18 12  1  0  0  0  0
 19 13  1  0  0  0  0
 20 25  2  0  0  0  0
 20 21  1  0  0  0  0
 21 26  1  0  0  0  0
 21 22  2  0  0  0  0
 22 27  1  0  0  0  0
 23 22  1  0  0  0  0
 24 23  2  0  0  0  0
 25 24  1  0  0  0  0
 28 24  1  0  0  0  0
 28 35  1  0  0  0  0
 29 28  2  0  0  0  0
 30 29  1  0  0  0  0
 31 29  1  0  0  0  0
 31 33  2  0  0  0  0
 32 31  1  0  0  0  0
 33 34  1  0  0  0  0
 33 35  1  0  0  0  0
M  END
>  <minimizedAffinity>
-5.55884266

$$$$

 OpenBabel03272510223D

 35 38  0  0  0  0  0  0  0  0999 V2000
   35.4880   30.7010   35.1410 Br  0  0  0  0  0  0  0  0  0  0  0  0
   35.9670   29.1540   34.1160 C   0  0  0  0  0  0  0  0  0  0  0  0
   35.5310   29.0160   32.8080 C   0  0  0  0  0  0  0  0  0  0  0  0
   35.9080   27.8780   32.1210 C   0  0  0  0  0  0  0  0  0  0  0  0
   36.7000   26.8900   32.7010 C   0  0  0  0  0  0  0  0  0  0  0  0
   37.1100   27.0570   33.9860 C   0  0  0  0  0  0  0  0  0  0  0  0
   36.7390   28.1890   34.6840 C   0  0  0  0  0  0  0  0  0  0  0  0
   35.6070   27.7020   31.0990 H   0  0  0  0  0  0  0  0  0  0  0  0
   37.7160   26.3070   34.4400 H   0  0  0  0  0  0  0  0  0  0  0  0
   37.0960   28.2660   35.7020 H   0  0  0  0  0  0  0  0  0  0  0  0
   32.5290   30.8620   31.8500 C   0  0  0  0  0  0  0  0  0  0  0  0
   33.0370   31.9050   31.0320 C   0  0  0  0  0  0  0  0  0  0  0  0
   34.4120   31.9630   30.8190 C   0  0  0  0  0  0  0  0  0  0  0  0
   35.2150   31.0130   31.4040 N   0  0  0  0  0  0  0  0  0  0  0  0
   34.7010   30.0360   32.1750 C   0  0  0  0  0  0  0  0  0  0  0  0
   33.3570   29.9660   32.3940 N   0  0  0  0  0  0  0  0  0  0  0  0
   31.4600   30.8600   31.9860 H   0  0  0  0  0  0  0  0  0  0  0  0
   32.3680   32.6240   30.5970 H   0  0  0  0  0  0  0  0  0  0  0  0
   34.8460   32.7280   30.2110 H   0  0  0  0  0  0  0  0  0  0  0  0
   37.1010   25.6840   31.9760 C   0  0  0  0  0  0  0  0  0  0  0  0
   37.9910   25.6680   30.9190 C   0  0  0  0  0  0  0  0  0  0  0  0
   38.3360   24.4940   30.2650 C   0  0  0  0  0  0  0  0  0  0  0  0
   37.8070   23.3370   30.6490 N   0  0  0  0  0  0  0  0  0  0  0  0
   36.9380   23.3390   31.6770 C   0  0  0  0  0  0  0  0  0  0  0  0
   36.6060   24.4720   32.3070 N   0  0  0  0  0  0  0  0  0  0  0  0
   38.4180   26.6160   30.6120 H   0  0  0  0  0  0  0  0  0  0  0  0
   39.0400   24.5430   29.4440 H   0  0  0  0  0  0  0  0  0  0  0  0
   36.2690   22.1590   32.2230 C   0  0  0  0  0  0  0  0  0  0  0  0
   35.3650   21.4500   31.4230 C   0  0  0  0  0  0  0  0  0  0  0  0
   35.0640   21.6470   30.4020 H   0  0  0  0  0  0  0  0  0  0  0  0
   34.8750   20.3840   32.1780 C   0  0  0  0  0  0  0  0  0  0  0  0
   34.1540   19.6660   31.8040 H   0  0  0  0  0  0  0  0  0  0  0  0
   35.5270   20.5200   33.4090 C   0  0  0  0  0  0  0  0  0  0  0  0
   35.3570   19.8310   34.2270 H   0  0  0  0  0  0  0  0  0  0  0  0
   36.3120   21.5500   33.3850 O   0  0  0  0  0  0  0  0  0  0  0  0
  2  7  1  0  0  0  0
  2  1  1  0  0  0  0
  3  2  2  0  0  0  0
  4  5  2  0  0  0  0
  4  3  1  0  0  0  0
  5  6  1  0  0  0  0
  6  9  1  0  0  0  0
  6  7  2  0  0  0  0
  7 10  1  0  0  0  0
  8  4  1  0  0  0  0
 11 17  1  0  0  0  0
 11 16  1  0  0  0  0
 12 11  2  0  0  0  0
 13 12  1  0  0  0  0
 13 14  2  0  0  0  0
 14 15  1  0  0  0  0
 15 16  2  0  0  0  0
 15  3  1  0  0  0  0
 18 12  1  0  0  0  0
 19 13  1  0  0  0  0
 20 25  1  0  0  0  0
 20  5  1  0  0  0  0
 21 20  2  0  0  0  0
 22 23  2  0  0  0  0
 22 21  1  0  0  0  0
 23 24  1  0  0  0  0
 24 28  1  0  0  0  0
 24 25  2  0  0  0  0
 26 21  1  0  0  0  0
 27 22  1  0  0  0  0
 28 35  1  0  0  0  0
 29 31  1  0  0  0  0
 29 28  2  0  0  0  0
 30 29  1  0  0  0  0
 31 33  2  0  0  0  0
 32 31  1  0  0  0  0
 33 34  1  0  0  0  0
 35 33  1  0  0  0  0
M  END
>  <minimizedAffinity>
-5.53512192

$$$$

 OpenBabel03272510223D

 35 38  0  0  0  0  0  0  0  0999 V2000
   34.5630   30.6850   31.9320 Br  0  0  0  0  0  0  0  0  0  0  0  0
   35.6890   29.3720   32.7570 C   0  0  0  0  0  0  0  0  0  0  0  0
   35.7910   29.3020   34.1380 C   0  0  0  0  0  0  0  0  0  0  0  0
   36.6190   28.3350   34.6740 C   0  0  0  0  0  0  0  0  0  0  0  0
   37.3370   27.4490   33.8740 C   0  0  0  0  0  0  0  0  0  0  0  0
   37.2150   27.5450   32.5240 C   0  0  0  0  0  0  0  0  0  0  0  0
   36.3910   28.5070   31.9770 C   0  0  0  0  0  0  0  0  0  0  0  0
   36.7480   28.2200   35.7390 H   0  0  0  0  0  0  0  0  0  0  0  0
   37.7610   26.8720   31.9030 H   0  0  0  0  0  0  0  0  0  0  0  0
   36.3350   28.5360   30.8970 H   0  0  0  0  0  0  0  0  0  0  0  0
   35.1560   32.0790   36.4230 C   0  0  0  0  0  0  0  0  0  0  0  0
   33.7570   32.0020   36.6470 C   0  0  0  0  0  0  0  0  0  0  0  0
   33.0440   30.9920   36.0070 C   0  0  0  0  0  0  0  0  0  0  0  0
   33.7200   30.1160   35.1900 N   0  0  0  0  0  0  0  0  0  0  0  0
   35.0490   30.2170   34.9990 C   0  0  0  0  0  0  0  0  0  0  0  0
   35.7620   31.2010   35.6180 N   0  0  0  0  0  0  0  0  0  0  0  0
   35.6640   32.8770   36.9390 H   0  0  0  0  0  0  0  0  0  0  0  0
   33.2740   32.7090   37.2950 H   0  0  0  0  0  0  0  0  0  0  0  0
   31.9880   30.8890   36.1420 H   0  0  0  0  0  0  0  0  0  0  0  0
   38.2160   26.4240   34.4400 C   0  0  0  0  0  0  0  0  0  0  0  0
   37.7740   25.3000   35.1120 C   0  0  0  0  0  0  0  0  0  0  0  0
   38.6520   24.3590   35.6290 C   0  0  0  0  0  0  0  0  0  0  0  0
   39.9630   24.5210   35.4860 N   0  0  0  0  0  0  0  0  0  0  0  0
   40.4070   25.6110   34.8330 C   0  0  0  0  0  0  0  0  0  0  0  0
   39.5590   26.5190   34.3350 N   0  0  0  0  0  0  0  0  0  0  0  0
   36.7030   25.1760   35.2240 H   0  0  0  0  0  0  0  0  0  0  0  0
   38.2470   23.4980   36.1460 H   0  0  0  0  0  0  0  0  0  0  0  0
   41.8110   25.9400   34.5890 C   0  0  0  0  0  0  0  0  0  0  0  0
   42.1290   27.0440   33.7890 C   0  0  0  0  0  0  0  0  0  0  0  0
   41.4620   27.7350   33.2910 H   0  0  0  0  0  0  0  0  0  0  0  0
   43.5200   27.1300   33.7190 C   0  0  0  0  0  0  0  0  0  0  0  0
   44.0460   27.8970   33.1610 H   0  0  0  0  0  0  0  0  0  0  0  0
   43.9610   26.0530   34.4960 C   0  0  0  0  0  0  0  0  0  0  0  0
   45.0140   25.8440   34.6420 H   0  0  0  0  0  0  0  0  0  0  0  0
   42.9460   25.4030   34.9710 O   0  0  0  0  0  0  0  0  0  0  0  0
  1  2  1  0  0  0  0
  2  3  1  0  0  0  0
  3  4  2  0  0  0  0
  3 15  1  0  0  0  0
  4  8  1  0  0  0  0
  5 20  1  0  0  0  0
  5  4  1  0  0  0  0
  6  5  2  0  0  0  0
  7  6  1  0  0  0  0
  7  2  2  0  0  0  0
  9  6  1  0  0  0  0
 10  7  1  0  0  0  0
 11 12  1  0  0  0  0
 11 17  1  0  0  0  0
 12 18  1  0  0  0  0
 13 19  1  0  0  0  0
 13 12  2  0  0  0  0
 14 13  1  0  0  0  0
 15 14  2  0  0  0  0
 15 16  1  0  0  0  0
 16 11  2  0  0  0  0
 20 21  1  0  0  0  0
 21 26  1  0  0  0  0
 21 22  2  0  0  0  0
 22 27  1  0  0  0  0
 23 22  1  0  0  0  0
 24 23  2  0  0  0  0
 25 20  2  0  0  0  0
 25 24  1  0  0  0  0
 28 24  1  0  0  0  0
 28 35  1  0  0  0  0
 29 28  2  0  0  0  0
 30 29  1  0  0  0  0
 31 29  1  0  0  0  0
 31 33  2  0  0  0  0
 32 31  1  0  0  0  0
 33 34  1  0  0  0  0
 33 35  1  0  0  0  0
M  END
>  <minimizedAffinity>
-5.48506451

$$$$
