
 OpenBabel03272505423D

 44 47  0  0  0  0  0  0  0  0999 V2000
   37.9230   23.5050   33.6220 C   0  0  0  0  0  0  0  0  0  0  0  0
   37.4020   22.4680   32.8460 C   0  0  0  0  0  0  0  0  0  0  0  0
   36.7150   22.7820   31.6830 C   0  0  0  0  0  0  0  0  0  0  0  0
   36.5070   24.0660   31.2340 C   0  0  0  0  0  0  0  0  0  0  0  0
   37.0270   25.0930   32.0100 C   0  0  0  0  0  0  0  0  0  0  0  0
   37.7090   24.7680   33.1660 C   0  0  0  0  0  0  0  0  0  0  0  0
   37.5440   21.4450   33.1630 H   0  0  0  0  0  0  0  0  0  0  0  0
   36.3290   21.9360   31.1140 H   0  0  0  0  0  0  0  0  0  0  0  0
   35.9610   24.2380   30.3170 H   0  0  0  0  0  0  0  0  0  0  0  0
   36.8400   26.0760   31.6210 H   0  0  0  0  0  0  0  0  0  0  0  0
   38.1640   25.9480   33.8240 N   0  0  0  0  0  0  0  0  0  0  0  0
   39.3860   26.6700   34.0040 C   0  0  0  0  0  0  0  0  0  0  0  0
   39.5930   26.8330   35.4990 C   0  0  0  0  0  0  0  0  0  0  0  0
   38.6180   27.7660   35.9720 N   0  0  0  0  0  0  0  0  0  0  0  0
   37.4350   27.8380   35.1930 C   0  0  0  0  0  0  0  0  0  0  0  0
   37.0510   26.5810   34.4820 C   0  0  0  0  0  0  0  0  0  0  0  0
   40.2640   26.2240   33.4910 H   0  0  0  0  0  0  0  0  0  0  0  0
   39.2910   27.7010   33.5770 H   0  0  0  0  0  0  0  0  0  0  0  0
   40.5170   27.5150   35.4650 H   0  0  0  0  0  0  0  0  0  0  0  0
   39.9440   26.0430   36.0780 H   0  0  0  0  0  0  0  0  0  0  0  0
   38.5000   27.7040   36.9910 H   0  0  0  0  0  0  0  0  0  0  0  0
   37.5350   28.7130   34.5100 H   0  0  0  0  0  0  0  0  0  0  0  0
   36.5910   28.0730   35.9050 H   0  0  0  0  0  0  0  0  0  0  0  0
   36.3410   25.9370   34.9900 H   0  0  0  0  0  0  0  0  0  0  0  0
   36.4430   26.9680   33.6020 H   0  0  0  0  0  0  0  0  0  0  0  0
   38.8140   23.2770   37.1510 C   0  0  0  0  0  0  0  0  0  0  0  0
   40.0520   22.6140   37.1060 C   0  0  0  0  0  0  0  0  0  0  0  0
   40.5570   22.2570   35.8560 C   0  0  0  0  0  0  0  0  0  0  0  0
   39.8140   22.5740   34.7700 N   0  0  0  0  0  0  0  0  0  0  0  0
   38.6370   23.2060   34.8330 C   0  0  0  0  0  0  0  0  0  0  0  0
   38.1310   23.5610   36.0330 N   0  0  0  0  0  0  0  0  0  0  0  0
   40.5810   22.3950   38.0030 H   0  0  0  0  0  0  0  0  0  0  0  0
   41.8440   21.5760   35.7670 C   0  0  0  0  0  0  0  0  0  0  0  0
   42.4560   20.9030   36.8000 C   0  0  0  0  0  0  0  0  0  0  0  0
   42.1080   20.7580   37.8350 H   0  0  0  0  0  0  0  0  0  0  0  0
   43.6610   20.3760   36.3810 C   0  0  0  0  0  0  0  0  0  0  0  0
   44.3640   19.8030   36.9500 H   0  0  0  0  0  0  0  0  0  0  0  0
   43.7370   20.7630   35.0600 C   0  0  0  0  0  0  0  0  0  0  0  0
   44.5680   20.5190   34.4000 H   0  0  0  0  0  0  0  0  0  0  0  0
   42.6720   21.4430   34.7720 O   0  0  0  0  0  0  0  0  0  0  0  0
   38.3060   23.6610   38.5160 C   0  0  0  0  0  0  0  0  0  0  0  0
   37.8510   24.9910   38.4490 F   0  0  0  0  0  0  0  0  0  0  0  0
   37.3250   22.8200   38.8590 F   0  0  0  0  0  0  0  0  0  0  0  0
   39.3600   23.6690   39.3900 F   0  0  0  0  0  0  0  0  0  0  0  0
  1 30  1  0  0  0  0
  2  7  1  0  0  0  0
  2  1  2  0  0  0  0
  3  2  1  0  0  0  0
  4  3  2  0  0  0  0
  4  5  1  0  0  0  0
  5  6  2  0  0  0  0
  6  1  1  0  0  0  0
  6 11  1  0  0  0  0
  8  3  1  0  0  0  0
  9  4  1  0  0  0  0
 10  5  1  0  0  0  0
 11 12  1  0  0  0  0
 11 16  1  0  0  0  0
 12 13  1  0  0  0  0
 13 14  1  0  0  0  0
 13 20  1  0  0  0  0
 14 21  1  0  0  0  0
 15 23  1  0  0  0  0
 15 14  1  0  0  0  0
 16 24  1  0  0  0  0
 16 15  1  0  0  0  0
 17 12  1  0  0  0  0
 18 12  1  0  0  0  0
 19 13  1  0  0  0  0
 22 15  1  0  0  0  0
 25 16  1  0  0  0  0
 26 41  1  0  0  0  0
 27 26  1  0  0  0  0
 27 32  1  0  0  0  0
 28 27  2  0  0  0  0
 29 30  2  0  0  0  0
 29 28  1  0  0  0  0
 30 31  1  0  0  0  0
 31 26  2  0  0  0  0
 33 28  1  0  0  0  0
 33 34  2  0  0  0  0
 34 35  1  0  0  0  0
 36 34  1  0  0  0  0
 36 37  1  0  0  0  0
 38 36  2  0  0  0  0
 39 38  1  0  0  0  0
 40 38  1  0  0  0  0
 40 33  1  0  0  0  0
 41 43  1  0  0  0  0
 41 44  1  0  0  0  0
 42 41  1  0  0  0  0
M  END
>  <minimizedAffinity>
-6.71043587

$$$$

 OpenBabel03272505423D

 44 47  0  0  0  0  0  0  0  0999 V2000
   39.5480   22.0720   33.8500 C   0  0  0  0  0  0  0  0  0  0  0  0
   40.9330   21.8970   33.8350 C   0  0  0  0  0  0  0  0  0  0  0  0
   41.4760   20.9180   33.0180 C   0  0  0  0  0  0  0  0  0  0  0  0
   40.7310   20.0930   32.2060 C   0  0  0  0  0  0  0  0  0  0  0  0
   39.3550   20.2710   32.2250 C   0  0  0  0  0  0  0  0  0  0  0  0
   38.8260   21.2490   33.0440 C   0  0  0  0  0  0  0  0  0  0  0  0
   41.5530   22.5260   34.4580 H   0  0  0  0  0  0  0  0  0  0  0  0
   42.5610   20.8240   33.0430 H   0  0  0  0  0  0  0  0  0  0  0  0
   41.2220   19.3490   31.5930 H   0  0  0  0  0  0  0  0  0  0  0  0
   38.8160   19.6050   31.5770 H   0  0  0  0  0  0  0  0  0  0  0  0
   37.4060   21.2800   32.9280 N   0  0  0  0  0  0  0  0  0  0  0  0
   36.2600   21.0160   33.7430 C   0  0  0  0  0  0  0  0  0  0  0  0
   35.4050   20.0060   33.0000 C   0  0  0  0  0  0  0  0  0  0  0  0
   34.8270   20.6730   31.8730 N   0  0  0  0  0  0  0  0  0  0  0  0
   35.5690   21.7820   31.3930 C   0  0  0  0  0  0  0  0  0  0  0  0
   37.0480   21.7110   31.6020 C   0  0  0  0  0  0  0  0  0  0  0  0
   36.4950   20.7040   34.7820 H   0  0  0  0  0  0  0  0  0  0  0  0
   35.6420   21.9450   33.8520 H   0  0  0  0  0  0  0  0  0  0  0  0
   34.5000   20.0010   33.7090 H   0  0  0  0  0  0  0  0  0  0  0  0
   35.6590   18.9980   32.9870 H   0  0  0  0  0  0  0  0  0  0  0  0
   34.4880   20.0030   31.1720 H   0  0  0  0  0  0  0  0  0  0  0  0
   35.1120   22.7030   31.8210 H   0  0  0  0  0  0  0  0  0  0  0  0
   35.4070   21.8230   30.2760 H   0  0  0  0  0  0  0  0  0  0  0  0
   37.6330   21.3200   30.7770 H   0  0  0  0  0  0  0  0  0  0  0  0
   37.3500   22.8070   31.6180 H   0  0  0  0  0  0  0  0  0  0  0  0
   38.3740   23.8680   36.7990 C   0  0  0  0  0  0  0  0  0  0  0  0
   37.8180   25.0310   36.2410 C   0  0  0  0  0  0  0  0  0  0  0  0
   37.8590   25.1750   34.8540 C   0  0  0  0  0  0  0  0  0  0  0  0
   38.4360   24.1800   34.1410 N   0  0  0  0  0  0  0  0  0  0  0  0
   38.9600   23.0790   34.6910 C   0  0  0  0  0  0  0  0  0  0  0  0
   38.9300   22.9200   36.0310 N   0  0  0  0  0  0  0  0  0  0  0  0
   37.3810   25.7750   36.8640 H   0  0  0  0  0  0  0  0  0  0  0  0
   37.2840   26.3640   34.2360 C   0  0  0  0  0  0  0  0  0  0  0  0
   36.9730   27.5290   34.9000 C   0  0  0  0  0  0  0  0  0  0  0  0
   37.0940   27.7720   35.9670 H   0  0  0  0  0  0  0  0  0  0  0  0
   36.4450   28.4540   34.0220 C   0  0  0  0  0  0  0  0  0  0  0  0
   36.1100   29.4480   34.2340 H   0  0  0  0  0  0  0  0  0  0  0  0
   36.4560   27.7910   32.8130 C   0  0  0  0  0  0  0  0  0  0  0  0
   36.1050   28.2240   31.8780 H   0  0  0  0  0  0  0  0  0  0  0  0
   36.9450   26.6060   33.0030 O   0  0  0  0  0  0  0  0  0  0  0  0
   38.2980   23.7390   38.2970 C   0  0  0  0  0  0  0  0  0  0  0  0
   38.0500   25.0180   38.8290 F   0  0  0  0  0  0  0  0  0  0  0  0
   37.3200   22.8790   38.6030 F   0  0  0  0  0  0  0  0  0  0  0  0
   39.5280   23.3680   38.7700 F   0  0  0  0  0  0  0  0  0  0  0  0
  1 30  1  0  0  0  0
  2  1  1  0  0  0  0
  2  7  1  0  0  0  0
  3  8  1  0  0  0  0
  3  2  2  0  0  0  0
  4  5  2  0  0  0  0
  4  3  1  0  0  0  0
  5  6  1  0  0  0  0
  6  1  2  0  0  0  0
  9  4  1  0  0  0  0
 10  5  1  0  0  0  0
 11  6  1  0  0  0  0
 11 12  1  0  0  0  0
 12 18  1  0  0  0  0
 12 17  1  0  0  0  0
 13 19  1  0  0  0  0
 13 12  1  0  0  0  0
 14 13  1  0  0  0  0
 15 16  1  0  0  0  0
 15 22  1  0  0  0  0
 15 14  1  0  0  0  0
 16 25  1  0  0  0  0
 16 11  1  0  0  0  0
 20 13  1  0  0  0  0
 21 14  1  0  0  0  0
 23 15  1  0  0  0  0
 24 16  1  0  0  0  0
 26 41  1  0  0  0  0
 27 26  1  0  0  0  0
 27 32  1  0  0  0  0
 28 27  2  0  0  0  0
 29 30  2  0  0  0  0
 29 28  1  0  0  0  0
 30 31  1  0  0  0  0
 31 26  2  0  0  0  0
 33 28  1  0  0  0  0
 33 34  2  0  0  0  0
 34 35  1  0  0  0  0
 36 37  1  0  0  0  0
 36 34  1  0  0  0  0
 38 40  1  0  0  0  0
 38 36  2  0  0  0  0
 39 38  1  0  0  0  0
 40 33  1  0  0  0  0
 41 43  1  0  0  0  0
 41 44  1  0  0  0  0
 41 42  1  0  0  0  0
M  END
>  <minimizedAffinity>
-6.35782433

$$$$

 OpenBabel03272505423D

 44 47  0  0  0  0  0  0  0  0999 V2000
   40.2260   25.2790   34.3880 C   0  0  0  0  0  0  0  0  0  0  0  0
   41.6050   25.0640   34.4330 C   0  0  0  0  0  0  0  0  0  0  0  0
   42.4460   25.9650   33.7970 C   0  0  0  0  0  0  0  0  0  0  0  0
   42.0060   27.0750   33.1130 C   0  0  0  0  0  0  0  0  0  0  0  0
   40.6350   27.2830   33.0700 C   0  0  0  0  0  0  0  0  0  0  0  0
   39.8090   26.3790   33.7070 C   0  0  0  0  0  0  0  0  0  0  0  0
   41.9900   24.2030   34.9610 H   0  0  0  0  0  0  0  0  0  0  0  0
   43.5120   25.7510   33.8640 H   0  0  0  0  0  0  0  0  0  0  0  0
   42.7190   27.7360   32.6390 H   0  0  0  0  0  0  0  0  0  0  0  0
   40.3400   28.1610   32.5260 H   0  0  0  0  0  0  0  0  0  0  0  0
   38.4440   26.7590   33.5530 N   0  0  0  0  0  0  0  0  0  0  0  0
   37.3820   26.5760   32.6120 C   0  0  0  0  0  0  0  0  0  0  0  0
   36.8780   27.9570   32.2310 C   0  0  0  0  0  0  0  0  0  0  0  0
   36.1890   28.4950   33.3630 N   0  0  0  0  0  0  0  0  0  0  0  0
   36.6120   27.9820   34.6160 C   0  0  0  0  0  0  0  0  0  0  0  0
   38.0400   27.5460   34.6890 C   0  0  0  0  0  0  0  0  0  0  0  0
   37.6480   25.9540   31.7320 H   0  0  0  0  0  0  0  0  0  0  0  0
   36.5240   26.0420   33.0970 H   0  0  0  0  0  0  0  0  0  0  0  0
   35.9810   27.6350   31.5900 H   0  0  0  0  0  0  0  0  0  0  0  0
   37.4060   28.5500   31.5590 H   0  0  0  0  0  0  0  0  0  0  0  0
   36.0830   29.5140   33.2910 H   0  0  0  0  0  0  0  0  0  0  0  0
   35.8960   27.1810   34.9100 H   0  0  0  0  0  0  0  0  0  0  0  0
   36.4950   28.8180   35.3660 H   0  0  0  0  0  0  0  0  0  0  0  0
   38.7480   28.2760   35.0660 H   0  0  0  0  0  0  0  0  0  0  0  0
   38.0220   26.7710   35.5220 H   0  0  0  0  0  0  0  0  0  0  0  0
   38.3230   23.5330   36.9610 C   0  0  0  0  0  0  0  0  0  0  0  0
   37.6260   22.5660   36.2160 C   0  0  0  0  0  0  0  0  0  0  0  0
   37.8260   22.5360   34.8360 C   0  0  0  0  0  0  0  0  0  0  0  0
   38.6800   23.4450   34.3100 N   0  0  0  0  0  0  0  0  0  0  0  0
   39.3340   24.3580   35.0370 C   0  0  0  0  0  0  0  0  0  0  0  0
   39.1550   24.4030   36.3740 N   0  0  0  0  0  0  0  0  0  0  0  0
   36.9680   21.8830   36.6980 H   0  0  0  0  0  0  0  0  0  0  0  0
   37.1290   21.5420   34.0290 C   0  0  0  0  0  0  0  0  0  0  0  0
   35.9660   20.9010   34.3930 C   0  0  0  0  0  0  0  0  0  0  0  0
   35.3730   21.0130   35.3150 H   0  0  0  0  0  0  0  0  0  0  0  0
   35.5730   20.0220   33.4050 C   0  0  0  0  0  0  0  0  0  0  0  0
   34.7150   19.3820   33.3930 H   0  0  0  0  0  0  0  0  0  0  0  0
   36.5490   20.1670   32.4410 C   0  0  0  0  0  0  0  0  0  0  0  0
   36.5630   19.6190   31.5010 H   0  0  0  0  0  0  0  0  0  0  0  0
   37.4050   21.0470   32.8580 O   0  0  0  0  0  0  0  0  0  0  0  0
   38.0940   23.5260   38.4500 C   0  0  0  0  0  0  0  0  0  0  0  0
   37.6830   24.8180   38.8290 F   0  0  0  0  0  0  0  0  0  0  0  0
   37.1650   22.6090   38.7360 F   0  0  0  0  0  0  0  0  0  0  0  0
   39.2930   23.3150   39.0780 F   0  0  0  0  0  0  0  0  0  0  0  0
  1  2  1  0  0  0  0
  1 30  1  0  0  0  0
  2  7  1  0  0  0  0
  3  8  1  0  0  0  0
  3  2  2  0  0  0  0
  4  3  1  0  0  0  0
  5  4  2  0  0  0  0
  5  6  1  0  0  0  0
  6  1  2  0  0  0  0
  9  4  1  0  0  0  0
 10  5  1  0  0  0  0
 11  6  1  0  0  0  0
 11 16  1  0  0  0  0
 12 18  1  0  0  0  0
 12 11  1  0  0  0  0
 13 12  1  0  0  0  0
 13 14  1  0  0  0  0
 14 15  1  0  0  0  0
 15 16  1  0  0  0  0
 15 22  1  0  0  0  0
 15 23  1  0  0  0  0
 16 24  1  0  0  0  0
 16 25  1  0  0  0  0
 17 12  1  0  0  0  0
 19 13  1  0  0  0  0
 20 13  1  0  0  0  0
 21 14  1  0  0  0  0
 26 41  1  0  0  0  0
 27 32  1  0  0  0  0
 27 26  2  0  0  0  0
 28 27  1  0  0  0  0
 29 28  2  0  0  0  0
 29 30  1  0  0  0  0
 30 31  2  0  0  0  0
 31 26  1  0  0  0  0
 33 34  2  0  0  0  0
 33 28  1  0  0  0  0
 34 35  1  0  0  0  0
 36 34  1  0  0  0  0
 37 36  1  0  0  0  0
 38 40  1  0  0  0  0
 38 36  2  0  0  0  0
 39 38  1  0  0  0  0
 40 33  1  0  0  0  0
 41 43  1  0  0  0  0
 41 42  1  0  0  0  0
 41 44  1  0  0  0  0
M  END
>  <minimizedAffinity>
-6.33817339

$$$$

 OpenBabel03272505423D

 44 47  0  0  0  0  0  0  0  0999 V2000
   34.9900   30.7860   35.3210 C   0  0  0  0  0  0  0  0  0  0  0  0
   35.7290   31.8030   35.9300 C   0  0  0  0  0  0  0  0  0  0  0  0
   35.0880   32.6600   36.8110 C   0  0  0  0  0  0  0  0  0  0  0  0
   33.7520   32.5770   37.1310 C   0  0  0  0  0  0  0  0  0  0  0  0
   33.0240   31.5660   36.5220 C   0  0  0  0  0  0  0  0  0  0  0  0
   33.6730   30.7180   35.6470 C   0  0  0  0  0  0  0  0  0  0  0  0
   36.7810   31.9010   35.7050 H   0  0  0  0  0  0  0  0  0  0  0  0
   35.7100   33.4350   37.2590 H   0  0  0  0  0  0  0  0  0  0  0  0
   33.3180   33.2820   37.8280 H   0  0  0  0  0  0  0  0  0  0  0  0
   31.9870   31.5410   36.8030 H   0  0  0  0  0  0  0  0  0  0  0  0
   32.7640   29.7510   35.1260 N   0  0  0  0  0  0  0  0  0  0  0  0
   32.2680   29.3270   33.8530 C   0  0  0  0  0  0  0  0  0  0  0  0
   30.7520   29.4030   33.9160 C   0  0  0  0  0  0  0  0  0  0  0  0
   30.3010   28.3560   34.7800 N   0  0  0  0  0  0  0  0  0  0  0  0
   31.2440   27.9420   35.7550 C   0  0  0  0  0  0  0  0  0  0  0  0
   32.2060   28.9920   36.2130 C   0  0  0  0  0  0  0  0  0  0  0  0
   32.6930   29.8740   32.9860 H   0  0  0  0  0  0  0  0  0  0  0  0
   32.5290   28.2520   33.6750 H   0  0  0  0  0  0  0  0  0  0  0  0
   30.5200   28.9280   32.8950 H   0  0  0  0  0  0  0  0  0  0  0  0
   30.2600   30.3150   33.8320 H   0  0  0  0  0  0  0  0  0  0  0  0
   29.3410   28.5230   35.1040 H   0  0  0  0  0  0  0  0  0  0  0  0
   31.7480   27.0270   35.3690 H   0  0  0  0  0  0  0  0  0  0  0  0
   30.6540   27.6310   36.6670 H   0  0  0  0  0  0  0  0  0  0  0  0
   31.9350   29.5340   37.1120 H   0  0  0  0  0  0  0  0  0  0  0  0
   33.0990   28.3770   36.5580 H   0  0  0  0  0  0  0  0  0  0  0  0
   36.2650   29.3100   32.2400 C   0  0  0  0  0  0  0  0  0  0  0  0
   36.8610   28.1230   32.6990 C   0  0  0  0  0  0  0  0  0  0  0  0
   36.8120   27.8540   34.0670 C   0  0  0  0  0  0  0  0  0  0  0  0
   36.1930   28.7600   34.8580 N   0  0  0  0  0  0  0  0  0  0  0  0
   35.6310   29.8860   34.4020 C   0  0  0  0  0  0  0  0  0  0  0  0
   35.6670   30.1640   33.0820 N   0  0  0  0  0  0  0  0  0  0  0  0
   37.3330   27.4560   32.0180 H   0  0  0  0  0  0  0  0  0  0  0  0
   37.4100   26.6280   34.5820 C   0  0  0  0  0  0  0  0  0  0  0  0
   38.0060   26.4960   35.8160 C   0  0  0  0  0  0  0  0  0  0  0  0
   38.1360   27.2520   36.6060 H   0  0  0  0  0  0  0  0  0  0  0  0
   38.4690   25.2080   35.9890 C   0  0  0  0  0  0  0  0  0  0  0  0
   38.9750   24.7970   36.8380 H   0  0  0  0  0  0  0  0  0  0  0  0
   38.1240   24.5820   34.8090 C   0  0  0  0  0  0  0  0  0  0  0  0
   38.3370   23.5380   34.5890 H   0  0  0  0  0  0  0  0  0  0  0  0
   37.5250   25.4450   34.0510 O   0  0  0  0  0  0  0  0  0  0  0  0
   36.3230   29.5600   30.7560 C   0  0  0  0  0  0  0  0  0  0  0  0
   36.2420   28.3150   30.1040 F   0  0  0  0  0  0  0  0  0  0  0  0
   35.3080   30.3610   30.4180 F   0  0  0  0  0  0  0  0  0  0  0  0
   37.5560   30.0670   30.4440 F   0  0  0  0  0  0  0  0  0  0  0  0
  1  6  2  0  0  0  0
  1  2  1  0  0  0  0
  2  3  2  0  0  0  0
  3  4  1  0  0  0  0
  3  8  1  0  0  0  0
  4  9  1  0  0  0  0
  5 10  1  0  0  0  0
  5  4  2  0  0  0  0
  6  5  1  0  0  0  0
  7  2  1  0  0  0  0
 11  6  1  0  0  0  0
 11 16  1  0  0  0  0
 12 13  1  0  0  0  0
 12 11  1  0  0  0  0
 13 14  1  0  0  0  0
 14 21  1  0  0  0  0
 14 15  1  0  0  0  0
 15 16  1  0  0  0  0
 15 23  1  0  0  0  0
 16 25  1  0  0  0  0
 16 24  1  0  0  0  0
 17 12  1  0  0  0  0
 18 12  1  0  0  0  0
 19 13  1  0  0  0  0
 20 13  1  0  0  0  0
 22 15  1  0  0  0  0
 26 27  2  0  0  0  0
 26 31  1  0  0  0  0
 27 28  1  0  0  0  0
 28 33  1  0  0  0  0
 28 29  2  0  0  0  0
 30 29  1  0  0  0  0
 30  1  1  0  0  0  0
 31 30  2  0  0  0  0
 32 27  1  0  0  0  0
 33 34  2  0  0  0  0
 34 36  1  0  0  0  0
 34 35  1  0  0  0  0
 36 37  1  0  0  0  0
 38 36  2  0  0  0  0
 39 38  1  0  0  0  0
 40 33  1  0  0  0  0
 40 38  1  0  0  0  0
 41 26  1  0  0  0  0
 42 41  1  0  0  0  0
 43 41  1  0  0  0  0
 44 41  1  0  0  0  0
M  END
>  <minimizedAffinity>
-6.19979191

$$$$

 OpenBabel03272505423D

 44 47  0  0  0  0  0  0  0  0999 V2000
   40.2570   25.2830   34.2560 C   0  0  0  0  0  0  0  0  0  0  0  0
   39.7540   26.4610   33.7010 C   0  0  0  0  0  0  0  0  0  0  0  0
   40.6270   27.3240   33.0560 C   0  0  0  0  0  0  0  0  0  0  0  0
   41.9780   27.0950   32.9240 C   0  0  0  0  0  0  0  0  0  0  0  0
   42.4720   25.9240   33.4790 C   0  0  0  0  0  0  0  0  0  0  0  0
   41.5920   25.0720   34.1180 C   0  0  0  0  0  0  0  0  0  0  0  0
   38.6980   26.6770   33.7820 H   0  0  0  0  0  0  0  0  0  0  0  0
   40.1830   28.2280   32.6400 H   0  0  0  0  0  0  0  0  0  0  0  0
   42.6000   27.8130   32.4080 H   0  0  0  0  0  0  0  0  0  0  0  0
   43.5300   25.7880   33.3510 H   0  0  0  0  0  0  0  0  0  0  0  0
   42.2820   23.9300   34.6200 N   0  0  0  0  0  0  0  0  0  0  0  0
   42.4250   22.5420   34.3040 C   0  0  0  0  0  0  0  0  0  0  0  0
   42.0620   21.7590   35.5540 C   0  0  0  0  0  0  0  0  0  0  0  0
   43.1060   21.9610   36.5100 N   0  0  0  0  0  0  0  0  0  0  0  0
   43.8250   23.1740   36.3600 C   0  0  0  0  0  0  0  0  0  0  0  0
   43.0570   24.3130   35.7710 C   0  0  0  0  0  0  0  0  0  0  0  0
   41.8600   22.2130   33.4080 H   0  0  0  0  0  0  0  0  0  0  0  0
   43.4970   22.3060   34.0760 H   0  0  0  0  0  0  0  0  0  0  0  0
   42.3400   20.7090   35.1790 H   0  0  0  0  0  0  0  0  0  0  0  0
   41.0680   21.6210   35.8270 H   0  0  0  0  0  0  0  0  0  0  0  0
   42.8000   21.7180   37.4600 H   0  0  0  0  0  0  0  0  0  0  0  0
   44.7610   22.9440   35.8010 H   0  0  0  0  0  0  0  0  0  0  0  0
   44.1350   23.5000   37.3960 H   0  0  0  0  0  0  0  0  0  0  0  0
   42.5980   25.0000   36.4740 H   0  0  0  0  0  0  0  0  0  0  0  0
   43.8750   24.9520   35.3060 H   0  0  0  0  0  0  0  0  0  0  0  0
   38.3890   23.5790   36.8840 C   0  0  0  0  0  0  0  0  0  0  0  0
   37.6770   22.6050   36.1630 C   0  0  0  0  0  0  0  0  0  0  0  0
   37.8560   22.5550   34.7810 C   0  0  0  0  0  0  0  0  0  0  0  0
   38.7030   23.4530   34.2290 N   0  0  0  0  0  0  0  0  0  0  0  0
   39.3720   24.3740   34.9320 C   0  0  0  0  0  0  0  0  0  0  0  0
   39.2140   24.4380   36.2710 N   0  0  0  0  0  0  0  0  0  0  0  0
   37.0250   21.9300   36.6640 H   0  0  0  0  0  0  0  0  0  0  0  0
   37.1420   21.5510   33.9990 C   0  0  0  0  0  0  0  0  0  0  0  0
   35.9670   20.9420   34.3770 C   0  0  0  0  0  0  0  0  0  0  0  0
   35.3740   21.0900   35.2930 H   0  0  0  0  0  0  0  0  0  0  0  0
   35.5610   20.0440   33.4110 C   0  0  0  0  0  0  0  0  0  0  0  0
   34.6910   19.4200   33.4140 H   0  0  0  0  0  0  0  0  0  0  0  0
   36.5410   20.1450   32.4470 C   0  0  0  0  0  0  0  0  0  0  0  0
   36.5490   19.5710   31.5220 H   0  0  0  0  0  0  0  0  0  0  0  0
   37.4120   21.0200   32.8420 O   0  0  0  0  0  0  0  0  0  0  0  0
   38.1840   23.5940   38.3760 C   0  0  0  0  0  0  0  0  0  0  0  0
   37.8210   24.9020   38.7480 F   0  0  0  0  0  0  0  0  0  0  0  0
   37.2300   22.7100   38.6850 F   0  0  0  0  0  0  0  0  0  0  0  0
   39.3850   23.3490   38.9870 F   0  0  0  0  0  0  0  0  0  0  0  0
  1 30  1  0  0  0  0
  2  7  1  0  0  0  0
  2  1  2  0  0  0  0
  3  2  1  0  0  0  0
  4  3  2  0  0  0  0
  4  5  1  0  0  0  0
  5  6  2  0  0  0  0
  6  1  1  0  0  0  0
  6 11  1  0  0  0  0
  8  3  1  0  0  0  0
  9  4  1  0  0  0  0
 10  5  1  0  0  0  0
 11 16  1  0  0  0  0
 12 11  1  0  0  0  0
 12 13  1  0  0  0  0
 13 20  1  0  0  0  0
 13 14  1  0  0  0  0
 14 21  1  0  0  0  0
 15 14  1  0  0  0  0
 15 23  1  0  0  0  0
 16 15  1  0  0  0  0
 16 24  1  0  0  0  0
 17 12  1  0  0  0  0
 18 12  1  0  0  0  0
 19 13  1  0  0  0  0
 22 15  1  0  0  0  0
 25 16  1  0  0  0  0
 26 41  1  0  0  0  0
 27 32  1  0  0  0  0
 27 26  2  0  0  0  0
 28 27  1  0  0  0  0
 29 28  2  0  0  0  0
 29 30  1  0  0  0  0
 30 31  2  0  0  0  0
 31 26  1  0  0  0  0
 33 34  2  0  0  0  0
 33 28  1  0  0  0  0
 34 35  1  0  0  0  0
 36 37  1  0  0  0  0
 36 34  1  0  0  0  0
 38 40  1  0  0  0  0
 38 36  2  0  0  0  0
 39 38  1  0  0  0  0
 40 33  1  0  0  0  0
 41 43  1  0  0  0  0
 41 42  1  0  0  0  0
 41 44  1  0  0  0  0
M  END
>  <minimizedAffinity>
-6.06145287

$$$$

 OpenBabel03272505423D

 44 47  0  0  0  0  0  0  0  0999 V2000
   36.1950   26.6840   31.8530 C   0  0  0  0  0  0  0  0  0  0  0  0
   35.2020   25.9640   31.1840 C   0  0  0  0  0  0  0  0  0  0  0  0
   35.3040   24.5830   31.1190 C   0  0  0  0  0  0  0  0  0  0  0  0
   36.3340   23.8610   31.6770 C   0  0  0  0  0  0  0  0  0  0  0  0
   37.3180   24.5810   32.3390 C   0  0  0  0  0  0  0  0  0  0  0  0
   37.2050   25.9560   32.3970 C   0  0  0  0  0  0  0  0  0  0  0  0
   34.3750   26.4950   30.7340 H   0  0  0  0  0  0  0  0  0  0  0  0
   34.5030   24.0710   30.5870 H   0  0  0  0  0  0  0  0  0  0  0  0
   36.3510   22.7830   31.5870 H   0  0  0  0  0  0  0  0  0  0  0  0
   38.1010   23.9750   32.7570 H   0  0  0  0  0  0  0  0  0  0  0  0
   38.3040   26.5150   33.1130 N   0  0  0  0  0  0  0  0  0  0  0  0
   39.5550   27.1490   32.8280 C   0  0  0  0  0  0  0  0  0  0  0  0
   40.6290   26.3680   33.5640 C   0  0  0  0  0  0  0  0  0  0  0  0
   40.4710   26.6250   34.9620 N   0  0  0  0  0  0  0  0  0  0  0  0
   39.1560   26.9790   35.3580 C   0  0  0  0  0  0  0  0  0  0  0  0
   38.0540   26.4050   34.5260 C   0  0  0  0  0  0  0  0  0  0  0  0
   39.7730   27.2730   31.7470 H   0  0  0  0  0  0  0  0  0  0  0  0
   39.5660   28.1880   33.2490 H   0  0  0  0  0  0  0  0  0  0  0  0
   41.5200   27.0580   33.3380 H   0  0  0  0  0  0  0  0  0  0  0  0
   40.9760   25.4600   33.1940 H   0  0  0  0  0  0  0  0  0  0  0  0
   40.9540   25.9200   35.5320 H   0  0  0  0  0  0  0  0  0  0  0  0
   39.1140   28.0890   35.4320 H   0  0  0  0  0  0  0  0  0  0  0  0
   39.0100   26.5750   36.4020 H   0  0  0  0  0  0  0  0  0  0  0  0
   37.6110   25.4820   34.8830 H   0  0  0  0  0  0  0  0  0  0  0  0
   37.2110   27.1540   34.6780 H   0  0  0  0  0  0  0  0  0  0  0  0
   36.3920   30.2180   30.9750 C   0  0  0  0  0  0  0  0  0  0  0  0
   35.9410   30.8450   32.1490 C   0  0  0  0  0  0  0  0  0  0  0  0
   35.5770   30.0340   33.2240 C   0  0  0  0  0  0  0  0  0  0  0  0
   35.6810   28.6950   33.0580 N   0  0  0  0  0  0  0  0  0  0  0  0
   36.1130   28.1170   31.9320 C   0  0  0  0  0  0  0  0  0  0  0  0
   36.4710   28.8830   30.8800 N   0  0  0  0  0  0  0  0  0  0  0  0
   35.8830   31.9050   32.2080 H   0  0  0  0  0  0  0  0  0  0  0  0
   35.1140   30.6470   34.4640 C   0  0  0  0  0  0  0  0  0  0  0  0
   35.9250   31.2510   35.3990 C   0  0  0  0  0  0  0  0  0  0  0  0
   37.0190   31.3790   35.3870 H   0  0  0  0  0  0  0  0  0  0  0  0
   35.1700   31.7260   36.4510 C   0  0  0  0  0  0  0  0  0  0  0  0
   35.5090   32.2410   37.3270 H   0  0  0  0  0  0  0  0  0  0  0  0
   33.8810   31.3810   36.1040 C   0  0  0  0  0  0  0  0  0  0  0  0
   33.0060   31.6020   36.7110 H   0  0  0  0  0  0  0  0  0  0  0  0
   33.9180   30.7690   34.9620 O   0  0  0  0  0  0  0  0  0  0  0  0
   36.7910   31.1240   29.8400 C   0  0  0  0  0  0  0  0  0  0  0  0
   37.9510   31.8190   30.2310 F   0  0  0  0  0  0  0  0  0  0  0  0
   37.0060   30.3770   28.7520 F   0  0  0  0  0  0  0  0  0  0  0  0
   35.8210   32.0760   29.6750 F   0  0  0  0  0  0  0  0  0  0  0  0
  1 30  1  0  0  0  0
  1  6  1  0  0  0  0
  2  1  2  0  0  0  0
  3  2  1  0  0  0  0
  3  4  2  0  0  0  0
  4  5  1  0  0  0  0
  5  6  2  0  0  0  0
  5 10  1  0  0  0  0
  6 11  1  0  0  0  0
  7  2  1  0  0  0  0
  8  3  1  0  0  0  0
  9  4  1  0  0  0  0
 11 16  1  0  0  0  0
 12 11  1  0  0  0  0
 12 18  1  0  0  0  0
 12 13  1  0  0  0  0
 13 14  1  0  0  0  0
 14 15  1  0  0  0  0
 14 21  1  0  0  0  0
 15 22  1  0  0  0  0
 15 23  1  0  0  0  0
 16 25  1  0  0  0  0
 16 24  1  0  0  0  0
 16 15  1  0  0  0  0
 17 12  1  0  0  0  0
 19 13  1  0  0  0  0
 20 13  1  0  0  0  0
 26 27  1  0  0  0  0
 27 32  1  0  0  0  0
 27 28  2  0  0  0  0
 28 33  1  0  0  0  0
 29 28  1  0  0  0  0
 30 29  2  0  0  0  0
 31 26  2  0  0  0  0
 31 30  1  0  0  0  0
 33 40  1  0  0  0  0
 33 34  2  0  0  0  0
 34 36  1  0  0  0  0
 35 34  1  0  0  0  0
 36 37  1  0  0  0  0
 38 36  2  0  0  0  0
 38 39  1  0  0  0  0
 40 38  1  0  0  0  0
 41 42  1  0  0  0  0
 41 26  1  0  0  0  0
 43 41  1  0  0  0  0
 44 41  1  0  0  0  0
M  END
>  <minimizedAffinity>
-5.98197031

$$$$

 OpenBabel03272505423D

 44 47  0  0  0  0  0  0  0  0999 V2000
   39.6880   26.0210   33.6420 C   0  0  0  0  0  0  0  0  0  0  0  0
   40.8200   26.6260   33.0910 C   0  0  0  0  0  0  0  0  0  0  0  0
   42.0650   26.3220   33.6190 C   0  0  0  0  0  0  0  0  0  0  0  0
   42.2660   25.4500   34.6650 C   0  0  0  0  0  0  0  0  0  0  0  0
   41.1370   24.8530   35.2080 C   0  0  0  0  0  0  0  0  0  0  0  0
   39.9020   25.1640   34.6740 C   0  0  0  0  0  0  0  0  0  0  0  0
   40.7050   27.3160   32.2680 H   0  0  0  0  0  0  0  0  0  0  0  0
   42.9150   26.8200   33.1530 H   0  0  0  0  0  0  0  0  0  0  0  0
   43.2670   25.2590   35.0270 H   0  0  0  0  0  0  0  0  0  0  0  0
   41.3430   24.1820   36.0210 H   0  0  0  0  0  0  0  0  0  0  0  0
   38.8720   24.4580   35.3600 N   0  0  0  0  0  0  0  0  0  0  0  0
   37.8380   24.7300   36.3110 C   0  0  0  0  0  0  0  0  0  0  0  0
   38.0350   23.7720   37.4720 C   0  0  0  0  0  0  0  0  0  0  0  0
   37.6880   22.4610   37.0160 N   0  0  0  0  0  0  0  0  0  0  0  0
   37.8350   22.2580   35.6200 C   0  0  0  0  0  0  0  0  0  0  0  0
   38.8940   23.0770   34.9550 C   0  0  0  0  0  0  0  0  0  0  0  0
   37.7740   25.7910   36.6310 H   0  0  0  0  0  0  0  0  0  0  0  0
   36.8350   24.4980   35.8680 H   0  0  0  0  0  0  0  0  0  0  0  0
   37.0850   24.0310   38.0640 H   0  0  0  0  0  0  0  0  0  0  0  0
   38.7720   23.9430   38.1860 H   0  0  0  0  0  0  0  0  0  0  0  0
   38.0700   21.7340   37.6330 H   0  0  0  0  0  0  0  0  0  0  0  0
   36.8300   22.3830   35.1550 H   0  0  0  0  0  0  0  0  0  0  0  0
   38.1290   21.1780   35.4770 H   0  0  0  0  0  0  0  0  0  0  0  0
   39.8650   22.6070   34.8400 H   0  0  0  0  0  0  0  0  0  0  0  0
   38.5240   23.1370   33.8810 H   0  0  0  0  0  0  0  0  0  0  0  0
   36.5110   25.7190   31.8760 C   0  0  0  0  0  0  0  0  0  0  0  0
   35.9080   26.9620   32.1290 C   0  0  0  0  0  0  0  0  0  0  0  0
   36.6100   27.8840   32.9060 C   0  0  0  0  0  0  0  0  0  0  0  0
   37.8270   27.5120   33.3650 N   0  0  0  0  0  0  0  0  0  0  0  0
   38.3850   26.3230   33.1140 C   0  0  0  0  0  0  0  0  0  0  0  0
   37.7230   25.4180   32.3640 N   0  0  0  0  0  0  0  0  0  0  0  0
   34.9450   27.1860   31.7360 H   0  0  0  0  0  0  0  0  0  0  0  0
   36.0210   29.1890   33.1820 C   0  0  0  0  0  0  0  0  0  0  0  0
   35.5560   29.6040   34.4100 C   0  0  0  0  0  0  0  0  0  0  0  0
   35.5430   29.0570   35.3660 H   0  0  0  0  0  0  0  0  0  0  0  0
   35.0630   30.8900   34.3260 C   0  0  0  0  0  0  0  0  0  0  0  0
   34.6350   31.4850   35.1070 H   0  0  0  0  0  0  0  0  0  0  0  0
   35.2540   31.2200   33.0010 C   0  0  0  0  0  0  0  0  0  0  0  0
   34.9770   32.1790   32.5660 H   0  0  0  0  0  0  0  0  0  0  0  0
   35.8030   30.2100   32.4050 O   0  0  0  0  0  0  0  0  0  0  0  0
   35.7320   24.7550   31.0210 C   0  0  0  0  0  0  0  0  0  0  0  0
   35.0300   23.8870   31.8790 F   0  0  0  0  0  0  0  0  0  0  0  0
   34.9020   25.4530   30.2390 F   0  0  0  0  0  0  0  0  0  0  0  0
   36.6140   23.9670   30.3310 F   0  0  0  0  0  0  0  0  0  0  0  0
  1  6  1  0  0  0  0
  2  3  1  0  0  0  0
  2  1  2  0  0  0  0
  3  4  2  0  0  0  0
  4  9  1  0  0  0  0
  4  5  1  0  0  0  0
  5 10  1  0  0  0  0
  6  5  2  0  0  0  0
  6 11  1  0  0  0  0
  7  2  1  0  0  0  0
  8  3  1  0  0  0  0
 11 12  1  0  0  0  0
 12 17  1  0  0  0  0
 12 13  1  0  0  0  0
 13 19  1  0  0  0  0
 13 20  1  0  0  0  0
 14 13  1  0  0  0  0
 14 21  1  0  0  0  0
 15 14  1  0  0  0  0
 16 11  1  0  0  0  0
 16 15  1  0  0  0  0
 18 12  1  0  0  0  0
 22 15  1  0  0  0  0
 23 15  1  0  0  0  0
 24 16  1  0  0  0  0
 25 16  1  0  0  0  0
 26 27  2  0  0  0  0
 26 31  1  0  0  0  0
 27 28  1  0  0  0  0
 28 33  1  0  0  0  0
 28 29  2  0  0  0  0
 30 29  1  0  0  0  0
 30  1  1  0  0  0  0
 31 30  2  0  0  0  0
 32 27  1  0  0  0  0
 33 34  2  0  0  0  0
 34 35  1  0  0  0  0
 36 34  1  0  0  0  0
 36 37  1  0  0  0  0
 38 36  2  0  0  0  0
 39 38  1  0  0  0  0
 40 38  1  0  0  0  0
 40 33  1  0  0  0  0
 41 26  1  0  0  0  0
 41 42  1  0  0  0  0
 43 41  1  0  0  0  0
 44 41  1  0  0  0  0
M  END
>  <minimizedAffinity>
-5.9653697

$$$$

 OpenBabel03272505423D

 44 47  0  0  0  0  0  0  0  0999 V2000
   36.9140   21.9580   33.4760 C   0  0  0  0  0  0  0  0  0  0  0  0
   36.2480   20.8190   33.9330 C   0  0  0  0  0  0  0  0  0  0  0  0
   35.3330   20.1980   33.0970 C   0  0  0  0  0  0  0  0  0  0  0  0
   35.0310   20.6340   31.8270 C   0  0  0  0  0  0  0  0  0  0  0  0
   35.6960   21.7660   31.3790 C   0  0  0  0  0  0  0  0  0  0  0  0
   36.6050   22.3760   32.2200 C   0  0  0  0  0  0  0  0  0  0  0  0
   36.4570   20.4450   34.9250 H   0  0  0  0  0  0  0  0  0  0  0  0
   34.8410   19.3130   33.5020 H   0  0  0  0  0  0  0  0  0  0  0  0
   34.3050   20.0990   31.2290 H   0  0  0  0  0  0  0  0  0  0  0  0
   35.4280   22.0680   30.3830 H   0  0  0  0  0  0  0  0  0  0  0  0
   37.1810   23.5160   31.5870 N   0  0  0  0  0  0  0  0  0  0  0  0
   38.3980   23.8720   30.9250 C   0  0  0  0  0  0  0  0  0  0  0  0
   38.9490   25.0980   31.6290 C   0  0  0  0  0  0  0  0  0  0  0  0
   38.0970   26.2020   31.3090 N   0  0  0  0  0  0  0  0  0  0  0  0
   36.7630   25.8480   30.9830 C   0  0  0  0  0  0  0  0  0  0  0  0
   36.2440   24.6070   31.6350 C   0  0  0  0  0  0  0  0  0  0  0  0
   39.1380   23.0480   30.8470 H   0  0  0  0  0  0  0  0  0  0  0  0
   38.1870   24.1750   29.8660 H   0  0  0  0  0  0  0  0  0  0  0  0
   39.8270   25.3160   30.9210 H   0  0  0  0  0  0  0  0  0  0  0  0
   39.4400   25.0140   32.5420 H   0  0  0  0  0  0  0  0  0  0  0  0
   38.2230   26.9800   31.9670 H   0  0  0  0  0  0  0  0  0  0  0  0
   36.6830   25.8230   29.8720 H   0  0  0  0  0  0  0  0  0  0  0  0
   36.1060   26.6950   31.3390 H   0  0  0  0  0  0  0  0  0  0  0  0
   35.6850   24.7440   32.5550 H   0  0  0  0  0  0  0  0  0  0  0  0
   35.4380   24.2630   30.9100 H   0  0  0  0  0  0  0  0  0  0  0  0
   38.5470   24.4900   35.5300 C   0  0  0  0  0  0  0  0  0  0  0  0
   39.7230   23.8370   35.9350 C   0  0  0  0  0  0  0  0  0  0  0  0
   39.9310   22.5310   35.4900 C   0  0  0  0  0  0  0  0  0  0  0  0
   38.9800   21.9830   34.6990 N   0  0  0  0  0  0  0  0  0  0  0  0
   37.8650   22.6220   34.3240 C   0  0  0  0  0  0  0  0  0  0  0  0
   37.6460   23.8860   34.7430 N   0  0  0  0  0  0  0  0  0  0  0  0
   40.4280   24.3290   36.5610 H   0  0  0  0  0  0  0  0  0  0  0  0
   41.1440   21.8220   35.8800 C   0  0  0  0  0  0  0  0  0  0  0  0
   41.4880   21.4920   37.1730 C   0  0  0  0  0  0  0  0  0  0  0  0
   40.9390   21.6910   38.1070 H   0  0  0  0  0  0  0  0  0  0  0  0
   42.6960   20.8270   37.1920 C   0  0  0  0  0  0  0  0  0  0  0  0
   43.2250   20.4440   38.0400 H   0  0  0  0  0  0  0  0  0  0  0  0
   43.0550   20.7750   35.8620 C   0  0  0  0  0  0  0  0  0  0  0  0
   43.9690   20.3120   35.4940 H   0  0  0  0  0  0  0  0  0  0  0  0
   42.1290   21.3590   35.1670 O   0  0  0  0  0  0  0  0  0  0  0  0
   38.3630   25.9040   36.0160 C   0  0  0  0  0  0  0  0  0  0  0  0
   37.2330   26.4390   35.3700 F   0  0  0  0  0  0  0  0  0  0  0  0
   38.2080   25.8820   37.3440 F   0  0  0  0  0  0  0  0  0  0  0  0
   39.4270   26.6550   35.5950 F   0  0  0  0  0  0  0  0  0  0  0  0
  1  2  1  0  0  0  0
  1 30  1  0  0  0  0
  2  7  1  0  0  0  0
  3  8  1  0  0  0  0
  3  2  2  0  0  0  0
  4  3  1  0  0  0  0
  5  4  2  0  0  0  0
  5  6  1  0  0  0  0
  6  1  2  0  0  0  0
  9  4  1  0  0  0  0
 10  5  1  0  0  0  0
 11 16  1  0  0  0  0
 11  6  1  0  0  0  0
 12 11  1  0  0  0  0
 12 13  1  0  0  0  0
 13 20  1  0  0  0  0
 14 13  1  0  0  0  0
 14 21  1  0  0  0  0
 15 14  1  0  0  0  0
 15 23  1  0  0  0  0
 15 16  1  0  0  0  0
 16 24  1  0  0  0  0
 17 12  1  0  0  0  0
 18 12  1  0  0  0  0
 19 13  1  0  0  0  0
 22 15  1  0  0  0  0
 25 16  1  0  0  0  0
 26 27  1  0  0  0  0
 26 41  1  0  0  0  0
 27 32  1  0  0  0  0
 28 33  1  0  0  0  0
 28 27  2  0  0  0  0
 29 28  1  0  0  0  0
 30 29  2  0  0  0  0
 30 31  1  0  0  0  0
 31 26  2  0  0  0  0
 33 34  2  0  0  0  0
 34 36  1  0  0  0  0
 34 35  1  0  0  0  0
 36 37  1  0  0  0  0
 38 36  2  0  0  0  0
 39 38  1  0  0  0  0
 40 38  1  0  0  0  0
 40 33  1  0  0  0  0
 41 43  1  0  0  0  0
 42 41  1  0  0  0  0
 44 41  1  0  0  0  0
M  END
>  <minimizedAffinity>
-5.92886686

$$$$

 OpenBabel03272505423D

 44 47  0  0  0  0  0  0  0  0999 V2000
   37.7770   23.9350   33.3650 C   0  0  0  0  0  0  0  0  0  0  0  0
   37.7170   25.2930   33.0440 C   0  0  0  0  0  0  0  0  0  0  0  0
   37.0130   25.6840   31.9160 C   0  0  0  0  0  0  0  0  0  0  0  0
   36.3590   24.8120   31.0760 C   0  0  0  0  0  0  0  0  0  0  0  0
   36.4230   23.4650   31.3990 C   0  0  0  0  0  0  0  0  0  0  0  0
   37.1260   23.0870   32.5250 C   0  0  0  0  0  0  0  0  0  0  0  0
   38.2170   26.0100   33.6790 H   0  0  0  0  0  0  0  0  0  0  0  0
   36.9970   26.7550   31.7120 H   0  0  0  0  0  0  0  0  0  0  0  0
   35.8290   25.1880   30.2110 H   0  0  0  0  0  0  0  0  0  0  0  0
   35.8980   22.8230   30.7150 H   0  0  0  0  0  0  0  0  0  0  0  0
   37.0790   21.6720   32.6900 N   0  0  0  0  0  0  0  0  0  0  0  0
   37.9340   20.5420   32.4920 C   0  0  0  0  0  0  0  0  0  0  0  0
   37.1870   19.5660   31.6010 C   0  0  0  0  0  0  0  0  0  0  0  0
   36.1190   19.0050   32.3710 N   0  0  0  0  0  0  0  0  0  0  0  0
   35.6560   19.8260   33.4310 C   0  0  0  0  0  0  0  0  0  0  0  0
   35.7920   21.3000   33.2160 C   0  0  0  0  0  0  0  0  0  0  0  0
   38.9450   20.7910   32.1090 H   0  0  0  0  0  0  0  0  0  0  0  0
   38.1130   20.0170   33.4660 H   0  0  0  0  0  0  0  0  0  0  0  0
   37.9360   18.6960   31.6430 H   0  0  0  0  0  0  0  0  0  0  0  0
   37.1170   19.7250   30.5750 H   0  0  0  0  0  0  0  0  0  0  0  0
   35.4060   18.5760   31.7700 H   0  0  0  0  0  0  0  0  0  0  0  0
   36.1450   19.4750   34.3670 H   0  0  0  0  0  0  0  0  0  0  0  0
   34.5510   19.6210   33.5410 H   0  0  0  0  0  0  0  0  0  0  0  0
   34.9230   21.8100   32.8140 H   0  0  0  0  0  0  0  0  0  0  0  0
   35.8420   21.7030   34.2780 H   0  0  0  0  0  0  0  0  0  0  0  0
   38.7260   23.3590   36.8380 C   0  0  0  0  0  0  0  0  0  0  0  0
   39.9380   22.6610   36.7070 C   0  0  0  0  0  0  0  0  0  0  0  0
   40.4060   22.4010   35.4190 C   0  0  0  0  0  0  0  0  0  0  0  0
   39.6550   22.8400   34.3830 N   0  0  0  0  0  0  0  0  0  0  0  0
   38.5020   23.5030   34.5280 C   0  0  0  0  0  0  0  0  0  0  0  0
   38.0320   23.7650   35.7660 N   0  0  0  0  0  0  0  0  0  0  0  0
   40.4760   22.3450   37.5690 H   0  0  0  0  0  0  0  0  0  0  0  0
   41.6660   21.6880   35.2410 C   0  0  0  0  0  0  0  0  0  0  0  0
   42.5780   21.4310   36.2400 C   0  0  0  0  0  0  0  0  0  0  0  0
   42.5300   21.7000   37.3070 H   0  0  0  0  0  0  0  0  0  0  0  0
   43.6590   20.7390   35.7350 C   0  0  0  0  0  0  0  0  0  0  0  0
   44.5270   20.3960   36.2590 H   0  0  0  0  0  0  0  0  0  0  0  0
   43.3520   20.5970   34.3980 C   0  0  0  0  0  0  0  0  0  0  0  0
   43.9910   20.0910   33.6760 H   0  0  0  0  0  0  0  0  0  0  0  0
   42.2050   21.1590   34.1820 O   0  0  0  0  0  0  0  0  0  0  0  0
   38.2590   23.6360   38.2430 C   0  0  0  0  0  0  0  0  0  0  0  0
   37.9010   24.9950   38.3200 F   0  0  0  0  0  0  0  0  0  0  0  0
   37.2210   22.8360   38.5130 F   0  0  0  0  0  0  0  0  0  0  0  0
   39.3170   23.4780   39.0970 F   0  0  0  0  0  0  0  0  0  0  0  0
  1 30  1  0  0  0  0
  2  1  1  0  0  0  0
  2  7  1  0  0  0  0
  3  2  2  0  0  0  0
  4  5  2  0  0  0  0
  4  3  1  0  0  0  0
  5  6  1  0  0  0  0
  6 11  1  0  0  0  0
  6  1  2  0  0  0  0
  8  3  1  0  0  0  0
  9  4  1  0  0  0  0
 10  5  1  0  0  0  0
 11 16  1  0  0  0  0
 12 11  1  0  0  0  0
 12 18  1  0  0  0  0
 13 19  1  0  0  0  0
 13 14  1  0  0  0  0
 13 12  1  0  0  0  0
 14 15  1  0  0  0  0
 15 23  1  0  0  0  0
 15 22  1  0  0  0  0
 16 15  1  0  0  0  0
 16 25  1  0  0  0  0
 17 12  1  0  0  0  0
 20 13  1  0  0  0  0
 21 14  1  0  0  0  0
 24 16  1  0  0  0  0
 26 41  1  0  0  0  0
 27 26  1  0  0  0  0
 27 32  1  0  0  0  0
 28 27  2  0  0  0  0
 29 30  2  0  0  0  0
 29 28  1  0  0  0  0
 30 31  1  0  0  0  0
 31 26  2  0  0  0  0
 33 28  1  0  0  0  0
 33 34  2  0  0  0  0
 34 35  1  0  0  0  0
 36 34  1  0  0  0  0
 36 37  1  0  0  0  0
 38 36  2  0  0  0  0
 39 38  1  0  0  0  0
 40 38  1  0  0  0  0
 40 33  1  0  0  0  0
 41 42  1  0  0  0  0
 41 43  1  0  0  0  0
 41 44  1  0  0  0  0
M  END
>  <minimizedAffinity>
-5.9205246

$$$$
