
 OpenBabel03272510263D

 44 48  0  0  1  0  0  0  0  0999 V2000
   36.0700   30.2750   46.9290 C   0  0  0  0  0  0  0  0  0  0  0  0
   37.1140   30.3210   47.8210 C   0  0  0  0  0  0  0  0  0  0  0  0
   38.4220   30.6070   47.3940 C   0  0  0  0  0  0  0  0  0  0  0  0
   38.5900   30.8370   46.0280 C   0  0  0  0  0  0  0  0  0  0  0  0
   39.7450   31.1360   45.3630 N   0  0  0  0  0  0  0  0  0  0  0  0
   39.4180   31.2730   44.0720 C   0  0  0  0  0  0  0  0  0  0  0  0
   38.1230   31.0710   43.9230 N   0  0  0  0  0  0  0  0  0  0  0  0
   37.5670   30.7970   45.1140 C   0  0  0  0  0  0  0  0  0  0  0  0
   36.2800   30.5080   45.5850 C   0  0  0  0  0  0  0  0  0  0  0  0
   35.0640   30.0530   47.2680 H   0  0  0  0  0  0  0  0  0  0  0  0
   39.2680   30.6520   48.0730 H   0  0  0  0  0  0  0  0  0  0  0  0
   40.6810   31.2330   45.7960 H   0  0  0  0  0  0  0  0  0  0  0  0
   35.4740   30.4770   44.8650 H   0  0  0  0  0  0  0  0  0  0  0  0
   37.2720   30.0660   51.5750 C   0  0  0  0  0  0  0  0  0  0  0  0
   37.6900   30.3760   50.2800 C   0  0  0  0  0  0  0  0  0  0  0  0
   36.8650   30.0790   49.2300 C   0  0  0  0  0  0  0  0  0  0  0  0
   35.6580   29.4830   49.5330 N   0  0  0  0  0  0  0  0  0  0  0  0
   35.2620   29.1870   50.7830 C   0  0  0  0  0  0  0  0  0  0  0  0
   36.0660   29.4780   51.7870 N   0  0  0  0  0  0  0  0  0  0  0  0
   37.9390   30.3090   52.3900 H   0  0  0  0  0  0  0  0  0  0  0  0
   38.6270   30.8400   50.0290 H   0  0  0  0  0  0  0  0  0  0  0  0
   34.2990   28.7200   50.9380 H   0  0  0  0  0  0  0  0  0  0  0  0
   40.3610   31.5850   43.0920 O   0  0  0  0  0  0  0  0  0  0  0  0
   39.0480   30.7890   41.3730 N   0  0  0  0  0  0  0  0  0  0  0  0
   39.8240   31.9270   41.8180 C   0  0  1  0  0  0  0  0  0  0  0  0
   38.9930   33.1170   41.9110 C   0  0  0  0  0  0  0  0  0  0  0  0
   38.5160   33.4350   40.6280 O   0  0  0  0  0  0  0  0  0  0  0  0
   37.8610   32.4250   39.9820 C   0  0  0  0  0  0  0  0  0  0  0  0
   38.6220   31.1220   40.0260 C   0  0  1  0  0  0  0  0  0  0  0  0
   38.2090   30.5480   41.8690 H   0  0  0  0  0  0  0  0  0  0  0  0
   40.6230   32.0600   41.0690 H   0  0  0  0  0  0  0  0  0  0  0  0
   39.6710   33.9900   42.1590 H   0  0  0  0  0  0  0  0  0  0  0  0
   38.1360   33.2220   42.5200 H   0  0  0  0  0  0  0  0  0  0  0  0
   37.7310   32.7140   38.9400 H   0  0  0  0  0  0  0  0  0  0  0  0
   36.8730   32.2550   40.4890 H   0  0  0  0  0  0  0  0  0  0  0  0
   37.9490   30.3390   39.6020 H   0  0  0  0  0  0  0  0  0  0  0  0
   39.8500   31.2830   39.2040 C   0  0  0  0  0  0  0  0  0  0  0  0
   39.7830   32.0700   38.0480 C   0  0  0  0  0  0  0  0  0  0  0  0
   38.9480   32.6130   37.6220 H   0  0  0  0  0  0  0  0  0  0  0  0
   41.0350   32.0720   37.4540 C   0  0  0  0  0  0  0  0  0  0  0  0
   41.3050   32.5910   36.5440 H   0  0  0  0  0  0  0  0  0  0  0  0
   41.8000   31.2800   38.2880 C   0  0  0  0  0  0  0  0  0  0  0  0
   42.8460   31.0840   38.0900 H   0  0  0  0  0  0  0  0  0  0  0  0
   41.0800   30.8320   39.3030 O   0  0  0  0  0  0  0  0  0  0  0  0
  1 10  1  0  0  0  0
  1  2  1  0  0  0  0
  2 16  1  0  0  0  0
  3  2  2  0  0  0  0
  3 11  1  0  0  0  0
  4  3  1  0  0  0  0
  5 12  1  0  0  0  0
  5  4  1  0  0  0  0
  6  5  1  0  0  0  0
  7  6  2  0  0  0  0
  7  8  1  0  0  0  0
  8  9  1  0  0  0  0
  8  4  2  0  0  0  0
  9  1  2  0  0  0  0
 13  9  1  0  0  0  0
 14 19  1  0  0  0  0
 14 20  1  0  0  0  0
 15 14  2  0  0  0  0
 16 17  2  0  0  0  0
 16 15  1  0  0  0  0
 17 18  1  0  0  0  0
 18 22  1  0  0  0  0
 18 19  2  0  0  0  0
 21 15  1  0  0  0  0
 23  6  1  0  0  0  0
 24 25  1  0  0  0  0
 24 30  1  0  0  0  0
 25 31  1  6  0  0  0
 25 26  1  0  0  0  0
 25 23  1  0  0  0  0
 26 32  1  0  0  0  0
 26 33  1  0  0  0  0
 27 26  1  0  0  0  0
 28 29  1  0  0  0  0
 28 35  1  0  0  0  0
 28 27  1  0  0  0  0
 29 36  1  6  0  0  0
 29 24  1  0  0  0  0
 34 28  1  0  0  0  0
 37 44  1  0  0  0  0
 37 29  1  0  0  0  0
 38 37  2  0  0  0  0
 39 38  1  0  0  0  0
 40 38  1  0  0  0  0
 40 42  2  0  0  0  0
 41 40  1  0  0  0  0
 42 44  1  0  0  0  0
 43 42  1  0  0  0  0
M  END
>  <minimizedAffinity>
-5.45986223

>  <minimizedRMSD>
1.24677503

$$$$
