
 OpenBabel03272510023D

 20 21  0  0  0  0  0  0  0  0999 V2000
   38.3660   32.0920   49.6600 C   0  0  0  0  0  0  0  0  0  0  0  0
   38.6370   31.9200   48.2820 C   0  0  0  0  0  0  0  0  0  0  0  0
   37.9180   30.9530   47.5940 C   0  0  0  0  0  0  0  0  0  0  0  0
   36.9910   30.2200   48.2690 N   0  0  0  0  0  0  0  0  0  0  0  0
   36.7630   30.4160   49.5850 C   0  0  0  0  0  0  0  0  0  0  0  0
   37.4430   31.3410   50.2760 N   0  0  0  0  0  0  0  0  0  0  0  0
   38.9100   32.8370   50.2260 H   0  0  0  0  0  0  0  0  0  0  0  0
   39.3840   32.5280   47.7830 H   0  0  0  0  0  0  0  0  0  0  0  0
   38.1540   30.7320   46.1720 C   0  0  0  0  0  0  0  0  0  0  0  0
   37.2110   30.9070   45.1810 C   0  0  0  0  0  0  0  0  0  0  0  0
   36.1780   31.2280   45.3060 H   0  0  0  0  0  0  0  0  0  0  0  0
   37.9310   30.5710   44.0290 C   0  0  0  0  0  0  0  0  0  0  0  0
   37.4840   30.5980   43.0290 H   0  0  0  0  0  0  0  0  0  0  0  0
   39.2200   30.2230   44.3730 C   0  0  0  0  0  0  0  0  0  0  0  0
   40.0060   29.9150   43.6670 H   0  0  0  0  0  0  0  0  0  0  0  0
   39.3080   30.3380   45.6900 O   0  0  0  0  0  0  0  0  0  0  0  0
   35.7310   29.5710   50.2320 C   0  0  0  0  0  0  0  0  0  0  0  0
   35.9450   29.3980   51.5900 F   0  0  0  0  0  0  0  0  0  0  0  0
   34.4610   30.1590   50.1220 F   0  0  0  0  0  0  0  0  0  0  0  0
   35.6090   28.3330   49.6780 F   0  0  0  0  0  0  0  0  0  0  0  0
  1  7  1  0  0  0  0
  1  6  1  0  0  0  0
  2  1  2  0  0  0  0
  3  4  2  0  0  0  0
  3  2  1  0  0  0  0
  4  5  1  0  0  0  0
  5 17  1  0  0  0  0
  5  6  2  0  0  0  0
  8  2  1  0  0  0  0
  9  3  1  0  0  0  0
 10 11  1  0  0  0  0
 10  9  2  0  0  0  0
 12 14  2  0  0  0  0
 12 10  1  0  0  0  0
 13 12  1  0  0  0  0
 14 16  1  0  0  0  0
 15 14  1  0  0  0  0
 16  9  1  0  0  0  0
 17 18  1  0  0  0  0
 19 17  1  0  0  0  0
 20 17  1  0  0  0  0
M  END
>  <minimizedAffinity>
-4.95859575

>  <minimizedRMSD>
1.33008695

$$$$
