
 OpenBabel03272510273D

 44 48  0  0  1  0  0  0  0  0999 V2000
   36.1170   30.1570   46.5650 C   0  0  0  0  0  0  0  0  0  0  0  0
   37.0300   30.7120   47.4290 C   0  0  0  0  0  0  0  0  0  0  0  0
   38.0380   31.5740   46.9640 C   0  0  0  0  0  0  0  0  0  0  0  0
   38.0510   31.8270   45.5910 C   0  0  0  0  0  0  0  0  0  0  0  0
   38.9130   32.6230   44.8930 N   0  0  0  0  0  0  0  0  0  0  0  0
   38.5360   32.5610   43.6090 C   0  0  0  0  0  0  0  0  0  0  0  0
   37.4890   31.7660   43.4970 N   0  0  0  0  0  0  0  0  0  0  0  0
   37.1520   31.2870   44.7060 C   0  0  0  0  0  0  0  0  0  0  0  0
   36.1650   30.4330   45.2140 C   0  0  0  0  0  0  0  0  0  0  0  0
   35.3430   29.4920   46.9330 H   0  0  0  0  0  0  0  0  0  0  0  0
   38.7750   32.0300   47.6190 H   0  0  0  0  0  0  0  0  0  0  0  0
   39.6990   33.1610   45.3000 H   0  0  0  0  0  0  0  0  0  0  0  0
   35.4580   30.0070   44.5160 H   0  0  0  0  0  0  0  0  0  0  0  0
   37.5860   30.4040   51.1400 C   0  0  0  0  0  0  0  0  0  0  0  0
   37.8330   30.7910   49.8230 C   0  0  0  0  0  0  0  0  0  0  0  0
   36.9530   30.4110   48.8460 C   0  0  0  0  0  0  0  0  0  0  0  0
   35.8670   29.6580   49.2420 N   0  0  0  0  0  0  0  0  0  0  0  0
   35.6350   29.2880   50.5130 C   0  0  0  0  0  0  0  0  0  0  0  0
   36.4900   29.6610   51.4460 N   0  0  0  0  0  0  0  0  0  0  0  0
   38.2930   30.7140   51.8970 H   0  0  0  0  0  0  0  0  0  0  0  0
   38.6740   31.3770   49.4990 H   0  0  0  0  0  0  0  0  0  0  0  0
   34.7590   28.6970   50.7440 H   0  0  0  0  0  0  0  0  0  0  0  0
   39.2000   33.2620   42.6010 O   0  0  0  0  0  0  0  0  0  0  0  0
   38.5150   31.9410   40.8400 N   0  0  0  0  0  0  0  0  0  0  0  0
   38.5300   33.2980   41.3450 C   0  0  1  0  0  0  0  0  0  0  0  0
   37.1780   33.8110   41.4940 C   0  0  0  0  0  0  0  0  0  0  0  0
   36.5720   33.8610   40.2280 O   0  0  0  0  0  0  0  0  0  0  0  0
   36.5800   32.6870   39.5300 C   0  0  0  0  0  0  0  0  0  0  0  0
   37.9410   32.0360   39.5100 C   0  0  1  0  0  0  0  0  0  0  0  0
   37.9690   31.2500   41.3200 H   0  0  0  0  0  0  0  0  0  0  0  0
   39.0970   33.8890   40.6060 H   0  0  0  0  0  0  0  0  0  0  0  0
   37.2560   34.9020   41.7880 H   0  0  0  0  0  0  0  0  0  0  0  0
   36.4260   33.3900   42.1060 H   0  0  0  0  0  0  0  0  0  0  0  0
   36.2830   32.8980   38.5030 H   0  0  0  0  0  0  0  0  0  0  0  0
   35.8700   31.9700   40.0250 H   0  0  0  0  0  0  0  0  0  0  0  0
   37.8130   31.0290   39.0450 H   0  0  0  0  0  0  0  0  0  0  0  0
   38.8450   32.8940   38.7010 C   0  0  0  0  0  0  0  0  0  0  0  0
   39.9920   32.3190   38.1420 C   0  0  0  0  0  0  0  0  0  0  0  0
   40.3590   31.3020   38.1990 H   0  0  0  0  0  0  0  0  0  0  0  0
   40.6690   33.3040   37.4390 C   0  0  0  0  0  0  0  0  0  0  0  0
   41.5950   33.1720   36.8960 H   0  0  0  0  0  0  0  0  0  0  0  0
   39.8910   34.4310   37.6110 C   0  0  0  0  0  0  0  0  0  0  0  0
   40.1590   35.3840   37.1740 H   0  0  0  0  0  0  0  0  0  0  0  0
   38.8300   34.1620   38.3540 O   0  0  0  0  0  0  0  0  0  0  0  0
  1 10  1  0  0  0  0
  1  2  1  0  0  0  0
  2 16  1  0  0  0  0
  3  2  2  0  0  0  0
  3 11  1  0  0  0  0
  4  3  1  0  0  0  0
  5 12  1  0  0  0  0
  5  4  1  0  0  0  0
  6  5  1  0  0  0  0
  7  6  2  0  0  0  0
  7  8  1  0  0  0  0
  8  9  1  0  0  0  0
  8  4  2  0  0  0  0
  9  1  2  0  0  0  0
 13  9  1  0  0  0  0
 14 19  1  0  0  0  0
 14 20  1  0  0  0  0
 15 14  2  0  0  0  0
 16 17  2  0  0  0  0
 16 15  1  0  0  0  0
 17 18  1  0  0  0  0
 18 22  1  0  0  0  0
 18 19  2  0  0  0  0
 21 15  1  0  0  0  0
 23  6  1  0  0  0  0
 24 30  1  0  0  0  0
 24 25  1  0  0  0  0
 25 31  1  6  0  0  0
 25 26  1  0  0  0  0
 25 23  1  0  0  0  0
 26 32  1  0  0  0  0
 26 33  1  0  0  0  0
 27 26  1  0  0  0  0
 28 35  1  0  0  0  0
 28 27  1  0  0  0  0
 29 36  1  6  0  0  0
 29 28  1  0  0  0  0
 29 24  1  0  0  0  0
 34 28  1  0  0  0  0
 37 29  1  0  0  0  0
 38 39  1  0  0  0  0
 38 37  2  0  0  0  0
 40 42  2  0  0  0  0
 40 38  1  0  0  0  0
 41 40  1  0  0  0  0
 42 44  1  0  0  0  0
 43 42  1  0  0  0  0
 44 37  1  0  0  0  0
M  END
>  <minimizedAffinity>
-5.30908298

>  <minimizedRMSD>
1.10005081

$$$$
