
 OpenBabel03272510023D

 20 21  0  0  0  0  0  0  0  0999 V2000
   38.3120   31.2780   50.1940 C   0  0  0  0  0  0  0  0  0  0  0  0
   38.4060   31.5390   48.8060 C   0  0  0  0  0  0  0  0  0  0  0  0
   37.3980   31.0560   47.9850 C   0  0  0  0  0  0  0  0  0  0  0  0
   36.3710   30.3590   48.5450 N   0  0  0  0  0  0  0  0  0  0  0  0
   36.3200   30.1320   49.8750 C   0  0  0  0  0  0  0  0  0  0  0  0
   37.2790   30.5850   50.6930 N   0  0  0  0  0  0  0  0  0  0  0  0
   39.0820   31.6400   50.8620 H   0  0  0  0  0  0  0  0  0  0  0  0
   39.2410   32.1000   48.4020 H   0  0  0  0  0  0  0  0  0  0  0  0
   37.4410   31.2940   46.5470 C   0  0  0  0  0  0  0  0  0  0  0  0
   38.2340   32.2390   45.9300 C   0  0  0  0  0  0  0  0  0  0  0  0
   38.9260   32.9310   46.4080 H   0  0  0  0  0  0  0  0  0  0  0  0
   37.9060   32.0610   44.5820 C   0  0  0  0  0  0  0  0  0  0  0  0
   38.3590   32.6610   43.7830 H   0  0  0  0  0  0  0  0  0  0  0  0
   36.9690   31.0560   44.4600 C   0  0  0  0  0  0  0  0  0  0  0  0
   36.5320   30.7050   43.5140 H   0  0  0  0  0  0  0  0  0  0  0  0
   36.7170   30.6200   45.6850 O   0  0  0  0  0  0  0  0  0  0  0  0
   35.1600   29.3670   50.3910 C   0  0  0  0  0  0  0  0  0  0  0  0
   35.2410   29.1120   51.7510 F   0  0  0  0  0  0  0  0  0  0  0  0
   33.9660   30.0850   50.2130 F   0  0  0  0  0  0  0  0  0  0  0  0
   34.9650   28.1740   49.7640 F   0  0  0  0  0  0  0  0  0  0  0  0
  1  6  1  0  0  0  0
  1  7  1  0  0  0  0
  2  1  2  0  0  0  0
  3  4  2  0  0  0  0
  3  2  1  0  0  0  0
  4  5  1  0  0  0  0
  5 17  1  0  0  0  0
  5  6  2  0  0  0  0
  8  2  1  0  0  0  0
  9  3  1  0  0  0  0
 10 11  1  0  0  0  0
 10  9  2  0  0  0  0
 12 10  1  0  0  0  0
 13 12  1  0  0  0  0
 14 12  2  0  0  0  0
 14 16  1  0  0  0  0
 15 14  1  0  0  0  0
 16  9  1  0  0  0  0
 17 18  1  0  0  0  0
 19 17  1  0  0  0  0
 20 17  1  0  0  0  0
M  END
>  <minimizedAffinity>
-5.14040804

>  <minimizedRMSD>
0.350068063

$$$$
