
 OpenBabel03272508153D

 27 29  0  0  0  0  0  0  0  0999 V2000
   36.3870   31.4250   49.8220 Cl  0  0  0  0  0  0  0  0  0  0  0  0
   36.9110   31.3270   48.1630 C   0  0  0  0  0  0  0  0  0  0  0  0
   36.1900   30.4460   47.4030 C   0  0  0  0  0  0  0  0  0  0  0  0
   36.5380   30.2980   46.0490 C   0  0  0  0  0  0  0  0  0  0  0  0
   37.5650   31.0110   45.4980 C   0  0  0  0  0  0  0  0  0  0  0  0
   38.2620   31.8780   46.2770 C   0  0  0  0  0  0  0  0  0  0  0  0
   39.5760   32.7880   45.5620 Cl  0  0  0  0  0  0  0  0  0  0  0  0
   37.9370   32.0390   47.6090 C   0  0  0  0  0  0  0  0  0  0  0  0
   36.0250   29.6240   45.3710 H   0  0  0  0  0  0  0  0  0  0  0  0
   37.8380   30.9020   44.4530 H   0  0  0  0  0  0  0  0  0  0  0  0
   35.2280   28.6970   48.8490 C   0  0  0  0  0  0  0  0  0  0  0  0
   35.0720   29.5990   47.7840 C   0  0  0  0  0  0  0  0  0  0  0  0
   33.8150   29.6110   47.1500 C   0  0  0  0  0  0  0  0  0  0  0  0
   32.8460   28.7690   47.5930 N   0  0  0  0  0  0  0  0  0  0  0  0
   33.0470   27.9210   48.6230 C   0  0  0  0  0  0  0  0  0  0  0  0
   34.2390   27.8890   49.2450 N   0  0  0  0  0  0  0  0  0  0  0  0
   36.1520   28.6040   49.4060 H   0  0  0  0  0  0  0  0  0  0  0  0
   33.6900   30.3040   46.3300 H   0  0  0  0  0  0  0  0  0  0  0  0
   32.1530   27.3400   48.8160 H   0  0  0  0  0  0  0  0  0  0  0  0
   38.7190   32.9820   48.3950 C   0  0  0  0  0  0  0  0  0  0  0  0
   38.8460   33.2380   49.7340 C   0  0  0  0  0  0  0  0  0  0  0  0
   38.3320   32.7260   50.5250 H   0  0  0  0  0  0  0  0  0  0  0  0
   39.7330   34.2550   49.9960 C   0  0  0  0  0  0  0  0  0  0  0  0
   40.0470   34.6850   50.9150 H   0  0  0  0  0  0  0  0  0  0  0  0
   40.1400   34.6050   48.7300 C   0  0  0  0  0  0  0  0  0  0  0  0
   40.8500   35.3770   48.4200 H   0  0  0  0  0  0  0  0  0  0  0  0
   39.5380   33.8580   47.8820 O   0  0  0  0  0  0  0  0  0  0  0  0
  2  1  1  0  0  0  0
  3 12  1  0  0  0  0
  3  2  2  0  0  0  0
  4  3  1  0  0  0  0
  5  4  2  0  0  0  0
  5  6  1  0  0  0  0
  6  8  2  0  0  0  0
  7  6  1  0  0  0  0
  8  2  1  0  0  0  0
  8 20  1  0  0  0  0
  9  4  1  0  0  0  0
 10  5  1  0  0  0  0
 11 16  1  0  0  0  0
 11 17  1  0  0  0  0
 12 11  2  0  0  0  0
 13 14  2  0  0  0  0
 13 12  1  0  0  0  0
 14 15  1  0  0  0  0
 15 19  1  0  0  0  0
 15 16  2  0  0  0  0
 18 13  1  0  0  0  0
 20 21  2  0  0  0  0
 21 23  1  0  0  0  0
 21 22  1  0  0  0  0
 23 24  1  0  0  0  0
 25 23  2  0  0  0  0
 26 25  1  0  0  0  0
 27 20  1  0  0  0  0
 27 25  1  0  0  0  0
M  END
>  <minimizedAffinity>
-5.50571203

>  <minimizedRMSD>
2.69840813

$$$$
