
 OpenBabel03272505423D

 44 47  0  0  0  0  0  0  0  0999 V2000
   35.5330   30.1340   46.6080 C   0  0  0  0  0  0  0  0  0  0  0  0
   34.2030   29.7620   46.8180 C   0  0  0  0  0  0  0  0  0  0  0  0
   33.4180   29.4350   45.7230 C   0  0  0  0  0  0  0  0  0  0  0  0
   33.8670   29.4520   44.4220 C   0  0  0  0  0  0  0  0  0  0  0  0
   35.1880   29.8240   44.2200 C   0  0  0  0  0  0  0  0  0  0  0  0
   35.9600   30.1470   45.3180 C   0  0  0  0  0  0  0  0  0  0  0  0
   33.8130   29.7350   47.8250 H   0  0  0  0  0  0  0  0  0  0  0  0
   32.3890   29.1510   45.9420 H   0  0  0  0  0  0  0  0  0  0  0  0
   33.1980   29.1860   43.6150 H   0  0  0  0  0  0  0  0  0  0  0  0
   35.4930   29.8230   43.1900 H   0  0  0  0  0  0  0  0  0  0  0  0
   37.2800   30.5000   44.9120 N   0  0  0  0  0  0  0  0  0  0  0  0
   38.5490   29.8660   44.7280 C   0  0  0  0  0  0  0  0  0  0  0  0
   39.5600   30.6390   45.5570 C   0  0  0  0  0  0  0  0  0  0  0  0
   39.7610   31.9060   44.9250 N   0  0  0  0  0  0  0  0  0  0  0  0
   38.6670   32.3620   44.1450 C   0  0  0  0  0  0  0  0  0  0  0  0
   37.3170   31.9030   44.5930 C   0  0  0  0  0  0  0  0  0  0  0  0
   38.5550   28.7770   44.9420 H   0  0  0  0  0  0  0  0  0  0  0  0
   38.8740   29.9550   43.6590 H   0  0  0  0  0  0  0  0  0  0  0  0
   40.5100   30.0940   45.2100 H   0  0  0  0  0  0  0  0  0  0  0  0
   39.6150   30.5090   46.5880 H   0  0  0  0  0  0  0  0  0  0  0  0
   40.1880   32.5840   45.5670 H   0  0  0  0  0  0  0  0  0  0  0  0
   38.8830   32.1100   43.0820 H   0  0  0  0  0  0  0  0  0  0  0  0
   38.6620   33.4890   44.2200 H   0  0  0  0  0  0  0  0  0  0  0  0
   36.7700   32.5770   45.2440 H   0  0  0  0  0  0  0  0  0  0  0  0
   36.7080   31.9460   43.6330 H   0  0  0  0  0  0  0  0  0  0  0  0
   37.0850   30.1120   49.9080 C   0  0  0  0  0  0  0  0  0  0  0  0
   37.9750   31.1960   49.8290 C   0  0  0  0  0  0  0  0  0  0  0  0
   38.0230   31.9160   48.6350 C   0  0  0  0  0  0  0  0  0  0  0  0
   37.2070   31.5160   47.6330 N   0  0  0  0  0  0  0  0  0  0  0  0
   36.3660   30.4800   47.7270 C   0  0  0  0  0  0  0  0  0  0  0  0
   36.3040   29.7710   48.8740 N   0  0  0  0  0  0  0  0  0  0  0  0
   38.5900   31.4540   50.6580 H   0  0  0  0  0  0  0  0  0  0  0  0
   38.9270   33.0550   48.5160 C   0  0  0  0  0  0  0  0  0  0  0  0
   39.2050   33.9530   49.5230 C   0  0  0  0  0  0  0  0  0  0  0  0
   38.8190   33.9780   50.5540 H   0  0  0  0  0  0  0  0  0  0  0  0
   40.0970   34.9070   49.0800 C   0  0  0  0  0  0  0  0  0  0  0  0
   40.5040   35.7340   49.6250 H   0  0  0  0  0  0  0  0  0  0  0  0
   40.3360   34.5400   47.7720 C   0  0  0  0  0  0  0  0  0  0  0  0
   41.0050   35.0770   47.1010 H   0  0  0  0  0  0  0  0  0  0  0  0
   39.6400   33.4780   47.5140 O   0  0  0  0  0  0  0  0  0  0  0  0
   37.0490   29.3670   51.2170 C   0  0  0  0  0  0  0  0  0  0  0  0
   35.7090   29.0310   51.4850 F   0  0  0  0  0  0  0  0  0  0  0  0
   37.8190   28.2790   51.1100 F   0  0  0  0  0  0  0  0  0  0  0  0
   37.4300   30.2200   52.2180 F   0  0  0  0  0  0  0  0  0  0  0  0
  1  2  1  0  0  0  0
  1 30  1  0  0  0  0
  2  7  1  0  0  0  0
  3  8  1  0  0  0  0
  3  2  2  0  0  0  0
  4  3  1  0  0  0  0
  5  4  2  0  0  0  0
  5  6  1  0  0  0  0
  6  1  2  0  0  0  0
  9  4  1  0  0  0  0
 10  5  1  0  0  0  0
 11  6  1  0  0  0  0
 12 11  1  0  0  0  0
 12 17  1  0  0  0  0
 12 13  1  0  0  0  0
 13 20  1  0  0  0  0
 14 13  1  0  0  0  0
 14 21  1  0  0  0  0
 15 23  1  0  0  0  0
 15 16  1  0  0  0  0
 15 14  1  0  0  0  0
 16 11  1  0  0  0  0
 16 24  1  0  0  0  0
 18 12  1  0  0  0  0
 19 13  1  0  0  0  0
 22 15  1  0  0  0  0
 25 16  1  0  0  0  0
 26 41  1  0  0  0  0
 27 26  1  0  0  0  0
 27 32  1  0  0  0  0
 28 27  2  0  0  0  0
 29 30  2  0  0  0  0
 29 28  1  0  0  0  0
 30 31  1  0  0  0  0
 31 26  2  0  0  0  0
 33 28  1  0  0  0  0
 33 34  2  0  0  0  0
 34 35  1  0  0  0  0
 36 34  1  0  0  0  0
 36 37  1  0  0  0  0
 38 36  2  0  0  0  0
 39 38  1  0  0  0  0
 40 38  1  0  0  0  0
 40 33  1  0  0  0  0
 41 42  1  0  0  0  0
 41 44  1  0  0  0  0
 43 41  1  0  0  0  0
M  END
>  <minimizedAffinity>
-6.61976004

>  <minimizedRMSD>
0.727759123

$$$$
