
 OpenBabel03272508543D

 37 40  0  0  1  0  0  0  0  0999 V2000
   38.3850   31.8630   44.5330 C   0  0  0  0  0  0  0  0  0  0  0  0
   37.2630   32.4420   44.4200 O   0  0  0  0  0  0  0  0  0  0  0  0
   38.9300   31.5730   45.8250 N   0  0  0  0  0  0  0  0  0  0  0  0
   39.9070   31.2490   45.9900 H   0  0  0  0  0  0  0  0  0  0  0  0
   39.1510   31.4790   43.3390 C   0  0  0  0  0  0  0  0  0  0  0  0
   40.1280   30.5280   43.4760 C   0  0  0  0  0  0  0  0  0  0  0  0
   40.8540   30.1480   42.3640 C   0  0  0  0  0  0  0  0  0  0  0  0
   40.5500   30.7560   41.1640 C   0  0  0  0  0  0  0  0  0  0  0  0
   39.5660   31.7180   41.0170 C   0  0  0  0  0  0  0  0  0  0  0  0
   38.9150   32.0250   42.1400 N   0  0  0  0  0  0  0  0  0  0  0  0
   40.4030   30.0220   44.3930 H   0  0  0  0  0  0  0  0  0  0  0  0
   41.6350   29.4030   42.4060 H   0  0  0  0  0  0  0  0  0  0  0  0
   41.1260   30.4510   40.2970 H   0  0  0  0  0  0  0  0  0  0  0  0
   39.2640   32.3480   39.7380 C   0  0  0  0  0  0  0  0  0  0  0  0
   38.6380   33.5790   39.6270 C   0  0  0  0  0  0  0  0  0  0  0  0
   38.3060   34.2080   40.4360 H   0  0  0  0  0  0  0  0  0  0  0  0
   38.5650   33.7610   38.2430 C   0  0  0  0  0  0  0  0  0  0  0  0
   38.1290   34.6300   37.7670 H   0  0  0  0  0  0  0  0  0  0  0  0
   39.1290   32.6700   37.6120 C   0  0  0  0  0  0  0  0  0  0  0  0
   39.2410   32.4780   36.5530 H   0  0  0  0  0  0  0  0  0  0  0  0
   39.5410   31.8350   38.5440 O   0  0  0  0  0  0  0  0  0  0  0  0
   38.4310   31.1250   48.2220 C   0  0  2  0  0  0  0  0  0  0  0  0
   38.6950   32.5670   48.1170 C   0  0  0  0  0  0  0  0  0  0  0  0
   38.0540   31.7440   46.9730 C   0  0  1  0  0  0  0  0  0  0  0  0
   39.3520   30.5110   48.3040 H   0  0  0  0  0  0  0  0  0  0  0  0
   38.0750   33.3230   48.6260 H   0  0  0  0  0  0  0  0  0  0  0  0
   39.7320   32.9240   47.9610 H   0  0  0  0  0  0  0  0  0  0  0  0
   36.9980   32.0680   46.7670 H   0  0  0  0  0  0  0  0  0  0  0  0
   35.0900   30.2210   49.5360 C   0  0  0  0  0  0  0  0  0  0  0  0
   35.4160   29.5400   50.7540 C   0  0  0  0  0  0  0  0  0  0  0  0
   36.8160   29.4200   51.0910 C   0  0  0  0  0  0  0  0  0  0  0  0
   37.7560   29.9470   50.2550 N   0  0  0  0  0  0  0  0  0  0  0  0
   37.3560   30.5820   49.1120 C   0  0  0  0  0  0  0  0  0  0  0  0
   36.0400   30.7350   48.7250 N   0  0  0  0  0  0  0  0  0  0  0  0
   34.0380   30.2750   49.3480 H   0  0  0  0  0  0  0  0  0  0  0  0
   34.6560   29.1390   51.3860 H   0  0  0  0  0  0  0  0  0  0  0  0
   37.0640   28.9090   52.0050 H   0  0  0  0  0  0  0  0  0  0  0  0
  1  3  1  0  0  0  0
  2  1  2  0  0  0  0
  3  4  1  0  0  0  0
  3 24  1  0  0  0  0
  5  6  1  0  0  0  0
  5  1  1  0  0  0  0
  6 11  1  0  0  0  0
  7 12  1  0  0  0  0
  7  6  2  0  0  0  0
  8  7  1  0  0  0  0
  9  8  2  0  0  0  0
  9 10  1  0  0  0  0
 10  5  2  0  0  0  0
 13  8  1  0  0  0  0
 14  9  1  0  0  0  0
 15 14  2  0  0  0  0
 15 16  1  0  0  0  0
 17 15  1  0  0  0  0
 18 17  1  0  0  0  0
 19 17  2  0  0  0  0
 19 21  1  0  0  0  0
 20 19  1  0  0  0  0
 21 14  1  0  0  0  0
 22 25  1  6  0  0  0
 22 33  1  0  0  0  0
 23 22  1  0  0  0  0
 23 26  1  0  0  0  0
 24 28  1  6  0  0  0
 24 23  1  0  0  0  0
 24 22  1  0  0  0  0
 27 23  1  0  0  0  0
 29 30  1  0  0  0  0
 30 31  2  0  0  0  0
 30 36  1  0  0  0  0
 31 37  1  0  0  0  0
 32 31  1  0  0  0  0
 33 32  2  0  0  0  0
 34 33  1  0  0  0  0
 34 29  2  0  0  0  0
 35 29  1  0  0  0  0
M  END
>  <minimizedAffinity>
-5.15380955

>  <minimizedRMSD>
0.0731567889

$$$$
