
 OpenBabel03272500573D

 34 36  0  0  0  0  0  0  0  0999 V2000
   38.1770   31.8850   47.3970 C   0  0  0  0  0  0  0  0  0  0  0  0
   38.7790   32.7200   48.2890 C   0  0  0  0  0  0  0  0  0  0  0  0
   38.3810   32.8180   49.6250 C   0  0  0  0  0  0  0  0  0  0  0  0
   37.2780   31.9790   50.0470 C   0  0  0  0  0  0  0  0  0  0  0  0
   36.7170   31.1660   49.1150 C   0  0  0  0  0  0  0  0  0  0  0  0
   37.1120   31.0870   47.8320 C   0  0  0  0  0  0  0  0  0  0  0  0
   39.6210   33.3700   48.0010 H   0  0  0  0  0  0  0  0  0  0  0  0
   38.9040   33.5040   50.2820 H   0  0  0  0  0  0  0  0  0  0  0  0
   37.0750   32.1500   51.0900 H   0  0  0  0  0  0  0  0  0  0  0  0
   35.9500   30.6260   49.6480 H   0  0  0  0  0  0  0  0  0  0  0  0
   39.9320   31.1820   45.8550 C   0  0  0  0  0  0  0  0  0  0  0  0
   38.7200   31.8840   46.0600 C   0  0  0  0  0  0  0  0  0  0  0  0
   38.2100   32.4770   44.9340 C   0  0  0  0  0  0  0  0  0  0  0  0
   38.8380   32.3740   43.7530 N   0  0  0  0  0  0  0  0  0  0  0  0
   39.9630   31.7180   43.5790 C   0  0  0  0  0  0  0  0  0  0  0  0
   40.5050   31.1250   44.6290 N   0  0  0  0  0  0  0  0  0  0  0  0
   40.3970   30.6890   46.6880 H   0  0  0  0  0  0  0  0  0  0  0  0
   37.2830   33.0160   45.0840 H   0  0  0  0  0  0  0  0  0  0  0  0
   40.5050   31.6090   42.6450 H   0  0  0  0  0  0  0  0  0  0  0  0
   35.0780   30.0590   47.2500 C   0  0  0  0  0  0  0  0  0  0  0  0
   34.5970   30.6270   48.3110 O   0  0  0  0  0  0  0  0  0  0  0  0
   36.4810   30.2600   46.9390 N   0  0  0  0  0  0  0  0  0  0  0  0
   36.9430   29.8260   46.1360 H   0  0  0  0  0  0  0  0  0  0  0  0
   34.2550   29.2930   46.4650 O   0  0  0  0  0  0  0  0  0  0  0  0
   32.8660   29.3580   46.4800 C   0  0  0  0  0  0  0  0  0  0  0  0
   32.2200   30.3700   45.9410 O   0  0  0  0  0  0  0  0  0  0  0  0
   32.0450   28.2810   47.0840 C   0  0  0  0  0  0  0  0  0  0  0  0
   32.1580   27.6980   48.3530 C   0  0  0  0  0  0  0  0  0  0  0  0
   32.9210   28.0120   49.0620 H   0  0  0  0  0  0  0  0  0  0  0  0
   31.1790   26.7330   48.4800 C   0  0  0  0  0  0  0  0  0  0  0  0
   31.0980   26.1680   49.3910 H   0  0  0  0  0  0  0  0  0  0  0  0
   30.5150   26.7760   47.2770 C   0  0  0  0  0  0  0  0  0  0  0  0
   29.6670   26.1010   47.0900 H   0  0  0  0  0  0  0  0  0  0  0  0
   31.0390   27.6710   46.5080 O   0  0  0  0  0  0  0  0  0  0  0  0
  1  6  2  0  0  0  0
  1  2  1  0  0  0  0
  2  3  2  0  0  0  0
  3  4  1  0  0  0  0
  3  8  1  0  0  0  0
  4  9  1  0  0  0  0
  5 10  1  0  0  0  0
  5  4  2  0  0  0  0
  6  5  1  0  0  0  0
  7  2  1  0  0  0  0
 11 12  1  0  0  0  0
 11 17  1  0  0  0  0
 12  1  1  0  0  0  0
 13 18  1  0  0  0  0
 13 12  2  0  0  0  0
 14 13  1  0  0  0  0
 15 14  2  0  0  0  0
 15 16  1  0  0  0  0
 16 11  2  0  0  0  0
 19 15  1  0  0  0  0
 20 21  2  0  0  0  0
 22 20  1  0  0  0  0
 22  6  1  0  0  0  0
 23 22  1  0  0  0  0
 24 25  1  0  0  0  0
 24 20  1  0  0  0  0
 25 27  1  0  0  0  0
 26 25  2  0  0  0  0
 27 28  2  0  0  0  0
 28 30  1  0  0  0  0
 28 29  1  0  0  0  0
 30 31  1  0  0  0  0
 32 30  2  0  0  0  0
 33 32  1  0  0  0  0
 34 27  1  0  0  0  0
 34 32  1  0  0  0  0
M  END
>  <minimizedAffinity>
-5.8356905

>  <minimizedRMSD>
1.33646452

$$$$
