
 OpenBabel03272500573D

 34 36  0  0  0  0  0  0  0  0999 V2000
   38.1600   31.8620   47.3910 C   0  0  0  0  0  0  0  0  0  0  0  0
   38.6860   32.7130   48.3170 C   0  0  0  0  0  0  0  0  0  0  0  0
   38.2280   32.7750   49.6350 C   0  0  0  0  0  0  0  0  0  0  0  0
   37.1490   31.8810   50.0010 C   0  0  0  0  0  0  0  0  0  0  0  0
   36.6660   31.0550   49.0380 C   0  0  0  0  0  0  0  0  0  0  0  0
   37.1170   31.0110   47.7710 C   0  0  0  0  0  0  0  0  0  0  0  0
   39.5070   33.4050   48.0710 H   0  0  0  0  0  0  0  0  0  0  0  0
   38.6920   33.4760   50.3210 H   0  0  0  0  0  0  0  0  0  0  0  0
   36.8950   32.0290   51.0370 H   0  0  0  0  0  0  0  0  0  0  0  0
   35.9030   30.4740   49.5320 H   0  0  0  0  0  0  0  0  0  0  0  0
   40.0010   31.2480   45.9120 C   0  0  0  0  0  0  0  0  0  0  0  0
   38.7580   31.9040   46.0780 C   0  0  0  0  0  0  0  0  0  0  0  0
   38.2740   32.4980   44.9410 C   0  0  0  0  0  0  0  0  0  0  0  0
   38.9530   32.4380   43.7860 N   0  0  0  0  0  0  0  0  0  0  0  0
   40.1060   31.8250   43.6480 C   0  0  0  0  0  0  0  0  0  0  0  0
   40.6270   31.2330   44.7110 N   0  0  0  0  0  0  0  0  0  0  0  0
   40.4490   30.7580   46.7560 H   0  0  0  0  0  0  0  0  0  0  0  0
   37.3220   33.0010   45.0610 H   0  0  0  0  0  0  0  0  0  0  0  0
   40.6910   31.7510   42.7360 H   0  0  0  0  0  0  0  0  0  0  0  0
   35.1240   30.0340   46.9900 C   0  0  0  0  0  0  0  0  0  0  0  0
   34.5450   30.6690   47.9600 O   0  0  0  0  0  0  0  0  0  0  0  0
   36.5620   30.1670   46.8440 N   0  0  0  0  0  0  0  0  0  0  0  0
   37.0970   29.6790   46.1220 H   0  0  0  0  0  0  0  0  0  0  0  0
   34.3690   29.2640   46.1440 O   0  0  0  0  0  0  0  0  0  0  0  0
   33.0960   29.5990   45.6970 C   0  0  0  0  0  0  0  0  0  0  0  0
   32.9170   30.3640   44.6410 O   0  0  0  0  0  0  0  0  0  0  0  0
   31.8770   29.0940   46.3750 C   0  0  0  0  0  0  0  0  0  0  0  0
   30.5390   29.4370   46.1480 C   0  0  0  0  0  0  0  0  0  0  0  0
   30.2560   30.1650   45.3890 H   0  0  0  0  0  0  0  0  0  0  0  0
   29.7470   28.7140   47.0160 C   0  0  0  0  0  0  0  0  0  0  0  0
   28.6800   28.8370   46.9970 H   0  0  0  0  0  0  0  0  0  0  0  0
   30.6460   27.9630   47.7350 C   0  0  0  0  0  0  0  0  0  0  0  0
   30.2910   27.2760   48.5170 H   0  0  0  0  0  0  0  0  0  0  0  0
   31.8510   28.2070   47.3400 O   0  0  0  0  0  0  0  0  0  0  0  0
  1  6  2  0  0  0  0
  1  2  1  0  0  0  0
  2  3  2  0  0  0  0
  3  4  1  0  0  0  0
  3  8  1  0  0  0  0
  4  9  1  0  0  0  0
  5 10  1  0  0  0  0
  5  4  2  0  0  0  0
  6  5  1  0  0  0  0
  7  2  1  0  0  0  0
 11 12  1  0  0  0  0
 11 17  1  0  0  0  0
 12  1  1  0  0  0  0
 13 18  1  0  0  0  0
 13 12  2  0  0  0  0
 14 13  1  0  0  0  0
 15 14  2  0  0  0  0
 15 16  1  0  0  0  0
 16 11  2  0  0  0  0
 19 15  1  0  0  0  0
 20 21  2  0  0  0  0
 22 20  1  0  0  0  0
 22  6  1  0  0  0  0
 23 22  1  0  0  0  0
 24 20  1  0  0  0  0
 25 24  1  0  0  0  0
 25 27  1  0  0  0  0
 26 25  2  0  0  0  0
 27 34  1  0  0  0  0
 28 27  2  0  0  0  0
 28 30  1  0  0  0  0
 29 28  1  0  0  0  0
 30 32  2  0  0  0  0
 31 30  1  0  0  0  0
 32 33  1  0  0  0  0
 34 32  1  0  0  0  0
M  END
>  <minimizedAffinity>
-5.61353254

>  <minimizedRMSD>
1.03865898

$$$$
