
 OpenBabel03272500573D

 34 36  0  0  0  0  0  0  0  0999 V2000
   38.2990   31.9680   47.4020 C   0  0  0  0  0  0  0  0  0  0  0  0
   38.8470   32.8690   48.2660 C   0  0  0  0  0  0  0  0  0  0  0  0
   38.4380   32.9870   49.5960 C   0  0  0  0  0  0  0  0  0  0  0  0
   37.3870   32.0990   50.0460 C   0  0  0  0  0  0  0  0  0  0  0  0
   36.8800   31.2220   49.1420 C   0  0  0  0  0  0  0  0  0  0  0  0
   37.2830   31.1220   47.8620 C   0  0  0  0  0  0  0  0  0  0  0  0
   39.6490   33.5580   47.9560 H   0  0  0  0  0  0  0  0  0  0  0  0
   38.9170   33.7270   50.2300 H   0  0  0  0  0  0  0  0  0  0  0  0
   37.1700   32.2930   51.0820 H   0  0  0  0  0  0  0  0  0  0  0  0
   36.1450   30.6550   49.6920 H   0  0  0  0  0  0  0  0  0  0  0  0
   40.0690   31.2660   45.8760 C   0  0  0  0  0  0  0  0  0  0  0  0
   38.8470   31.9530   46.0670 C   0  0  0  0  0  0  0  0  0  0  0  0
   38.3310   32.5200   44.9300 C   0  0  0  0  0  0  0  0  0  0  0  0
   38.9640   32.4090   43.7520 N   0  0  0  0  0  0  0  0  0  0  0  0
   40.0990   31.7670   43.5920 C   0  0  0  0  0  0  0  0  0  0  0  0
   40.6480   31.1980   44.6530 N   0  0  0  0  0  0  0  0  0  0  0  0
   40.5400   30.7940   46.7180 H   0  0  0  0  0  0  0  0  0  0  0  0
   37.3950   33.0480   45.0690 H   0  0  0  0  0  0  0  0  0  0  0  0
   40.6460   31.6510   42.6610 H   0  0  0  0  0  0  0  0  0  0  0  0
   35.2800   30.0740   47.2140 C   0  0  0  0  0  0  0  0  0  0  0  0
   34.7300   30.7400   48.1800 O   0  0  0  0  0  0  0  0  0  0  0  0
   36.7060   30.2280   46.9980 N   0  0  0  0  0  0  0  0  0  0  0  0
   37.2200   29.7190   46.2740 H   0  0  0  0  0  0  0  0  0  0  0  0
   34.5050   29.2530   46.4360 O   0  0  0  0  0  0  0  0  0  0  0  0
   33.1240   29.3590   46.3100 C   0  0  0  0  0  0  0  0  0  0  0  0
   32.5740   30.2110   45.4710 O   0  0  0  0  0  0  0  0  0  0  0  0
   32.2050   28.5020   47.0970 C   0  0  0  0  0  0  0  0  0  0  0  0
   32.5170   27.5420   48.0680 C   0  0  0  0  0  0  0  0  0  0  0  0
   33.5440   27.3250   48.3520 H   0  0  0  0  0  0  0  0  0  0  0  0
   31.3390   26.9920   48.5350 C   0  0  0  0  0  0  0  0  0  0  0  0
   31.3660   26.2300   49.2910 H   0  0  0  0  0  0  0  0  0  0  0  0
   30.3640   27.6470   47.8210 C   0  0  0  0  0  0  0  0  0  0  0  0
   29.3030   27.4080   47.9870 H   0  0  0  0  0  0  0  0  0  0  0  0
   30.8980   28.5010   47.0120 O   0  0  0  0  0  0  0  0  0  0  0  0
  1  6  2  0  0  0  0
  1  2  1  0  0  0  0
  2  3  2  0  0  0  0
  3  4  1  0  0  0  0
  3  8  1  0  0  0  0
  4  9  1  0  0  0  0
  5 10  1  0  0  0  0
  5  4  2  0  0  0  0
  6  5  1  0  0  0  0
  7  2  1  0  0  0  0
 11 12  1  0  0  0  0
 11 17  1  0  0  0  0
 12  1  1  0  0  0  0
 13 18  1  0  0  0  0
 13 12  2  0  0  0  0
 14 13  1  0  0  0  0
 15 14  2  0  0  0  0
 15 16  1  0  0  0  0
 16 11  2  0  0  0  0
 19 15  1  0  0  0  0
 20 21  2  0  0  0  0
 22 20  1  0  0  0  0
 22  6  1  0  0  0  0
 23 22  1  0  0  0  0
 24 20  1  0  0  0  0
 25 24  1  0  0  0  0
 25 27  1  0  0  0  0
 26 25  2  0  0  0  0
 27 28  2  0  0  0  0
 28 29  1  0  0  0  0
 28 30  1  0  0  0  0
 30 31  1  0  0  0  0
 32 33  1  0  0  0  0
 32 30  2  0  0  0  0
 34 27  1  0  0  0  0
 34 32  1  0  0  0  0
M  END
>  <minimizedAffinity>
-5.75220871

>  <minimizedRMSD>
1.32119083

$$$$
