
 OpenBabel03272507313D

 28 30  0  0  0  0  0  0  0  0999 V2000
   38.1840   25.3350   35.9070 C   0  0  0  0  0  0  0  0  0  0  0  0
   38.3010   26.6560   36.2670 C   0  0  0  0  0  0  0  0  0  0  0  0
   37.9850   27.4260   35.1380 C   0  0  0  0  0  0  0  0  0  0  0  0
   37.6890   26.4780   34.1450 C   0  0  0  0  0  0  0  0  0  0  0  0
   37.8210   25.2940   34.6470 O   0  0  0  0  0  0  0  0  0  0  0  0
   38.5820   27.0800   37.2270 H   0  0  0  0  0  0  0  0  0  0  0  0
   37.9700   28.5000   35.0490 H   0  0  0  0  0  0  0  0  0  0  0  0
   38.4430   24.2630   36.8470 C   0  0  0  0  0  0  0  0  0  0  0  0
   37.6200   24.0530   37.7660 O   0  0  0  0  0  0  0  0  0  0  0  0
   39.6480   23.4940   36.6590 C   0  0  0  0  0  0  0  0  0  0  0  0
   39.9750   22.5680   37.6380 C   0  0  0  0  0  0  0  0  0  0  0  0
   41.1220   21.8100   37.4960 C   0  0  0  0  0  0  0  0  0  0  0  0
   41.8890   22.0220   36.3730 N   0  0  0  0  0  0  0  0  0  0  0  0
   41.5600   22.9240   35.4360 C   0  0  0  0  0  0  0  0  0  0  0  0
   40.4460   23.6550   35.5780 N   0  0  0  0  0  0  0  0  0  0  0  0
   39.3370   22.4390   38.5020 H   0  0  0  0  0  0  0  0  0  0  0  0
   41.3940   21.0870   38.2410 H   0  0  0  0  0  0  0  0  0  0  0  0
   42.2010   23.0540   34.5640 H   0  0  0  0  0  0  0  0  0  0  0  0
   37.2970   26.8340   32.7770 C   0  0  0  0  0  0  0  0  0  0  0  0
   37.7080   27.9010   32.2440 O   0  0  0  0  0  0  0  0  0  0  0  0
   36.4220   25.9380   32.0300 C   0  0  0  0  0  0  0  0  0  0  0  0
   35.3660   26.3500   31.2430 C   0  0  0  0  0  0  0  0  0  0  0  0
   34.9840   27.3380   31.0200 H   0  0  0  0  0  0  0  0  0  0  0  0
   34.8040   25.2000   30.7200 C   0  0  0  0  0  0  0  0  0  0  0  0
   33.9690   25.0150   30.0590 H   0  0  0  0  0  0  0  0  0  0  0  0
   35.5540   24.1380   31.2210 C   0  0  0  0  0  0  0  0  0  0  0  0
   35.5090   23.0460   31.1040 H   0  0  0  0  0  0  0  0  0  0  0  0
   36.4960   24.6310   31.9890 O   0  0  0  0  0  0  0  0  0  0  0  0
  1  2  2  0  0  0  0
  1  8  1  0  0  0  0
  2  6  1  0  0  0  0
  3  2  1  0  0  0  0
  4  5  1  0  0  0  0
  4  3  2  0  0  0  0
  5  1  1  0  0  0  0
  7  3  1  0  0  0  0
  8  9  2  0  0  0  0
 10  8  1  0  0  0  0
 10 11  1  0  0  0  0
 11 16  1  0  0  0  0
 12 11  2  0  0  0  0
 12 17  1  0  0  0  0
 13 12  1  0  0  0  0
 14 15  1  0  0  0  0
 14 13  2  0  0  0  0
 15 10  2  0  0  0  0
 18 14  1  0  0  0  0
 19  4  1  0  0  0  0
 20 19  2  0  0  0  0
 21 19  1  0  0  0  0
 22 21  2  0  0  0  0
 23 22  1  0  0  0  0
 24 26  2  0  0  0  0
 24 22  1  0  0  0  0
 25 24  1  0  0  0  0
 26 28  1  0  0  0  0
 27 26  1  0  0  0  0
 28 21  1  0  0  0  0
M  END
>  <minimizedAffinity>
-5.24931669

$$$$

 OpenBabel03272507313D

 28 30  0  0  0  0  0  0  0  0999 V2000
   37.7630   27.2580   34.3290 C   0  0  0  0  0  0  0  0  0  0  0  0
   37.7980   27.3960   32.9630 C   0  0  0  0  0  0  0  0  0  0  0  0
   36.7140   28.2100   32.5980 C   0  0  0  0  0  0  0  0  0  0  0  0
   36.0840   28.5130   33.8160 C   0  0  0  0  0  0  0  0  0  0  0  0
   36.7330   27.9370   34.7750 O   0  0  0  0  0  0  0  0  0  0  0  0
   38.5050   26.9780   32.2520 H   0  0  0  0  0  0  0  0  0  0  0  0
   36.4280   28.5310   31.6090 H   0  0  0  0  0  0  0  0  0  0  0  0
   38.7500   26.4710   35.0420 C   0  0  0  0  0  0  0  0  0  0  0  0
   39.8540   26.9920   35.3160 O   0  0  0  0  0  0  0  0  0  0  0  0
   38.3910   25.1200   35.3950 C   0  0  0  0  0  0  0  0  0  0  0  0
   38.0180   24.8800   36.7090 C   0  0  0  0  0  0  0  0  0  0  0  0
   37.6670   23.5990   37.0890 C   0  0  0  0  0  0  0  0  0  0  0  0
   37.7090   22.6160   36.1260 N   0  0  0  0  0  0  0  0  0  0  0  0
   38.0740   22.8640   34.8590 C   0  0  0  0  0  0  0  0  0  0  0  0
   38.4130   24.1080   34.4960 N   0  0  0  0  0  0  0  0  0  0  0  0
   38.0000   25.6880   37.4270 H   0  0  0  0  0  0  0  0  0  0  0  0
   37.3740   23.3900   38.1000 H   0  0  0  0  0  0  0  0  0  0  0  0
   38.0910   22.0510   34.1340 H   0  0  0  0  0  0  0  0  0  0  0  0
   34.8870   29.3540   33.9200 C   0  0  0  0  0  0  0  0  0  0  0  0
   33.9250   29.2110   33.1160 O   0  0  0  0  0  0  0  0  0  0  0  0
   34.8150   30.3650   34.9690 C   0  0  0  0  0  0  0  0  0  0  0  0
   35.8830   31.1220   35.4020 C   0  0  0  0  0  0  0  0  0  0  0  0
   36.9210   31.1370   35.0920 H   0  0  0  0  0  0  0  0  0  0  0  0
   35.3920   31.9490   36.3950 C   0  0  0  0  0  0  0  0  0  0  0  0
   35.8420   32.7050   37.0230 H   0  0  0  0  0  0  0  0  0  0  0  0
   34.0370   31.6490   36.5160 C   0  0  0  0  0  0  0  0  0  0  0  0
   33.2230   32.0230   37.1520 H   0  0  0  0  0  0  0  0  0  0  0  0
   33.7500   30.7060   35.6500 O   0  0  0  0  0  0  0  0  0  0  0  0
  1  5  1  0  0  0  0
  1  8  1  0  0  0  0
  2  1  2  0  0  0  0
  3  2  1  0  0  0  0
  3  4  2  0  0  0  0
  4 19  1  0  0  0  0
  4  5  1  0  0  0  0
  6  2  1  0  0  0  0
  7  3  1  0  0  0  0
  8  9  2  0  0  0  0
  8 10  1  0  0  0  0
 10 11  1  0  0  0  0
 11 12  2  0  0  0  0
 11 16  1  0  0  0  0
 12 17  1  0  0  0  0
 13 12  1  0  0  0  0
 14 13  2  0  0  0  0
 15 14  1  0  0  0  0
 15 10  2  0  0  0  0
 18 14  1  0  0  0  0
 19 21  1  0  0  0  0
 20 19  2  0  0  0  0
 21 22  2  0  0  0  0
 21 28  1  0  0  0  0
 22 24  1  0  0  0  0
 23 22  1  0  0  0  0
 24 26  2  0  0  0  0
 24 25  1  0  0  0  0
 26 27  1  0  0  0  0
 28 26  1  0  0  0  0
M  END
>  <minimizedAffinity>
-5.11463594

$$$$

 OpenBabel03272507313D

 28 30  0  0  0  0  0  0  0  0999 V2000
   37.6510   26.3470   34.0650 C   0  0  0  0  0  0  0  0  0  0  0  0
   37.3160   27.4830   33.3700 C   0  0  0  0  0  0  0  0  0  0  0  0
   36.6100   27.0800   32.2260 C   0  0  0  0  0  0  0  0  0  0  0  0
   36.5700   25.6790   32.3210 C   0  0  0  0  0  0  0  0  0  0  0  0
   37.1850   25.3170   33.3990 O   0  0  0  0  0  0  0  0  0  0  0  0
   37.5310   28.5200   33.6120 H   0  0  0  0  0  0  0  0  0  0  0  0
   36.1910   27.7000   31.4500 H   0  0  0  0  0  0  0  0  0  0  0  0
   38.3930   26.4050   35.3080 C   0  0  0  0  0  0  0  0  0  0  0  0
   38.6680   27.5240   35.7970 O   0  0  0  0  0  0  0  0  0  0  0  0
   38.7730   25.1520   35.9130 C   0  0  0  0  0  0  0  0  0  0  0  0
   37.9980   24.6900   36.9670 C   0  0  0  0  0  0  0  0  0  0  0  0
   38.3290   23.4940   37.5740 C   0  0  0  0  0  0  0  0  0  0  0  0
   39.4260   22.8170   37.0920 N   0  0  0  0  0  0  0  0  0  0  0  0
   40.1670   23.2790   36.0730 C   0  0  0  0  0  0  0  0  0  0  0  0
   39.8420   24.4390   35.4870 N   0  0  0  0  0  0  0  0  0  0  0  0
   37.1450   25.2590   37.3070 H   0  0  0  0  0  0  0  0  0  0  0  0
   37.7440   23.1160   38.3900 H   0  0  0  0  0  0  0  0  0  0  0  0
   41.0270   22.7060   35.7280 H   0  0  0  0  0  0  0  0  0  0  0  0
   35.9190   24.8190   31.3270 C   0  0  0  0  0  0  0  0  0  0  0  0
   34.9740   25.2550   30.6150 O   0  0  0  0  0  0  0  0  0  0  0  0
   36.3760   23.4430   31.1670 C   0  0  0  0  0  0  0  0  0  0  0  0
   35.5830   22.3280   31.3430 C   0  0  0  0  0  0  0  0  0  0  0  0
   34.5400   22.2290   31.6140 H   0  0  0  0  0  0  0  0  0  0  0  0
   36.3940   21.2360   31.0980 C   0  0  0  0  0  0  0  0  0  0  0  0
   36.2270   20.1680   31.1110 H   0  0  0  0  0  0  0  0  0  0  0  0
   37.6510   21.7480   30.7830 C   0  0  0  0  0  0  0  0  0  0  0  0
   38.6170   21.2970   30.5150 H   0  0  0  0  0  0  0  0  0  0  0  0
   37.5830   23.0570   30.8380 O   0  0  0  0  0  0  0  0  0  0  0  0
  1  8  1  0  0  0  0
  2  6  1  0  0  0  0
  2  1  2  0  0  0  0
  3  4  2  0  0  0  0
  3  2  1  0  0  0  0
  4  5  1  0  0  0  0
  5  1  1  0  0  0  0
  7  3  1  0  0  0  0
  8  9  2  0  0  0  0
  8 10  1  0  0  0  0
 10 11  1  0  0  0  0
 11 16  1  0  0  0  0
 11 12  2  0  0  0  0
 12 17  1  0  0  0  0
 13 12  1  0  0  0  0
 14 13  2  0  0  0  0
 15 10  2  0  0  0  0
 15 14  1  0  0  0  0
 18 14  1  0  0  0  0
 19  4  1  0  0  0  0
 20 19  2  0  0  0  0
 21 19  1  0  0  0  0
 21 22  2  0  0  0  0
 22 23  1  0  0  0  0
 24 25  1  0  0  0  0
 24 22  1  0  0  0  0
 26 28  1  0  0  0  0
 26 24  2  0  0  0  0
 27 26  1  0  0  0  0
 28 21  1  0  0  0  0
M  END
>  <minimizedAffinity>
-5.08944893

$$$$

 OpenBabel03272507313D

 28 30  0  0  0  0  0  0  0  0999 V2000
   36.6580   25.6540   32.4210 C   0  0  0  0  0  0  0  0  0  0  0  0
   36.7910   27.0170   32.3160 C   0  0  0  0  0  0  0  0  0  0  0  0
   37.4800   27.4580   33.4570 C   0  0  0  0  0  0  0  0  0  0  0  0
   37.7200   26.2850   34.1900 C   0  0  0  0  0  0  0  0  0  0  0  0
   37.2240   25.2810   33.5440 O   0  0  0  0  0  0  0  0  0  0  0  0
   36.4470   27.6790   31.5260 H   0  0  0  0  0  0  0  0  0  0  0  0
   37.7620   28.4660   33.7140 H   0  0  0  0  0  0  0  0  0  0  0  0
   35.9870   24.8730   31.4010 C   0  0  0  0  0  0  0  0  0  0  0  0
   35.0220   25.3820   30.7880 O   0  0  0  0  0  0  0  0  0  0  0  0
   36.4820   23.5420   31.1530 C   0  0  0  0  0  0  0  0  0  0  0  0
   35.6070   22.4850   31.3590 C   0  0  0  0  0  0  0  0  0  0  0  0
   36.0420   21.1930   31.1330 C   0  0  0  0  0  0  0  0  0  0  0  0
   37.3400   21.0250   30.7090 N   0  0  0  0  0  0  0  0  0  0  0  0
   38.1750   22.0570   30.5160 C   0  0  0  0  0  0  0  0  0  0  0  0
   37.7480   23.3080   30.7370 N   0  0  0  0  0  0  0  0  0  0  0  0
   34.5960   22.6720   31.6920 H   0  0  0  0  0  0  0  0  0  0  0  0
   35.3830   20.3610   31.2850 H   0  0  0  0  0  0  0  0  0  0  0  0
   39.1950   21.8710   30.1800 H   0  0  0  0  0  0  0  0  0  0  0  0
   38.4270   26.2640   35.4750 C   0  0  0  0  0  0  0  0  0  0  0  0
   38.8770   27.3290   35.9830 O   0  0  0  0  0  0  0  0  0  0  0  0
   38.6080   24.9940   36.1700 C   0  0  0  0  0  0  0  0  0  0  0  0
   37.9190   24.6160   37.3030 C   0  0  0  0  0  0  0  0  0  0  0  0
   37.1580   25.1250   37.8810 H   0  0  0  0  0  0  0  0  0  0  0  0
   38.3850   23.3570   37.6340 C   0  0  0  0  0  0  0  0  0  0  0  0
   38.1510   22.6630   38.4290 H   0  0  0  0  0  0  0  0  0  0  0  0
   39.3440   23.0320   36.6760 C   0  0  0  0  0  0  0  0  0  0  0  0
   39.9890   22.1600   36.5030 H   0  0  0  0  0  0  0  0  0  0  0  0
   39.4350   24.0350   35.8360 O   0  0  0  0  0  0  0  0  0  0  0  0
  1  5  1  0  0  0  0
  2  1  2  0  0  0  0
  2  3  1  0  0  0  0
  3  7  1  0  0  0  0
  3  4  2  0  0  0  0
  4 19  1  0  0  0  0
  5  4  1  0  0  0  0
  6  2  1  0  0  0  0
  8  1  1  0  0  0  0
  9  8  2  0  0  0  0
 10 11  1  0  0  0  0
 10  8  1  0  0  0  0
 11 16  1  0  0  0  0
 12 17  1  0  0  0  0
 12 11  2  0  0  0  0
 13 12  1  0  0  0  0
 14 13  2  0  0  0  0
 14 15  1  0  0  0  0
 15 10  2  0  0  0  0
 18 14  1  0  0  0  0
 19 20  2  0  0  0  0
 19 21  1  0  0  0  0
 21 22  2  0  0  0  0
 22 24  1  0  0  0  0
 22 23  1  0  0  0  0
 24 25  1  0  0  0  0
 26 24  2  0  0  0  0
 27 26  1  0  0  0  0
 28 21  1  0  0  0  0
 28 26  1  0  0  0  0
M  END
>  <minimizedAffinity>
-5.02372456

$$$$

 OpenBabel03272507313D

 28 30  0  0  0  0  0  0  0  0999 V2000
   37.5660   26.4100   34.3990 C   0  0  0  0  0  0  0  0  0  0  0  0
   37.9660   27.3900   35.2740 C   0  0  0  0  0  0  0  0  0  0  0  0
   38.3250   26.7570   36.4740 C   0  0  0  0  0  0  0  0  0  0  0  0
   38.1070   25.3920   36.2240 C   0  0  0  0  0  0  0  0  0  0  0  0
   37.6710   25.2560   35.0150 O   0  0  0  0  0  0  0  0  0  0  0  0
   38.0150   28.4640   35.1210 H   0  0  0  0  0  0  0  0  0  0  0  0
   38.6860   27.2110   37.3830 H   0  0  0  0  0  0  0  0  0  0  0  0
   37.1250   26.7220   33.0550 C   0  0  0  0  0  0  0  0  0  0  0  0
   36.4780   27.7750   32.8600 O   0  0  0  0  0  0  0  0  0  0  0  0
   37.4660   25.7880   32.0110 C   0  0  0  0  0  0  0  0  0  0  0  0
   36.6010   24.7260   31.7950 C   0  0  0  0  0  0  0  0  0  0  0  0
   36.8920   23.8070   30.8040 C   0  0  0  0  0  0  0  0  0  0  0  0
   38.0430   24.0010   30.0760 N   0  0  0  0  0  0  0  0  0  0  0  0
   38.8710   25.0330   30.2980 C   0  0  0  0  0  0  0  0  0  0  0  0
   38.5850   25.9210   31.2600 N   0  0  0  0  0  0  0  0  0  0  0  0
   35.7080   24.6190   32.3950 H   0  0  0  0  0  0  0  0  0  0  0  0
   36.2360   22.9780   30.6190 H   0  0  0  0  0  0  0  0  0  0  0  0
   39.7710   25.1430   29.6930 H   0  0  0  0  0  0  0  0  0  0  0  0
   38.3530   24.3380   37.2130 C   0  0  0  0  0  0  0  0  0  0  0  0
   37.6770   24.2790   38.2770 O   0  0  0  0  0  0  0  0  0  0  0  0
   39.3960   23.3500   36.9580 C   0  0  0  0  0  0  0  0  0  0  0  0
   40.1280   22.7130   37.9380 C   0  0  0  0  0  0  0  0  0  0  0  0
   40.0980   22.7910   39.0180 H   0  0  0  0  0  0  0  0  0  0  0  0
   40.9990   21.8660   37.2790 C   0  0  0  0  0  0  0  0  0  0  0  0
   41.7580   21.1720   37.6130 H   0  0  0  0  0  0  0  0  0  0  0  0
   40.7500   22.0350   35.9180 C   0  0  0  0  0  0  0  0  0  0  0  0
   41.1710   21.5970   35.0020 H   0  0  0  0  0  0  0  0  0  0  0  0
   39.7940   22.9230   35.7860 O   0  0  0  0  0  0  0  0  0  0  0  0
  1  5  1  0  0  0  0
  1  2  2  0  0  0  0
  2  3  1  0  0  0  0
  3  7  1  0  0  0  0
  4  3  2  0  0  0  0
  4 19  1  0  0  0  0
  5  4  1  0  0  0  0
  6  2  1  0  0  0  0
  8  1  1  0  0  0  0
  9  8  2  0  0  0  0
 10  8  1  0  0  0  0
 11 10  1  0  0  0  0
 11 16  1  0  0  0  0
 12 11  2  0  0  0  0
 13 14  2  0  0  0  0
 13 12  1  0  0  0  0
 14 15  1  0  0  0  0
 15 10  2  0  0  0  0
 17 12  1  0  0  0  0
 18 14  1  0  0  0  0
 19 20  2  0  0  0  0
 21 19  1  0  0  0  0
 21 22  2  0  0  0  0
 22 23  1  0  0  0  0
 24 25  1  0  0  0  0
 24 22  1  0  0  0  0
 26 24  2  0  0  0  0
 27 26  1  0  0  0  0
 28 26  1  0  0  0  0
 28 21  1  0  0  0  0
M  END
>  <minimizedAffinity>
-5.00188637

$$$$

 OpenBabel03272507313D

 28 30  0  0  0  0  0  0  0  0999 V2000
   36.7460   27.7530   34.2350 C   0  0  0  0  0  0  0  0  0  0  0  0
   37.6240   28.1480   35.2140 C   0  0  0  0  0  0  0  0  0  0  0  0
   38.3000   26.9990   35.6550 C   0  0  0  0  0  0  0  0  0  0  0  0
   37.7580   25.9600   34.8800 C   0  0  0  0  0  0  0  0  0  0  0  0
   36.8700   26.4560   34.0830 O   0  0  0  0  0  0  0  0  0  0  0  0
   37.8040   29.1430   35.6110 H   0  0  0  0  0  0  0  0  0  0  0  0
   39.0620   26.9270   36.4150 H   0  0  0  0  0  0  0  0  0  0  0  0
   35.8820   28.7010   33.5600 C   0  0  0  0  0  0  0  0  0  0  0  0
   34.8710   29.1300   34.1590 O   0  0  0  0  0  0  0  0  0  0  0  0
   36.2470   29.0950   32.2220 C   0  0  0  0  0  0  0  0  0  0  0  0
   36.5380   28.0880   31.3140 C   0  0  0  0  0  0  0  0  0  0  0  0
   36.8930   28.4250   30.0220 C   0  0  0  0  0  0  0  0  0  0  0  0
   36.9400   29.7630   29.7030 N   0  0  0  0  0  0  0  0  0  0  0  0
   36.6570   30.7260   30.5940 C   0  0  0  0  0  0  0  0  0  0  0  0
   36.3130   30.3940   31.8450 N   0  0  0  0  0  0  0  0  0  0  0  0
   36.4850   27.0510   31.6160 H   0  0  0  0  0  0  0  0  0  0  0  0
   37.1210   27.6620   29.3020 H   0  0  0  0  0  0  0  0  0  0  0  0
   36.7090   31.7720   30.2920 H   0  0  0  0  0  0  0  0  0  0  0  0
   38.1740   24.5590   35.0010 C   0  0  0  0  0  0  0  0  0  0  0  0
   38.3120   23.8360   33.9760 O   0  0  0  0  0  0  0  0  0  0  0  0
   38.4300   24.0020   36.3240 C   0  0  0  0  0  0  0  0  0  0  0  0
   39.5990   23.3740   36.6980 C   0  0  0  0  0  0  0  0  0  0  0  0
   40.5090   23.1710   36.1470 H   0  0  0  0  0  0  0  0  0  0  0  0
   39.4310   22.9990   38.0180 C   0  0  0  0  0  0  0  0  0  0  0  0
   40.0610   22.4870   38.7320 H   0  0  0  0  0  0  0  0  0  0  0  0
   38.1540   23.4220   38.3820 C   0  0  0  0  0  0  0  0  0  0  0  0
   37.5620   23.3630   39.3060 H   0  0  0  0  0  0  0  0  0  0  0  0
   37.6070   24.0080   37.3430 O   0  0  0  0  0  0  0  0  0  0  0  0
  1  2  2  0  0  0  0
  2  6  1  0  0  0  0
  2  3  1  0  0  0  0
  3  7  1  0  0  0  0
  4 19  1  0  0  0  0
  4  3  2  0  0  0  0
  5  1  1  0  0  0  0
  5  4  1  0  0  0  0
  8  9  2  0  0  0  0
  8  1  1  0  0  0  0
 10  8  1  0  0  0  0
 11 16  1  0  0  0  0
 11 10  2  0  0  0  0
 12 11  1  0  0  0  0
 13 12  2  0  0  0  0
 13 14  1  0  0  0  0
 14 15  2  0  0  0  0
 15 10  1  0  0  0  0
 17 12  1  0  0  0  0
 18 14  1  0  0  0  0
 19 21  1  0  0  0  0
 20 19  2  0  0  0  0
 21 22  2  0  0  0  0
 21 28  1  0  0  0  0
 22 24  1  0  0  0  0
 23 22  1  0  0  0  0
 24 26  2  0  0  0  0
 24 25  1  0  0  0  0
 26 27  1  0  0  0  0
 28 26  1  0  0  0  0
M  END
>  <minimizedAffinity>
-4.94809151

$$$$

 OpenBabel03272507313D

 28 30  0  0  0  0  0  0  0  0999 V2000
   37.1310   23.7560   32.5210 C   0  0  0  0  0  0  0  0  0  0  0  0
   37.5650   25.0580   32.4560 C   0  0  0  0  0  0  0  0  0  0  0  0
   38.5500   25.2190   33.4440 C   0  0  0  0  0  0  0  0  0  0  0  0
   38.6390   23.9560   34.0530 C   0  0  0  0  0  0  0  0  0  0  0  0
   37.7990   23.1580   33.4790 O   0  0  0  0  0  0  0  0  0  0  0  0
   37.2440   25.8530   31.7890 H   0  0  0  0  0  0  0  0  0  0  0  0
   39.1120   26.1080   33.6830 H   0  0  0  0  0  0  0  0  0  0  0  0
   36.1060   23.2490   31.6320 C   0  0  0  0  0  0  0  0  0  0  0  0
   35.3760   24.0650   31.0240 O   0  0  0  0  0  0  0  0  0  0  0  0
   35.9910   21.8180   31.4990 C   0  0  0  0  0  0  0  0  0  0  0  0
   34.9600   21.1930   32.1830 C   0  0  0  0  0  0  0  0  0  0  0  0
   34.8150   19.8220   32.0820 C   0  0  0  0  0  0  0  0  0  0  0  0
   35.7180   19.1440   31.2960 N   0  0  0  0  0  0  0  0  0  0  0  0
   36.7120   19.7640   30.6410 C   0  0  0  0  0  0  0  0  0  0  0  0
   36.8480   21.0930   30.7420 N   0  0  0  0  0  0  0  0  0  0  0  0
   34.2760   21.7730   32.7870 H   0  0  0  0  0  0  0  0  0  0  0  0
   34.0240   19.3170   32.6020 H   0  0  0  0  0  0  0  0  0  0  0  0
   37.4020   19.1810   30.0310 H   0  0  0  0  0  0  0  0  0  0  0  0
   39.5560   23.6530   35.1560 C   0  0  0  0  0  0  0  0  0  0  0  0
   40.7590   23.3440   34.9300 O   0  0  0  0  0  0  0  0  0  0  0  0
   39.0650   23.7090   36.5280 C   0  0  0  0  0  0  0  0  0  0  0  0
   39.6050   23.0040   37.5830 C   0  0  0  0  0  0  0  0  0  0  0  0
   40.4390   22.3140   37.6300 H   0  0  0  0  0  0  0  0  0  0  0  0
   38.8540   23.3370   38.6940 C   0  0  0  0  0  0  0  0  0  0  0  0
   38.8930   23.0440   39.7340 H   0  0  0  0  0  0  0  0  0  0  0  0
   37.8850   24.2360   38.2530 C   0  0  0  0  0  0  0  0  0  0  0  0
   37.0650   24.7800   38.7420 H   0  0  0  0  0  0  0  0  0  0  0  0
   38.0560   24.4190   36.9650 O   0  0  0  0  0  0  0  0  0  0  0  0
  1  5  1  0  0  0  0
  2  1  2  0  0  0  0
  2  3  1  0  0  0  0
  3  7  1  0  0  0  0
  3  4  2  0  0  0  0
  4 19  1  0  0  0  0
  5  4  1  0  0  0  0
  6  2  1  0  0  0  0
  8  1  1  0  0  0  0
  9  8  2  0  0  0  0
 10  8  1  0  0  0  0
 10 11  1  0  0  0  0
 11 16  1  0  0  0  0
 12 11  2  0  0  0  0
 12 17  1  0  0  0  0
 13 12  1  0  0  0  0
 14 15  1  0  0  0  0
 14 13  2  0  0  0  0
 15 10  2  0  0  0  0
 18 14  1  0  0  0  0
 19 21  1  0  0  0  0
 20 19  2  0  0  0  0
 21 28  1  0  0  0  0
 21 22  2  0  0  0  0
 22 23  1  0  0  0  0
 22 24  1  0  0  0  0
 24 25  1  0  0  0  0
 26 24  2  0  0  0  0
 26 27  1  0  0  0  0
 28 26  1  0  0  0  0
M  END
>  <minimizedAffinity>
-4.93974686

$$$$

 OpenBabel03272507313D

 28 30  0  0  0  0  0  0  0  0999 V2000
   38.0790   25.2980   35.9400 C   0  0  0  0  0  0  0  0  0  0  0  0
   38.3540   26.6360   36.0870 C   0  0  0  0  0  0  0  0  0  0  0  0
   37.9240   27.2810   34.9170 C   0  0  0  0  0  0  0  0  0  0  0  0
   37.4040   26.2450   34.1230 C   0  0  0  0  0  0  0  0  0  0  0  0
   37.5210   25.1300   34.7650 O   0  0  0  0  0  0  0  0  0  0  0  0
   38.8130   27.1510   36.9260 H   0  0  0  0  0  0  0  0  0  0  0  0
   37.9800   28.3310   34.6780 H   0  0  0  0  0  0  0  0  0  0  0  0
   38.3990   24.3360   36.9760 C   0  0  0  0  0  0  0  0  0  0  0  0
   37.7270   24.3400   38.0320 O   0  0  0  0  0  0  0  0  0  0  0  0
   39.4850   23.4230   36.7210 C   0  0  0  0  0  0  0  0  0  0  0  0
   39.9850   23.3680   35.4290 C   0  0  0  0  0  0  0  0  0  0  0  0
   41.0250   22.5050   35.1430 C   0  0  0  0  0  0  0  0  0  0  0  0
   41.5140   21.7350   36.1730 N   0  0  0  0  0  0  0  0  0  0  0  0
   41.0180   21.7980   37.4180 C   0  0  0  0  0  0  0  0  0  0  0  0
   40.0100   22.6370   37.6910 N   0  0  0  0  0  0  0  0  0  0  0  0
   39.5650   23.9960   34.6550 H   0  0  0  0  0  0  0  0  0  0  0  0
   41.4290   22.4460   34.1500 H   0  0  0  0  0  0  0  0  0  0  0  0
   41.4400   21.1670   38.2000 H   0  0  0  0  0  0  0  0  0  0  0  0
   36.8320   26.4570   32.7890 C   0  0  0  0  0  0  0  0  0  0  0  0
   36.6400   25.4860   32.0060 O   0  0  0  0  0  0  0  0  0  0  0  0
   36.4850   27.8100   32.3690 C   0  0  0  0  0  0  0  0  0  0  0  0
   37.2380   28.5810   31.5080 C   0  0  0  0  0  0  0  0  0  0  0  0
   38.1700   28.3780   30.9960 H   0  0  0  0  0  0  0  0  0  0  0  0
   36.5640   29.7800   31.3750 C   0  0  0  0  0  0  0  0  0  0  0  0
   36.7580   30.6850   30.8160 H   0  0  0  0  0  0  0  0  0  0  0  0
   35.4240   29.6770   32.1710 C   0  0  0  0  0  0  0  0  0  0  0  0
   34.5850   30.3480   32.3980 H   0  0  0  0  0  0  0  0  0  0  0  0
   35.4280   28.4920   32.7340 O   0  0  0  0  0  0  0  0  0  0  0  0
  1  2  2  0  0  0  0
  1  8  1  0  0  0  0
  2  6  1  0  0  0  0
  3  2  1  0  0  0  0
  4  5  1  0  0  0  0
  4  3  2  0  0  0  0
  5  1  1  0  0  0  0
  7  3  1  0  0  0  0
  8  9  2  0  0  0  0
 10  8  1  0  0  0  0
 10 15  1  0  0  0  0
 11 10  2  0  0  0  0
 12 11  1  0  0  0  0
 12 13  2  0  0  0  0
 13 14  1  0  0  0  0
 14 15  2  0  0  0  0
 14 18  1  0  0  0  0
 16 11  1  0  0  0  0
 17 12  1  0  0  0  0
 19  4  1  0  0  0  0
 20 19  2  0  0  0  0
 21 28  1  0  0  0  0
 21 19  1  0  0  0  0
 22 21  2  0  0  0  0
 23 22  1  0  0  0  0
 24 22  1  0  0  0  0
 24 26  2  0  0  0  0
 25 24  1  0  0  0  0
 26 27  1  0  0  0  0
 26 28  1  0  0  0  0
M  END
>  <minimizedAffinity>
-4.8951478

$$$$

 OpenBabel03272507313D

 28 30  0  0  0  0  0  0  0  0999 V2000
   35.9660   28.5500   33.7960 C   0  0  0  0  0  0  0  0  0  0  0  0
   36.5910   28.2020   32.6240 C   0  0  0  0  0  0  0  0  0  0  0  0
   37.6960   27.4050   32.9610 C   0  0  0  0  0  0  0  0  0  0  0  0
   37.6530   27.3290   34.3630 C   0  0  0  0  0  0  0  0  0  0  0  0
   36.6360   28.0070   34.7840 O   0  0  0  0  0  0  0  0  0  0  0  0
   36.3250   28.4640   31.6040 H   0  0  0  0  0  0  0  0  0  0  0  0
   38.4160   26.9520   32.2980 H   0  0  0  0  0  0  0  0  0  0  0  0
   34.7780   29.3790   33.8090 C   0  0  0  0  0  0  0  0  0  0  0  0
   33.9340   29.2410   32.8950 O   0  0  0  0  0  0  0  0  0  0  0  0
   34.6390   30.3230   34.8910 C   0  0  0  0  0  0  0  0  0  0  0  0
   35.7280   31.1320   35.1770 C   0  0  0  0  0  0  0  0  0  0  0  0
   35.6360   32.0500   36.2070 C   0  0  0  0  0  0  0  0  0  0  0  0
   34.4490   32.1090   36.9010 N   0  0  0  0  0  0  0  0  0  0  0  0
   33.4050   31.3170   36.6130 C   0  0  0  0  0  0  0  0  0  0  0  0
   33.4990   30.4300   35.6140 N   0  0  0  0  0  0  0  0  0  0  0  0
   36.6380   31.0460   34.6000 H   0  0  0  0  0  0  0  0  0  0  0  0
   36.4650   32.6870   36.4460 H   0  0  0  0  0  0  0  0  0  0  0  0
   32.4870   31.4030   37.1930 H   0  0  0  0  0  0  0  0  0  0  0  0
   38.6300   26.5850   35.1630 C   0  0  0  0  0  0  0  0  0  0  0  0
   39.7640   27.0760   35.4190 O   0  0  0  0  0  0  0  0  0  0  0  0
   38.2800   25.2610   35.6660 C   0  0  0  0  0  0  0  0  0  0  0  0
   38.3160   24.1040   34.9160 C   0  0  0  0  0  0  0  0  0  0  0  0
   38.5860   23.9300   33.8830 H   0  0  0  0  0  0  0  0  0  0  0  0
   37.9150   23.0860   35.7610 C   0  0  0  0  0  0  0  0  0  0  0  0
   37.7860   22.0200   35.6320 H   0  0  0  0  0  0  0  0  0  0  0  0
   37.6530   23.6820   36.9930 C   0  0  0  0  0  0  0  0  0  0  0  0
   37.3140   23.3080   37.9690 H   0  0  0  0  0  0  0  0  0  0  0  0
   37.8850   24.9680   36.8790 O   0  0  0  0  0  0  0  0  0  0  0  0
  1  8  1  0  0  0  0
  1  5  1  0  0  0  0
  2  3  1  0  0  0  0
  2  1  2  0  0  0  0
  3  4  2  0  0  0  0
  4  5  1  0  0  0  0
  4 19  1  0  0  0  0
  6  2  1  0  0  0  0
  7  3  1  0  0  0  0
  8 10  1  0  0  0  0
  9  8  2  0  0  0  0
 10 11  2  0  0  0  0
 10 15  1  0  0  0  0
 11 12  1  0  0  0  0
 12 17  1  0  0  0  0
 12 13  2  0  0  0  0
 14 13  1  0  0  0  0
 14 18  1  0  0  0  0
 15 14  2  0  0  0  0
 16 11  1  0  0  0  0
 19 20  2  0  0  0  0
 19 21  1  0  0  0  0
 21 28  1  0  0  0  0
 22 21  2  0  0  0  0
 22 24  1  0  0  0  0
 23 22  1  0  0  0  0
 24 26  2  0  0  0  0
 25 24  1  0  0  0  0
 26 27  1  0  0  0  0
 28 26  1  0  0  0  0
M  END
>  <minimizedAffinity>
-4.88871717

$$$$
