
 OpenBabel03272508573D

 39 42  0  0  1  0  0  0  0  0999 V2000
   38.3900   31.8890   44.5340 C   0  0  0  0  0  0  0  0  0  0  0  0
   37.2750   32.4480   44.4210 O   0  0  0  0  0  0  0  0  0  0  0  0
   38.9500   31.6300   45.8360 N   0  0  0  0  0  0  0  0  0  0  0  0
   39.9480   31.3780   45.9870 H   0  0  0  0  0  0  0  0  0  0  0  0
   39.1690   31.4760   43.3450 C   0  0  0  0  0  0  0  0  0  0  0  0
   40.1510   30.5370   43.4930 C   0  0  0  0  0  0  0  0  0  0  0  0
   40.8580   30.1800   42.3550 C   0  0  0  0  0  0  0  0  0  0  0  0
   40.5410   30.7740   41.1700 C   0  0  0  0  0  0  0  0  0  0  0  0
   39.5500   31.7230   41.0120 C   0  0  0  0  0  0  0  0  0  0  0  0
   38.8940   32.0370   42.1430 N   0  0  0  0  0  0  0  0  0  0  0  0
   40.4100   30.0610   44.4210 H   0  0  0  0  0  0  0  0  0  0  0  0
   41.6360   29.4430   42.4390 H   0  0  0  0  0  0  0  0  0  0  0  0
   41.1210   30.4630   40.3030 H   0  0  0  0  0  0  0  0  0  0  0  0
   39.2450   32.3360   39.7240 C   0  0  0  0  0  0  0  0  0  0  0  0
   38.6580   33.4430   39.7110 O   0  0  0  0  0  0  0  0  0  0  0  0
   39.6130   31.6730   38.4760 C   0  0  0  0  0  0  0  0  0  0  0  0
   40.6590   32.0610   37.6630 C   0  0  0  0  0  0  0  0  0  0  0  0
   41.3710   32.8690   37.7650 H   0  0  0  0  0  0  0  0  0  0  0  0
   40.6830   31.1930   36.5890 C   0  0  0  0  0  0  0  0  0  0  0  0
   41.3170   31.1110   35.7160 H   0  0  0  0  0  0  0  0  0  0  0  0
   39.6260   30.3050   36.8120 C   0  0  0  0  0  0  0  0  0  0  0  0
   39.2580   29.4470   36.2310 H   0  0  0  0  0  0  0  0  0  0  0  0
   39.0280   30.6360   37.9440 O   0  0  0  0  0  0  0  0  0  0  0  0
   38.4390   31.1110   48.2110 C   0  0  2  0  0  0  0  0  0  0  0  0
   38.6740   32.5770   48.1290 C   0  0  0  0  0  0  0  0  0  0  0  0
   38.0760   31.7290   46.9780 C   0  0  1  0  0  0  0  0  0  0  0  0
   39.3690   30.5070   48.2990 H   0  0  0  0  0  0  0  0  0  0  0  0
   39.6990   32.9370   48.0180 H   0  0  0  0  0  0  0  0  0  0  0  0
   37.9800   33.2240   48.6780 H   0  0  0  0  0  0  0  0  0  0  0  0
   37.0020   31.9630   46.7780 H   0  0  0  0  0  0  0  0  0  0  0  0
   35.0640   30.2430   49.5120 C   0  0  0  0  0  0  0  0  0  0  0  0
   35.3890   29.5490   50.7300 C   0  0  0  0  0  0  0  0  0  0  0  0
   36.7850   29.4090   51.0710 C   0  0  0  0  0  0  0  0  0  0  0  0
   37.7420   29.9310   50.2400 N   0  0  0  0  0  0  0  0  0  0  0  0
   37.3590   30.5700   49.1160 C   0  0  0  0  0  0  0  0  0  0  0  0
   36.0350   30.7420   48.7260 N   0  0  0  0  0  0  0  0  0  0  0  0
   34.0100   30.3310   49.2870 H   0  0  0  0  0  0  0  0  0  0  0  0
   34.6420   29.1450   51.3710 H   0  0  0  0  0  0  0  0  0  0  0  0
   37.0310   28.8880   51.9820 H   0  0  0  0  0  0  0  0  0  0  0  0
  1  3  1  0  0  0  0
  2  1  2  0  0  0  0
  3  4  1  0  0  0  0
  3 26  1  0  0  0  0
  5  6  1  0  0  0  0
  5  1  1  0  0  0  0
  6 11  1  0  0  0  0
  7 12  1  0  0  0  0
  7  6  2  0  0  0  0
  8  7  1  0  0  0  0
  9  8  2  0  0  0  0
  9 10  1  0  0  0  0
 10  5  2  0  0  0  0
 13  8  1  0  0  0  0
 14  9  1  0  0  0  0
 15 14  2  0  0  0  0
 16 14  1  0  0  0  0
 17 18  1  0  0  0  0
 17 16  2  0  0  0  0
 19 21  2  0  0  0  0
 19 17  1  0  0  0  0
 20 19  1  0  0  0  0
 21 23  1  0  0  0  0
 22 21  1  0  0  0  0
 23 16  1  0  0  0  0
 24 27  1  6  0  0  0
 24 35  1  0  0  0  0
 25 24  1  0  0  0  0
 25 29  1  0  0  0  0
 26 30  1  6  0  0  0
 26 25  1  0  0  0  0
 26 24  1  0  0  0  0
 28 25  1  0  0  0  0
 31 32  1  0  0  0  0
 32 33  2  0  0  0  0
 32 38  1  0  0  0  0
 33 39  1  0  0  0  0
 34 33  1  0  0  0  0
 35 34  2  0  0  0  0
 36 35  1  0  0  0  0
 36 31  2  0  0  0  0
 37 31  1  0  0  0  0
M  END
>  <minimizedAffinity>
-4.93597221

>  <minimizedRMSD>
0.401744127

$$$$
