
 OpenBabel03272508573D

 39 42  0  0  1  0  0  0  0  0999 V2000
   38.3860   31.8580   44.5820 C   0  0  0  0  0  0  0  0  0  0  0  0
   37.2570   32.3860   44.4570 O   0  0  0  0  0  0  0  0  0  0  0  0
   38.9530   31.6460   45.8900 N   0  0  0  0  0  0  0  0  0  0  0  0
   39.9560   31.4230   46.0460 H   0  0  0  0  0  0  0  0  0  0  0  0
   39.1750   31.4360   43.4040 C   0  0  0  0  0  0  0  0  0  0  0  0
   40.1600   30.5040   43.5680 C   0  0  0  0  0  0  0  0  0  0  0  0
   40.8760   30.1380   42.4390 C   0  0  0  0  0  0  0  0  0  0  0  0
   40.5640   30.7180   41.2450 C   0  0  0  0  0  0  0  0  0  0  0  0
   39.5700   31.6600   41.0700 C   0  0  0  0  0  0  0  0  0  0  0  0
   38.9050   31.9830   42.1940 N   0  0  0  0  0  0  0  0  0  0  0  0
   40.4160   30.0390   44.5030 H   0  0  0  0  0  0  0  0  0  0  0  0
   41.6570   29.4060   42.5360 H   0  0  0  0  0  0  0  0  0  0  0  0
   41.1520   30.4000   40.3860 H   0  0  0  0  0  0  0  0  0  0  0  0
   39.2700   32.2570   39.7730 C   0  0  0  0  0  0  0  0  0  0  0  0
   38.5380   33.2730   39.7370 O   0  0  0  0  0  0  0  0  0  0  0  0
   39.8100   31.6820   38.5440 C   0  0  0  0  0  0  0  0  0  0  0  0
   39.1950   30.6900   37.8080 C   0  0  0  0  0  0  0  0  0  0  0  0
   38.2600   30.1690   37.9680 H   0  0  0  0  0  0  0  0  0  0  0  0
   40.0100   30.4210   36.7260 C   0  0  0  0  0  0  0  0  0  0  0  0
   39.9360   29.7320   35.8960 H   0  0  0  0  0  0  0  0  0  0  0  0
   41.1010   31.2840   36.8670 C   0  0  0  0  0  0  0  0  0  0  0  0
   42.0010   31.4320   36.2510 H   0  0  0  0  0  0  0  0  0  0  0  0
   40.9300   32.0070   37.9610 O   0  0  0  0  0  0  0  0  0  0  0  0
   38.4330   31.1300   48.2640 C   0  0  2  0  0  0  0  0  0  0  0  0
   38.6780   32.5940   48.1830 C   0  0  0  0  0  0  0  0  0  0  0  0
   38.0760   31.7500   47.0300 C   0  0  1  0  0  0  0  0  0  0  0  0
   39.3580   30.5190   48.3540 H   0  0  0  0  0  0  0  0  0  0  0  0
   39.7060   32.9470   48.0750 H   0  0  0  0  0  0  0  0  0  0  0  0
   37.9860   33.2450   48.7310 H   0  0  0  0  0  0  0  0  0  0  0  0
   37.0040   31.9920   46.8280 H   0  0  0  0  0  0  0  0  0  0  0  0
   35.0520   30.2310   49.5290 C   0  0  0  0  0  0  0  0  0  0  0  0
   35.3680   29.5860   50.7770 C   0  0  0  0  0  0  0  0  0  0  0  0
   36.7590   29.4900   51.1490 C   0  0  0  0  0  0  0  0  0  0  0  0
   37.7220   30.0050   50.3190 N   0  0  0  0  0  0  0  0  0  0  0  0
   37.3460   30.5950   49.1660 C   0  0  0  0  0  0  0  0  0  0  0  0
   36.0270   30.7240   48.7450 N   0  0  0  0  0  0  0  0  0  0  0  0
   34.0010   30.2870   49.2800 H   0  0  0  0  0  0  0  0  0  0  0  0
   34.6170   29.1880   51.4170 H   0  0  0  0  0  0  0  0  0  0  0  0
   36.9990   29.0070   52.0830 H   0  0  0  0  0  0  0  0  0  0  0  0
  1  3  1  0  0  0  0
  2  1  2  0  0  0  0
  3  4  1  0  0  0  0
  3 26  1  0  0  0  0
  5  6  1  0  0  0  0
  5  1  1  0  0  0  0
  6 11  1  0  0  0  0
  7 12  1  0  0  0  0
  7  6  2  0  0  0  0
  8  7  1  0  0  0  0
  9  8  2  0  0  0  0
  9 10  1  0  0  0  0
 10  5  2  0  0  0  0
 13  8  1  0  0  0  0
 14  9  1  0  0  0  0
 15 14  2  0  0  0  0
 16 14  1  0  0  0  0
 17 18  1  0  0  0  0
 17 16  2  0  0  0  0
 19 21  2  0  0  0  0
 19 17  1  0  0  0  0
 20 19  1  0  0  0  0
 21 23  1  0  0  0  0
 22 21  1  0  0  0  0
 23 16  1  0  0  0  0
 24 27  1  6  0  0  0
 24 35  1  0  0  0  0
 25 24  1  0  0  0  0
 25 29  1  0  0  0  0
 26 30  1  6  0  0  0
 26 25  1  0  0  0  0
 26 24  1  0  0  0  0
 28 25  1  0  0  0  0
 31 32  1  0  0  0  0
 32 33  2  0  0  0  0
 32 38  1  0  0  0  0
 33 39  1  0  0  0  0
 34 33  1  0  0  0  0
 35 34  2  0  0  0  0
 36 35  1  0  0  0  0
 36 31  2  0  0  0  0
 37 31  1  0  0  0  0
M  END
>  <minimizedAffinity>
-4.95218706

>  <minimizedRMSD>
0.696499288

$$$$
