
 OpenBabel03272508573D

 39 42  0  0  1  0  0  0  0  0999 V2000
   38.3410   31.8900   44.5880 C   0  0  0  0  0  0  0  0  0  0  0  0
   37.1840   32.3570   44.4720 O   0  0  0  0  0  0  0  0  0  0  0  0
   38.9400   31.7350   45.8890 N   0  0  0  0  0  0  0  0  0  0  0  0
   39.9560   31.5670   46.0320 H   0  0  0  0  0  0  0  0  0  0  0  0
   39.1320   31.4850   43.4040 C   0  0  0  0  0  0  0  0  0  0  0  0
   40.1200   30.5540   43.5570 C   0  0  0  0  0  0  0  0  0  0  0  0
   40.8370   30.2030   42.4240 C   0  0  0  0  0  0  0  0  0  0  0  0
   40.5220   30.7960   41.2370 C   0  0  0  0  0  0  0  0  0  0  0  0
   39.5250   31.7370   41.0730 C   0  0  0  0  0  0  0  0  0  0  0  0
   38.8590   32.0440   42.2010 N   0  0  0  0  0  0  0  0  0  0  0  0
   40.3770   30.0790   44.4870 H   0  0  0  0  0  0  0  0  0  0  0  0
   41.6200   29.4730   42.5120 H   0  0  0  0  0  0  0  0  0  0  0  0
   41.1110   30.4900   40.3740 H   0  0  0  0  0  0  0  0  0  0  0  0
   39.2230   32.3480   39.7840 C   0  0  0  0  0  0  0  0  0  0  0  0
   38.6110   33.4420   39.7670 O   0  0  0  0  0  0  0  0  0  0  0  0
   39.6230   31.6990   38.5380 C   0  0  0  0  0  0  0  0  0  0  0  0
   40.6790   32.1050   37.7480 C   0  0  0  0  0  0  0  0  0  0  0  0
   41.3800   32.9210   37.8700 H   0  0  0  0  0  0  0  0  0  0  0  0
   40.7340   31.2470   36.6690 C   0  0  0  0  0  0  0  0  0  0  0  0
   41.3850   31.1800   35.8070 H   0  0  0  0  0  0  0  0  0  0  0  0
   39.6830   30.3450   36.8640 C   0  0  0  0  0  0  0  0  0  0  0  0
   39.3350   29.4870   36.2700 H   0  0  0  0  0  0  0  0  0  0  0  0
   39.0590   30.6600   37.9880 O   0  0  0  0  0  0  0  0  0  0  0  0
   38.4430   31.1620   48.2550 C   0  0  2  0  0  0  0  0  0  0  0  0
   38.7030   32.6250   48.2100 C   0  0  0  0  0  0  0  0  0  0  0  0
   38.0780   31.8180   47.0420 C   0  0  1  0  0  0  0  0  0  0  0  0
   39.3630   30.5390   48.3170 H   0  0  0  0  0  0  0  0  0  0  0  0
   39.7330   32.9700   48.0980 H   0  0  0  0  0  0  0  0  0  0  0  0
   38.0260   33.2690   48.7830 H   0  0  0  0  0  0  0  0  0  0  0  0
   37.0070   32.0770   46.8590 H   0  0  0  0  0  0  0  0  0  0  0  0
   35.0690   30.2430   49.5260 C   0  0  0  0  0  0  0  0  0  0  0  0
   35.3920   29.5840   50.7630 C   0  0  0  0  0  0  0  0  0  0  0  0
   36.7860   29.4840   51.1280 C   0  0  0  0  0  0  0  0  0  0  0  0
   37.7430   30.0100   50.3000 N   0  0  0  0  0  0  0  0  0  0  0  0
   37.3620   30.6150   49.1550 C   0  0  0  0  0  0  0  0  0  0  0  0
   36.0400   30.7480   48.7430 N   0  0  0  0  0  0  0  0  0  0  0  0
   34.0180   30.3010   49.2830 H   0  0  0  0  0  0  0  0  0  0  0  0
   34.6450   29.1770   51.4020 H   0  0  0  0  0  0  0  0  0  0  0  0
   37.0300   28.9900   52.0540 H   0  0  0  0  0  0  0  0  0  0  0  0
  1  3  1  0  0  0  0
  2  1  2  0  0  0  0
  3  4  1  0  0  0  0
  3 26  1  0  0  0  0
  5  6  1  0  0  0  0
  5  1  1  0  0  0  0
  6 11  1  0  0  0  0
  7 12  1  0  0  0  0
  7  6  2  0  0  0  0
  8  7  1  0  0  0  0
  9  8  2  0  0  0  0
  9 10  1  0  0  0  0
 10  5  2  0  0  0  0
 13  8  1  0  0  0  0
 14  9  1  0  0  0  0
 15 14  2  0  0  0  0
 16 14  1  0  0  0  0
 17 18  1  0  0  0  0
 17 16  2  0  0  0  0
 19 21  2  0  0  0  0
 19 17  1  0  0  0  0
 20 19  1  0  0  0  0
 21 23  1  0  0  0  0
 22 21  1  0  0  0  0
 23 16  1  0  0  0  0
 24 27  1  6  0  0  0
 24 35  1  0  0  0  0
 25 24  1  0  0  0  0
 25 29  1  0  0  0  0
 26 30  1  6  0  0  0
 26 25  1  0  0  0  0
 26 24  1  0  0  0  0
 28 25  1  0  0  0  0
 31 32  1  0  0  0  0
 32 33  2  0  0  0  0
 32 38  1  0  0  0  0
 33 39  1  0  0  0  0
 34 33  1  0  0  0  0
 35 34  2  0  0  0  0
 36 35  1  0  0  0  0
 36 31  2  0  0  0  0
 37 31  1  0  0  0  0
M  END
>  <minimizedAffinity>
-4.94270039

>  <minimizedRMSD>
0.475241721

$$$$
