
 OpenBabel03272508573D

 39 42  0  0  1  0  0  0  0  0999 V2000
   38.3410   31.8890   44.5870 C   0  0  0  0  0  0  0  0  0  0  0  0
   37.1820   32.3530   44.4710 O   0  0  0  0  0  0  0  0  0  0  0  0
   38.9400   31.7380   45.8880 N   0  0  0  0  0  0  0  0  0  0  0  0
   39.9570   31.5720   46.0310 H   0  0  0  0  0  0  0  0  0  0  0  0
   39.1310   31.4840   43.4030 C   0  0  0  0  0  0  0  0  0  0  0  0
   40.1190   30.5540   43.5570 C   0  0  0  0  0  0  0  0  0  0  0  0
   40.8370   30.2030   42.4230 C   0  0  0  0  0  0  0  0  0  0  0  0
   40.5230   30.7960   41.2370 C   0  0  0  0  0  0  0  0  0  0  0  0
   39.5260   31.7370   41.0720 C   0  0  0  0  0  0  0  0  0  0  0  0
   38.8590   32.0440   42.2000 N   0  0  0  0  0  0  0  0  0  0  0  0
   40.3760   30.0780   44.4860 H   0  0  0  0  0  0  0  0  0  0  0  0
   41.6200   29.4730   42.5120 H   0  0  0  0  0  0  0  0  0  0  0  0
   41.1110   30.4900   40.3740 H   0  0  0  0  0  0  0  0  0  0  0  0
   39.2240   32.3480   39.7830 C   0  0  0  0  0  0  0  0  0  0  0  0
   38.6120   33.4420   39.7670 O   0  0  0  0  0  0  0  0  0  0  0  0
   39.6240   31.6990   38.5370 C   0  0  0  0  0  0  0  0  0  0  0  0
   40.6800   32.1060   37.7470 C   0  0  0  0  0  0  0  0  0  0  0  0
   41.3800   32.9210   37.8690 H   0  0  0  0  0  0  0  0  0  0  0  0
   40.7350   31.2470   36.6680 C   0  0  0  0  0  0  0  0  0  0  0  0
   41.3850   31.1800   35.8050 H   0  0  0  0  0  0  0  0  0  0  0  0
   39.6840   30.3450   36.8630 C   0  0  0  0  0  0  0  0  0  0  0  0
   39.3360   29.4870   36.2680 H   0  0  0  0  0  0  0  0  0  0  0  0
   39.0600   30.6600   37.9860 O   0  0  0  0  0  0  0  0  0  0  0  0
   38.4440   31.1620   48.2530 C   0  0  2  0  0  0  0  0  0  0  0  0
   38.7040   32.6260   48.2090 C   0  0  0  0  0  0  0  0  0  0  0  0
   38.0790   31.8200   47.0410 C   0  0  1  0  0  0  0  0  0  0  0  0
   39.3630   30.5390   48.3150 H   0  0  0  0  0  0  0  0  0  0  0  0
   39.7340   32.9700   48.0980 H   0  0  0  0  0  0  0  0  0  0  0  0
   38.0270   33.2690   48.7830 H   0  0  0  0  0  0  0  0  0  0  0  0
   37.0070   32.0790   46.8590 H   0  0  0  0  0  0  0  0  0  0  0  0
   35.0700   30.2440   49.5250 C   0  0  0  0  0  0  0  0  0  0  0  0
   35.3930   29.5830   50.7620 C   0  0  0  0  0  0  0  0  0  0  0  0
   36.7870   29.4830   51.1250 C   0  0  0  0  0  0  0  0  0  0  0  0
   37.7440   30.0100   50.2980 N   0  0  0  0  0  0  0  0  0  0  0  0
   37.3620   30.6150   49.1540 C   0  0  0  0  0  0  0  0  0  0  0  0
   36.0410   30.7490   48.7420 N   0  0  0  0  0  0  0  0  0  0  0  0
   34.0180   30.3030   49.2820 H   0  0  0  0  0  0  0  0  0  0  0  0
   34.6460   29.1760   51.4010 H   0  0  0  0  0  0  0  0  0  0  0  0
   37.0310   28.9880   52.0510 H   0  0  0  0  0  0  0  0  0  0  0  0
  1  3  1  0  0  0  0
  2  1  2  0  0  0  0
  3  4  1  0  0  0  0
  3 26  1  0  0  0  0
  5  6  1  0  0  0  0
  5  1  1  0  0  0  0
  6 11  1  0  0  0  0
  7 12  1  0  0  0  0
  7  6  2  0  0  0  0
  8  7  1  0  0  0  0
  9  8  2  0  0  0  0
  9 10  1  0  0  0  0
 10  5  2  0  0  0  0
 13  8  1  0  0  0  0
 14  9  1  0  0  0  0
 15 14  2  0  0  0  0
 16 14  1  0  0  0  0
 17 18  1  0  0  0  0
 17 16  2  0  0  0  0
 19 21  2  0  0  0  0
 19 17  1  0  0  0  0
 20 19  1  0  0  0  0
 21 23  1  0  0  0  0
 22 21  1  0  0  0  0
 23 16  1  0  0  0  0
 24 27  1  6  0  0  0
 24 35  1  0  0  0  0
 25 24  1  0  0  0  0
 25 29  1  0  0  0  0
 26 30  1  6  0  0  0
 26 25  1  0  0  0  0
 26 24  1  0  0  0  0
 28 25  1  0  0  0  0
 31 32  1  0  0  0  0
 32 33  2  0  0  0  0
 32 38  1  0  0  0  0
 33 39  1  0  0  0  0
 34 33  1  0  0  0  0
 35 34  2  0  0  0  0
 36 35  1  0  0  0  0
 36 31  2  0  0  0  0
 37 31  1  0  0  0  0
M  END
>  <minimizedAffinity>
-4.94279432

>  <minimizedRMSD>
0.580617487

$$$$
