
 OpenBabel03272508573D

 39 42  0  0  1  0  0  0  0  0999 V2000
   38.4030   31.8650   44.5500 C   0  0  0  0  0  0  0  0  0  0  0  0
   37.2980   32.4430   44.4320 O   0  0  0  0  0  0  0  0  0  0  0  0
   38.9500   31.5930   45.8550 N   0  0  0  0  0  0  0  0  0  0  0  0
   39.9420   31.3240   46.0120 H   0  0  0  0  0  0  0  0  0  0  0  0
   39.1840   31.4450   43.3650 C   0  0  0  0  0  0  0  0  0  0  0  0
   40.1620   30.5030   43.5190 C   0  0  0  0  0  0  0  0  0  0  0  0
   40.8700   30.1380   42.3850 C   0  0  0  0  0  0  0  0  0  0  0  0
   40.5580   30.7280   41.1960 C   0  0  0  0  0  0  0  0  0  0  0  0
   39.5720   31.6800   41.0310 C   0  0  0  0  0  0  0  0  0  0  0  0
   38.9130   32.0010   42.1600 N   0  0  0  0  0  0  0  0  0  0  0  0
   40.4170   30.0300   44.4500 H   0  0  0  0  0  0  0  0  0  0  0  0
   41.6460   29.3990   42.4740 H   0  0  0  0  0  0  0  0  0  0  0  0
   41.1400   30.4110   40.3330 H   0  0  0  0  0  0  0  0  0  0  0  0
   39.2710   32.2880   39.7400 C   0  0  0  0  0  0  0  0  0  0  0  0
   38.5350   33.3020   39.7110 O   0  0  0  0  0  0  0  0  0  0  0  0
   39.8150   31.7270   38.5060 C   0  0  0  0  0  0  0  0  0  0  0  0
   39.1950   30.7540   37.7480 C   0  0  0  0  0  0  0  0  0  0  0  0
   38.2530   30.2420   37.8910 H   0  0  0  0  0  0  0  0  0  0  0  0
   40.0180   30.4930   36.6710 C   0  0  0  0  0  0  0  0  0  0  0  0
   39.9450   29.8170   35.8290 H   0  0  0  0  0  0  0  0  0  0  0  0
   41.1200   31.3390   36.8360 C   0  0  0  0  0  0  0  0  0  0  0  0
   42.0270   31.4840   36.2320 H   0  0  0  0  0  0  0  0  0  0  0  0
   40.9460   32.0470   37.9400 O   0  0  0  0  0  0  0  0  0  0  0  0
   38.4300   31.1010   48.2330 C   0  0  2  0  0  0  0  0  0  0  0  0
   38.6580   32.5670   48.1350 C   0  0  0  0  0  0  0  0  0  0  0  0
   38.0690   31.7010   46.9910 C   0  0  1  0  0  0  0  0  0  0  0  0
   39.3620   30.5020   48.3340 H   0  0  0  0  0  0  0  0  0  0  0  0
   39.6820   32.9310   48.0240 H   0  0  0  0  0  0  0  0  0  0  0  0
   37.9570   33.2170   48.6720 H   0  0  0  0  0  0  0  0  0  0  0  0
   36.9950   31.9270   46.7830 H   0  0  0  0  0  0  0  0  0  0  0  0
   35.0530   30.2250   49.5250 C   0  0  0  0  0  0  0  0  0  0  0  0
   35.3750   29.5540   50.7570 C   0  0  0  0  0  0  0  0  0  0  0  0
   36.7700   29.4320   51.1100 C   0  0  0  0  0  0  0  0  0  0  0  0
   37.7290   29.9490   50.2780 N   0  0  0  0  0  0  0  0  0  0  0  0
   37.3480   30.5650   49.1390 C   0  0  0  0  0  0  0  0  0  0  0  0
   36.0250   30.7190   48.7380 N   0  0  0  0  0  0  0  0  0  0  0  0
   34.0000   30.2990   49.2910 H   0  0  0  0  0  0  0  0  0  0  0  0
   34.6270   29.1540   51.3990 H   0  0  0  0  0  0  0  0  0  0  0  0
   37.0140   28.9290   52.0320 H   0  0  0  0  0  0  0  0  0  0  0  0
  1  3  1  0  0  0  0
  2  1  2  0  0  0  0
  3  4  1  0  0  0  0
  3 26  1  0  0  0  0
  5  6  1  0  0  0  0
  5  1  1  0  0  0  0
  6 11  1  0  0  0  0
  7 12  1  0  0  0  0
  7  6  2  0  0  0  0
  8  7  1  0  0  0  0
  9  8  2  0  0  0  0
  9 10  1  0  0  0  0
 10  5  2  0  0  0  0
 13  8  1  0  0  0  0
 14  9  1  0  0  0  0
 15 14  2  0  0  0  0
 16 14  1  0  0  0  0
 17 18  1  0  0  0  0
 17 16  2  0  0  0  0
 19 21  2  0  0  0  0
 19 17  1  0  0  0  0
 20 19  1  0  0  0  0
 21 23  1  0  0  0  0
 22 21  1  0  0  0  0
 23 16  1  0  0  0  0
 24 27  1  6  0  0  0
 24 35  1  0  0  0  0
 25 24  1  0  0  0  0
 25 29  1  0  0  0  0
 26 30  1  6  0  0  0
 26 25  1  0  0  0  0
 26 24  1  0  0  0  0
 28 25  1  0  0  0  0
 31 32  1  0  0  0  0
 32 33  2  0  0  0  0
 32 38  1  0  0  0  0
 33 39  1  0  0  0  0
 34 33  1  0  0  0  0
 35 34  2  0  0  0  0
 36 35  1  0  0  0  0
 36 31  2  0  0  0  0
 37 31  1  0  0  0  0
M  END
>  <minimizedAffinity>
-4.95234394

>  <minimizedRMSD>
0.701162159

$$$$
