
 OpenBabel03272508573D

 39 42  0  0  1  0  0  0  0  0999 V2000
   38.3380   31.8850   44.5780 C   0  0  0  0  0  0  0  0  0  0  0  0
   37.1760   32.3390   44.4620 O   0  0  0  0  0  0  0  0  0  0  0  0
   38.9420   31.7440   45.8790 N   0  0  0  0  0  0  0  0  0  0  0  0
   39.9600   31.5880   46.0210 H   0  0  0  0  0  0  0  0  0  0  0  0
   39.1300   31.4820   43.3950 C   0  0  0  0  0  0  0  0  0  0  0  0
   40.1190   30.5520   43.5480 C   0  0  0  0  0  0  0  0  0  0  0  0
   40.8370   30.2030   42.4150 C   0  0  0  0  0  0  0  0  0  0  0  0
   40.5240   30.7960   41.2290 C   0  0  0  0  0  0  0  0  0  0  0  0
   39.5270   31.7370   41.0640 C   0  0  0  0  0  0  0  0  0  0  0  0
   38.8590   32.0430   42.1920 N   0  0  0  0  0  0  0  0  0  0  0  0
   40.3750   30.0760   44.4780 H   0  0  0  0  0  0  0  0  0  0  0  0
   41.6210   29.4730   42.5040 H   0  0  0  0  0  0  0  0  0  0  0  0
   41.1140   30.4920   40.3660 H   0  0  0  0  0  0  0  0  0  0  0  0
   39.2250   32.3490   39.7750 C   0  0  0  0  0  0  0  0  0  0  0  0
   38.6120   33.4420   39.7590 O   0  0  0  0  0  0  0  0  0  0  0  0
   39.6280   31.7020   38.5290 C   0  0  0  0  0  0  0  0  0  0  0  0
   40.6850   32.1100   37.7420 C   0  0  0  0  0  0  0  0  0  0  0  0
   41.3860   32.9250   37.8660 H   0  0  0  0  0  0  0  0  0  0  0  0
   40.7420   31.2530   36.6610 C   0  0  0  0  0  0  0  0  0  0  0  0
   41.3940   31.1870   35.8000 H   0  0  0  0  0  0  0  0  0  0  0  0
   39.6910   30.3490   36.8540 C   0  0  0  0  0  0  0  0  0  0  0  0
   39.3440   29.4930   36.2570 H   0  0  0  0  0  0  0  0  0  0  0  0
   39.0650   30.6640   37.9770 O   0  0  0  0  0  0  0  0  0  0  0  0
   38.4480   31.1650   48.2430 C   0  0  2  0  0  0  0  0  0  0  0  0
   38.7080   32.6280   48.2020 C   0  0  0  0  0  0  0  0  0  0  0  0
   38.0810   31.8240   47.0330 C   0  0  1  0  0  0  0  0  0  0  0  0
   39.3670   30.5420   48.3030 H   0  0  0  0  0  0  0  0  0  0  0  0
   39.7380   32.9730   48.0900 H   0  0  0  0  0  0  0  0  0  0  0  0
   38.0310   33.2700   48.7780 H   0  0  0  0  0  0  0  0  0  0  0  0
   37.0100   32.0840   46.8530 H   0  0  0  0  0  0  0  0  0  0  0  0
   35.0750   30.2510   49.5210 C   0  0  0  0  0  0  0  0  0  0  0  0
   35.4000   29.5810   50.7520 C   0  0  0  0  0  0  0  0  0  0  0  0
   36.7940   29.4730   51.1100 C   0  0  0  0  0  0  0  0  0  0  0  0
   37.7510   30.0010   50.2830 N   0  0  0  0  0  0  0  0  0  0  0  0
   37.3670   30.6160   49.1440 C   0  0  0  0  0  0  0  0  0  0  0  0
   36.0450   30.7570   48.7380 N   0  0  0  0  0  0  0  0  0  0  0  0
   34.0230   30.3150   49.2830 H   0  0  0  0  0  0  0  0  0  0  0  0
   34.6540   29.1720   51.3910 H   0  0  0  0  0  0  0  0  0  0  0  0
   37.0400   28.9710   52.0320 H   0  0  0  0  0  0  0  0  0  0  0  0
  1  3  1  0  0  0  0
  2  1  2  0  0  0  0
  3  4  1  0  0  0  0
  3 26  1  0  0  0  0
  5  6  1  0  0  0  0
  5  1  1  0  0  0  0
  6 11  1  0  0  0  0
  7 12  1  0  0  0  0
  7  6  2  0  0  0  0
  8  7  1  0  0  0  0
  9  8  2  0  0  0  0
  9 10  1  0  0  0  0
 10  5  2  0  0  0  0
 13  8  1  0  0  0  0
 14  9  1  0  0  0  0
 15 14  2  0  0  0  0
 16 14  1  0  0  0  0
 17 18  1  0  0  0  0
 17 16  2  0  0  0  0
 19 21  2  0  0  0  0
 19 17  1  0  0  0  0
 20 19  1  0  0  0  0
 21 23  1  0  0  0  0
 22 21  1  0  0  0  0
 23 16  1  0  0  0  0
 24 27  1  6  0  0  0
 24 35  1  0  0  0  0
 25 24  1  0  0  0  0
 25 29  1  0  0  0  0
 26 30  1  6  0  0  0
 26 25  1  0  0  0  0
 26 24  1  0  0  0  0
 28 25  1  0  0  0  0
 31 32  1  0  0  0  0
 32 33  2  0  0  0  0
 32 38  1  0  0  0  0
 33 39  1  0  0  0  0
 34 33  1  0  0  0  0
 35 34  2  0  0  0  0
 36 35  1  0  0  0  0
 36 31  2  0  0  0  0
 37 31  1  0  0  0  0
M  END
>  <minimizedAffinity>
-4.94506502

>  <minimizedRMSD>
0.637024105

$$$$
