
 OpenBabel03272508573D

 39 42  0  0  1  0  0  0  0  0999 V2000
   38.4360   31.8230   44.5700 C   0  0  0  0  0  0  0  0  0  0  0  0
   37.3440   32.4230   44.4350 O   0  0  0  0  0  0  0  0  0  0  0  0
   38.9580   31.5410   45.8830 N   0  0  0  0  0  0  0  0  0  0  0  0
   39.9420   31.2530   46.0550 H   0  0  0  0  0  0  0  0  0  0  0  0
   39.2250   31.3860   43.3970 C   0  0  0  0  0  0  0  0  0  0  0  0
   40.2110   30.4570   43.5740 C   0  0  0  0  0  0  0  0  0  0  0  0
   40.9280   30.0760   42.4500 C   0  0  0  0  0  0  0  0  0  0  0  0
   40.6150   30.6390   41.2490 C   0  0  0  0  0  0  0  0  0  0  0  0
   39.6200   31.5780   41.0600 C   0  0  0  0  0  0  0  0  0  0  0  0
   38.9540   31.9150   42.1800 N   0  0  0  0  0  0  0  0  0  0  0  0
   40.4670   30.0050   44.5160 H   0  0  0  0  0  0  0  0  0  0  0  0
   41.7100   29.3460   42.5570 H   0  0  0  0  0  0  0  0  0  0  0  0
   41.2030   30.3100   40.3940 H   0  0  0  0  0  0  0  0  0  0  0  0
   39.3200   32.1560   39.7560 C   0  0  0  0  0  0  0  0  0  0  0  0
   38.5160   33.1160   39.6960 O   0  0  0  0  0  0  0  0  0  0  0  0
   39.9390   31.6270   38.5440 C   0  0  0  0  0  0  0  0  0  0  0  0
   39.3880   30.6460   37.7460 C   0  0  0  0  0  0  0  0  0  0  0  0
   38.4570   30.1020   37.8370 H   0  0  0  0  0  0  0  0  0  0  0  0
   40.2700   30.4230   36.7070 C   0  0  0  0  0  0  0  0  0  0  0  0
   40.2590   29.7570   35.8550 H   0  0  0  0  0  0  0  0  0  0  0  0
   41.3340   31.3010   36.9350 C   0  0  0  0  0  0  0  0  0  0  0  0
   42.2640   31.4840   36.3760 H   0  0  0  0  0  0  0  0  0  0  0  0
   41.0850   31.9900   38.0360 O   0  0  0  0  0  0  0  0  0  0  0  0
   38.4140   31.1010   48.2660 C   0  0  2  0  0  0  0  0  0  0  0  0
   38.6300   32.5660   48.1360 C   0  0  0  0  0  0  0  0  0  0  0  0
   38.0630   31.6680   47.0060 C   0  0  1  0  0  0  0  0  0  0  0  0
   39.3500   30.5130   48.3920 H   0  0  0  0  0  0  0  0  0  0  0  0
   39.6520   32.9360   48.0290 H   0  0  0  0  0  0  0  0  0  0  0  0
   37.9180   33.2220   48.6500 H   0  0  0  0  0  0  0  0  0  0  0  0
   36.9890   31.8800   46.7800 H   0  0  0  0  0  0  0  0  0  0  0  0
   35.0290   30.2270   49.5400 C   0  0  0  0  0  0  0  0  0  0  0  0
   35.3430   29.5860   50.7890 C   0  0  0  0  0  0  0  0  0  0  0  0
   36.7340   29.4830   51.1600 C   0  0  0  0  0  0  0  0  0  0  0  0
   37.6980   29.9880   50.3270 N   0  0  0  0  0  0  0  0  0  0  0  0
   37.3250   30.5770   49.1720 C   0  0  0  0  0  0  0  0  0  0  0  0
   36.0070   30.7120   48.7520 N   0  0  0  0  0  0  0  0  0  0  0  0
   33.9790   30.2890   49.2920 H   0  0  0  0  0  0  0  0  0  0  0  0
   34.5900   29.1950   51.4320 H   0  0  0  0  0  0  0  0  0  0  0  0
   36.9720   29.0020   52.0960 H   0  0  0  0  0  0  0  0  0  0  0  0
  1  3  1  0  0  0  0
  2  1  2  0  0  0  0
  3  4  1  0  0  0  0
  3 26  1  0  0  0  0
  5  6  1  0  0  0  0
  5  1  1  0  0  0  0
  6 11  1  0  0  0  0
  7 12  1  0  0  0  0
  7  6  2  0  0  0  0
  8  7  1  0  0  0  0
  9  8  2  0  0  0  0
  9 10  1  0  0  0  0
 10  5  2  0  0  0  0
 13  8  1  0  0  0  0
 14  9  1  0  0  0  0
 15 14  2  0  0  0  0
 16 14  1  0  0  0  0
 17 18  1  0  0  0  0
 17 16  2  0  0  0  0
 19 21  2  0  0  0  0
 19 17  1  0  0  0  0
 20 19  1  0  0  0  0
 21 23  1  0  0  0  0
 22 21  1  0  0  0  0
 23 16  1  0  0  0  0
 24 27  1  6  0  0  0
 24 35  1  0  0  0  0
 25 24  1  0  0  0  0
 25 29  1  0  0  0  0
 26 30  1  6  0  0  0
 26 25  1  0  0  0  0
 26 24  1  0  0  0  0
 28 25  1  0  0  0  0
 31 32  1  0  0  0  0
 32 33  2  0  0  0  0
 32 38  1  0  0  0  0
 33 39  1  0  0  0  0
 34 33  1  0  0  0  0
 35 34  2  0  0  0  0
 36 35  1  0  0  0  0
 36 31  2  0  0  0  0
 37 31  1  0  0  0  0
M  END
>  <minimizedAffinity>
-4.95502949

>  <minimizedRMSD>
0.673306108

$$$$
