
 OpenBabel03272507303D

 28 30  0  0  0  0  0  0  0  0999 V2000
   35.8990   29.2740   49.4730 C   0  0  0  0  0  0  0  0  0  0  0  0
   34.8860   29.2200   50.3990 C   0  0  0  0  0  0  0  0  0  0  0  0
   33.7250   28.8130   49.7230 C   0  0  0  0  0  0  0  0  0  0  0  0
   34.1400   28.6470   48.3920 C   0  0  0  0  0  0  0  0  0  0  0  0
   35.4000   28.9270   48.3110 O   0  0  0  0  0  0  0  0  0  0  0  0
   34.9200   29.4390   51.4630 H   0  0  0  0  0  0  0  0  0  0  0  0
   32.7380   28.6620   50.1300 H   0  0  0  0  0  0  0  0  0  0  0  0
   37.2460   29.6630   49.8390 C   0  0  0  0  0  0  0  0  0  0  0  0
   37.8150   29.0620   50.7780 O   0  0  0  0  0  0  0  0  0  0  0  0
   37.8550   30.7330   49.0880 C   0  0  0  0  0  0  0  0  0  0  0  0
   38.0460   31.9430   49.7370 C   0  0  0  0  0  0  0  0  0  0  0  0
   38.6260   32.9930   49.0510 C   0  0  0  0  0  0  0  0  0  0  0  0
   38.9870   32.7760   47.7410 N   0  0  0  0  0  0  0  0  0  0  0  0
   38.7940   31.5990   47.1270 C   0  0  0  0  0  0  0  0  0  0  0  0
   38.2310   30.5840   47.7960 N   0  0  0  0  0  0  0  0  0  0  0  0
   37.7450   32.0620   50.7680 H   0  0  0  0  0  0  0  0  0  0  0  0
   38.7850   33.9390   49.5340 H   0  0  0  0  0  0  0  0  0  0  0  0
   39.0970   31.4770   46.0870 H   0  0  0  0  0  0  0  0  0  0  0  0
   33.2440   28.2210   47.3120 C   0  0  0  0  0  0  0  0  0  0  0  0
   33.1170   26.9990   47.0220 O   0  0  0  0  0  0  0  0  0  0  0  0
   32.4940   29.2270   46.5690 C   0  0  0  0  0  0  0  0  0  0  0  0
   33.0030   30.4440   46.1660 C   0  0  0  0  0  0  0  0  0  0  0  0
   33.9820   30.8880   46.2950 H   0  0  0  0  0  0  0  0  0  0  0  0
   31.9770   31.0880   45.4990 C   0  0  0  0  0  0  0  0  0  0  0  0
   31.8960   32.0500   45.0120 H   0  0  0  0  0  0  0  0  0  0  0  0
   30.8860   30.2220   45.5330 C   0  0  0  0  0  0  0  0  0  0  0  0
   29.8580   30.2700   45.1510 H   0  0  0  0  0  0  0  0  0  0  0  0
   31.2480   29.1380   46.1770 O   0  0  0  0  0  0  0  0  0  0  0  0
  1  8  1  0  0  0  0
  1  2  2  0  0  0  0
  2  6  1  0  0  0  0
  3  7  1  0  0  0  0
  3  2  1  0  0  0  0
  4  3  2  0  0  0  0
  5  4  1  0  0  0  0
  5  1  1  0  0  0  0
  8  9  2  0  0  0  0
 10 11  1  0  0  0  0
 10  8  1  0  0  0  0
 11 16  1  0  0  0  0
 12 17  1  0  0  0  0
 12 11  2  0  0  0  0
 13 12  1  0  0  0  0
 14 13  2  0  0  0  0
 14 15  1  0  0  0  0
 15 10  2  0  0  0  0
 18 14  1  0  0  0  0
 19  4  1  0  0  0  0
 20 19  2  0  0  0  0
 21 19  1  0  0  0  0
 22 23  1  0  0  0  0
 22 21  2  0  0  0  0
 24 26  2  0  0  0  0
 24 22  1  0  0  0  0
 25 24  1  0  0  0  0
 26 28  1  0  0  0  0
 27 26  1  0  0  0  0
 28 21  1  0  0  0  0
M  END
>  <minimizedAffinity>
-5.20614815

>  <minimizedRMSD>
2.93523932

$$$$
