
 OpenBabel03272500053D

 34 36  0  0  0  0  0  0  0  0999 V2000
   36.0020   29.2800   49.4070 C   0  0  0  0  0  0  0  0  0  0  0  0
   35.8960   30.3920   48.5300 C   0  0  0  0  0  0  0  0  0  0  0  0
   34.8260   30.4200   47.6450 C   0  0  0  0  0  0  0  0  0  0  0  0
   33.9360   29.3820   47.6630 N   0  0  0  0  0  0  0  0  0  0  0  0
   34.0500   28.3500   48.4860 C   0  0  0  0  0  0  0  0  0  0  0  0
   35.0950   28.2870   49.3790 N   0  0  0  0  0  0  0  0  0  0  0  0
   36.8430   29.2690   50.0960 H   0  0  0  0  0  0  0  0  0  0  0  0
   34.7520   31.2630   46.9880 H   0  0  0  0  0  0  0  0  0  0  0  0
   36.8980   31.3930   48.6140 N   0  0  0  0  0  0  0  0  0  0  0  0
   37.1070   32.1180   49.7070 C   0  0  0  0  0  0  0  0  0  0  0  0
   38.1110   33.0850   49.7180 C   0  0  0  0  0  0  0  0  0  0  0  0
   38.8230   33.2030   48.5450 C   0  0  0  0  0  0  0  0  0  0  0  0
   39.7380   34.0760   48.5400 O   0  0  0  0  0  0  0  0  0  0  0  0
   38.6410   32.4930   47.4300 N   0  0  0  0  0  0  0  0  0  0  0  0
   37.6490   31.5660   47.4810 C   0  0  0  0  0  0  0  0  0  0  0  0
   37.4710   30.8800   46.4120 O   0  0  0  0  0  0  0  0  0  0  0  0
   36.4820   31.9240   50.5510 H   0  0  0  0  0  0  0  0  0  0  0  0
   38.2850   33.6730   50.5950 H   0  0  0  0  0  0  0  0  0  0  0  0
   39.2170   32.6400   46.5910 H   0  0  0  0  0  0  0  0  0  0  0  0
   33.1640   27.2950   48.5150 O   0  0  0  0  0  0  0  0  0  0  0  0
   31.2180   27.4270   46.9870 C   0  0  0  0  0  0  0  0  0  0  0  0
   31.8510   27.4550   48.2080 C   0  0  0  0  0  0  0  0  0  0  0  0
   31.0380   27.6800   49.3230 C   0  0  0  0  0  0  0  0  0  0  0  0
   31.3980   27.7270   50.3590 H   0  0  0  0  0  0  0  0  0  0  0  0
   29.6850   27.8570   49.1380 C   0  0  0  0  0  0  0  0  0  0  0  0
   29.0370   28.0320   49.9780 H   0  0  0  0  0  0  0  0  0  0  0  0
   29.0950   27.8220   47.9050 C   0  0  0  0  0  3  0  0  0  0  0  0
   29.8650   27.6040   46.8110 C   0  0  0  0  0  3  0  0  0  0  0  0
   31.3880   26.7020   44.7400 N   0  0  0  0  0  0  0  0  0  0  0  0
   31.9960   27.1660   45.8090 C   0  0  0  0  0  0  0  0  0  0  0  0
   33.2280   27.1500   45.1280 N   0  0  0  0  0  0  0  0  0  0  0  0
   30.3840   26.5120   44.6910 H   0  0  0  0  0  0  0  0  0  0  0  0
   33.9060   26.3300   45.1050 H   0  0  0  0  0  0  0  0  0  0  0  0
   33.6240   27.9580   44.5590 H   0  0  0  0  0  0  0  0  0  0  0  0
  1  7  1  0  0  0  0
  2  9  1  0  0  0  0
  2  1  2  0  0  0  0
  3  4  2  0  0  0  0
  3  2  1  0  0  0  0
  4  5  1  0  0  0  0
  5 20  1  0  0  0  0
  5  6  2  0  0  0  0
  6  1  1  0  0  0  0
  8  3  1  0  0  0  0
  9 10  1  0  0  0  0
 10 11  2  0  0  0  0
 10 17  1  0  0  0  0
 11 18  1  0  0  0  0
 12 11  1  0  0  0  0
 13 12  2  0  0  0  0
 14 15  1  0  0  0  0
 14 12  1  0  0  0  0
 15  9  1  0  0  0  0
 16 15  2  0  0  0  0
 19 14  1  0  0  0  0
 21 22  1  0  0  0  0
 22 20  1  0  0  0  0
 22 23  2  0  0  0  0
 23 24  1  0  0  0  0
 25 23  1  0  0  0  0
 25 26  1  0  0  0  0
 27 25  2  0  0  0  0
 28 21  2  0  0  0  0
 28 27  1  0  0  0  0
 29 30  2  0  0  0  0
 30 21  1  0  0  0  0
 31 30  1  0  0  0  0
 32 29  1  0  0  0  0
 33 31  1  0  0  0  0
 34 31  1  0  0  0  0
M  END
>  <minimizedAffinity>
-5.55848122

>  <minimizedRMSD>
1.96539211

$$$$
