
 OpenBabel03272507553D

 28 28  0  0  0  0  0  0  0  0999 V2000
   35.4360   29.1860   50.5150 C   0  0  0  0  0  0  0  0  0  0  0  0
   36.2850   30.0000   49.7130 C   0  0  0  0  0  0  0  0  0  0  0  0
   36.2190   29.8710   48.3360 C   0  0  0  0  0  0  0  0  0  0  0  0
   35.3470   28.9730   47.8050 N   0  0  0  0  0  0  0  0  0  0  0  0
   34.5440   28.2050   48.5950 C   0  0  0  0  0  0  0  0  0  0  0  0
   34.5800   28.3020   49.9340 N   0  0  0  0  0  0  0  0  0  0  0  0
   33.6800   27.3500   47.8640 N   0  0  0  0  0  0  0  0  0  0  0  0
   35.4820   29.2840   51.5930 H   0  0  0  0  0  0  0  0  0  0  0  0
   32.6940   27.5860   48.1460 H   0  0  0  0  0  0  0  0  0  0  0  0
   33.8480   26.6170   47.1760 H   0  0  0  0  0  0  0  0  0  0  0  0
   36.8860   31.0280   46.0920 C   0  0  0  0  0  0  0  0  0  0  0  0
   37.0400   30.6180   47.3960 C   0  0  0  0  0  0  0  0  0  0  0  0
   38.1850   31.0780   48.0680 C   0  0  0  0  0  3  0  0  0  0  0  0
   38.5520   30.9490   49.1030 H   0  0  0  0  0  0  0  0  0  0  0  0
   39.1050   31.8940   47.4480 C   0  0  0  0  0  0  0  0  0  0  0  0
   40.0220   32.3130   47.8430 H   0  0  0  0  0  0  0  0  0  0  0  0
   38.9340   32.3020   46.1260 C   0  0  0  0  0  3  0  0  0  0  0  0
   37.7910   31.8410   45.4660 C   0  0  0  0  0  3  0  0  0  0  0  0
   36.2270   29.7030   44.6000 N   0  0  0  0  0  0  0  0  0  0  0  0
   35.6730   30.5050   45.4760 C   0  0  0  0  0  0  0  0  0  0  0  0
   34.2680   30.6680   45.6110 N   0  0  0  0  0  0  0  0  0  0  0  0
   35.5730   29.1730   43.9880 H   0  0  0  0  0  0  0  0  0  0  0  0
   33.7720   30.4790   44.6980 H   0  0  0  0  0  0  0  0  0  0  0  0
   33.8680   30.9420   46.5410 H   0  0  0  0  0  0  0  0  0  0  0  0
   37.2190   30.9300   50.4000 C   0  0  0  0  0  3  0  0  0  0  0  0
   38.5440   30.7010   50.0480 F   0  0  0  0  0  0  0  0  0  0  0  0
   36.9040   32.1980   50.0070 F   0  0  0  0  0  0  0  0  0  0  0  0
   37.1340   30.8590   51.7750 F   0  0  0  0  0  0  0  0  0  0  0  0
  1  8  1  0  0  0  0
  2 25  1  0  0  0  0
  2  1  2  0  0  0  0
  3  2  1  0  0  0  0
  4  3  2  0  0  0  0
  4  5  1  0  0  0  0
  5  6  2  0  0  0  0
  6  1  1  0  0  0  0
  7  9  1  0  0  0  0
  7  5  1  0  0  0  0
 10  7  1  0  0  0  0
 11 12  1  0  0  0  0
 12 13  2  0  0  0  0
 12  3  1  0  0  0  0
 14 26  1  0  0  0  0
 15 16  1  0  0  0  0
 15 13  1  0  0  0  0
 17 15  2  0  0  0  0
 18 11  2  0  0  0  0
 18 17  1  0  0  0  0
 19 20  2  0  0  0  0
 20 21  1  0  0  0  0
 20 11  1  0  0  0  0
 21 24  1  0  0  0  0
 22 19  1  0  0  0  0
 23 21  1  0  0  0  0
 25 28  1  0  0  0  0
 27 25  1  0  0  0  0
M  END
>  <minimizedAffinity>
-5.83022785

>  <minimizedRMSD>
1.10318351

$$$$
