
 OpenBabel03272503303D

 39 41  0  0  1  0  0  0  0  0999 V2000
   33.5750   29.2770   47.4720 C   0  0  0  0  0  0  0  0  0  0  0  0
   33.8030   30.2870   46.5330 C   0  0  0  0  0  0  0  0  0  0  0  0
   32.7370   30.5810   45.6790 C   0  0  0  0  0  0  0  0  0  0  0  0
   31.5740   29.8590   45.8390 N   0  0  0  0  0  0  0  0  0  0  0  0
   31.4030   28.8990   46.7530 C   0  0  0  0  0  0  0  0  0  0  0  0
   32.4230   28.6120   47.5770 N   0  0  0  0  0  0  0  0  0  0  0  0
   34.7280   30.8280   46.4400 H   0  0  0  0  0  0  0  0  0  0  0  0
   32.8090   31.3460   44.9170 H   0  0  0  0  0  0  0  0  0  0  0  0
   34.6800   28.9730   48.3550 N   0  0  0  0  0  0  0  0  0  0  0  0
   36.0010   29.5350   48.3180 C   0  0  0  0  0  0  0  0  0  0  0  0
   36.4430   29.4320   49.7670 C   0  0  2  0  0  0  0  0  0  0  0  0
   35.2470   28.9120   50.5370 C   0  0  0  0  0  0  0  0  0  0  0  0
   34.6520   28.0330   49.4510 C   0  0  0  0  0  0  0  0  0  0  0  0
   35.9610   30.6190   48.0400 H   0  0  0  0  0  0  0  0  0  0  0  0
   36.6790   28.9610   47.6350 H   0  0  0  0  0  0  0  0  0  0  0  0
   37.2630   28.7000   49.8110 H   0  0  0  0  0  0  0  0  0  0  0  0
   35.5290   28.2530   51.3790 H   0  0  0  0  0  0  0  0  0  0  0  0
   34.5340   29.6970   50.8210 H   0  0  0  0  0  0  0  0  0  0  0  0
   33.5950   27.8420   49.7240 H   0  0  0  0  0  0  0  0  0  0  0  0
   35.2410   27.1270   49.2880 H   0  0  0  0  0  0  0  0  0  0  0  0
   36.9400   30.7400   50.3090 C   0  0  0  0  0  0  0  0  0  0  0  0
   35.9990   31.6970   49.9640 F   0  0  0  0  0  0  0  0  0  0  0  0
   38.0930   31.0590   49.6180 F   0  0  0  0  0  0  0  0  0  0  0  0
   37.1840   30.7280   51.6470 F   0  0  0  0  0  0  0  0  0  0  0  0
   29.8740   28.0290   46.8800 S   0  0  0  0  0  0  0  0  0  0  0  0
   28.4350   29.0420   49.0230 C   0  0  0  0  0  0  0  0  0  0  0  0
   28.5960   29.0340   47.6460 C   0  0  0  0  0  0  0  0  0  0  0  0
   27.8070   29.7750   46.7930 C   0  0  0  0  0  0  0  0  0  0  0  0
   27.9130   29.7870   45.7220 H   0  0  0  0  0  0  0  0  0  0  0  0
   26.8210   30.5490   47.4040 C   0  0  0  0  0  0  0  0  0  0  0  0
   26.1690   31.1540   46.7930 H   0  0  0  0  0  0  0  0  0  0  0  0
   26.6290   30.5850   48.7650 C   0  0  0  0  0  0  0  0  0  0  0  0
   27.4460   29.8230   49.5740 C   0  0  0  0  0  0  0  0  0  0  0  0
   30.5450   28.5370   50.1780 N   0  0  0  0  0  0  0  0  0  0  0  0
   29.3510   28.2000   49.7940 C   0  0  0  0  0  0  0  0  0  0  0  0
   28.9670   26.9070   50.1850 N   0  0  0  0  0  0  0  0  0  0  0  0
   30.8970   29.4960   49.9180 H   0  0  0  0  0  0  0  0  0  0  0  0
   28.6270   25.9520   50.3420 H   0  0  0  0  0  0  0  0  0  0  0  0
   29.1750   26.4570   51.1070 H   0  0  0  0  0  0  0  0  0  0  0  0
  1  6  1  0  0  0  0
  1  9  1  0  0  0  0
  2  1  2  0  0  0  0
  3  4  2  0  0  0  0
  3  2  1  0  0  0  0
  4  5  1  0  0  0  0
  5 25  1  0  0  0  0
  5  6  2  0  0  0  0
  7  2  1  0  0  0  0
  8  3  1  0  0  0  0
  9 13  1  0  0  0  0
 10  9  1  0  0  0  0
 10 11  1  0  0  0  0
 11 16  1  1  0  0  0
 11 21  1  0  0  0  0
 11 12  1  0  0  0  0
 12 18  1  0  0  0  0
 12 17  1  0  0  0  0
 13 19  1  0  0  0  0
 13 12  1  0  0  0  0
 14 10  1  0  0  0  0
 15 10  1  0  0  0  0
 20 13  1  0  0  0  0
 21 24  1  0  0  0  0
 22 21  1  0  0  0  0
 23 21  1  0  0  0  0
 25 27  1  0  0  0  0
 26 33  1  0  0  0  0
 26 35  1  0  0  0  0
 27 26  2  0  0  0  0
 28 30  2  0  0  0  0
 28 27  1  0  0  0  0
 29 28  1  0  0  0  0
 30 32  1  0  0  0  0
 31 30  1  0  0  0  0
 32 33  2  0  0  0  0
 35 34  2  0  0  0  0
 35 36  1  0  0  0  0
 36 38  1  0  0  0  0
 36 39  1  0  0  0  0
 37 34  1  0  0  0  0
M  END
>  <minimizedAffinity>
-6.86819458

>  <minimizedRMSD>
4.59565783

$$$$
