
 OpenBabel03272508273D

 43 46  0  0  1  0  0  0  0  0999 V2000
   34.0250   29.0190   47.3330 C   0  0  2  0  0  0  0  0  0  0  0  0
   34.7530   28.2580   48.4350 C   0  0  2  0  0  0  0  0  0  0  0  0
   33.8370   28.1260   49.4450 O   0  0  0  0  0  0  0  0  0  0  0  0
   32.5600   28.2060   48.9600 C   0  0  0  0  0  0  0  0  0  0  0  0
   32.6470   28.3590   47.4520 C   0  0  1  0  0  0  0  0  0  0  0  0
   33.9110   30.0830   47.5620 H   0  0  0  0  0  0  0  0  0  0  0  0
   35.0280   27.2790   47.9960 H   0  0  0  0  0  0  0  0  0  0  0  0
   32.0120   27.2500   49.1200 H   0  0  0  0  0  0  0  0  0  0  0  0
   32.0670   29.0910   49.3760 H   0  0  0  0  0  0  0  0  0  0  0  0
   32.7650   27.3810   46.9530 H   0  0  0  0  0  0  0  0  0  0  0  0
   35.8260   30.5210   49.0930 C   0  0  1  0  0  0  0  0  0  0  0  0
   35.9180   29.1000   48.8530 C   0  0  1  0  0  0  0  0  0  0  0  0
   36.0930   29.5630   50.2620 C   0  0  0  0  0  0  0  0  0  0  0  0
   34.9320   31.1250   49.3080 H   0  0  0  0  0  0  0  0  0  0  0  0
   36.8640   28.7610   48.3360 H   0  0  0  0  0  0  0  0  0  0  0  0
   37.1020   29.5240   50.7060 H   0  0  0  0  0  0  0  0  0  0  0  0
   35.3000   29.3730   50.9980 H   0  0  0  0  0  0  0  0  0  0  0  0
   37.0170   31.4310   48.8340 C   0  0  0  0  0  0  0  0  0  0  0  0
   37.1930   32.5140   49.7190 C   0  0  0  0  0  0  0  0  0  0  0  0
   38.2800   33.3290   49.4200 C   0  0  0  0  0  0  0  0  0  0  0  0
   39.0890   33.0720   48.3470 N   0  0  0  0  0  0  0  0  0  0  0  0
   38.8700   32.0240   47.5390 C   0  0  0  0  0  0  0  0  0  0  0  0
   37.8270   31.1810   47.7680 N   0  0  0  0  0  0  0  0  0  0  0  0
   36.5270   32.6580   50.5370 H   0  0  0  0  0  0  0  0  0  0  0  0
   38.4040   34.1560   50.1060 H   0  0  0  0  0  0  0  0  0  0  0  0
   39.5440   31.8710   46.7070 H   0  0  0  0  0  0  0  0  0  0  0  0
   34.5620   28.8150   46.0780 O   0  0  0  0  0  0  0  0  0  0  0  0
   35.1560   28.0280   46.0380 H   0  0  0  0  0  0  0  0  0  0  0  0
   31.6600   29.1310   46.9270 O   0  0  0  0  0  0  0  0  0  0  0  0
   31.0740   29.5030   44.7860 C   0  0  0  0  0  0  0  0  0  0  0  0
   30.8500   28.6860   45.9030 C   0  0  0  0  0  0  0  0  0  0  0  0
   29.9310   27.6700   45.7660 C   0  0  0  0  0  0  0  0  0  0  0  0
   29.8420   27.1100   46.6830 H   0  0  0  0  0  0  0  0  0  0  0  0
   29.2640   27.4730   44.5790 C   0  0  0  0  0  0  0  0  0  0  0  0
   28.5660   26.6490   44.5780 H   0  0  0  0  0  0  0  0  0  0  0  0
   29.4720   28.2660   43.4700 C   0  0  0  0  0  3  0  0  0  0  0  0
   30.3880   29.2900   43.5840 C   0  0  0  0  0  3  0  0  0  0  0  0
   32.8010   30.9390   43.6890 N   0  0  0  0  0  0  0  0  0  0  0  0
   32.0010   30.6480   44.6770 C   0  0  0  0  0  0  0  0  0  0  0  0
   32.1760   31.6490   45.6620 N   0  0  0  0  0  0  0  0  0  0  0  0
   32.8070   30.2910   42.8500 H   0  0  0  0  0  0  0  0  0  0  0  0
   32.8920   31.5360   46.4330 H   0  0  0  0  0  0  0  0  0  0  0  0
   31.7540   32.5700   45.8700 H   0  0  0  0  0  0  0  0  0  0  0  0
  1  5  1  0  0  0  0
  1  6  1  1  0  0  0
  1  2  1  0  0  0  0
  2  7  1  6  0  0  0
  2 12  1  0  0  0  0
  2  3  1  0  0  0  0
  4  8  1  0  0  0  0
  4  9  1  0  0  0  0
  4  3  1  0  0  0  0
  5 10  1  6  0  0  0
  5  4  1  0  0  0  0
 11 14  1  6  0  0  0
 11 13  1  0  0  0  0
 12 15  1  6  0  0  0
 12 11  1  0  0  0  0
 12 13  1  0  0  0  0
 13 16  1  0  0  0  0
 13 17  1  0  0  0  0
 18 11  1  0  0  0  0
 18 19  1  0  0  0  0
 19 24  1  0  0  0  0
 20 19  2  0  0  0  0
 20 25  1  0  0  0  0
 21 20  1  0  0  0  0
 22 23  1  0  0  0  0
 22 21  2  0  0  0  0
 23 18  2  0  0  0  0
 26 22  1  0  0  0  0
 27  1  1  0  0  0  0
 28 27  1  0  0  0  0
 29  5  1  0  0  0  0
 30 31  1  0  0  0  0
 31 29  1  0  0  0  0
 32 31  2  0  0  0  0
 32 33  1  0  0  0  0
 34 32  1  0  0  0  0
 35 34  1  0  0  0  0
 36 37  1  0  0  0  0
 36 34  2  0  0  0  0
 37 30  2  0  0  0  0
 38 39  2  0  0  0  0
 39 30  1  0  0  0  0
 39 40  1  0  0  0  0
 40 43  1  0  0  0  0
 40 42  1  0  0  0  0
 41 38  1  0  0  0  0
M  END
>  <minimizedAffinity>
-5.05351257

>  <minimizedRMSD>
0.409585297

$$$$
