
 OpenBabel03272504573D

 38 40  0  0  1  0  0  0  0  0999 V2000
   34.2680   27.7460   48.7150 O   0  0  0  0  0  0  0  0  0  0  0  0
   36.1480   29.0810   49.4340 C   0  0  1  0  0  0  0  0  0  0  0  0
   35.1370   29.2360   50.4510 C   0  0  0  0  0  0  0  0  0  0  0  0
   34.7460   29.0280   49.0230 C   0  0  2  0  0  0  0  0  0  0  0  0
   36.7150   28.0960   49.2810 H   0  0  0  0  0  0  0  0  0  0  0  0
   35.3500   28.5340   51.2320 H   0  0  0  0  0  0  0  0  0  0  0  0
   34.9820   30.2590   50.8500 H   0  0  0  0  0  0  0  0  0  0  0  0
   34.0980   29.8150   48.6930 H   0  0  0  0  0  0  0  0  0  0  0  0
   36.9550   30.2560   48.9670 C   0  0  0  0  0  0  0  0  0  0  0  0
   37.6780   30.9480   49.9710 C   0  0  0  0  0  0  0  0  0  0  0  0
   38.4040   32.0180   49.5200 C   0  0  0  0  0  0  0  0  0  0  0  0
   38.3960   32.3470   48.1860 N   0  0  0  0  0  0  0  0  0  0  0  0
   37.6930   31.6570   47.2710 C   0  0  0  0  0  0  0  0  0  0  0  0
   36.9530   30.5810   47.6850 N   0  0  0  0  0  0  0  0  0  0  0  0
   37.6730   31.9940   45.9050 N   0  0  0  0  0  0  0  0  0  0  0  0
   37.6830   30.6890   51.0200 H   0  0  0  0  0  0  0  0  0  0  0  0
   38.9780   32.5850   50.2440 H   0  0  0  0  0  0  0  0  0  0  0  0
   38.0590   31.5360   45.0540 H   0  0  0  0  0  0  0  0  0  0  0  0
   37.1330   32.8960   45.9380 H   0  0  0  0  0  0  0  0  0  0  0  0
   32.1330   26.4050   48.1700 O   0  0  0  0  0  0  0  0  0  0  0  0
   32.6440   27.7970   48.3460 P   0  0  1  0  0  0  0  0  0  0  0  0
   31.7680   28.4430   49.6860 O   0  0  0  0  0  0  0  0  0  0  0  0
   31.6360   27.7130   50.3550 H   0  0  0  0  0  0  0  0  0  0  0  0
   32.4280   28.7740   46.9860 O   0  0  0  0  0  0  0  0  0  0  0  0
   31.0980   30.1590   45.6680 C   0  0  0  0  0  0  0  0  0  0  0  0
   31.1870   28.9720   46.3940 C   0  0  0  0  0  0  0  0  0  0  0  0
   30.1010   28.1220   46.4720 C   0  0  0  0  0  0  0  0  0  0  0  0
   30.2480   27.2260   47.0510 H   0  0  0  0  0  0  0  0  0  0  0  0
   28.9200   28.4450   45.8310 C   0  0  0  0  0  0  0  0  0  0  0  0
   28.0790   27.7530   45.9120 H   0  0  0  0  0  0  0  0  0  0  0  0
   28.8460   29.6280   45.1120 C   0  0  0  0  0  3  0  0  0  0  0  0
   29.9150   30.4730   45.0300 C   0  0  0  0  0  3  0  0  0  0  0  0
   32.1940   32.3740   45.7630 N   0  0  0  0  0  0  0  0  0  0  0  0
   32.1980   31.1030   45.5390 C   0  0  0  0  0  0  0  0  0  0  0  0
   33.4310   30.5930   45.1180 N   0  0  0  0  0  0  0  0  0  0  0  0
   31.3490   32.9080   46.0830 H   0  0  0  0  0  0  0  0  0  0  0  0
   34.3490   30.2180   44.8150 H   0  0  0  0  0  0  0  0  0  0  0  0
   33.3250   30.2560   44.1490 H   0  0  0  0  0  0  0  0  0  0  0  0
  1  4  1  0  0  0  0
  2  5  1  1  0  0  0
  2  3  1  0  0  0  0
  3  7  1  0  0  0  0
  3  6  1  0  0  0  0
  4  8  1  6  0  0  0
  4  2  1  0  0  0  0
  4  3  1  0  0  0  0
  9  2  1  0  0  0  0
  9 10  1  0  0  0  0
 10 16  1  0  0  0  0
 11 10  2  0  0  0  0
 11 17  1  0  0  0  0
 12 11  1  0  0  0  0
 13 14  1  0  0  0  0
 13 12  2  0  0  0  0
 14  9  2  0  0  0  0
 15 19  1  0  0  0  0
 15 13  1  0  0  0  0
 18 15  1  0  0  0  0
 21 20  2  6  0  0  0
 21  1  1  0  0  0  0
 21 22  1  0  0  0  0
 22 23  1  0  0  0  0
 24 21  1  0  0  0  0
 25 26  1  0  0  0  0
 26 27  2  0  0  0  0
 26 24  1  0  0  0  0
 27 28  1  0  0  0  0
 29 30  1  0  0  0  0
 29 27  1  0  0  0  0
 31 29  2  0  0  0  0
 32 31  1  0  0  0  0
 32 25  2  0  0  0  0
 33 36  1  0  0  0  0
 34 25  1  0  0  0  0
 34 33  2  0  0  0  0
 35 34  1  0  0  0  0
 37 35  1  0  0  0  0
 38 35  1  0  0  0  0
M  END
>  <minimizedAffinity>
-5.65849924

>  <minimizedRMSD>
2.95265627

$$$$
