
 OpenBabel03272507553D

 28 29  0  0  0  0  0  0  0  0999 V2000
   35.2900   28.7930   49.6790 C   0  0  0  0  0  0  0  0  0  0  0  0
   36.4050   29.6760   49.6190 C   0  0  0  0  0  0  0  0  0  0  0  0
   36.4030   30.6830   48.6690 C   0  0  0  0  0  0  0  0  0  0  0  0
   35.3360   30.7880   47.8320 N   0  0  0  0  0  0  0  0  0  0  0  0
   34.2800   29.9310   47.9100 C   0  0  0  0  0  0  0  0  0  0  0  0
   34.2470   28.9420   48.8180 N   0  0  0  0  0  0  0  0  0  0  0  0
   33.2500   30.2130   46.9770 N   0  0  0  0  0  0  0  0  0  0  0  0
   35.2860   28.0050   50.4220 H   0  0  0  0  0  0  0  0  0  0  0  0
   32.3670   30.3780   47.5270 H   0  0  0  0  0  0  0  0  0  0  0  0
   33.2310   30.2770   45.9600 H   0  0  0  0  0  0  0  0  0  0  0  0
   38.3750   31.8970   47.4640 C   0  0  0  0  0  0  0  0  0  0  0  0
   37.4810   31.6400   48.4770 C   0  0  0  0  0  0  0  0  0  0  0  0
   37.4850   32.5330   49.5610 C   0  0  0  0  0  0  0  0  0  0  0  0
   36.8740   32.6040   50.4800 H   0  0  0  0  0  0  0  0  0  0  0  0
   38.3450   33.6080   49.6070 C   0  0  0  0  0  0  0  0  0  0  0  0
   38.4550   34.3640   50.3750 H   0  0  0  0  0  0  0  0  0  0  0  0
   39.2450   33.8560   48.5710 C   0  0  0  0  0  0  0  0  0  0  0  0
   39.2320   32.9630   47.4950 C   0  0  0  0  0  0  0  0  0  0  0  0
   39.5510   30.5380   46.3760 N   0  0  0  0  0  0  0  0  0  0  0  0
   38.2980   30.9230   46.3840 C   0  0  0  0  0  0  0  0  0  0  0  0
   37.3150   30.4090   45.4950 N   0  0  0  0  0  0  0  0  0  0  0  0
   39.8030   29.8150   45.6710 H   0  0  0  0  0  0  0  0  0  0  0  0
   37.7510   30.0830   44.5900 H   0  0  0  0  0  0  0  0  0  0  0  0
   36.3090   30.3950   45.7940 H   0  0  0  0  0  0  0  0  0  0  0  0
   37.5290   29.4520   50.5670 C   0  0  0  0  0  0  0  0  0  0  0  0
   38.7490   29.8610   50.0420 F   0  0  0  0  0  0  0  0  0  0  0  0
   37.2880   30.2060   51.6780 F   0  0  0  0  0  0  0  0  0  0  0  0
   37.6570   28.1330   50.9460 F   0  0  0  0  0  0  0  0  0  0  0  0
  1  8  1  0  0  0  0
  2  1  1  0  0  0  0
  2 25  1  0  0  0  0
  3  2  2  0  0  0  0
  4  5  2  0  0  0  0
  4  3  1  0  0  0  0
  5  6  1  0  0  0  0
  6  1  2  0  0  0  0
  7  9  1  0  0  0  0
  7  5  1  0  0  0  0
 10  7  1  0  0  0  0
 11 18  2  0  0  0  0
 11 12  1  0  0  0  0
 12  3  1  0  0  0  0
 12 13  2  0  0  0  0
 13 15  1  0  0  0  0
 13 14  1  0  0  0  0
 15 16  1  0  0  0  0
 17 15  2  0  0  0  0
 18 17  1  0  0  0  0
 19 20  2  0  0  0  0
 20 11  1  0  0  0  0
 21 24  1  0  0  0  0
 21 20  1  0  0  0  0
 22 19  1  0  0  0  0
 23 21  1  0  0  0  0
 25 28  1  0  0  0  0
 25 27  1  0  0  0  0
 26 25  1  0  0  0  0
M  END
>  <minimizedAffinity>
-6.3146553

>  <minimizedRMSD>
1.92271996

$$$$
