
 OpenBabel03272500043D

 34 36  0  0  0  0  0  0  0  0999 V2000
   36.1260   29.2370   49.2970 C   0  0  0  0  0  0  0  0  0  0  0  0
   35.9570   30.3990   48.4960 C   0  0  0  0  0  0  0  0  0  0  0  0
   34.8430   30.4610   47.6700 C   0  0  0  0  0  0  0  0  0  0  0  0
   33.9700   29.4070   47.6690 N   0  0  0  0  0  0  0  0  0  0  0  0
   34.1430   28.3300   48.4210 C   0  0  0  0  0  0  0  0  0  0  0  0
   35.2340   28.2320   49.2540 N   0  0  0  0  0  0  0  0  0  0  0  0
   37.0020   29.2000   49.9400 H   0  0  0  0  0  0  0  0  0  0  0  0
   34.7220   31.3400   47.0700 H   0  0  0  0  0  0  0  0  0  0  0  0
   36.9470   31.4110   48.5910 N   0  0  0  0  0  0  0  0  0  0  0  0
   37.1310   32.1440   49.6820 C   0  0  0  0  0  0  0  0  0  0  0  0
   38.1240   33.1220   49.7040 C   0  0  0  0  0  0  0  0  0  0  0  0
   38.8530   33.2410   48.5410 C   0  0  0  0  0  0  0  0  0  0  0  0
   39.7590   34.1250   48.5460 O   0  0  0  0  0  0  0  0  0  0  0  0
   38.6970   32.5240   47.4280 N   0  0  0  0  0  0  0  0  0  0  0  0
   37.7140   31.5860   47.4680 C   0  0  0  0  0  0  0  0  0  0  0  0
   37.5600   30.8930   46.4000 O   0  0  0  0  0  0  0  0  0  0  0  0
   36.4950   31.9480   50.5170 H   0  0  0  0  0  0  0  0  0  0  0  0
   38.2780   33.7160   50.5810 H   0  0  0  0  0  0  0  0  0  0  0  0
   39.2840   32.6730   46.5970 H   0  0  0  0  0  0  0  0  0  0  0  0
   33.2760   27.2580   48.4300 O   0  0  0  0  0  0  0  0  0  0  0  0
   31.3250   27.2950   46.9030 C   0  0  0  0  0  0  0  0  0  0  0  0
   31.9620   27.3990   48.1160 C   0  0  0  0  0  0  0  0  0  0  0  0
   31.1530   27.6980   49.2180 C   0  0  0  0  0  0  0  0  0  0  0  0
   31.5170   27.8120   50.2470 H   0  0  0  0  0  0  0  0  0  0  0  0
   29.8000   27.8650   49.0250 C   0  0  0  0  0  0  0  0  0  0  0  0
   29.1540   28.0950   49.8530 H   0  0  0  0  0  0  0  0  0  0  0  0
   29.2060   27.7530   47.7990 C   0  0  0  0  0  3  0  0  0  0  0  0
   29.9720   27.4630   46.7180 C   0  0  0  0  0  3  0  0  0  0  0  0
   31.4710   26.6410   44.6320 N   0  0  0  0  0  0  0  0  0  0  0  0
   32.0990   26.9570   45.7420 C   0  0  0  0  0  0  0  0  0  0  0  0
   33.3410   26.7680   45.1040 N   0  0  0  0  0  0  0  0  0  0  0  0
   30.4520   26.6180   44.5390 H   0  0  0  0  0  0  0  0  0  0  0  0
   33.8780   25.8500   45.0670 H   0  0  0  0  0  0  0  0  0  0  0  0
   33.8850   27.5230   44.5870 H   0  0  0  0  0  0  0  0  0  0  0  0
  1  7  1  0  0  0  0
  2  9  1  0  0  0  0
  2  1  2  0  0  0  0
  3  2  1  0  0  0  0
  4  3  2  0  0  0  0
  4  5  1  0  0  0  0
  5 20  1  0  0  0  0
  5  6  2  0  0  0  0
  6  1  1  0  0  0  0
  8  3  1  0  0  0  0
  9 10  1  0  0  0  0
 10 11  2  0  0  0  0
 10 17  1  0  0  0  0
 11 18  1  0  0  0  0
 12 13  2  0  0  0  0
 12 11  1  0  0  0  0
 14 15  1  0  0  0  0
 14 12  1  0  0  0  0
 15  9  1  0  0  0  0
 16 15  2  0  0  0  0
 19 14  1  0  0  0  0
 21 22  1  0  0  0  0
 22 20  1  0  0  0  0
 22 23  2  0  0  0  0
 23 24  1  0  0  0  0
 25 23  1  0  0  0  0
 25 26  1  0  0  0  0
 27 25  2  0  0  0  0
 28 21  2  0  0  0  0
 28 27  1  0  0  0  0
 29 30  2  0  0  0  0
 30 21  1  0  0  0  0
 31 30  1  0  0  0  0
 32 29  1  0  0  0  0
 33 31  1  0  0  0  0
 34 31  1  0  0  0  0
M  END
>  <minimizedAffinity>
-5.48679686

>  <minimizedRMSD>
0.850884438

$$$$
