
 OpenBabel03272510103D

 33 35  0  0  0  0  0  0  0  0999 V2000
   37.7420   31.0900   47.9200 C   0  0  0  0  0  0  0  0  0  0  0  0
   38.7930   31.9420   47.8000 C   0  0  0  0  0  0  0  0  0  0  0  0
   39.2190   32.4800   46.6040 C   0  0  0  0  0  0  0  0  0  0  0  0
   38.5680   32.1570   45.4430 C   0  0  0  0  0  0  0  0  0  0  0  0
   37.4910   31.2800   45.5790 C   0  0  0  0  0  0  0  0  0  0  0  0
   37.1070   30.7780   46.7650 N   0  0  0  0  0  0  0  0  0  0  0  0
   39.3420   32.2280   48.6960 H   0  0  0  0  0  0  0  0  0  0  0  0
   40.0550   33.1600   46.4970 H   0  0  0  0  0  0  0  0  0  0  0  0
   36.9200   30.9750   44.7000 H   0  0  0  0  0  0  0  0  0  0  0  0
   37.9150   30.7980   50.4210 C   0  0  0  0  0  0  0  0  0  0  0  0
   37.2970   30.5270   49.1780 C   0  0  0  0  0  0  0  0  0  0  0  0
   36.2040   29.6710   49.1850 C   0  0  0  0  0  0  0  0  0  0  0  0
   35.7850   29.1400   50.3740 N   0  0  0  0  0  0  0  0  0  0  0  0
   36.4010   29.4260   51.5280 C   0  0  0  0  0  0  0  0  0  0  0  0
   37.4700   30.2540   51.5680 N   0  0  0  0  0  0  0  0  0  0  0  0
   38.7630   31.4690   50.3710 H   0  0  0  0  0  0  0  0  0  0  0  0
   35.6930   29.4290   48.2630 H   0  0  0  0  0  0  0  0  0  0  0  0
   36.0290   28.9780   52.4440 H   0  0  0  0  0  0  0  0  0  0  0  0
   38.8580   32.6020   44.1570 O   0  0  0  0  0  0  0  0  0  0  0  0
   38.5450   31.5150   42.0960 C   0  0  0  0  0  0  0  0  0  0  0  0
   39.3420   31.6980   43.2270 C   0  0  0  0  0  0  0  0  0  0  0  0
   40.5020   30.9690   43.2880 C   0  0  0  0  0  0  0  0  0  0  0  0
   41.1020   31.1250   44.1680 H   0  0  0  0  0  0  0  0  0  0  0  0
   40.8590   30.1060   42.2900 C   0  0  0  0  0  0  0  0  0  0  0  0
   41.7860   29.5320   42.3510 H   0  0  0  0  0  0  0  0  0  0  0  0
   40.0600   29.9310   41.1690 C   0  0  0  0  0  3  0  0  0  0  0  0
   38.8860   30.6510   41.0790 C   0  0  0  0  0  3  0  0  0  0  0  0
   36.9050   33.4230   42.2900 N   0  0  0  0  0  0  0  0  0  0  0  0
   37.2830   32.2440   41.9270 C   0  0  0  0  0  0  0  0  0  0  0  0
   36.1810   31.6430   41.2470 N   0  0  0  0  0  0  0  0  0  0  0  0
   37.5140   34.0820   42.8070 H   0  0  0  0  0  0  0  0  0  0  0  0
   35.4340   30.9350   41.3810 H   0  0  0  0  0  0  0  0  0  0  0  0
   35.7750   31.7760   40.2870 H   0  0  0  0  0  0  0  0  0  0  0  0
  1 11  1  0  0  0  0
  2  1  1  0  0  0  0
  2  7  1  0  0  0  0
  3  2  2  0  0  0  0
  4  5  2  0  0  0  0
  4  3  1  0  0  0  0
  5  6  1  0  0  0  0
  6  1  2  0  0  0  0
  8  3  1  0  0  0  0
  9  5  1  0  0  0  0
 10 15  1  0  0  0  0
 11 12  1  0  0  0  0
 11 10  2  0  0  0  0
 12 13  2  0  0  0  0
 13 14  1  0  0  0  0
 14 15  2  0  0  0  0
 14 18  1  0  0  0  0
 16 10  1  0  0  0  0
 17 12  1  0  0  0  0
 19  4  1  0  0  0  0
 20 21  1  0  0  0  0
 21 22  2  0  0  0  0
 21 19  1  0  0  0  0
 22 23  1  0  0  0  0
 24 25  1  0  0  0  0
 24 22  1  0  0  0  0
 26 24  2  0  0  0  0
 27 26  1  0  0  0  0
 27 20  2  0  0  0  0
 28 31  1  0  0  0  0
 29 20  1  0  0  0  0
 29 28  2  0  0  0  0
 30 32  1  0  0  0  0
 30 29  1  0  0  0  0
 33 30  1  0  0  0  0
M  END
>  <minimizedAffinity>
-5.4169755

>  <minimizedRMSD>
3.84049702

$$$$
