
 OpenBabel03272501443D

 39 40  0  0  0  0  0  0  0  0999 V2000
   35.9780   29.5880   48.6910 C   0  0  0  0  0  0  0  0  0  0  0  0
   35.8740   30.2700   47.4390 C   0  0  0  0  0  0  0  0  0  0  0  0
   34.7030   30.1100   46.7140 C   0  0  0  0  0  0  0  0  0  0  0  0
   33.7270   29.3230   47.2240 N   0  0  0  0  0  0  0  0  0  0  0  0
   33.8410   28.6890   48.4010 C   0  0  0  0  0  0  0  0  0  0  0  0
   34.9670   28.8270   49.1260 N   0  0  0  0  0  0  0  0  0  0  0  0
   36.8050   29.5900   49.3860 H   0  0  0  0  0  0  0  0  0  0  0  0
   34.6470   30.6250   45.7880 H   0  0  0  0  0  0  0  0  0  0  0  0
   37.8290   31.5360   48.1100 C   0  0  0  0  0  0  0  0  0  0  0  0
   37.0230   31.0660   47.0810 C   0  0  0  0  0  0  0  0  0  0  0  0
   37.3920   31.4090   45.8020 C   0  0  0  0  0  0  0  0  0  0  0  0
   38.5150   32.1860   45.5590 C   0  0  0  0  0  0  0  0  0  0  0  0
   39.1010   32.6660   44.4610 N   0  0  0  0  0  0  0  0  0  0  0  0
   40.1770   33.3730   44.7810 C   0  0  0  0  0  0  0  0  0  0  0  0
   40.3180   33.3680   46.1280 N   0  0  0  0  0  0  0  0  0  0  0  0
   39.2970   32.6390   46.6060 C   0  0  0  0  0  0  0  0  0  0  0  0
   38.9490   32.3100   47.8920 C   0  0  0  0  0  0  0  0  0  0  0  0
   37.6750   31.3580   49.1830 H   0  0  0  0  0  0  0  0  0  0  0  0
   36.7730   31.0490   44.9810 H   0  0  0  0  0  0  0  0  0  0  0  0
   38.6930   32.4600   43.5080 H   0  0  0  0  0  0  0  0  0  0  0  0
   40.7690   33.8330   43.9870 H   0  0  0  0  0  0  0  0  0  0  0  0
   39.5940   32.6880   48.6920 H   0  0  0  0  0  0  0  0  0  0  0  0
   32.7310   27.8290   48.9270 C   0  0  0  0  0  0  0  0  0  0  0  0
   33.0130   27.4490   49.9550 H   0  0  0  0  0  0  0  0  0  0  0  0
   31.8490   28.4610   49.1170 H   0  0  0  0  0  0  0  0  0  0  0  0
   31.2350   26.3080   47.6210 C   0  0  0  0  0  0  0  0  0  0  0  0
   32.4870   26.7140   48.0110 C   0  0  0  0  0  0  0  0  0  0  0  0
   33.5720   26.0440   47.4970 C   0  0  0  0  0  0  0  0  0  0  0  0
   34.5850   26.3330   47.7810 H   0  0  0  0  0  0  0  0  0  0  0  0
   33.3360   25.0140   46.6270 C   0  0  0  0  0  0  0  0  0  0  0  0
   34.1550   24.4560   46.1960 H   0  0  0  0  0  0  0  0  0  0  0  0
   32.0860   24.6010   46.2290 C   0  0  0  0  0  3  0  0  0  0  0  0
   30.9890   25.2610   46.7350 C   0  0  0  0  0  3  0  0  0  0  0  0
   29.1600   27.1230   49.0430 N   0  0  0  0  0  0  0  0  0  0  0  0
   30.0480   26.9450   48.1390 C   0  0  0  0  0  3  0  0  0  0  0  0
   29.4120   27.9350   47.3460 N   0  0  0  0  0  1  0  0  0  0  0  0
   29.1600   26.5910   49.9310 H   0  0  0  0  0  0  0  0  0  0  0  0
   29.6320   28.4800   46.4880 H   0  0  0  0  0 15  0  0  0  0  0  0
   28.9460   28.6500   46.7810 H   0  0  0  0  0  0  0  0  0  0  0  0
  1  6  1  0  0  0  0
  1  7  1  0  0  0  0
  2  1  2  0  0  0  0
  3  4  2  0  0  0  0
  3  2  1  0  0  0  0
  4  5  1  0  0  0  0
  5 23  1  0  0  0  0
  5  6  2  0  0  0  0
  8  3  1  0  0  0  0
  9 18  1  0  0  0  0
 10  2  1  0  0  0  0
 10  9  2  0  0  0  0
 11 10  1  0  0  0  0
 12 11  2  0  0  0  0
 12 16  1  0  0  0  0
 13 14  1  0  0  0  0
 13 12  1  0  0  0  0
 14 15  2  0  0  0  0
 15 16  1  0  0  0  0
 16 17  2  0  0  0  0
 17  9  1  0  0  0  0
 17 22  1  0  0  0  0
 19 11  1  0  0  0  0
 20 13  1  0  0  0  0
 21 14  1  0  0  0  0
 23 25  1  0  0  0  0
 23 24  1  0  0  0  0
 26 27  1  0  0  0  0
 26 35  1  0  0  0  0
 27 23  1  0  0  0  0
 28 29  1  0  0  0  0
 28 27  2  0  0  0  0
 30 28  1  0  0  0  0
 31 30  1  0  0  0  0
 32 30  2  0  0  0  0
 32 33  1  0  0  0  0
 33 26  2  0  0  0  0
 34 37  1  0  0  0  0
 35 34  2  0  0  0  0
 39 36  1  0  0  0  0
M  END
>  <minimizedAffinity>
-5.87036371

>  <minimizedRMSD>
0.943142176

$$$$
