
 OpenBabel03272508273D

 43 46  0  0  1  0  0  0  0  0999 V2000
   33.9110   29.0120   47.3620 C   0  0  2  0  0  0  0  0  0  0  0  0
   34.7130   28.2160   48.3860 C   0  0  2  0  0  0  0  0  0  0  0  0
   33.8390   27.9660   49.4100 O   0  0  0  0  0  0  0  0  0  0  0  0
   32.5440   28.0120   48.9690 C   0  0  0  0  0  0  0  0  0  0  0  0
   32.5730   28.2730   47.4740 C   0  0  1  0  0  0  0  0  0  0  0  0
   33.7510   30.0500   47.6700 H   0  0  0  0  0  0  0  0  0  0  0  0
   35.0230   27.2860   47.8710 H   0  0  0  0  0  0  0  0  0  0  0  0
   32.0510   27.0190   49.0770 H   0  0  0  0  0  0  0  0  0  0  0  0
   32.0200   28.8370   49.4610 H   0  0  0  0  0  0  0  0  0  0  0  0
   32.7250   27.3400   46.9040 H   0  0  0  0  0  0  0  0  0  0  0  0
   35.7340   30.5190   48.9870 C   0  0  1  0  0  0  0  0  0  0  0  0
   35.8470   29.0880   48.8290 C   0  0  1  0  0  0  0  0  0  0  0  0
   35.9330   29.6260   50.2200 C   0  0  0  0  0  0  0  0  0  0  0  0
   34.8250   31.1270   49.1140 H   0  0  0  0  0  0  0  0  0  0  0  0
   36.8240   28.7290   48.3890 H   0  0  0  0  0  0  0  0  0  0  0  0
   36.9130   29.6180   50.7250 H   0  0  0  0  0  0  0  0  0  0  0  0
   35.0970   29.4690   50.9150 H   0  0  0  0  0  0  0  0  0  0  0  0
   36.9350   31.4230   48.7530 C   0  0  0  0  0  0  0  0  0  0  0  0
   37.1510   32.4470   49.6970 C   0  0  0  0  0  0  0  0  0  0  0  0
   38.2450   33.2610   49.4200 C   0  0  0  0  0  0  0  0  0  0  0  0
   39.0230   33.0560   48.3130 N   0  0  0  0  0  0  0  0  0  0  0  0
   38.7650   32.0630   47.4490 C   0  0  0  0  0  0  0  0  0  0  0  0
   37.7130   31.2250   47.6530 N   0  0  0  0  0  0  0  0  0  0  0  0
   36.5080   32.5520   50.5390 H   0  0  0  0  0  0  0  0  0  0  0  0
   38.4010   34.0430   50.1510 H   0  0  0  0  0  0  0  0  0  0  0  0
   39.4150   31.9490   46.5920 H   0  0  0  0  0  0  0  0  0  0  0  0
   34.4160   28.9250   46.0810 O   0  0  0  0  0  0  0  0  0  0  0  0
   35.0490   28.1750   45.9680 H   0  0  0  0  0  0  0  0  0  0  0  0
   31.5310   29.0260   47.0340 O   0  0  0  0  0  0  0  0  0  0  0  0
   29.4850   28.8480   46.1130 C   0  0  0  0  0  0  0  0  0  0  0  0
   30.8610   28.7340   45.8650 C   0  0  0  0  0  0  0  0  0  0  0  0
   31.2430   28.3750   44.5910 C   0  0  0  0  0  0  0  0  0  0  0  0
   32.3180   28.3180   44.5180 H   0  0  0  0  0  0  0  0  0  0  0  0
   30.3080   28.1420   43.6110 C   0  0  0  0  0  0  0  0  0  0  0  0
   30.7150   27.8680   42.6480 H   0  0  0  0  0  0  0  0  0  0  0  0
   28.9530   28.2490   43.8360 C   0  0  0  0  0  3  0  0  0  0  0  0
   28.5460   28.6070   45.1040 C   0  0  0  0  0  3  0  0  0  0  0  0
   27.7880   29.9840   47.5510 N   0  0  0  0  0  0  0  0  0  0  0  0
   28.8250   29.2140   47.3830 C   0  0  0  0  0  0  0  0  0  0  0  0
   29.2280   28.7730   48.6660 N   0  0  0  0  0  0  0  0  0  0  0  0
   27.3440   30.4130   46.6880 H   0  0  0  0  0  0  0  0  0  0  0  0
   29.9370   29.3170   49.2310 H   0  0  0  0  0  0  0  0  0  0  0  0
   29.0020   27.9750   49.2830 H   0  0  0  0  0  0  0  0  0  0  0  0
  1  5  1  0  0  0  0
  1  6  1  1  0  0  0
  1  2  1  0  0  0  0
  2  7  1  6  0  0  0
  2 12  1  0  0  0  0
  2  3  1  0  0  0  0
  4  8  1  0  0  0  0
  4  3  1  0  0  0  0
  4  9  1  0  0  0  0
  5 10  1  6  0  0  0
  5  4  1  0  0  0  0
 11 14  1  6  0  0  0
 11 13  1  0  0  0  0
 12 15  1  6  0  0  0
 12 11  1  0  0  0  0
 12 13  1  0  0  0  0
 13 16  1  0  0  0  0
 13 17  1  0  0  0  0
 18 11  1  0  0  0  0
 18 19  1  0  0  0  0
 19 24  1  0  0  0  0
 20 19  2  0  0  0  0
 20 25  1  0  0  0  0
 21 20  1  0  0  0  0
 22 23  1  0  0  0  0
 22 21  2  0  0  0  0
 23 18  2  0  0  0  0
 26 22  1  0  0  0  0
 27  1  1  0  0  0  0
 28 27  1  0  0  0  0
 29  5  1  0  0  0  0
 30 39  1  0  0  0  0
 31 30  1  0  0  0  0
 31 29  1  0  0  0  0
 32 31  2  0  0  0  0
 33 32  1  0  0  0  0
 34 36  2  0  0  0  0
 34 32  1  0  0  0  0
 35 34  1  0  0  0  0
 36 37  1  0  0  0  0
 37 30  2  0  0  0  0
 39 38  2  0  0  0  0
 39 40  1  0  0  0  0
 40 42  1  0  0  0  0
 40 43  1  0  0  0  0
 41 38  1  0  0  0  0
M  END
>  <minimizedAffinity>
-5.39812899

>  <minimizedRMSD>
1.08326662

$$$$
