
 OpenBabel03272507163D

 31 33  0  0  1  0  0  0  0  0999 V2000
   36.1290   31.1170   50.0690 C   0  0  1  0  0  0  0  0  0  0  0  0
   35.2730   29.9710   49.7960 C   0  0  2  0  0  0  0  0  0  0  0  0
   36.5090   29.7500   50.6480 C   0  0  0  0  0  0  0  0  0  0  0  0
   35.9260   31.9150   50.8260 H   0  0  0  0  0  0  0  0  0  0  0  0
   34.3010   29.9430   50.3690 H   0  0  0  0  0  0  0  0  0  0  0  0
   36.3510   29.6700   51.7220 H   0  0  0  0  0  0  0  0  0  0  0  0
   37.3590   29.2120   50.2280 H   0  0  0  0  0  0  0  0  0  0  0  0
   37.1250   31.5970   49.0340 C   0  0  0  0  0  0  0  0  0  0  0  0
   38.0300   32.5720   49.4560 C   0  0  0  0  0  0  0  0  0  0  0  0
   38.9160   33.0150   48.4910 C   0  0  0  0  0  0  0  0  0  0  0  0
   38.8760   32.5060   47.2090 N   0  0  0  0  0  0  0  0  0  0  0  0
   37.9790   31.5630   46.8550 C   0  0  0  0  0  0  0  0  0  0  0  0
   37.0840   31.0920   47.7720 N   0  0  0  0  0  0  0  0  0  0  0  0
   38.0160   32.9350   50.4720 H   0  0  0  0  0  0  0  0  0  0  0  0
   39.6320   33.7710   48.7850 H   0  0  0  0  0  0  0  0  0  0  0  0
   37.9810   31.1900   45.8400 H   0  0  0  0  0  0  0  0  0  0  0  0
   35.2900   29.3830   48.5610 O   0  0  0  0  0  0  0  0  0  0  0  0
   33.4300   29.0110   46.8600 C   0  0  0  0  0  0  0  0  0  0  0  0
   34.3280   28.7330   47.8610 C   0  0  0  0  0  0  0  0  0  0  0  0
   34.2880   27.4130   48.3420 C   0  0  0  0  0  0  0  0  0  0  0  0
   34.8910   26.9300   49.1300 H   0  0  0  0  0  0  0  0  0  0  0  0
   33.3990   26.4600   47.8380 C   0  0  0  0  0  0  0  0  0  0  0  0
   33.3060   25.4320   48.1510 H   0  0  0  0  0  0  0  0  0  0  0  0
   32.5260   26.8140   46.8340 C   0  0  0  0  0  3  0  0  0  0  0  0
   32.5490   28.0950   46.3500 C   0  0  0  0  0  3  0  0  0  0  0  0
   34.6910   30.4600   45.8410 N   0  0  0  0  0  0  0  0  0  0  0  0
   33.4940   30.3540   46.3240 C   0  0  0  0  0  0  0  0  0  0  0  0
   32.5510   31.4350   46.2570 N   0  0  0  0  0  0  0  0  0  0  0  0
   35.0660   31.2970   45.3820 H   0  0  0  0  0  0  0  0  0  0  0  0
   32.4640   31.8890   45.3080 H   0  0  0  0  0  0  0  0  0  0  0  0
   31.9410   31.8450   46.9840 H   0  0  0  0  0  0  0  0  0  0  0  0
  1  3  1  0  0  0  0
  1  4  1  1  0  0  0
  2  1  1  0  0  0  0
  2  5  1  1  0  0  0
  2  3  1  0  0  0  0
  3  6  1  0  0  0  0
  7  3  1  0  0  0  0
  8  9  1  0  0  0  0
  8  1  1  0  0  0  0
  9 14  1  0  0  0  0
 10 15  1  0  0  0  0
 10  9  2  0  0  0  0
 11 10  1  0  0  0  0
 12 11  2  0  0  0  0
 12 13  1  0  0  0  0
 13  8  2  0  0  0  0
 16 12  1  0  0  0  0
 17  2  1  0  0  0  0
 18 19  1  0  0  0  0
 19 20  2  0  0  0  0
 19 17  1  0  0  0  0
 20 21  1  0  0  0  0
 22 23  1  0  0  0  0
 22 20  1  0  0  0  0
 24 22  2  0  0  0  0
 25 24  1  0  0  0  0
 25 18  2  0  0  0  0
 26 27  2  0  0  0  0
 27 18  1  0  0  0  0
 28 27  1  0  0  0  0
 28 31  1  0  0  0  0
 29 26  1  0  0  0  0
 30 28  1  0  0  0  0
M  END
>  <minimizedAffinity>
-5.51887846

>  <minimizedRMSD>
1.8373487

$$$$
