
 OpenBabel03272504393D

 47 49  0  0  0  0  0  0  0  0999 V2000
   34.8250   29.4730   48.3740 C   0  0  0  0  0  0  0  0  0  0  0  0
   35.6690   29.6580   49.0720 H   0  0  0  0  0  0  0  0  0  0  0  0
   34.0220   30.1780   48.7460 H   0  0  0  0  0  0  0  0  0  0  0  0
   37.6250   30.4090   48.0950 Cl  0  0  0  0  0  0  0  0  0  0  0  0
   36.4620   30.3920   46.7700 C   0  0  0  0  0  0  0  0  0  0  0  0
   36.8490   30.8310   45.5400 C   0  0  0  0  0  0  0  0  0  0  0  0
   35.9560   30.8210   44.5040 C   0  0  0  0  0  0  0  0  0  0  0  0
   34.6710   30.3630   44.7300 C   0  0  0  0  0  0  0  0  0  0  0  0
   34.3270   29.9240   46.0090 C   0  0  0  0  0  0  0  0  0  0  0  0
   35.2000   29.9250   47.0540 C   0  0  0  0  0  0  0  0  0  0  0  0
   36.3050   31.1830   43.5280 H   0  0  0  0  0  0  0  0  0  0  0  0
   34.0500   30.4000   43.8410 H   0  0  0  0  0  0  0  0  0  0  0  0
   33.3390   29.6250   45.9750 H   0  0  0  0  0  0  0  0  0  0  0  0
   39.9320   32.8620   45.5930 C   0  0  0  0  0  0  0  0  0  0  0  0
   40.7960   32.0660   44.7870 C   0  0  0  0  0  0  0  0  0  0  0  0
   40.2860   30.8730   44.2650 C   0  0  0  0  0  0  0  0  0  0  0  0
   39.0020   30.5280   44.5440 N   0  0  0  0  0  0  0  0  0  0  0  0
   38.2070   31.3120   45.3160 C   0  0  0  0  0  0  0  0  0  0  0  0
   38.6750   32.4550   45.8230 N   0  0  0  0  0  0  0  0  0  0  0  0
   40.3190   33.7920   46.0030 H   0  0  0  0  0  0  0  0  0  0  0  0
   41.8020   32.4270   44.6230 H   0  0  0  0  0  0  0  0  0  0  0  0
   41.1640   30.1030   43.4710 N   0  0  0  0  0  0  0  0  0  0  0  0
   41.9780   29.8050   44.0660 H   0  0  0  0  0  0  0  0  0  0  0  0
   40.7570   30.0460   42.5080 H   0  0  0  0  0  0  0  0  0  0  0  0
   34.3590   28.1020   48.5570 C   0  0  0  0  0  0  0  0  0  0  0  0
   34.4210   27.5710   47.5620 H   0  0  0  0  0  0  0  0  0  0  0  0
   35.0210   27.4980   49.2230 H   0  0  0  0  0  0  0  0  0  0  0  0
   33.0710   28.0570   49.0240 O   0  0  0  0  0  0  0  0  0  0  0  0
   32.7190   27.5000   46.4770 O   0  0  0  0  0  0  0  0  0  0  0  0
   32.0120   27.6060   47.8070 P   0  0  2  0  0  0  0  0  0  0  0  0
   30.7810   28.8010   47.7620 O   0  0  0  0  0  0  0  0  0  0  0  0
   30.4640   28.8600   48.6980 H   0  0  0  0  0  0  0  0  0  0  0  0
   31.2520   26.1560   48.1320 O   0  0  0  0  0  0  0  0  0  0  0  0
   31.2190   24.3890   46.6370 C   0  0  0  0  0  0  0  0  0  0  0  0
   30.5560   25.5110   47.1170 C   0  0  0  0  0  0  0  0  0  0  0  0
   29.3380   25.8630   46.5770 C   0  0  0  0  0  0  0  0  0  0  0  0
   28.8880   26.7320   46.9930 H   0  0  0  0  0  0  0  0  0  0  0  0
   28.7770   25.1090   45.5640 C   0  0  0  0  0  0  0  0  0  0  0  0
   27.8230   25.3960   45.1500 H   0  0  0  0  0  0  0  0  0  0  0  0
   29.4190   23.9830   45.0660 C   0  0  0  0  0  3  0  0  0  0  0  0
   30.6340   23.6530   45.6230 C   0  0  0  0  0  3  0  0  0  0  0  0
   32.5490   23.0620   48.0750 N   0  0  0  0  0  0  0  0  0  0  0  0
   32.5160   23.9310   47.1440 C   0  0  0  0  0  0  0  0  0  0  0  0
   33.6680   24.5290   46.5170 N   0  0  0  0  0  0  0  0  0  0  0  0
   33.4090   22.6860   48.4890 H   0  0  0  0  0  0  0  0  0  0  0  0
   34.1970   25.4150   46.5670 H   0  0  0  0  0  0  0  0  0  0  0  0
   34.1540   23.9530   45.7970 H   0  0  0  0  0  0  0  0  0  0  0  0
  1 25  1  0  0  0  0
  1  3  1  0  0  0  0
  1  2  1  0  0  0  0
  5 10  1  0  0  0  0
  5  4  1  0  0  0  0
  6  5  2  0  0  0  0
  7  8  2  0  0  0  0
  7  6  1  0  0  0  0
  8  9  1  0  0  0  0
  9 10  2  0  0  0  0
 10  1  1  0  0  0  0
 11  7  1  0  0  0  0
 12  8  1  0  0  0  0
 13  9  1  0  0  0  0
 14 19  1  0  0  0  0
 14 20  1  0  0  0  0
 15 14  2  0  0  0  0
 16 17  2  0  0  0  0
 16 15  1  0  0  0  0
 17 18  1  0  0  0  0
 18  6  1  0  0  0  0
 18 19  2  0  0  0  0
 21 15  1  0  0  0  0
 22 23  1  0  0  0  0
 22 16  1  0  0  0  0
 24 22  1  0  0  0  0
 25 28  1  0  0  0  0
 25 27  1  0  0  0  0
 26 25  1  0  0  0  0
 30 29  2  6  0  0  0
 30 33  1  0  0  0  0
 30 28  1  0  0  0  0
 31 30  1  0  0  0  0
 31 32  1  0  0  0  0
 34 35  1  0  0  0  0
 34 43  1  0  0  0  0
 35 33  1  0  0  0  0
 36 37  1  0  0  0  0
 36 35  2  0  0  0  0
 38 36  1  0  0  0  0
 39 38  1  0  0  0  0
 40 38  2  0  0  0  0
 40 41  1  0  0  0  0
 41 34  2  0  0  0  0
 42 45  1  0  0  0  0
 43 42  2  0  0  0  0
 44 46  1  0  0  0  0
 44 43  1  0  0  0  0
 47 44  1  0  0  0  0
M  END
>  <minimizedAffinity>
-5.07289028

>  <minimizedRMSD>
1.4051367

$$$$
