
 OpenBabel03272510103D

 33 35  0  0  0  0  0  0  0  0999 V2000
   36.7060   30.8030   47.9000 C   0  0  0  0  0  0  0  0  0  0  0  0
   37.6800   31.7500   47.9020 C   0  0  0  0  0  0  0  0  0  0  0  0
   38.2350   32.2900   46.7600 C   0  0  0  0  0  0  0  0  0  0  0  0
   37.8030   31.8710   45.5310 C   0  0  0  0  0  0  0  0  0  0  0  0
   36.8030   30.8970   45.5420 C   0  0  0  0  0  0  0  0  0  0  0  0
   36.2880   30.3960   46.6770 N   0  0  0  0  0  0  0  0  0  0  0  0
   38.0560   32.1150   48.8560 H   0  0  0  0  0  0  0  0  0  0  0  0
   39.0110   33.0450   46.7500 H   0  0  0  0  0  0  0  0  0  0  0  0
   36.4050   30.5110   44.6020 H   0  0  0  0  0  0  0  0  0  0  0  0
   36.8710   29.9370   50.2650 C   0  0  0  0  0  0  0  0  0  0  0  0
   36.1260   30.2380   49.1010 C   0  0  0  0  0  0  0  0  0  0  0  0
   34.7650   29.9690   49.1300 C   0  0  0  0  0  0  0  0  0  0  0  0
   34.2190   29.4350   50.2650 N   0  0  0  0  0  0  0  0  0  0  0  0
   34.9630   29.1670   51.3450 C   0  0  0  0  0  0  0  0  0  0  0  0
   36.2930   29.4120   51.3610 N   0  0  0  0  0  0  0  0  0  0  0  0
   37.9280   30.1620   50.1990 H   0  0  0  0  0  0  0  0  0  0  0  0
   34.1470   30.1800   48.2670 H   0  0  0  0  0  0  0  0  0  0  0  0
   34.4810   28.7440   52.2200 H   0  0  0  0  0  0  0  0  0  0  0  0
   38.2450   32.3020   44.2840 O   0  0  0  0  0  0  0  0  0  0  0  0
   40.1040   31.0140   43.6430 C   0  0  0  0  0  0  0  0  0  0  0  0
   38.7790   31.3770   43.4030 C   0  0  0  0  0  0  0  0  0  0  0  0
   38.1610   30.7820   42.3320 C   0  0  0  0  0  0  0  0  0  0  0  0
   37.1390   31.0760   42.1650 H   0  0  0  0  0  0  0  0  0  0  0  0
   38.8120   29.8770   41.5410 C   0  0  0  0  0  0  0  0  0  0  0  0
   38.3090   29.4120   40.6920 H   0  0  0  0  0  0  0  0  0  0  0  0
   40.1310   29.5230   41.7880 C   0  0  0  0  0  0  0  0  0  0  0  0
   40.7790   30.1060   42.8590 C   0  0  0  0  0  0  0  0  0  0  0  0
   41.1810   32.8030   45.0610 N   0  0  0  0  0  0  0  0  0  0  0  0
   40.8610   31.5890   44.7610 C   0  0  0  0  0  0  0  0  0  0  0  0
   41.4030   30.7490   45.7800 N   0  0  0  0  0  0  0  0  0  0  0  0
   40.9130   33.6210   44.4860 H   0  0  0  0  0  0  0  0  0  0  0  0
   42.1810   30.0860   45.9550 H   0  0  0  0  0  0  0  0  0  0  0  0
   41.1130   30.5480   46.7710 H   0  0  0  0  0  0  0  0  0  0  0  0
  1  2  1  0  0  0  0
  1 11  1  0  0  0  0
  2  7  1  0  0  0  0
  3  2  2  0  0  0  0
  4  5  2  0  0  0  0
  4  3  1  0  0  0  0
  5  6  1  0  0  0  0
  6  1  2  0  0  0  0
  8  3  1  0  0  0  0
  9  5  1  0  0  0  0
 10 15  1  0  0  0  0
 11 12  1  0  0  0  0
 11 10  2  0  0  0  0
 12 13  2  0  0  0  0
 13 14  1  0  0  0  0
 14 15  2  0  0  0  0
 14 18  1  0  0  0  0
 16 10  1  0  0  0  0
 17 12  1  0  0  0  0
 19  4  1  0  0  0  0
 20 29  1  0  0  0  0
 21 20  1  0  0  0  0
 21 19  1  0  0  0  0
 22 21  2  0  0  0  0
 23 22  1  0  0  0  0
 24 26  2  0  0  0  0
 24 22  1  0  0  0  0
 25 24  1  0  0  0  0
 26 27  1  0  0  0  0
 27 20  2  0  0  0  0
 29 28  2  0  0  0  0
 29 30  1  0  0  0  0
 30 32  1  0  0  0  0
 30 33  1  0  0  0  0
 31 28  1  0  0  0  0
M  END
>  <minimizedAffinity>
-5.47684956

>  <minimizedRMSD>
4.16870451

$$$$
