
 OpenBabel03272501453D

 39 40  0  0  0  0  0  0  0  0999 V2000
   37.1350   26.0610   33.1460 C   0  0  0  0  0  0  0  0  0  0  0  0
   37.0840   27.1370   34.0850 C   0  0  0  0  0  0  0  0  0  0  0  0
   37.6650   26.9360   35.3270 C   0  0  0  0  0  0  0  0  0  0  0  0
   38.2470   25.7410   35.5860 N   0  0  0  0  0  0  0  0  0  0  0  0
   38.2860   24.7400   34.6930 C   0  0  0  0  0  0  0  0  0  0  0  0
   37.7290   24.9080   33.4780 N   0  0  0  0  0  0  0  0  0  0  0  0
   36.7390   26.0300   32.1410 H   0  0  0  0  0  0  0  0  0  0  0  0
   37.6150   27.7480   36.0090 H   0  0  0  0  0  0  0  0  0  0  0  0
   35.8960   29.1970   34.5560 C   0  0  0  0  0  0  0  0  0  0  0  0
   36.4260   28.3300   33.6090 C   0  0  0  0  0  0  0  0  0  0  0  0
   36.2710   28.6860   32.2900 C   0  0  0  0  0  0  0  0  0  0  0  0
   35.6160   29.8550   31.9310 C   0  0  0  0  0  0  0  0  0  0  0  0
   35.3190   30.4420   30.7710 N   0  0  0  0  0  0  0  0  0  0  0  0
   34.6620   31.5750   30.9790 C   0  0  0  0  0  0  0  0  0  0  0  0
   34.5130   31.7540   32.3130 N   0  0  0  0  0  0  0  0  0  0  0  0
   35.0990   30.6970   32.8990 C   0  0  0  0  0  0  0  0  0  0  0  0
   35.2410   30.3630   34.2210 C   0  0  0  0  0  0  0  0  0  0  0  0
   35.9300   29.0610   35.6450 H   0  0  0  0  0  0  0  0  0  0  0  0
   36.6800   28.0190   31.5320 H   0  0  0  0  0  0  0  0  0  0  0  0
   35.6090   29.9930   29.8590 H   0  0  0  0  0  0  0  0  0  0  0  0
   34.3470   32.1760   30.1240 H   0  0  0  0  0  0  0  0  0  0  0  0
   34.8180   31.0560   34.9560 H   0  0  0  0  0  0  0  0  0  0  0  0
   38.9430   23.4340   35.0240 C   0  0  0  0  0  0  0  0  0  0  0  0
   38.4920   23.0240   35.9770 H   0  0  0  0  0  0  0  0  0  0  0  0
   38.6610   22.6890   34.2620 H   0  0  0  0  0  0  0  0  0  0  0  0
   41.0970   23.2240   36.2780 C   0  0  0  0  0  0  0  0  0  0  0  0
   40.3860   23.6250   35.1730 C   0  0  0  0  0  0  0  0  0  0  0  0
   41.0750   24.2220   34.1460 C   0  0  0  0  0  0  0  0  0  0  0  0
   40.5480   24.5560   33.2500 H   0  0  0  0  0  0  0  0  0  0  0  0
   42.4270   24.3820   34.2860 C   0  0  0  0  0  0  0  0  0  0  0  0
   43.0140   24.8460   33.5070 H   0  0  0  0  0  0  0  0  0  0  0  0
   43.1480   23.9820   35.3880 C   0  0  0  0  0  3  0  0  0  0  0  0
   42.4740   23.3830   36.4270 C   0  0  0  0  0  3  0  0  0  0  0  0
   39.5450   22.5930   38.3230 N   0  0  0  0  0  0  0  0  0  0  0  0
   40.4390   22.6140   37.4090 C   0  0  0  0  0  3  0  0  0  0  0  0
   40.9100   21.3580   37.8680 N   0  0  0  0  0  1  0  0  0  0  0  0
   38.8590   23.3580   38.4450 H   0  0  0  0  0  0  0  0  0  0  0  0
   41.5590   20.6180   37.5280 H   0  0  0  0  0 15  0  0  0  0  0  0
   41.2460   20.4520   38.2050 H   0  0  0  0  0  0  0  0  0  0  0  0
  1  6  2  0  0  0  0
  1  2  1  0  0  0  0
  2  3  2  0  0  0  0
  3  4  1  0  0  0  0
  3  8  1  0  0  0  0
  5 23  1  0  0  0  0
  5  4  2  0  0  0  0
  6  5  1  0  0  0  0
  7  1  1  0  0  0  0
  9 18  1  0  0  0  0
 10  2  1  0  0  0  0
 10  9  2  0  0  0  0
 11 10  1  0  0  0  0
 12 11  2  0  0  0  0
 12 16  1  0  0  0  0
 13 14  1  0  0  0  0
 13 12  1  0  0  0  0
 14 15  2  0  0  0  0
 15 16  1  0  0  0  0
 16 17  2  0  0  0  0
 17  9  1  0  0  0  0
 17 22  1  0  0  0  0
 19 11  1  0  0  0  0
 20 13  1  0  0  0  0
 21 14  1  0  0  0  0
 23 27  1  0  0  0  0
 23 24  1  0  0  0  0
 25 23  1  0  0  0  0
 26 33  1  0  0  0  0
 26 35  1  0  0  0  0
 27 26  2  0  0  0  0
 28 30  2  0  0  0  0
 28 27  1  0  0  0  0
 29 28  1  0  0  0  0
 30 32  1  0  0  0  0
 31 30  1  0  0  0  0
 32 33  2  0  0  0  0
 34 37  1  0  0  0  0
 35 34  2  0  0  0  0
 36 39  1  0  0  0  0
M  END
>  <minimizedAffinity>
-6.46521521

$$$$

 OpenBabel03272501453D

 39 40  0  0  0  0  0  0  0  0999 V2000
   37.2100   25.9780   33.1700 C   0  0  0  0  0  0  0  0  0  0  0  0
   37.1530   27.0360   34.1280 C   0  0  0  0  0  0  0  0  0  0  0  0
   37.7440   26.8200   35.3630 C   0  0  0  0  0  0  0  0  0  0  0  0
   38.3410   25.6270   35.5970 N   0  0  0  0  0  0  0  0  0  0  0  0
   38.3860   24.6430   34.6860 C   0  0  0  0  0  0  0  0  0  0  0  0
   37.8200   24.8270   33.4780 N   0  0  0  0  0  0  0  0  0  0  0  0
   36.8080   25.9610   32.1670 H   0  0  0  0  0  0  0  0  0  0  0  0
   37.6890   27.6190   36.0590 H   0  0  0  0  0  0  0  0  0  0  0  0
   36.4760   28.4950   32.3140 C   0  0  0  0  0  0  0  0  0  0  0  0
   36.4780   28.2300   33.6770 C   0  0  0  0  0  0  0  0  0  0  0  0
   35.8380   29.1400   34.4840 C   0  0  0  0  0  0  0  0  0  0  0  0
   35.2210   30.2650   33.9560 C   0  0  0  0  0  0  0  0  0  0  0  0
   34.5460   31.2920   34.4730 N   0  0  0  0  0  0  0  0  0  0  0  0
   34.1590   32.1220   33.5150 C   0  0  0  0  0  0  0  0  0  0  0  0
   34.5830   31.6410   32.3220 N   0  0  0  0  0  0  0  0  0  0  0  0
   35.2370   30.5000   32.5930 C   0  0  0  0  0  0  0  0  0  0  0  0
   35.8700   29.6060   31.7670 C   0  0  0  0  0  0  0  0  0  0  0  0
   36.9420   27.8760   31.5360 H   0  0  0  0  0  0  0  0  0  0  0  0
   35.8280   28.9500   35.5570 H   0  0  0  0  0  0  0  0  0  0  0  0
   34.3900   31.3530   35.5170 H   0  0  0  0  0  0  0  0  0  0  0  0
   33.5920   33.0170   33.7800 H   0  0  0  0  0  0  0  0  0  0  0  0
   35.8590   29.8280   30.6940 H   0  0  0  0  0  0  0  0  0  0  0  0
   39.0600   23.3390   34.9890 C   0  0  0  0  0  0  0  0  0  0  0  0
   38.6020   22.8950   35.9240 H   0  0  0  0  0  0  0  0  0  0  0  0
   38.8010   22.6110   34.2030 H   0  0  0  0  0  0  0  0  0  0  0  0
   41.1880   23.1790   36.2930 C   0  0  0  0  0  0  0  0  0  0  0  0
   40.4970   23.5490   35.1650 C   0  0  0  0  0  0  0  0  0  0  0  0
   41.2020   24.1320   34.1410 C   0  0  0  0  0  0  0  0  0  0  0  0
   40.6910   24.4420   33.2270 H   0  0  0  0  0  0  0  0  0  0  0  0
   42.5480   24.3100   34.3060 C   0  0  0  0  0  0  0  0  0  0  0  0
   43.1470   24.7650   33.5300 H   0  0  0  0  0  0  0  0  0  0  0  0
   43.2500   23.9420   35.4310 C   0  0  0  0  0  3  0  0  0  0  0  0
   42.5600   23.3570   36.4680 C   0  0  0  0  0  3  0  0  0  0  0  0
   39.6180   22.5880   38.3370 N   0  0  0  0  0  0  0  0  0  0  0  0
   40.5120   22.5860   37.4220 C   0  0  0  0  0  3  0  0  0  0  0  0
   40.9470   21.3150   37.8780 N   0  0  0  0  0  1  0  0  0  0  0  0
   38.9540   23.3720   38.4600 H   0  0  0  0  0  0  0  0  0  0  0  0
   41.5740   20.5580   37.5370 H   0  0  0  0  0 15  0  0  0  0  0  0
   41.2560   20.3990   38.2140 H   0  0  0  0  0  0  0  0  0  0  0  0
  1  6  2  0  0  0  0
  1  2  1  0  0  0  0
  2  3  2  0  0  0  0
  3  4  1  0  0  0  0
  3  8  1  0  0  0  0
  5 23  1  0  0  0  0
  5  4  2  0  0  0  0
  6  5  1  0  0  0  0
  7  1  1  0  0  0  0
  9 10  1  0  0  0  0
 10  2  1  0  0  0  0
 10 11  2  0  0  0  0
 11 19  1  0  0  0  0
 12 13  1  0  0  0  0
 12 11  1  0  0  0  0
 13 20  1  0  0  0  0
 14 21  1  0  0  0  0
 14 13  1  0  0  0  0
 15 16  1  0  0  0  0
 15 14  2  0  0  0  0
 16 12  2  0  0  0  0
 17  9  2  0  0  0  0
 17 16  1  0  0  0  0
 18  9  1  0  0  0  0
 22 17  1  0  0  0  0
 23 27  1  0  0  0  0
 23 24  1  0  0  0  0
 25 23  1  0  0  0  0
 26 33  1  0  0  0  0
 26 35  1  0  0  0  0
 27 26  2  0  0  0  0
 28 30  2  0  0  0  0
 28 27  1  0  0  0  0
 29 28  1  0  0  0  0
 30 32  1  0  0  0  0
 31 30  1  0  0  0  0
 32 33  2  0  0  0  0
 34 37  1  0  0  0  0
 35 34  2  0  0  0  0
 36 39  1  0  0  0  0
M  END
>  <minimizedAffinity>
-6.27033806

$$$$

 OpenBabel03272501453D

 39 40  0  0  0  0  0  0  0  0999 V2000
   37.1100   26.9480   34.9170 C   0  0  0  0  0  0  0  0  0  0  0  0
   36.9470   27.2010   33.5200 C   0  0  0  0  0  0  0  0  0  0  0  0
   37.4060   26.2380   32.6340 C   0  0  0  0  0  0  0  0  0  0  0  0
   37.9800   25.1180   33.1320 N   0  0  0  0  0  0  0  0  0  0  0  0
   38.1250   24.8970   34.4480 C   0  0  0  0  0  0  0  0  0  0  0  0
   37.6880   25.8140   35.3310 N   0  0  0  0  0  0  0  0  0  0  0  0
   36.8210   27.5750   35.7480 H   0  0  0  0  0  0  0  0  0  0  0  0
   37.2760   26.4470   31.6020 H   0  0  0  0  0  0  0  0  0  0  0  0
   35.8440   29.2320   34.2520 C   0  0  0  0  0  0  0  0  0  0  0  0
   36.3020   28.4510   33.1980 C   0  0  0  0  0  0  0  0  0  0  0  0
   36.0930   28.9400   31.9310 C   0  0  0  0  0  0  0  0  0  0  0  0
   35.4550   30.1540   31.7220 C   0  0  0  0  0  0  0  0  0  0  0  0
   35.1200   30.8620   30.6420 N   0  0  0  0  0  0  0  0  0  0  0  0
   34.5070   31.9840   30.9940 C   0  0  0  0  0  0  0  0  0  0  0  0
   34.4290   32.0330   32.3450 N   0  0  0  0  0  0  0  0  0  0  0  0
   35.0110   30.9090   32.7930 C   0  0  0  0  0  0  0  0  0  0  0  0
   35.2080   30.4410   34.0670 C   0  0  0  0  0  0  0  0  0  0  0  0
   35.9280   28.9880   35.3190 H   0  0  0  0  0  0  0  0  0  0  0  0
   36.4450   28.3420   31.0910 H   0  0  0  0  0  0  0  0  0  0  0  0
   35.3510   30.4980   29.6760 H   0  0  0  0  0  0  0  0  0  0  0  0
   34.1680   32.6740   30.2190 H   0  0  0  0  0  0  0  0  0  0  0  0
   34.8430   31.0680   34.8880 H   0  0  0  0  0  0  0  0  0  0  0  0
   38.7660   23.6390   34.9540 C   0  0  0  0  0  0  0  0  0  0  0  0
   39.4480   23.2230   34.1520 H   0  0  0  0  0  0  0  0  0  0  0  0
   39.4570   23.8950   35.7730 H   0  0  0  0  0  0  0  0  0  0  0  0
   37.2390   22.5200   36.5870 C   0  0  0  0  0  0  0  0  0  0  0  0
   37.7360   22.6650   35.3160 C   0  0  0  0  0  0  0  0  0  0  0  0
   37.2250   21.8590   34.3280 C   0  0  0  0  0  0  0  0  0  0  0  0
   37.5930   21.9410   33.3040 H   0  0  0  0  0  0  0  0  0  0  0  0
   36.2500   20.9620   34.6710 C   0  0  0  0  0  0  0  0  0  0  0  0
   35.8160   20.3060   33.9310 H   0  0  0  0  0  0  0  0  0  0  0  0
   35.7440   20.8110   35.9420 C   0  0  0  0  0  3  0  0  0  0  0  0
   36.2450   21.6080   36.9440 C   0  0  0  0  0  3  0  0  0  0  0  0
   37.8740   24.4120   38.3220 N   0  0  0  0  0  0  0  0  0  0  0  0
   37.7460   23.3110   37.6830 C   0  0  0  0  0  3  0  0  0  0  0  0
   38.5350   22.6690   38.6720 N   0  0  0  0  0  1  0  0  0  0  0  0
   37.4450   25.2950   37.9960 H   0  0  0  0  0  0  0  0  0  0  0  0
   38.7710   21.6910   38.9390 H   0  0  0  0  0 15  0  0  0  0  0  0
   39.1050   22.2120   39.3880 H   0  0  0  0  0  0  0  0  0  0  0  0
  1  6  1  0  0  0  0
  1  7  1  0  0  0  0
  2  1  2  0  0  0  0
  3  4  2  0  0  0  0
  3  2  1  0  0  0  0
  4  5  1  0  0  0  0
  5 23  1  0  0  0  0
  5  6  2  0  0  0  0
  8  3  1  0  0  0  0
  9 18  1  0  0  0  0
 10  2  1  0  0  0  0
 10  9  2  0  0  0  0
 11 10  1  0  0  0  0
 12 11  2  0  0  0  0
 12 16  1  0  0  0  0
 13 14  1  0  0  0  0
 13 12  1  0  0  0  0
 14 15  2  0  0  0  0
 15 16  1  0  0  0  0
 16 17  2  0  0  0  0
 17  9  1  0  0  0  0
 17 22  1  0  0  0  0
 19 11  1  0  0  0  0
 20 13  1  0  0  0  0
 21 14  1  0  0  0  0
 23 27  1  0  0  0  0
 23 25  1  0  0  0  0
 24 23  1  0  0  0  0
 26 33  1  0  0  0  0
 26 35  1  0  0  0  0
 27 26  2  0  0  0  0
 28 30  2  0  0  0  0
 28 27  1  0  0  0  0
 29 28  1  0  0  0  0
 30 32  1  0  0  0  0
 31 30  1  0  0  0  0
 32 33  2  0  0  0  0
 35 34  2  0  0  0  0
 36 39  1  0  0  0  0
 37 34  1  0  0  0  0
M  END
>  <minimizedAffinity>
-6.18015146

$$$$

 OpenBabel03272501453D

 39 40  0  0  0  0  0  0  0  0999 V2000
   37.6930   24.5240   31.6990 C   0  0  0  0  0  0  0  0  0  0  0  0
   36.4210   23.8930   31.5410 C   0  0  0  0  0  0  0  0  0  0  0  0
   35.3430   24.6940   31.1980 C   0  0  0  0  0  0  0  0  0  0  0  0
   35.5470   26.0220   31.0330 N   0  0  0  0  0  0  0  0  0  0  0  0
   36.7490   26.5990   31.1860 C   0  0  0  0  0  0  0  0  0  0  0  0
   37.8130   25.8450   31.5180 N   0  0  0  0  0  0  0  0  0  0  0  0
   38.6370   24.0700   31.9640 H   0  0  0  0  0  0  0  0  0  0  0  0
   34.4080   24.2040   31.0860 H   0  0  0  0  0  0  0  0  0  0  0  0
   37.6390   21.8460   31.9930 C   0  0  0  0  0  0  0  0  0  0  0  0
   36.4190   22.4650   31.7530 C   0  0  0  0  0  0  0  0  0  0  0  0
   35.3090   21.6550   31.7340 C   0  0  0  0  0  0  0  0  0  0  0  0
   35.4100   20.2880   31.9440 C   0  0  0  0  0  0  0  0  0  0  0  0
   34.5370   19.2790   31.9790 N   0  0  0  0  0  0  0  0  0  0  0  0
   35.1610   18.1340   32.2190 C   0  0  0  0  0  0  0  0  0  0  0  0
   36.4870   18.3780   32.3490 N   0  0  0  0  0  0  0  0  0  0  0  0
   36.6400   19.7010   32.1800 C   0  0  0  0  0  0  0  0  0  0  0  0
   37.7630   20.4890   32.2040 C   0  0  0  0  0  0  0  0  0  0  0  0
   38.6170   22.3440   32.0380 H   0  0  0  0  0  0  0  0  0  0  0  0
   34.3420   22.1230   31.5470 H   0  0  0  0  0  0  0  0  0  0  0  0
   33.5070   19.4630   31.8250 H   0  0  0  0  0  0  0  0  0  0  0  0
   34.5800   17.2120   32.2790 H   0  0  0  0  0  0  0  0  0  0  0  0
   38.7170   19.9870   32.3950 H   0  0  0  0  0  0  0  0  0  0  0  0
   36.9280   28.0750   30.9900 C   0  0  0  0  0  0  0  0  0  0  0  0
   38.0230   28.2940   30.8100 H   0  0  0  0  0  0  0  0  0  0  0  0
   36.4460   28.3710   30.0440 H   0  0  0  0  0  0  0  0  0  0  0  0
   35.8720   30.0460   32.1110 C   0  0  0  0  0  0  0  0  0  0  0  0
   36.4400   28.7970   32.1660 C   0  0  0  0  0  0  0  0  0  0  0  0
   36.5400   28.1880   33.3930 C   0  0  0  0  0  0  0  0  0  0  0  0
   36.9870   27.1960   33.4810 H   0  0  0  0  0  0  0  0  0  0  0  0
   36.0670   28.8630   34.4850 C   0  0  0  0  0  0  0  0  0  0  0  0
   36.1230   28.4270   35.4730 H   0  0  0  0  0  0  0  0  0  0  0  0
   35.4940   30.1130   34.4400 C   0  0  0  0  0  3  0  0  0  0  0  0
   35.3870   30.7380   33.2200 C   0  0  0  0  0  3  0  0  0  0  0  0
   36.2050   31.1260   29.7210 N   0  0  0  0  0  0  0  0  0  0  0  0
   35.7570   30.7600   30.8620 C   0  0  0  0  0  3  0  0  0  0  0  0
   34.5670   31.4870   30.6060 N   0  0  0  0  0  1  0  0  0  0  0  0
   37.1360   30.8400   29.3730 H   0  0  0  0  0  0  0  0  0  0  0  0
   33.6170   31.5640   31.0250 H   0  0  0  0  0 15  0  0  0  0  0  0
   33.7110   32.0150   30.4150 H   0  0  0  0  0  0  0  0  0  0  0  0
  1  7  1  0  0  0  0
  2  1  1  0  0  0  0
  2 10  1  0  0  0  0
  3  2  2  0  0  0  0
  4  5  2  0  0  0  0
  4  3  1  0  0  0  0
  5  6  1  0  0  0  0
  6  1  2  0  0  0  0
  8  3  1  0  0  0  0
  9 18  1  0  0  0  0
  9 17  1  0  0  0  0
 10  9  2  0  0  0  0
 11 10  1  0  0  0  0
 11 12  2  0  0  0  0
 12 13  1  0  0  0  0
 12 16  1  0  0  0  0
 13 14  1  0  0  0  0
 14 21  1  0  0  0  0
 14 15  2  0  0  0  0
 16 17  2  0  0  0  0
 16 15  1  0  0  0  0
 17 22  1  0  0  0  0
 19 11  1  0  0  0  0
 20 13  1  0  0  0  0
 23  5  1  0  0  0  0
 23 27  1  0  0  0  0
 24 23  1  0  0  0  0
 25 23  1  0  0  0  0
 26 27  2  0  0  0  0
 26 33  1  0  0  0  0
 27 28  1  0  0  0  0
 28 29  1  0  0  0  0
 28 30  2  0  0  0  0
 30 31  1  0  0  0  0
 32 30  1  0  0  0  0
 33 32  2  0  0  0  0
 34 35  2  0  0  0  0
 35 26  1  0  0  0  0
 37 34  1  0  0  0  0
 39 36  1  0  0  0  0
M  END
>  <minimizedAffinity>
-6.14728737

$$$$

 OpenBabel03272501453D

 39 40  0  0  0  0  0  0  0  0999 V2000
   37.4190   27.4800   35.0000 C   0  0  0  0  0  0  0  0  0  0  0  0
   38.2230   27.1220   33.8740 C   0  0  0  0  0  0  0  0  0  0  0  0
   37.8480   27.6120   32.6330 C   0  0  0  0  0  0  0  0  0  0  0  0
   36.7480   28.3970   32.5500 N   0  0  0  0  0  0  0  0  0  0  0  0
   36.0030   28.7230   33.6180 C   0  0  0  0  0  0  0  0  0  0  0  0
   36.3450   28.2620   34.8350 N   0  0  0  0  0  0  0  0  0  0  0  0
   37.5510   27.1950   36.0330 H   0  0  0  0  0  0  0  0  0  0  0  0
   38.4590   27.3330   31.8110 H   0  0  0  0  0  0  0  0  0  0  0  0
   39.1770   24.9080   34.1260 C   0  0  0  0  0  0  0  0  0  0  0  0
   39.3580   26.2840   34.1780 C   0  0  0  0  0  0  0  0  0  0  0  0
   40.6120   26.7290   34.5240 C   0  0  0  0  0  0  0  0  0  0  0  0
   41.6400   25.8410   34.8050 C   0  0  0  0  0  0  0  0  0  0  0  0
   42.9190   25.9730   35.1600 N   0  0  0  0  0  0  0  0  0  0  0  0
   43.4830   24.7830   35.3140 C   0  0  0  0  0  0  0  0  0  0  0  0
   42.5600   23.8260   35.0560 N   0  0  0  0  0  0  0  0  0  0  0  0
   41.4270   24.4760   34.7430 C   0  0  0  0  0  0  0  0  0  0  0  0
   40.1840   24.0080   34.4010 C   0  0  0  0  0  0  0  0  0  0  0  0
   38.2420   24.3890   33.8720 H   0  0  0  0  0  0  0  0  0  0  0  0
   40.7740   27.8060   34.5700 H   0  0  0  0  0  0  0  0  0  0  0  0
   43.3400   26.9360   35.2780 H   0  0  0  0  0  0  0  0  0  0  0  0
   44.5330   24.7230   35.6050 H   0  0  0  0  0  0  0  0  0  0  0  0
   40.0570   22.9210   34.3630 H   0  0  0  0  0  0  0  0  0  0  0  0
   34.7930   29.5980   33.4780 C   0  0  0  0  0  0  0  0  0  0  0  0
   34.8920   30.2170   32.5360 H   0  0  0  0  0  0  0  0  0  0  0  0
   33.9140   28.9630   33.2790 H   0  0  0  0  0  0  0  0  0  0  0  0
   33.5500   30.4800   35.4600 C   0  0  0  0  0  0  0  0  0  0  0  0
   34.6610   30.4590   34.6530 C   0  0  0  0  0  0  0  0  0  0  0  0
   35.7110   31.2810   34.9810 C   0  0  0  0  0  0  0  0  0  0  0  0
   36.6130   31.2950   34.3660 H   0  0  0  0  0  0  0  0  0  0  0  0
   35.5870   32.0710   36.0910 C   0  0  0  0  0  0  0  0  0  0  0  0
   36.3850   32.7350   36.3910 H   0  0  0  0  0  0  0  0  0  0  0  0
   34.4790   32.0980   36.9070 C   0  0  0  0  0  3  0  0  0  0  0  0
   33.4170   31.2830   36.5930 C   0  0  0  0  0  3  0  0  0  0  0  0
   31.3860   29.3500   34.4460 N   0  0  0  0  0  0  0  0  0  0  0  0
   32.3960   29.6650   35.1640 C   0  0  0  0  0  3  0  0  0  0  0  0
   32.0870   28.5900   36.0360 N   0  0  0  0  0  1  0  0  0  0  0  0
   31.1290   29.8730   33.5910 H   0  0  0  0  0  0  0  0  0  0  0  0
   32.5520   28.0880   36.8190 H   0  0  0  0  0 15  0  0  0  0  0  0
   31.8570   27.8130   36.6620 H   0  0  0  0  0  0  0  0  0  0  0  0
  1  7  1  0  0  0  0
  2 10  1  0  0  0  0
  2  1  2  0  0  0  0
  3  2  1  0  0  0  0
  4  3  2  0  0  0  0
  4  5  1  0  0  0  0
  5  6  2  0  0  0  0
  6  1  1  0  0  0  0
  8  3  1  0  0  0  0
  9 10  2  0  0  0  0
  9 17  1  0  0  0  0
 10 11  1  0  0  0  0
 11 19  1  0  0  0  0
 11 12  2  0  0  0  0
 12 13  1  0  0  0  0
 13 20  1  0  0  0  0
 13 14  1  0  0  0  0
 14 21  1  0  0  0  0
 15 14  2  0  0  0  0
 16 12  1  0  0  0  0
 16 15  1  0  0  0  0
 17 16  2  0  0  0  0
 18  9  1  0  0  0  0
 22 17  1  0  0  0  0
 23  5  1  0  0  0  0
 23 27  1  0  0  0  0
 24 23  1  0  0  0  0
 25 23  1  0  0  0  0
 26 33  1  0  0  0  0
 27 28  1  0  0  0  0
 27 26  2  0  0  0  0
 28 30  2  0  0  0  0
 29 28  1  0  0  0  0
 30 31  1  0  0  0  0
 30 32  1  0  0  0  0
 33 32  2  0  0  0  0
 34 35  2  0  0  0  0
 35 26  1  0  0  0  0
 36 39  1  0  0  0  0
 37 34  1  0  0  0  0
M  END
>  <minimizedAffinity>
-5.90610075

$$$$

 OpenBabel03272501453D

 39 40  0  0  0  0  0  0  0  0999 V2000
   38.5940   26.7390   33.4380 C   0  0  0  0  0  0  0  0  0  0  0  0
   38.2800   26.1270   34.6910 C   0  0  0  0  0  0  0  0  0  0  0  0
   37.1040   26.5110   35.3180 C   0  0  0  0  0  0  0  0  0  0  0  0
   36.3210   27.4370   34.7180 N   0  0  0  0  0  0  0  0  0  0  0  0
   36.6310   28.0030   33.5410 C   0  0  0  0  0  0  0  0  0  0  0  0
   37.7660   27.6480   32.9100 N   0  0  0  0  0  0  0  0  0  0  0  0
   39.4570   26.5720   32.8110 H   0  0  0  0  0  0  0  0  0  0  0  0
   36.8920   26.0440   36.2480 H   0  0  0  0  0  0  0  0  0  0  0  0
   40.5480   25.2710   34.6910 C   0  0  0  0  0  0  0  0  0  0  0  0
   39.2430   25.1570   35.1540 C   0  0  0  0  0  0  0  0  0  0  0  0
   38.9810   24.1180   36.0140 C   0  0  0  0  0  0  0  0  0  0  0  0
   39.9760   23.2300   36.3970 C   0  0  0  0  0  0  0  0  0  0  0  0
   40.0200   22.1580   37.1900 N   0  0  0  0  0  0  0  0  0  0  0  0
   41.2440   21.6510   37.2180 C   0  0  0  0  0  0  0  0  0  0  0  0
   42.0450   22.4000   36.4230 N   0  0  0  0  0  0  0  0  0  0  0  0
   41.2660   23.3710   35.9190 C   0  0  0  0  0  0  0  0  0  0  0  0
   41.5520   24.4000   35.0590 C   0  0  0  0  0  0  0  0  0  0  0  0
   40.9230   26.0370   34.0000 H   0  0  0  0  0  0  0  0  0  0  0  0
   37.9630   24.0120   36.3890 H   0  0  0  0  0  0  0  0  0  0  0  0
   39.1460   21.8310   37.6890 H   0  0  0  0  0  0  0  0  0  0  0  0
   41.4430   20.7660   37.8260 H   0  0  0  0  0  0  0  0  0  0  0  0
   42.5850   24.4780   34.7030 H   0  0  0  0  0  0  0  0  0  0  0  0
   35.7310   29.0240   32.9130 C   0  0  0  0  0  0  0  0  0  0  0  0
   36.3270   29.6370   32.1720 H   0  0  0  0  0  0  0  0  0  0  0  0
   34.9880   28.5070   32.2840 H   0  0  0  0  0  0  0  0  0  0  0  0
   33.8020   30.0920   34.0940 C   0  0  0  0  0  0  0  0  0  0  0  0
   35.1510   29.8820   33.9480 C   0  0  0  0  0  0  0  0  0  0  0  0
   35.9990   30.4980   34.8340 C   0  0  0  0  0  0  0  0  0  0  0  0
   37.0790   30.3580   34.7540 H   0  0  0  0  0  0  0  0  0  0  0  0
   35.4480   31.2850   35.8090 C   0  0  0  0  0  0  0  0  0  0  0  0
   36.0730   31.7920   36.5310 H   0  0  0  0  0  0  0  0  0  0  0  0
   34.0980   31.5020   35.9640 C   0  0  0  0  0  3  0  0  0  0  0  0
   33.2340   30.8930   35.0840 C   0  0  0  0  0  3  0  0  0  0  0  0
   32.1060   28.5380   32.7900 N   0  0  0  0  0  0  0  0  0  0  0  0
   32.8500   29.5010   33.1830 C   0  0  0  0  0  3  0  0  0  0  0  0
   32.3830   30.2810   32.0950 N   0  0  0  0  0  1  0  0  0  0  0  0
   32.0650   27.6310   33.2870 H   0  0  0  0  0  0  0  0  0  0  0  0
   32.4230   31.2780   31.8010 H   0  0  0  0  0 15  0  0  0  0  0  0
   32.0420   30.8370   31.3060 H   0  0  0  0  0  0  0  0  0  0  0  0
  1  2  1  0  0  0  0
  2 10  1  0  0  0  0
  2  3  2  0  0  0  0
  3  8  1  0  0  0  0
  4  3  1  0  0  0  0
  5  4  2  0  0  0  0
  6  1  2  0  0  0  0
  6  5  1  0  0  0  0
  7  1  1  0  0  0  0
  9 17  2  0  0  0  0
  9 10  1  0  0  0  0
 10 11  2  0  0  0  0
 11 19  1  0  0  0  0
 11 12  1  0  0  0  0
 12 13  1  0  0  0  0
 13 14  1  0  0  0  0
 13 20  1  0  0  0  0
 14 21  1  0  0  0  0
 15 14  2  0  0  0  0
 16 12  2  0  0  0  0
 16 15  1  0  0  0  0
 17 16  1  0  0  0  0
 18  9  1  0  0  0  0
 22 17  1  0  0  0  0
 23  5  1  0  0  0  0
 23 27  1  0  0  0  0
 24 23  1  0  0  0  0
 25 23  1  0  0  0  0
 26 33  1  0  0  0  0
 27 26  2  0  0  0  0
 27 28  1  0  0  0  0
 28 30  2  0  0  0  0
 29 28  1  0  0  0  0
 30 32  1  0  0  0  0
 30 31  1  0  0  0  0
 33 32  2  0  0  0  0
 34 35  2  0  0  0  0
 34 37  1  0  0  0  0
 35 26  1  0  0  0  0
 39 36  1  0  0  0  0
M  END
>  <minimizedAffinity>
-5.88834

$$$$

 OpenBabel03272501453D

 39 40  0  0  0  0  0  0  0  0999 V2000
   35.2540   30.1760   31.3370 C   0  0  0  0  0  0  0  0  0  0  0  0
   36.3520   29.2640   31.3980 C   0  0  0  0  0  0  0  0  0  0  0  0
   36.4750   28.4800   32.5350 C   0  0  0  0  0  0  0  0  0  0  0  0
   35.5580   28.6180   33.5210 N   0  0  0  0  0  0  0  0  0  0  0  0
   34.5330   29.4800   33.4480 C   0  0  0  0  0  0  0  0  0  0  0  0
   34.3890   30.2530   32.3550 N   0  0  0  0  0  0  0  0  0  0  0  0
   34.9990   30.8620   30.5430 H   0  0  0  0  0  0  0  0  0  0  0  0
   37.2980   27.8100   32.5590 H   0  0  0  0  0  0  0  0  0  0  0  0
   37.4430   30.4800   29.6070 C   0  0  0  0  0  0  0  0  0  0  0  0
   37.2110   29.2640   30.2380 C   0  0  0  0  0  0  0  0  0  0  0  0
   37.8200   28.1590   29.6930 C   0  0  0  0  0  0  0  0  0  0  0  0
   38.6250   28.2610   28.5680 C   0  0  0  0  0  0  0  0  0  0  0  0
   39.3230   27.3920   27.8350 N   0  0  0  0  0  0  0  0  0  0  0  0
   39.9360   28.0140   26.8370 C   0  0  0  0  0  0  0  0  0  0  0  0
   39.6420   29.3350   26.8990 N   0  0  0  0  0  0  0  0  0  0  0  0
   38.8370   29.4870   27.9630 C   0  0  0  0  0  0  0  0  0  0  0  0
   38.2390   30.6040   28.4890 C   0  0  0  0  0  0  0  0  0  0  0  0
   37.0320   31.4530   29.9100 H   0  0  0  0  0  0  0  0  0  0  0  0
   37.6500   27.1960   30.1730 H   0  0  0  0  0  0  0  0  0  0  0  0
   39.3290   26.3660   28.0910 H   0  0  0  0  0  0  0  0  0  0  0  0
   40.5500   27.4360   26.1440 H   0  0  0  0  0  0  0  0  0  0  0  0
   38.4320   31.5550   27.9810 H   0  0  0  0  0  0  0  0  0  0  0  0
   33.5400   29.5970   34.5650 C   0  0  0  0  0  0  0  0  0  0  0  0
   32.5140   29.7910   34.1290 H   0  0  0  0  0  0  0  0  0  0  0  0
   33.4330   28.6140   35.0520 H   0  0  0  0  0  0  0  0  0  0  0  0
   33.1250   31.1640   36.4700 C   0  0  0  0  0  0  0  0  0  0  0  0
   33.9310   30.6790   35.4700 C   0  0  0  0  0  0  0  0  0  0  0  0
   35.1810   31.2300   35.3250 C   0  0  0  0  0  0  0  0  0  0  0  0
   35.8540   30.8730   34.5430 H   0  0  0  0  0  0  0  0  0  0  0  0
   35.5460   32.2290   36.1860 C   0  0  0  0  0  0  0  0  0  0  0  0
   36.5180   32.6960   36.1130 H   0  0  0  0  0  0  0  0  0  0  0  0
   34.7460   32.7210   37.1920 C   0  0  0  0  0  3  0  0  0  0  0  0
   33.4910   32.1820   37.3500 C   0  0  0  0  0  3  0  0  0  0  0  0
   30.5330   30.6450   36.4230 N   0  0  0  0  0  0  0  0  0  0  0  0
   31.7880   30.6540   36.6660 C   0  0  0  0  0  3  0  0  0  0  0  0
   31.6020   29.5800   37.5730 N   0  0  0  0  0  1  0  0  0  0  0  0
   30.0920   31.3030   35.7580 H   0  0  0  0  0  0  0  0  0  0  0  0
   32.2040   28.9050   38.0870 H   0  0  0  0  0 15  0  0  0  0  0  0
   31.4590   28.8060   38.2270 H   0  0  0  0  0  0  0  0  0  0  0  0
  1  2  2  0  0  0  0
  1  6  1  0  0  0  0
  2  3  1  0  0  0  0
  3  8  1  0  0  0  0
  3  4  2  0  0  0  0
  5  4  1  0  0  0  0
  5 23  1  0  0  0  0
  6  5  2  0  0  0  0
  7  1  1  0  0  0  0
  9 18  1  0  0  0  0
  9 10  1  0  0  0  0
 10  2  1  0  0  0  0
 11 19  1  0  0  0  0
 11 10  2  0  0  0  0
 12 11  1  0  0  0  0
 13 20  1  0  0  0  0
 13 12  1  0  0  0  0
 14 15  2  0  0  0  0
 14 13  1  0  0  0  0
 15 16  1  0  0  0  0
 16 17  1  0  0  0  0
 16 12  2  0  0  0  0
 17  9  2  0  0  0  0
 21 14  1  0  0  0  0
 22 17  1  0  0  0  0
 23 25  1  0  0  0  0
 23 27  1  0  0  0  0
 24 23  1  0  0  0  0
 26 35  1  0  0  0  0
 26 33  1  0  0  0  0
 27 26  2  0  0  0  0
 28 27  1  0  0  0  0
 28 30  2  0  0  0  0
 29 28  1  0  0  0  0
 30 32  1  0  0  0  0
 31 30  1  0  0  0  0
 32 33  2  0  0  0  0
 34 35  2  0  0  0  0
 36 39  1  0  0  0  0
 37 34  1  0  0  0  0
M  END
>  <minimizedAffinity>
-5.79253006

$$$$

 OpenBabel03272501453D

 39 40  0  0  0  0  0  0  0  0999 V2000
   36.7350   26.4350   32.7490 C   0  0  0  0  0  0  0  0  0  0  0  0
   36.7810   27.4780   33.7250 C   0  0  0  0  0  0  0  0  0  0  0  0
   37.3800   27.1950   34.9430 C   0  0  0  0  0  0  0  0  0  0  0  0
   37.8860   25.9550   35.1450 N   0  0  0  0  0  0  0  0  0  0  0  0
   37.8340   24.9860   34.2180 C   0  0  0  0  0  0  0  0  0  0  0  0
   37.2580   25.2340   33.0270 N   0  0  0  0  0  0  0  0  0  0  0  0
   36.3110   26.4660   31.7570 H   0  0  0  0  0  0  0  0  0  0  0  0
   37.4030   27.9840   35.6520 H   0  0  0  0  0  0  0  0  0  0  0  0
   35.7910   29.6150   34.2990 C   0  0  0  0  0  0  0  0  0  0  0  0
   36.1940   28.7280   33.3080 C   0  0  0  0  0  0  0  0  0  0  0  0
   35.9900   29.1220   32.0070 C   0  0  0  0  0  0  0  0  0  0  0  0
   35.4100   30.3460   31.7060 C   0  0  0  0  0  0  0  0  0  0  0  0
   35.0920   30.9780   30.5750 N   0  0  0  0  0  0  0  0  0  0  0  0
   34.5410   32.1540   30.8400 C   0  0  0  0  0  0  0  0  0  0  0  0
   34.4860   32.3180   32.1840 N   0  0  0  0  0  0  0  0  0  0  0  0
   35.0190   31.2060   32.7160 C   0  0  0  0  0  0  0  0  0  0  0  0
   35.2130   30.8350   34.0220 C   0  0  0  0  0  0  0  0  0  0  0  0
   35.8780   29.4550   35.3820 H   0  0  0  0  0  0  0  0  0  0  0  0
   36.2990   28.4400   31.2150 H   0  0  0  0  0  0  0  0  0  0  0  0
   35.2910   30.5250   29.6400 H   0  0  0  0  0  0  0  0  0  0  0  0
   34.2250   32.7950   30.0150 H   0  0  0  0  0  0  0  0  0  0  0  0
   34.8910   31.5450   34.7920 H   0  0  0  0  0  0  0  0  0  0  0  0
   38.4090   23.6280   34.4870 C   0  0  0  0  0  0  0  0  0  0  0  0
   37.6980   22.8410   34.0940 H   0  0  0  0  0  0  0  0  0  0  0  0
   39.3110   23.4940   33.8680 H   0  0  0  0  0  0  0  0  0  0  0  0
   39.8690   23.2420   36.4800 C   0  0  0  0  0  0  0  0  0  0  0  0
   38.6330   23.4550   35.9220 C   0  0  0  0  0  0  0  0  0  0  0  0
   37.5500   23.5270   36.7640 C   0  0  0  0  0  0  0  0  0  0  0  0
   36.5490   23.6950   36.3620 H   0  0  0  0  0  0  0  0  0  0  0  0
   37.7690   23.3820   38.1070 C   0  0  0  0  0  0  0  0  0  0  0  0
   36.9500   23.4300   38.8100 H   0  0  0  0  0  0  0  0  0  0  0  0
   39.0030   23.1690   38.6760 C   0  0  0  0  0  3  0  0  0  0  0  0
   40.0990   23.0930   37.8480 C   0  0  0  0  0  3  0  0  0  0  0  0
   42.0310   23.6280   35.0080 N   0  0  0  0  0  0  0  0  0  0  0  0
   41.0500   23.1270   35.6580 C   0  0  0  0  0  3  0  0  0  0  0  0
   41.5010   21.8300   35.3020 N   0  0  0  0  0  1  0  0  0  0  0  0
   42.1870   24.6480   34.9390 H   0  0  0  0  0  0  0  0  0  0  0  0
   41.2970   20.8500   35.5840 H   0  0  0  0  0 15  0  0  0  0  0  0
   41.8320   20.8980   35.0400 H   0  0  0  0  0  0  0  0  0  0  0  0
  1  6  2  0  0  0  0
  1  2  1  0  0  0  0
  2  3  2  0  0  0  0
  3  4  1  0  0  0  0
  3  8  1  0  0  0  0
  5 23  1  0  0  0  0
  5  4  2  0  0  0  0
  6  5  1  0  0  0  0
  7  1  1  0  0  0  0
  9 18  1  0  0  0  0
 10  2  1  0  0  0  0
 10  9  2  0  0  0  0
 11 10  1  0  0  0  0
 12 11  2  0  0  0  0
 12 16  1  0  0  0  0
 13 14  1  0  0  0  0
 13 12  1  0  0  0  0
 14 15  2  0  0  0  0
 15 16  1  0  0  0  0
 16 17  2  0  0  0  0
 17  9  1  0  0  0  0
 17 22  1  0  0  0  0
 19 11  1  0  0  0  0
 20 13  1  0  0  0  0
 21 14  1  0  0  0  0
 23 27  1  0  0  0  0
 24 23  1  0  0  0  0
 25 23  1  0  0  0  0
 26 33  1  0  0  0  0
 27 26  2  0  0  0  0
 27 28  1  0  0  0  0
 28 30  2  0  0  0  0
 29 28  1  0  0  0  0
 30 32  1  0  0  0  0
 30 31  1  0  0  0  0
 33 32  2  0  0  0  0
 34 35  2  0  0  0  0
 35 26  1  0  0  0  0
 37 34  1  0  0  0  0
 39 36  1  0  0  0  0
M  END
>  <minimizedAffinity>
-5.78916597

$$$$

 OpenBabel03272501453D

 39 40  0  0  0  0  0  0  0  0999 V2000
   37.6180   27.4080   35.4310 C   0  0  0  0  0  0  0  0  0  0  0  0
   37.7380   26.1650   34.7370 C   0  0  0  0  0  0  0  0  0  0  0  0
   37.1980   26.0840   33.4620 C   0  0  0  0  0  0  0  0  0  0  0  0
   36.5880   27.1760   32.9460 N   0  0  0  0  0  0  0  0  0  0  0  0
   36.4830   28.3360   33.6110 C   0  0  0  0  0  0  0  0  0  0  0  0
   36.9990   28.4430   34.8500 N   0  0  0  0  0  0  0  0  0  0  0  0
   37.9690   27.6570   36.4210 H   0  0  0  0  0  0  0  0  0  0  0  0
   37.2980   25.1510   32.9660 H   0  0  0  0  0  0  0  0  0  0  0  0
   37.8490   24.6560   36.6310 C   0  0  0  0  0  0  0  0  0  0  0  0
   38.4320   25.1270   35.4620 C   0  0  0  0  0  0  0  0  0  0  0  0
   39.6310   24.5620   35.0980 C   0  0  0  0  0  0  0  0  0  0  0  0
   40.2240   23.5710   35.8660 C   0  0  0  0  0  0  0  0  0  0  0  0
   41.3480   22.8600   35.7710 N   0  0  0  0  0  0  0  0  0  0  0  0
   41.4550   22.0210   36.7920 C   0  0  0  0  0  0  0  0  0  0  0  0
   40.3740   22.1710   37.5950 N   0  0  0  0  0  0  0  0  0  0  0  0
   39.6170   23.1230   37.0260 C   0  0  0  0  0  0  0  0  0  0  0  0
   38.4200   23.6720   37.4100 C   0  0  0  0  0  0  0  0  0  0  0  0
   36.9000   25.0000   37.0630 H   0  0  0  0  0  0  0  0  0  0  0  0
   40.1040   24.9180   34.1830 H   0  0  0  0  0  0  0  0  0  0  0  0
   42.0050   23.0130   34.9570 H   0  0  0  0  0  0  0  0  0  0  0  0
   42.3260   21.3660   36.8580 H   0  0  0  0  0  0  0  0  0  0  0  0
   37.9730   23.2900   38.3340 H   0  0  0  0  0  0  0  0  0  0  0  0
   35.8010   29.5210   32.9960 C   0  0  0  0  0  0  0  0  0  0  0  0
   36.5000   30.4100   33.0310 H   0  0  0  0  0  0  0  0  0  0  0  0
   35.6680   29.3370   31.9180 H   0  0  0  0  0  0  0  0  0  0  0  0
   34.4350   30.8080   34.6500 C   0  0  0  0  0  0  0  0  0  0  0  0
   34.5590   29.8100   33.7150 C   0  0  0  0  0  0  0  0  0  0  0  0
   33.4480   29.0550   33.4280 C   0  0  0  0  0  0  0  0  0  0  0  0
   33.5040   28.2510   32.6900 H   0  0  0  0  0  0  0  0  0  0  0  0
   32.2870   29.3420   34.0910 C   0  0  0  0  0  0  0  0  0  0  0  0
   31.3860   28.7770   33.9010 H   0  0  0  0  0  0  0  0  0  0  0  0
   32.1520   30.3400   35.0290 C   0  0  0  0  0  3  0  0  0  0  0  0
   33.2540   31.1060   35.3300 C   0  0  0  0  0  3  0  0  0  0  0  0
   36.3240   32.6440   34.8790 N   0  0  0  0  0  0  0  0  0  0  0  0
   35.5650   31.6250   35.0250 C   0  0  0  0  0  3  0  0  0  0  0  0
   36.3460   31.2270   36.1400 N   0  0  0  0  0  1  0  0  0  0  0  0
   36.1790   33.3400   34.1270 H   0  0  0  0  0  0  0  0  0  0  0  0
   36.2700   30.5360   36.9140 H   0  0  0  0  0 15  0  0  0  0  0  0
   36.9150   30.9450   36.9420 H   0  0  0  0  0  0  0  0  0  0  0  0
  1  7  1  0  0  0  0
  2  1  2  0  0  0  0
  2 10  1  0  0  0  0
  3  2  1  0  0  0  0
  4  3  2  0  0  0  0
  4  5  1  0  0  0  0
  5  6  2  0  0  0  0
  6  1  1  0  0  0  0
  8  3  1  0  0  0  0
  9 18  1  0  0  0  0
  9 17  1  0  0  0  0
 10  9  2  0  0  0  0
 11 10  1  0  0  0  0
 11 12  2  0  0  0  0
 12 16  1  0  0  0  0
 13 12  1  0  0  0  0
 13 14  1  0  0  0  0
 14 21  1  0  0  0  0
 14 15  2  0  0  0  0
 16 17  2  0  0  0  0
 16 15  1  0  0  0  0
 17 22  1  0  0  0  0
 19 11  1  0  0  0  0
 20 13  1  0  0  0  0
 23 24  1  0  0  0  0
 23  5  1  0  0  0  0
 23 27  1  0  0  0  0
 25 23  1  0  0  0  0
 26 35  1  0  0  0  0
 26 33  1  0  0  0  0
 27 26  2  0  0  0  0
 28 27  1  0  0  0  0
 28 30  2  0  0  0  0
 29 28  1  0  0  0  0
 30 32  1  0  0  0  0
 31 30  1  0  0  0  0
 32 33  2  0  0  0  0
 34 35  2  0  0  0  0
 36 39  1  0  0  0  0
 37 34  1  0  0  0  0
M  END
>  <minimizedAffinity>
-5.77171659

$$$$
