
 OpenBabel03272504393D

 47 49  0  0  0  0  0  0  0  0999 V2000
   35.0290   29.5040   48.9720 C   0  0  0  0  0  0  0  0  0  0  0  0
   35.9520   29.5620   49.5870 H   0  0  0  0  0  0  0  0  0  0  0  0
   34.3910   30.3440   49.3820 H   0  0  0  0  0  0  0  0  0  0  0  0
   37.7610   30.5730   48.5410 Cl  0  0  0  0  0  0  0  0  0  0  0  0
   36.5780   30.3640   47.2520 C   0  0  0  0  0  0  0  0  0  0  0  0
   36.9150   30.7080   45.9770 C   0  0  0  0  0  0  0  0  0  0  0  0
   36.0060   30.5490   44.9690 C   0  0  0  0  0  0  0  0  0  0  0  0
   34.7550   30.0400   45.2660 C   0  0  0  0  0  0  0  0  0  0  0  0
   34.4620   29.7030   46.5880 C   0  0  0  0  0  0  0  0  0  0  0  0
   35.3520   29.8530   47.6070 C   0  0  0  0  0  0  0  0  0  0  0  0
   36.3150   30.8380   43.9560 H   0  0  0  0  0  0  0  0  0  0  0  0
   34.1170   29.9570   44.3930 H   0  0  0  0  0  0  0  0  0  0  0  0
   33.4940   29.3450   46.6060 H   0  0  0  0  0  0  0  0  0  0  0  0
   39.9210   32.8500   45.8850 C   0  0  0  0  0  0  0  0  0  0  0  0
   40.7570   32.1080   45.0010 C   0  0  0  0  0  0  0  0  0  0  0  0
   40.2550   30.9120   44.4790 C   0  0  0  0  0  0  0  0  0  0  0  0
   39.0060   30.5120   44.8330 N   0  0  0  0  0  0  0  0  0  0  0  0
   38.2370   31.2450   45.6780 C   0  0  0  0  0  0  0  0  0  0  0  0
   38.6980   32.3900   46.1860 N   0  0  0  0  0  0  0  0  0  0  0  0
   40.3030   33.7820   46.2960 H   0  0  0  0  0  0  0  0  0  0  0  0
   41.7360   32.5110   44.7820 H   0  0  0  0  0  0  0  0  0  0  0  0
   41.1040   30.1970   43.6060 N   0  0  0  0  0  0  0  0  0  0  0  0
   41.9650   29.9130   44.1370 H   0  0  0  0  0  0  0  0  0  0  0  0
   40.6350   30.1510   42.6710 H   0  0  0  0  0  0  0  0  0  0  0  0
   34.3610   28.2370   49.2500 C   0  0  0  0  0  0  0  0  0  0  0  0
   34.4330   27.5880   48.3280 H   0  0  0  0  0  0  0  0  0  0  0  0
   34.8710   27.6350   50.0400 H   0  0  0  0  0  0  0  0  0  0  0  0
   33.0430   28.4150   49.5850 O   0  0  0  0  0  0  0  0  0  0  0  0
   32.7630   26.6620   47.6440 O   0  0  0  0  0  0  0  0  0  0  0  0
   32.0390   27.7210   48.4390 P   0  0  2  0  0  0  0  0  0  0  0  0
   31.5000   28.9970   47.4250 O   0  0  0  0  0  0  0  0  0  0  0  0
   31.1420   29.6730   48.0530 H   0  0  0  0  0  0  0  0  0  0  0  0
   30.6720   27.0470   49.1180 O   0  0  0  0  0  0  0  0  0  0  0  0
   28.4210   27.5890   49.0690 C   0  0  0  0  0  0  0  0  0  0  0  0
   29.4910   27.0220   48.3860 C   0  0  0  0  0  0  0  0  0  0  0  0
   29.2950   26.5160   47.1190 C   0  0  0  0  0  0  0  0  0  0  0  0
   30.1570   26.0970   46.6570 H   0  0  0  0  0  0  0  0  0  0  0  0
   28.0480   26.5700   46.5290 C   0  0  0  0  0  0  0  0  0  0  0  0
   27.9090   26.1690   45.5350 H   0  0  0  0  0  0  0  0  0  0  0  0
   26.9630   27.1310   47.1880 C   0  0  0  0  0  3  0  0  0  0  0  0
   27.1840   27.6290   48.4530 C   0  0  0  0  0  3  0  0  0  0  0  0
   28.3810   29.4090   50.5800 N   0  0  0  0  0  0  0  0  0  0  0  0
   28.5250   28.1540   50.4180 C   0  0  0  0  0  0  0  0  0  0  0  0
   28.7890   27.2000   51.4670 N   0  0  0  0  0  0  0  0  0  0  0  0
   28.4370   29.8890   51.4840 H   0  0  0  0  0  0  0  0  0  0  0  0
   29.5960   26.6810   51.8490 H   0  0  0  0  0  0  0  0  0  0  0  0
   27.9700   26.9090   52.0440 H   0  0  0  0  0  0  0  0  0  0  0  0
  1 25  1  0  0  0  0
  1  3  1  0  0  0  0
  1  2  1  0  0  0  0
  5 10  1  0  0  0  0
  5  4  1  0  0  0  0
  6  5  2  0  0  0  0
  7  8  2  0  0  0  0
  7  6  1  0  0  0  0
  8  9  1  0  0  0  0
  9 13  1  0  0  0  0
  9 10  2  0  0  0  0
 10  1  1  0  0  0  0
 11  7  1  0  0  0  0
 12  8  1  0  0  0  0
 14 19  1  0  0  0  0
 14 20  1  0  0  0  0
 15 14  2  0  0  0  0
 16 17  2  0  0  0  0
 16 15  1  0  0  0  0
 17 18  1  0  0  0  0
 18  6  1  0  0  0  0
 18 19  2  0  0  0  0
 21 15  1  0  0  0  0
 22 23  1  0  0  0  0
 22 16  1  0  0  0  0
 24 22  1  0  0  0  0
 25 28  1  0  0  0  0
 25 27  1  0  0  0  0
 26 25  1  0  0  0  0
 30 29  2  6  0  0  0
 30 33  1  0  0  0  0
 30 28  1  0  0  0  0
 31 32  1  0  0  0  0
 31 30  1  0  0  0  0
 34 43  1  0  0  0  0
 35 34  2  0  0  0  0
 35 33  1  0  0  0  0
 36 35  1  0  0  0  0
 37 36  1  0  0  0  0
 38 36  2  0  0  0  0
 38 40  1  0  0  0  0
 39 38  1  0  0  0  0
 40 41  2  0  0  0  0
 41 34  1  0  0  0  0
 42 45  1  0  0  0  0
 43 42  2  0  0  0  0
 43 44  1  0  0  0  0
 44 46  1  0  0  0  0
 44 47  1  0  0  0  0
M  END
>  <minimizedAffinity>
-6.71830273

>  <minimizedRMSD>
1.26807022

$$$$
