
 OpenBabel03272501443D

 39 40  0  0  0  0  0  0  0  0999 V2000
   35.9460   29.5130   48.7580 C   0  0  0  0  0  0  0  0  0  0  0  0
   35.8460   30.2180   47.5180 C   0  0  0  0  0  0  0  0  0  0  0  0
   34.6570   30.1160   46.8130 C   0  0  0  0  0  0  0  0  0  0  0  0
   33.6590   29.3600   47.3290 N   0  0  0  0  0  0  0  0  0  0  0  0
   33.7690   28.7040   48.4940 C   0  0  0  0  0  0  0  0  0  0  0  0
   34.9130   28.7850   49.2000 N   0  0  0  0  0  0  0  0  0  0  0  0
   36.7840   29.4710   49.4370 H   0  0  0  0  0  0  0  0  0  0  0  0
   34.6050   30.6470   45.8960 H   0  0  0  0  0  0  0  0  0  0  0  0
   37.7200   31.6130   48.1670 C   0  0  0  0  0  0  0  0  0  0  0  0
   37.0200   30.9730   47.1510 C   0  0  0  0  0  0  0  0  0  0  0  0
   37.5080   31.1230   45.8750 C   0  0  0  0  0  0  0  0  0  0  0  0
   38.6440   31.8780   45.6220 C   0  0  0  0  0  0  0  0  0  0  0  0
   39.3300   32.1950   44.5230 N   0  0  0  0  0  0  0  0  0  0  0  0
   40.3660   32.9650   44.8290 C   0  0  0  0  0  0  0  0  0  0  0  0
   40.3770   33.1700   46.1680 N   0  0  0  0  0  0  0  0  0  0  0  0
   39.3190   32.5020   46.6550 C   0  0  0  0  0  0  0  0  0  0  0  0
   38.8510   32.3670   47.9370 C   0  0  0  0  0  0  0  0  0  0  0  0
   37.4640   31.5980   49.2350 H   0  0  0  0  0  0  0  0  0  0  0  0
   36.9730   30.6290   45.0650 H   0  0  0  0  0  0  0  0  0  0  0  0
   39.0170   31.8370   43.5790 H   0  0  0  0  0  0  0  0  0  0  0  0
   41.0290   33.3110   44.0330 H   0  0  0  0  0  0  0  0  0  0  0  0
   39.4140   32.8760   48.7270 H   0  0  0  0  0  0  0  0  0  0  0  0
   32.6360   27.8790   49.0270 C   0  0  0  0  0  0  0  0  0  0  0  0
   33.0000   27.2820   49.9170 H   0  0  0  0  0  0  0  0  0  0  0  0
   31.8780   28.5520   49.4590 H   0  0  0  0  0  0  0  0  0  0  0  0
   30.9210   27.1730   47.3490 C   0  0  0  0  0  0  0  0  0  0  0  0
   32.1280   26.9930   47.9790 C   0  0  0  0  0  0  0  0  0  0  0  0
   32.9050   25.9300   47.5920 C   0  0  0  0  0  0  0  0  0  0  0  0
   33.8710   25.7510   48.0670 H   0  0  0  0  0  0  0  0  0  0  0  0
   32.4320   25.1150   46.5990 C   0  0  0  0  0  0  0  0  0  0  0  0
   33.0050   24.2650   46.2590 H   0  0  0  0  0  0  0  0  0  0  0  0
   31.2240   25.2870   45.9610 C   0  0  0  0  0  3  0  0  0  0  0  0
   30.4320   26.3460   46.3380 C   0  0  0  0  0  3  0  0  0  0  0  0
   29.1810   28.7960   48.5010 N   0  0  0  0  0  0  0  0  0  0  0  0
   30.0360   28.2510   47.7210 C   0  0  0  0  0  3  0  0  0  0  0  0
   29.9750   29.3940   46.8850 N   0  0  0  0  0  1  0  0  0  0  0  0
   28.8400   28.3320   49.3620 H   0  0  0  0  0  0  0  0  0  0  0  0
   30.5160   29.7810   46.0850 H   0  0  0  0  0 15  0  0  0  0  0  0
   29.9250   30.2230   46.2860 H   0  0  0  0  0  0  0  0  0  0  0  0
  1  6  1  0  0  0  0
  1  7  1  0  0  0  0
  2  1  2  0  0  0  0
  3  4  2  0  0  0  0
  3  2  1  0  0  0  0
  4  5  1  0  0  0  0
  5 23  1  0  0  0  0
  5  6  2  0  0  0  0
  8  3  1  0  0  0  0
  9 18  1  0  0  0  0
 10  2  1  0  0  0  0
 10  9  2  0  0  0  0
 11 10  1  0  0  0  0
 12 11  2  0  0  0  0
 12 16  1  0  0  0  0
 13 14  1  0  0  0  0
 13 12  1  0  0  0  0
 14 15  2  0  0  0  0
 15 16  1  0  0  0  0
 16 17  2  0  0  0  0
 17  9  1  0  0  0  0
 17 22  1  0  0  0  0
 19 11  1  0  0  0  0
 20 13  1  0  0  0  0
 21 14  1  0  0  0  0
 23 25  1  0  0  0  0
 23 24  1  0  0  0  0
 26 35  1  0  0  0  0
 26 27  1  0  0  0  0
 27 23  1  0  0  0  0
 28 27  2  0  0  0  0
 28 29  1  0  0  0  0
 30 28  1  0  0  0  0
 31 30  1  0  0  0  0
 32 33  1  0  0  0  0
 32 30  2  0  0  0  0
 33 26  2  0  0  0  0
 34 37  1  0  0  0  0
 35 34  2  0  0  0  0
 39 36  1  0  0  0  0
M  END
>  <minimizedAffinity>
-6.06760979

>  <minimizedRMSD>
2.46148086

$$$$
