
 OpenBabel03272507553D

 28 29  0  0  0  0  0  0  0  0999 V2000
   33.1590   28.2180   49.3100 C   0  0  0  0  0  0  0  0  0  0  0  0
   34.2100   29.1720   49.2050 C   0  0  0  0  0  0  0  0  0  0  0  0
   35.1410   29.0230   48.1910 C   0  0  0  0  0  0  0  0  0  0  0  0
   35.0130   27.9730   47.3360 N   0  0  0  0  0  0  0  0  0  0  0  0
   33.9970   27.0730   47.4570 C   0  0  0  0  0  0  0  0  0  0  0  0
   33.0760   27.1840   48.4280 N   0  0  0  0  0  0  0  0  0  0  0  0
   34.0090   26.0650   46.4590 N   0  0  0  0  0  0  0  0  0  0  0  0
   32.4260   28.3300   50.1000 H   0  0  0  0  0  0  0  0  0  0  0  0
   33.0860   26.1130   45.9550 H   0  0  0  0  0  0  0  0  0  0  0  0
   34.7020   25.3720   46.1810 H   0  0  0  0  0  0  0  0  0  0  0  0
   37.4700   30.1180   48.6290 C   0  0  0  0  0  0  0  0  0  0  0  0
   36.2780   29.9040   47.9770 C   0  0  0  0  0  0  0  0  0  0  0  0
   36.0940   30.5860   46.7620 C   0  0  0  0  0  0  0  0  0  0  0  0
   35.2790   30.5870   46.0150 H   0  0  0  0  0  0  0  0  0  0  0  0
   37.0590   31.4260   46.2550 C   0  0  0  0  0  0  0  0  0  0  0  0
   37.0460   32.0100   45.3420 H   0  0  0  0  0  0  0  0  0  0  0  0
   38.2630   31.6330   46.9260 C   0  0  0  0  0  3  0  0  0  0  0  0
   38.4380   30.9490   48.1340 C   0  0  0  0  0  3  0  0  0  0  0  0
   38.3730   30.1830   50.5240 N   0  0  0  0  0  0  0  0  0  0  0  0
   37.5730   29.3720   49.8750 C   0  0  0  0  0  0  0  0  0  0  0  0
   37.0740   28.1590   50.4230 N   0  0  0  0  0  0  0  0  0  0  0  0
   38.6340   29.8920   51.4900 H   0  0  0  0  0  0  0  0  0  0  0  0
   37.7380   27.7630   51.1430 H   0  0  0  0  0  0  0  0  0  0  0  0
   36.1520   27.7840   50.0890 H   0  0  0  0  0  0  0  0  0  0  0  0
   34.2680   30.2650   50.2100 C   0  0  0  0  0  0  0  0  0  0  0  0
   35.3800   30.1610   51.0380 F   0  0  0  0  0  0  0  0  0  0  0  0
   34.3720   31.4450   49.5320 F   0  0  0  0  0  0  0  0  0  0  0  0
   33.1500   30.3150   51.0160 F   0  0  0  0  0  0  0  0  0  0  0  0
  1  8  1  0  0  0  0
  2  1  1  0  0  0  0
  2 25  1  0  0  0  0
  3  2  2  0  0  0  0
  4  5  2  0  0  0  0
  4  3  1  0  0  0  0
  5  6  1  0  0  0  0
  6  1  2  0  0  0  0
  7  5  1  0  0  0  0
  9  7  1  0  0  0  0
 10  7  1  0  0  0  0
 11 20  1  0  0  0  0
 12  3  1  0  0  0  0
 12 11  2  0  0  0  0
 13 12  1  0  0  0  0
 14 13  1  0  0  0  0
 15 13  2  0  0  0  0
 15 17  1  0  0  0  0
 16 15  1  0  0  0  0
 17 18  2  0  0  0  0
 18 11  1  0  0  0  0
 19 22  1  0  0  0  0
 20 21  1  0  0  0  0
 20 19  2  0  0  0  0
 21 23  1  0  0  0  0
 24 21  1  0  0  0  0
 25 28  1  0  0  0  0
 25 26  1  0  0  0  0
 27 25  1  0  0  0  0
M  END
>  <minimizedAffinity>
-3.31948423

>  <minimizedRMSD>
2.59486699

$$$$
