
 OpenBabel03272508273D

 43 46  0  0  1  0  0  0  0  0999 V2000
   33.6050   27.8490   44.0400 C   0  0  2  0  0  0  0  0  0  0  0  0
   34.3350   26.7530   43.2710 C   0  0  2  0  0  0  0  0  0  0  0  0
   34.7480   25.8610   44.2240 O   0  0  0  0  0  0  0  0  0  0  0  0
   33.9670   25.9470   45.3450 C   0  0  0  0  0  0  0  0  0  0  0  0
   32.8870   26.9800   45.0780 C   0  0  1  0  0  0  0  0  0  0  0  0
   34.2900   28.5150   44.5730 H   0  0  0  0  0  0  0  0  0  0  0  0
   33.5840   26.3110   42.5880 H   0  0  0  0  0  0  0  0  0  0  0  0
   33.4160   24.9950   45.5210 H   0  0  0  0  0  0  0  0  0  0  0  0
   34.5770   26.2840   46.1890 H   0  0  0  0  0  0  0  0  0  0  0  0
   32.0360   26.5410   44.5290 H   0  0  0  0  0  0  0  0  0  0  0  0
   36.4640   28.2280   43.2630 C   0  0  1  0  0  0  0  0  0  0  0  0
   35.4960   27.4010   42.5820 C   0  0  1  0  0  0  0  0  0  0  0  0
   36.8850   26.8630   42.6990 C   0  0  0  0  0  0  0  0  0  0  0  0
   36.6960   28.2700   44.3380 H   0  0  0  0  0  0  0  0  0  0  0  0
   35.2020   27.7570   41.5500 H   0  0  0  0  0  0  0  0  0  0  0  0
   37.5110   26.8260   41.7920 H   0  0  0  0  0  0  0  0  0  0  0  0
   37.0880   26.0320   43.3890 H   0  0  0  0  0  0  0  0  0  0  0  0
   37.1580   29.3690   42.5360 C   0  0  0  0  0  0  0  0  0  0  0  0
   38.3720   29.8280   43.0880 C   0  0  0  0  0  0  0  0  0  0  0  0
   38.9490   30.8910   42.4000 C   0  0  0  0  0  0  0  0  0  0  0  0
   38.3590   31.4230   41.2860 N   0  0  0  0  0  0  0  0  0  0  0  0
   37.2010   30.9430   40.8090 C   0  0  0  0  0  0  0  0  0  0  0  0
   36.5770   29.9040   41.4260 N   0  0  0  0  0  0  0  0  0  0  0  0
   38.7790   29.3690   43.9580 H   0  0  0  0  0  0  0  0  0  0  0  0
   39.8790   31.2340   42.8320 H   0  0  0  0  0  0  0  0  0  0  0  0
   36.7830   31.4030   39.9240 H   0  0  0  0  0  0  0  0  0  0  0  0
   32.6970   28.5480   43.2700 O   0  0  0  0  0  0  0  0  0  0  0  0
   32.4680   28.0830   42.4300 H   0  0  0  0  0  0  0  0  0  0  0  0
   32.5280   27.6870   46.1810 O   0  0  0  0  0  0  0  0  0  0  0  0
   30.6600   28.9000   46.5060 C   0  0  0  0  0  0  0  0  0  0  0  0
   31.2490   27.6410   46.6940 C   0  0  0  0  0  0  0  0  0  0  0  0
   30.4860   26.6730   47.3110 C   0  0  0  0  0  0  0  0  0  0  0  0
   31.0380   25.7520   47.4000 H   0  0  0  0  0  0  0  0  0  0  0  0
   29.2010   26.9410   47.7210 C   0  0  0  0  0  0  0  0  0  0  0  0
   28.6910   26.1140   48.1940 H   0  0  0  0  0  0  0  0  0  0  0  0
   28.6050   28.1710   47.5450 C   0  0  0  0  0  3  0  0  0  0  0  0
   29.3500   29.1560   46.9300 C   0  0  0  0  0  3  0  0  0  0  0  0
   30.8820   30.7000   44.7880 N   0  0  0  0  0  0  0  0  0  0  0  0
   31.2630   30.0920   45.8770 C   0  0  0  0  0  0  0  0  0  0  0  0
   32.3900   30.7910   46.3720 N   0  0  0  0  0  0  0  0  0  0  0  0
   30.0400   30.3130   44.2730 H   0  0  0  0  0  0  0  0  0  0  0  0
   33.3690   30.5190   46.0800 H   0  0  0  0  0  0  0  0  0  0  0  0
   32.5500   31.5860   47.0130 H   0  0  0  0  0  0  0  0  0  0  0  0
  1  6  1  1  0  0  0
  1  5  1  0  0  0  0
  2  7  1  6  0  0  0
  2  1  1  0  0  0  0
  2  3  1  0  0  0  0
  3  4  1  0  0  0  0
  4  8  1  0  0  0  0
  4  9  1  0  0  0  0
  5 10  1  6  0  0  0
  5  4  1  0  0  0  0
  5 29  1  0  0  0  0
 11 14  1  1  0  0  0
 12 15  1  6  0  0  0
 12 13  1  0  0  0  0
 12 11  1  0  0  0  0
 12  2  1  0  0  0  0
 13 11  1  0  0  0  0
 13 17  1  0  0  0  0
 16 13  1  0  0  0  0
 18 19  1  0  0  0  0
 18 11  1  0  0  0  0
 19 24  1  0  0  0  0
 20 25  1  0  0  0  0
 20 19  2  0  0  0  0
 21 20  1  0  0  0  0
 22 21  2  0  0  0  0
 22 23  1  0  0  0  0
 23 18  2  0  0  0  0
 26 22  1  0  0  0  0
 27  1  1  0  0  0  0
 28 27  1  0  0  0  0
 29 31  1  0  0  0  0
 30 31  2  0  0  0  0
 30 37  1  0  0  0  0
 31 32  1  0  0  0  0
 32 33  1  0  0  0  0
 32 34  2  0  0  0  0
 34 35  1  0  0  0  0
 36 34  1  0  0  0  0
 37 36  2  0  0  0  0
 38 39  2  0  0  0  0
 39 40  1  0  0  0  0
 39 30  1  0  0  0  0
 40 43  1  0  0  0  0
 41 38  1  0  0  0  0
 42 40  1  0  0  0  0
M  END
>  <minimizedAffinity>
-2.9226191

>  <minimizedRMSD>
4.98967743

$$$$
