
 OpenBabel03272504573D

 38 40  0  0  1  0  0  0  0  0999 V2000
   35.9770   29.0360   48.9790 O   0  0  0  0  0  0  0  0  0  0  0  0
   37.8590   30.4900   49.4010 C   0  0  1  0  0  0  0  0  0  0  0  0
   37.0240   30.5690   50.5730 C   0  0  0  0  0  0  0  0  0  0  0  0
   36.4150   30.3460   49.2270 C   0  0  2  0  0  0  0  0  0  0  0  0
   38.4560   29.5470   49.1370 H   0  0  0  0  0  0  0  0  0  0  0  0
   37.4100   29.8780   51.2960 H   0  0  0  0  0  0  0  0  0  0  0  0
   36.8720   31.5770   51.0110 H   0  0  0  0  0  0  0  0  0  0  0  0
   35.6710   31.0900   49.0230 H   0  0  0  0  0  0  0  0  0  0  0  0
   38.4990   31.7200   48.8270 C   0  0  0  0  0  0  0  0  0  0  0  0
   38.6150   32.8240   49.7080 C   0  0  0  0  0  0  0  0  0  0  0  0
   39.1990   33.9350   49.1600 C   0  0  0  0  0  0  0  0  0  0  0  0
   39.6220   33.9220   47.8530 N   0  0  0  0  0  0  0  0  0  0  0  0
   39.4890   32.8460   47.0570 C   0  0  0  0  0  0  0  0  0  0  0  0
   38.9080   31.7160   47.5690 N   0  0  0  0  0  0  0  0  0  0  0  0
   39.9110   32.8290   45.7140 N   0  0  0  0  0  0  0  0  0  0  0  0
   38.2820   32.8340   50.7350 H   0  0  0  0  0  0  0  0  0  0  0  0
   39.3150   34.8110   49.7880 H   0  0  0  0  0  0  0  0  0  0  0  0
   40.6820   32.3350   45.2180 H   0  0  0  0  0  0  0  0  0  0  0  0
   39.2120   33.4860   45.2850 H   0  0  0  0  0  0  0  0  0  0  0  0
   33.8620   27.5620   49.0570 O   0  0  0  0  0  0  0  0  0  0  0  0
   34.3140   28.9780   48.9040 P   0  0  1  0  0  0  0  0  0  0  0  0
   33.6440   29.8230   50.2510 O   0  0  0  0  0  0  0  0  0  0  0  0
   33.6710   29.2180   51.0460 H   0  0  0  0  0  0  0  0  0  0  0  0
   33.8110   29.6960   47.4610 O   0  0  0  0  0  0  0  0  0  0  0  0
   32.7660   29.6480   45.3800 C   0  0  0  0  0  0  0  0  0  0  0  0
   32.7640   29.1940   46.6980 C   0  0  0  0  0  0  0  0  0  0  0  0
   31.7800   28.3280   47.1320 C   0  0  0  0  0  0  0  0  0  0  0  0
   31.8480   28.0220   48.1630 H   0  0  0  0  0  0  0  0  0  0  0  0
   30.7930   27.9060   46.2610 C   0  0  0  0  0  0  0  0  0  0  0  0
   30.0300   27.2210   46.6350 H   0  0  0  0  0  0  0  0  0  0  0  0
   30.8070   28.3660   44.9540 C   0  0  0  0  0  3  0  0  0  0  0  0
   31.7770   29.2230   44.5170 C   0  0  0  0  0  3  0  0  0  0  0  0
   33.5870   31.6590   44.1940 N   0  0  0  0  0  0  0  0  0  0  0  0
   33.7670   30.5620   44.8490 C   0  0  0  0  0  0  0  0  0  0  0  0
   35.1110   30.2300   45.0620 N   0  0  0  0  0  0  0  0  0  0  0  0
   32.6410   32.0460   43.9550 H   0  0  0  0  0  0  0  0  0  0  0  0
   36.1070   29.9900   45.2230 H   0  0  0  0  0  0  0  0  0  0  0  0
   35.3130   29.3630   44.5380 H   0  0  0  0  0  0  0  0  0  0  0  0
  1  4  1  0  0  0  0
  2  5  1  6  0  0  0
  2  3  1  0  0  0  0
  3  7  1  0  0  0  0
  3  6  1  0  0  0  0
  4  8  1  6  0  0  0
  4  2  1  0  0  0  0
  4  3  1  0  0  0  0
  9  2  1  0  0  0  0
  9 10  1  0  0  0  0
 10 16  1  0  0  0  0
 11 10  2  0  0  0  0
 11 17  1  0  0  0  0
 12 11  1  0  0  0  0
 13 14  1  0  0  0  0
 13 12  2  0  0  0  0
 14  9  2  0  0  0  0
 15 13  1  0  0  0  0
 18 15  1  0  0  0  0
 19 15  1  0  0  0  0
 21  1  1  0  0  0  0
 21 20  2  1  0  0  0
 21 22  1  0  0  0  0
 22 23  1  0  0  0  0
 24 21  1  0  0  0  0
 25 26  1  0  0  0  0
 26 27  2  0  0  0  0
 26 24  1  0  0  0  0
 27 28  1  0  0  0  0
 29 30  1  0  0  0  0
 29 27  1  0  0  0  0
 31 29  2  0  0  0  0
 32 31  1  0  0  0  0
 32 25  2  0  0  0  0
 33 34  2  0  0  0  0
 34 35  1  0  0  0  0
 34 25  1  0  0  0  0
 35 37  1  0  0  0  0
 36 33  1  0  0  0  0
 38 35  1  0  0  0  0
M  END
>  <minimizedAffinity>
-5.34787941

>  <minimizedRMSD>
1.21042335

$$$$
