
 OpenBabel03262523593D

 34 36  0  0  0  0  0  0  0  0999 V2000
   33.1180   28.4640   48.5560 C   0  0  0  0  0  0  0  0  0  0  0  0
   33.9630   29.1840   47.6590 C   0  0  0  0  0  0  0  0  0  0  0  0
   34.0450   28.6990   46.3700 C   0  0  0  0  0  0  0  0  0  0  0  0
   33.3390   27.5900   46.0210 N   0  0  0  0  0  0  0  0  0  0  0  0
   32.5530   26.9390   46.8900 C   0  0  0  0  0  0  0  0  0  0  0  0
   32.4290   27.3700   48.1870 N   0  0  0  0  0  0  0  0  0  0  0  0
   32.9970   28.7810   49.5970 H   0  0  0  0  0  0  0  0  0  0  0  0
   34.6650   29.2290   45.6910 H   0  0  0  0  0  0  0  0  0  0  0  0
   29.6630   27.5270   45.8850 Br  0  0  0  0  0  0  0  0  0  0  0  0
   30.5030   25.8410   46.0690 C   0  0  0  0  0  0  0  0  0  0  0  0
   31.7860   25.7510   46.5280 C   0  0  0  0  0  0  0  0  0  0  0  0
   32.3390   24.4730   46.6370 C   0  0  0  0  0  0  0  0  0  0  0  0
   31.6750   23.3110   46.3130 C   0  0  0  0  0  0  0  0  0  0  0  0
   30.3660   23.4660   45.8500 C   0  0  0  0  0  0  0  0  0  0  0  0
   29.7960   24.7360   45.7350 C   0  0  0  0  0  0  0  0  0  0  0  0
   33.3630   24.3890   47.0010 H   0  0  0  0  0  0  0  0  0  0  0  0
   32.1720   22.3720   46.4260 H   0  0  0  0  0  0  0  0  0  0  0  0
   29.8170   22.5670   45.5870 H   0  0  0  0  0  0  0  0  0  0  0  0
   28.7660   24.7240   45.3610 H   0  0  0  0  0  0  0  0  0  0  0  0
   34.6010   30.2800   48.1670 O   0  0  0  0  0  0  0  0  0  0  0  0
   37.0850   30.7540   48.0460 C   0  0  0  0  0  0  0  0  0  0  0  0
   35.8560   30.4890   48.5780 C   0  0  0  0  0  0  0  0  0  0  0  0
   35.8570   30.3980   49.9790 C   0  0  0  0  0  0  0  0  0  0  0  0
   35.0340   30.1970   50.6860 H   0  0  0  0  0  0  0  0  0  0  0  0
   37.0320   30.5700   50.7220 C   0  0  0  0  0  0  0  0  0  0  0  0
   37.1280   30.5170   51.7960 H   0  0  0  0  0  0  0  0  0  0  0  0
   38.2320   30.8350   50.1010 C   0  0  0  0  0  3  0  0  0  0  0  0
   38.2630   30.9300   48.7310 C   0  0  0  0  0  3  0  0  0  0  0  0
   37.3710   32.0200   46.0990 N   0  0  0  0  0  0  0  0  0  0  0  0
   37.1340   30.8460   46.6070 C   0  0  0  0  0  0  0  0  0  0  0  0
   37.0650   30.2860   45.3400 N   0  0  0  0  0  0  0  0  0  0  0  0
   37.5120   32.8630   46.6890 H   0  0  0  0  0  0  0  0  0  0  0  0
   37.8710   29.8010   44.8480 H   0  0  0  0  0  0  0  0  0  0  0  0
   36.3090   30.2160   44.6560 H   0  0  0  0  0  0  0  0  0  0  0  0
  1  7  1  0  0  0  0
  2 20  1  0  0  0  0
  2  1  2  0  0  0  0
  3  2  1  0  0  0  0
  4  3  2  0  0  0  0
  4  5  1  0  0  0  0
  5  6  2  0  0  0  0
  6  1  1  0  0  0  0
  8  3  1  0  0  0  0
  9 10  1  0  0  0  0
 10 11  1  0  0  0  0
 11 12  2  0  0  0  0
 11  5  1  0  0  0  0
 12 16  1  0  0  0  0
 13 17  1  0  0  0  0
 13 12  1  0  0  0  0
 14 13  2  0  0  0  0
 15 14  1  0  0  0  0
 15 10  2  0  0  0  0
 18 14  1  0  0  0  0
 19 15  1  0  0  0  0
 20 22  1  0  0  0  0
 21 22  2  0  0  0  0
 21 28  1  0  0  0  0
 22 23  1  0  0  0  0
 23 24  1  0  0  0  0
 23 25  2  0  0  0  0
 25 26  1  0  0  0  0
 27 25  1  0  0  0  0
 28 27  2  0  0  0  0
 29 30  2  0  0  0  0
 29 32  1  0  0  0  0
 30 21  1  0  0  0  0
 31 30  1  0  0  0  0
 33 31  1  0  0  0  0
 34 31  1  0  0  0  0
M  END
>  <minimizedAffinity>
-4.98879433

>  <minimizedRMSD>
6.76730013

$$$$
