
 OpenBabel03272504393D

 47 49  0  0  0  0  0  0  0  0999 V2000
   34.9050   29.4460   48.9040 C   0  0  0  0  0  0  0  0  0  0  0  0
   35.8090   29.5150   49.5450 H   0  0  0  0  0  0  0  0  0  0  0  0
   34.2390   30.2680   49.3050 H   0  0  0  0  0  0  0  0  0  0  0  0
   37.6450   30.5270   48.5550 Cl  0  0  0  0  0  0  0  0  0  0  0  0
   36.4920   30.3360   47.2350 C   0  0  0  0  0  0  0  0  0  0  0  0
   36.8590   30.7020   45.9750 C   0  0  0  0  0  0  0  0  0  0  0  0
   35.9740   30.5580   44.9420 C   0  0  0  0  0  0  0  0  0  0  0  0
   34.7170   30.0420   45.2010 C   0  0  0  0  0  0  0  0  0  0  0  0
   34.3930   29.6830   46.5110 C   0  0  0  0  0  0  0  0  0  0  0  0
   35.2590   29.8170   47.5530 C   0  0  0  0  0  0  0  0  0  0  0  0
   36.3060   30.8640   43.9420 H   0  0  0  0  0  0  0  0  0  0  0  0
   34.1000   29.9730   44.3120 H   0  0  0  0  0  0  0  0  0  0  0  0
   33.4260   29.3230   46.4990 H   0  0  0  0  0  0  0  0  0  0  0  0
   39.8630   32.8480   45.9920 C   0  0  0  0  0  0  0  0  0  0  0  0
   40.7190   32.1250   45.1120 C   0  0  0  0  0  0  0  0  0  0  0  0
   40.2300   30.9390   44.5540 C   0  0  0  0  0  0  0  0  0  0  0  0
   38.9740   30.5310   44.8730 N   0  0  0  0  0  0  0  0  0  0  0  0
   38.1860   31.2460   45.7160 C   0  0  0  0  0  0  0  0  0  0  0  0
   38.6340   32.3810   46.2570 N   0  0  0  0  0  0  0  0  0  0  0  0
   40.2340   33.7720   46.4300 H   0  0  0  0  0  0  0  0  0  0  0  0
   41.7020   32.5330   44.9220 H   0  0  0  0  0  0  0  0  0  0  0  0
   41.0990   30.2420   43.6860 N   0  0  0  0  0  0  0  0  0  0  0  0
   41.9490   29.9490   44.2300 H   0  0  0  0  0  0  0  0  0  0  0  0
   40.6510   30.2150   42.7410 H   0  0  0  0  0  0  0  0  0  0  0  0
   34.2550   28.1620   49.1480 C   0  0  0  0  0  0  0  0  0  0  0  0
   34.3330   27.5410   48.2080 H   0  0  0  0  0  0  0  0  0  0  0  0
   34.7760   27.5460   49.9200 H   0  0  0  0  0  0  0  0  0  0  0  0
   32.9360   28.3130   49.4920 O   0  0  0  0  0  0  0  0  0  0  0  0
   32.6400   26.5460   47.5660 O   0  0  0  0  0  0  0  0  0  0  0  0
   31.9370   27.6440   48.3260 P   0  0  2  0  0  0  0  0  0  0  0  0
   31.4800   28.9270   47.2810 O   0  0  0  0  0  0  0  0  0  0  0  0
   31.1320   29.6260   47.8900 H   0  0  0  0  0  0  0  0  0  0  0  0
   30.5250   27.0360   48.9740 O   0  0  0  0  0  0  0  0  0  0  0  0
   28.3690   27.8780   48.9230 C   0  0  0  0  0  0  0  0  0  0  0  0
   29.3430   27.1480   48.2520 C   0  0  0  0  0  0  0  0  0  0  0  0
   29.0640   26.6310   47.0050 C   0  0  0  0  0  0  0  0  0  0  0  0
   29.8560   26.0840   46.5510 H   0  0  0  0  0  0  0  0  0  0  0  0
   27.8290   26.8350   46.4230 C   0  0  0  0  0  0  0  0  0  0  0  0
   27.6250   26.4240   45.4450 H   0  0  0  0  0  0  0  0  0  0  0  0
   26.8380   27.5600   47.0700 C   0  0  0  0  0  3  0  0  0  0  0  0
   27.1410   28.0650   48.3150 C   0  0  0  0  0  3  0  0  0  0  0  0
   28.6480   29.7350   50.3620 N   0  0  0  0  0  0  0  0  0  0  0  0
   28.5650   28.4680   50.2500 C   0  0  0  0  0  0  0  0  0  0  0  0
   28.6470   27.5250   51.3380 N   0  0  0  0  0  0  0  0  0  0  0  0
   28.7840   30.2310   51.2480 H   0  0  0  0  0  0  0  0  0  0  0  0
   29.3460   26.8850   51.7490 H   0  0  0  0  0  0  0  0  0  0  0  0
   27.7860   27.4090   51.9150 H   0  0  0  0  0  0  0  0  0  0  0  0
  1 25  1  0  0  0  0
  1  3  1  0  0  0  0
  1  2  1  0  0  0  0
  5 10  1  0  0  0  0
  5  4  1  0  0  0  0
  6  5  2  0  0  0  0
  7  8  2  0  0  0  0
  7  6  1  0  0  0  0
  8  9  1  0  0  0  0
  9 10  2  0  0  0  0
 10  1  1  0  0  0  0
 11  7  1  0  0  0  0
 12  8  1  0  0  0  0
 13  9  1  0  0  0  0
 14 19  1  0  0  0  0
 14 20  1  0  0  0  0
 15 14  2  0  0  0  0
 16 17  2  0  0  0  0
 16 15  1  0  0  0  0
 17 18  1  0  0  0  0
 18  6  1  0  0  0  0
 18 19  2  0  0  0  0
 21 15  1  0  0  0  0
 22 23  1  0  0  0  0
 22 16  1  0  0  0  0
 24 22  1  0  0  0  0
 25 28  1  0  0  0  0
 25 27  1  0  0  0  0
 26 25  1  0  0  0  0
 30 29  2  6  0  0  0
 30 33  1  0  0  0  0
 30 28  1  0  0  0  0
 31 32  1  0  0  0  0
 31 30  1  0  0  0  0
 34 43  1  0  0  0  0
 35 34  2  0  0  0  0
 35 33  1  0  0  0  0
 36 35  1  0  0  0  0
 37 36  1  0  0  0  0
 38 36  2  0  0  0  0
 38 40  1  0  0  0  0
 39 38  1  0  0  0  0
 40 41  2  0  0  0  0
 41 34  1  0  0  0  0
 42 45  1  0  0  0  0
 43 42  2  0  0  0  0
 43 44  1  0  0  0  0
 44 46  1  0  0  0  0
 44 47  1  0  0  0  0
M  END
>  <minimizedAffinity>
-6.89728069

>  <minimizedRMSD>
0.838400245

$$$$
