
 OpenBabel03272501443D

 39 40  0  0  0  0  0  0  0  0999 V2000
   35.8810   29.4920   48.7300 C   0  0  0  0  0  0  0  0  0  0  0  0
   35.8030   30.1980   47.4900 C   0  0  0  0  0  0  0  0  0  0  0  0
   34.6520   30.0450   46.7330 C   0  0  0  0  0  0  0  0  0  0  0  0
   33.6690   29.2410   47.2010 N   0  0  0  0  0  0  0  0  0  0  0  0
   33.7570   28.5840   48.3680 C   0  0  0  0  0  0  0  0  0  0  0  0
   34.8640   28.7150   49.1240 N   0  0  0  0  0  0  0  0  0  0  0  0
   36.6900   29.4840   49.4450 H   0  0  0  0  0  0  0  0  0  0  0  0
   34.6160   30.5780   45.8160 H   0  0  0  0  0  0  0  0  0  0  0  0
   37.7210   31.4790   48.2370 C   0  0  0  0  0  0  0  0  0  0  0  0
   36.9550   31.0090   47.1770 C   0  0  0  0  0  0  0  0  0  0  0  0
   37.3640   31.3650   45.9140 C   0  0  0  0  0  0  0  0  0  0  0  0
   38.4860   32.1560   45.7150 C   0  0  0  0  0  0  0  0  0  0  0  0
   39.1040   32.6500   44.6420 N   0  0  0  0  0  0  0  0  0  0  0  0
   40.1610   33.3650   45.0030 C   0  0  0  0  0  0  0  0  0  0  0  0
   40.2560   33.3520   46.3540 N   0  0  0  0  0  0  0  0  0  0  0  0
   39.2270   32.6090   46.7920 C   0  0  0  0  0  0  0  0  0  0  0  0
   38.8390   32.2660   48.0620 C   0  0  0  0  0  0  0  0  0  0  0  0
   37.5320   31.2910   49.3020 H   0  0  0  0  0  0  0  0  0  0  0  0
   36.7770   31.0050   45.0700 H   0  0  0  0  0  0  0  0  0  0  0  0
   38.7310   32.4470   43.6740 H   0  0  0  0  0  0  0  0  0  0  0  0
   40.7740   33.8380   44.2340 H   0  0  0  0  0  0  0  0  0  0  0  0
   39.4520   32.6440   48.8870 H   0  0  0  0  0  0  0  0  0  0  0  0
   32.6410   27.7060   48.8480 C   0  0  0  0  0  0  0  0  0  0  0  0
   32.8940   27.3180   49.8810 H   0  0  0  0  0  0  0  0  0  0  0  0
   31.7460   28.3270   49.0160 H   0  0  0  0  0  0  0  0  0  0  0  0
   31.2110   26.2260   47.4270 C   0  0  0  0  0  0  0  0  0  0  0  0
   32.4400   26.5990   47.9130 C   0  0  0  0  0  0  0  0  0  0  0  0
   33.5410   25.9010   47.4830 C   0  0  0  0  0  0  0  0  0  0  0  0
   34.5380   26.1640   47.8440 H   0  0  0  0  0  0  0  0  0  0  0  0
   33.3480   24.8770   46.5950 C   0  0  0  0  0  0  0  0  0  0  0  0
   34.1820   24.2980   46.2260 H   0  0  0  0  0  0  0  0  0  0  0  0
   32.1200   24.4970   46.1010 C   0  0  0  0  0  3  0  0  0  0  0  0
   31.0060   25.1860   46.5220 C   0  0  0  0  0  3  0  0  0  0  0  0
   29.0520   27.0920   48.6860 N   0  0  0  0  0  0  0  0  0  0  0  0
   30.0040   26.8950   47.8540 C   0  0  0  0  0  3  0  0  0  0  0  0
   29.4620   27.9080   47.0230 N   0  0  0  0  0  1  0  0  0  0  0  0
   28.9660   26.5550   49.5660 H   0  0  0  0  0  0  0  0  0  0  0  0
   29.7660   28.4510   46.1890 H   0  0  0  0  0 15  0  0  0  0  0  0
   29.0640   28.6390   46.4270 H   0  0  0  0  0  0  0  0  0  0  0  0
  1  6  1  0  0  0  0
  1  7  1  0  0  0  0
  2  1  2  0  0  0  0
  3  4  2  0  0  0  0
  3  2  1  0  0  0  0
  4  5  1  0  0  0  0
  5 23  1  0  0  0  0
  5  6  2  0  0  0  0
  8  3  1  0  0  0  0
  9 18  1  0  0  0  0
 10  2  1  0  0  0  0
 10  9  2  0  0  0  0
 11 10  1  0  0  0  0
 12 11  2  0  0  0  0
 12 16  1  0  0  0  0
 13 14  1  0  0  0  0
 13 12  1  0  0  0  0
 14 15  2  0  0  0  0
 15 16  1  0  0  0  0
 16 17  2  0  0  0  0
 17  9  1  0  0  0  0
 17 22  1  0  0  0  0
 19 11  1  0  0  0  0
 20 13  1  0  0  0  0
 21 14  1  0  0  0  0
 23 25  1  0  0  0  0
 23 24  1  0  0  0  0
 26 35  1  0  0  0  0
 26 27  1  0  0  0  0
 27 23  1  0  0  0  0
 28 29  1  0  0  0  0
 28 27  2  0  0  0  0
 30 28  1  0  0  0  0
 31 30  1  0  0  0  0
 32 33  1  0  0  0  0
 32 30  2  0  0  0  0
 33 26  2  0  0  0  0
 34 37  1  0  0  0  0
 35 34  2  0  0  0  0
 39 36  1  0  0  0  0
M  END
>  <minimizedAffinity>
-5.82587528

>  <minimizedRMSD>
2.23277164

$$$$
