
 OpenBabel03272504583D

 38 40  0  0  1  0  0  0  0  0999 V2000
   36.7410   26.9410   34.6990 O   0  0  0  0  0  0  0  0  0  0  0  0
   35.4930   28.9440   34.1810 C   0  0  1  0  0  0  0  0  0  0  0  0
   36.1070   28.5260   32.9450 C   0  0  0  0  0  0  0  0  0  0  0  0
   36.7890   28.2700   34.2510 C   0  0  2  0  0  0  0  0  0  0  0  0
   34.6370   28.3570   34.6670 H   0  0  0  0  0  0  0  0  0  0  0  0
   35.3860   27.9490   32.4020 H   0  0  0  0  0  0  0  0  0  0  0  0
   36.5550   29.3220   32.3150 H   0  0  0  0  0  0  0  0  0  0  0  0
   37.7780   28.6820   34.2450 H   0  0  0  0  0  0  0  0  0  0  0  0
   35.4530   30.3930   34.5690 C   0  0  0  0  0  0  0  0  0  0  0  0
   35.7140   31.3190   33.5280 C   0  0  0  0  0  0  0  0  0  0  0  0
   35.6740   32.6340   33.9080 C   0  0  0  0  0  0  0  0  0  0  0  0
   35.3970   32.9700   35.2110 N   0  0  0  0  0  0  0  0  0  0  0  0
   35.1570   32.0520   36.1630 C   0  0  0  0  0  0  0  0  0  0  0  0
   35.1890   30.7260   35.8220 N   0  0  0  0  0  0  0  0  0  0  0  0
   34.8820   32.3890   37.5020 N   0  0  0  0  0  0  0  0  0  0  0  0
   35.9310   31.0530   32.5040 H   0  0  0  0  0  0  0  0  0  0  0  0
   35.8640   33.3880   33.1520 H   0  0  0  0  0  0  0  0  0  0  0  0
   34.0250   32.3260   38.0890 H   0  0  0  0  0  0  0  0  0  0  0  0
   35.8210   32.7530   37.8050 H   0  0  0  0  0  0  0  0  0  0  0  0
   39.3020   26.8370   34.4110 O   0  0  0  0  0  0  0  0  0  0  0  0
   38.2020   26.4920   35.3610 P   0  0  1  0  0  0  0  0  0  0  0  0
   38.5070   27.4290   36.7780 O   0  0  0  0  0  0  0  0  0  0  0  0
   38.8610   28.3190   36.4940 H   0  0  0  0  0  0  0  0  0  0  0  0
   38.1370   24.8510   35.7540 O   0  0  0  0  0  0  0  0  0  0  0  0
   39.2620   23.4440   37.2300 C   0  0  0  0  0  0  0  0  0  0  0  0
   39.2750   24.0910   35.9950 C   0  0  0  0  0  0  0  0  0  0  0  0
   40.3520   23.9430   35.1440 C   0  0  0  0  0  0  0  0  0  0  0  0
   40.2880   24.4740   34.2090 H   0  0  0  0  0  0  0  0  0  0  0  0
   41.4240   23.1540   35.5130 C   0  0  0  0  0  0  0  0  0  0  0  0
   42.2620   23.0560   34.8180 H   0  0  0  0  0  0  0  0  0  0  0  0
   41.3990   22.5150   36.7430 C   0  0  0  0  0  3  0  0  0  0  0  0
   40.3370   22.6560   37.5890 C   0  0  0  0  0  3  0  0  0  0  0  0
   37.3530   22.6280   38.5740 N   0  0  0  0  0  0  0  0  0  0  0  0
   38.1640   23.5510   38.1780 C   0  0  0  0  0  0  0  0  0  0  0  0
   37.9360   24.8070   38.7520 N   0  0  0  0  0  0  0  0  0  0  0  0
   37.3920   21.6340   38.2390 H   0  0  0  0  0  0  0  0  0  0  0  0
   37.7680   25.7340   39.1850 H   0  0  0  0  0  0  0  0  0  0  0  0
   37.6340   25.4500   38.0040 H   0  0  0  0  0  0  0  0  0  0  0  0
  1 21  1  0  0  0  0
  2  4  1  0  0  0  0
  2  9  1  0  0  0  0
  2  5  1  1  0  0  0
  3  2  1  0  0  0  0
  3  4  1  0  0  0  0
  4  8  1  1  0  0  0
  4  1  1  0  0  0  0
  6  3  1  0  0  0  0
  7  3  1  0  0  0  0
  9 14  1  0  0  0  0
 10 11  1  0  0  0  0
 10  9  2  0  0  0  0
 11 12  2  0  0  0  0
 12 13  1  0  0  0  0
 13 15  1  0  0  0  0
 14 13  2  0  0  0  0
 15 19  1  0  0  0  0
 15 18  1  0  0  0  0
 16 10  1  0  0  0  0
 17 11  1  0  0  0  0
 21 20  2  6  0  0  0
 21 24  1  0  0  0  0
 21 22  1  0  0  0  0
 23 22  1  0  0  0  0
 24 26  1  0  0  0  0
 25 32  1  0  0  0  0
 25 34  1  0  0  0  0
 26 25  2  0  0  0  0
 27 29  2  0  0  0  0
 27 26  1  0  0  0  0
 28 27  1  0  0  0  0
 29 31  1  0  0  0  0
 30 29  1  0  0  0  0
 31 32  2  0  0  0  0
 34 33  2  0  0  0  0
 34 35  1  0  0  0  0
 35 37  1  0  0  0  0
 36 33  1  0  0  0  0
 38 35  1  0  0  0  0
M  END
>  <minimizedAffinity>
-6.07401705

$$$$

 OpenBabel03272504583D

 38 40  0  0  1  0  0  0  0  0999 V2000
   37.4390   25.2540   35.6690 O   0  0  0  0  0  0  0  0  0  0  0  0
   38.7410   23.3580   36.4060 C   0  0  1  0  0  0  0  0  0  0  0  0
   38.0740   23.8640   37.5800 C   0  0  0  0  0  0  0  0  0  0  0  0
   38.4840   24.7960   36.4850 C   0  0  2  0  0  0  0  0  0  0  0  0
   38.1750   22.8300   35.5600 H   0  0  0  0  0  0  0  0  0  0  0  0
   37.1800   23.2900   37.7190 H   0  0  0  0  0  0  0  0  0  0  0  0
   38.6740   23.9190   38.5110 H   0  0  0  0  0  0  0  0  0  0  0  0
   39.0990   25.5820   36.8730 H   0  0  0  0  0  0  0  0  0  0  0  0
   40.1730   22.9150   36.4660 C   0  0  0  0  0  0  0  0  0  0  0  0
   41.0880   23.6750   35.6950 C   0  0  0  0  0  0  0  0  0  0  0  0
   42.3880   23.2480   35.7640 C   0  0  0  0  0  0  0  0  0  0  0  0
   42.7210   22.1630   36.5370 N   0  0  0  0  0  0  0  0  0  0  0  0
   41.8130   21.4740   37.2520 C   0  0  0  0  0  0  0  0  0  0  0  0
   40.5030   21.8700   37.2070 N   0  0  0  0  0  0  0  0  0  0  0  0
   42.1450   20.3550   38.0390 N   0  0  0  0  0  0  0  0  0  0  0  0
   40.8260   24.5280   35.0860 H   0  0  0  0  0  0  0  0  0  0  0  0
   43.1330   23.7930   35.1950 H   0  0  0  0  0  0  0  0  0  0  0  0
   42.1710   20.1920   39.0670 H   0  0  0  0  0  0  0  0  0  0  0  0
   42.3850   19.6580   37.2900 H   0  0  0  0  0  0  0  0  0  0  0  0
   36.9760   27.6930   34.9700 O   0  0  0  0  0  0  0  0  0  0  0  0
   37.9320   26.5640   34.7650 P   0  0  1  0  0  0  0  0  0  0  0  0
   39.4500   27.1340   35.3550 O   0  0  0  0  0  0  0  0  0  0  0  0
   39.2810   27.7000   36.1600 H   0  0  0  0  0  0  0  0  0  0  0  0
   38.0780   26.0850   33.1530 O   0  0  0  0  0  0  0  0  0  0  0  0
   36.3300   25.4920   31.7320 C   0  0  0  0  0  0  0  0  0  0  0  0
   37.3250   25.0540   32.6050 C   0  0  0  0  0  0  0  0  0  0  0  0
   37.4880   23.7050   32.8520 C   0  0  0  0  0  0  0  0  0  0  0  0
   38.2770   23.4450   33.5380 H   0  0  0  0  0  0  0  0  0  0  0  0
   36.6630   22.7820   32.2370 C   0  0  0  0  0  0  0  0  0  0  0  0
   36.8170   21.7230   32.4530 H   0  0  0  0  0  0  0  0  0  0  0  0
   35.6780   23.2320   31.3710 C   0  0  0  0  0  3  0  0  0  0  0  0
   35.5120   24.5640   31.1210 C   0  0  0  0  0  3  0  0  0  0  0  0
   35.6880   27.8330   32.2060 N   0  0  0  0  0  0  0  0  0  0  0  0
   36.0980   26.8940   31.4210 C   0  0  0  0  0  0  0  0  0  0  0  0
   36.3440   27.3050   30.1060 N   0  0  0  0  0  0  0  0  0  0  0  0
   35.4610   27.6880   33.2210 H   0  0  0  0  0  0  0  0  0  0  0  0
   36.5320   27.6160   29.1350 H   0  0  0  0  0  0  0  0  0  0  0  0
   35.6620   26.8360   29.4910 H   0  0  0  0  0  0  0  0  0  0  0  0
  1  4  1  0  0  0  0
  2  5  1  6  0  0  0
  2  9  1  0  0  0  0
  2  4  1  0  0  0  0
  2  3  1  0  0  0  0
  3  6  1  0  0  0  0
  3  7  1  0  0  0  0
  4  8  1  1  0  0  0
  4  3  1  0  0  0  0
  9 14  1  0  0  0  0
 10 11  1  0  0  0  0
 10  9  2  0  0  0  0
 11 12  2  0  0  0  0
 12 13  1  0  0  0  0
 13 15  1  0  0  0  0
 14 13  2  0  0  0  0
 15 18  1  0  0  0  0
 16 10  1  0  0  0  0
 17 11  1  0  0  0  0
 19 15  1  0  0  0  0
 21 20  2  1  0  0  0
 21 22  1  0  0  0  0
 21  1  1  0  0  0  0
 22 23  1  0  0  0  0
 24 21  1  0  0  0  0
 25 26  1  0  0  0  0
 26 27  2  0  0  0  0
 26 24  1  0  0  0  0
 27 28  1  0  0  0  0
 29 30  1  0  0  0  0
 29 27  1  0  0  0  0
 31 29  2  0  0  0  0
 32 31  1  0  0  0  0
 32 25  2  0  0  0  0
 33 36  1  0  0  0  0
 34 25  1  0  0  0  0
 34 33  2  0  0  0  0
 35 34  1  0  0  0  0
 37 35  1  0  0  0  0
 38 35  1  0  0  0  0
M  END
>  <minimizedAffinity>
-6.03292131

$$$$

 OpenBabel03272504583D

 38 40  0  0  1  0  0  0  0  0999 V2000
   38.8950   24.8310   36.0860 O   0  0  0  0  0  0  0  0  0  0  0  0
   38.3060   26.6730   34.6400 C   0  0  1  0  0  0  0  0  0  0  0  0
   38.1930   27.1730   35.9870 C   0  0  0  0  0  0  0  0  0  0  0  0
   37.9020   25.7370   35.6880 C   0  0  2  0  0  0  0  0  0  0  0  0
   39.3190   26.4270   34.1620 H   0  0  0  0  0  0  0  0  0  0  0  0
   39.1110   27.6700   36.2290 H   0  0  0  0  0  0  0  0  0  0  0  0
   37.3110   27.8070   36.2130 H   0  0  0  0  0  0  0  0  0  0  0  0
   36.9210   25.4740   36.0310 H   0  0  0  0  0  0  0  0  0  0  0  0
   37.2820   27.0230   33.6010 C   0  0  0  0  0  0  0  0  0  0  0  0
   36.5990   28.2500   33.7940 C   0  0  0  0  0  0  0  0  0  0  0  0
   35.6680   28.5450   32.8340 C   0  0  0  0  0  0  0  0  0  0  0  0
   35.4550   27.6820   31.7880 N   0  0  0  0  0  0  0  0  0  0  0  0
   36.1290   26.5270   31.6490 C   0  0  0  0  0  0  0  0  0  0  0  0
   37.0690   26.1970   32.5900 N   0  0  0  0  0  0  0  0  0  0  0  0
   35.9100   25.6330   30.5840 N   0  0  0  0  0  0  0  0  0  0  0  0
   36.7670   28.9290   34.6180 H   0  0  0  0  0  0  0  0  0  0  0  0
   35.1150   29.4730   32.9300 H   0  0  0  0  0  0  0  0  0  0  0  0
   36.4820   25.3530   29.7610 H   0  0  0  0  0  0  0  0  0  0  0  0
   34.9500   25.2780   30.8270 H   0  0  0  0  0  0  0  0  0  0  0  0
   37.7530   22.5260   36.2670 O   0  0  0  0  0  0  0  0  0  0  0  0
   38.6440   23.3400   35.3870 P   0  0  1  0  0  0  0  0  0  0  0  0
   37.7760   23.5340   33.9080 O   0  0  0  0  0  0  0  0  0  0  0  0
   36.8070   23.6430   34.1250 H   0  0  0  0  0  0  0  0  0  0  0  0
   40.1430   22.6210   35.0900 O   0  0  0  0  0  0  0  0  0  0  0  0
   42.0680   22.7570   36.3930 C   0  0  0  0  0  0  0  0  0  0  0  0
   41.3470   23.2750   35.3180 C   0  0  0  0  0  0  0  0  0  0  0  0
   41.8470   24.3390   34.5940 C   0  0  0  0  0  0  0  0  0  0  0  0
   41.2330   24.6820   33.7790 H   0  0  0  0  0  0  0  0  0  0  0  0
   43.0650   24.8970   34.9330 C   0  0  0  0  0  0  0  0  0  0  0  0
   43.4340   25.7380   34.3410 H   0  0  0  0  0  0  0  0  0  0  0  0
   43.7720   24.3730   36.0040 C   0  0  0  0  0  3  0  0  0  0  0  0
   43.2840   23.3200   36.7240 C   0  0  0  0  0  3  0  0  0  0  0  0
   42.1340   20.4680   37.3260 N   0  0  0  0  0  0  0  0  0  0  0  0
   41.6070   21.6390   37.2020 C   0  0  0  0  0  0  0  0  0  0  0  0
   40.4420   21.8320   37.9530 N   0  0  0  0  0  0  0  0  0  0  0  0
   43.0090   20.1660   36.8300 H   0  0  0  0  0  0  0  0  0  0  0  0
   39.5840   21.9730   38.5180 H   0  0  0  0  0  0  0  0  0  0  0  0
   39.6550   21.9580   37.2980 H   0  0  0  0  0  0  0  0  0  0  0  0
  2  5  1  6  0  0  0
  2  4  1  0  0  0  0
  2  3  1  0  0  0  0
  3  7  1  0  0  0  0
  3  6  1  0  0  0  0
  4  3  1  0  0  0  0
  4  8  1  1  0  0  0
  4  1  1  0  0  0  0
  9 10  1  0  0  0  0
  9  2  1  0  0  0  0
 10 16  1  0  0  0  0
 11 17  1  0  0  0  0
 11 10  2  0  0  0  0
 12 11  1  0  0  0  0
 13 12  2  0  0  0  0
 13 14  1  0  0  0  0
 14  9  2  0  0  0  0
 15 19  1  0  0  0  0
 15 13  1  0  0  0  0
 18 15  1  0  0  0  0
 21  1  1  0  0  0  0
 21 20  2  1  0  0  0
 22 23  1  0  0  0  0
 22 21  1  0  0  0  0
 24 26  1  0  0  0  0
 24 21  1  0  0  0  0
 25 32  1  0  0  0  0
 25 34  1  0  0  0  0
 26 25  2  0  0  0  0
 27 29  2  0  0  0  0
 27 26  1  0  0  0  0
 28 27  1  0  0  0  0
 29 31  1  0  0  0  0
 30 29  1  0  0  0  0
 31 32  2  0  0  0  0
 34 33  2  0  0  0  0
 34 35  1  0  0  0  0
 35 37  1  0  0  0  0
 36 33  1  0  0  0  0
 38 35  1  0  0  0  0
M  END
>  <minimizedAffinity>
-5.93663454

$$$$

 OpenBabel03272504583D

 38 40  0  0  1  0  0  0  0  0999 V2000
   37.0010   25.4200   32.8490 O   0  0  0  0  0  0  0  0  0  0  0  0
   38.2310   25.4190   34.9280 C   0  0  1  0  0  0  0  0  0  0  0  0
   38.9000   26.3640   34.0700 C   0  0  0  0  0  0  0  0  0  0  0  0
   38.2240   25.1650   33.4880 C   0  0  2  0  0  0  0  0  0  0  0  0
   37.1920   25.6220   35.3700 H   0  0  0  0  0  0  0  0  0  0  0  0
   38.5250   27.3400   34.3050 H   0  0  0  0  0  0  0  0  0  0  0  0
   40.0090   26.3410   34.0690 H   0  0  0  0  0  0  0  0  0  0  0  0
   38.9100   24.6020   32.8880 H   0  0  0  0  0  0  0  0  0  0  0  0
   39.0140   24.4710   35.7870 C   0  0  0  0  0  0  0  0  0  0  0  0
   40.2880   24.0950   35.2900 C   0  0  0  0  0  0  0  0  0  0  0  0
   40.9820   23.2270   36.0910 C   0  0  0  0  0  0  0  0  0  0  0  0
   40.4370   22.7890   37.2730 N   0  0  0  0  0  0  0  0  0  0  0  0
   39.2220   23.1750   37.7010 C   0  0  0  0  0  0  0  0  0  0  0  0
   38.4970   24.0420   36.9270 N   0  0  0  0  0  0  0  0  0  0  0  0
   38.6530   22.7230   38.9070 N   0  0  0  0  0  0  0  0  0  0  0  0
   40.7160   24.4400   34.3600 H   0  0  0  0  0  0  0  0  0  0  0  0
   41.9640   22.9050   35.7620 H   0  0  0  0  0  0  0  0  0  0  0  0
   38.4430   23.1910   39.8130 H   0  0  0  0  0  0  0  0  0  0  0  0
   38.4720   21.7150   38.6670 H   0  0  0  0  0  0  0  0  0  0  0  0
   35.1180   24.2520   31.5300 O   0  0  0  0  0  0  0  0  0  0  0  0
   36.5650   24.1350   31.8830 P   0  0  1  0  0  0  0  0  0  0  0  0
   37.4130   24.2250   30.3830 O   0  0  0  0  0  0  0  0  0  0  0  0
   36.9420   24.8820   29.7950 H   0  0  0  0  0  0  0  0  0  0  0  0
   36.9530   22.6990   32.6830 O   0  0  0  0  0  0  0  0  0  0  0  0
   36.1270   20.6120   33.3040 C   0  0  0  0  0  0  0  0  0  0  0  0
   36.4970   21.4580   32.2590 C   0  0  0  0  0  0  0  0  0  0  0  0
   36.3920   21.0310   30.9500 C   0  0  0  0  0  0  0  0  0  0  0  0
   36.6970   21.7400   30.1990 H   0  0  0  0  0  0  0  0  0  0  0  0
   35.9210   19.7620   30.6690 C   0  0  0  0  0  0  0  0  0  0  0  0
   35.8490   19.4540   29.6240 H   0  0  0  0  0  0  0  0  0  0  0  0
   35.5560   18.9320   31.7180 C   0  0  0  0  0  3  0  0  0  0  0  0
   35.6560   19.3470   33.0150 C   0  0  0  0  0  3  0  0  0  0  0  0
   35.3510   20.7740   35.6470 N   0  0  0  0  0  0  0  0  0  0  0  0
   36.2080   20.9900   34.7070 C   0  0  0  0  0  0  0  0  0  0  0  0
   37.3550   21.6790   35.1160 N   0  0  0  0  0  0  0  0  0  0  0  0
   34.4410   20.2700   35.5030 H   0  0  0  0  0  0  0  0  0  0  0  0
   38.2070   22.1830   35.4260 H   0  0  0  0  0  0  0  0  0  0  0  0
   37.3610   22.5980   34.6480 H   0  0  0  0  0  0  0  0  0  0  0  0
  1  4  1  0  0  0  0
  2  5  1  1  0  0  0
  2  9  1  0  0  0  0
  3  6  1  0  0  0  0
  3  2  1  0  0  0  0
  4  8  1  6  0  0  0
  4  3  1  0  0  0  0
  4  2  1  0  0  0  0
  7  3  1  0  0  0  0
  9 14  1  0  0  0  0
 10  9  2  0  0  0  0
 10 11  1  0  0  0  0
 11 12  2  0  0  0  0
 12 13  1  0  0  0  0
 13 15  1  0  0  0  0
 14 13  2  0  0  0  0
 15 18  1  0  0  0  0
 16 10  1  0  0  0  0
 17 11  1  0  0  0  0
 19 15  1  0  0  0  0
 21 20  2  6  0  0  0
 21 24  1  0  0  0  0
 21  1  1  0  0  0  0
 22 21  1  0  0  0  0
 23 22  1  0  0  0  0
 25 34  1  0  0  0  0
 26 24  1  0  0  0  0
 26 25  2  0  0  0  0
 27 26  1  0  0  0  0
 28 27  1  0  0  0  0
 29 27  2  0  0  0  0
 29 31  1  0  0  0  0
 30 29  1  0  0  0  0
 31 32  2  0  0  0  0
 32 25  1  0  0  0  0
 34 35  1  0  0  0  0
 34 33  2  0  0  0  0
 35 37  1  0  0  0  0
 36 33  1  0  0  0  0
 38 35  1  0  0  0  0
M  END
>  <minimizedAffinity>
-5.92510223

$$$$

 OpenBabel03272504583D

 38 40  0  0  1  0  0  0  0  0999 V2000
   37.4110   26.4900   34.3220 O   0  0  0  0  0  0  0  0  0  0  0  0
   36.3750   27.3950   32.3360 C   0  0  1  0  0  0  0  0  0  0  0  0
   36.5380   25.9830   32.0930 C   0  0  0  0  0  0  0  0  0  0  0  0
   37.5220   26.7210   32.9430 C   0  0  2  0  0  0  0  0  0  0  0  0
   35.6190   27.8010   33.0970 H   0  0  0  0  0  0  0  0  0  0  0  0
   35.6140   25.5010   32.3420 H   0  0  0  0  0  0  0  0  0  0  0  0
   36.8960   25.6880   31.0850 H   0  0  0  0  0  0  0  0  0  0  0  0
   38.5160   26.5880   32.5670 H   0  0  0  0  0  0  0  0  0  0  0  0
   36.6620   28.4000   31.2590 C   0  0  0  0  0  0  0  0  0  0  0  0
   36.3350   29.7440   31.5670 C   0  0  0  0  0  0  0  0  0  0  0  0
   36.6040   30.6410   30.5670 C   0  0  0  0  0  0  0  0  0  0  0  0
   37.1470   30.2140   29.3800 N   0  0  0  0  0  0  0  0  0  0  0  0
   37.4390   28.9240   29.1370 C   0  0  0  0  0  0  0  0  0  0  0  0
   37.1840   27.9970   30.1130 N   0  0  0  0  0  0  0  0  0  0  0  0
   37.9880   28.4770   27.9200 N   0  0  0  0  0  0  0  0  0  0  0  0
   35.9070   30.0800   32.5000 H   0  0  0  0  0  0  0  0  0  0  0  0
   36.3750   31.6860   30.7460 H   0  0  0  0  0  0  0  0  0  0  0  0
   38.9220   28.1000   27.6580 H   0  0  0  0  0  0  0  0  0  0  0  0
   37.1700   28.6250   27.2760 H   0  0  0  0  0  0  0  0  0  0  0  0
   39.8460   27.3190   34.1470 O   0  0  0  0  0  0  0  0  0  0  0  0
   38.9000   26.6100   35.0590 P   0  0  1  0  0  0  0  0  0  0  0  0
   38.7720   27.6120   36.4590 O   0  0  0  0  0  0  0  0  0  0  0  0
   38.7940   28.5660   36.1650 H   0  0  0  0  0  0  0  0  0  0  0  0
   39.4140   25.0630   35.4980 O   0  0  0  0  0  0  0  0  0  0  0  0
   38.1660   23.2530   36.2670 C   0  0  0  0  0  0  0  0  0  0  0  0
   38.7060   23.9150   35.1650 C   0  0  0  0  0  0  0  0  0  0  0  0
   38.5130   23.4160   33.8920 C   0  0  0  0  0  0  0  0  0  0  0  0
   38.9610   23.9830   33.0930 H   0  0  0  0  0  0  0  0  0  0  0  0
   37.7840   22.2570   33.7040 C   0  0  0  0  0  0  0  0  0  0  0  0
   37.6490   21.8870   32.6850 H   0  0  0  0  0  0  0  0  0  0  0  0
   37.2530   21.6090   34.8090 C   0  0  0  0  0  3  0  0  0  0  0  0
   37.4390   22.0970   36.0700 C   0  0  0  0  0  3  0  0  0  0  0  0
   37.9320   24.8300   38.1580 N   0  0  0  0  0  0  0  0  0  0  0  0
   38.3250   23.7170   37.6370 C   0  0  0  0  0  0  0  0  0  0  0  0
   38.9890   22.8640   38.5270 N   0  0  0  0  0  0  0  0  0  0  0  0
   37.4210   25.5760   37.6250 H   0  0  0  0  0  0  0  0  0  0  0  0
   39.4720   22.2320   39.1910 H   0  0  0  0  0  0  0  0  0  0  0  0
   39.9680   22.7770   38.2160 H   0  0  0  0  0  0  0  0  0  0  0  0
  1 21  1  0  0  0  0
  2  4  1  0  0  0  0
  2  5  1  1  0  0  0
  3  2  1  0  0  0  0
  3  6  1  0  0  0  0
  3  4  1  0  0  0  0
  4  8  1  6  0  0  0
  4  1  1  0  0  0  0
  7  3  1  0  0  0  0
  9 10  1  0  0  0  0
  9  2  1  0  0  0  0
 10 16  1  0  0  0  0
 11 17  1  0  0  0  0
 11 10  2  0  0  0  0
 12 11  1  0  0  0  0
 13 12  2  0  0  0  0
 13 14  1  0  0  0  0
 14  9  2  0  0  0  0
 15 13  1  0  0  0  0
 18 15  1  0  0  0  0
 19 15  1  0  0  0  0
 21 20  2  6  0  0  0
 21 24  1  0  0  0  0
 21 22  1  0  0  0  0
 23 22  1  0  0  0  0
 25 34  1  0  0  0  0
 26 24  1  0  0  0  0
 26 25  2  0  0  0  0
 27 26  1  0  0  0  0
 28 27  1  0  0  0  0
 29 27  2  0  0  0  0
 29 31  1  0  0  0  0
 30 29  1  0  0  0  0
 31 32  2  0  0  0  0
 32 25  1  0  0  0  0
 34 33  2  0  0  0  0
 34 35  1  0  0  0  0
 35 37  1  0  0  0  0
 36 33  1  0  0  0  0
 38 35  1  0  0  0  0
M  END
>  <minimizedAffinity>
-5.77183676

$$$$

 OpenBabel03272504583D

 38 40  0  0  1  0  0  0  0  0999 V2000
   37.6330   24.5020   34.6270 O   0  0  0  0  0  0  0  0  0  0  0  0
   38.9910   23.3140   36.2330 C   0  0  1  0  0  0  0  0  0  0  0  0
   38.5160   24.4960   36.9080 C   0  0  0  0  0  0  0  0  0  0  0  0
   38.7780   24.5220   35.4370 C   0  0  2  0  0  0  0  0  0  0  0  0
   38.2940   22.4460   35.9560 H   0  0  0  0  0  0  0  0  0  0  0  0
   37.6410   24.2240   37.4640 H   0  0  0  0  0  0  0  0  0  0  0  0
   39.2490   25.0390   37.5390 H   0  0  0  0  0  0  0  0  0  0  0  0
   39.4610   25.3110   35.1920 H   0  0  0  0  0  0  0  0  0  0  0  0
   40.4060   22.8460   36.4030 C   0  0  0  0  0  0  0  0  0  0  0  0
   41.3940   23.6080   35.7300 C   0  0  0  0  0  0  0  0  0  0  0  0
   42.6770   23.1590   35.8980 C   0  0  0  0  0  0  0  0  0  0  0  0
   42.9270   22.0520   36.6720 N   0  0  0  0  0  0  0  0  0  0  0  0
   41.9530   21.3620   37.2910 C   0  0  0  0  0  0  0  0  0  0  0  0
   40.6560   21.7800   37.1450 N   0  0  0  0  0  0  0  0  0  0  0  0
   42.2010   20.2210   38.0770 N   0  0  0  0  0  0  0  0  0  0  0  0
   41.1960   24.4780   35.1210 H   0  0  0  0  0  0  0  0  0  0  0  0
   43.4750   23.7040   35.4070 H   0  0  0  0  0  0  0  0  0  0  0  0
   42.1370   20.0350   39.1000 H   0  0  0  0  0  0  0  0  0  0  0  0
   42.4930   19.5370   37.3350 H   0  0  0  0  0  0  0  0  0  0  0  0
   39.3400   23.8370   32.8120 O   0  0  0  0  0  0  0  0  0  0  0  0
   38.0530   24.5670   33.0160 P   0  0  1  0  0  0  0  0  0  0  0  0
   36.8840   23.7100   32.0790 O   0  0  0  0  0  0  0  0  0  0  0  0
   37.0910   22.7340   32.1370 H   0  0  0  0  0  0  0  0  0  0  0  0
   38.1100   26.1850   32.5350 O   0  0  0  0  0  0  0  0  0  0  0  0
   36.2750   27.5640   32.1420 C   0  0  0  0  0  0  0  0  0  0  0  0
   37.2510   27.1500   33.0470 C   0  0  0  0  0  0  0  0  0  0  0  0
   37.2980   27.6920   34.3160 C   0  0  0  0  0  0  0  0  0  0  0  0
   38.0810   27.3210   34.9560 H   0  0  0  0  0  0  0  0  0  0  0  0
   36.3770   28.6510   34.6950 C   0  0  0  0  0  0  0  0  0  0  0  0
   36.4400   29.0610   35.7060 H   0  0  0  0  0  0  0  0  0  0  0  0
   35.4120   29.0540   33.7860 C   0  0  0  0  0  3  0  0  0  0  0  0
   35.3590   28.5210   32.5300 C   0  0  0  0  0  3  0  0  0  0  0  0
   35.6930   25.8990   30.4090 N   0  0  0  0  0  0  0  0  0  0  0  0
   36.1610   27.0390   30.7900 C   0  0  0  0  0  0  0  0  0  0  0  0
   36.6110   27.8580   29.7480 N   0  0  0  0  0  0  0  0  0  0  0  0
   35.3170   25.1730   31.0680 H   0  0  0  0  0  0  0  0  0  0  0  0
   36.9350   28.4640   28.9720 H   0  0  0  0  0  0  0  0  0  0  0  0
   37.6320   27.9710   29.8470 H   0  0  0  0  0  0  0  0  0  0  0  0
  1  4  1  0  0  0  0
  2  5  1  6  0  0  0
  2  9  1  0  0  0  0
  2  3  1  0  0  0  0
  3  6  1  0  0  0  0
  3  7  1  0  0  0  0
  4  8  1  6  0  0  0
  4  2  1  0  0  0  0
  4  3  1  0  0  0  0
  9 14  1  0  0  0  0
 10 11  1  0  0  0  0
 10  9  2  0  0  0  0
 11 12  2  0  0  0  0
 12 13  1  0  0  0  0
 13 15  1  0  0  0  0
 14 13  2  0  0  0  0
 15 18  1  0  0  0  0
 16 10  1  0  0  0  0
 17 11  1  0  0  0  0
 19 15  1  0  0  0  0
 21 20  2  6  0  0  0
 21  1  1  0  0  0  0
 22 23  1  0  0  0  0
 22 21  1  0  0  0  0
 24 21  1  0  0  0  0
 24 26  1  0  0  0  0
 25 32  2  0  0  0  0
 25 26  1  0  0  0  0
 26 27  2  0  0  0  0
 27 29  1  0  0  0  0
 27 28  1  0  0  0  0
 29 30  1  0  0  0  0
 31 29  2  0  0  0  0
 32 31  1  0  0  0  0
 33 34  2  0  0  0  0
 33 36  1  0  0  0  0
 34 25  1  0  0  0  0
 35 38  1  0  0  0  0
 35 34  1  0  0  0  0
 37 35  1  0  0  0  0
M  END
>  <minimizedAffinity>
-5.63657045

$$$$

 OpenBabel03272504583D

 38 40  0  0  1  0  0  0  0  0999 V2000
   39.5460   24.7270   34.8890 O   0  0  0  0  0  0  0  0  0  0  0  0
   38.9320   26.7790   33.7740 C   0  0  1  0  0  0  0  0  0  0  0  0
   39.2010   27.1350   35.1450 C   0  0  0  0  0  0  0  0  0  0  0  0
   38.6370   25.7910   34.8120 C   0  0  2  0  0  0  0  0  0  0  0  0
   39.7620   26.4600   33.0510 H   0  0  0  0  0  0  0  0  0  0  0  0
   40.2140   27.4810   35.1990 H   0  0  0  0  0  0  0  0  0  0  0  0
   38.4980   27.8480   35.6230 H   0  0  0  0  0  0  0  0  0  0  0  0
   37.7310   25.6190   35.3560 H   0  0  0  0  0  0  0  0  0  0  0  0
   37.7640   27.3710   33.0400 C   0  0  0  0  0  0  0  0  0  0  0  0
   36.7510   27.9430   33.8500 C   0  0  0  0  0  0  0  0  0  0  0  0
   35.6960   28.4730   33.1560 C   0  0  0  0  0  0  0  0  0  0  0  0
   35.6750   28.4280   31.7840 N   0  0  0  0  0  0  0  0  0  0  0  0
   36.6640   27.8720   31.0610 C   0  0  0  0  0  0  0  0  0  0  0  0
   37.7360   27.3300   31.7180 N   0  0  0  0  0  0  0  0  0  0  0  0
   36.6450   27.8130   29.6540 N   0  0  0  0  0  0  0  0  0  0  0  0
   36.7670   27.9780   34.9290 H   0  0  0  0  0  0  0  0  0  0  0  0
   34.8900   28.9260   33.7240 H   0  0  0  0  0  0  0  0  0  0  0  0
   37.2040   28.2890   28.9150 H   0  0  0  0  0  0  0  0  0  0  0  0
   35.8690   27.1210   29.5020 H   0  0  0  0  0  0  0  0  0  0  0  0
   39.7790   22.1700   34.6390 O   0  0  0  0  0  0  0  0  0  0  0  0
   38.7730   23.2740   34.6260 P   0  0  1  0  0  0  0  0  0  0  0  0
   37.7060   22.9420   35.9410 O   0  0  0  0  0  0  0  0  0  0  0  0
   38.2450   22.5660   36.6940 H   0  0  0  0  0  0  0  0  0  0  0  0
   37.9010   23.3780   33.1840 O   0  0  0  0  0  0  0  0  0  0  0  0
   36.1970   22.7850   31.7110 C   0  0  0  0  0  0  0  0  0  0  0  0
   37.0140   22.3930   32.7710 C   0  0  0  0  0  0  0  0  0  0  0  0
   36.8940   21.1260   33.3080 C   0  0  0  0  0  0  0  0  0  0  0  0
   37.5590   20.8970   34.1240 H   0  0  0  0  0  0  0  0  0  0  0  0
   35.9620   20.2410   32.7990 C   0  0  0  0  0  0  0  0  0  0  0  0
   35.8920   19.2470   33.2450 H   0  0  0  0  0  0  0  0  0  0  0  0
   35.1570   20.6450   31.7440 C   0  0  0  0  0  3  0  0  0  0  0  0
   35.2710   21.8950   31.2080 C   0  0  0  0  0  3  0  0  0  0  0  0
   35.3940   25.0510   31.1330 N   0  0  0  0  0  0  0  0  0  0  0  0
   36.2650   24.1000   31.0930 C   0  0  0  0  0  0  0  0  0  0  0  0
   37.4140   24.3980   30.3510 N   0  0  0  0  0  0  0  0  0  0  0  0
   34.4810   24.9850   31.6480 H   0  0  0  0  0  0  0  0  0  0  0  0
   38.2660   24.6270   29.8070 H   0  0  0  0  0  0  0  0  0  0  0  0
   37.4350   23.7760   29.5290 H   0  0  0  0  0  0  0  0  0  0  0  0
  2  5  1  6  0  0  0
  2  4  1  0  0  0  0
  2  3  1  0  0  0  0
  3  6  1  0  0  0  0
  3  7  1  0  0  0  0
  4  1  1  0  0  0  0
  4  3  1  0  0  0  0
  4  8  1  1  0  0  0
  9  2  1  0  0  0  0
  9 10  1  0  0  0  0
 10 16  1  0  0  0  0
 11 17  1  0  0  0  0
 11 10  2  0  0  0  0
 12 11  1  0  0  0  0
 13 14  1  0  0  0  0
 13 12  2  0  0  0  0
 14  9  2  0  0  0  0
 15 13  1  0  0  0  0
 18 15  1  0  0  0  0
 19 15  1  0  0  0  0
 21 20  2  6  0  0  0
 21  1  1  0  0  0  0
 21 22  1  0  0  0  0
 22 23  1  0  0  0  0
 24 21  1  0  0  0  0
 25 26  1  0  0  0  0
 26 24  1  0  0  0  0
 26 27  2  0  0  0  0
 27 28  1  0  0  0  0
 29 30  1  0  0  0  0
 29 27  1  0  0  0  0
 31 29  2  0  0  0  0
 32 25  2  0  0  0  0
 32 31  1  0  0  0  0
 33 36  1  0  0  0  0
 34 33  2  0  0  0  0
 34 25  1  0  0  0  0
 35 34  1  0  0  0  0
 37 35  1  0  0  0  0
 38 35  1  0  0  0  0
M  END
>  <minimizedAffinity>
-5.59751654

$$$$

 OpenBabel03272504583D

 38 40  0  0  1  0  0  0  0  0999 V2000
   36.7690   26.0350   32.8140 O   0  0  0  0  0  0  0  0  0  0  0  0
   37.7310   25.6350   34.9930 C   0  0  1  0  0  0  0  0  0  0  0  0
   38.3010   26.8740   34.5270 C   0  0  0  0  0  0  0  0  0  0  0  0
   37.9360   25.7990   33.5540 C   0  0  2  0  0  0  0  0  0  0  0  0
   36.6290   25.5450   35.2980 H   0  0  0  0  0  0  0  0  0  0  0  0
   37.7220   27.6750   34.9410 H   0  0  0  0  0  0  0  0  0  0  0  0
   39.3870   27.0210   34.7000 H   0  0  0  0  0  0  0  0  0  0  0  0
   38.7810   25.5390   32.9480 H   0  0  0  0  0  0  0  0  0  0  0  0
   38.5780   24.6130   35.6940 C   0  0  0  0  0  0  0  0  0  0  0  0
   39.7220   24.1690   34.9850 C   0  0  0  0  0  0  0  0  0  0  0  0
   40.4770   23.2350   35.6450 C   0  0  0  0  0  0  0  0  0  0  0  0
   40.1060   22.8010   36.8940 N   0  0  0  0  0  0  0  0  0  0  0  0
   39.0080   23.2550   37.5250 C   0  0  0  0  0  0  0  0  0  0  0  0
   38.2270   24.1890   36.8970 N   0  0  0  0  0  0  0  0  0  0  0  0
   38.6170   22.8080   38.8010 N   0  0  0  0  0  0  0  0  0  0  0  0
   40.0130   24.5100   34.0030 H   0  0  0  0  0  0  0  0  0  0  0  0
   41.3660   22.8590   35.1510 H   0  0  0  0  0  0  0  0  0  0  0  0
   38.5930   23.2630   39.7370 H   0  0  0  0  0  0  0  0  0  0  0  0
   38.3290   21.8220   38.5780 H   0  0  0  0  0  0  0  0  0  0  0  0
   35.0510   24.7990   31.3390 O   0  0  0  0  0  0  0  0  0  0  0  0
   36.4880   24.7860   31.7480 P   0  0  1  0  0  0  0  0  0  0  0  0
   37.3820   25.0530   30.2960 O   0  0  0  0  0  0  0  0  0  0  0  0
   36.8760   25.7040   29.7320 H   0  0  0  0  0  0  0  0  0  0  0  0
   36.9730   23.3380   32.4690 O   0  0  0  0  0  0  0  0  0  0  0  0
   37.3380   21.3570   31.3000 C   0  0  0  0  0  0  0  0  0  0  0  0
   36.4640   22.1030   32.0900 C   0  0  0  0  0  0  0  0  0  0  0  0
   35.2240   21.5940   32.4230 C   0  0  0  0  0  0  0  0  0  0  0  0
   34.6060   22.2290   33.0360 H   0  0  0  0  0  0  0  0  0  0  0  0
   34.8430   20.3440   31.9740 C   0  0  0  0  0  0  0  0  0  0  0  0
   33.8560   19.9700   32.2540 H   0  0  0  0  0  0  0  0  0  0  0  0
   35.7220   19.6140   31.1890 C   0  0  0  0  0  3  0  0  0  0  0  0
   36.9490   20.1090   30.8570 C   0  0  0  0  0  3  0  0  0  0  0  0
   39.0020   22.4520   29.8340 N   0  0  0  0  0  0  0  0  0  0  0  0
   38.6590   21.8240   30.9080 C   0  0  0  0  0  0  0  0  0  0  0  0
   39.7130   21.5730   31.7930 N   0  0  0  0  0  0  0  0  0  0  0  0
   38.3300   22.7150   29.0710 H   0  0  0  0  0  0  0  0  0  0  0  0
   40.4960   21.3960   32.4500 H   0  0  0  0  0  0  0  0  0  0  0  0
   39.8550   20.5520   31.8420 H   0  0  0  0  0  0  0  0  0  0  0  0
  1  4  1  0  0  0  0
  2  5  1  1  0  0  0
  2  9  1  0  0  0  0
  3  7  1  0  0  0  0
  3  6  1  0  0  0  0
  3  2  1  0  0  0  0
  4  8  1  6  0  0  0
  4  3  1  0  0  0  0
  4  2  1  0  0  0  0
  9 14  1  0  0  0  0
 10 11  1  0  0  0  0
 10  9  2  0  0  0  0
 11 12  2  0  0  0  0
 12 13  1  0  0  0  0
 13 15  1  0  0  0  0
 14 13  2  0  0  0  0
 15 18  1  0  0  0  0
 16 10  1  0  0  0  0
 17 11  1  0  0  0  0
 19 15  1  0  0  0  0
 21 20  2  6  0  0  0
 21 24  1  0  0  0  0
 21  1  1  0  0  0  0
 22 21  1  0  0  0  0
 23 22  1  0  0  0  0
 25 26  1  0  0  0  0
 26 27  2  0  0  0  0
 26 24  1  0  0  0  0
 27 28  1  0  0  0  0
 29 30  1  0  0  0  0
 29 27  1  0  0  0  0
 31 29  2  0  0  0  0
 32 31  1  0  0  0  0
 32 25  2  0  0  0  0
 33 34  2  0  0  0  0
 34 25  1  0  0  0  0
 34 35  1  0  0  0  0
 35 38  1  0  0  0  0
 35 37  1  0  0  0  0
 36 33  1  0  0  0  0
M  END
>  <minimizedAffinity>
-5.57183981

$$$$

 OpenBabel03272504583D

 38 40  0  0  1  0  0  0  0  0999 V2000
   37.3990   25.2230   34.6830 O   0  0  0  0  0  0  0  0  0  0  0  0
   36.6940   26.0150   32.5130 C   0  0  1  0  0  0  0  0  0  0  0  0
   37.7140   25.0280   32.2650 C   0  0  0  0  0  0  0  0  0  0  0  0
   37.7670   25.8740   33.4970 C   0  0  2  0  0  0  0  0  0  0  0  0
   35.6560   25.7350   32.9130 H   0  0  0  0  0  0  0  0  0  0  0  0
   37.2250   24.0950   32.0710 H   0  0  0  0  0  0  0  0  0  0  0  0
   38.4630   25.2690   31.4820 H   0  0  0  0  0  0  0  0  0  0  0  0
   38.7070   26.3820   33.5630 H   0  0  0  0  0  0  0  0  0  0  0  0
   36.6500   27.2920   31.7260 C   0  0  0  0  0  0  0  0  0  0  0  0
   36.1020   28.4140   32.3970 C   0  0  0  0  0  0  0  0  0  0  0  0
   36.0710   29.5650   31.6570 C   0  0  0  0  0  0  0  0  0  0  0  0
   36.5480   29.5740   30.3690 N   0  0  0  0  0  0  0  0  0  0  0  0
   37.0580   28.4800   29.7760 C   0  0  0  0  0  0  0  0  0  0  0  0
   37.1060   27.3090   30.4840 N   0  0  0  0  0  0  0  0  0  0  0  0
   37.5410   28.4790   28.4530 N   0  0  0  0  0  0  0  0  0  0  0  0
   35.7270   28.4060   33.4100 H   0  0  0  0  0  0  0  0  0  0  0  0
   35.6630   30.4570   32.1200 H   0  0  0  0  0  0  0  0  0  0  0  0
   38.4940   28.3940   28.0440 H   0  0  0  0  0  0  0  0  0  0  0  0
   36.6410   28.5960   27.9210 H   0  0  0  0  0  0  0  0  0  0  0  0
   39.4320   26.4940   35.6320 O   0  0  0  0  0  0  0  0  0  0  0  0
   38.6630   25.2210   35.7680 P   0  0  1  0  0  0  0  0  0  0  0  0
   38.0430   25.2270   37.3780 O   0  0  0  0  0  0  0  0  0  0  0  0
   37.7890   26.1650   37.6130 H   0  0  0  0  0  0  0  0  0  0  0  0
   39.5950   23.8370   35.5110 O   0  0  0  0  0  0  0  0  0  0  0  0
   41.5500   23.0950   36.5370 C   0  0  0  0  0  0  0  0  0  0  0  0
   40.9840   23.8560   35.5150 C   0  0  0  0  0  0  0  0  0  0  0  0
   41.7930   24.5360   34.6260 C   0  0  0  0  0  0  0  0  0  0  0  0
   41.2820   25.1010   33.8650 H   0  0  0  0  0  0  0  0  0  0  0  0
   43.1680   24.4680   34.7470 C   0  0  0  0  0  0  0  0  0  0  0  0
   43.7810   25.0180   34.0290 H   0  0  0  0  0  0  0  0  0  0  0  0
   43.7170   23.7080   35.7680 C   0  0  0  0  0  3  0  0  0  0  0  0
   42.9240   23.0320   36.6500 C   0  0  0  0  0  3  0  0  0  0  0  0
   39.6990   22.7230   38.1350 N   0  0  0  0  0  0  0  0  0  0  0  0
   40.7640   22.3510   37.5090 C   0  0  0  0  0  0  0  0  0  0  0  0
   41.2000   21.0580   37.8260 N   0  0  0  0  0  0  0  0  0  0  0  0
   39.2470   23.6620   38.0090 H   0  0  0  0  0  0  0  0  0  0  0  0
   41.5130   20.0980   38.0580 H   0  0  0  0  0  0  0  0  0  0  0  0
   42.1110   21.1350   38.3030 H   0  0  0  0  0  0  0  0  0  0  0  0
  1 21  1  0  0  0  0
  2  5  1  1  0  0  0
  2  4  1  0  0  0  0
  3  2  1  0  0  0  0
  3  4  1  0  0  0  0
  4  8  1  1  0  0  0
  4  1  1  0  0  0  0
  6  3  1  0  0  0  0
  7  3  1  0  0  0  0
  9 10  1  0  0  0  0
  9  2  1  0  0  0  0
 10 16  1  0  0  0  0
 11 17  1  0  0  0  0
 11 10  2  0  0  0  0
 12 11  1  0  0  0  0
 13 12  2  0  0  0  0
 13 14  1  0  0  0  0
 14  9  2  0  0  0  0
 15 13  1  0  0  0  0
 18 15  1  0  0  0  0
 19 15  1  0  0  0  0
 21 20  2  6  0  0  0
 21 22  1  0  0  0  0
 22 23  1  0  0  0  0
 24 26  1  0  0  0  0
 24 21  1  0  0  0  0
 25 32  1  0  0  0  0
 25 34  1  0  0  0  0
 26 25  2  0  0  0  0
 27 29  2  0  0  0  0
 27 26  1  0  0  0  0
 28 27  1  0  0  0  0
 29 31  1  0  0  0  0
 30 29  1  0  0  0  0
 31 32  2  0  0  0  0
 34 35  1  0  0  0  0
 34 33  2  0  0  0  0
 35 37  1  0  0  0  0
 35 38  1  0  0  0  0
 36 33  1  0  0  0  0
M  END
>  <minimizedAffinity>
-5.56729841

$$$$
