
 OpenBabel03272504573D

 38 40  0  0  1  0  0  0  0  0999 V2000
   34.4640   27.8460   49.1220 O   0  0  0  0  0  0  0  0  0  0  0  0
   36.3650   29.1900   49.7660 C   0  0  1  0  0  0  0  0  0  0  0  0
   35.4450   29.2440   50.8740 C   0  0  0  0  0  0  0  0  0  0  0  0
   34.9340   29.1200   49.4750 C   0  0  2  0  0  0  0  0  0  0  0  0
   36.9420   28.2360   49.4960 H   0  0  0  0  0  0  0  0  0  0  0  0
   35.7450   28.4990   51.5840 H   0  0  0  0  0  0  0  0  0  0  0  0
   35.3000   30.2340   51.3550 H   0  0  0  0  0  0  0  0  0  0  0  0
   34.2390   29.9060   49.2580 H   0  0  0  0  0  0  0  0  0  0  0  0
   37.0980   30.4180   49.3130 C   0  0  0  0  0  0  0  0  0  0  0  0
   36.8090   31.6080   50.0270 C   0  0  0  0  0  0  0  0  0  0  0  0
   37.4880   32.7160   49.5920 C   0  0  0  0  0  0  0  0  0  0  0  0
   38.3680   32.6210   48.5420 N   0  0  0  0  0  0  0  0  0  0  0  0
   38.6070   31.4660   47.8960 C   0  0  0  0  0  0  0  0  0  0  0  0
   37.9460   30.3360   48.3010 N   0  0  0  0  0  0  0  0  0  0  0  0
   39.5000   31.3630   46.8130 N   0  0  0  0  0  0  0  0  0  0  0  0
   36.1160   31.6820   50.8520 H   0  0  0  0  0  0  0  0  0  0  0  0
   37.3070   33.6560   50.1020 H   0  0  0  0  0  0  0  0  0  0  0  0
   40.4290   30.9070   46.6990 H   0  0  0  0  0  0  0  0  0  0  0  0
   38.9740   31.9000   46.0780 H   0  0  0  0  0  0  0  0  0  0  0  0
   32.6730   26.6310   47.7190 O   0  0  0  0  0  0  0  0  0  0  0  0
   33.0140   27.9600   48.3110 P   0  0  1  0  0  0  0  0  0  0  0  0
   31.7490   28.3020   49.4340 O   0  0  0  0  0  0  0  0  0  0  0  0
   31.4820   27.4470   49.8760 H   0  0  0  0  0  0  0  0  0  0  0  0
   33.1270   29.2000   47.1690 O   0  0  0  0  0  0  0  0  0  0  0  0
   32.6740   29.7970   44.9640 C   0  0  0  0  0  0  0  0  0  0  0  0
   32.1550   29.4200   46.2020 C   0  0  0  0  0  0  0  0  0  0  0  0
   30.7900   29.2970   46.3730 C   0  0  0  0  0  0  0  0  0  0  0  0
   30.4650   29.0010   47.3580 H   0  0  0  0  0  0  0  0  0  0  0  0
   29.9320   29.5480   45.3190 C   0  0  0  0  0  0  0  0  0  0  0  0
   28.8580   29.4420   45.4870 H   0  0  0  0  0  0  0  0  0  0  0  0
   30.4620   29.9220   44.0940 C   0  0  0  0  0  3  0  0  0  0  0  0
   31.8110   30.0460   43.9180 C   0  0  0  0  0  3  0  0  0  0  0  0
   34.7660   31.0330   44.5020 N   0  0  0  0  0  0  0  0  0  0  0  0
   34.0980   29.9480   44.7070 C   0  0  0  0  0  0  0  0  0  0  0  0
   34.8680   28.7790   44.6690 N   0  0  0  0  0  0  0  0  0  0  0  0
   34.3360   31.9900   44.4970 H   0  0  0  0  0  0  0  0  0  0  0  0
   35.4420   27.9160   44.6490 H   0  0  0  0  0  0  0  0  0  0  0  0
   34.5620   28.2190   43.8580 H   0  0  0  0  0  0  0  0  0  0  0  0
  1  4  1  0  0  0  0
  2  5  1  6  0  0  0
  2  3  1  0  0  0  0
  3  7  1  0  0  0  0
  3  6  1  0  0  0  0
  4  8  1  6  0  0  0
  4  2  1  0  0  0  0
  4  3  1  0  0  0  0
  9  2  1  0  0  0  0
  9 10  1  0  0  0  0
 10 16  1  0  0  0  0
 11 10  2  0  0  0  0
 11 17  1  0  0  0  0
 12 11  1  0  0  0  0
 13 14  1  0  0  0  0
 13 12  2  0  0  0  0
 14  9  2  0  0  0  0
 15 13  1  0  0  0  0
 18 15  1  0  0  0  0
 19 15  1  0  0  0  0
 21 20  2  6  0  0  0
 21  1  1  0  0  0  0
 21 22  1  0  0  0  0
 22 23  1  0  0  0  0
 24 21  1  0  0  0  0
 25 26  1  0  0  0  0
 26 27  2  0  0  0  0
 26 24  1  0  0  0  0
 27 28  1  0  0  0  0
 29 30  1  0  0  0  0
 29 27  1  0  0  0  0
 31 29  2  0  0  0  0
 32 31  1  0  0  0  0
 32 25  2  0  0  0  0
 33 34  2  0  0  0  0
 34 25  1  0  0  0  0
 35 34  1  0  0  0  0
 36 33  1  0  0  0  0
 37 35  1  0  0  0  0
 38 35  1  0  0  0  0
M  END
>  <minimizedAffinity>
-5.51578856

>  <minimizedRMSD>
2.29299307

$$$$
