
 OpenBabel03272510103D

 33 35  0  0  0  0  0  0  0  0999 V2000
   36.6180   30.7460   48.0210 C   0  0  0  0  0  0  0  0  0  0  0  0
   37.6570   31.6220   48.0290 C   0  0  0  0  0  0  0  0  0  0  0  0
   38.2470   32.1310   46.8920 C   0  0  0  0  0  0  0  0  0  0  0  0
   37.7860   31.7530   45.6590 C   0  0  0  0  0  0  0  0  0  0  0  0
   36.7200   30.8520   45.6640 C   0  0  0  0  0  0  0  0  0  0  0  0
   36.1720   30.3790   46.7960 N   0  0  0  0  0  0  0  0  0  0  0  0
   38.0570   31.9520   48.9870 H   0  0  0  0  0  0  0  0  0  0  0  0
   39.0750   32.8290   46.8870 H   0  0  0  0  0  0  0  0  0  0  0  0
   36.2960   30.5020   44.7210 H   0  0  0  0  0  0  0  0  0  0  0  0
   36.7180   29.8880   50.3930 C   0  0  0  0  0  0  0  0  0  0  0  0
   36.0010   30.2130   49.2180 C   0  0  0  0  0  0  0  0  0  0  0  0
   34.6290   30.0020   49.2320 C   0  0  0  0  0  0  0  0  0  0  0  0
   34.0470   29.4990   50.3630 N   0  0  0  0  0  0  0  0  0  0  0  0
   34.7660   29.2070   51.4540 C   0  0  0  0  0  0  0  0  0  0  0  0
   36.1050   29.3950   51.4840 N   0  0  0  0  0  0  0  0  0  0  0  0
   37.7840   30.0670   50.3390 H   0  0  0  0  0  0  0  0  0  0  0  0
   34.0310   30.2330   48.3610 H   0  0  0  0  0  0  0  0  0  0  0  0
   34.2560   28.8090   52.3250 H   0  0  0  0  0  0  0  0  0  0  0  0
   38.2580   32.1620   44.4150 O   0  0  0  0  0  0  0  0  0  0  0  0
   40.1450   30.9150   43.7780 C   0  0  0  0  0  0  0  0  0  0  0  0
   38.8020   31.2190   43.5590 C   0  0  0  0  0  0  0  0  0  0  0  0
   38.1780   30.5580   42.5330 C   0  0  0  0  0  0  0  0  0  0  0  0
   37.1420   30.8080   42.3810 H   0  0  0  0  0  0  0  0  0  0  0  0
   38.8410   29.6450   41.7610 C   0  0  0  0  0  0  0  0  0  0  0  0
   38.3330   29.1250   40.9470 H   0  0  0  0  0  0  0  0  0  0  0  0
   40.1790   29.3470   41.9860 C   0  0  0  0  0  3  0  0  0  0  0  0
   40.8330   29.9980   43.0140 C   0  0  0  0  0  3  0  0  0  0  0  0
   41.1610   32.8030   45.1100 N   0  0  0  0  0  0  0  0  0  0  0  0
   40.9100   31.5630   44.8500 C   0  0  0  0  0  0  0  0  0  0  0  0
   41.5470   30.7850   45.8620 N   0  0  0  0  0  0  0  0  0  0  0  0
   40.8150   33.5870   44.5300 H   0  0  0  0  0  0  0  0  0  0  0  0
   42.3730   30.1780   46.0160 H   0  0  0  0  0  0  0  0  0  0  0  0
   41.3130   30.5910   46.8690 H   0  0  0  0  0  0  0  0  0  0  0  0
  1  2  1  0  0  0  0
  1 11  1  0  0  0  0
  2  7  1  0  0  0  0
  3  2  2  0  0  0  0
  4  5  2  0  0  0  0
  4  3  1  0  0  0  0
  5  6  1  0  0  0  0
  6  1  2  0  0  0  0
  8  3  1  0  0  0  0
  9  5  1  0  0  0  0
 10 15  1  0  0  0  0
 11 12  1  0  0  0  0
 11 10  2  0  0  0  0
 12 13  2  0  0  0  0
 13 14  1  0  0  0  0
 14 15  2  0  0  0  0
 14 18  1  0  0  0  0
 16 10  1  0  0  0  0
 17 12  1  0  0  0  0
 19  4  1  0  0  0  0
 20 29  1  0  0  0  0
 21 20  1  0  0  0  0
 21 19  1  0  0  0  0
 22 21  2  0  0  0  0
 23 22  1  0  0  0  0
 24 26  2  0  0  0  0
 24 22  1  0  0  0  0
 25 24  1  0  0  0  0
 26 27  1  0  0  0  0
 27 20  2  0  0  0  0
 29 28  2  0  0  0  0
 29 30  1  0  0  0  0
 30 32  1  0  0  0  0
 30 33  1  0  0  0  0
 31 28  1  0  0  0  0
M  END
>  <minimizedAffinity>
-5.28096485

>  <minimizedRMSD>
4.12822056

$$$$
