
 OpenBabel03272503303D

 39 41  0  0  1  0  0  0  0  0999 V2000
   33.5760   29.2770   47.4720 C   0  0  0  0  0  0  0  0  0  0  0  0
   33.8040   30.2870   46.5340 C   0  0  0  0  0  0  0  0  0  0  0  0
   32.7380   30.5810   45.6800 C   0  0  0  0  0  0  0  0  0  0  0  0
   31.5760   29.8590   45.8390 N   0  0  0  0  0  0  0  0  0  0  0  0
   31.4040   28.8990   46.7540 C   0  0  0  0  0  0  0  0  0  0  0  0
   32.4240   28.6120   47.5770 N   0  0  0  0  0  0  0  0  0  0  0  0
   34.7290   30.8280   46.4420 H   0  0  0  0  0  0  0  0  0  0  0  0
   32.8110   31.3460   44.9170 H   0  0  0  0  0  0  0  0  0  0  0  0
   34.6800   28.9730   48.3550 N   0  0  0  0  0  0  0  0  0  0  0  0
   36.0020   29.5350   48.3190 C   0  0  0  0  0  0  0  0  0  0  0  0
   36.4430   29.4320   49.7680 C   0  0  2  0  0  0  0  0  0  0  0  0
   35.2480   28.9130   50.5380 C   0  0  0  0  0  0  0  0  0  0  0  0
   34.6520   28.0340   49.4520 C   0  0  0  0  0  0  0  0  0  0  0  0
   35.9620   30.6190   48.0410 H   0  0  0  0  0  0  0  0  0  0  0  0
   36.6800   28.9610   47.6360 H   0  0  0  0  0  0  0  0  0  0  0  0
   37.2630   28.7000   49.8120 H   0  0  0  0  0  0  0  0  0  0  0  0
   35.5300   28.2540   51.3800 H   0  0  0  0  0  0  0  0  0  0  0  0
   34.5350   29.6980   50.8220 H   0  0  0  0  0  0  0  0  0  0  0  0
   33.5950   27.8430   49.7250 H   0  0  0  0  0  0  0  0  0  0  0  0
   35.2420   27.1270   49.2900 H   0  0  0  0  0  0  0  0  0  0  0  0
   36.9410   30.7410   50.3100 C   0  0  0  0  0  0  0  0  0  0  0  0
   35.9990   31.6970   49.9640 F   0  0  0  0  0  0  0  0  0  0  0  0
   38.0940   31.0590   49.6190 F   0  0  0  0  0  0  0  0  0  0  0  0
   37.1850   30.7280   51.6470 F   0  0  0  0  0  0  0  0  0  0  0  0
   29.8750   28.0290   46.8800 S   0  0  0  0  0  0  0  0  0  0  0  0
   28.4340   29.0430   49.0220 C   0  0  0  0  0  0  0  0  0  0  0  0
   28.5960   29.0340   47.6440 C   0  0  0  0  0  0  0  0  0  0  0  0
   27.8090   29.7760   46.7910 C   0  0  0  0  0  0  0  0  0  0  0  0
   27.9140   29.7860   45.7190 H   0  0  0  0  0  0  0  0  0  0  0  0
   26.8220   30.5490   47.4010 C   0  0  0  0  0  0  0  0  0  0  0  0
   26.1700   31.1550   46.7880 H   0  0  0  0  0  0  0  0  0  0  0  0
   26.6290   30.5860   48.7620 C   0  0  0  0  0  3  0  0  0  0  0  0
   27.4450   29.8240   49.5710 C   0  0  0  0  0  3  0  0  0  0  0  0
   30.5440   28.5380   50.1780 N   0  0  0  0  0  0  0  0  0  0  0  0
   29.3500   28.2000   49.7940 C   0  0  0  0  0  0  0  0  0  0  0  0
   28.9660   26.9070   50.1830 N   0  0  0  0  0  0  0  0  0  0  0  0
   30.8950   29.4970   49.9190 H   0  0  0  0  0  0  0  0  0  0  0  0
   28.6270   25.9520   50.3400 H   0  0  0  0  0  0  0  0  0  0  0  0
   29.1750   26.4560   51.1050 H   0  0  0  0  0  0  0  0  0  0  0  0
  1  6  1  0  0  0  0
  1  9  1  0  0  0  0
  2  1  2  0  0  0  0
  3  4  2  0  0  0  0
  3  2  1  0  0  0  0
  4  5  1  0  0  0  0
  5 25  1  0  0  0  0
  5  6  2  0  0  0  0
  7  2  1  0  0  0  0
  8  3  1  0  0  0  0
  9 13  1  0  0  0  0
 10  9  1  0  0  0  0
 10 11  1  0  0  0  0
 11 16  1  1  0  0  0
 11 21  1  0  0  0  0
 11 12  1  0  0  0  0
 12 18  1  0  0  0  0
 12 17  1  0  0  0  0
 13 19  1  0  0  0  0
 13 12  1  0  0  0  0
 14 10  1  0  0  0  0
 15 10  1  0  0  0  0
 20 13  1  0  0  0  0
 21 24  1  0  0  0  0
 22 21  1  0  0  0  0
 23 21  1  0  0  0  0
 25 27  1  0  0  0  0
 26 33  1  0  0  0  0
 26 35  1  0  0  0  0
 27 26  2  0  0  0  0
 28 30  2  0  0  0  0
 28 27  1  0  0  0  0
 29 28  1  0  0  0  0
 30 32  1  0  0  0  0
 31 30  1  0  0  0  0
 32 33  2  0  0  0  0
 35 34  2  0  0  0  0
 35 36  1  0  0  0  0
 36 38  1  0  0  0  0
 36 39  1  0  0  0  0
 37 34  1  0  0  0  0
M  END
>  <minimizedAffinity>
-6.86799288

>  <minimizedRMSD>
4.39757299

$$$$
