
 OpenBabel03272504003D

 36 38  0  0  0  0  0  0  0  0999 V2000
   34.8420   30.2490   45.1870 C   0  0  0  0  0  0  0  0  0  0  0  0
   34.3860   28.9450   45.2560 C   0  0  0  0  0  0  0  0  0  0  0  0
   34.4360   28.5450   46.5660 C   0  0  0  0  0  0  0  0  0  0  0  0
   34.9140   29.5900   47.2630 N   0  0  0  0  0  0  0  0  0  0  0  0
   35.1410   30.5680   46.4270 N   0  0  0  0  0  0  0  0  0  0  0  0
   34.0310   28.2880   44.4470 H   0  0  0  0  0  0  0  0  0  0  0  0
   34.1570   27.5990   46.9660 H   0  0  0  0  0  0  0  0  0  0  0  0
   36.2810   29.9490   49.3220 C   0  0  0  0  0  0  0  0  0  0  0  0
   35.1120   29.5500   48.6870 C   0  0  0  0  0  0  0  0  0  0  0  0
   34.0770   29.0860   49.4770 C   0  0  0  0  0  0  0  0  0  0  0  0
   33.1340   28.7590   49.0310 H   0  0  0  0  0  0  0  0  0  0  0  0
   34.1090   28.9870   50.8540 C   0  0  0  0  0  0  0  0  0  0  0  0
   33.2690   28.6150   51.4250 H   0  0  0  0  0  0  0  0  0  0  0  0
   35.2900   29.3920   51.4710 C   0  0  0  0  0  3  0  0  0  0  0  0
   36.3330   29.8580   50.6970 C   0  0  0  0  0  3  0  0  0  0  0  0
   37.1100   30.6870   47.2480 N   0  0  0  0  0  0  0  0  0  0  0  0
   37.3750   30.4400   48.4930 C   0  0  0  0  0  0  0  0  0  0  0  0
   38.6080   30.5670   49.2320 N   0  0  0  0  0  0  0  0  0  0  0  0
   37.8170   31.0390   46.5740 H   0  0  0  0  0  0  0  0  0  0  0  0
   38.9890   29.6300   49.5500 H   0  0  0  0  0  0  0  0  0  0  0  0
   39.0380   31.5030   49.4080 H   0  0  0  0  0  0  0  0  0  0  0  0
   34.9140   30.9640   43.8910 C   0  0  0  0  0  0  0  0  0  0  0  0
   34.6150   30.2760   43.0390 H   0  0  0  0  0  0  0  0  0  0  0  0
   34.0940   31.6960   43.8920 H   0  0  0  0  0  0  0  0  0  0  0  0
   36.2720   31.4520   43.5570 C   0  0  0  0  0  0  0  0  0  0  0  0
   36.4840   32.3030   44.2750 H   0  0  0  0  0  0  0  0  0  0  0  0
   37.0870   30.7150   43.8330 H   0  0  0  0  0  0  0  0  0  0  0  0
   36.5220   31.9490   42.2330 C   0  0  0  0  0  0  0  0  0  0  0  0
   35.5260   32.0210   41.2960 C   0  0  0  0  0  0  0  0  0  0  0  0
   35.7920   32.5040   39.9950 C   0  0  0  0  0  0  0  0  0  0  0  0
   37.1030   32.8880   39.7590 N   0  0  0  0  0  0  0  0  0  0  0  0
   38.0500   32.7990   40.7180 C   0  0  0  0  0  0  0  0  0  0  0  0
   37.7570   32.3290   41.9560 N   0  0  0  0  0  0  0  0  0  0  0  0
   34.4860   31.7560   41.3720 H   0  0  0  0  0  0  0  0  0  0  0  0
   35.0840   32.6000   39.1910 H   0  0  0  0  0  0  0  0  0  0  0  0
   39.0640   33.1250   40.4460 H   0  0  0  0  0  0  0  0  0  0  0  0
  1  2  1  0  0  0  0
  1  5  2  0  0  0  0
  2  3  2  0  0  0  0
  3  7  1  0  0  0  0
  3  4  1  0  0  0  0
  4  9  1  0  0  0  0
  5  4  1  0  0  0  0
  6  2  1  0  0  0  0
  8 15  1  0  0  0  0
  9  8  2  0  0  0  0
  9 10  1  0  0  0  0
 10 12  2  0  0  0  0
 11 10  1  0  0  0  0
 12 13  1  0  0  0  0
 12 14  1  0  0  0  0
 15 14  2  0  0  0  0
 16 17  2  0  0  0  0
 17 18  1  0  0  0  0
 17  8  1  0  0  0  0
 18 21  1  0  0  0  0
 18 20  1  0  0  0  0
 19 16  1  0  0  0  0
 22 24  1  0  0  0  0
 22  1  1  0  0  0  0
 23 22  1  0  0  0  0
 25 27  1  0  0  0  0
 25 22  1  0  0  0  0
 25 26  1  0  0  0  0
 28 25  1  0  0  0  0
 29 34  1  0  0  0  0
 29 28  2  0  0  0  0
 30 29  1  0  0  0  0
 31 30  2  0  0  0  0
 31 32  1  0  0  0  0
 32 33  2  0  0  0  0
 33 28  1  0  0  0  0
 35 30  1  0  0  0  0
 36 32  1  0  0  0  0
M  END
>  <minimizedAffinity>
-3.66451526

>  <minimizedRMSD>
5.39861298

$$$$
