
 OpenBabel03272500003D

 34 36  0  0  0  0  0  0  0  0999 V2000
   35.2390   30.0590   46.3540 C   0  0  0  0  0  0  0  0  0  0  0  0
   35.3720   30.1860   44.9380 C   0  0  0  0  0  0  0  0  0  0  0  0
   34.4370   29.5230   44.1720 C   0  0  0  0  0  0  0  0  0  0  0  0
   33.4590   28.7990   44.7790 N   0  0  0  0  0  0  0  0  0  0  0  0
   33.3620   28.7020   46.1130 C   0  0  0  0  0  0  0  0  0  0  0  0
   34.2630   29.3380   46.9310 N   0  0  0  0  0  0  0  0  0  0  0  0
   35.9400   30.5530   47.0350 H   0  0  0  0  0  0  0  0  0  0  0  0
   34.5210   29.6140   43.1180 H   0  0  0  0  0  0  0  0  0  0  0  0
   34.0560   25.6980   46.5600 Br  0  0  0  0  0  0  0  0  0  0  0  0
   32.4670   26.6040   47.0470 C   0  0  0  0  0  0  0  0  0  0  0  0
   32.3150   27.9330   46.7790 C   0  0  0  0  0  0  0  0  0  0  0  0
   31.1160   28.5320   47.1690 C   0  0  0  0  0  0  0  0  0  0  0  0
   30.0870   27.8700   47.8000 C   0  0  0  0  0  0  0  0  0  0  0  0
   30.3000   26.5110   48.0480 C   0  0  0  0  0  0  0  0  0  0  0  0
   31.4930   25.8950   47.6660 C   0  0  0  0  0  0  0  0  0  0  0  0
   30.9840   29.5940   46.9600 H   0  0  0  0  0  0  0  0  0  0  0  0
   29.2010   28.4050   48.0650 H   0  0  0  0  0  0  0  0  0  0  0  0
   29.5070   25.9620   48.5450 H   0  0  0  0  0  0  0  0  0  0  0  0
   31.5380   24.8290   47.9160 H   0  0  0  0  0  0  0  0  0  0  0  0
   36.4090   30.9540   44.4890 O   0  0  0  0  0  0  0  0  0  0  0  0
   38.8540   30.2970   44.5350 C   0  0  0  0  0  0  0  0  0  0  0  0
   37.7090   30.9920   44.8000 C   0  0  0  0  0  0  0  0  0  0  0  0
   37.9010   32.0900   45.6540 C   0  0  0  0  0  0  0  0  0  0  0  0
   37.1830   32.8300   46.0440 H   0  0  0  0  0  0  0  0  0  0  0  0
   39.1670   32.4060   46.1630 C   0  0  0  0  0  0  0  0  0  0  0  0
   39.4090   33.2270   46.8220 H   0  0  0  0  0  0  0  0  0  0  0  0
   40.2720   31.6500   45.8430 C   0  0  0  0  0  3  0  0  0  0  0  0
   40.1150   30.5680   45.0090 C   0  0  0  0  0  3  0  0  0  0  0  0
   39.7930   28.6080   43.2160 N   0  0  0  0  0  0  0  0  0  0  0  0
   38.7030   29.1530   43.6700 C   0  0  0  0  0  0  0  0  0  0  0  0
   37.9300   28.2170   42.9990 N   0  0  0  0  0  0  0  0  0  0  0  0
   40.7370   28.9730   43.4520 H   0  0  0  0  0  0  0  0  0  0  0  0
   37.5450   27.3280   43.4310 H   0  0  0  0  0  0  0  0  0  0  0  0
   37.5850   28.1680   42.0380 H   0  0  0  0  0  0  0  0  0  0  0  0
  1  6  1  0  0  0  0
  1  7  1  0  0  0  0
  2  1  2  0  0  0  0
  3  4  2  0  0  0  0
  3  2  1  0  0  0  0
  4  5  1  0  0  0  0
  5 11  1  0  0  0  0
  5  6  2  0  0  0  0
  8  3  1  0  0  0  0
  9 10  1  0  0  0  0
 10 15  1  0  0  0  0
 11 10  2  0  0  0  0
 11 12  1  0  0  0  0
 12 13  2  0  0  0  0
 13 14  1  0  0  0  0
 13 17  1  0  0  0  0
 14 18  1  0  0  0  0
 15 19  1  0  0  0  0
 15 14  2  0  0  0  0
 16 12  1  0  0  0  0
 20 22  1  0  0  0  0
 20  2  1  0  0  0  0
 21 22  2  0  0  0  0
 21 28  1  0  0  0  0
 22 23  1  0  0  0  0
 23 24  1  0  0  0  0
 23 25  2  0  0  0  0
 25 26  1  0  0  0  0
 27 25  1  0  0  0  0
 28 27  2  0  0  0  0
 29 32  1  0  0  0  0
 29 30  2  0  0  0  0
 30 21  1  0  0  0  0
 31 33  1  0  0  0  0
 31 30  1  0  0  0  0
 34 31  1  0  0  0  0
M  END
>  <minimizedAffinity>
-4.1981988

>  <minimizedRMSD>
6.11012936

$$$$
