
 OpenBabel03272509133D

 45 48  0  0  1  0  0  0  0  0999 V2000
   37.0720   31.6760   47.8250 N   0  0  0  0  0  0  0  0  0  0  0  0
   38.0820   32.6720   48.2670 C   0  0  0  0  0  0  0  0  0  0  0  0
   38.5700   32.0440   49.5640 C   0  0  0  0  0  0  0  0  0  0  0  0
   37.3340   31.3980   50.1380 C   0  0  0  0  0  0  0  0  0  0  0  0
   36.2910   31.5070   49.0480 C   0  0  2  0  0  0  0  0  0  0  0  0
   37.5710   33.6250   48.4120 H   0  0  0  0  0  0  0  0  0  0  0  0
   38.8680   32.7730   47.5090 H   0  0  0  0  0  0  0  0  0  0  0  0
   38.8920   32.8210   50.2870 H   0  0  0  0  0  0  0  0  0  0  0  0
   39.3710   31.3110   49.3360 H   0  0  0  0  0  0  0  0  0  0  0  0
   36.9960   31.8800   51.0750 H   0  0  0  0  0  0  0  0  0  0  0  0
   37.5460   30.3220   50.3950 H   0  0  0  0  0  0  0  0  0  0  0  0
   35.7400   32.4490   49.2070 H   0  0  0  0  0  0  0  0  0  0  0  0
   35.5000   30.3260   46.6350 C   0  0  0  0  0  0  0  0  0  0  0  0
   36.7720   30.9640   46.6370 C   0  0  0  0  0  0  0  0  0  0  0  0
   37.5850   30.7890   45.5120 C   0  0  0  0  0  0  0  0  0  0  0  0
   37.1310   30.0250   44.4820 N   0  0  0  0  0  0  0  0  0  0  0  0
   35.9150   29.4360   44.5260 C   0  0  0  0  0  0  0  0  0  0  0  0
   35.1120   29.5840   45.5840 N   0  0  0  0  0  0  0  0  0  0  0  0
   34.8010   30.4080   47.4530 H   0  0  0  0  0  0  0  0  0  0  0  0
   35.5240   28.8180   43.7190 H   0  0  0  0  0  0  0  0  0  0  0  0
   38.8760   31.4140   45.4070 C   0  0  0  0  0  0  0  0  0  0  0  0
   38.9590   32.6910   44.9000 C   0  0  0  0  0  0  0  0  0  0  0  0
   40.1430   33.3820   44.7600 C   0  0  0  0  0  0  0  0  0  0  0  0
   41.2880   32.7130   45.1650 C   0  0  0  0  0  0  0  0  0  0  0  0
   41.2870   31.4260   45.6850 C   0  0  0  0  0  0  0  0  0  0  0  0
   40.0380   30.7960   45.7940 C   0  0  0  0  0  0  0  0  0  0  0  0
   38.0500   33.2120   44.5820 H   0  0  0  0  0  0  0  0  0  0  0  0
   40.1990   34.3860   44.3600 H   0  0  0  0  0  0  0  0  0  0  0  0
   42.2590   33.1830   45.0890 H   0  0  0  0  0  0  0  0  0  0  0  0
   42.1980   30.9300   45.9940 H   0  0  0  0  0  0  0  0  0  0  0  0
   39.9900   29.7950   46.1940 H   0  0  0  0  0  0  0  0  0  0  0  0
   35.7970   29.2110   49.7670 C   0  0  0  0  0  0  0  0  0  0  0  0
   35.3910   30.3390   49.0420 C   0  0  0  0  0  0  0  0  0  0  0  0
   34.1950   30.2090   48.3900 C   0  0  0  0  0  0  0  0  0  0  0  0
   33.8560   31.0480   47.8210 H   0  0  0  0  0  0  0  0  0  0  0  0
   33.4210   29.0690   48.4210 C   0  0  0  0  0  0  0  0  0  0  0  0
   32.4770   29.0410   47.8750 H   0  0  0  0  0  0  0  0  0  0  0  0
   33.8410   27.9700   49.1400 C   0  0  0  0  0  0  0  0  0  0  0  0
   35.0400   28.0610   49.8110 C   0  0  0  0  0  0  0  0  0  0  0  0
   37.1150   29.4160   51.7870 N   0  0  0  0  0  0  0  0  0  0  0  0
   37.0300   29.1100   50.5340 C   0  0  0  0  0  0  0  0  0  0  0  0
   38.3610   28.7290   50.3280 N   0  0  0  0  0  0  0  0  0  0  0  0
   37.9980   29.3320   52.2970 H   0  0  0  0  0  0  0  0  0  0  0  0
   38.3070   27.6700   50.2750 H   0  0  0  0  0  0  0  0  0  0  0  0
   39.2030   29.3370   50.2440 H   0  0  0  0  0  0  0  0  0  0  0  0
  1  2  1  0  0  0  0
  1  5  1  0  0  0  0
  2  6  1  0  0  0  0
  2  3  1  0  0  0  0
  3  4  1  0  0  0  0
  3  8  1  0  0  0  0
  4 11  1  0  0  0  0
  4 10  1  0  0  0  0
  5 12  1  1  0  0  0
  5  4  1  0  0  0  0
  7  2  1  0  0  0  0
  9  3  1  0  0  0  0
 13 14  1  0  0  0  0
 13 19  1  0  0  0  0
 14  1  1  0  0  0  0
 15 14  2  0  0  0  0
 16 17  2  0  0  0  0
 16 15  1  0  0  0  0
 17 18  1  0  0  0  0
 18 13  2  0  0  0  0
 20 17  1  0  0  0  0
 21 15  1  0  0  0  0
 21 26  1  0  0  0  0
 22 21  2  0  0  0  0
 23 22  1  0  0  0  0
 23 24  2  0  0  0  0
 24 25  1  0  0  0  0
 25 26  2  0  0  0  0
 25 30  1  0  0  0  0
 26 31  1  0  0  0  0
 27 22  1  0  0  0  0
 28 23  1  0  0  0  0
 29 24  1  0  0  0  0
 32 39  1  0  0  0  0
 32 41  1  0  0  0  0
 33  5  1  0  0  0  0
 33 32  2  0  0  0  0
 34 36  2  0  0  0  0
 34 33  1  0  0  0  0
 35 34  1  0  0  0  0
 36 38  1  0  0  0  0
 37 36  1  0  0  0  0
 38 39  2  0  0  0  0
 40 43  1  0  0  0  0
 41 40  2  0  0  0  0
 42 41  1  0  0  0  0
 44 42  1  0  0  0  0
 45 42  1  0  0  0  0
M  END
>  <minimizedAffinity>
-6.05166197

>  <minimizedRMSD>
1.54386604

$$$$
