
 OpenBabel03272509333D

 46 50  0  0  1  0  0  0  0  0999 V2000
   37.3950   31.4460   47.4730 C   0  0  1  0  0  0  0  0  0  0  0  0
   38.4770   32.3990   47.7490 C   0  0  0  0  0  0  0  0  0  0  0  0
   38.8390   31.1820   46.9750 C   0  0  2  0  0  0  0  0  0  0  0  0
   36.7240   31.5920   46.6490 H   0  0  0  0  0  0  0  0  0  0  0  0
   38.7890   32.4510   48.8370 H   0  0  0  0  0  0  0  0  0  0  0  0
   38.2440   33.3970   47.3540 H   0  0  0  0  0  0  0  0  0  0  0  0
   39.1190   30.1730   47.2260 H   0  0  0  0  0  0  0  0  0  0  0  0
   39.2010   31.5460   45.5770 C   0  0  0  0  0  0  0  0  0  0  0  0
   39.5760   32.8890   45.5100 C   0  0  0  0  0  0  0  0  0  0  0  0
   40.0350   33.4430   44.3330 C   0  0  0  0  0  0  0  0  0  0  0  0
   40.1360   32.6710   43.1780 C   0  0  0  0  0  0  0  0  0  0  0  0
   39.7620   31.3500   43.2690 C   0  0  0  0  0  0  0  0  0  0  0  0
   39.8000   30.4760   42.2030 C   0  0  0  0  0  0  0  0  0  0  0  0
   39.4160   29.1500   42.2820 C   0  0  0  0  0  0  0  0  0  0  0  0
   38.9640   28.6560   43.4960 C   0  0  0  0  0  0  0  0  0  0  0  0
   38.9210   29.5170   44.5670 C   0  0  0  0  0  0  0  0  0  0  0  0
   39.3120   30.8260   44.4430 C   0  0  0  0  0  0  0  0  0  0  0  0
   39.6470   33.7260   46.1760 H   0  0  0  0  0  0  0  0  0  0  0  0
   40.3620   34.4470   44.1070 H   0  0  0  0  0  0  0  0  0  0  0  0
   40.4720   32.9420   42.1770 H   0  0  0  0  0  0  0  0  0  0  0  0
   40.1510   30.8370   41.2350 H   0  0  0  0  0  0  0  0  0  0  0  0
   39.4750   28.5240   41.3960 H   0  0  0  0  0  0  0  0  0  0  0  0
   38.6570   27.6440   43.6130 H   0  0  0  0  0  0  0  0  0  0  0  0
   38.5590   29.1060   45.5260 H   0  0  0  0  0  0  0  0  0  0  0  0
   35.6280   28.6470   49.2190 C   0  0  0  0  0  0  0  0  0  0  0  0
   36.0710   29.5180   48.2010 C   0  0  0  0  0  0  0  0  0  0  0  0
   36.9780   30.5200   48.5510 C   0  0  0  0  0  0  0  0  0  0  0  0
   37.3980   30.6170   49.8480 N   0  0  0  0  0  0  0  0  0  0  0  0
   36.9570   29.7730   50.7970 C   0  0  0  0  0  0  0  0  0  0  0  0
   36.0580   28.7740   50.4760 N   0  0  0  0  0  0  0  0  0  0  0  0
   34.9260   27.8790   48.9250 H   0  0  0  0  0  0  0  0  0  0  0  0
   35.7060   29.3920   47.1920 H   0  0  0  0  0  0  0  0  0  0  0  0
   38.1660   28.8260   52.8120 C   0  0  0  0  0  0  0  0  0  0  0  0
   37.3460   29.7220   52.1910 C   0  0  0  0  0  0  0  0  0  0  0  0
   36.8510   30.6520   53.1110 C   0  0  0  0  0  0  0  0  0  0  0  0
   36.1680   31.4500   52.7710 H   0  0  0  0  0  0  0  0  0  0  0  0
   37.1370   30.6770   54.4370 C   0  0  0  0  0  0  0  0  0  0  0  0
   36.7210   31.4260   55.0910 H   0  0  0  0  0  0  0  0  0  0  0  0
   37.9670   29.7500   54.9840 C   0  0  0  0  0  3  0  0  0  0  0  0
   38.4950   28.7990   54.1480 C   0  0  0  0  0  3  0  0  0  0  0  0
   39.3920   26.7720   52.7000 N   0  0  0  0  0  0  0  0  0  0  0  0
   38.7610   27.7420   52.0630 C   0  0  0  0  0  0  0  0  0  0  0  0
   39.0580   27.1020   50.8520 N   0  0  0  0  0  0  0  0  0  0  0  0
   39.8070   26.0120   52.1170 H   0  0  0  0  0  0  0  0  0  0  0  0
   39.9120   27.2890   50.2450 H   0  0  0  0  0  0  0  0  0  0  0  0
   38.4770   26.3530   50.3730 H   0  0  0  0  0  0  0  0  0  0  0  0
  1  4  1  6  0  0  0
  1  2  1  0  0  0  0
  1 27  1  0  0  0  0
  2  5  1  0  0  0  0
  3  7  1  1  0  0  0
  3  1  1  0  0  0  0
  3  2  1  0  0  0  0
  6  2  1  0  0  0  0
  8  3  1  0  0  0  0
  9  8  1  0  0  0  0
  9 18  1  0  0  0  0
 10  9  2  0  0  0  0
 11 12  2  0  0  0  0
 11 10  1  0  0  0  0
 12 17  1  0  0  0  0
 13 14  2  0  0  0  0
 13 12  1  0  0  0  0
 14 15  1  0  0  0  0
 15 23  1  0  0  0  0
 15 16  2  0  0  0  0
 16 24  1  0  0  0  0
 17 16  1  0  0  0  0
 17  8  2  0  0  0  0
 19 10  1  0  0  0  0
 20 11  1  0  0  0  0
 21 13  1  0  0  0  0
 22 14  1  0  0  0  0
 25 30  1  0  0  0  0
 26 27  1  0  0  0  0
 26 25  2  0  0  0  0
 27 28  2  0  0  0  0
 28 29  1  0  0  0  0
 29 34  1  0  0  0  0
 30 29  2  0  0  0  0
 31 25  1  0  0  0  0
 32 26  1  0  0  0  0
 33 40  1  0  0  0  0
 34 33  2  0  0  0  0
 34 35  1  0  0  0  0
 35 37  2  0  0  0  0
 36 35  1  0  0  0  0
 37 39  1  0  0  0  0
 37 38  1  0  0  0  0
 40 39  2  0  0  0  0
 42 41  2  0  0  0  0
 42 33  1  0  0  0  0
 43 42  1  0  0  0  0
 44 41  1  0  0  0  0
 45 43  1  0  0  0  0
 46 43  1  0  0  0  0
M  END
>  <minimizedAffinity>
4.35259676

>  <minimizedRMSD>
1.1196624

$$$$
