
 OpenBabel03272506073D

 35 37  0  0  0  0  0  0  0  0999 V2000
   34.5050   28.6450   48.6820 C   0  0  0  0  0  0  0  0  0  0  0  0
   34.4280   29.2100   47.3560 C   0  0  0  0  0  0  0  0  0  0  0  0
   32.7130   28.9900   47.0040 S   0  0  0  0  0  0  0  0  0  0  0  0
   32.3160   28.1840   48.6470 C   0  0  0  0  0  0  0  0  0  0  0  0
   33.3870   28.1870   49.1720 N   0  0  0  0  0  0  0  0  0  0  0  0
   35.2480   29.6340   46.7920 H   0  0  0  0  0  0  0  0  0  0  0  0
   30.4040   26.7490   48.1500 C   0  0  0  0  0  0  0  0  0  0  0  0
   30.9190   27.7780   48.8790 C   0  0  0  0  0  0  0  0  0  0  0  0
   30.0910   28.3810   49.7980 C   0  0  0  0  0  0  0  0  0  0  0  0
   30.4760   29.2010   50.3900 H   0  0  0  0  0  0  0  0  0  0  0  0
   28.8150   27.9420   49.9430 C   0  0  0  0  0  0  0  0  0  0  0  0
   28.2130   28.4550   50.6800 H   0  0  0  0  0  0  0  0  0  0  0  0
   28.3120   26.9070   49.2000 C   0  0  0  0  0  3  0  0  0  0  0  0
   29.1150   26.2820   48.2740 C   0  0  0  0  0  3  0  0  0  0  0  0
   32.2480   25.3590   46.9040 N   0  0  0  0  0  0  0  0  0  0  0  0
   31.2230   26.0800   47.1820 C   0  0  0  0  0  0  0  0  0  0  0  0
   30.8950   26.1200   45.7790 N   0  0  0  0  0  0  0  0  0  0  0  0
   32.4470   25.0990   45.9130 H   0  0  0  0  0  0  0  0  0  0  0  0
   31.1910   26.5860   44.8720 H   0  0  0  0  0  0  0  0  0  0  0  0
   30.0940   25.5020   45.4580 H   0  0  0  0  0  0  0  0  0  0  0  0
   35.8330   28.6310   49.3770 C   0  0  0  0  0  0  0  0  0  0  0  0
   35.9430   27.7040   49.9770 H   0  0  0  0  0  0  0  0  0  0  0  0
   36.6530   28.5630   48.6020 H   0  0  0  0  0  0  0  0  0  0  0  0
   36.0170   29.8090   50.2640 C   0  0  0  0  0  0  0  0  0  0  0  0
   35.0650   30.2870   50.5030 H   0  0  0  0  0  0  0  0  0  0  0  0
   36.4680   29.5130   51.2510 H   0  0  0  0  0  0  0  0  0  0  0  0
   37.7690   32.9550   49.3880 C   0  0  0  0  0  0  0  0  0  0  0  0
   38.5500   32.5940   48.2920 C   0  0  0  0  0  0  0  0  0  0  0  0
   38.4680   31.2600   47.8580 C   0  0  0  0  0  0  0  0  0  0  0  0
   37.6410   30.4150   48.5270 N   0  0  0  0  0  0  0  0  0  0  0  0
   36.9060   30.8310   49.5900 C   0  0  0  0  0  0  0  0  0  0  0  0
   36.9640   32.0930   50.0240 N   0  0  0  0  0  0  0  0  0  0  0  0
   37.7890   33.9570   49.7650 H   0  0  0  0  0  0  0  0  0  0  0  0
   39.1740   33.3370   47.8300 H   0  0  0  0  0  0  0  0  0  0  0  0
   39.0590   30.9560   47.0170 H   0  0  0  0  0  0  0  0  0  0  0  0
  1  5  1  0  0  0  0
  1 21  1  0  0  0  0
  2  1  2  0  0  0  0
  3  2  1  0  0  0  0
  3  4  1  0  0  0  0
  4  8  1  0  0  0  0
  4  5  2  0  0  0  0
  6  2  1  0  0  0  0
  7 14  2  0  0  0  0
  7  8  1  0  0  0  0
  8  9  2  0  0  0  0
  9 11  1  0  0  0  0
  9 10  1  0  0  0  0
 11 12  1  0  0  0  0
 13 11  2  0  0  0  0
 14 13  1  0  0  0  0
 15 16  2  0  0  0  0
 16  7  1  0  0  0  0
 17 16  1  0  0  0  0
 18 15  1  0  0  0  0
 19 17  1  0  0  0  0
 20 17  1  0  0  0  0
 21 22  1  0  0  0  0
 21 24  1  0  0  0  0
 23 21  1  0  0  0  0
 24 25  1  0  0  0  0
 24 26  1  0  0  0  0
 27 33  1  0  0  0  0
 27 32  1  0  0  0  0
 28 27  2  0  0  0  0
 29 28  1  0  0  0  0
 29 30  2  0  0  0  0
 30 31  1  0  0  0  0
 31 32  2  0  0  0  0
 31 24  1  0  0  0  0
 34 28  1  0  0  0  0
 35 29  1  0  0  0  0
M  END
>  <minimizedAffinity>
-4.6919055

>  <minimizedRMSD>
0.899139524

$$$$
