
 OpenBabel03272503233D

 35 37  0  0  1  0  0  0  0  0999 V2000
   36.9030   26.3420   32.1860 N   0  0  0  0  0  0  0  0  0  0  0  0
   37.8460   27.3200   32.5090 C   0  0  2  0  0  0  0  0  0  0  0  0
   37.5230   28.4700   31.5650 C   0  0  0  0  0  0  0  0  0  0  0  0
   36.4050   27.9800   30.6950 C   0  0  0  0  0  0  0  0  0  0  0  0
   35.7220   27.0580   31.6620 C   0  0  0  0  0  0  0  0  0  0  0  0
   37.4060   27.7510   33.5160 H   0  0  0  0  0  0  0  0  0  0  0  0
   37.1540   29.3760   32.0830 H   0  0  0  0  0  0  0  0  0  0  0  0
   38.4060   28.8150   31.0030 H   0  0  0  0  0  0  0  0  0  0  0  0
   35.6870   28.8150   30.4420 H   0  0  0  0  0  0  0  0  0  0  0  0
   36.7000   27.4720   29.7680 H   0  0  0  0  0  0  0  0  0  0  0  0
   35.2930   27.6820   32.4750 H   0  0  0  0  0  0  0  0  0  0  0  0
   35.0060   26.3800   31.2050 H   0  0  0  0  0  0  0  0  0  0  0  0
   36.9030   24.9420   32.3290 C   0  0  0  0  0  0  0  0  0  0  0  0
   36.0630   24.2630   31.4700 C   0  0  0  0  0  0  0  0  0  0  0  0
   35.9810   22.8760   31.4670 C   0  0  0  0  0  0  0  0  0  0  0  0
   36.7930   22.2420   32.3720 N   0  0  0  0  0  0  0  0  0  0  0  0
   37.6050   22.9110   33.2010 C   0  0  0  0  0  0  0  0  0  0  0  0
   37.6650   24.2740   33.1840 N   0  0  0  0  0  0  0  0  0  0  0  0
   35.3740   24.5410   30.7070 H   0  0  0  0  0  0  0  0  0  0  0  0
   35.4010   22.1930   30.8880 H   0  0  0  0  0  0  0  0  0  0  0  0
   38.2340   22.3610   33.9060 H   0  0  0  0  0  0  0  0  0  0  0  0
   39.8780   27.0410   34.0170 C   0  0  0  0  0  0  0  0  0  0  0  0
   39.2290   27.1570   32.7790 C   0  0  0  0  0  0  0  0  0  0  0  0
   40.1860   27.0810   31.7520 C   0  0  0  0  0  0  0  0  0  0  0  0
   39.8320   27.1560   30.7120 H   0  0  0  0  0  0  0  0  0  0  0  0
   41.5200   26.9210   31.9080 C   0  0  0  0  0  0  0  0  0  0  0  0
   42.1830   26.8730   31.0600 H   0  0  0  0  0  0  0  0  0  0  0  0
   42.0440   26.8170   33.1710 C   0  0  0  0  0  3  0  0  0  0  0  0
   41.2240   26.8760   34.2500 C   0  0  0  0  0  3  0  0  0  0  0  0
   38.5210   27.6900   36.1940 N   0  0  0  0  0  0  0  0  0  0  0  0
   39.0660   27.1180   35.2100 C   0  0  0  0  0  0  0  0  0  0  0  0
   38.4230   25.9230   35.7110 N   0  0  0  0  0  0  0  0  0  0  0  0
   37.9330   27.0940   36.8280 H   0  0  0  0  0  0  0  0  0  0  0  0
   39.0000   25.1470   36.1500 H   0  0  0  0  0  0  0  0  0  0  0  0
   37.6420   25.2690   35.9370 H   0  0  0  0  0  0  0  0  0  0  0  0
  1 13  1  0  0  0  0
  1  2  1  0  0  0  0
  2 23  1  0  0  0  0
  2  6  1  1  0  0  0
  3  7  1  0  0  0  0
  3  2  1  0  0  0  0
  4  3  1  0  0  0  0
  4  5  1  0  0  0  0
  5  1  1  0  0  0  0
  5 11  1  0  0  0  0
  8  3  1  0  0  0  0
  9  4  1  0  0  0  0
 10  4  1  0  0  0  0
 12  5  1  0  0  0  0
 13 18  1  0  0  0  0
 14 13  2  0  0  0  0
 15 14  1  0  0  0  0
 15 16  2  0  0  0  0
 16 17  1  0  0  0  0
 17 21  1  0  0  0  0
 18 17  2  0  0  0  0
 19 14  1  0  0  0  0
 20 15  1  0  0  0  0
 22 29  1  0  0  0  0
 22 31  1  0  0  0  0
 23 22  2  0  0  0  0
 24 26  2  0  0  0  0
 24 23  1  0  0  0  0
 25 24  1  0  0  0  0
 26 28  1  0  0  0  0
 27 26  1  0  0  0  0
 28 29  2  0  0  0  0
 30 33  1  0  0  0  0
 31 32  1  0  0  0  0
 31 30  2  0  0  0  0
 32 35  1  0  0  0  0
 32 34  1  0  0  0  0
M  END
>  <minimizedAffinity>
-5.29819298

$$$$

 OpenBabel03272503233D

 35 37  0  0  1  0  0  0  0  0999 V2000
   38.2610   24.7850   34.0940 N   0  0  0  0  0  0  0  0  0  0  0  0
   39.1560   25.0570   35.1310 C   0  0  2  0  0  0  0  0  0  0  0  0
   39.4900   26.5320   34.9520 C   0  0  0  0  0  0  0  0  0  0  0  0
   38.7650   26.9660   33.7150 C   0  0  0  0  0  0  0  0  0  0  0  0
   37.5740   26.0570   33.7910 C   0  0  0  0  0  0  0  0  0  0  0  0
   38.4300   25.1220   36.0590 H   0  0  0  0  0  0  0  0  0  0  0  0
   39.1250   27.1710   35.7790 H   0  0  0  0  0  0  0  0  0  0  0  0
   40.5760   26.7160   34.9200 H   0  0  0  0  0  0  0  0  0  0  0  0
   38.3990   28.0310   33.8060 H   0  0  0  0  0  0  0  0  0  0  0  0
   39.3130   26.8600   32.7690 H   0  0  0  0  0  0  0  0  0  0  0  0
   36.9770   26.3600   34.6780 H   0  0  0  0  0  0  0  0  0  0  0  0
   36.9960   25.9980   32.8730 H   0  0  0  0  0  0  0  0  0  0  0  0
   37.9250   23.5970   33.4190 C   0  0  0  0  0  0  0  0  0  0  0  0
   38.0080   23.6570   32.0430 C   0  0  0  0  0  0  0  0  0  0  0  0
   37.7430   22.5530   31.2420 C   0  0  0  0  0  0  0  0  0  0  0  0
   37.3960   21.4110   31.9200 N   0  0  0  0  0  0  0  0  0  0  0  0
   37.3190   21.3640   33.2560 C   0  0  0  0  0  0  0  0  0  0  0  0
   37.5830   22.4640   34.0180 N   0  0  0  0  0  0  0  0  0  0  0  0
   38.2560   24.4090   31.3320 H   0  0  0  0  0  0  0  0  0  0  0  0
   37.7550   22.4140   30.1850 H   0  0  0  0  0  0  0  0  0  0  0  0
   37.0380   20.4310   33.7500 H   0  0  0  0  0  0  0  0  0  0  0  0
   40.2330   23.2370   36.5480 C   0  0  0  0  0  0  0  0  0  0  0  0
   40.2370   24.2650   35.5930 C   0  0  0  0  0  0  0  0  0  0  0  0
   41.5450   24.4280   35.1030 C   0  0  0  0  0  0  0  0  0  0  0  0
   41.7150   25.2030   34.3400 H   0  0  0  0  0  0  0  0  0  0  0  0
   42.6360   23.7200   35.4760 C   0  0  0  0  0  0  0  0  0  0  0  0
   43.6050   23.9140   35.0460 H   0  0  0  0  0  0  0  0  0  0  0  0
   42.5100   22.7340   36.4210 C   0  0  0  0  0  3  0  0  0  0  0  0
   41.2980   22.4780   36.9730 C   0  0  0  0  0  3  0  0  0  0  0  0
   37.7450   22.6580   37.2410 N   0  0  0  0  0  0  0  0  0  0  0  0
   38.9770   22.9260   37.1930 C   0  0  0  0  0  0  0  0  0  0  0  0
   38.9250   22.8230   38.6350 N   0  0  0  0  0  0  0  0  0  0  0  0
   37.3250   22.5070   38.1910 H   0  0  0  0  0  0  0  0  0  0  0  0
   39.0250   23.6910   39.2390 H   0  0  0  0  0  0  0  0  0  0  0  0
   38.8400   22.3630   39.5680 H   0  0  0  0  0  0  0  0  0  0  0  0
  1  2  1  0  0  0  0
  2 23  1  0  0  0  0
  2  6  1  1  0  0  0
  3  2  1  0  0  0  0
  3  7  1  0  0  0  0
  4  5  1  0  0  0  0
  4  9  1  0  0  0  0
  4  3  1  0  0  0  0
  5  1  1  0  0  0  0
  5 11  1  0  0  0  0
  8  3  1  0  0  0  0
 10  4  1  0  0  0  0
 12  5  1  0  0  0  0
 13 18  1  0  0  0  0
 13  1  1  0  0  0  0
 14 13  2  0  0  0  0
 15 16  2  0  0  0  0
 15 14  1  0  0  0  0
 16 17  1  0  0  0  0
 17 21  1  0  0  0  0
 17 18  2  0  0  0  0
 19 14  1  0  0  0  0
 20 15  1  0  0  0  0
 22 29  1  0  0  0  0
 22 31  1  0  0  0  0
 23 22  2  0  0  0  0
 24 26  2  0  0  0  0
 24 23  1  0  0  0  0
 25 24  1  0  0  0  0
 26 28  1  0  0  0  0
 27 26  1  0  0  0  0
 28 29  2  0  0  0  0
 30 33  1  0  0  0  0
 31 30  2  0  0  0  0
 31 32  1  0  0  0  0
 32 34  1  0  0  0  0
 32 35  1  0  0  0  0
M  END
>  <minimizedAffinity>
-5.23252296

$$$$

 OpenBabel03272503233D

 35 37  0  0  1  0  0  0  0  0999 V2000
   39.7050   24.4760   33.1770 N   0  0  0  0  0  0  0  0  0  0  0  0
   40.1910   24.6670   34.4720 C   0  0  2  0  0  0  0  0  0  0  0  0
   41.6470   24.2280   34.3880 C   0  0  0  0  0  0  0  0  0  0  0  0
   41.8430   23.7340   32.9880 C   0  0  0  0  0  0  0  0  0  0  0  0
   40.8630   24.6170   32.2720 C   0  0  0  0  0  0  0  0  0  0  0  0
   40.3320   25.8390   34.5030 H   0  0  0  0  0  0  0  0  0  0  0  0
   42.3670   25.0550   34.5410 H   0  0  0  0  0  0  0  0  0  0  0  0
   41.9090   23.4890   35.1620 H   0  0  0  0  0  0  0  0  0  0  0  0
   42.8780   23.9780   32.6070 H   0  0  0  0  0  0  0  0  0  0  0  0
   41.6460   22.6670   32.8190 H   0  0  0  0  0  0  0  0  0  0  0  0
   41.2420   25.6590   32.3370 H   0  0  0  0  0  0  0  0  0  0  0  0
   40.6290   24.2980   31.2600 H   0  0  0  0  0  0  0  0  0  0  0  0
   38.4110   24.2510   32.6750 C   0  0  0  0  0  0  0  0  0  0  0  0
   38.0260   22.9270   32.6060 C   0  0  0  0  0  0  0  0  0  0  0  0
   36.7630   22.5510   32.1650 C   0  0  0  0  0  0  0  0  0  0  0  0
   35.9370   23.5870   31.8090 N   0  0  0  0  0  0  0  0  0  0  0  0
   36.3200   24.8680   31.8800 C   0  0  0  0  0  0  0  0  0  0  0  0
   37.5680   25.2100   32.3160 N   0  0  0  0  0  0  0  0  0  0  0  0
   38.4860   21.9930   32.8300 H   0  0  0  0  0  0  0  0  0  0  0  0
   36.3000   21.5980   32.0460 H   0  0  0  0  0  0  0  0  0  0  0  0
   35.6260   25.6590   31.5850 H   0  0  0  0  0  0  0  0  0  0  0  0
   38.5460   25.0640   36.3730 C   0  0  0  0  0  0  0  0  0  0  0  0
   39.5600   24.3640   35.7050 C   0  0  0  0  0  0  0  0  0  0  0  0
   39.9030   23.2270   36.4590 C   0  0  0  0  0  0  0  0  0  0  0  0
   40.6910   22.5670   36.0660 H   0  0  0  0  0  0  0  0  0  0  0  0
   39.3560   22.8510   37.6380 C   0  0  0  0  0  0  0  0  0  0  0  0
   39.6810   21.9600   38.1500 H   0  0  0  0  0  0  0  0  0  0  0  0
   38.3660   23.6180   38.1980 C   0  0  0  0  0  3  0  0  0  0  0  0
   37.9450   24.7430   37.5680 C   0  0  0  0  0  3  0  0  0  0  0  0
   37.3510   26.9820   34.9930 N   0  0  0  0  0  0  0  0  0  0  0  0
   38.0640   26.2860   35.7690 C   0  0  0  0  0  0  0  0  0  0  0  0
   38.6240   27.5540   36.1830 N   0  0  0  0  0  0  0  0  0  0  0  0
   37.4910   28.0220   35.0190 H   0  0  0  0  0  0  0  0  0  0  0  0
   39.6200   27.8120   35.9210 H   0  0  0  0  0  0  0  0  0  0  0  0
   38.6580   28.4920   36.6400 H   0  0  0  0  0  0  0  0  0  0  0  0
  1  2  1  0  0  0  0
  2  6  1  1  0  0  0
  2 23  1  0  0  0  0
  3  2  1  0  0  0  0
  3  7  1  0  0  0  0
  3  8  1  0  0  0  0
  4  3  1  0  0  0  0
  5 11  1  0  0  0  0
  5  4  1  0  0  0  0
  5  1  1  0  0  0  0
  9  4  1  0  0  0  0
 10  4  1  0  0  0  0
 12  5  1  0  0  0  0
 13  1  1  0  0  0  0
 14 13  1  0  0  0  0
 14 19  1  0  0  0  0
 15 14  2  0  0  0  0
 16 17  2  0  0  0  0
 16 15  1  0  0  0  0
 17 18  1  0  0  0  0
 18 13  2  0  0  0  0
 20 15  1  0  0  0  0
 21 17  1  0  0  0  0
 22 29  1  0  0  0  0
 23 22  2  0  0  0  0
 23 24  1  0  0  0  0
 24 26  2  0  0  0  0
 25 24  1  0  0  0  0
 26 27  1  0  0  0  0
 26 28  1  0  0  0  0
 29 28  2  0  0  0  0
 30 33  1  0  0  0  0
 30 31  2  0  0  0  0
 31 32  1  0  0  0  0
 31 22  1  0  0  0  0
 32 35  1  0  0  0  0
 34 32  1  0  0  0  0
M  END
>  <minimizedAffinity>
-5.01869869

$$$$

 OpenBabel03272503233D

 35 37  0  0  1  0  0  0  0  0999 V2000
   37.9410   25.5300   33.7330 N   0  0  0  0  0  0  0  0  0  0  0  0
   38.0350   26.9230   33.7800 C   0  0  2  0  0  0  0  0  0  0  0  0
   38.3590   27.2220   35.2380 C   0  0  0  0  0  0  0  0  0  0  0  0
   38.3470   25.8970   35.9370 C   0  0  0  0  0  0  0  0  0  0  0  0
   38.8090   25.0170   34.8130 C   0  0  0  0  0  0  0  0  0  0  0  0
   39.0950   27.1060   33.2930 H   0  0  0  0  0  0  0  0  0  0  0  0
   39.3660   27.6550   35.3870 H   0  0  0  0  0  0  0  0  0  0  0  0
   37.6720   27.9630   35.6780 H   0  0  0  0  0  0  0  0  0  0  0  0
   39.1260   25.8570   36.7550 H   0  0  0  0  0  0  0  0  0  0  0  0
   37.3820   25.5760   36.3510 H   0  0  0  0  0  0  0  0  0  0  0  0
   39.8620   25.2890   34.5850 H   0  0  0  0  0  0  0  0  0  0  0  0
   38.6590   23.9540   34.9850 H   0  0  0  0  0  0  0  0  0  0  0  0
   37.2600   24.6550   32.8680 C   0  0  0  0  0  0  0  0  0  0  0  0
   37.6010   23.3230   32.9890 C   0  0  0  0  0  0  0  0  0  0  0  0
   36.9880   22.3350   32.2270 C   0  0  0  0  0  0  0  0  0  0  0  0
   36.0270   22.7830   31.3570 N   0  0  0  0  0  0  0  0  0  0  0  0
   35.7040   24.0780   31.2480 C   0  0  0  0  0  0  0  0  0  0  0  0
   36.3230   25.0280   32.0070 N   0  0  0  0  0  0  0  0  0  0  0  0
   38.2890   22.7690   33.5840 H   0  0  0  0  0  0  0  0  0  0  0  0
   37.1180   21.2780   32.1850 H   0  0  0  0  0  0  0  0  0  0  0  0
   34.9310   24.3860   30.5390 H   0  0  0  0  0  0  0  0  0  0  0  0
   37.2470   28.3780   31.8460 C   0  0  0  0  0  0  0  0  0  0  0  0
   37.2000   27.8840   33.1580 C   0  0  0  0  0  0  0  0  0  0  0  0
   36.1340   28.5000   33.8390 C   0  0  0  0  0  0  0  0  0  0  0  0
   35.9630   28.2170   34.8890 H   0  0  0  0  0  0  0  0  0  0  0  0
   35.2820   29.4200   33.3320 C   0  0  0  0  0  0  0  0  0  0  0  0
   34.4900   29.8420   33.9300 H   0  0  0  0  0  0  0  0  0  0  0  0
   35.4250   29.8280   32.0310 C   0  0  0  0  0  3  0  0  0  0  0  0
   36.4170   29.3080   31.2650 C   0  0  0  0  0  3  0  0  0  0  0  0
   39.4640   27.8240   30.5100 N   0  0  0  0  0  0  0  0  0  0  0  0
   38.2940   27.8830   30.9810 C   0  0  0  0  0  0  0  0  0  0  0  0
   37.9970   26.8310   30.0340 N   0  0  0  0  0  0  0  0  0  0  0  0
   39.6370   27.1230   29.7470 H   0  0  0  0  0  0  0  0  0  0  0  0
   37.3860   27.0280   29.1880 H   0  0  0  0  0  0  0  0  0  0  0  0
   38.0140   25.8750   29.6150 H   0  0  0  0  0  0  0  0  0  0  0  0
  1  2  1  0  0  0  0
  1  5  1  0  0  0  0
  2  6  1  6  0  0  0
  2  3  1  0  0  0  0
  3  7  1  0  0  0  0
  3  8  1  0  0  0  0
  3  4  1  0  0  0  0
  4 10  1  0  0  0  0
  4  9  1  0  0  0  0
  5 12  1  0  0  0  0
  5  4  1  0  0  0  0
 11  5  1  0  0  0  0
 13 14  1  0  0  0  0
 13  1  1  0  0  0  0
 14 19  1  0  0  0  0
 15 14  2  0  0  0  0
 16 15  1  0  0  0  0
 17 16  2  0  0  0  0
 17 18  1  0  0  0  0
 18 13  2  0  0  0  0
 20 15  1  0  0  0  0
 21 17  1  0  0  0  0
 22 23  1  0  0  0  0
 23  2  1  0  0  0  0
 23 24  2  0  0  0  0
 24 25  1  0  0  0  0
 26 24  1  0  0  0  0
 26 27  1  0  0  0  0
 28 26  2  0  0  0  0
 29 22  2  0  0  0  0
 29 28  1  0  0  0  0
 30 31  2  0  0  0  0
 31 22  1  0  0  0  0
 32 31  1  0  0  0  0
 33 30  1  0  0  0  0
 34 32  1  0  0  0  0
 35 32  1  0  0  0  0
M  END
>  <minimizedAffinity>
-5.00885916

$$$$

 OpenBabel03272503233D

 35 37  0  0  1  0  0  0  0  0999 V2000
   38.6950   22.6830   35.9020 N   0  0  0  0  0  0  0  0  0  0  0  0
   39.8630   22.6250   36.6660 C   0  0  2  0  0  0  0  0  0  0  0  0
   39.4500   23.2000   38.0150 C   0  0  0  0  0  0  0  0  0  0  0  0
   38.0200   23.6200   37.8570 C   0  0  0  0  0  0  0  0  0  0  0  0
   37.5690   22.5990   36.8540 C   0  0  0  0  0  0  0  0  0  0  0  0
   39.9110   21.4780   36.9390 H   0  0  0  0  0  0  0  0  0  0  0  0
   39.4780   22.4610   38.8380 H   0  0  0  0  0  0  0  0  0  0  0  0
   40.1170   24.0100   38.3490 H   0  0  0  0  0  0  0  0  0  0  0  0
   37.4360   23.4550   38.8100 H   0  0  0  0  0  0  0  0  0  0  0  0
   37.8520   24.6490   37.5120 H   0  0  0  0  0  0  0  0  0  0  0  0
   37.5950   21.6060   37.3510 H   0  0  0  0  0  0  0  0  0  0  0  0
   36.6180   22.8270   36.3800 H   0  0  0  0  0  0  0  0  0  0  0  0
   38.4730   22.7450   34.5150 C   0  0  0  0  0  0  0  0  0  0  0  0
   38.1170   23.9870   34.0290 C   0  0  0  0  0  0  0  0  0  0  0  0
   37.9000   24.2120   32.6750 C   0  0  0  0  0  0  0  0  0  0  0  0
   38.0680   23.1160   31.8680 N   0  0  0  0  0  0  0  0  0  0  0  0
   38.4140   21.9150   32.3490 C   0  0  0  0  0  0  0  0  0  0  0  0
   38.6190   21.7210   33.6840 N   0  0  0  0  0  0  0  0  0  0  0  0
   37.9440   24.9460   34.4580 H   0  0  0  0  0  0  0  0  0  0  0  0
   37.6250   25.0850   32.1280 H   0  0  0  0  0  0  0  0  0  0  0  0
   38.5350   21.0710   31.6650 H   0  0  0  0  0  0  0  0  0  0  0  0
   42.3760   22.2460   36.5380 C   0  0  0  0  0  0  0  0  0  0  0  0
   41.1880   22.9440   36.2770 C   0  0  0  0  0  0  0  0  0  0  0  0
   41.4870   24.0870   35.5140 C   0  0  0  0  0  0  0  0  0  0  0  0
   40.6540   24.7450   35.2250 H   0  0  0  0  0  0  0  0  0  0  0  0
   42.7140   24.4710   35.0910 C   0  0  0  0  0  0  0  0  0  0  0  0
   42.8520   25.3670   34.5090 H   0  0  0  0  0  0  0  0  0  0  0  0
   43.8070   23.7060   35.4080 C   0  0  0  0  0  3  0  0  0  0  0  0
   43.6510   22.5750   36.1410 C   0  0  0  0  0  3  0  0  0  0  0  0
   42.0910   20.3720   38.3860 N   0  0  0  0  0  0  0  0  0  0  0  0
   42.2860   21.0430   37.3340 C   0  0  0  0  0  0  0  0  0  0  0  0
   42.5390   19.7600   36.7160 N   0  0  0  0  0  0  0  0  0  0  0  0
   42.1940   19.3300   38.3140 H   0  0  0  0  0  0  0  0  0  0  0  0
   43.5230   19.4930   36.4170 H   0  0  0  0  0  0  0  0  0  0  0  0
   42.3250   18.8130   36.3320 H   0  0  0  0  0  0  0  0  0  0  0  0
  1  2  1  0  0  0  0
  1  5  1  0  0  0  0
  2  6  1  1  0  0  0
  2  3  1  0  0  0  0
  3  8  1  0  0  0  0
  3  7  1  0  0  0  0
  4  3  1  0  0  0  0
  4  9  1  0  0  0  0
  5 11  1  0  0  0  0
  5  4  1  0  0  0  0
 10  4  1  0  0  0  0
 12  5  1  0  0  0  0
 13  1  1  0  0  0  0
 14 19  1  0  0  0  0
 14 13  1  0  0  0  0
 15 14  2  0  0  0  0
 16 17  2  0  0  0  0
 16 15  1  0  0  0  0
 17 18  1  0  0  0  0
 18 13  2  0  0  0  0
 20 15  1  0  0  0  0
 21 17  1  0  0  0  0
 22 31  1  0  0  0  0
 23 22  1  0  0  0  0
 23  2  1  0  0  0  0
 24 23  2  0  0  0  0
 25 24  1  0  0  0  0
 26 28  2  0  0  0  0
 26 24  1  0  0  0  0
 27 26  1  0  0  0  0
 28 29  1  0  0  0  0
 29 22  2  0  0  0  0
 31 30  2  0  0  0  0
 32 31  1  0  0  0  0
 33 30  1  0  0  0  0
 34 32  1  0  0  0  0
 35 32  1  0  0  0  0
M  END
>  <minimizedAffinity>
-4.96227884

$$$$

 OpenBabel03272503233D

 35 37  0  0  1  0  0  0  0  0999 V2000
   39.6910   25.9030   34.7950 N   0  0  0  0  0  0  0  0  0  0  0  0
   39.7500   24.5990   35.2920 C   0  0  2  0  0  0  0  0  0  0  0  0
   41.1790   24.1580   35.0030 C   0  0  0  0  0  0  0  0  0  0  0  0
   41.8130   25.2960   34.2620 C   0  0  0  0  0  0  0  0  0  0  0  0
   41.0640   26.4420   34.8750 C   0  0  0  0  0  0  0  0  0  0  0  0
   39.8260   24.7910   36.4540 H   0  0  0  0  0  0  0  0  0  0  0  0
   41.7830   23.9930   35.9160 H   0  0  0  0  0  0  0  0  0  0  0  0
   41.2220   23.1970   34.4660 H   0  0  0  0  0  0  0  0  0  0  0  0
   42.9040   25.4060   34.5340 H   0  0  0  0  0  0  0  0  0  0  0  0
   41.7220   25.2720   33.1680 H   0  0  0  0  0  0  0  0  0  0  0  0
   41.3610   26.5040   35.9440 H   0  0  0  0  0  0  0  0  0  0  0  0
   41.1630   27.3810   34.3370 H   0  0  0  0  0  0  0  0  0  0  0  0
   38.6220   26.6950   34.3380 C   0  0  0  0  0  0  0  0  0  0  0  0
   38.5990   26.9260   32.9770 C   0  0  0  0  0  0  0  0  0  0  0  0
   37.5850   27.6590   32.3730 C   0  0  0  0  0  0  0  0  0  0  0  0
   36.6200   28.1310   33.2260 N   0  0  0  0  0  0  0  0  0  0  0  0
   36.6520   27.9010   34.5450 C   0  0  0  0  0  0  0  0  0  0  0  0
   37.6600   27.1780   35.1120 N   0  0  0  0  0  0  0  0  0  0  0  0
   39.2200   26.6590   32.1540 H   0  0  0  0  0  0  0  0  0  0  0  0
   37.4060   27.9340   31.3590 H   0  0  0  0  0  0  0  0  0  0  0  0
   35.8590   28.2980   35.1840 H   0  0  0  0  0  0  0  0  0  0  0  0
   38.1440   22.8390   36.1890 C   0  0  0  0  0  0  0  0  0  0  0  0
   38.7860   23.5670   35.1760 C   0  0  0  0  0  0  0  0  0  0  0  0
   38.3170   23.1210   33.9270 C   0  0  0  0  0  0  0  0  0  0  0  0
   38.7270   23.5960   33.0240 H   0  0  0  0  0  0  0  0  0  0  0  0
   37.3980   22.1500   33.7150 C   0  0  0  0  0  0  0  0  0  0  0  0
   37.0970   21.8700   32.7190 H   0  0  0  0  0  0  0  0  0  0  0  0
   36.8360   21.5060   34.7880 C   0  0  0  0  0  3  0  0  0  0  0  0
   37.2050   21.8450   36.0480 C   0  0  0  0  0  3  0  0  0  0  0  0
   39.1730   23.0090   38.6230 N   0  0  0  0  0  0  0  0  0  0  0  0
   38.5070   23.1340   37.5580 C   0  0  0  0  0  0  0  0  0  0  0  0
   37.7750   24.1470   38.2850 N   0  0  0  0  0  0  0  0  0  0  0  0
   38.9060   23.6270   39.4290 H   0  0  0  0  0  0  0  0  0  0  0  0
   36.7700   23.9720   38.5850 H   0  0  0  0  0  0  0  0  0  0  0  0
   37.6000   25.0610   38.7580 H   0  0  0  0  0  0  0  0  0  0  0  0
  1  5  1  0  0  0  0
  1  2  1  0  0  0  0
  2  6  1  1  0  0  0
  3  2  1  0  0  0  0
  3  7  1  0  0  0  0
  4  9  1  0  0  0  0
  4  5  1  0  0  0  0
  4  3  1  0  0  0  0
  5 11  1  0  0  0  0
  8  3  1  0  0  0  0
 10  4  1  0  0  0  0
 12  5  1  0  0  0  0
 13  1  1  0  0  0  0
 13 18  1  0  0  0  0
 14 13  2  0  0  0  0
 15 14  1  0  0  0  0
 15 16  2  0  0  0  0
 16 17  1  0  0  0  0
 17 18  2  0  0  0  0
 17 21  1  0  0  0  0
 19 14  1  0  0  0  0
 20 15  1  0  0  0  0
 22 31  1  0  0  0  0
 23  2  1  0  0  0  0
 23 22  2  0  0  0  0
 24 23  1  0  0  0  0
 25 24  1  0  0  0  0
 26 24  2  0  0  0  0
 26 28  1  0  0  0  0
 27 26  1  0  0  0  0
 28 29  2  0  0  0  0
 29 22  1  0  0  0  0
 30 33  1  0  0  0  0
 31 32  1  0  0  0  0
 31 30  2  0  0  0  0
 32 34  1  0  0  0  0
 32 35  1  0  0  0  0
M  END
>  <minimizedAffinity>
-4.93574762

$$$$

 OpenBabel03272503233D

 35 37  0  0  1  0  0  0  0  0999 V2000
   34.2590   29.9460   33.5640 N   0  0  0  0  0  0  0  0  0  0  0  0
   34.2510   31.2720   34.0020 C   0  0  2  0  0  0  0  0  0  0  0  0
   32.9490   31.8360   33.4500 C   0  0  0  0  0  0  0  0  0  0  0  0
   32.3370   30.7310   32.6420 C   0  0  0  0  0  0  0  0  0  0  0  0
   32.8440   29.5480   33.4140 C   0  0  0  0  0  0  0  0  0  0  0  0
   33.9540   31.1450   35.1370 H   0  0  0  0  0  0  0  0  0  0  0  0
   32.2160   32.1040   34.2340 H   0  0  0  0  0  0  0  0  0  0  0  0
   33.1010   32.7690   32.8840 H   0  0  0  0  0  0  0  0  0  0  0  0
   31.2100   30.7420   32.7190 H   0  0  0  0  0  0  0  0  0  0  0  0
   32.6200   30.6920   31.5820 H   0  0  0  0  0  0  0  0  0  0  0  0
   32.3600   29.5680   34.4130 H   0  0  0  0  0  0  0  0  0  0  0  0
   32.7420   28.5990   32.8960 H   0  0  0  0  0  0  0  0  0  0  0  0
   35.3010   29.0320   33.3290 C   0  0  0  0  0  0  0  0  0  0  0  0
   36.0260   28.6640   34.4450 C   0  0  0  0  0  0  0  0  0  0  0  0
   37.0620   27.7410   34.3760 C   0  0  0  0  0  0  0  0  0  0  0  0
   37.3050   27.2290   33.1270 N   0  0  0  0  0  0  0  0  0  0  0  0
   36.5960   27.5920   32.0510 C   0  0  0  0  0  0  0  0  0  0  0  0
   35.5840   28.5020   32.1460 N   0  0  0  0  0  0  0  0  0  0  0  0
   36.0060   28.9200   35.4780 H   0  0  0  0  0  0  0  0  0  0  0  0
   37.7190   27.3440   35.1170 H   0  0  0  0  0  0  0  0  0  0  0  0
   36.8280   27.1560   31.0760 H   0  0  0  0  0  0  0  0  0  0  0  0
   35.8550   32.9030   35.1180 C   0  0  0  0  0  0  0  0  0  0  0  0
   35.3240   32.1980   34.0280 C   0  0  0  0  0  0  0  0  0  0  0  0
   36.0430   32.5400   32.8690 C   0  0  0  0  0  0  0  0  0  0  0  0
   35.7460   32.0670   31.9210 H   0  0  0  0  0  0  0  0  0  0  0  0
   37.0810   33.4050   32.7940 C   0  0  0  0  0  0  0  0  0  0  0  0
   37.5760   33.6090   31.8590 H   0  0  0  0  0  0  0  0  0  0  0  0
   37.5160   34.0370   33.9310 C   0  0  0  0  0  3  0  0  0  0  0  0
   36.9040   33.7930   35.1160 C   0  0  0  0  0  3  0  0  0  0  0  0
   34.8970   32.0530   37.4340 N   0  0  0  0  0  0  0  0  0  0  0  0
   35.2360   32.7070   36.4100 C   0  0  0  0  0  0  0  0  0  0  0  0
   34.5620   33.8140   37.0510 N   0  0  0  0  0  0  0  0  0  0  0  0
   34.3540   32.5660   38.1720 H   0  0  0  0  0  0  0  0  0  0  0  0
   33.6440   34.1820   36.6620 H   0  0  0  0  0  0  0  0  0  0  0  0
   34.4000   34.5730   37.7490 H   0  0  0  0  0  0  0  0  0  0  0  0
  1  2  1  0  0  0  0
  2 23  1  0  0  0  0
  2  6  1  1  0  0  0
  3  2  1  0  0  0  0
  3  7  1  0  0  0  0
  4  9  1  0  0  0  0
  4  5  1  0  0  0  0
  4  3  1  0  0  0  0
  5  1  1  0  0  0  0
  5 11  1  0  0  0  0
  8  3  1  0  0  0  0
 10  4  1  0  0  0  0
 12  5  1  0  0  0  0
 13  1  1  0  0  0  0
 13 14  1  0  0  0  0
 14 19  1  0  0  0  0
 15 14  2  0  0  0  0
 15 20  1  0  0  0  0
 16 15  1  0  0  0  0
 17 18  1  0  0  0  0
 17 16  2  0  0  0  0
 18 13  2  0  0  0  0
 21 17  1  0  0  0  0
 22 31  1  0  0  0  0
 23 22  2  0  0  0  0
 24 23  1  0  0  0  0
 25 24  1  0  0  0  0
 26 24  2  0  0  0  0
 26 28  1  0  0  0  0
 27 26  1  0  0  0  0
 28 29  2  0  0  0  0
 29 22  1  0  0  0  0
 30 33  1  0  0  0  0
 31 32  1  0  0  0  0
 31 30  2  0  0  0  0
 32 35  1  0  0  0  0
 34 32  1  0  0  0  0
M  END
>  <minimizedAffinity>
-4.92357683

$$$$

 OpenBabel03272503233D

 35 37  0  0  1  0  0  0  0  0999 V2000
   34.0130   30.7690   35.5710 N   0  0  0  0  0  0  0  0  0  0  0  0
   35.2810   30.3870   35.1300 C   0  0  2  0  0  0  0  0  0  0  0  0
   36.1880   31.5220   35.5890 C   0  0  0  0  0  0  0  0  0  0  0  0
   35.2840   32.5340   36.2240 C   0  0  0  0  0  0  0  0  0  0  0  0
   34.2220   31.6190   36.7610 C   0  0  0  0  0  0  0  0  0  0  0  0
   35.5690   29.5610   35.9220 H   0  0  0  0  0  0  0  0  0  0  0  0
   36.9200   31.2170   36.3610 H   0  0  0  0  0  0  0  0  0  0  0  0
   36.8040   31.9260   34.7700 H   0  0  0  0  0  0  0  0  0  0  0  0
   35.7850   33.0400   37.1000 H   0  0  0  0  0  0  0  0  0  0  0  0
   34.8740   33.3040   35.5570 H   0  0  0  0  0  0  0  0  0  0  0  0
   34.6840   31.0040   37.5620 H   0  0  0  0  0  0  0  0  0  0  0  0
   33.3090   32.1230   37.0670 H   0  0  0  0  0  0  0  0  0  0  0  0
   32.7180   30.4470   35.1250 C   0  0  0  0  0  0  0  0  0  0  0  0
   32.3000   29.1620   35.4040 C   0  0  0  0  0  0  0  0  0  0  0  0
   31.0330   28.7090   35.0590 C   0  0  0  0  0  0  0  0  0  0  0  0
   30.2370   29.6310   34.4280 N   0  0  0  0  0  0  0  0  0  0  0  0
   30.6510   30.8760   34.1620 C   0  0  0  0  0  0  0  0  0  0  0  0
   31.9030   31.2940   34.5110 N   0  0  0  0  0  0  0  0  0  0  0  0
   32.7340   28.3110   35.8760 H   0  0  0  0  0  0  0  0  0  0  0  0
   30.5470   27.7690   35.1910 H   0  0  0  0  0  0  0  0  0  0  0  0
   29.9800   31.5750   33.6560 H   0  0  0  0  0  0  0  0  0  0  0  0
   36.4800   28.7160   33.6310 C   0  0  0  0  0  0  0  0  0  0  0  0
   35.6470   29.8150   33.8860 C   0  0  0  0  0  0  0  0  0  0  0  0
   35.1720   30.3210   32.6630 C   0  0  0  0  0  0  0  0  0  0  0  0
   34.5000   31.1920   32.6930 H   0  0  0  0  0  0  0  0  0  0  0  0
   35.4580   29.8420   31.4300 C   0  0  0  0  0  0  0  0  0  0  0  0
   35.0480   30.2940   30.5420 H   0  0  0  0  0  0  0  0  0  0  0  0
   36.2870   28.7570   31.3040 C   0  0  0  0  0  3  0  0  0  0  0  0
   36.8130   28.1760   32.4110 C   0  0  0  0  0  3  0  0  0  0  0  0
   37.7880   27.9960   35.8170 N   0  0  0  0  0  0  0  0  0  0  0  0
   37.0930   28.0610   34.7650 C   0  0  0  0  0  0  0  0  0  0  0  0
   36.8890   26.6440   34.9640 N   0  0  0  0  0  0  0  0  0  0  0  0
   37.8740   27.0550   36.2750 H   0  0  0  0  0  0  0  0  0  0  0  0
   37.3420   25.9400   34.3090 H   0  0  0  0  0  0  0  0  0  0  0  0
   36.5260   25.7720   35.4100 H   0  0  0  0  0  0  0  0  0  0  0  0
  1  5  1  0  0  0  0
  2  1  1  0  0  0  0
  2  3  1  0  0  0  0
  2  6  1  1  0  0  0
  3  4  1  0  0  0  0
  3  7  1  0  0  0  0
  4  5  1  0  0  0  0
  4  9  1  0  0  0  0
  5 12  1  0  0  0  0
  5 11  1  0  0  0  0
  8  3  1  0  0  0  0
 10  4  1  0  0  0  0
 13 14  1  0  0  0  0
 13  1  1  0  0  0  0
 14 19  1  0  0  0  0
 15 20  1  0  0  0  0
 15 14  2  0  0  0  0
 16 15  1  0  0  0  0
 17 16  2  0  0  0  0
 17 18  1  0  0  0  0
 18 13  2  0  0  0  0
 21 17  1  0  0  0  0
 22 23  1  0  0  0  0
 22 31  1  0  0  0  0
 23  2  1  0  0  0  0
 24 25  1  0  0  0  0
 24 23  2  0  0  0  0
 26 24  1  0  0  0  0
 27 26  1  0  0  0  0
 28 26  2  0  0  0  0
 28 29  1  0  0  0  0
 29 22  2  0  0  0  0
 30 33  1  0  0  0  0
 31 32  1  0  0  0  0
 31 30  2  0  0  0  0
 32 35  1  0  0  0  0
 34 32  1  0  0  0  0
M  END
>  <minimizedAffinity>
-4.87275553

$$$$

 OpenBabel03272503233D

 35 37  0  0  1  0  0  0  0  0999 V2000
   38.7870   24.1620   32.2380 N   0  0  0  0  0  0  0  0  0  0  0  0
   39.4140   24.0210   33.4780 C   0  0  2  0  0  0  0  0  0  0  0  0
   40.4400   22.9190   33.2490 C   0  0  0  0  0  0  0  0  0  0  0  0
   40.2390   22.4630   31.8360 C   0  0  0  0  0  0  0  0  0  0  0  0
   39.7770   23.7520   31.2210 C   0  0  0  0  0  0  0  0  0  0  0  0
   40.1240   24.9630   33.4940 H   0  0  0  0  0  0  0  0  0  0  0  0
   41.4870   23.2670   33.3280 H   0  0  0  0  0  0  0  0  0  0  0  0
   40.3620   22.1100   33.9930 H   0  0  0  0  0  0  0  0  0  0  0  0
   41.2190   22.1780   31.3530 H   0  0  0  0  0  0  0  0  0  0  0  0
   39.5200   21.6470   31.6880 H   0  0  0  0  0  0  0  0  0  0  0  0
   40.6310   24.4610   31.2480 H   0  0  0  0  0  0  0  0  0  0  0  0
   39.3270   23.6430   30.2380 H   0  0  0  0  0  0  0  0  0  0  0  0
   37.5160   24.6390   31.8680 C   0  0  0  0  0  0  0  0  0  0  0  0
   37.3520   26.0070   31.9500 C   0  0  0  0  0  0  0  0  0  0  0  0
   36.1650   26.6280   31.5820 C   0  0  0  0  0  0  0  0  0  0  0  0
   35.1800   25.7850   31.1340 N   0  0  0  0  0  0  0  0  0  0  0  0
   35.3500   24.4580   31.0580 C   0  0  0  0  0  0  0  0  0  0  0  0
   36.5270   23.8740   31.4270 N   0  0  0  0  0  0  0  0  0  0  0  0
   37.9630   26.8250   32.2510 H   0  0  0  0  0  0  0  0  0  0  0  0
   35.8620   27.6500   31.5790 H   0  0  0  0  0  0  0  0  0  0  0  0
   34.5350   23.8280   30.6950 H   0  0  0  0  0  0  0  0  0  0  0  0
   38.6720   25.0690   35.6760 C   0  0  0  0  0  0  0  0  0  0  0  0
   38.8250   24.0110   34.7680 C   0  0  0  0  0  0  0  0  0  0  0  0
   38.2750   22.8450   35.3290 C   0  0  0  0  0  0  0  0  0  0  0  0
   38.3170   21.9190   34.7350 H   0  0  0  0  0  0  0  0  0  0  0  0
   37.6890   22.7370   36.5440 C   0  0  0  0  0  0  0  0  0  0  0  0
   37.2940   21.7990   36.8960 H   0  0  0  0  0  0  0  0  0  0  0  0
   37.5950   23.8440   37.3480 C   0  0  0  0  0  3  0  0  0  0  0  0
   38.0890   25.0330   36.9210 C   0  0  0  0  0  3  0  0  0  0  0  0
   39.8710   27.1670   34.5960 N   0  0  0  0  0  0  0  0  0  0  0  0
   39.1960   26.3610   35.2940 C   0  0  0  0  0  0  0  0  0  0  0  0
   38.8280   27.5320   36.0590 N   0  0  0  0  0  0  0  0  0  0  0  0
   39.8450   28.1790   34.8730 H   0  0  0  0  0  0  0  0  0  0  0  0
   39.2010   27.6680   37.0450 H   0  0  0  0  0  0  0  0  0  0  0  0
   38.3630   28.4430   36.2680 H   0  0  0  0  0  0  0  0  0  0  0  0
  1  2  1  0  0  0  0
  2  6  1  1  0  0  0
  2 23  1  0  0  0  0
  3  7  1  0  0  0  0
  3  2  1  0  0  0  0
  3  8  1  0  0  0  0
  4  3  1  0  0  0  0
  5 11  1  0  0  0  0
  5  4  1  0  0  0  0
  5  1  1  0  0  0  0
  9  4  1  0  0  0  0
 10  4  1  0  0  0  0
 12  5  1  0  0  0  0
 13 14  1  0  0  0  0
 13  1  1  0  0  0  0
 14 19  1  0  0  0  0
 15 14  2  0  0  0  0
 16 15  1  0  0  0  0
 17 16  2  0  0  0  0
 17 18  1  0  0  0  0
 18 13  2  0  0  0  0
 20 15  1  0  0  0  0
 21 17  1  0  0  0  0
 22 29  1  0  0  0  0
 23 24  1  0  0  0  0
 23 22  2  0  0  0  0
 24 26  2  0  0  0  0
 25 24  1  0  0  0  0
 26 27  1  0  0  0  0
 26 28  1  0  0  0  0
 29 28  2  0  0  0  0
 30 33  1  0  0  0  0
 30 31  2  0  0  0  0
 31 22  1  0  0  0  0
 31 32  1  0  0  0  0
 32 35  1  0  0  0  0
 32 34  1  0  0  0  0
M  END
>  <minimizedAffinity>
-4.85492945

$$$$
