
 OpenBabel03272510073D

 35 37  0  0  0  0  0  0  0  0999 V2000
   38.0390   32.3820   47.3620 C   0  0  0  0  0  0  0  0  0  0  0  0
   37.8350   31.7900   46.1090 C   0  0  0  0  0  0  0  0  0  0  0  0
   36.9390   30.7240   46.0240 C   0  0  0  0  0  0  0  0  0  0  0  0
   36.3030   30.3070   47.1550 N   0  0  0  0  0  0  0  0  0  0  0  0
   36.5190   30.8970   48.3430 C   0  0  0  0  0  0  0  0  0  0  0  0
   37.3740   31.9160   48.4360 N   0  0  0  0  0  0  0  0  0  0  0  0
   35.8180   30.4080   49.4910 N   0  0  0  0  0  0  0  0  0  0  0  0
   34.3740   30.3760   49.6040 C   0  0  0  0  0  0  0  0  0  0  0  0
   34.0960   29.5670   50.8210 C   0  0  0  0  0  0  0  0  0  0  0  0
   35.4150   28.9340   51.2140 C   0  0  0  0  0  0  0  0  0  0  0  0
   36.4450   29.8790   50.6980 C   0  0  0  0  0  0  0  0  0  0  0  0
   38.7360   33.2150   47.4470 H   0  0  0  0  0  0  0  0  0  0  0  0
   36.7890   30.2810   45.0550 H   0  0  0  0  0  0  0  0  0  0  0  0
   33.9040   29.9320   48.6940 H   0  0  0  0  0  0  0  0  0  0  0  0
   33.9890   31.4110   49.7510 H   0  0  0  0  0  0  0  0  0  0  0  0
   33.3120   28.8040   50.6830 H   0  0  0  0  0  0  0  0  0  0  0  0
   33.8230   30.2430   51.6820 H   0  0  0  0  0  0  0  0  0  0  0  0
   35.5060   27.9750   50.6620 H   0  0  0  0  0  0  0  0  0  0  0  0
   35.4590   28.8090   52.3210 H   0  0  0  0  0  0  0  0  0  0  0  0
   37.4220   29.4270   50.4810 H   0  0  0  0  0  0  0  0  0  0  0  0
   36.5650   30.7090   51.4310 H   0  0  0  0  0  0  0  0  0  0  0  0
   37.8650   32.4290   43.8120 C   0  0  0  0  0  0  0  0  0  0  0  0
   38.5810   32.3480   44.9870 C   0  0  0  0  0  0  0  0  0  0  0  0
   39.8870   32.7860   45.0390 C   0  0  0  0  0  0  0  0  0  0  0  0
   40.3050   32.6530   46.0320 H   0  0  0  0  0  0  0  0  0  0  0  0
   40.5320   33.3140   43.9460 C   0  0  0  0  0  0  0  0  0  0  0  0
   41.5300   33.5990   44.1590 H   0  0  0  0  0  0  0  0  0  0  0  0
   39.8190   33.3970   42.7690 C   0  0  0  0  0  3  0  0  0  0  0  0
   38.5010   32.9640   42.6860 C   0  0  0  0  0  3  0  0  0  0  0  0
   35.4960   32.8530   43.4600 N   0  0  0  0  0  0  0  0  0  0  0  0
   36.4980   32.0220   43.5180 C   0  0  0  0  0  0  0  0  0  0  0  0
   35.9670   30.7540   43.2430 N   0  0  0  0  0  0  0  0  0  0  0  0
   35.6320   33.8830   43.6310 H   0  0  0  0  0  0  0  0  0  0  0  0
   35.7410   29.7480   43.3430 H   0  0  0  0  0  0  0  0  0  0  0  0
   35.3880   30.4740   42.4280 H   0  0  0  0  0  0  0  0  0  0  0  0
  1 12  1  0  0  0  0
  1  6  1  0  0  0  0
  2  1  2  0  0  0  0
  3  2  1  0  0  0  0
  3  4  2  0  0  0  0
  4  5  1  0  0  0  0
  5  6  2  0  0  0  0
  5  7  1  0  0  0  0
  7  8  1  0  0  0  0
  7 11  1  0  0  0  0
  8 15  1  0  0  0  0
  8  9  1  0  0  0  0
  9 10  1  0  0  0  0
  9 17  1  0  0  0  0
 10 19  1  0  0  0  0
 11 10  1  0  0  0  0
 11 21  1  0  0  0  0
 13  3  1  0  0  0  0
 14  8  1  0  0  0  0
 16  9  1  0  0  0  0
 18 10  1  0  0  0  0
 20 11  1  0  0  0  0
 22 23  1  0  0  0  0
 23 24  2  0  0  0  0
 23  2  1  0  0  0  0
 24 25  1  0  0  0  0
 26 27  1  0  0  0  0
 26 24  1  0  0  0  0
 28 26  2  0  0  0  0
 29 28  1  0  0  0  0
 29 22  2  0  0  0  0
 30 31  2  0  0  0  0
 30 33  1  0  0  0  0
 31 22  1  0  0  0  0
 32 34  1  0  0  0  0
 32 31  1  0  0  0  0
 35 32  1  0  0  0  0
M  END
>  <minimizedAffinity>
-4.64003849

>  <minimizedRMSD>
4.0087018

$$$$
