
 OpenBabel03272508133D

 39 41  0  0  0  0  0  0  0  0999 V2000
   38.3700   23.0550   33.6150 Cl  0  0  0  0  0  0  0  0  0  0  0  0
   38.2680   24.7170   34.2160 C   0  0  0  0  0  0  0  0  0  0  0  0
   37.4050   25.6770   33.7080 C   0  0  0  0  0  0  0  0  0  0  0  0
   37.4350   26.9460   34.2820 C   0  0  0  0  0  0  0  0  0  0  0  0
   38.2970   27.2240   35.3180 C   0  0  0  0  0  0  0  0  0  0  0  0
   39.1520   26.2830   35.8250 C   0  0  0  0  0  0  0  0  0  0  0  0
   39.1360   25.0400   35.2770 C   0  0  0  0  0  0  0  0  0  0  0  0
   36.7270   27.6290   33.8200 H   0  0  0  0  0  0  0  0  0  0  0  0
   38.2230   28.2470   35.6760 H   0  0  0  0  0  0  0  0  0  0  0  0
   39.8100   26.5700   36.6480 H   0  0  0  0  0  0  0  0  0  0  0  0
   39.5180   23.3430   36.8900 C   0  0  0  0  0  0  0  0  0  0  0  0
   40.0610   24.0560   35.8430 C   0  0  0  0  0  0  0  0  0  0  0  0
   41.3540   23.7970   35.4390 C   0  0  0  0  0  0  0  0  0  0  0  0
   41.6940   24.4070   34.6070 H   0  0  0  0  0  0  0  0  0  0  0  0
   42.1020   22.8300   36.0800 C   0  0  0  0  0  0  0  0  0  0  0  0
   43.1180   22.6690   35.7160 H   0  0  0  0  0  0  0  0  0  0  0  0
   41.5920   22.0940   37.1340 C   0  0  0  0  0  3  0  0  0  0  0  0
   40.2880   22.3640   37.5300 C   0  0  0  0  0  3  0  0  0  0  0  0
   37.8170   24.2320   38.4530 N   0  0  0  0  0  0  0  0  0  0  0  0
   38.1990   23.4240   37.4960 C   0  0  0  0  0  0  0  0  0  0  0  0
   37.1470   22.5720   37.0650 N   0  0  0  0  0  0  0  0  0  0  0  0
   38.4700   24.9240   38.8830 H   0  0  0  0  0  0  0  0  0  0  0  0
   36.3800   21.9300   36.7770 H   0  0  0  0  0  0  0  0  0  0  0  0
   37.0360   21.8230   37.8130 H   0  0  0  0  0  0  0  0  0  0  0  0
   36.6400   25.2040   32.6930 O   0  0  0  0  0  0  0  0  0  0  0  0
   37.4210   24.1300   30.4760 O   0  0  0  0  0  0  0  0  0  0  0  0
   36.8400   25.3840   31.0270 P   0  0  1  0  0  0  0  0  0  0  0  0
   35.2620   25.6110   30.4200 O   0  0  0  0  0  0  0  0  0  0  0  0
   34.9420   24.7770   29.9680 H   0  0  0  0  0  0  0  0  0  0  0  0
   37.7700   26.7660   30.7260 O   0  0  0  0  0  0  0  0  0  0  0  0
   37.3640   30.2770   29.6640 C   0  0  0  0  0  0  0  0  0  0  0  0
   37.9650   29.0130   29.7170 C   0  0  0  0  0  0  0  0  0  0  0  0
   37.3680   28.0430   30.5230 C   0  0  0  0  0  0  0  0  0  0  0  0
   36.2340   28.3740   31.2150 N   0  0  0  0  0  0  0  0  0  0  0  0
   35.6950   29.6040   31.1300 C   0  0  0  0  0  0  0  0  0  0  0  0
   36.2650   30.5530   30.3510 N   0  0  0  0  0  0  0  0  0  0  0  0
   37.9380   30.9330   28.9950 H   0  0  0  0  0  0  0  0  0  0  0  0
   38.8560   28.6840   29.2000 H   0  0  0  0  0  0  0  0  0  0  0  0
   34.8000   29.8690   31.6740 H   0  0  0  0  0  0  0  0  0  0  0  0
  1  2  1  0  0  0  0
  2  7  1  0  0  0  0
  3  2  2  0  0  0  0
  3  4  1  0  0  0  0
  4  5  2  0  0  0  0
  5  9  1  0  0  0  0
  5  6  1  0  0  0  0
  6 10  1  0  0  0  0
  7  6  2  0  0  0  0
  7 12  1  0  0  0  0
  8  4  1  0  0  0  0
 11 20  1  0  0  0  0
 11 18  1  0  0  0  0
 12 11  2  0  0  0  0
 13 12  1  0  0  0  0
 13 15  2  0  0  0  0
 14 13  1  0  0  0  0
 15 17  1  0  0  0  0
 16 15  1  0  0  0  0
 17 18  2  0  0  0  0
 19 22  1  0  0  0  0
 20 19  2  0  0  0  0
 21 20  1  0  0  0  0
 21 24  1  0  0  0  0
 23 21  1  0  0  0  0
 25  3  1  0  0  0  0
 27 26  2  6  0  0  0
 27 25  1  0  0  0  0
 28 27  1  0  0  0  0
 29 28  1  0  0  0  0
 30 27  1  0  0  0  0
 31 32  2  0  0  0  0
 31 36  1  0  0  0  0
 32 33  1  0  0  0  0
 33 30  1  0  0  0  0
 33 34  2  0  0  0  0
 35 34  1  0  0  0  0
 35 39  1  0  0  0  0
 36 35  2  0  0  0  0
 37 31  1  0  0  0  0
 38 32  1  0  0  0  0
M  END
>  <minimizedAffinity>
-6.14049625

$$$$

 OpenBabel03272508133D

 39 41  0  0  0  0  0  0  0  0999 V2000
   38.6680   27.0890   33.3420 Cl  0  0  0  0  0  0  0  0  0  0  0  0
   37.5000   26.0910   32.4620 C   0  0  0  0  0  0  0  0  0  0  0  0
   37.6370   24.7250   32.2650 C   0  0  0  0  0  0  0  0  0  0  0  0
   36.6360   24.0680   31.5510 C   0  0  0  0  0  0  0  0  0  0  0  0
   35.5540   24.7640   31.0650 C   0  0  0  0  0  0  0  0  0  0  0  0
   35.4110   26.1120   31.2550 C   0  0  0  0  0  0  0  0  0  0  0  0
   36.3780   26.7680   31.9490 C   0  0  0  0  0  0  0  0  0  0  0  0
   36.8300   23.0040   31.4470 H   0  0  0  0  0  0  0  0  0  0  0  0
   34.8470   24.1390   30.5270 H   0  0  0  0  0  0  0  0  0  0  0  0
   34.5270   26.6030   30.8420 H   0  0  0  0  0  0  0  0  0  0  0  0
   36.7780   28.9620   31.1400 C   0  0  0  0  0  0  0  0  0  0  0  0
   36.1940   28.2080   32.1360 C   0  0  0  0  0  0  0  0  0  0  0  0
   35.5250   28.8390   33.1640 C   0  0  0  0  0  0  0  0  0  0  0  0
   35.0980   28.1640   33.9000 H   0  0  0  0  0  0  0  0  0  0  0  0
   35.4400   30.2160   33.1970 C   0  0  0  0  0  0  0  0  0  0  0  0
   34.8970   30.6580   34.0340 H   0  0  0  0  0  0  0  0  0  0  0  0
   36.0120   31.0050   32.2170 C   0  0  0  0  0  3  0  0  0  0  0  0
   36.6830   30.3580   31.1860 C   0  0  0  0  0  3  0  0  0  0  0  0
   37.0440   28.2280   28.7910 N   0  0  0  0  0  0  0  0  0  0  0  0
   37.5270   28.5450   29.9660 C   0  0  0  0  0  0  0  0  0  0  0  0
   38.9440   28.4380   30.0070 N   0  0  0  0  0  0  0  0  0  0  0  0
   36.0200   28.2530   28.5910 H   0  0  0  0  0  0  0  0  0  0  0  0
   39.9790   28.3290   30.0390 H   0  0  0  0  0  0  0  0  0  0  0  0
   39.1710   27.4000   30.0630 H   0  0  0  0  0  0  0  0  0  0  0  0
   38.7700   24.2290   32.8210 O   0  0  0  0  0  0  0  0  0  0  0  0
   38.8640   21.6880   32.3600 O   0  0  0  0  0  0  0  0  0  0  0  0
   39.0750   22.6890   33.4400 P   0  0  1  0  0  0  0  0  0  0  0  0
   40.7190   22.7180   33.8940 O   0  0  0  0  0  0  0  0  0  0  0  0
   41.2700   22.2100   33.2300 H   0  0  0  0  0  0  0  0  0  0  0  0
   38.1120   22.4410   34.8090 O   0  0  0  0  0  0  0  0  0  0  0  0
   37.9410   23.7250   38.2650 C   0  0  0  0  0  0  0  0  0  0  0  0
   37.4800   23.4630   36.9690 C   0  0  0  0  0  0  0  0  0  0  0  0
   38.3410   22.7960   36.0960 C   0  0  0  0  0  0  0  0  0  0  0  0
   39.5820   22.4360   36.5480 N   0  0  0  0  0  0  0  0  0  0  0  0
   39.9780   22.7120   37.8040 C   0  0  0  0  0  0  0  0  0  0  0  0
   39.1510   23.3570   38.6600 N   0  0  0  0  0  0  0  0  0  0  0  0
   37.1630   24.2500   38.8370 H   0  0  0  0  0  0  0  0  0  0  0  0
   36.5170   23.7160   36.5470 H   0  0  0  0  0  0  0  0  0  0  0  0
   40.9570   22.4300   38.1640 H   0  0  0  0  0  0  0  0  0  0  0  0
  2  1  1  0  0  0  0
  3  2  1  0  0  0  0
  3 25  1  0  0  0  0
  4  3  2  0  0  0  0
  5  6  2  0  0  0  0
  5  4  1  0  0  0  0
  6  7  1  0  0  0  0
  7 12  1  0  0  0  0
  7  2  2  0  0  0  0
  8  4  1  0  0  0  0
  9  5  1  0  0  0  0
 10  6  1  0  0  0  0
 11 18  2  0  0  0  0
 11 12  1  0  0  0  0
 12 13  2  0  0  0  0
 13 15  1  0  0  0  0
 13 14  1  0  0  0  0
 15 16  1  0  0  0  0
 17 15  2  0  0  0  0
 18 17  1  0  0  0  0
 19 20  2  0  0  0  0
 20 21  1  0  0  0  0
 20 11  1  0  0  0  0
 21 23  1  0  0  0  0
 21 24  1  0  0  0  0
 22 19  1  0  0  0  0
 25 27  1  0  0  0  0
 27 26  2  6  0  0  0
 27 28  1  0  0  0  0
 27 30  1  0  0  0  0
 29 28  1  0  0  0  0
 30 33  1  0  0  0  0
 31 36  1  0  0  0  0
 31 37  1  0  0  0  0
 32 31  2  0  0  0  0
 33 34  2  0  0  0  0
 33 32  1  0  0  0  0
 34 35  1  0  0  0  0
 35 39  1  0  0  0  0
 35 36  2  0  0  0  0
 38 32  1  0  0  0  0
M  END
>  <minimizedAffinity>
-5.97175121

$$$$

 OpenBabel03272508133D

 39 41  0  0  0  0  0  0  0  0999 V2000
   38.1640   22.8720   33.9880 Cl  0  0  0  0  0  0  0  0  0  0  0  0
   38.3800   24.5930   34.3460 C   0  0  0  0  0  0  0  0  0  0  0  0
   37.5880   25.6030   33.8200 C   0  0  0  0  0  0  0  0  0  0  0  0
   37.8750   26.9150   34.1920 C   0  0  0  0  0  0  0  0  0  0  0  0
   38.9130   27.1840   35.0540 C   0  0  0  0  0  0  0  0  0  0  0  0
   39.7000   26.1940   35.5790 C   0  0  0  0  0  0  0  0  0  0  0  0
   39.4330   24.9090   35.2260 C   0  0  0  0  0  0  0  0  0  0  0  0
   37.2050   27.6340   33.7310 H   0  0  0  0  0  0  0  0  0  0  0  0
   39.0330   28.2430   35.2650 H   0  0  0  0  0  0  0  0  0  0  0  0
   40.5070   26.4770   36.2570 H   0  0  0  0  0  0  0  0  0  0  0  0
   39.7400   23.2730   36.9160 C   0  0  0  0  0  0  0  0  0  0  0  0
   40.2910   23.8740   35.8040 C   0  0  0  0  0  0  0  0  0  0  0  0
   41.5320   23.4710   35.3560 C   0  0  0  0  0  0  0  0  0  0  0  0
   41.8840   24.0000   34.4750 H   0  0  0  0  0  0  0  0  0  0  0  0
   42.2200   22.4730   36.0170 C   0  0  0  0  0  0  0  0  0  0  0  0
   43.1960   22.1960   35.6170 H   0  0  0  0  0  0  0  0  0  0  0  0
   41.6990   21.8470   37.1350 C   0  0  0  0  0  3  0  0  0  0  0  0
   40.4480   22.2610   37.5760 C   0  0  0  0  0  3  0  0  0  0  0  0
   38.1910   24.4560   38.4410 N   0  0  0  0  0  0  0  0  0  0  0  0
   38.4680   23.5130   37.5770 C   0  0  0  0  0  0  0  0  0  0  0  0
   37.3450   22.6810   37.3180 N   0  0  0  0  0  0  0  0  0  0  0  0
   38.9060   25.1550   38.7420 H   0  0  0  0  0  0  0  0  0  0  0  0
   36.5280   22.0570   37.1570 H   0  0  0  0  0  0  0  0  0  0  0  0
   37.2390   22.0400   38.1610 H   0  0  0  0  0  0  0  0  0  0  0  0
   36.6220   25.1300   32.9940 O   0  0  0  0  0  0  0  0  0  0  0  0
   35.9690   26.2910   30.7790 O   0  0  0  0  0  0  0  0  0  0  0  0
   36.5980   25.0510   31.3080 P   0  0  1  0  0  0  0  0  0  0  0  0
   38.2410   24.9910   30.8500 O   0  0  0  0  0  0  0  0  0  0  0  0
   38.5310   25.8770   30.4850 H   0  0  0  0  0  0  0  0  0  0  0  0
   35.8220   23.6250   30.8310 O   0  0  0  0  0  0  0  0  0  0  0  0
   35.6820   20.2200   32.2480 C   0  0  0  0  0  0  0  0  0  0  0  0
   35.2220   21.5120   31.9640 C   0  0  0  0  0  0  0  0  0  0  0  0
   36.0550   22.3490   31.2200 C   0  0  0  0  0  0  0  0  0  0  0  0
   37.2700   21.8680   30.8100 N   0  0  0  0  0  0  0  0  0  0  0  0
   37.6660   20.6180   31.1100 C   0  0  0  0  0  0  0  0  0  0  0  0
   36.8660   19.7960   31.8300 N   0  0  0  0  0  0  0  0  0  0  0  0
   34.9270   19.6780   32.8350 H   0  0  0  0  0  0  0  0  0  0  0  0
   34.2800   21.9560   32.2540 H   0  0  0  0  0  0  0  0  0  0  0  0
   38.6240   20.2340   30.7880 H   0  0  0  0  0  0  0  0  0  0  0  0
  1  2  1  0  0  0  0
  2  7  1  0  0  0  0
  3  4  1  0  0  0  0
  3  2  2  0  0  0  0
  4  5  2  0  0  0  0
  5  9  1  0  0  0  0
  5  6  1  0  0  0  0
  6 10  1  0  0  0  0
  7  6  2  0  0  0  0
  7 12  1  0  0  0  0
  8  4  1  0  0  0  0
 11 18  1  0  0  0  0
 11 20  1  0  0  0  0
 12 11  2  0  0  0  0
 13 12  1  0  0  0  0
 13 15  2  0  0  0  0
 14 13  1  0  0  0  0
 15 17  1  0  0  0  0
 16 15  1  0  0  0  0
 17 18  2  0  0  0  0
 19 22  1  0  0  0  0
 20 19  2  0  0  0  0
 21 20  1  0  0  0  0
 21 24  1  0  0  0  0
 23 21  1  0  0  0  0
 25  3  1  0  0  0  0
 27 26  2  6  0  0  0
 27 25  1  0  0  0  0
 28 27  1  0  0  0  0
 29 28  1  0  0  0  0
 30 33  1  0  0  0  0
 30 27  1  0  0  0  0
 31 37  1  0  0  0  0
 32 31  1  0  0  0  0
 32 38  1  0  0  0  0
 33 32  2  0  0  0  0
 34 35  2  0  0  0  0
 34 33  1  0  0  0  0
 35 36  1  0  0  0  0
 36 31  2  0  0  0  0
 39 35  1  0  0  0  0
M  END
>  <minimizedAffinity>
-5.93670511

$$$$

 OpenBabel03272508133D

 39 41  0  0  0  0  0  0  0  0999 V2000
   38.1390   23.5220   33.5300 Cl  0  0  0  0  0  0  0  0  0  0  0  0
   38.0360   25.1180   34.2900 C   0  0  0  0  0  0  0  0  0  0  0  0
   37.2590   26.1610   33.8080 C   0  0  0  0  0  0  0  0  0  0  0  0
   37.2760   27.3630   34.5120 C   0  0  0  0  0  0  0  0  0  0  0  0
   38.0420   27.4960   35.6470 C   0  0  0  0  0  0  0  0  0  0  0  0
   38.8120   26.4730   36.1300 C   0  0  0  0  0  0  0  0  0  0  0  0
   38.8070   25.2930   35.4550 C   0  0  0  0  0  0  0  0  0  0  0  0
   36.6390   28.1190   34.0600 H   0  0  0  0  0  0  0  0  0  0  0  0
   37.9690   28.4800   36.1020 H   0  0  0  0  0  0  0  0  0  0  0  0
   39.3960   26.6460   37.0360 H   0  0  0  0  0  0  0  0  0  0  0  0
   40.9310   24.2400   35.5190 C   0  0  0  0  0  0  0  0  0  0  0  0
   39.6390   24.2180   35.9980 C   0  0  0  0  0  0  0  0  0  0  0  0
   39.2620   23.2430   36.8980 C   0  0  0  0  0  0  0  0  0  0  0  0
   38.2260   23.3060   37.2190 H   0  0  0  0  0  0  0  0  0  0  0  0
   40.1720   22.2930   37.3150 C   0  0  0  0  0  0  0  0  0  0  0  0
   39.8170   21.5470   38.0280 H   0  0  0  0  0  0  0  0  0  0  0  0
   41.4770   22.2820   36.8570 C   0  0  0  0  0  3  0  0  0  0  0  0
   41.8440   23.2710   35.9520 C   0  0  0  0  0  3  0  0  0  0  0  0
   42.2040   26.2590   34.8610 N   0  0  0  0  0  0  0  0  0  0  0  0
   41.5670   25.1490   34.5800 C   0  0  0  0  0  0  0  0  0  0  0  0
   41.5440   24.8860   33.1830 N   0  0  0  0  0  0  0  0  0  0  0  0
   42.3120   26.5980   35.8420 H   0  0  0  0  0  0  0  0  0  0  0  0
   41.5050   24.7160   32.1570 H   0  0  0  0  0  0  0  0  0  0  0  0
   40.8240   25.5450   32.7610 H   0  0  0  0  0  0  0  0  0  0  0  0
   36.5800   25.8270   32.6820 O   0  0  0  0  0  0  0  0  0  0  0  0
   37.5010   27.1940   30.6920 O   0  0  0  0  0  0  0  0  0  0  0  0
   36.2250   26.7680   31.3270 P   0  0  1  0  0  0  0  0  0  0  0  0
   35.3750   25.7220   30.2800 O   0  0  0  0  0  0  0  0  0  0  0  0
   35.9660   25.4310   29.5260 H   0  0  0  0  0  0  0  0  0  0  0  0
   35.2210   28.0490   31.7890 O   0  0  0  0  0  0  0  0  0  0  0  0
   35.8970   31.4970   32.9160 C   0  0  0  0  0  0  0  0  0  0  0  0
   35.5830   30.1400   33.0550 C   0  0  0  0  0  0  0  0  0  0  0  0
   35.5070   29.3680   31.8950 C   0  0  0  0  0  0  0  0  0  0  0  0
   35.7420   29.9740   30.6900 N   0  0  0  0  0  0  0  0  0  0  0  0
   36.0410   31.2830   30.6100 C   0  0  0  0  0  0  0  0  0  0  0  0
   36.1180   32.0420   31.7280 N   0  0  0  0  0  0  0  0  0  0  0  0
   35.9230   31.9760   33.9050 H   0  0  0  0  0  0  0  0  0  0  0  0
   35.3870   29.5990   33.9700 H   0  0  0  0  0  0  0  0  0  0  0  0
   36.2270   31.7650   29.6600 H   0  0  0  0  0  0  0  0  0  0  0  0
  1  2  1  0  0  0  0
  2  7  1  0  0  0  0
  3  2  2  0  0  0  0
  3  4  1  0  0  0  0
  4  5  2  0  0  0  0
  5  9  1  0  0  0  0
  5  6  1  0  0  0  0
  6 10  1  0  0  0  0
  7 12  1  0  0  0  0
  7  6  2  0  0  0  0
  8  4  1  0  0  0  0
 11 18  2  0  0  0  0
 11 12  1  0  0  0  0
 12 13  2  0  0  0  0
 13 14  1  0  0  0  0
 13 15  1  0  0  0  0
 15 16  1  0  0  0  0
 17 15  2  0  0  0  0
 18 17  1  0  0  0  0
 19 22  1  0  0  0  0
 20 19  2  0  0  0  0
 20 11  1  0  0  0  0
 21 20  1  0  0  0  0
 23 21  1  0  0  0  0
 24 21  1  0  0  0  0
 25  3  1  0  0  0  0
 27 26  2  6  0  0  0
 27 30  1  0  0  0  0
 27 25  1  0  0  0  0
 28 27  1  0  0  0  0
 29 28  1  0  0  0  0
 30 33  1  0  0  0  0
 31 32  1  0  0  0  0
 31 37  1  0  0  0  0
 32 38  1  0  0  0  0
 33 32  2  0  0  0  0
 34 33  1  0  0  0  0
 35 34  2  0  0  0  0
 35 36  1  0  0  0  0
 36 31  2  0  0  0  0
 39 35  1  0  0  0  0
M  END
>  <minimizedAffinity>
-5.82744551

$$$$

 OpenBabel03272508133D

 39 41  0  0  0  0  0  0  0  0999 V2000
   38.4330   23.2840   33.4590 Cl  0  0  0  0  0  0  0  0  0  0  0  0
   38.2320   24.8920   34.1740 C   0  0  0  0  0  0  0  0  0  0  0  0
   37.3270   25.8390   33.7180 C   0  0  0  0  0  0  0  0  0  0  0  0
   37.2790   27.0640   34.3800 C   0  0  0  0  0  0  0  0  0  0  0  0
   38.1080   27.3120   35.4490 C   0  0  0  0  0  0  0  0  0  0  0  0
   39.0050   26.3840   35.9060 C   0  0  0  0  0  0  0  0  0  0  0  0
   39.0640   25.1840   35.2710 C   0  0  0  0  0  0  0  0  0  0  0  0
   36.5430   27.7390   33.9530 H   0  0  0  0  0  0  0  0  0  0  0  0
   37.9740   28.3020   35.8760 H   0  0  0  0  0  0  0  0  0  0  0  0
   39.6340   26.6460   36.7590 H   0  0  0  0  0  0  0  0  0  0  0  0
   39.5210   23.4170   36.7870 C   0  0  0  0  0  0  0  0  0  0  0  0
   40.0320   24.2130   35.7850 C   0  0  0  0  0  0  0  0  0  0  0  0
   41.3370   24.0360   35.3730 C   0  0  0  0  0  0  0  0  0  0  0  0
   41.6510   24.7070   34.5790 H   0  0  0  0  0  0  0  0  0  0  0  0
   42.1270   23.0690   35.9610 C   0  0  0  0  0  0  0  0  0  0  0  0
   43.1490   22.9750   35.5940 H   0  0  0  0  0  0  0  0  0  0  0  0
   41.6490   22.2520   36.9690 C   0  0  0  0  0  3  0  0  0  0  0  0
   40.3330   22.4390   37.3750 C   0  0  0  0  0  3  0  0  0  0  0  0
   37.7810   24.1300   38.3970 N   0  0  0  0  0  0  0  0  0  0  0  0
   38.1980   23.4040   37.3900 C   0  0  0  0  0  0  0  0  0  0  0  0
   37.1830   22.5380   36.9000 N   0  0  0  0  0  0  0  0  0  0  0  0
   38.4020   24.8190   38.8740 H   0  0  0  0  0  0  0  0  0  0  0  0
   36.4440   21.8850   36.5660 H   0  0  0  0  0  0  0  0  0  0  0  0
   37.1010   21.7380   37.5960 H   0  0  0  0  0  0  0  0  0  0  0  0
   36.6050   25.4000   32.6570 O   0  0  0  0  0  0  0  0  0  0  0  0
   37.3600   24.3030   30.4420 O   0  0  0  0  0  0  0  0  0  0  0  0
   36.8950   25.5990   31.0070 P   0  0  1  0  0  0  0  0  0  0  0  0
   35.3780   26.0130   30.3430 O   0  0  0  0  0  0  0  0  0  0  0  0
   34.9900   25.2300   29.8540 H   0  0  0  0  0  0  0  0  0  0  0  0
   37.9800   26.8790   30.7850 O   0  0  0  0  0  0  0  0  0  0  0  0
   41.5670   27.0650   31.6320 C   0  0  0  0  0  0  0  0  0  0  0  0
   40.1880   27.1400   31.8640 C   0  0  0  0  0  0  0  0  0  0  0  0
   39.3340   26.8670   30.7940 C   0  0  0  0  0  0  0  0  0  0  0  0
   39.8840   26.5440   29.5830 N   0  0  0  0  0  0  0  0  0  0  0  0
   41.2170   26.4860   29.4120 C   0  0  0  0  0  0  0  0  0  0  0  0
   42.0560   26.7480   30.4420 N   0  0  0  0  0  0  0  0  0  0  0  0
   42.1120   27.3020   32.5560 H   0  0  0  0  0  0  0  0  0  0  0  0
   39.6870   27.3870   32.7890 H   0  0  0  0  0  0  0  0  0  0  0  0
   41.6560   26.2310   28.4570 H   0  0  0  0  0  0  0  0  0  0  0  0
  1  2  1  0  0  0  0
  2  7  1  0  0  0  0
  3  2  2  0  0  0  0
  3  4  1  0  0  0  0
  4  5  2  0  0  0  0
  5  9  1  0  0  0  0
  5  6  1  0  0  0  0
  6 10  1  0  0  0  0
  7 12  1  0  0  0  0
  7  6  2  0  0  0  0
  8  4  1  0  0  0  0
 11 18  1  0  0  0  0
 11 20  1  0  0  0  0
 12 11  2  0  0  0  0
 13 12  1  0  0  0  0
 13 15  2  0  0  0  0
 14 13  1  0  0  0  0
 15 17  1  0  0  0  0
 16 15  1  0  0  0  0
 17 18  2  0  0  0  0
 19 22  1  0  0  0  0
 20 19  2  0  0  0  0
 21 20  1  0  0  0  0
 21 24  1  0  0  0  0
 23 21  1  0  0  0  0
 25  3  1  0  0  0  0
 27 26  2  6  0  0  0
 27 25  1  0  0  0  0
 28 27  1  0  0  0  0
 29 28  1  0  0  0  0
 30 33  1  0  0  0  0
 30 27  1  0  0  0  0
 31 32  1  0  0  0  0
 31 37  1  0  0  0  0
 32 38  1  0  0  0  0
 33 32  2  0  0  0  0
 34 33  1  0  0  0  0
 35 34  2  0  0  0  0
 35 36  1  0  0  0  0
 36 31  2  0  0  0  0
 39 35  1  0  0  0  0
M  END
>  <minimizedAffinity>
-5.79749537

$$$$

 OpenBabel03272508133D

 39 41  0  0  0  0  0  0  0  0999 V2000
   36.2110   29.6720   35.2500 Cl  0  0  0  0  0  0  0  0  0  0  0  0
   36.2370   29.1050   33.5730 C   0  0  0  0  0  0  0  0  0  0  0  0
   36.6890   27.8540   33.1810 C   0  0  0  0  0  0  0  0  0  0  0  0
   36.6500   27.5450   31.8230 C   0  0  0  0  0  0  0  0  0  0  0  0
   36.1770   28.4610   30.9120 C   0  0  0  0  0  0  0  0  0  0  0  0
   35.7290   29.6980   31.2900 C   0  0  0  0  0  0  0  0  0  0  0  0
   35.7600   30.0150   32.6110 C   0  0  0  0  0  0  0  0  0  0  0  0
   37.0240   26.5470   31.6120 H   0  0  0  0  0  0  0  0  0  0  0  0
   36.1990   28.1000   29.8880 H   0  0  0  0  0  0  0  0  0  0  0  0
   35.3660   30.3770   30.5150 H   0  0  0  0  0  0  0  0  0  0  0  0
   33.9300   31.3620   33.2940 C   0  0  0  0  0  0  0  0  0  0  0  0
   35.2730   31.3450   32.9820 C   0  0  0  0  0  0  0  0  0  0  0  0
   36.0020   32.5150   33.0440 C   0  0  0  0  0  0  0  0  0  0  0  0
   37.0500   32.4030   32.7820 H   0  0  0  0  0  0  0  0  0  0  0  0
   35.3920   33.6950   33.4150 C   0  0  0  0  0  0  0  0  0  0  0  0
   36.0180   34.5870   33.4470 H   0  0  0  0  0  0  0  0  0  0  0  0
   34.0470   33.7520   33.7350 C   0  0  0  0  0  3  0  0  0  0  0  0
   33.3240   32.5670   33.6690 C   0  0  0  0  0  3  0  0  0  0  0  0
   32.1800   29.9060   32.3220 N   0  0  0  0  0  0  0  0  0  0  0  0
   32.9570   30.2820   33.3060 C   0  0  0  0  0  0  0  0  0  0  0  0
   32.7590   29.4940   34.4730 N   0  0  0  0  0  0  0  0  0  0  0  0
   32.1990   30.3820   31.3930 H   0  0  0  0  0  0  0  0  0  0  0  0
   32.5870   28.9330   35.3320 H   0  0  0  0  0  0  0  0  0  0  0  0
   31.8470   29.8220   34.9120 H   0  0  0  0  0  0  0  0  0  0  0  0
   37.1130   27.1020   34.2270 O   0  0  0  0  0  0  0  0  0  0  0  0
   39.6420   27.3230   33.7420 O   0  0  0  0  0  0  0  0  0  0  0  0
   38.6860   26.7620   34.7350 P   0  0  1  0  0  0  0  0  0  0  0  0
   38.8500   27.5770   36.2250 O   0  0  0  0  0  0  0  0  0  0  0  0
   39.4070   28.4000   36.1100 H   0  0  0  0  0  0  0  0  0  0  0  0
   38.8420   25.0950   34.9780 O   0  0  0  0  0  0  0  0  0  0  0  0
   39.7240   22.7920   37.7230 C   0  0  0  0  0  0  0  0  0  0  0  0
   39.8140   23.3620   36.4470 C   0  0  0  0  0  0  0  0  0  0  0  0
   38.9360   24.4020   36.1370 C   0  0  0  0  0  0  0  0  0  0  0  0
   38.0400   24.8080   37.0890 N   0  0  0  0  0  0  0  0  0  0  0  0
   37.9940   24.2270   38.3020 C   0  0  0  0  0  0  0  0  0  0  0  0
   38.8400   23.2170   38.6140 N   0  0  0  0  0  0  0  0  0  0  0  0
   40.4710   21.9920   37.8260 H   0  0  0  0  0  0  0  0  0  0  0  0
   40.4930   23.0930   35.6510 H   0  0  0  0  0  0  0  0  0  0  0  0
   37.2880   24.5440   39.0560 H   0  0  0  0  0  0  0  0  0  0  0  0
  2  1  1  0  0  0  0
  3  2  1  0  0  0  0
  3 25  1  0  0  0  0
  4  3  2  0  0  0  0
  5  6  2  0  0  0  0
  5  4  1  0  0  0  0
  6  7  1  0  0  0  0
  7 12  1  0  0  0  0
  7  2  2  0  0  0  0
  8  4  1  0  0  0  0
  9  5  1  0  0  0  0
 10  6  1  0  0  0  0
 11 20  1  0  0  0  0
 11 18  1  0  0  0  0
 12 13  1  0  0  0  0
 12 11  2  0  0  0  0
 13 15  2  0  0  0  0
 14 13  1  0  0  0  0
 15 16  1  0  0  0  0
 15 17  1  0  0  0  0
 18 17  2  0  0  0  0
 19 20  2  0  0  0  0
 20 21  1  0  0  0  0
 21 24  1  0  0  0  0
 21 23  1  0  0  0  0
 22 19  1  0  0  0  0
 25 27  1  0  0  0  0
 27 26  2  6  0  0  0
 27 30  1  0  0  0  0
 27 28  1  0  0  0  0
 29 28  1  0  0  0  0
 30 33  1  0  0  0  0
 31 37  1  0  0  0  0
 31 36  1  0  0  0  0
 32 31  2  0  0  0  0
 33 32  1  0  0  0  0
 33 34  2  0  0  0  0
 34 35  1  0  0  0  0
 35 36  2  0  0  0  0
 35 39  1  0  0  0  0
 38 32  1  0  0  0  0
M  END
>  <minimizedAffinity>
-5.70888376

$$$$

 OpenBabel03272508133D

 39 41  0  0  0  0  0  0  0  0999 V2000
   35.9390   25.4620   31.3980 Cl  0  0  0  0  0  0  0  0  0  0  0  0
   37.3590   25.5900   32.4470 C   0  0  0  0  0  0  0  0  0  0  0  0
   37.9900   24.5050   33.0390 C   0  0  0  0  0  0  0  0  0  0  0  0
   39.1000   24.7580   33.8420 C   0  0  0  0  0  0  0  0  0  0  0  0
   39.5450   26.0460   34.0330 C   0  0  0  0  0  0  0  0  0  0  0  0
   38.9280   27.1220   33.4540 C   0  0  0  0  0  0  0  0  0  0  0  0
   37.8440   26.8930   32.6670 C   0  0  0  0  0  0  0  0  0  0  0  0
   39.5250   23.8500   34.2610 H   0  0  0  0  0  0  0  0  0  0  0  0
   40.4160   26.1080   34.6790 H   0  0  0  0  0  0  0  0  0  0  0  0
   39.3330   28.1180   33.6470 H   0  0  0  0  0  0  0  0  0  0  0  0
   37.7330   28.3870   30.8280 C   0  0  0  0  0  0  0  0  0  0  0  0
   37.2090   28.0650   32.0610 C   0  0  0  0  0  0  0  0  0  0  0  0
   36.1880   28.8280   32.5890 C   0  0  0  0  0  0  0  0  0  0  0  0
   35.8400   28.4980   33.5630 H   0  0  0  0  0  0  0  0  0  0  0  0
   35.6950   29.9090   31.8870 C   0  0  0  0  0  0  0  0  0  0  0  0
   34.8870   30.4750   32.3540 H   0  0  0  0  0  0  0  0  0  0  0  0
   36.1950   30.2640   30.6480 C   0  0  0  0  0  3  0  0  0  0  0  0
   37.2220   29.4860   30.1270 C   0  0  0  0  0  3  0  0  0  0  0  0
   38.6800   26.7390   29.2420 N   0  0  0  0  0  0  0  0  0  0  0  0
   38.7950   27.7510   30.0650 C   0  0  0  0  0  0  0  0  0  0  0  0
   40.1370   28.2090   30.1630 N   0  0  0  0  0  0  0  0  0  0  0  0
   37.7600   26.2820   29.0550 H   0  0  0  0  0  0  0  0  0  0  0  0
   41.1260   28.5200   30.2540 H   0  0  0  0  0  0  0  0  0  0  0  0
   40.6560   27.5050   30.7690 H   0  0  0  0  0  0  0  0  0  0  0  0
   37.3990   23.3250   32.7260 O   0  0  0  0  0  0  0  0  0  0  0  0
   36.7870   20.8150   32.6770 O   0  0  0  0  0  0  0  0  0  0  0  0
   37.5990   21.8060   33.4330 P   0  0  1  0  0  0  0  0  0  0  0  0
   39.2600   21.4560   33.2530 O   0  0  0  0  0  0  0  0  0  0  0  0
   39.3950   20.7810   32.5260 H   0  0  0  0  0  0  0  0  0  0  0  0
   37.2140   21.9040   35.0780 O   0  0  0  0  0  0  0  0  0  0  0  0
   38.5320   23.4810   38.1430 C   0  0  0  0  0  0  0  0  0  0  0  0
   37.5670   23.1430   37.1870 C   0  0  0  0  0  0  0  0  0  0  0  0
   37.9680   22.3500   36.1110 C   0  0  0  0  0  0  0  0  0  0  0  0
   39.2750   21.9480   36.0450 N   0  0  0  0  0  0  0  0  0  0  0  0
   40.1650   22.3000   36.9900 C   0  0  0  0  0  0  0  0  0  0  0  0
   39.7880   23.0680   38.0390 N   0  0  0  0  0  0  0  0  0  0  0  0
   38.0770   24.1030   38.9270 H   0  0  0  0  0  0  0  0  0  0  0  0
   36.5230   23.4230   37.1760 H   0  0  0  0  0  0  0  0  0  0  0  0
   41.1980   21.9850   36.9420 H   0  0  0  0  0  0  0  0  0  0  0  0
  1  2  1  0  0  0  0
  2  7  2  0  0  0  0
  2  3  1  0  0  0  0
  3  4  2  0  0  0  0
  4  5  1  0  0  0  0
  4  8  1  0  0  0  0
  5  9  1  0  0  0  0
  6 10  1  0  0  0  0
  6  5  2  0  0  0  0
  7  6  1  0  0  0  0
 11 12  1  0  0  0  0
 12 13  2  0  0  0  0
 12  7  1  0  0  0  0
 13 14  1  0  0  0  0
 15 16  1  0  0  0  0
 15 13  1  0  0  0  0
 17 15  2  0  0  0  0
 18 17  1  0  0  0  0
 18 11  2  0  0  0  0
 19 20  2  0  0  0  0
 20 21  1  0  0  0  0
 20 11  1  0  0  0  0
 21 23  1  0  0  0  0
 21 24  1  0  0  0  0
 22 19  1  0  0  0  0
 25  3  1  0  0  0  0
 25 27  1  0  0  0  0
 27 26  2  6  0  0  0
 27 30  1  0  0  0  0
 28 27  1  0  0  0  0
 29 28  1  0  0  0  0
 30 33  1  0  0  0  0
 31 37  1  0  0  0  0
 32 31  2  0  0  0  0
 33 32  1  0  0  0  0
 34 33  2  0  0  0  0
 34 35  1  0  0  0  0
 35 36  2  0  0  0  0
 36 31  1  0  0  0  0
 38 32  1  0  0  0  0
 39 35  1  0  0  0  0
M  END
>  <minimizedAffinity>
-5.62979507

$$$$

 OpenBabel03272508133D

 39 41  0  0  0  0  0  0  0  0999 V2000
   36.0050   27.9040   34.7640 Cl  0  0  0  0  0  0  0  0  0  0  0  0
   36.1190   28.7730   33.2260 C   0  0  0  0  0  0  0  0  0  0  0  0
   36.5810   28.2100   32.0450 C   0  0  0  0  0  0  0  0  0  0  0  0
   36.6140   29.0160   30.9100 C   0  0  0  0  0  0  0  0  0  0  0  0
   36.2010   30.3270   30.9720 C   0  0  0  0  0  0  0  0  0  0  0  0
   35.7440   30.8920   32.1330 C   0  0  0  0  0  0  0  0  0  0  0  0
   35.7040   30.1190   33.2490 C   0  0  0  0  0  0  0  0  0  0  0  0
   36.9900   28.4890   30.0370 H   0  0  0  0  0  0  0  0  0  0  0  0
   36.2760   30.8470   30.0220 H   0  0  0  0  0  0  0  0  0  0  0  0
   35.4310   31.9380   32.1120 H   0  0  0  0  0  0  0  0  0  0  0  0
   33.8350   30.7390   34.5720 C   0  0  0  0  0  0  0  0  0  0  0  0
   35.2100   30.7520   34.4730 C   0  0  0  0  0  0  0  0  0  0  0  0
   35.9600   31.3260   35.4790 C   0  0  0  0  0  0  0  0  0  0  0  0
   37.0330   31.2880   35.3140 H   0  0  0  0  0  0  0  0  0  0  0  0
   35.3390   31.8850   36.5770 C   0  0  0  0  0  0  0  0  0  0  0  0
   35.9830   32.3230   37.3400 H   0  0  0  0  0  0  0  0  0  0  0  0
   33.9620   31.8910   36.7110 C   0  0  0  0  0  3  0  0  0  0  0  0
   33.2180   31.3090   35.6920 C   0  0  0  0  0  3  0  0  0  0  0  0
   32.3890   28.9730   33.6130 N   0  0  0  0  0  0  0  0  0  0  0  0
   32.8350   30.2030   33.6620 C   0  0  0  0  0  0  0  0  0  0  0  0
   32.2220   31.0330   32.6840 N   0  0  0  0  0  0  0  0  0  0  0  0
   32.7360   28.2350   34.2640 H   0  0  0  0  0  0  0  0  0  0  0  0
   31.7920   31.6270   31.9460 H   0  0  0  0  0  0  0  0  0  0  0  0
   32.6680   30.7840   31.7510 H   0  0  0  0  0  0  0  0  0  0  0  0
   36.9390   26.9100   32.1940 O   0  0  0  0  0  0  0  0  0  0  0  0
   35.1960   25.8240   30.6250 O   0  0  0  0  0  0  0  0  0  0  0  0
   36.5160   25.5680   31.2620 P   0  0  1  0  0  0  0  0  0  0  0  0
   37.7290   25.4670   30.0670 O   0  0  0  0  0  0  0  0  0  0  0  0
   37.3760   25.7880   29.1870 H   0  0  0  0  0  0  0  0  0  0  0  0
   36.5570   24.1830   32.2330 O   0  0  0  0  0  0  0  0  0  0  0  0
   35.5560   20.6760   31.6700 C   0  0  0  0  0  0  0  0  0  0  0  0
   35.4280   21.9860   32.1470 C   0  0  0  0  0  0  0  0  0  0  0  0
   36.4650   22.8810   31.8750 C   0  0  0  0  0  0  0  0  0  0  0  0
   37.5450   22.4340   31.1620 N   0  0  0  0  0  0  0  0  0  0  0  0
   37.6200   21.1630   30.7260 C   0  0  0  0  0  0  0  0  0  0  0  0
   36.6200   20.2870   30.9830 N   0  0  0  0  0  0  0  0  0  0  0  0
   34.6720   20.0890   31.9560 H   0  0  0  0  0  0  0  0  0  0  0  0
   34.6080   22.4060   32.7130 H   0  0  0  0  0  0  0  0  0  0  0  0
   38.4710   20.8070   30.1630 H   0  0  0  0  0  0  0  0  0  0  0  0
  2  7  1  0  0  0  0
  2  1  1  0  0  0  0
  3 25  1  0  0  0  0
  3  2  2  0  0  0  0
  4  5  2  0  0  0  0
  4  3  1  0  0  0  0
  5  6  1  0  0  0  0
  6  7  2  0  0  0  0
  7 12  1  0  0  0  0
  8  4  1  0  0  0  0
  9  5  1  0  0  0  0
 10  6  1  0  0  0  0
 11 18  1  0  0  0  0
 12 11  2  0  0  0  0
 12 13  1  0  0  0  0
 13 15  2  0  0  0  0
 14 13  1  0  0  0  0
 15 17  1  0  0  0  0
 15 16  1  0  0  0  0
 18 17  2  0  0  0  0
 19 20  2  0  0  0  0
 19 22  1  0  0  0  0
 20 11  1  0  0  0  0
 21 20  1  0  0  0  0
 23 21  1  0  0  0  0
 24 21  1  0  0  0  0
 27 26  2  6  0  0  0
 27 25  1  0  0  0  0
 27 30  1  0  0  0  0
 28 27  1  0  0  0  0
 29 28  1  0  0  0  0
 31 37  1  0  0  0  0
 31 32  1  0  0  0  0
 32 38  1  0  0  0  0
 33 32  2  0  0  0  0
 33 30  1  0  0  0  0
 34 33  1  0  0  0  0
 35 36  1  0  0  0  0
 35 34  2  0  0  0  0
 36 31  2  0  0  0  0
 39 35  1  0  0  0  0
M  END
>  <minimizedAffinity>
-5.62860203

$$$$

 OpenBabel03272508133D

 39 41  0  0  0  0  0  0  0  0999 V2000
   37.7710   22.7360   34.3040 Cl  0  0  0  0  0  0  0  0  0  0  0  0
   38.3250   24.4170   34.2650 C   0  0  0  0  0  0  0  0  0  0  0  0
   37.7200   25.4200   33.5210 C   0  0  0  0  0  0  0  0  0  0  0  0
   38.2680   26.6990   33.5880 C   0  0  0  0  0  0  0  0  0  0  0  0
   39.3720   26.9460   34.3700 C   0  0  0  0  0  0  0  0  0  0  0  0
   39.9760   25.9630   35.1070 C   0  0  0  0  0  0  0  0  0  0  0  0
   39.4550   24.7090   35.0540 C   0  0  0  0  0  0  0  0  0  0  0  0
   37.7280   27.4150   32.9740 H   0  0  0  0  0  0  0  0  0  0  0  0
   39.7010   27.9810   34.3360 H   0  0  0  0  0  0  0  0  0  0  0  0
   40.8500   26.2270   35.7070 H   0  0  0  0  0  0  0  0  0  0  0  0
   41.2180   23.1310   35.2230 C   0  0  0  0  0  0  0  0  0  0  0  0
   40.1230   23.6810   35.8540 C   0  0  0  0  0  0  0  0  0  0  0  0
   39.7710   23.2430   37.1140 C   0  0  0  0  0  0  0  0  0  0  0  0
   38.8960   23.7350   37.5300 H   0  0  0  0  0  0  0  0  0  0  0  0
   40.5080   22.2600   37.7390 C   0  0  0  0  0  0  0  0  0  0  0  0
   40.1830   21.9540   38.7340 H   0  0  0  0  0  0  0  0  0  0  0  0
   41.6130   21.6830   37.1380 C   0  0  0  0  0  3  0  0  0  0  0  0
   41.9570   22.1340   35.8690 C   0  0  0  0  0  3  0  0  0  0  0  0
   41.3900   22.9430   32.7610 N   0  0  0  0  0  0  0  0  0  0  0  0
   41.7870   23.4150   33.9160 C   0  0  0  0  0  0  0  0  0  0  0  0
   42.8990   24.2890   33.7810 N   0  0  0  0  0  0  0  0  0  0  0  0
   40.5830   22.2860   32.6820 H   0  0  0  0  0  0  0  0  0  0  0  0
   43.7330   24.9040   33.6780 H   0  0  0  0  0  0  0  0  0  0  0  0
   43.7500   23.6750   33.6070 H   0  0  0  0  0  0  0  0  0  0  0  0
   36.6490   24.9730   32.8200 O   0  0  0  0  0  0  0  0  0  0  0  0
   35.1210   24.9700   30.7360 O   0  0  0  0  0  0  0  0  0  0  0  0
   36.5070   24.6480   31.1700 P   0  0  1  0  0  0  0  0  0  0  0  0
   37.6140   25.7090   30.4200 O   0  0  0  0  0  0  0  0  0  0  0  0
   37.1260   26.4680   29.9860 H   0  0  0  0  0  0  0  0  0  0  0  0
   36.9680   23.0460   30.8790 O   0  0  0  0  0  0  0  0  0  0  0  0
   34.7740   20.4390   32.2950 C   0  0  0  0  0  0  0  0  0  0  0  0
   35.2470   21.7390   32.0770 C   0  0  0  0  0  0  0  0  0  0  0  0
   36.3460   21.8970   31.2310 C   0  0  0  0  0  0  0  0  0  0  0  0
   36.9000   20.7810   30.6620 N   0  0  0  0  0  0  0  0  0  0  0  0
   36.4070   19.5530   30.9040 C   0  0  0  0  0  0  0  0  0  0  0  0
   35.3410   19.3870   31.7220 N   0  0  0  0  0  0  0  0  0  0  0  0
   33.9120   20.4670   32.9760 H   0  0  0  0  0  0  0  0  0  0  0  0
   34.8610   22.6600   32.4900 H   0  0  0  0  0  0  0  0  0  0  0  0
   36.8410   18.6700   30.4570 H   0  0  0  0  0  0  0  0  0  0  0  0
  2  1  1  0  0  0  0
  2  7  1  0  0  0  0
  3  4  1  0  0  0  0
  3  2  2  0  0  0  0
  4  5  2  0  0  0  0
  5  6  1  0  0  0  0
  6 10  1  0  0  0  0
  7  6  2  0  0  0  0
  7 12  1  0  0  0  0
  8  4  1  0  0  0  0
  9  5  1  0  0  0  0
 11 12  2  0  0  0  0
 11 18  1  0  0  0  0
 12 13  1  0  0  0  0
 13 14  1  0  0  0  0
 13 15  2  0  0  0  0
 15 16  1  0  0  0  0
 17 15  1  0  0  0  0
 18 17  2  0  0  0  0
 19 20  2  0  0  0  0
 20 11  1  0  0  0  0
 21 20  1  0  0  0  0
 22 19  1  0  0  0  0
 23 21  1  0  0  0  0
 24 21  1  0  0  0  0
 25  3  1  0  0  0  0
 27 26  2  6  0  0  0
 27 25  1  0  0  0  0
 28 27  1  0  0  0  0
 29 28  1  0  0  0  0
 30 27  1  0  0  0  0
 30 33  1  0  0  0  0
 31 37  1  0  0  0  0
 32 31  1  0  0  0  0
 32 38  1  0  0  0  0
 33 32  2  0  0  0  0
 34 35  2  0  0  0  0
 34 33  1  0  0  0  0
 35 36  1  0  0  0  0
 36 31  2  0  0  0  0
 39 35  1  0  0  0  0
M  END
>  <minimizedAffinity>
-5.61637831

$$$$
