
 OpenBabel03272510073D

 35 37  0  0  0  0  0  0  0  0999 V2000
   36.3940   31.1210   49.2910 C   0  0  0  0  0  0  0  0  0  0  0  0
   37.1240   31.4860   48.1530 C   0  0  0  0  0  0  0  0  0  0  0  0
   36.7960   30.8790   46.9400 C   0  0  0  0  0  0  0  0  0  0  0  0
   35.7850   29.9650   46.9130 N   0  0  0  0  0  0  0  0  0  0  0  0
   35.1030   29.6380   48.0240 C   0  0  0  0  0  0  0  0  0  0  0  0
   35.4080   30.2100   49.1880 N   0  0  0  0  0  0  0  0  0  0  0  0
   34.0540   28.6680   47.9250 N   0  0  0  0  0  0  0  0  0  0  0  0
   32.8890   28.8210   47.0770 C   0  0  0  0  0  0  0  0  0  0  0  0
   32.2200   27.4930   47.0920 C   0  0  0  0  0  0  0  0  0  0  0  0
   33.1950   26.5390   47.7510 C   0  0  0  0  0  0  0  0  0  0  0  0
   34.0030   27.4050   48.6540 C   0  0  0  0  0  0  0  0  0  0  0  0
   36.6370   31.5850   50.2470 H   0  0  0  0  0  0  0  0  0  0  0  0
   37.3620   31.1710   46.0720 H   0  0  0  0  0  0  0  0  0  0  0  0
   33.1760   29.1300   46.0430 H   0  0  0  0  0  0  0  0  0  0  0  0
   32.2070   29.5850   47.5140 H   0  0  0  0  0  0  0  0  0  0  0  0
   31.9190   27.1310   46.0940 H   0  0  0  0  0  0  0  0  0  0  0  0
   31.3220   27.5190   47.7750 H   0  0  0  0  0  0  0  0  0  0  0  0
   33.8600   26.1360   46.9580 H   0  0  0  0  0  0  0  0  0  0  0  0
   32.6350   25.7460   48.2990 H   0  0  0  0  0  0  0  0  0  0  0  0
   35.0090   27.0280   48.8800 H   0  0  0  0  0  0  0  0  0  0  0  0
   33.4350   27.5610   49.6000 H   0  0  0  0  0  0  0  0  0  0  0  0
   38.8650   32.7960   47.1820 C   0  0  0  0  0  0  0  0  0  0  0  0
   38.1720   32.4840   48.3330 C   0  0  0  0  0  0  0  0  0  0  0  0
   38.4840   33.1050   49.5230 C   0  0  0  0  0  0  0  0  0  0  0  0
   37.8490   32.7460   50.3290 H   0  0  0  0  0  0  0  0  0  0  0  0
   39.4790   34.0480   49.6250 C   0  0  0  0  0  0  0  0  0  0  0  0
   39.5850   34.4230   50.6100 H   0  0  0  0  0  0  0  0  0  0  0  0
   40.1720   34.3620   48.4770 C   0  0  0  0  0  3  0  0  0  0  0  0
   39.8810   33.7540   47.2610 C   0  0  0  0  0  3  0  0  0  0  0  0
   37.9220   32.7770   44.9410 N   0  0  0  0  0  0  0  0  0  0  0  0
   38.7230   32.2670   45.8320 C   0  0  0  0  0  0  0  0  0  0  0  0
   39.3600   31.1850   45.2090 N   0  0  0  0  0  0  0  0  0  0  0  0
   37.3210   33.6120   45.1610 H   0  0  0  0  0  0  0  0  0  0  0  0
   39.7070   30.2250   45.0390 H   0  0  0  0  0  0  0  0  0  0  0  0
   39.8730   31.1870   44.3070 H   0  0  0  0  0  0  0  0  0  0  0  0
  1 12  1  0  0  0  0
  2 23  1  0  0  0  0
  2  1  2  0  0  0  0
  3  2  1  0  0  0  0
  4  3  2  0  0  0  0
  4  5  1  0  0  0  0
  5  6  2  0  0  0  0
  6  1  1  0  0  0  0
  7  5  1  0  0  0  0
  7 11  1  0  0  0  0
  8  9  1  0  0  0  0
  8 15  1  0  0  0  0
  8  7  1  0  0  0  0
  9 10  1  0  0  0  0
  9 17  1  0  0  0  0
 10 19  1  0  0  0  0
 10 11  1  0  0  0  0
 11 20  1  0  0  0  0
 11 21  1  0  0  0  0
 13  3  1  0  0  0  0
 14  8  1  0  0  0  0
 16  9  1  0  0  0  0
 18 10  1  0  0  0  0
 22 29  2  0  0  0  0
 22 23  1  0  0  0  0
 23 24  2  0  0  0  0
 24 26  1  0  0  0  0
 24 25  1  0  0  0  0
 26 27  1  0  0  0  0
 28 26  2  0  0  0  0
 29 28  1  0  0  0  0
 30 33  1  0  0  0  0
 30 31  2  0  0  0  0
 31 22  1  0  0  0  0
 32 31  1  0  0  0  0
 34 32  1  0  0  0  0
 35 32  1  0  0  0  0
M  END
>  <minimizedAffinity>
-5.79434586

>  <minimizedRMSD>
2.5206697

$$$$
