
 OpenBabel03262520173D

 23 24  0  0  0  0  0  0  0  0999 V2000
   38.8630   32.3490   47.5380 C   0  0  0  0  0  0  0  0  0  0  0  0
   38.3260   31.1090   47.3260 C   0  0  0  0  0  0  0  0  0  0  0  0
   38.7860   30.4060   46.2390 C   0  0  0  0  0  0  0  0  0  0  0  0
   38.4090   29.4240   46.0110 H   0  0  0  0  0  0  0  0  0  0  0  0
   39.7280   30.8980   45.4040 C   0  0  0  0  0  0  0  0  0  0  0  0
   40.0700   30.3140   44.5520 H   0  0  0  0  0  0  0  0  0  0  0  0
   40.2930   32.1420   45.5820 C   0  0  0  0  0  0  0  0  0  0  0  0
   39.8380   32.8480   46.6650 C   0  0  0  0  0  0  0  0  0  0  0  0
   36.8500   29.3110   50.2420 C   0  0  0  0  0  0  0  0  0  0  0  0
   37.7600   29.8310   49.2990 C   0  0  0  0  0  0  0  0  0  0  0  0
   37.3150   30.6210   48.2440 C   0  0  0  0  0  0  0  0  0  0  0  0
   35.9860   30.8230   48.2230 N   0  0  0  0  0  0  0  0  0  0  0  0
   35.1080   30.3400   49.1050 C   0  0  0  0  0  0  0  0  0  0  0  0
   35.5460   29.5710   50.1300 N   0  0  0  0  0  0  0  0  0  0  0  0
   37.0970   28.6960   51.0840 H   0  0  0  0  0  0  0  0  0  0  0  0
   38.7480   29.5170   49.5520 H   0  0  0  0  0  0  0  0  0  0  0  0
   34.0730   30.6000   48.9400 H   0  0  0  0  0  0  0  0  0  0  0  0
   39.3630   34.3070   48.8280 N   0  0  0  0  0  0  0  0  0  0  0  0
   38.5800   33.2760   48.5920 C   0  0  0  0  0  0  0  0  0  0  0  0
   37.6680   33.5480   49.6330 N   0  0  0  0  0  0  0  0  0  0  0  0
   39.1280   34.9620   49.6170 H   0  0  0  0  0  0  0  0  0  0  0  0
   36.9860   34.3230   49.7680 H   0  0  0  0  0  0  0  0  0  0  0  0
   37.4530   33.0310   50.5370 H   0  0  0  0  0  0  0  0  0  0  0  0
  1 19  1  0  0  0  0
  2  1  1  0  0  0  0
  2 11  1  0  0  0  0
  3  2  2  0  0  0  0
  4  3  1  0  0  0  0
  5  7  2  0  0  0  0
  5  3  1  0  0  0  0
  6  5  1  0  0  0  0
  7  8  1  0  0  0  0
  8  1  2  0  0  0  0
  9 15  1  0  0  0  0
 10 16  1  0  0  0  0
 10  9  2  0  0  0  0
 11 10  1  0  0  0  0
 12 11  2  0  0  0  0
 12 13  1  0  0  0  0
 13 14  2  0  0  0  0
 14  9  1  0  0  0  0
 17 13  1  0  0  0  0
 18 21  1  0  0  0  0
 19 18  2  0  0  0  0
 19 20  1  0  0  0  0
 20 22  1  0  0  0  0
 20 23  1  0  0  0  0
M  END
>  <minimizedAffinity>
-5.44769335

>  <minimizedRMSD>
1.27118015

$$$$
