
 OpenBabel03272508123D

 39 41  0  0  0  0  0  0  0  0999 V2000
   36.6130   29.7110   45.1290 Cl  0  0  0  0  0  0  0  0  0  0  0  0
   38.2430   30.3990   45.0540 C   0  0  0  0  0  0  0  0  0  0  0  0
   38.9950   30.7440   46.1680 C   0  0  0  0  0  0  0  0  0  0  0  0
   40.2650   31.2750   45.9560 C   0  0  0  0  0  0  0  0  0  0  0  0
   40.7450   31.4480   44.6780 C   0  0  0  0  0  0  0  0  0  0  0  0
   40.0100   31.1110   43.5730 C   0  0  0  0  0  0  0  0  0  0  0  0
   38.7700   30.5900   43.7620 C   0  0  0  0  0  0  0  0  0  0  0  0
   40.7760   31.5150   46.8840 H   0  0  0  0  0  0  0  0  0  0  0  0
   41.7450   31.8700   44.6480 H   0  0  0  0  0  0  0  0  0  0  0  0
   40.4520   31.2740   42.5870 H   0  0  0  0  0  0  0  0  0  0  0  0
   37.1980   31.2610   42.1170 C   0  0  0  0  0  0  0  0  0  0  0  0
   38.0100   30.2390   42.5610 C   0  0  0  0  0  0  0  0  0  0  0  0
   38.0390   29.0430   41.8740 C   0  0  0  0  0  0  0  0  0  0  0  0
   38.7080   28.3000   42.2980 H   0  0  0  0  0  0  0  0  0  0  0  0
   37.2580   28.8680   40.7500 C   0  0  0  0  0  0  0  0  0  0  0  0
   37.3220   27.9020   40.2490 H   0  0  0  0  0  0  0  0  0  0  0  0
   36.4300   29.8690   40.2750 C   0  0  0  0  0  3  0  0  0  0  0  0
   36.4110   31.0690   40.9750 C   0  0  0  0  0  3  0  0  0  0  0  0
   36.1230   32.9560   43.5660 N   0  0  0  0  0  0  0  0  0  0  0  0
   36.9920   32.5950   42.6550 C   0  0  0  0  0  0  0  0  0  0  0  0
   37.7730   33.6920   42.1990 N   0  0  0  0  0  0  0  0  0  0  0  0
   35.4710   32.2710   44.0070 H   0  0  0  0  0  0  0  0  0  0  0  0
   38.3190   34.5050   41.8470 H   0  0  0  0  0  0  0  0  0  0  0  0
   37.1500   34.2610   41.5490 H   0  0  0  0  0  0  0  0  0  0  0  0
   38.3440   30.4960   47.3320 O   0  0  0  0  0  0  0  0  0  0  0  0
   38.7380   31.3380   49.7430 O   0  0  0  0  0  0  0  0  0  0  0  0
   37.8800   31.5690   48.5490 P   0  0  1  0  0  0  0  0  0  0  0  0
   38.1840   33.1190   47.9050 O   0  0  0  0  0  0  0  0  0  0  0  0
   39.0090   33.5100   48.3170 H   0  0  0  0  0  0  0  0  0  0  0  0
   36.2240   31.3900   48.8440 O   0  0  0  0  0  0  0  0  0  0  0  0
   34.6030   28.1080   49.3080 C   0  0  0  0  0  0  0  0  0  0  0  0
   35.5100   29.1400   49.5760 C   0  0  0  0  0  0  0  0  0  0  0  0
   35.4530   30.2790   48.7710 C   0  0  0  0  0  0  0  0  0  0  0  0
   34.5220   30.3270   47.7680 N   0  0  0  0  0  0  0  0  0  0  0  0
   33.6720   29.3060   47.5520 C   0  0  0  0  0  0  0  0  0  0  0  0
   33.7170   28.1970   48.3270 N   0  0  0  0  0  0  0  0  0  0  0  0
   34.7610   27.2820   50.0160 H   0  0  0  0  0  0  0  0  0  0  0  0
   36.2670   29.1700   50.3460 H   0  0  0  0  0  0  0  0  0  0  0  0
   32.9350   29.3400   46.7620 H   0  0  0  0  0  0  0  0  0  0  0  0
  2  1  1  0  0  0  0
  2  3  1  0  0  0  0
  3 25  1  0  0  0  0
  4  3  2  0  0  0  0
  4  8  1  0  0  0  0
  5  4  1  0  0  0  0
  6  7  1  0  0  0  0
  6  5  2  0  0  0  0
  7  2  2  0  0  0  0
  9  5  1  0  0  0  0
 10  6  1  0  0  0  0
 11 12  1  0  0  0  0
 11 20  1  0  0  0  0
 12  7  1  0  0  0  0
 13 14  1  0  0  0  0
 13 12  2  0  0  0  0
 15 13  1  0  0  0  0
 16 15  1  0  0  0  0
 17 15  2  0  0  0  0
 17 18  1  0  0  0  0
 18 11  2  0  0  0  0
 19 22  1  0  0  0  0
 20 19  2  0  0  0  0
 21 20  1  0  0  0  0
 23 21  1  0  0  0  0
 24 21  1  0  0  0  0
 25 27  1  0  0  0  0
 27 30  1  0  0  0  0
 27 26  2  1  0  0  0
 28 29  1  0  0  0  0
 28 27  1  0  0  0  0
 31 32  1  0  0  0  0
 31 37  1  0  0  0  0
 32 38  1  0  0  0  0
 33 30  1  0  0  0  0
 33 32  2  0  0  0  0
 34 33  1  0  0  0  0
 35 34  2  0  0  0  0
 35 36  1  0  0  0  0
 36 31  2  0  0  0  0
 39 35  1  0  0  0  0
M  END
>  <minimizedAffinity>
-5.45615911

>  <minimizedRMSD>
2.44522142

$$$$
