
 OpenBabel03262523523D

 41 43  0  0  1  0  0  0  0  0999 V2000
   34.7060   29.4850   48.0270 N   0  0  0  0  0  0  0  0  0  0  0  0
   34.5740   30.1580   49.3060 C   0  0  0  0  0  0  0  0  0  0  0  0
   35.6210   31.2240   49.4610 C   0  0  0  0  0  0  0  0  0  0  0  0
   36.9450   30.6390   49.0270 C   0  0  0  0  0  0  0  0  0  0  0  0
   36.9200   30.4510   47.5450 C   0  0  0  0  0  0  0  0  0  0  0  0
   35.4880   30.2040   47.1190 C   0  0  1  0  0  0  0  0  0  0  0  0
   34.5940   29.4460   50.1360 H   0  0  0  0  0  0  0  0  0  0  0  0
   33.5890   30.6810   49.3270 H   0  0  0  0  0  0  0  0  0  0  0  0
   35.7190   31.3830   50.5730 H   0  0  0  0  0  0  0  0  0  0  0  0
   35.3780   32.1920   49.0140 H   0  0  0  0  0  0  0  0  0  0  0  0
   36.9920   29.6290   49.5090 H   0  0  0  0  0  0  0  0  0  0  0  0
   37.8180   31.2340   49.3720 H   0  0  0  0  0  0  0  0  0  0  0  0
   37.3130   31.3690   47.0600 H   0  0  0  0  0  0  0  0  0  0  0  0
   37.5910   29.6290   47.3080 H   0  0  0  0  0  0  0  0  0  0  0  0
   35.0590   31.2820   47.2280 H   0  0  0  0  0  0  0  0  0  0  0  0
   34.0510   30.1220   45.0720 C   0  0  0  0  0  0  0  0  0  0  0  0
   35.2980   29.9210   45.6980 C   0  0  0  0  0  0  0  0  0  0  0  0
   36.2150   29.4540   44.8080 C   0  0  0  0  0  0  0  0  0  0  0  0
   37.2100   29.2560   45.1100 H   0  0  0  0  0  0  0  0  0  0  0  0
   36.0070   29.1990   43.4720 C   0  0  0  0  0  0  0  0  0  0  0  0
   36.7780   28.8270   42.8060 H   0  0  0  0  0  0  0  0  0  0  0  0
   34.7640   29.4150   42.9170 C   0  0  0  0  0  3  0  0  0  0  0  0
   33.7760   29.8850   43.7370 C   0  0  0  0  0  3  0  0  0  0  0  0
   32.4710   31.5840   46.5350 N   0  0  0  0  0  0  0  0  0  0  0  0
   32.8970   30.6310   45.7860 C   0  0  0  0  0  0  0  0  0  0  0  0
   31.6270   29.9500   45.7870 N   0  0  0  0  0  0  0  0  0  0  0  0
   31.4970   31.6260   46.8920 H   0  0  0  0  0  0  0  0  0  0  0  0
   30.9350   30.1390   45.0250 H   0  0  0  0  0  0  0  0  0  0  0  0
   31.3350   29.2500   46.5280 H   0  0  0  0  0  0  0  0  0  0  0  0
   34.6330   28.1000   48.0930 C   0  0  0  0  0  0  0  0  0  0  0  0
   34.7190   27.8330   49.2150 H   0  0  0  0  0  0  0  0  0  0  0  0
   35.4080   27.4780   47.6490 H   0  0  0  0  0  0  0  0  0  0  0  0
   33.3080   27.5760   47.7320 C   0  0  0  0  0  0  0  0  0  0  0  0
   32.2810   27.7020   48.6820 C   0  0  0  0  0  0  0  0  0  0  0  0
   31.0070   27.1970   48.3870 C   0  0  0  0  0  0  0  0  0  0  0  0
   30.8240   26.6000   47.1810 N   0  0  0  0  0  0  0  0  0  0  0  0
   31.8150   26.4860   46.2810 C   0  0  0  0  0  0  0  0  0  0  0  0
   33.0380   26.9740   46.5690 N   0  0  0  0  0  0  0  0  0  0  0  0
   32.3970   28.1720   49.6490 H   0  0  0  0  0  0  0  0  0  0  0  0
   30.1930   27.2810   49.1020 H   0  0  0  0  0  0  0  0  0  0  0  0
   31.6180   26.0000   45.3290 H   0  0  0  0  0  0  0  0  0  0  0  0
  1 30  1  0  0  0  0
  1  2  1  0  0  0  0
  2  8  1  0  0  0  0
  2  3  1  0  0  0  0
  2  7  1  0  0  0  0
  3  9  1  0  0  0  0
  4 12  1  0  0  0  0
  4  3  1  0  0  0  0
  4 11  1  0  0  0  0
  5  4  1  0  0  0  0
  6 15  1  1  0  0  0
  6  5  1  0  0  0  0
  6  1  1  0  0  0  0
 10  3  1  0  0  0  0
 13  5  1  0  0  0  0
 14  5  1  0  0  0  0
 16 17  1  0  0  0  0
 16 25  1  0  0  0  0
 17  6  1  0  0  0  0
 18 19  1  0  0  0  0
 18 17  2  0  0  0  0
 20 18  1  0  0  0  0
 21 20  1  0  0  0  0
 22 20  2  0  0  0  0
 22 23  1  0  0  0  0
 23 16  2  0  0  0  0
 24 27  1  0  0  0  0
 25 26  1  0  0  0  0
 25 24  2  0  0  0  0
 26 29  1  0  0  0  0
 28 26  1  0  0  0  0
 30 31  1  0  0  0  0
 32 30  1  0  0  0  0
 33 30  1  0  0  0  0
 33 34  1  0  0  0  0
 34 39  1  0  0  0  0
 35 34  2  0  0  0  0
 35 40  1  0  0  0  0
 36 35  1  0  0  0  0
 37 38  1  0  0  0  0
 37 36  2  0  0  0  0
 38 33  2  0  0  0  0
 41 37  1  0  0  0  0
M  END
>  <minimizedAffinity>
-3.91031051

>  <minimizedRMSD>
3.83447456

$$$$
