
 OpenBabel03272508123D

 39 41  0  0  0  0  0  0  0  0999 V2000
   36.7930   29.3180   44.1090 Cl  0  0  0  0  0  0  0  0  0  0  0  0
   38.4060   29.8030   43.5650 C   0  0  0  0  0  0  0  0  0  0  0  0
   39.3690   30.3680   44.3890 C   0  0  0  0  0  0  0  0  0  0  0  0
   40.5970   30.7000   43.8200 C   0  0  0  0  0  0  0  0  0  0  0  0
   40.8330   30.4700   42.4850 C   0  0  0  0  0  0  0  0  0  0  0  0
   39.8890   29.9130   41.6640 C   0  0  0  0  0  0  0  0  0  0  0  0
   38.6860   29.5830   42.2030 C   0  0  0  0  0  0  0  0  0  0  0  0
   41.2840   31.1360   44.5410 H   0  0  0  0  0  0  0  0  0  0  0  0
   41.8260   30.7720   42.1650 H   0  0  0  0  0  0  0  0  0  0  0  0
   40.1420   29.7580   40.6130 H   0  0  0  0  0  0  0  0  0  0  0  0
   37.8520   27.6270   41.1500 C   0  0  0  0  0  0  0  0  0  0  0  0
   37.6990   28.9890   41.2990 C   0  0  0  0  0  0  0  0  0  0  0  0
   36.6860   29.6390   40.6230 C   0  0  0  0  0  0  0  0  0  0  0  0
   36.6450   30.7100   40.8020 H   0  0  0  0  0  0  0  0  0  0  0  0
   35.8330   28.9310   39.8020 C   0  0  0  0  0  0  0  0  0  0  0  0
   35.0520   29.5000   39.2940 H   0  0  0  0  0  0  0  0  0  0  0  0
   35.9550   27.5660   39.6270 C   0  0  0  0  0  3  0  0  0  0  0  0
   36.9790   26.9230   40.3150 C   0  0  0  0  0  3  0  0  0  0  0  0
   39.9140   26.2590   41.1890 N   0  0  0  0  0  0  0  0  0  0  0  0
   38.8230   26.7230   41.7440 C   0  0  0  0  0  0  0  0  0  0  0  0
   38.6510   26.2380   43.0690 N   0  0  0  0  0  0  0  0  0  0  0  0
   40.1900   26.5180   40.2160 H   0  0  0  0  0  0  0  0  0  0  0  0
   38.5150   25.8560   44.0280 H   0  0  0  0  0  0  0  0  0  0  0  0
   38.3190   25.2320   42.9840 H   0  0  0  0  0  0  0  0  0  0  0  0
   38.9410   30.5110   45.6670 O   0  0  0  0  0  0  0  0  0  0  0  0
   39.4110   32.5730   47.1530 O   0  0  0  0  0  0  0  0  0  0  0  0
   38.3090   31.8720   46.4400 P   0  0  1  0  0  0  0  0  0  0  0  0
   37.7140   32.8540   45.1780 O   0  0  0  0  0  0  0  0  0  0  0  0
   38.3320   33.6260   45.0200 H   0  0  0  0  0  0  0  0  0  0  0  0
   37.0300   31.3970   47.4420 O   0  0  0  0  0  0  0  0  0  0  0  0
   37.5980   30.5290   50.9830 C   0  0  0  0  0  0  0  0  0  0  0  0
   37.6970   31.3010   49.8200 C   0  0  0  0  0  0  0  0  0  0  0  0
   37.0670   30.8250   48.6680 C   0  0  0  0  0  0  0  0  0  0  0  0
   36.3920   29.6360   48.7360 N   0  0  0  0  0  0  0  0  0  0  0  0
   36.3260   28.9310   49.8790 C   0  0  0  0  0  0  0  0  0  0  0  0
   36.9320   29.3830   51.0030 N   0  0  0  0  0  0  0  0  0  0  0  0
   38.1360   31.0230   51.8040 H   0  0  0  0  0  0  0  0  0  0  0  0
   38.2110   32.2440   49.6950 H   0  0  0  0  0  0  0  0  0  0  0  0
   35.7940   27.9920   49.9370 H   0  0  0  0  0  0  0  0  0  0  0  0
  2  1  1  0  0  0  0
  2  3  1  0  0  0  0
  3 25  1  0  0  0  0
  4  3  2  0  0  0  0
  4  8  1  0  0  0  0
  5  4  1  0  0  0  0
  6  7  1  0  0  0  0
  6  5  2  0  0  0  0
  7  2  2  0  0  0  0
  9  5  1  0  0  0  0
 10  6  1  0  0  0  0
 11 12  1  0  0  0  0
 11 20  1  0  0  0  0
 12  7  1  0  0  0  0
 13 14  1  0  0  0  0
 13 12  2  0  0  0  0
 15 13  1  0  0  0  0
 16 15  1  0  0  0  0
 17 15  2  0  0  0  0
 17 18  1  0  0  0  0
 18 11  2  0  0  0  0
 19 20  2  0  0  0  0
 20 21  1  0  0  0  0
 21 23  1  0  0  0  0
 22 19  1  0  0  0  0
 24 21  1  0  0  0  0
 25 27  1  0  0  0  0
 27 26  2  1  0  0  0
 27 30  1  0  0  0  0
 28 27  1  0  0  0  0
 29 28  1  0  0  0  0
 30 33  1  0  0  0  0
 31 36  1  0  0  0  0
 31 37  1  0  0  0  0
 32 31  2  0  0  0  0
 33 34  2  0  0  0  0
 33 32  1  0  0  0  0
 34 35  1  0  0  0  0
 35 39  1  0  0  0  0
 35 36  2  0  0  0  0
 38 32  1  0  0  0  0
M  END
>  <minimizedAffinity>
-5.05890656

>  <minimizedRMSD>
0.586613417

$$$$
