
 OpenBabel03272503233D

 35 37  0  0  1  0  0  0  0  0999 V2000
   36.5230   29.5820   49.2510 N   0  0  0  0  0  0  0  0  0  0  0  0
   37.7900   30.0460   48.8920 C   0  0  2  0  0  0  0  0  0  0  0  0
   38.3460   30.6350   50.1810 C   0  0  0  0  0  0  0  0  0  0  0  0
   37.2490   30.5060   51.1940 C   0  0  0  0  0  0  0  0  0  0  0  0
   36.5900   29.2550   50.6900 C   0  0  0  0  0  0  0  0  0  0  0  0
   38.4070   29.0400   48.8440 H   0  0  0  0  0  0  0  0  0  0  0  0
   39.2180   30.0820   50.5800 H   0  0  0  0  0  0  0  0  0  0  0  0
   38.7110   31.6670   50.0500 H   0  0  0  0  0  0  0  0  0  0  0  0
   37.6630   30.2930   52.2230 H   0  0  0  0  0  0  0  0  0  0  0  0
   36.5490   31.3500   51.2610 H   0  0  0  0  0  0  0  0  0  0  0  0
   37.3060   28.4180   50.8330 H   0  0  0  0  0  0  0  0  0  0  0  0
   35.6060   29.0670   51.1100 H   0  0  0  0  0  0  0  0  0  0  0  0
   35.3510   29.3560   48.5070 C   0  0  0  0  0  0  0  0  0  0  0  0
   34.9200   30.4240   47.7460 C   0  0  0  0  0  0  0  0  0  0  0  0
   33.7980   30.3400   46.9300 C   0  0  0  0  0  0  0  0  0  0  0  0
   33.1610   29.1260   46.9390 N   0  0  0  0  0  0  0  0  0  0  0  0
   33.5880   28.0950   47.6800 C   0  0  0  0  0  0  0  0  0  0  0  0
   34.6920   28.2050   48.4740 N   0  0  0  0  0  0  0  0  0  0  0  0
   35.2540   31.4230   47.5870 H   0  0  0  0  0  0  0  0  0  0  0  0
   33.3260   31.0470   46.2870 H   0  0  0  0  0  0  0  0  0  0  0  0
   33.0460   27.1470   47.6530 H   0  0  0  0  0  0  0  0  0  0  0  0
   38.3760   32.1170   47.5340 C   0  0  0  0  0  0  0  0  0  0  0  0
   38.1750   30.7420   47.7180 C   0  0  0  0  0  0  0  0  0  0  0  0
   38.4290   30.0770   46.5050 C   0  0  0  0  0  0  0  0  0  0  0  0
   38.3130   28.9820   46.4850 H   0  0  0  0  0  0  0  0  0  0  0  0
   38.8050   30.6500   45.3390 C   0  0  0  0  0  0  0  0  0  0  0  0
   38.9770   30.0610   44.4530 H   0  0  0  0  0  0  0  0  0  0  0  0
   38.9700   32.0100   45.2790 C   0  0  0  0  0  3  0  0  0  0  0  0
   38.7560   32.7670   46.3840 C   0  0  0  0  0  3  0  0  0  0  0  0
   37.4960   33.4490   49.6450 N   0  0  0  0  0  0  0  0  0  0  0  0
   38.1430   32.9870   48.6660 C   0  0  0  0  0  0  0  0  0  0  0  0
   39.1460   33.9630   49.0310 N   0  0  0  0  0  0  0  0  0  0  0  0
   37.9430   34.2280   50.1900 H   0  0  0  0  0  0  0  0  0  0  0  0
   39.3200   34.8090   48.4130 H   0  0  0  0  0  0  0  0  0  0  0  0
   39.9010   34.4070   49.6000 H   0  0  0  0  0  0  0  0  0  0  0  0
  1  5  1  0  0  0  0
  2  6  1  6  0  0  0
  2  1  1  0  0  0  0
  2  3  1  0  0  0  0
  3  7  1  0  0  0  0
  3  4  1  0  0  0  0
  4 10  1  0  0  0  0
  4  9  1  0  0  0  0
  5 11  1  0  0  0  0
  5 12  1  0  0  0  0
  5  4  1  0  0  0  0
  8  3  1  0  0  0  0
 13  1  1  0  0  0  0
 14 13  2  0  0  0  0
 15 16  2  0  0  0  0
 15 14  1  0  0  0  0
 16 17  1  0  0  0  0
 17 18  2  0  0  0  0
 18 13  1  0  0  0  0
 19 14  1  0  0  0  0
 20 15  1  0  0  0  0
 21 17  1  0  0  0  0
 22 23  1  0  0  0  0
 22 31  1  0  0  0  0
 23  2  1  0  0  0  0
 24 23  2  0  0  0  0
 25 24  1  0  0  0  0
 26 24  1  0  0  0  0
 27 26  1  0  0  0  0
 28 26  2  0  0  0  0
 28 29  1  0  0  0  0
 29 22  2  0  0  0  0
 30 33  1  0  0  0  0
 31 32  1  0  0  0  0
 31 30  2  0  0  0  0
 32 35  1  0  0  0  0
 34 32  1  0  0  0  0
M  END
>  <minimizedAffinity>
-5.67460203

>  <minimizedRMSD>
1.26384401

$$$$
