
 OpenBabel03272506073D

 35 37  0  0  0  0  0  0  0  0999 V2000
   34.2780   29.0020   48.0960 C   0  0  0  0  0  0  0  0  0  0  0  0
   34.2520   29.9810   47.0360 C   0  0  0  0  0  0  0  0  0  0  0  0
   32.6570   29.6750   46.3450 S   0  0  0  0  0  0  0  0  0  0  0  0
   32.2270   28.3000   47.5420 C   0  0  0  0  0  0  0  0  0  0  0  0
   33.2120   28.2590   48.2120 N   0  0  0  0  0  0  0  0  0  0  0  0
   35.0410   30.6800   46.7900 H   0  0  0  0  0  0  0  0  0  0  0  0
   30.8180   26.5170   46.6490 C   0  0  0  0  0  0  0  0  0  0  0  0
   30.9100   27.6580   47.3870 C   0  0  0  0  0  0  0  0  0  0  0  0
   29.7530   28.1470   47.9480 C   0  0  0  0  0  0  0  0  0  0  0  0
   29.8000   29.0520   48.5390 H   0  0  0  0  0  0  0  0  0  0  0  0
   28.5810   27.4920   47.7500 C   0  0  0  0  0  0  0  0  0  0  0  0
   27.7070   27.9230   48.2150 H   0  0  0  0  0  0  0  0  0  0  0  0
   28.5060   26.3440   47.0040 C   0  0  0  0  0  3  0  0  0  0  0  0
   29.6450   25.8300   46.4300 C   0  0  0  0  0  3  0  0  0  0  0  0
   33.1620   25.4440   46.1630 N   0  0  0  0  0  0  0  0  0  0  0  0
   31.9920   25.9590   46.0470 C   0  0  0  0  0  0  0  0  0  0  0  0
   32.0990   25.8290   44.6140 N   0  0  0  0  0  0  0  0  0  0  0  0
   33.6920   25.1590   45.3100 H   0  0  0  0  0  0  0  0  0  0  0  0
   32.5700   26.2770   43.7730 H   0  0  0  0  0  0  0  0  0  0  0  0
   31.5520   25.0380   44.1650 H   0  0  0  0  0  0  0  0  0  0  0  0
   35.4980   28.9190   48.9630 C   0  0  0  0  0  0  0  0  0  0  0  0
   35.4840   27.9820   49.5570 H   0  0  0  0  0  0  0  0  0  0  0  0
   36.4120   28.8220   48.3050 H   0  0  0  0  0  0  0  0  0  0  0  0
   35.6120   30.0790   49.8870 C   0  0  0  0  0  0  0  0  0  0  0  0
   34.6770   30.6380   49.9500 H   0  0  0  0  0  0  0  0  0  0  0  0
   35.8430   29.7460   50.9360 H   0  0  0  0  0  0  0  0  0  0  0  0
   37.8280   33.0200   49.4780 C   0  0  0  0  0  0  0  0  0  0  0  0
   38.6920   32.6330   48.4560 C   0  0  0  0  0  0  0  0  0  0  0  0
   38.5050   31.3520   47.9090 C   0  0  0  0  0  0  0  0  0  0  0  0
   37.5040   30.5800   48.4070 N   0  0  0  0  0  0  0  0  0  0  0  0
   36.6960   31.0180   49.4060 C   0  0  0  0  0  0  0  0  0  0  0  0
   36.8510   32.2310   49.9430 N   0  0  0  0  0  0  0  0  0  0  0  0
   37.9210   33.9850   49.9340 H   0  0  0  0  0  0  0  0  0  0  0  0
   39.4540   33.3180   48.1310 H   0  0  0  0  0  0  0  0  0  0  0  0
   39.1570   31.0290   47.1210 H   0  0  0  0  0  0  0  0  0  0  0  0
  1  5  1  0  0  0  0
  1 21  1  0  0  0  0
  2  1  2  0  0  0  0
  3  2  1  0  0  0  0
  3  4  1  0  0  0  0
  4  5  2  0  0  0  0
  6  2  1  0  0  0  0
  7  8  1  0  0  0  0
  8  4  1  0  0  0  0
  8  9  2  0  0  0  0
  9 10  1  0  0  0  0
 11  9  1  0  0  0  0
 11 12  1  0  0  0  0
 13 11  2  0  0  0  0
 14  7  2  0  0  0  0
 14 13  1  0  0  0  0
 16 15  2  0  0  0  0
 16  7  1  0  0  0  0
 17 16  1  0  0  0  0
 18 15  1  0  0  0  0
 19 17  1  0  0  0  0
 20 17  1  0  0  0  0
 21 22  1  0  0  0  0
 21 24  1  0  0  0  0
 23 21  1  0  0  0  0
 24 25  1  0  0  0  0
 24 26  1  0  0  0  0
 27 33  1  0  0  0  0
 27 32  1  0  0  0  0
 28 27  2  0  0  0  0
 29 30  2  0  0  0  0
 29 28  1  0  0  0  0
 30 31  1  0  0  0  0
 31 24  1  0  0  0  0
 31 32  2  0  0  0  0
 34 28  1  0  0  0  0
 35 29  1  0  0  0  0
M  END
>  <minimizedAffinity>
-4.72079468

>  <minimizedRMSD>
1.67348957

$$$$
