
 OpenBabel03272500273D

 39 41  0  0  0  0  0  0  0  0999 V2000
   39.8050   31.8550   45.0760 C   0  0  0  0  0  0  0  0  0  0  0  0
   39.5440   33.1200   44.6590 C   0  0  0  0  0  0  0  0  0  0  0  0
   39.4840   33.4460   43.3010 C   0  0  0  0  0  0  0  0  0  0  0  0
   39.7080   32.3980   42.4410 N   0  0  0  0  0  0  0  0  0  0  0  0
   39.9640   31.1530   42.8570 C   0  0  0  0  0  0  0  0  0  0  0  0
   40.0040   30.9250   44.1770 N   0  0  0  0  0  0  0  0  0  0  0  0
   39.3620   33.9810   45.2850 H   0  0  0  0  0  0  0  0  0  0  0  0
   39.2830   34.4230   42.9180 H   0  0  0  0  0  0  0  0  0  0  0  0
   39.1230   29.3720   41.4460 C   0  0  0  0  0  0  0  0  0  0  0  0
   40.2090   29.9980   42.0000 C   0  0  0  0  0  0  0  0  0  0  0  0
   41.4810   29.5290   41.7360 C   0  0  0  0  0  0  0  0  0  0  0  0
   42.3300   30.0130   42.1650 H   0  0  0  0  0  0  0  0  0  0  0  0
   41.5870   28.4320   40.9100 C   0  0  0  0  0  0  0  0  0  0  0  0
   42.6000   28.1050   40.7360 H   0  0  0  0  0  0  0  0  0  0  0  0
   40.5370   27.7500   40.3150 C   0  0  0  0  0  3  0  0  0  0  0  0
   39.2920   28.2590   40.6120 C   0  0  0  0  0  3  0  0  0  0  0  0
   36.8190   28.7200   41.6590 N   0  0  0  0  0  0  0  0  0  0  0  0
   37.7180   29.6790   41.6050 C   0  0  0  0  0  0  0  0  0  0  0  0
   36.7580   30.7030   41.7660 N   0  0  0  0  0  0  0  0  0  0  0  0
   35.8220   28.9590   41.7840 H   0  0  0  0  0  0  0  0  0  0  0  0
   36.7320   31.2110   42.6970 H   0  0  0  0  0  0  0  0  0  0  0  0
   36.0350   31.0780   41.1210 H   0  0  0  0  0  0  0  0  0  0  0  0
   39.8620   31.5400   46.4740 C   0  0  0  0  0  0  0  0  0  0  0  0
   40.9310   31.6850   46.8120 H   0  0  0  0  0  0  0  0  0  0  0  0
   39.7040   30.4300   46.6160 H   0  0  0  0  0  0  0  0  0  0  0  0
   38.9760   32.2130   47.4260 C   0  0  0  0  0  0  0  0  0  0  0  0
   38.3060   32.9230   46.9030 H   0  0  0  0  0  0  0  0  0  0  0  0
   39.5410   32.8590   48.1600 H   0  0  0  0  0  0  0  0  0  0  0  0
   38.1580   31.3120   48.2730 C   0  0  0  0  0  0  0  0  0  0  0  0
   37.0600   30.6590   47.7340 C   0  0  0  0  0  0  0  0  0  0  0  0
   36.4880   29.8980   48.7270 C   0  0  0  0  0  0  0  0  0  0  0  0
   37.2310   30.0980   49.8270 N   0  0  0  0  0  0  0  0  0  0  0  0
   38.2040   30.9320   49.5320 N   0  0  0  0  0  0  0  0  0  0  0  0
   36.6280   30.6600   46.7350 H   0  0  0  0  0  0  0  0  0  0  0  0
   35.6180   29.2590   48.6650 H   0  0  0  0  0  0  0  0  0  0  0  0
   37.0320   29.5100   51.1570 C   0  0  0  0  0  0  0  0  0  0  0  0
   37.8210   28.4010   51.3090 F   0  0  0  0  0  0  0  0  0  0  0  0
   35.7080   29.1640   51.3740 F   0  0  0  0  0  0  0  0  0  0  0  0
   37.3970   30.4160   52.1400 F   0  0  0  0  0  0  0  0  0  0  0  0
  1 23  1  0  0  0  0
  2  1  1  0  0  0  0
  2  7  1  0  0  0  0
  3  2  2  0  0  0  0
  4  5  2  0  0  0  0
  4  3  1  0  0  0  0
  5  6  1  0  0  0  0
  6  1  2  0  0  0  0
  8  3  1  0  0  0  0
  9 18  1  0  0  0  0
  9 10  1  0  0  0  0
 10  5  1  0  0  0  0
 11 10  2  0  0  0  0
 11 12  1  0  0  0  0
 13 11  1  0  0  0  0
 14 13  1  0  0  0  0
 15 16  1  0  0  0  0
 15 13  2  0  0  0  0
 16  9  2  0  0  0  0
 17 20  1  0  0  0  0
 18 17  2  0  0  0  0
 18 19  1  0  0  0  0
 19 21  1  0  0  0  0
 22 19  1  0  0  0  0
 23 25  1  0  0  0  0
 23 24  1  0  0  0  0
 23 26  1  0  0  0  0
 26 28  1  0  0  0  0
 26 29  1  0  0  0  0
 27 26  1  0  0  0  0
 29 33  2  0  0  0  0
 30 29  1  0  0  0  0
 30 31  2  0  0  0  0
 31 32  1  0  0  0  0
 32 36  1  0  0  0  0
 33 32  1  0  0  0  0
 34 30  1  0  0  0  0
 35 31  1  0  0  0  0
 36 37  1  0  0  0  0
 36 38  1  0  0  0  0
 36 39  1  0  0  0  0
M  END
>  <minimizedAffinity>
-5.9220643

>  <minimizedRMSD>
1.4293704

$$$$
