
 OpenBabel03272509333D

 46 50  0  0  1  0  0  0  0  0999 V2000
   37.3960   31.4470   47.4730 C   0  0  1  0  0  0  0  0  0  0  0  0
   38.4770   32.4000   47.7500 C   0  0  0  0  0  0  0  0  0  0  0  0
   38.8400   31.1830   46.9750 C   0  0  2  0  0  0  0  0  0  0  0  0
   36.7240   31.5920   46.6490 H   0  0  0  0  0  0  0  0  0  0  0  0
   38.7890   32.4520   48.8370 H   0  0  0  0  0  0  0  0  0  0  0  0
   38.2440   33.3980   47.3540 H   0  0  0  0  0  0  0  0  0  0  0  0
   39.1190   30.1740   47.2270 H   0  0  0  0  0  0  0  0  0  0  0  0
   39.2010   31.5470   45.5770 C   0  0  0  0  0  0  0  0  0  0  0  0
   39.5770   32.8900   45.5100 C   0  0  0  0  0  0  0  0  0  0  0  0
   40.0350   33.4440   44.3340 C   0  0  0  0  0  0  0  0  0  0  0  0
   40.1370   32.6720   43.1790 C   0  0  0  0  0  0  0  0  0  0  0  0
   39.7620   31.3510   43.2700 C   0  0  0  0  0  0  0  0  0  0  0  0
   39.8000   30.4770   42.2030 C   0  0  0  0  0  0  0  0  0  0  0  0
   39.4160   29.1510   42.2830 C   0  0  0  0  0  0  0  0  0  0  0  0
   38.9640   28.6570   43.4960 C   0  0  0  0  0  0  0  0  0  0  0  0
   38.9210   29.5180   44.5680 C   0  0  0  0  0  0  0  0  0  0  0  0
   39.3120   30.8260   44.4430 C   0  0  0  0  0  0  0  0  0  0  0  0
   39.6470   33.7270   46.1760 H   0  0  0  0  0  0  0  0  0  0  0  0
   40.3620   34.4480   44.1070 H   0  0  0  0  0  0  0  0  0  0  0  0
   40.4730   32.9430   42.1780 H   0  0  0  0  0  0  0  0  0  0  0  0
   40.1510   30.8380   41.2360 H   0  0  0  0  0  0  0  0  0  0  0  0
   39.4750   28.5250   41.3960 H   0  0  0  0  0  0  0  0  0  0  0  0
   38.6560   27.6450   43.6130 H   0  0  0  0  0  0  0  0  0  0  0  0
   38.5590   29.1070   45.5270 H   0  0  0  0  0  0  0  0  0  0  0  0
   35.6280   28.6480   49.2190 C   0  0  0  0  0  0  0  0  0  0  0  0
   36.0720   29.5190   48.2010 C   0  0  0  0  0  0  0  0  0  0  0  0
   36.9780   30.5210   48.5520 C   0  0  0  0  0  0  0  0  0  0  0  0
   37.3980   30.6180   49.8480 N   0  0  0  0  0  0  0  0  0  0  0  0
   36.9570   29.7730   50.7980 C   0  0  0  0  0  0  0  0  0  0  0  0
   36.0580   28.7740   50.4760 N   0  0  0  0  0  0  0  0  0  0  0  0
   34.9260   27.8800   48.9250 H   0  0  0  0  0  0  0  0  0  0  0  0
   35.7070   29.3930   47.1920 H   0  0  0  0  0  0  0  0  0  0  0  0
   38.1670   28.8260   52.8120 C   0  0  0  0  0  0  0  0  0  0  0  0
   37.3460   29.7220   52.1920 C   0  0  0  0  0  0  0  0  0  0  0  0
   36.8510   30.6530   53.1110 C   0  0  0  0  0  0  0  0  0  0  0  0
   36.1680   31.4500   52.7720 H   0  0  0  0  0  0  0  0  0  0  0  0
   37.1370   30.6780   54.4380 C   0  0  0  0  0  0  0  0  0  0  0  0
   36.7200   31.4260   55.0920 H   0  0  0  0  0  0  0  0  0  0  0  0
   37.9670   29.7500   54.9840 C   0  0  0  0  0  3  0  0  0  0  0  0
   38.4950   28.8000   54.1480 C   0  0  0  0  0  3  0  0  0  0  0  0
   39.3920   26.7730   52.6990 N   0  0  0  0  0  0  0  0  0  0  0  0
   38.7610   27.7430   52.0620 C   0  0  0  0  0  0  0  0  0  0  0  0
   39.0580   27.1020   50.8520 N   0  0  0  0  0  0  0  0  0  0  0  0
   39.8070   26.0130   52.1180 H   0  0  0  0  0  0  0  0  0  0  0  0
   39.9110   27.2900   50.2450 H   0  0  0  0  0  0  0  0  0  0  0  0
   38.4760   26.3530   50.3740 H   0  0  0  0  0  0  0  0  0  0  0  0
  1  4  1  6  0  0  0
  1  2  1  0  0  0  0
  1 27  1  0  0  0  0
  2  5  1  0  0  0  0
  3  7  1  1  0  0  0
  3  1  1  0  0  0  0
  3  2  1  0  0  0  0
  6  2  1  0  0  0  0
  8  3  1  0  0  0  0
  9  8  1  0  0  0  0
  9 18  1  0  0  0  0
 10  9  2  0  0  0  0
 11 12  2  0  0  0  0
 11 10  1  0  0  0  0
 12 17  1  0  0  0  0
 13 14  2  0  0  0  0
 13 12  1  0  0  0  0
 14 15  1  0  0  0  0
 15 23  1  0  0  0  0
 15 16  2  0  0  0  0
 16 24  1  0  0  0  0
 17 16  1  0  0  0  0
 17  8  2  0  0  0  0
 19 10  1  0  0  0  0
 20 11  1  0  0  0  0
 21 13  1  0  0  0  0
 22 14  1  0  0  0  0
 25 30  1  0  0  0  0
 26 27  1  0  0  0  0
 26 25  2  0  0  0  0
 27 28  2  0  0  0  0
 28 29  1  0  0  0  0
 29 34  1  0  0  0  0
 30 29  2  0  0  0  0
 31 25  1  0  0  0  0
 32 26  1  0  0  0  0
 33 40  1  0  0  0  0
 34 33  2  0  0  0  0
 34 35  1  0  0  0  0
 35 37  2  0  0  0  0
 36 35  1  0  0  0  0
 37 39  1  0  0  0  0
 37 38  1  0  0  0  0
 40 39  2  0  0  0  0
 42 41  2  0  0  0  0
 42 33  1  0  0  0  0
 43 42  1  0  0  0  0
 44 41  1  0  0  0  0
 45 43  1  0  0  0  0
 46 43  1  0  0  0  0
M  END
>  <minimizedAffinity>
4.35507393

>  <minimizedRMSD>
1.27506566

$$$$
