
 OpenBabel03262523133D

 34 36  0  0  0  0  0  0  0  0999 V2000
   34.9400   29.4910   48.4230 C   0  0  0  0  0  0  0  0  0  0  0  0
   34.4500   28.2980   48.9240 C   0  0  0  0  0  0  0  0  0  0  0  0
   33.3640   27.8130   48.2460 C   0  0  0  0  0  0  0  0  0  0  0  0
   32.8040   28.4610   47.1540 C   0  0  0  0  0  0  0  0  0  0  0  0
   33.3560   29.6480   46.7210 C   0  0  0  0  0  0  0  0  0  0  0  0
   34.4230   30.1470   47.3690 N   0  0  0  0  0  0  0  0  0  0  0  0
   34.9210   27.8410   49.7680 H   0  0  0  0  0  0  0  0  0  0  0  0
   32.9990   26.8580   48.6710 H   0  0  0  0  0  0  0  0  0  0  0  0
   31.9750   27.9020   46.7920 H   0  0  0  0  0  0  0  0  0  0  0  0
   37.6010   30.2030   50.8680 C   0  0  0  0  0  0  0  0  0  0  0  0
   38.2930   31.2500   50.2520 C   0  0  0  0  0  0  0  0  0  0  0  0
   37.8470   31.7000   49.0170 C   0  0  0  0  0  0  0  0  0  0  0  0
   36.7620   31.0940   48.4850 N   0  0  0  0  0  0  0  0  0  0  0  0
   36.1030   30.0990   49.0670 C   0  0  0  0  0  0  0  0  0  0  0  0
   36.5510   29.6680   50.2750 N   0  0  0  0  0  0  0  0  0  0  0  0
   39.1490   31.6640   50.7670 H   0  0  0  0  0  0  0  0  0  0  0  0
   38.3790   32.5150   48.5300 H   0  0  0  0  0  0  0  0  0  0  0  0
   37.9730   29.6570   52.1400 N   0  0  0  0  0  0  0  0  0  0  0  0
   37.5840   29.7900   53.0950 H   0  0  0  0  0  0  0  0  0  0  0  0
   38.7750   29.0690   51.8200 H   0  0  0  0  0  0  0  0  0  0  0  0
   33.3510   30.5690   44.3960 C   0  0  0  0  0  0  0  0  0  0  0  0
   32.7170   30.2750   45.5780 C   0  0  0  0  0  0  0  0  0  0  0  0
   31.3930   30.6390   45.5760 C   0  0  0  0  0  0  0  0  0  0  0  0
   30.7430   30.4850   46.4150 H   0  0  0  0  0  0  0  0  0  0  0  0
   30.7620   31.2350   44.5080 C   0  0  0  0  0  0  0  0  0  0  0  0
   29.7250   31.5150   44.5220 H   0  0  0  0  0  0  0  0  0  0  0  0
   31.4480   31.5050   43.3470 C   0  0  0  0  0  3  0  0  0  0  0  0
   32.7770   31.1600   43.3000 C   0  0  0  0  0  3  0  0  0  0  0  0
   35.9830   30.4210   44.4850 N   0  0  0  0  0  0  0  0  0  0  0  0
   34.7560   30.2830   44.2130 C   0  0  0  0  0  0  0  0  0  0  0  0
   35.2030   29.3390   43.2170 N   0  0  0  0  0  0  0  0  0  0  0  0
   36.6610   29.8600   43.9310 H   0  0  0  0  0  0  0  0  0  0  0  0
   35.5970   28.4620   42.8300 H   0  0  0  0  0  0  0  0  0  0  0  0
   35.1490   29.5470   42.1910 H   0  0  0  0  0  0  0  0  0  0  0  0
  1  2  1  0  0  0  0
  1 14  1  0  0  0  0
  2  7  1  0  0  0  0
  3  8  1  0  0  0  0
  3  2  2  0  0  0  0
  4  3  1  0  0  0  0
  5  4  2  0  0  0  0
  5  6  1  0  0  0  0
  6  1  2  0  0  0  0
  9  4  1  0  0  0  0
 10 18  1  0  0  0  0
 11 16  1  0  0  0  0
 11 10  2  0  0  0  0
 12 11  1  0  0  0  0
 13 12  2  0  0  0  0
 13 14  1  0  0  0  0
 14 15  2  0  0  0  0
 15 10  1  0  0  0  0
 17 12  1  0  0  0  0
 18 19  1  0  0  0  0
 20 18  1  0  0  0  0
 21 22  1  0  0  0  0
 22  5  1  0  0  0  0
 23 22  2  0  0  0  0
 23 24  1  0  0  0  0
 25 26  1  0  0  0  0
 25 23  1  0  0  0  0
 27 25  2  0  0  0  0
 28 27  1  0  0  0  0
 28 21  2  0  0  0  0
 30 21  1  0  0  0  0
 30 29  2  0  0  0  0
 31 30  1  0  0  0  0
 32 29  1  0  0  0  0
 33 31  1  0  0  0  0
 34 31  1  0  0  0  0
M  END
>  <minimizedAffinity>
-5.38907623

>  <minimizedRMSD>
0.767299294

$$$$
