
 OpenBabel03262523133D

 34 36  0  0  0  0  0  0  0  0999 V2000
   34.9430   29.3880   48.3620 C   0  0  0  0  0  0  0  0  0  0  0  0
   34.5640   28.1360   48.8130 C   0  0  0  0  0  0  0  0  0  0  0  0
   33.4830   27.6110   48.1570 C   0  0  0  0  0  0  0  0  0  0  0  0
   32.8260   28.2750   47.1310 C   0  0  0  0  0  0  0  0  0  0  0  0
   33.2700   29.5220   46.7440 C   0  0  0  0  0  0  0  0  0  0  0  0
   34.3300   30.0620   47.3710 N   0  0  0  0  0  0  0  0  0  0  0  0
   35.1060   27.6690   49.6070 H   0  0  0  0  0  0  0  0  0  0  0  0
   33.2080   26.6100   48.5420 H   0  0  0  0  0  0  0  0  0  0  0  0
   32.0210   27.6780   46.7740 H   0  0  0  0  0  0  0  0  0  0  0  0
   37.5900   30.2300   50.7800 C   0  0  0  0  0  0  0  0  0  0  0  0
   38.2500   31.2820   50.1370 C   0  0  0  0  0  0  0  0  0  0  0  0
   37.7870   31.6910   48.8950 C   0  0  0  0  0  0  0  0  0  0  0  0
   36.7190   31.0420   48.3800 N   0  0  0  0  0  0  0  0  0  0  0  0
   36.0890   30.0430   48.9870 C   0  0  0  0  0  0  0  0  0  0  0  0
   36.5540   29.6530   50.2030 N   0  0  0  0  0  0  0  0  0  0  0  0
   39.0950   31.7320   50.6400 H   0  0  0  0  0  0  0  0  0  0  0  0
   38.2950   32.5090   48.3860 H   0  0  0  0  0  0  0  0  0  0  0  0
   37.9800   29.7250   52.0630 N   0  0  0  0  0  0  0  0  0  0  0  0
   37.5900   29.8690   53.0160 H   0  0  0  0  0  0  0  0  0  0  0  0
   38.7970   29.1530   51.7540 H   0  0  0  0  0  0  0  0  0  0  0  0
   33.0990   30.6360   44.5100 C   0  0  0  0  0  0  0  0  0  0  0  0
   32.5330   30.1630   45.6700 C   0  0  0  0  0  0  0  0  0  0  0  0
   31.1750   30.3580   45.7160 C   0  0  0  0  0  0  0  0  0  0  0  0
   30.5680   30.0500   46.5460 H   0  0  0  0  0  0  0  0  0  0  0  0
   30.4520   30.9610   44.7140 C   0  0  0  0  0  0  0  0  0  0  0  0
   29.3880   31.1080   44.7650 H   0  0  0  0  0  0  0  0  0  0  0  0
   31.0710   31.4160   43.5740 C   0  0  0  0  0  3  0  0  0  0  0  0
   32.4320   31.2440   43.4790 C   0  0  0  0  0  3  0  0  0  0  0  0
   35.7250   30.8820   44.4900 N   0  0  0  0  0  0  0  0  0  0  0  0
   34.5240   30.5440   44.2870 C   0  0  0  0  0  0  0  0  0  0  0  0
   35.0720   29.5950   43.3470 N   0  0  0  0  0  0  0  0  0  0  0  0
   36.4600   30.3800   43.9520 H   0  0  0  0  0  0  0  0  0  0  0  0
   35.5800   28.7550   43.0130 H   0  0  0  0  0  0  0  0  0  0  0  0
   34.9530   29.7050   42.3110 H   0  0  0  0  0  0  0  0  0  0  0  0
  1  2  1  0  0  0  0
  1 14  1  0  0  0  0
  2  7  1  0  0  0  0
  3  8  1  0  0  0  0
  3  2  2  0  0  0  0
  4  3  1  0  0  0  0
  5  4  2  0  0  0  0
  5  6  1  0  0  0  0
  6  1  2  0  0  0  0
  9  4  1  0  0  0  0
 10 18  1  0  0  0  0
 11 16  1  0  0  0  0
 11 10  2  0  0  0  0
 12 11  1  0  0  0  0
 13 12  2  0  0  0  0
 13 14  1  0  0  0  0
 14 15  2  0  0  0  0
 15 10  1  0  0  0  0
 17 12  1  0  0  0  0
 18 19  1  0  0  0  0
 20 18  1  0  0  0  0
 21 22  1  0  0  0  0
 22 23  2  0  0  0  0
 22  5  1  0  0  0  0
 23 24  1  0  0  0  0
 25 26  1  0  0  0  0
 25 23  1  0  0  0  0
 27 25  2  0  0  0  0
 28 27  1  0  0  0  0
 28 21  2  0  0  0  0
 30 29  2  0  0  0  0
 30 21  1  0  0  0  0
 31 30  1  0  0  0  0
 32 29  1  0  0  0  0
 33 31  1  0  0  0  0
 34 31  1  0  0  0  0
M  END
>  <minimizedAffinity>
-5.56033659

>  <minimizedRMSD>
0.309598535

$$$$
