
 OpenBabel03272505123D

 44 47  0  0  0  0  0  0  0  0999 V2000
   33.5780   29.0210   44.3000 Cl  0  0  0  0  0  0  0  0  0  0  0  0
   33.6850   27.7730   45.5280 C   0  0  0  0  0  0  0  0  0  0  0  0
   33.8660   27.9880   46.8870 C   0  0  0  0  0  0  0  0  0  0  0  0
   33.9320   26.9230   47.7400 C   0  0  0  0  0  0  0  0  0  0  0  0
   33.8240   25.6500   47.2780 C   0  0  0  0  0  0  0  0  0  0  0  0
   33.6410   25.3700   45.9280 C   0  0  0  0  0  0  0  0  0  0  0  0
   33.5760   26.4540   45.0770 C   0  0  0  0  0  0  0  0  0  0  0  0
   34.0750   27.2060   48.7760 H   0  0  0  0  0  0  0  0  0  0  0  0
   33.8820   24.8280   47.9960 H   0  0  0  0  0  0  0  0  0  0  0  0
   33.5600   24.3520   45.5970 H   0  0  0  0  0  0  0  0  0  0  0  0
   34.3720   25.8990   42.7330 C   0  0  0  0  0  0  0  0  0  0  0  0
   33.3830   26.1040   43.6700 C   0  0  0  0  0  0  0  0  0  0  0  0
   32.0530   25.9770   43.2910 C   0  0  0  0  0  0  0  0  0  0  0  0
   31.1570   26.1040   43.9030 H   0  0  0  0  0  0  0  0  0  0  0  0
   31.7380   25.6470   41.9830 C   0  0  0  0  0  0  0  0  0  0  0  0
   30.7170   25.5270   41.6040 H   0  0  0  0  0  0  0  0  0  0  0  0
   32.7110   25.4360   41.0270 C   0  0  0  0  0  3  0  0  0  0  0  0
   34.0220   25.5690   41.4320 C   0  0  0  0  0  3  0  0  0  0  0  0
   36.3490   25.0260   43.6910 N   0  0  0  0  0  0  0  0  0  0  0  0
   35.7390   26.0470   43.1920 C   0  0  0  0  0  0  0  0  0  0  0  0
   36.3150   27.3480   43.0520 N   0  0  0  0  0  0  0  0  0  0  0  0
   37.3410   25.1830   44.0110 H   0  0  0  0  0  0  0  0  0  0  0  0
   36.5390   27.3360   42.0190 H   0  0  0  0  0  0  0  0  0  0  0  0
   36.6310   28.2850   43.3910 H   0  0  0  0  0  0  0  0  0  0  0  0
   33.9900   29.7170   47.3360 S   0  0  0  0  0  0  0  0  0  0  0  0
   36.3360   30.7940   45.6000 Cl  0  0  0  0  0  0  0  0  0  0  0  0
   36.6120   30.5840   47.2980 C   0  0  0  0  0  0  0  0  0  0  0  0
   37.8590   30.9050   47.7900 C   0  0  0  0  0  0  0  0  0  0  0  0
   38.0830   30.7380   49.1490 C   0  0  0  0  0  0  0  0  0  0  0  0
   37.0900   30.2700   49.9510 C   0  0  0  0  0  0  0  0  0  0  0  0
   35.8470   29.9610   49.3950 C   0  0  0  0  0  0  0  0  0  0  0  0
   35.5570   30.1010   48.0670 C   0  0  0  0  0  0  0  0  0  0  0  0
   39.0630   30.9900   49.5350 H   0  0  0  0  0  0  0  0  0  0  0  0
   37.2900   30.1470   51.0100 H   0  0  0  0  0  0  0  0  0  0  0  0
   35.0720   29.5890   50.0590 H   0  0  0  0  0  0  0  0  0  0  0  0
   40.1240   33.2380   46.1440 C   0  0  0  0  0  0  0  0  0  0  0  0
   40.8330   32.4410   45.2240 C   0  0  0  0  0  0  0  0  0  0  0  0
   40.5130   31.0740   45.1840 C   0  0  0  0  0  0  0  0  0  0  0  0
   39.5480   30.5970   46.0210 N   0  0  0  0  0  0  0  0  0  0  0  0
   38.9040   31.4100   46.8790 C   0  0  0  0  0  0  0  0  0  0  0  0
   39.1900   32.7110   46.9370 N   0  0  0  0  0  0  0  0  0  0  0  0
   40.3320   34.3010   46.2160 H   0  0  0  0  0  0  0  0  0  0  0  0
   41.5920   32.8850   44.5840 H   0  0  0  0  0  0  0  0  0  0  0  0
   41.0290   30.4300   44.4990 H   0  0  0  0  0  0  0  0  0  0  0  0
  1  2  1  0  0  0  0
  2  3  1  0  0  0  0
  3 25  1  0  0  0  0
  3  4  2  0  0  0  0
  4  8  1  0  0  0  0
  5  4  1  0  0  0  0
  5  9  1  0  0  0  0
  6  5  2  0  0  0  0
  7  2  2  0  0  0  0
  7  6  1  0  0  0  0
 10  6  1  0  0  0  0
 11 20  1  0  0  0  0
 11 12  1  0  0  0  0
 12  7  1  0  0  0  0
 13 12  2  0  0  0  0
 13 14  1  0  0  0  0
 15 13  1  0  0  0  0
 16 15  1  0  0  0  0
 17 18  1  0  0  0  0
 17 15  2  0  0  0  0
 18 11  2  0  0  0  0
 19 22  1  0  0  0  0
 20 19  2  0  0  0  0
 21 20  1  0  0  0  0
 21 24  1  0  0  0  0
 23 21  1  0  0  0  0
 25 32  1  0  0  0  0
 26 27  1  0  0  0  0
 27 28  2  0  0  0  0
 27 32  1  0  0  0  0
 28 29  1  0  0  0  0
 29 33  1  0  0  0  0
 29 30  2  0  0  0  0
 30 34  1  0  0  0  0
 31 30  1  0  0  0  0
 31 35  1  0  0  0  0
 32 31  2  0  0  0  0
 36 42  1  0  0  0  0
 36 41  1  0  0  0  0
 37 36  2  0  0  0  0
 38 37  1  0  0  0  0
 38 39  2  0  0  0  0
 39 40  1  0  0  0  0
 40 41  2  0  0  0  0
 40 28  1  0  0  0  0
 43 37  1  0  0  0  0
 44 38  1  0  0  0  0
M  END
>  <minimizedAffinity>
-5.4919858

>  <minimizedRMSD>
1.00582385

$$$$
