
 OpenBabel03272503233D

 35 37  0  0  1  0  0  0  0  0999 V2000
   36.5220   29.5790   49.2570 N   0  0  0  0  0  0  0  0  0  0  0  0
   37.7890   30.0430   48.8960 C   0  0  2  0  0  0  0  0  0  0  0  0
   38.3460   30.6350   50.1850 C   0  0  0  0  0  0  0  0  0  0  0  0
   37.2500   30.5060   51.1980 C   0  0  0  0  0  0  0  0  0  0  0  0
   36.5910   29.2540   50.6970 C   0  0  0  0  0  0  0  0  0  0  0  0
   38.4050   29.0380   48.8490 H   0  0  0  0  0  0  0  0  0  0  0  0
   39.2180   30.0820   50.5830 H   0  0  0  0  0  0  0  0  0  0  0  0
   38.7100   31.6660   50.0510 H   0  0  0  0  0  0  0  0  0  0  0  0
   37.6650   30.2940   52.2270 H   0  0  0  0  0  0  0  0  0  0  0  0
   36.5500   31.3490   51.2660 H   0  0  0  0  0  0  0  0  0  0  0  0
   37.3080   28.4180   50.8400 H   0  0  0  0  0  0  0  0  0  0  0  0
   35.6080   29.0650   51.1180 H   0  0  0  0  0  0  0  0  0  0  0  0
   35.3490   29.3520   48.5150 C   0  0  0  0  0  0  0  0  0  0  0  0
   34.9200   30.4170   47.7490 C   0  0  0  0  0  0  0  0  0  0  0  0
   33.7980   30.3310   46.9340 C   0  0  0  0  0  0  0  0  0  0  0  0
   33.1570   29.1190   46.9500 N   0  0  0  0  0  0  0  0  0  0  0  0
   33.5820   28.0910   47.6970 C   0  0  0  0  0  0  0  0  0  0  0  0
   34.6870   28.2030   48.4890 N   0  0  0  0  0  0  0  0  0  0  0  0
   35.2570   31.4130   47.5830 H   0  0  0  0  0  0  0  0  0  0  0  0
   33.3270   31.0350   46.2860 H   0  0  0  0  0  0  0  0  0  0  0  0
   33.0370   27.1440   47.6760 H   0  0  0  0  0  0  0  0  0  0  0  0
   38.3710   32.1140   47.5350 C   0  0  0  0  0  0  0  0  0  0  0  0
   38.1710   30.7380   47.7220 C   0  0  0  0  0  0  0  0  0  0  0  0
   38.4220   30.0720   46.5090 C   0  0  0  0  0  0  0  0  0  0  0  0
   38.3080   28.9780   46.4890 H   0  0  0  0  0  0  0  0  0  0  0  0
   38.7960   30.6450   45.3410 C   0  0  0  0  0  0  0  0  0  0  0  0
   38.9670   30.0540   44.4560 H   0  0  0  0  0  0  0  0  0  0  0  0
   38.9620   32.0050   45.2790 C   0  0  0  0  0  3  0  0  0  0  0  0
   38.7500   32.7620   46.3830 C   0  0  0  0  0  3  0  0  0  0  0  0
   37.4940   33.4480   49.6470 N   0  0  0  0  0  0  0  0  0  0  0  0
   38.1400   32.9840   48.6670 C   0  0  0  0  0  0  0  0  0  0  0  0
   39.1440   33.9590   49.0300 N   0  0  0  0  0  0  0  0  0  0  0  0
   37.9430   34.2270   50.1900 H   0  0  0  0  0  0  0  0  0  0  0  0
   39.3200   34.8050   48.4110 H   0  0  0  0  0  0  0  0  0  0  0  0
   39.9000   34.4030   49.5980 H   0  0  0  0  0  0  0  0  0  0  0  0
  1  5  1  0  0  0  0
  2  6  1  6  0  0  0
  2  1  1  0  0  0  0
  2  3  1  0  0  0  0
  3  7  1  0  0  0  0
  3  4  1  0  0  0  0
  4 10  1  0  0  0  0
  4  9  1  0  0  0  0
  5 11  1  0  0  0  0
  5 12  1  0  0  0  0
  5  4  1  0  0  0  0
  8  3  1  0  0  0  0
 13  1  1  0  0  0  0
 14 13  2  0  0  0  0
 15 16  2  0  0  0  0
 15 14  1  0  0  0  0
 16 17  1  0  0  0  0
 17 18  2  0  0  0  0
 18 13  1  0  0  0  0
 19 14  1  0  0  0  0
 20 15  1  0  0  0  0
 21 17  1  0  0  0  0
 22 23  1  0  0  0  0
 22 31  1  0  0  0  0
 23  2  1  0  0  0  0
 24 23  2  0  0  0  0
 25 24  1  0  0  0  0
 26 24  1  0  0  0  0
 27 26  1  0  0  0  0
 28 26  2  0  0  0  0
 28 29  1  0  0  0  0
 29 22  2  0  0  0  0
 30 33  1  0  0  0  0
 31 32  1  0  0  0  0
 31 30  2  0  0  0  0
 32 35  1  0  0  0  0
 34 32  1  0  0  0  0
M  END
>  <minimizedAffinity>
-5.67952251

>  <minimizedRMSD>
1.09402609

$$$$
