
 OpenBabel03272506073D

 35 37  0  0  0  0  0  0  0  0999 V2000
   33.6150   27.6580   48.2720 C   0  0  0  0  0  0  0  0  0  0  0  0
   33.8260   26.4320   47.5410 C   0  0  0  0  0  0  0  0  0  0  0  0
   32.4470   26.4630   46.4410 S   0  0  0  0  0  0  0  0  0  0  0  0
   31.7690   28.0860   47.0820 C   0  0  0  0  0  0  0  0  0  0  0  0
   32.5660   28.3530   47.9280 N   0  0  0  0  0  0  0  0  0  0  0  0
   34.6380   25.7310   47.6880 H   0  0  0  0  0  0  0  0  0  0  0  0
   30.5720   29.8050   45.8290 C   0  0  0  0  0  0  0  0  0  0  0  0
   30.5370   28.5970   46.4560 C   0  0  0  0  0  0  0  0  0  0  0  0
   29.3390   27.9210   46.4670 C   0  0  0  0  0  0  0  0  0  0  0  0
   29.2840   26.9600   46.9590 H   0  0  0  0  0  0  0  0  0  0  0  0
   28.2520   28.4690   45.8660 C   0  0  0  0  0  0  0  0  0  0  0  0
   27.3400   27.8930   45.9070 H   0  0  0  0  0  0  0  0  0  0  0  0
   28.3050   29.6880   45.2380 C   0  0  0  0  0  3  0  0  0  0  0  0
   29.4890   30.3880   45.2100 C   0  0  0  0  0  3  0  0  0  0  0  0
   32.7050   31.2310   46.3760 N   0  0  0  0  0  0  0  0  0  0  0  0
   31.7960   30.5500   45.7810 C   0  0  0  0  0  0  0  0  0  0  0  0
   32.5030   30.7330   44.5360 N   0  0  0  0  0  0  0  0  0  0  0  0
   33.5080   31.6150   45.8320 H   0  0  0  0  0  0  0  0  0  0  0  0
   32.6880   31.4660   43.7890 H   0  0  0  0  0  0  0  0  0  0  0  0
   33.0510   29.9010   44.1720 H   0  0  0  0  0  0  0  0  0  0  0  0
   34.5950   28.0310   49.3430 C   0  0  0  0  0  0  0  0  0  0  0  0
   34.4650   27.3740   50.2280 H   0  0  0  0  0  0  0  0  0  0  0  0
   35.6410   27.8070   48.9780 H   0  0  0  0  0  0  0  0  0  0  0  0
   34.4570   29.4490   49.7650 C   0  0  0  0  0  0  0  0  0  0  0  0
   33.8070   30.0100   49.0900 H   0  0  0  0  0  0  0  0  0  0  0  0
   33.9850   29.5300   50.7830 H   0  0  0  0  0  0  0  0  0  0  0  0
   37.8290   30.5970   50.7860 C   0  0  0  0  0  0  0  0  0  0  0  0
   38.2440   31.3760   49.7080 C   0  0  0  0  0  0  0  0  0  0  0  0
   37.3540   31.5040   48.6280 C   0  0  0  0  0  0  0  0  0  0  0  0
   36.1570   30.8650   48.7030 N   0  0  0  0  0  0  0  0  0  0  0  0
   35.8130   30.1190   49.7840 C   0  0  0  0  0  0  0  0  0  0  0  0
   36.6400   29.9810   50.8240 N   0  0  0  0  0  0  0  0  0  0  0  0
   38.4640   30.4620   51.6380 H   0  0  0  0  0  0  0  0  0  0  0  0
   39.2120   31.8420   49.7450 H   0  0  0  0  0  0  0  0  0  0  0  0
   37.6480   32.0980   47.7860 H   0  0  0  0  0  0  0  0  0  0  0  0
  1 21  1  0  0  0  0
  2  6  1  0  0  0  0
  2  1  2  0  0  0  0
  3  4  1  0  0  0  0
  3  2  1  0  0  0  0
  4  5  2  0  0  0  0
  5  1  1  0  0  0  0
  7  8  1  0  0  0  0
  8  9  2  0  0  0  0
  8  4  1  0  0  0  0
  9 10  1  0  0  0  0
 11 12  1  0  0  0  0
 11  9  1  0  0  0  0
 13 11  2  0  0  0  0
 14 13  1  0  0  0  0
 14  7  2  0  0  0  0
 16  7  1  0  0  0  0
 16 15  2  0  0  0  0
 17 16  1  0  0  0  0
 18 15  1  0  0  0  0
 19 17  1  0  0  0  0
 20 17  1  0  0  0  0
 21 24  1  0  0  0  0
 21 22  1  0  0  0  0
 23 21  1  0  0  0  0
 24 31  1  0  0  0  0
 24 26  1  0  0  0  0
 25 24  1  0  0  0  0
 27 32  1  0  0  0  0
 27 33  1  0  0  0  0
 28 34  1  0  0  0  0
 28 27  2  0  0  0  0
 29 30  2  0  0  0  0
 29 28  1  0  0  0  0
 30 31  1  0  0  0  0
 31 32  2  0  0  0  0
 35 29  1  0  0  0  0
M  END
>  <minimizedAffinity>
-5.07934856

>  <minimizedRMSD>
3.16497803

$$$$
