
 OpenBabel03262523133D

 34 36  0  0  0  0  0  0  0  0999 V2000
   34.6310   28.9730   48.3550 C   0  0  0  0  0  0  0  0  0  0  0  0
   34.5970   27.6160   48.6200 C   0  0  0  0  0  0  0  0  0  0  0  0
   33.5640   26.9550   48.0130 C   0  0  0  0  0  0  0  0  0  0  0  0
   32.6320   27.5900   47.2030 C   0  0  0  0  0  0  0  0  0  0  0  0
   32.7410   28.9490   46.9920 C   0  0  0  0  0  0  0  0  0  0  0  0
   33.7460   29.6230   47.5770 N   0  0  0  0  0  0  0  0  0  0  0  0
   35.3400   27.1770   49.2510 H   0  0  0  0  0  0  0  0  0  0  0  0
   33.5670   25.8720   48.2450 H   0  0  0  0  0  0  0  0  0  0  0  0
   31.9260   26.8810   46.8440 H   0  0  0  0  0  0  0  0  0  0  0  0
   37.1860   30.1910   50.7120 C   0  0  0  0  0  0  0  0  0  0  0  0
   37.7040   31.3000   50.0360 C   0  0  0  0  0  0  0  0  0  0  0  0
   37.1790   31.6190   48.7920 C   0  0  0  0  0  0  0  0  0  0  0  0
   36.1920   30.8320   48.3090 N   0  0  0  0  0  0  0  0  0  0  0  0
   35.6970   29.7780   48.9480 C   0  0  0  0  0  0  0  0  0  0  0  0
   36.2210   29.4780   50.1640 N   0  0  0  0  0  0  0  0  0  0  0  0
   38.4930   31.8610   50.5160 H   0  0  0  0  0  0  0  0  0  0  0  0
   37.5760   32.4810   48.2580 H   0  0  0  0  0  0  0  0  0  0  0  0
   37.6510   29.7680   52.0000 N   0  0  0  0  0  0  0  0  0  0  0  0
   37.2590   29.8870   52.9560 H   0  0  0  0  0  0  0  0  0  0  0  0
   38.5280   29.2930   51.6910 H   0  0  0  0  0  0  0  0  0  0  0  0
   30.3770   29.3540   46.2820 C   0  0  0  0  0  0  0  0  0  0  0  0
   31.7300   29.5500   46.1410 C   0  0  0  0  0  0  0  0  0  0  0  0
   32.0390   30.3850   45.0960 C   0  0  0  0  0  0  0  0  0  0  0  0
   33.0470   30.6500   44.8390 H   0  0  0  0  0  0  0  0  0  0  0  0
   31.1020   30.9650   44.2740 C   0  0  0  0  0  0  0  0  0  0  0  0
   31.3610   31.6170   43.4590 H   0  0  0  0  0  0  0  0  0  0  0  0
   29.7600   30.7350   44.4630 C   0  0  0  0  0  3  0  0  0  0  0  0
   29.3970   29.9040   45.4970 C   0  0  0  0  0  3  0  0  0  0  0  0
   29.5240   27.3600   47.7840 N   0  0  0  0  0  0  0  0  0  0  0  0
   29.8530   28.4860   47.3130 C   0  0  0  0  0  0  0  0  0  0  0  0
   29.4140   29.0140   48.5820 N   0  0  0  0  0  0  0  0  0  0  0  0
   29.1360   27.3400   48.7470 H   0  0  0  0  0  0  0  0  0  0  0  0
   29.4250   29.2070   49.6000 H   0  0  0  0  0  0  0  0  0  0  0  0
   28.5410   29.5890   48.6730 H   0  0  0  0  0  0  0  0  0  0  0  0
  1  2  1  0  0  0  0
  1 14  1  0  0  0  0
  2  7  1  0  0  0  0
  3  8  1  0  0  0  0
  3  2  2  0  0  0  0
  4  3  1  0  0  0  0
  5  4  2  0  0  0  0
  5  6  1  0  0  0  0
  6  1  2  0  0  0  0
  9  4  1  0  0  0  0
 10 18  1  0  0  0  0
 11 16  1  0  0  0  0
 11 10  2  0  0  0  0
 12 11  1  0  0  0  0
 13 12  2  0  0  0  0
 13 14  1  0  0  0  0
 14 15  2  0  0  0  0
 15 10  1  0  0  0  0
 17 12  1  0  0  0  0
 18 19  1  0  0  0  0
 20 18  1  0  0  0  0
 21 30  1  0  0  0  0
 22 21  1  0  0  0  0
 22  5  1  0  0  0  0
 23 22  2  0  0  0  0
 24 23  1  0  0  0  0
 25 27  2  0  0  0  0
 25 23  1  0  0  0  0
 26 25  1  0  0  0  0
 27 28  1  0  0  0  0
 28 21  2  0  0  0  0
 29 32  1  0  0  0  0
 30 29  2  0  0  0  0
 30 31  1  0  0  0  0
 31 34  1  0  0  0  0
 31 33  1  0  0  0  0
M  END
>  <minimizedAffinity>
-5.47792625

>  <minimizedRMSD>
1.00739431

$$$$
