
 OpenBabel03272506063D

 35 37  0  0  0  0  0  0  0  0999 V2000
   33.6930   28.5550   48.2840 C   0  0  0  0  0  0  0  0  0  0  0  0
   33.7530   29.5810   47.2710 C   0  0  0  0  0  0  0  0  0  0  0  0
   32.2410   29.2800   46.4090 S   0  0  0  0  0  0  0  0  0  0  0  0
   31.7240   27.8440   47.4940 C   0  0  0  0  0  0  0  0  0  0  0  0
   32.6380   27.7890   48.2590 N   0  0  0  0  0  0  0  0  0  0  0  0
   34.5460   30.3040   47.1370 H   0  0  0  0  0  0  0  0  0  0  0  0
   29.4820   27.1280   48.1410 C   0  0  0  0  0  0  0  0  0  0  0  0
   30.4430   27.1880   47.1790 C   0  0  0  0  0  0  0  0  0  0  0  0
   30.1560   26.6220   45.9580 C   0  0  0  0  0  0  0  0  0  0  0  0
   30.9030   26.6570   45.1760 H   0  0  0  0  0  0  0  0  0  0  0  0
   28.9480   26.0360   45.7560 C   0  0  0  0  0  0  0  0  0  0  0  0
   28.7810   25.6100   44.7780 H   0  0  0  0  0  0  0  0  0  0  0  0
   27.9910   25.9850   46.7350 C   0  0  0  0  0  0  0  0  0  0  0  0
   28.2480   26.5410   47.9680 C   0  0  0  0  0  0  0  0  0  0  0  0
   30.2230   28.6440   50.1510 N   0  0  0  0  0  0  0  0  0  0  0  0
   29.7240   27.7060   49.4300 C   0  0  0  0  0  0  0  0  0  0  0  0
   29.2500   27.0630   50.6310 N   0  0  0  0  0  0  0  0  0  0  0  0
   30.1240   28.6110   51.1890 H   0  0  0  0  0  0  0  0  0  0  0  0
   29.5940   26.4850   51.4530 H   0  0  0  0  0  0  0  0  0  0  0  0
   28.2140   27.1490   50.8410 H   0  0  0  0  0  0  0  0  0  0  0  0
   34.8210   28.4530   49.2650 C   0  0  0  0  0  0  0  0  0  0  0  0
   34.6680   27.5850   49.9390 H   0  0  0  0  0  0  0  0  0  0  0  0
   35.7740   28.2110   48.7070 H   0  0  0  0  0  0  0  0  0  0  0  0
   34.9680   29.6840   50.0850 C   0  0  0  0  0  0  0  0  0  0  0  0
   34.0840   30.3210   50.0180 H   0  0  0  0  0  0  0  0  0  0  0  0
   35.0870   29.4380   51.1760 H   0  0  0  0  0  0  0  0  0  0  0  0
   37.4870   32.3640   49.6330 C   0  0  0  0  0  0  0  0  0  0  0  0
   38.3590   31.8300   48.6880 C   0  0  0  0  0  0  0  0  0  0  0  0
   38.0730   30.5410   48.2070 C   0  0  0  0  0  0  0  0  0  0  0  0
   36.9750   29.9040   48.6910 N   0  0  0  0  0  0  0  0  0  0  0  0
   36.1640   30.4810   49.6140 C   0  0  0  0  0  0  0  0  0  0  0  0
   36.4120   31.7050   50.0870 N   0  0  0  0  0  0  0  0  0  0  0  0
   37.6520   33.3430   50.0360 H   0  0  0  0  0  0  0  0  0  0  0  0
   39.2020   32.4150   48.3680 H   0  0  0  0  0  0  0  0  0  0  0  0
   38.7290   30.1060   47.4790 H   0  0  0  0  0  0  0  0  0  0  0  0
  1 21  1  0  0  0  0
  2  1  2  0  0  0  0
  3  2  1  0  0  0  0
  3  4  1  0  0  0  0
  4  5  2  0  0  0  0
  5  1  1  0  0  0  0
  6  2  1  0  0  0  0
  7 16  1  0  0  0  0
  8  4  1  0  0  0  0
  8  7  2  0  0  0  0
  9  8  1  0  0  0  0
 10  9  1  0  0  0  0
 11  9  2  0  0  0  0
 11 13  1  0  0  0  0
 12 11  1  0  0  0  0
 13 14  2  0  0  0  0
 14  7  1  0  0  0  0
 15 18  1  0  0  0  0
 16 15  2  0  0  0  0
 16 17  1  0  0  0  0
 17 20  1  0  0  0  0
 17 19  1  0  0  0  0
 21 22  1  0  0  0  0
 21 24  1  0  0  0  0
 23 21  1  0  0  0  0
 24 26  1  0  0  0  0
 25 24  1  0  0  0  0
 27 33  1  0  0  0  0
 27 32  1  0  0  0  0
 28 27  2  0  0  0  0
 29 28  1  0  0  0  0
 29 30  2  0  0  0  0
 30 31  1  0  0  0  0
 31 24  1  0  0  0  0
 31 32  2  0  0  0  0
 34 28  1  0  0  0  0
 35 29  1  0  0  0  0
M  END
>  <minimizedAffinity>
-5.59856176

>  <minimizedRMSD>
1.83797574

$$$$
