
 OpenBabel03272505143D

 44 47  0  0  0  0  0  0  0  0999 V2000
   37.8280   23.6670   33.6890 Cl  0  0  0  0  0  0  0  0  0  0  0  0
   39.4640   24.2960   33.6090 C   0  0  0  0  0  0  0  0  0  0  0  0
   40.1850   24.5290   32.4470 C   0  0  0  0  0  0  0  0  0  0  0  0
   41.4570   25.0240   32.5250 C   0  0  0  0  0  0  0  0  0  0  0  0
   42.0290   25.2930   33.7270 C   0  0  0  0  0  0  0  0  0  0  0  0
   41.3570   25.0820   34.9270 C   0  0  0  0  0  0  0  0  0  0  0  0
   40.0740   24.5810   34.8340 C   0  0  0  0  0  0  0  0  0  0  0  0
   41.9260   25.1670   31.5590 H   0  0  0  0  0  0  0  0  0  0  0  0
   43.0470   25.6880   33.7430 H   0  0  0  0  0  0  0  0  0  0  0  0
   41.8400   25.3050   35.8590 H   0  0  0  0  0  0  0  0  0  0  0  0
   38.5130   25.2270   36.7280 C   0  0  0  0  0  0  0  0  0  0  0  0
   39.4140   24.3780   36.1230 C   0  0  0  0  0  0  0  0  0  0  0  0
   39.7640   23.1940   36.7610 C   0  0  0  0  0  0  0  0  0  0  0  0
   40.4550   22.4190   36.4250 H   0  0  0  0  0  0  0  0  0  0  0  0
   39.2060   22.8840   37.9920 C   0  0  0  0  0  0  0  0  0  0  0  0
   39.4280   21.9740   38.5600 H   0  0  0  0  0  0  0  0  0  0  0  0
   38.3020   23.7200   38.6160 C   0  0  0  0  0  3  0  0  0  0  0  0
   37.9730   24.8870   37.9580 C   0  0  0  0  0  3  0  0  0  0  0  0
   38.9210   27.4920   36.1830 N   0  0  0  0  0  0  0  0  0  0  0  0
   38.1900   26.4430   36.0080 C   0  0  0  0  0  0  0  0  0  0  0  0
   37.0570   26.3790   35.1390 N   0  0  0  0  0  0  0  0  0  0  0  0
   38.6450   28.3490   35.6390 H   0  0  0  0  0  0  0  0  0  0  0  0
   37.4840   25.8690   34.3200 H   0  0  0  0  0  0  0  0  0  0  0  0
   36.0630   26.5510   34.8670 H   0  0  0  0  0  0  0  0  0  0  0  0
   39.2930   24.1240   30.9480 S   0  0  0  0  0  0  0  0  0  0  0  0
   38.7660   27.1320   31.5360 Cl  0  0  0  0  0  0  0  0  0  0  0  0
   37.3990   26.1140   31.2250 C   0  0  0  0  0  0  0  0  0  0  0  0
   36.1480   26.6910   31.2550 C   0  0  0  0  0  0  0  0  0  0  0  0
   35.0520   25.8790   31.0070 C   0  0  0  0  0  0  0  0  0  0  0  0
   35.2290   24.5570   30.7440 C   0  0  0  0  0  0  0  0  0  0  0  0
   36.5210   24.0270   30.7270 C   0  0  0  0  0  0  0  0  0  0  0  0
   37.6450   24.7690   30.9630 C   0  0  0  0  0  0  0  0  0  0  0  0
   34.0680   26.3330   31.0310 H   0  0  0  0  0  0  0  0  0  0  0  0
   34.3560   23.9420   30.5530 H   0  0  0  0  0  0  0  0  0  0  0  0
   36.6330   22.9680   30.5140 H   0  0  0  0  0  0  0  0  0  0  0  0
   35.6460   29.7640   33.1510 C   0  0  0  0  0  0  0  0  0  0  0  0
   35.7310   30.7850   32.1840 C   0  0  0  0  0  0  0  0  0  0  0  0
   35.9680   30.3890   30.8570 C   0  0  0  0  0  0  0  0  0  0  0  0
   36.0990   29.0620   30.5770 N   0  0  0  0  0  0  0  0  0  0  0  0
   36.0070   28.1320   31.5450 C   0  0  0  0  0  0  0  0  0  0  0  0
   35.7840   28.4810   32.8130 N   0  0  0  0  0  0  0  0  0  0  0  0
   35.4650   30.0140   34.1910 H   0  0  0  0  0  0  0  0  0  0  0  0
   35.6170   31.8270   32.4750 H   0  0  0  0  0  0  0  0  0  0  0  0
   36.0400   31.1340   30.0880 H   0  0  0  0  0  0  0  0  0  0  0  0
  2  1  1  0  0  0  0
  2  7  1  0  0  0  0
  3  4  1  0  0  0  0
  3  2  2  0  0  0  0
  4  5  2  0  0  0  0
  5  9  1  0  0  0  0
  5  6  1  0  0  0  0
  6 10  1  0  0  0  0
  7  6  2  0  0  0  0
  7 12  1  0  0  0  0
  8  4  1  0  0  0  0
 11 18  1  0  0  0  0
 12 11  2  0  0  0  0
 12 13  1  0  0  0  0
 13 15  2  0  0  0  0
 14 13  1  0  0  0  0
 15 16  1  0  0  0  0
 15 17  1  0  0  0  0
 18 17  2  0  0  0  0
 20 19  2  0  0  0  0
 20 11  1  0  0  0  0
 21 20  1  0  0  0  0
 22 19  1  0  0  0  0
 23 21  1  0  0  0  0
 24 21  1  0  0  0  0
 25 32  1  0  0  0  0
 25  3  1  0  0  0  0
 27 28  1  0  0  0  0
 27 26  1  0  0  0  0
 28 40  1  0  0  0  0
 29 33  1  0  0  0  0
 29 28  2  0  0  0  0
 30 29  1  0  0  0  0
 31 30  2  0  0  0  0
 31 32  1  0  0  0  0
 32 27  2  0  0  0  0
 34 30  1  0  0  0  0
 35 31  1  0  0  0  0
 36 42  1  0  0  0  0
 37 43  1  0  0  0  0
 37 36  2  0  0  0  0
 38 37  1  0  0  0  0
 39 38  2  0  0  0  0
 39 40  1  0  0  0  0
 40 41  2  0  0  0  0
 41 36  1  0  0  0  0
 44 38  1  0  0  0  0
M  END
>  <minimizedAffinity>
-6.54955673

$$$$

 OpenBabel03272505143D

 44 47  0  0  0  0  0  0  0  0999 V2000
   40.0350   25.3320   34.1620 Cl  0  0  0  0  0  0  0  0  0  0  0  0
   38.8230   24.2040   33.5840 C   0  0  0  0  0  0  0  0  0  0  0  0
   37.9120   24.4470   32.5650 C   0  0  0  0  0  0  0  0  0  0  0  0
   37.0170   23.4770   32.2100 C   0  0  0  0  0  0  0  0  0  0  0  0
   37.0030   22.2740   32.8390 C   0  0  0  0  0  0  0  0  0  0  0  0
   37.8910   21.9700   33.8670 C   0  0  0  0  0  0  0  0  0  0  0  0
   38.7890   22.9580   34.2160 C   0  0  0  0  0  0  0  0  0  0  0  0
   36.3550   23.7740   31.4050 H   0  0  0  0  0  0  0  0  0  0  0  0
   36.2700   21.5280   32.5230 H   0  0  0  0  0  0  0  0  0  0  0  0
   37.8510   21.0090   34.3430 H   0  0  0  0  0  0  0  0  0  0  0  0
   39.4800   22.7570   36.6500 C   0  0  0  0  0  0  0  0  0  0  0  0
   39.6980   22.5870   35.3000 C   0  0  0  0  0  0  0  0  0  0  0  0
   40.8860   22.0060   34.8730 C   0  0  0  0  0  0  0  0  0  0  0  0
   41.2140   21.8010   33.8520 H   0  0  0  0  0  0  0  0  0  0  0  0
   41.8330   21.6100   35.8040 C   0  0  0  0  0  0  0  0  0  0  0  0
   42.7920   21.1460   35.5520 H   0  0  0  0  0  0  0  0  0  0  0  0
   41.6360   21.7710   37.1610 C   0  0  0  0  0  3  0  0  0  0  0  0
   40.4470   22.3490   37.5550 C   0  0  0  0  0  3  0  0  0  0  0  0
   38.1430   24.6520   37.1150 N   0  0  0  0  0  0  0  0  0  0  0  0
   38.2200   23.3680   37.0280 C   0  0  0  0  0  0  0  0  0  0  0  0
   37.1370   22.4700   37.2800 N   0  0  0  0  0  0  0  0  0  0  0  0
   37.2080   25.0460   37.3940 H   0  0  0  0  0  0  0  0  0  0  0  0
   36.8600   22.2350   36.2890 H   0  0  0  0  0  0  0  0  0  0  0  0
   36.4790   21.9270   37.8840 H   0  0  0  0  0  0  0  0  0  0  0  0
   38.0580   26.0760   31.8370 S   0  0  0  0  0  0  0  0  0  0  0  0
   36.6540   28.4820   30.4540 Cl  0  0  0  0  0  0  0  0  0  0  0  0
   36.5880   28.3880   32.1830 C   0  0  0  0  0  0  0  0  0  0  0  0
   35.9150   29.3850   32.8550 C   0  0  0  0  0  0  0  0  0  0  0  0
   35.8610   29.3130   34.2390 C   0  0  0  0  0  0  0  0  0  0  0  0
   36.4590   28.2810   34.8910 C   0  0  0  0  0  0  0  0  0  0  0  0
   37.1260   27.2990   34.1560 C   0  0  0  0  0  0  0  0  0  0  0  0
   37.2190   27.3080   32.7930 C   0  0  0  0  0  0  0  0  0  0  0  0
   35.3320   30.0980   34.7670 H   0  0  0  0  0  0  0  0  0  0  0  0
   36.4030   28.2470   35.9740 H   0  0  0  0  0  0  0  0  0  0  0  0
   37.5950   26.4860   34.7030 H   0  0  0  0  0  0  0  0  0  0  0  0
   33.3320   31.3470   31.1930 C   0  0  0  0  0  0  0  0  0  0  0  0
   34.0150   32.4800   30.7090 C   0  0  0  0  0  0  0  0  0  0  0  0
   35.3930   32.5540   30.9700 C   0  0  0  0  0  0  0  0  0  0  0  0
   35.9890   31.5440   31.6650 N   0  0  0  0  0  0  0  0  0  0  0  0
   35.2820   30.4850   32.1010 C   0  0  0  0  0  0  0  0  0  0  0  0
   33.9730   30.3910   31.8670 N   0  0  0  0  0  0  0  0  0  0  0  0
   32.2650   31.2400   31.0190 H   0  0  0  0  0  0  0  0  0  0  0  0
   33.4790   33.2520   30.1610 H   0  0  0  0  0  0  0  0  0  0  0  0
   35.9520   33.4000   30.6200 H   0  0  0  0  0  0  0  0  0  0  0  0
  2  1  1  0  0  0  0
  2  7  1  0  0  0  0
  3  2  2  0  0  0  0
  4  3  1  0  0  0  0
  4  5  2  0  0  0  0
  5  6  1  0  0  0  0
  6  7  2  0  0  0  0
  6 10  1  0  0  0  0
  7 12  1  0  0  0  0
  8  4  1  0  0  0  0
  9  5  1  0  0  0  0
 11 20  1  0  0  0  0
 11 18  1  0  0  0  0
 12 11  2  0  0  0  0
 13 12  1  0  0  0  0
 13 15  2  0  0  0  0
 14 13  1  0  0  0  0
 15 17  1  0  0  0  0
 16 15  1  0  0  0  0
 17 18  2  0  0  0  0
 19 22  1  0  0  0  0
 20 19  2  0  0  0  0
 20 21  1  0  0  0  0
 21 24  1  0  0  0  0
 23 21  1  0  0  0  0
 25  3  1  0  0  0  0
 25 32  1  0  0  0  0
 26 27  1  0  0  0  0
 27 32  2  0  0  0  0
 27 28  1  0  0  0  0
 28 29  2  0  0  0  0
 29 33  1  0  0  0  0
 29 30  1  0  0  0  0
 30 34  1  0  0  0  0
 31 35  1  0  0  0  0
 31 30  2  0  0  0  0
 32 31  1  0  0  0  0
 36 41  1  0  0  0  0
 37 38  1  0  0  0  0
 37 36  2  0  0  0  0
 38 39  2  0  0  0  0
 39 40  1  0  0  0  0
 40 28  1  0  0  0  0
 41 40  2  0  0  0  0
 42 36  1  0  0  0  0
 43 37  1  0  0  0  0
 44 38  1  0  0  0  0
M  END
>  <minimizedAffinity>
-6.21365404

$$$$

 OpenBabel03272505143D

 44 47  0  0  0  0  0  0  0  0999 V2000
   39.8990   26.4140   35.0350 Cl  0  0  0  0  0  0  0  0  0  0  0  0
   39.0010   25.3350   33.9830 C   0  0  0  0  0  0  0  0  0  0  0  0
   38.7170   25.5630   32.6440 C   0  0  0  0  0  0  0  0  0  0  0  0
   38.0060   24.6360   31.9340 C   0  0  0  0  0  0  0  0  0  0  0  0
   37.5700   23.4910   32.5200 C   0  0  0  0  0  0  0  0  0  0  0  0
   37.8240   23.2060   33.8580 C   0  0  0  0  0  0  0  0  0  0  0  0
   38.5420   24.1500   34.5640 C   0  0  0  0  0  0  0  0  0  0  0  0
   37.8420   24.9150   30.9000 H   0  0  0  0  0  0  0  0  0  0  0  0
   37.0050   22.7780   31.9150 H   0  0  0  0  0  0  0  0  0  0  0  0
   37.4640   22.2910   34.2890 H   0  0  0  0  0  0  0  0  0  0  0  0
   39.8990   23.1810   36.4770 C   0  0  0  0  0  0  0  0  0  0  0  0
   38.7810   23.8000   35.9640 C   0  0  0  0  0  0  0  0  0  0  0  0
   37.7450   24.1510   36.8210 C   0  0  0  0  0  0  0  0  0  0  0  0
   36.7990   24.6410   36.5820 H   0  0  0  0  0  0  0  0  0  0  0  0
   37.8490   23.8730   38.1750 C   0  0  0  0  0  0  0  0  0  0  0  0
   37.0810   24.1150   38.9170 H   0  0  0  0  0  0  0  0  0  0  0  0
   38.9600   23.2530   38.7120 C   0  0  0  0  0  3  0  0  0  0  0  0
   39.9710   22.9180   37.8360 C   0  0  0  0  0  3  0  0  0  0  0  0
   40.8340   21.7650   34.8300 N   0  0  0  0  0  0  0  0  0  0  0  0
   40.9420   22.8430   35.5280 C   0  0  0  0  0  0  0  0  0  0  0  0
   42.0360   23.7600   35.4430 N   0  0  0  0  0  0  0  0  0  0  0  0
   41.6170   21.5640   34.1560 H   0  0  0  0  0  0  0  0  0  0  0  0
   41.5910   24.5210   34.8620 H   0  0  0  0  0  0  0  0  0  0  0  0
   43.0090   24.0910   35.6300 H   0  0  0  0  0  0  0  0  0  0  0  0
   39.3590   27.1140   32.0210 S   0  0  0  0  0  0  0  0  0  0  0  0
   37.0050   27.9520   33.8720 Cl  0  0  0  0  0  0  0  0  0  0  0  0
   37.0140   28.5530   32.2470 C   0  0  0  0  0  0  0  0  0  0  0  0
   35.9750   29.3730   31.8600 C   0  0  0  0  0  0  0  0  0  0  0  0
   35.9800   29.8560   30.5600 C   0  0  0  0  0  0  0  0  0  0  0  0
   36.9870   29.5190   29.7110 C   0  0  0  0  0  0  0  0  0  0  0  0
   38.0130   28.6850   30.1600 C   0  0  0  0  0  0  0  0  0  0  0  0
   38.0720   28.1730   31.4250 C   0  0  0  0  0  0  0  0  0  0  0  0
   35.1630   30.5000   30.2560 H   0  0  0  0  0  0  0  0  0  0  0  0
   36.9670   29.9090   28.6990 H   0  0  0  0  0  0  0  0  0  0  0  0
   38.8040   28.4320   29.4600 H   0  0  0  0  0  0  0  0  0  0  0  0
   34.2320   31.0470   34.5880 C   0  0  0  0  0  0  0  0  0  0  0  0
   32.9770   30.4080   34.6410 C   0  0  0  0  0  0  0  0  0  0  0  0
   32.7430   29.3830   33.7090 C   0  0  0  0  0  0  0  0  0  0  0  0
   33.7250   29.0620   32.8190 N   0  0  0  0  0  0  0  0  0  0  0  0
   34.9050   29.7100   32.8190 C   0  0  0  0  0  0  0  0  0  0  0  0
   35.1510   30.6870   33.6920 N   0  0  0  0  0  0  0  0  0  0  0  0
   34.4640   31.8460   35.2840 H   0  0  0  0  0  0  0  0  0  0  0  0
   32.2370   30.7130   35.3770 H   0  0  0  0  0  0  0  0  0  0  0  0
   31.8020   28.8700   33.7140 H   0  0  0  0  0  0  0  0  0  0  0  0
  2  7  1  0  0  0  0
  2  1  1  0  0  0  0
  3  2  2  0  0  0  0
  4  5  2  0  0  0  0
  4  3  1  0  0  0  0
  5  6  1  0  0  0  0
  6 10  1  0  0  0  0
  6  7  2  0  0  0  0
  7 12  1  0  0  0  0
  8  4  1  0  0  0  0
  9  5  1  0  0  0  0
 11 18  1  0  0  0  0
 12 11  2  0  0  0  0
 12 13  1  0  0  0  0
 13 15  2  0  0  0  0
 14 13  1  0  0  0  0
 15 17  1  0  0  0  0
 15 16  1  0  0  0  0
 18 17  2  0  0  0  0
 19 20  2  0  0  0  0
 20 11  1  0  0  0  0
 21 20  1  0  0  0  0
 21 24  1  0  0  0  0
 22 19  1  0  0  0  0
 23 21  1  0  0  0  0
 25  3  1  0  0  0  0
 27 26  1  0  0  0  0
 28 27  1  0  0  0  0
 28 40  1  0  0  0  0
 29 28  2  0  0  0  0
 30 31  2  0  0  0  0
 30 29  1  0  0  0  0
 31 32  1  0  0  0  0
 32 25  1  0  0  0  0
 32 27  2  0  0  0  0
 33 29  1  0  0  0  0
 34 30  1  0  0  0  0
 35 31  1  0  0  0  0
 36 37  1  0  0  0  0
 36 42  1  0  0  0  0
 37 43  1  0  0  0  0
 38 44  1  0  0  0  0
 38 37  2  0  0  0  0
 39 40  2  0  0  0  0
 39 38  1  0  0  0  0
 40 41  1  0  0  0  0
 41 36  2  0  0  0  0
M  END
>  <minimizedAffinity>
-6.19665098

$$$$

 OpenBabel03272505143D

 44 47  0  0  0  0  0  0  0  0999 V2000
   38.4310   23.6440   33.2810 Cl  0  0  0  0  0  0  0  0  0  0  0  0
   38.2510   25.1270   34.1990 C   0  0  0  0  0  0  0  0  0  0  0  0
   37.4810   26.2200   33.8270 C   0  0  0  0  0  0  0  0  0  0  0  0
   37.4260   27.3190   34.6380 C   0  0  0  0  0  0  0  0  0  0  0  0
   38.1160   27.3600   35.8080 C   0  0  0  0  0  0  0  0  0  0  0  0
   38.9040   26.2960   36.2350 C   0  0  0  0  0  0  0  0  0  0  0  0
   38.9510   25.1930   35.4070 C   0  0  0  0  0  0  0  0  0  0  0  0
   36.7970   28.1120   34.2510 H   0  0  0  0  0  0  0  0  0  0  0  0
   38.0430   28.2580   36.4250 H   0  0  0  0  0  0  0  0  0  0  0  0
   39.4360   26.3620   37.1650 H   0  0  0  0  0  0  0  0  0  0  0  0
   39.4110   23.0970   36.7610 C   0  0  0  0  0  0  0  0  0  0  0  0
   39.7930   24.1050   35.9030 C   0  0  0  0  0  0  0  0  0  0  0  0
   41.1000   24.1360   35.4320 C   0  0  0  0  0  0  0  0  0  0  0  0
   41.5610   24.8570   34.7540 H   0  0  0  0  0  0  0  0  0  0  0  0
   41.9980   23.1590   35.8290 C   0  0  0  0  0  0  0  0  0  0  0  0
   43.0430   23.1110   35.5050 H   0  0  0  0  0  0  0  0  0  0  0  0
   41.6380   22.1400   36.6880 C   0  0  0  0  0  3  0  0  0  0  0  0
   40.3340   22.1350   37.1380 C   0  0  0  0  0  3  0  0  0  0  0  0
   37.1480   22.4380   36.5750 N   0  0  0  0  0  0  0  0  0  0  0  0
   38.0340   23.1220   37.2140 C   0  0  0  0  0  0  0  0  0  0  0  0
   37.7650   23.9260   38.3650 N   0  0  0  0  0  0  0  0  0  0  0  0
   36.1630   22.4900   36.9430 H   0  0  0  0  0  0  0  0  0  0  0  0
   38.1260   23.2850   39.1240 H   0  0  0  0  0  0  0  0  0  0  0  0
   37.4180   24.7750   38.8660 H   0  0  0  0  0  0  0  0  0  0  0  0
   36.6350   26.0120   32.2620 S   0  0  0  0  0  0  0  0  0  0  0  0
   39.0970   25.8400   30.3700 Cl  0  0  0  0  0  0  0  0  0  0  0  0
   38.1010   27.2550   30.2800 C   0  0  0  0  0  0  0  0  0  0  0  0
   38.4530   28.2310   29.3730 C   0  0  0  0  0  0  0  0  0  0  0  0
   37.6580   29.3650   29.2990 C   0  0  0  0  0  0  0  0  0  0  0  0
   36.5710   29.4890   30.1050 C   0  0  0  0  0  0  0  0  0  0  0  0
   36.2630   28.4670   31.0050 C   0  0  0  0  0  0  0  0  0  0  0  0
   37.0020   27.3240   31.1310 C   0  0  0  0  0  0  0  0  0  0  0  0
   37.9360   30.1330   28.5860 H   0  0  0  0  0  0  0  0  0  0  0  0
   35.9650   30.3860   30.0290 H   0  0  0  0  0  0  0  0  0  0  0  0
   35.3890   28.5920   31.6370 H   0  0  0  0  0  0  0  0  0  0  0  0
   40.4900   27.2860   26.5020 C   0  0  0  0  0  0  0  0  0  0  0  0
   41.7960   27.6730   26.8620 C   0  0  0  0  0  0  0  0  0  0  0  0
   41.9610   28.2710   28.1230 C   0  0  0  0  0  0  0  0  0  0  0  0
   40.8680   28.4420   28.9200 N   0  0  0  0  0  0  0  0  0  0  0  0
   39.6440   28.0510   28.5200 C   0  0  0  0  0  0  0  0  0  0  0  0
   39.4610   27.4820   27.3280 N   0  0  0  0  0  0  0  0  0  0  0  0
   40.3070   26.8200   25.5390 H   0  0  0  0  0  0  0  0  0  0  0  0
   42.6260   27.5070   26.1780 H   0  0  0  0  0  0  0  0  0  0  0  0
   42.9380   28.5800   28.4370 H   0  0  0  0  0  0  0  0  0  0  0  0
  1  2  1  0  0  0  0
  2  7  1  0  0  0  0
  3  2  2  0  0  0  0
  3  4  1  0  0  0  0
  4  5  2  0  0  0  0
  5  6  1  0  0  0  0
  5  9  1  0  0  0  0
  6 10  1  0  0  0  0
  7 12  1  0  0  0  0
  7  6  2  0  0  0  0
  8  4  1  0  0  0  0
 11 18  1  0  0  0  0
 11 20  1  0  0  0  0
 12 11  2  0  0  0  0
 13 15  2  0  0  0  0
 13 12  1  0  0  0  0
 14 13  1  0  0  0  0
 15 17  1  0  0  0  0
 16 15  1  0  0  0  0
 17 18  2  0  0  0  0
 19 22  1  0  0  0  0
 19 20  2  0  0  0  0
 20 21  1  0  0  0  0
 21 24  1  0  0  0  0
 21 23  1  0  0  0  0
 25  3  1  0  0  0  0
 27 26  1  0  0  0  0
 27 32  1  0  0  0  0
 28 27  2  0  0  0  0
 29 28  1  0  0  0  0
 29 30  2  0  0  0  0
 30 31  1  0  0  0  0
 31 32  2  0  0  0  0
 31 35  1  0  0  0  0
 32 25  1  0  0  0  0
 33 29  1  0  0  0  0
 34 30  1  0  0  0  0
 36 37  2  0  0  0  0
 36 41  1  0  0  0  0
 37 38  1  0  0  0  0
 38 44  1  0  0  0  0
 38 39  2  0  0  0  0
 40 39  1  0  0  0  0
 40 28  1  0  0  0  0
 41 40  2  0  0  0  0
 42 36  1  0  0  0  0
 43 37  1  0  0  0  0
M  END
>  <minimizedAffinity>
-6.16903734

$$$$

 OpenBabel03272505143D

 44 47  0  0  0  0  0  0  0  0999 V2000
   38.6430   23.2140   33.4230 Cl  0  0  0  0  0  0  0  0  0  0  0  0
   38.3740   24.7840   34.1580 C   0  0  0  0  0  0  0  0  0  0  0  0
   37.5910   25.8000   33.6300 C   0  0  0  0  0  0  0  0  0  0  0  0
   37.4640   26.9810   34.3080 C   0  0  0  0  0  0  0  0  0  0  0  0
   38.0950   27.1760   35.4950 C   0  0  0  0  0  0  0  0  0  0  0  0
   38.8920   26.1950   36.0750 C   0  0  0  0  0  0  0  0  0  0  0  0
   39.0130   25.0090   35.3810 C   0  0  0  0  0  0  0  0  0  0  0  0
   36.8310   27.7020   33.8060 H   0  0  0  0  0  0  0  0  0  0  0  0
   37.9650   28.1350   36.0020 H   0  0  0  0  0  0  0  0  0  0  0  0
   39.3770   26.3830   37.0140 H   0  0  0  0  0  0  0  0  0  0  0  0
   39.4770   23.1170   37.0080 C   0  0  0  0  0  0  0  0  0  0  0  0
   39.8610   24.0130   36.0350 C   0  0  0  0  0  0  0  0  0  0  0  0
   41.1790   24.0110   35.5930 C   0  0  0  0  0  0  0  0  0  0  0  0
   41.6450   24.6470   34.8380 H   0  0  0  0  0  0  0  0  0  0  0  0
   42.0850   23.1130   36.1360 C   0  0  0  0  0  0  0  0  0  0  0  0
   43.1390   23.0460   35.8450 H   0  0  0  0  0  0  0  0  0  0  0  0
   41.7220   22.2070   37.1120 C   0  0  0  0  0  3  0  0  0  0  0  0
   40.4070   22.2330   37.5290 C   0  0  0  0  0  3  0  0  0  0  0  0
   37.2150   22.4590   36.7950 N   0  0  0  0  0  0  0  0  0  0  0  0
   38.0880   23.1720   37.4220 C   0  0  0  0  0  0  0  0  0  0  0  0
   37.7930   24.0350   38.5230 N   0  0  0  0  0  0  0  0  0  0  0  0
   36.2210   22.5340   37.1330 H   0  0  0  0  0  0  0  0  0  0  0  0
   38.1300   23.4330   39.3220 H   0  0  0  0  0  0  0  0  0  0  0  0
   37.4380   24.9100   38.9700 H   0  0  0  0  0  0  0  0  0  0  0  0
   36.8290   25.3890   32.0630 S   0  0  0  0  0  0  0  0  0  0  0  0
   37.9560   28.0610   30.9410 Cl  0  0  0  0  0  0  0  0  0  0  0  0
   38.5100   26.5830   30.2270 C   0  0  0  0  0  0  0  0  0  0  0  0
   39.4220   26.6700   29.1970 C   0  0  0  0  0  0  0  0  0  0  0  0
   39.8670   25.4890   28.6230 C   0  0  0  0  0  0  0  0  0  0  0  0
   39.4050   24.2940   29.0780 C   0  0  0  0  0  0  0  0  0  0  0  0
   38.4810   24.2680   30.1240 C   0  0  0  0  0  0  0  0  0  0  0  0
   38.0000   25.3920   30.7350 C   0  0  0  0  0  0  0  0  0  0  0  0
   40.5840   25.5580   27.8140 H   0  0  0  0  0  0  0  0  0  0  0  0
   39.7680   23.3840   28.6120 H   0  0  0  0  0  0  0  0  0  0  0  0
   38.1290   23.3000   30.4670 H   0  0  0  0  0  0  0  0  0  0  0  0
   39.6090   29.7490   27.2550 C   0  0  0  0  0  0  0  0  0  0  0  0
   40.6960   30.4470   27.8160 C   0  0  0  0  0  0  0  0  0  0  0  0
   41.3660   29.8310   28.8870 C   0  0  0  0  0  0  0  0  0  0  0  0
   40.9390   28.6100   29.3180 N   0  0  0  0  0  0  0  0  0  0  0  0
   39.8940   27.9920   28.7390 C   0  0  0  0  0  0  0  0  0  0  0  0
   39.2400   28.5560   27.7230 N   0  0  0  0  0  0  0  0  0  0  0  0
   39.0560   30.1800   26.4260 H   0  0  0  0  0  0  0  0  0  0  0  0
   40.9850   31.4200   27.4250 H   0  0  0  0  0  0  0  0  0  0  0  0
   42.1990   30.3280   29.3440 H   0  0  0  0  0  0  0  0  0  0  0  0
  1  2  1  0  0  0  0
  2  7  1  0  0  0  0
  3  2  2  0  0  0  0
  3  4  1  0  0  0  0
  4  5  2  0  0  0  0
  5  9  1  0  0  0  0
  5  6  1  0  0  0  0
  6 10  1  0  0  0  0
  7 12  1  0  0  0  0
  7  6  2  0  0  0  0
  8  4  1  0  0  0  0
 11 20  1  0  0  0  0
 11 18  1  0  0  0  0
 12 11  2  0  0  0  0
 13 12  1  0  0  0  0
 13 15  2  0  0  0  0
 14 13  1  0  0  0  0
 15 17  1  0  0  0  0
 16 15  1  0  0  0  0
 17 18  2  0  0  0  0
 19 22  1  0  0  0  0
 19 20  2  0  0  0  0
 20 21  1  0  0  0  0
 21 24  1  0  0  0  0
 21 23  1  0  0  0  0
 25  3  1  0  0  0  0
 27 32  1  0  0  0  0
 27 26  1  0  0  0  0
 28 27  2  0  0  0  0
 29 30  2  0  0  0  0
 29 28  1  0  0  0  0
 30 31  1  0  0  0  0
 31 35  1  0  0  0  0
 31 32  2  0  0  0  0
 32 25  1  0  0  0  0
 33 29  1  0  0  0  0
 34 30  1  0  0  0  0
 36 41  2  0  0  0  0
 36 37  1  0  0  0  0
 37 38  2  0  0  0  0
 38 39  1  0  0  0  0
 38 44  1  0  0  0  0
 40 28  1  0  0  0  0
 40 39  2  0  0  0  0
 41 40  1  0  0  0  0
 42 36  1  0  0  0  0
 43 37  1  0  0  0  0
M  END
>  <minimizedAffinity>
-6.13507509

$$$$

 OpenBabel03272505143D

 44 47  0  0  0  0  0  0  0  0999 V2000
   40.6820   25.7530   34.8610 Cl  0  0  0  0  0  0  0  0  0  0  0  0
   39.3870   24.9340   34.0080 C   0  0  0  0  0  0  0  0  0  0  0  0
   38.6120   25.4820   32.9950 C   0  0  0  0  0  0  0  0  0  0  0  0
   37.6300   24.7310   32.4100 C   0  0  0  0  0  0  0  0  0  0  0  0
   37.3990   23.4520   32.8050 C   0  0  0  0  0  0  0  0  0  0  0  0
   38.1430   22.8470   33.8130 C   0  0  0  0  0  0  0  0  0  0  0  0
   39.1300   23.6160   34.3960 C   0  0  0  0  0  0  0  0  0  0  0  0
   37.0880   25.2570   31.6330 H   0  0  0  0  0  0  0  0  0  0  0  0
   36.6050   22.8890   32.3090 H   0  0  0  0  0  0  0  0  0  0  0  0
   37.9340   21.8350   34.1000 H   0  0  0  0  0  0  0  0  0  0  0  0
   39.5210   22.8200   36.7740 C   0  0  0  0  0  0  0  0  0  0  0  0
   39.8810   22.9320   35.4490 C   0  0  0  0  0  0  0  0  0  0  0  0
   41.0680   22.3530   35.0170 C   0  0  0  0  0  0  0  0  0  0  0  0
   41.4970   22.3490   34.0130 H   0  0  0  0  0  0  0  0  0  0  0  0
   41.8720   21.6750   35.9200 C   0  0  0  0  0  0  0  0  0  0  0  0
   42.8200   21.1910   35.6620 H   0  0  0  0  0  0  0  0  0  0  0  0
   41.5310   21.5510   37.2520 C   0  0  0  0  0  3  0  0  0  0  0  0
   40.3470   22.1350   37.6500 C   0  0  0  0  0  3  0  0  0  0  0  0
   38.2520   24.7070   37.4230 N   0  0  0  0  0  0  0  0  0  0  0  0
   38.2710   23.4460   37.1580 C   0  0  0  0  0  0  0  0  0  0  0  0
   37.1290   22.5880   37.2120 N   0  0  0  0  0  0  0  0  0  0  0  0
   37.3210   25.1140   37.6980 H   0  0  0  0  0  0  0  0  0  0  0  0
   36.9090   22.5110   36.1820 H   0  0  0  0  0  0  0  0  0  0  0  0
   36.4040   22.0060   37.6900 H   0  0  0  0  0  0  0  0  0  0  0  0
   39.0390   27.1730   32.5910 S   0  0  0  0  0  0  0  0  0  0  0  0
   36.9960   28.1360   34.7290 Cl  0  0  0  0  0  0  0  0  0  0  0  0
   36.6990   28.5570   33.0740 C   0  0  0  0  0  0  0  0  0  0  0  0
   35.5710   29.2980   32.7930 C   0  0  0  0  0  0  0  0  0  0  0  0
   35.3310   29.6360   31.4700 C   0  0  0  0  0  0  0  0  0  0  0  0
   36.1930   29.2390   30.4970 C   0  0  0  0  0  0  0  0  0  0  0  0
   37.3200   28.4900   30.8420 C   0  0  0  0  0  0  0  0  0  0  0  0
   37.6180   28.1220   32.1240 C   0  0  0  0  0  0  0  0  0  0  0  0
   34.4430   30.2180   31.2480 H   0  0  0  0  0  0  0  0  0  0  0  0
   35.9830   29.5160   29.4700 H   0  0  0  0  0  0  0  0  0  0  0  0
   37.9920   28.1870   30.0450 H   0  0  0  0  0  0  0  0  0  0  0  0
   34.2570   31.1820   35.6220 C   0  0  0  0  0  0  0  0  0  0  0  0
   33.0440   30.5370   35.9350 C   0  0  0  0  0  0  0  0  0  0  0  0
   32.6870   29.4320   35.1440 C   0  0  0  0  0  0  0  0  0  0  0  0
   33.5170   29.0470   34.1340 N   0  0  0  0  0  0  0  0  0  0  0  0
   34.6640   29.7040   33.8840 C   0  0  0  0  0  0  0  0  0  0  0  0
   35.0260   30.7560   34.6190 N   0  0  0  0  0  0  0  0  0  0  0  0
   34.5810   32.0410   36.2010 H   0  0  0  0  0  0  0  0  0  0  0  0
   32.4270   30.8960   36.7560 H   0  0  0  0  0  0  0  0  0  0  0  0
   31.7720   28.9110   35.3470 H   0  0  0  0  0  0  0  0  0  0  0  0
  2  7  1  0  0  0  0
  2  1  1  0  0  0  0
  3  2  2  0  0  0  0
  4  5  2  0  0  0  0
  4  3  1  0  0  0  0
  5  6  1  0  0  0  0
  6 10  1  0  0  0  0
  6  7  2  0  0  0  0
  7 12  1  0  0  0  0
  8  4  1  0  0  0  0
  9  5  1  0  0  0  0
 11 20  1  0  0  0  0
 11 18  1  0  0  0  0
 12 11  2  0  0  0  0
 13 12  1  0  0  0  0
 13 15  2  0  0  0  0
 14 13  1  0  0  0  0
 15 17  1  0  0  0  0
 16 15  1  0  0  0  0
 17 18  2  0  0  0  0
 19 22  1  0  0  0  0
 20 21  1  0  0  0  0
 20 19  2  0  0  0  0
 21 24  1  0  0  0  0
 23 21  1  0  0  0  0
 25  3  1  0  0  0  0
 27 26  1  0  0  0  0
 28 27  1  0  0  0  0
 28 40  1  0  0  0  0
 29 28  2  0  0  0  0
 30 31  2  0  0  0  0
 30 29  1  0  0  0  0
 31 32  1  0  0  0  0
 32 25  1  0  0  0  0
 32 27  2  0  0  0  0
 33 29  1  0  0  0  0
 34 30  1  0  0  0  0
 35 31  1  0  0  0  0
 36 37  1  0  0  0  0
 36 42  1  0  0  0  0
 37 43  1  0  0  0  0
 38 44  1  0  0  0  0
 38 37  2  0  0  0  0
 39 38  1  0  0  0  0
 40 39  2  0  0  0  0
 40 41  1  0  0  0  0
 41 36  2  0  0  0  0
M  END
>  <minimizedAffinity>
-6.08092451

$$$$

 OpenBabel03272505143D

 44 47  0  0  0  0  0  0  0  0999 V2000
   38.4610   23.8630   33.1890 Cl  0  0  0  0  0  0  0  0  0  0  0  0
   38.3390   25.2720   34.2270 C   0  0  0  0  0  0  0  0  0  0  0  0
   37.5780   26.4040   33.9680 C   0  0  0  0  0  0  0  0  0  0  0  0
   37.5700   27.4360   34.8640 C   0  0  0  0  0  0  0  0  0  0  0  0
   38.2970   27.3730   36.0100 C   0  0  0  0  0  0  0  0  0  0  0  0
   39.0780   26.2650   36.3260 C   0  0  0  0  0  0  0  0  0  0  0  0
   39.0780   25.2310   35.4130 C   0  0  0  0  0  0  0  0  0  0  0  0
   36.9440   28.2660   34.5620 H   0  0  0  0  0  0  0  0  0  0  0  0
   38.2610   28.2200   36.6980 H   0  0  0  0  0  0  0  0  0  0  0  0
   39.6410   26.2490   37.2390 H   0  0  0  0  0  0  0  0  0  0  0  0
   39.5430   23.0280   36.5840 C   0  0  0  0  0  0  0  0  0  0  0  0
   39.9150   24.0930   35.7930 C   0  0  0  0  0  0  0  0  0  0  0  0
   41.2050   24.1380   35.2800 C   0  0  0  0  0  0  0  0  0  0  0  0
   41.6580   24.9020   34.6440 H   0  0  0  0  0  0  0  0  0  0  0  0
   42.0970   23.1180   35.5690 C   0  0  0  0  0  0  0  0  0  0  0  0
   43.1300   23.0770   35.2050 H   0  0  0  0  0  0  0  0  0  0  0  0
   41.7460   22.0410   36.3580 C   0  0  0  0  0  3  0  0  0  0  0  0
   40.4590   22.0230   36.8520 C   0  0  0  0  0  3  0  0  0  0  0  0
   37.2600   22.4300   36.4230 N   0  0  0  0  0  0  0  0  0  0  0  0
   38.1820   23.0410   37.0860 C   0  0  0  0  0  0  0  0  0  0  0  0
   37.9700   23.7500   38.3090 N   0  0  0  0  0  0  0  0  0  0  0  0
   36.2900   22.4700   36.8280 H   0  0  0  0  0  0  0  0  0  0  0  0
   38.3420   23.0410   38.9980 H   0  0  0  0  0  0  0  0  0  0  0  0
   37.6590   24.5600   38.8910 H   0  0  0  0  0  0  0  0  0  0  0  0
   36.6790   26.3340   32.4210 S   0  0  0  0  0  0  0  0  0  0  0  0
   38.3400   27.8790   30.2940 Cl  0  0  0  0  0  0  0  0  0  0  0  0
   36.9150   28.6400   30.9210 C   0  0  0  0  0  0  0  0  0  0  0  0
   36.5920   29.8910   30.4430 C   0  0  0  0  0  0  0  0  0  0  0  0
   35.4520   30.5030   30.9430 C   0  0  0  0  0  0  0  0  0  0  0  0
   34.6910   29.8690   31.8740 C   0  0  0  0  0  0  0  0  0  0  0  0
   35.0680   28.6010   32.3210 C   0  0  0  0  0  0  0  0  0  0  0  0
   36.1770   27.9410   31.8730 C   0  0  0  0  0  0  0  0  0  0  0  0
   35.1980   31.4870   30.5670 H   0  0  0  0  0  0  0  0  0  0  0  0
   33.8040   30.3680   32.2500 H   0  0  0  0  0  0  0  0  0  0  0  0
   34.4420   28.1180   33.0660 H   0  0  0  0  0  0  0  0  0  0  0  0
   38.8390   32.3200   28.9160 C   0  0  0  0  0  0  0  0  0  0  0  0
   39.0640   31.8170   27.6190 C   0  0  0  0  0  0  0  0  0  0  0  0
   38.4220   30.6140   27.2810 C   0  0  0  0  0  0  0  0  0  0  0  0
   37.6270   30.0070   28.2080 N   0  0  0  0  0  0  0  0  0  0  0  0
   37.4500   30.5390   29.4320 C   0  0  0  0  0  0  0  0  0  0  0  0
   38.0490   31.6790   29.7770 N   0  0  0  0  0  0  0  0  0  0  0  0
   39.3110   33.2470   29.2280 H   0  0  0  0  0  0  0  0  0  0  0  0
   39.7120   32.3510   26.9280 H   0  0  0  0  0  0  0  0  0  0  0  0
   38.5660   30.1940   26.3050 H   0  0  0  0  0  0  0  0  0  0  0  0
  1  2  1  0  0  0  0
  2  7  1  0  0  0  0
  3  2  2  0  0  0  0
  3  4  1  0  0  0  0
  4  5  2  0  0  0  0
  5  6  1  0  0  0  0
  5  9  1  0  0  0  0
  6 10  1  0  0  0  0
  7 12  1  0  0  0  0
  7  6  2  0  0  0  0
  8  4  1  0  0  0  0
 11 18  1  0  0  0  0
 11 20  1  0  0  0  0
 12 11  2  0  0  0  0
 13 15  2  0  0  0  0
 13 12  1  0  0  0  0
 14 13  1  0  0  0  0
 15 17  1  0  0  0  0
 16 15  1  0  0  0  0
 17 18  2  0  0  0  0
 19 22  1  0  0  0  0
 19 20  2  0  0  0  0
 20 21  1  0  0  0  0
 21 24  1  0  0  0  0
 21 23  1  0  0  0  0
 25  3  1  0  0  0  0
 26 27  1  0  0  0  0
 27 32  1  0  0  0  0
 28 27  2  0  0  0  0
 28 29  1  0  0  0  0
 29 30  2  0  0  0  0
 30 34  1  0  0  0  0
 30 31  1  0  0  0  0
 31 35  1  0  0  0  0
 32 31  2  0  0  0  0
 32 25  1  0  0  0  0
 33 29  1  0  0  0  0
 36 42  1  0  0  0  0
 36 41  1  0  0  0  0
 37 36  2  0  0  0  0
 38 37  1  0  0  0  0
 38 39  2  0  0  0  0
 39 40  1  0  0  0  0
 40 41  2  0  0  0  0
 40 28  1  0  0  0  0
 43 37  1  0  0  0  0
 44 38  1  0  0  0  0
M  END
>  <minimizedAffinity>
-6.05812502

$$$$

 OpenBabel03272505143D

 44 47  0  0  0  0  0  0  0  0999 V2000
   38.3930   23.8330   33.1180 Cl  0  0  0  0  0  0  0  0  0  0  0  0
   38.2450   25.2650   34.1200 C   0  0  0  0  0  0  0  0  0  0  0  0
   37.4620   26.3750   33.8340 C   0  0  0  0  0  0  0  0  0  0  0  0
   37.4360   27.4290   34.7040 C   0  0  0  0  0  0  0  0  0  0  0  0
   38.1660   27.4090   35.8490 C   0  0  0  0  0  0  0  0  0  0  0  0
   38.9690   26.3260   36.1910 C   0  0  0  0  0  0  0  0  0  0  0  0
   38.9870   25.2680   35.3050 C   0  0  0  0  0  0  0  0  0  0  0  0
   36.7930   28.2400   34.3820 H   0  0  0  0  0  0  0  0  0  0  0  0
   38.1150   28.2730   36.5150 H   0  0  0  0  0  0  0  0  0  0  0  0
   39.5340   26.3430   37.1040 H   0  0  0  0  0  0  0  0  0  0  0  0
   39.4830   23.0810   36.4920 C   0  0  0  0  0  0  0  0  0  0  0  0
   39.8460   24.1570   35.7130 C   0  0  0  0  0  0  0  0  0  0  0  0
   41.1500   24.2420   35.2390 C   0  0  0  0  0  0  0  0  0  0  0  0
   41.5980   25.0200   34.6170 H   0  0  0  0  0  0  0  0  0  0  0  0
   42.0640   23.2500   35.5560 C   0  0  0  0  0  0  0  0  0  0  0  0
   43.1080   23.2410   35.2240 H   0  0  0  0  0  0  0  0  0  0  0  0
   41.7220   22.1630   36.3360 C   0  0  0  0  0  3  0  0  0  0  0  0
   40.4210   22.1050   36.7900 C   0  0  0  0  0  3  0  0  0  0  0  0
   37.2400   22.3560   36.3010 N   0  0  0  0  0  0  0  0  0  0  0  0
   38.1080   23.0520   36.9520 C   0  0  0  0  0  0  0  0  0  0  0  0
   37.8200   23.8200   38.1220 N   0  0  0  0  0  0  0  0  0  0  0  0
   36.2560   22.3680   36.6740 H   0  0  0  0  0  0  0  0  0  0  0  0
   38.2050   23.1740   38.8640 H   0  0  0  0  0  0  0  0  0  0  0  0
   37.4490   24.6460   38.6450 H   0  0  0  0  0  0  0  0  0  0  0  0
   36.5620   26.2480   32.2920 S   0  0  0  0  0  0  0  0  0  0  0  0
   34.8570   28.7560   32.9810 Cl  0  0  0  0  0  0  0  0  0  0  0  0
   35.9330   28.8530   31.6260 C   0  0  0  0  0  0  0  0  0  0  0  0
   35.9760   30.0390   30.9250 C   0  0  0  0  0  0  0  0  0  0  0  0
   36.8360   30.1190   29.8400 C   0  0  0  0  0  0  0  0  0  0  0  0
   37.6030   29.0500   29.4970 C   0  0  0  0  0  0  0  0  0  0  0  0
   37.5170   27.8750   30.2460 C   0  0  0  0  0  0  0  0  0  0  0  0
   36.6920   27.7260   31.3250 C   0  0  0  0  0  0  0  0  0  0  0  0
   36.8700   31.0520   29.2880 H   0  0  0  0  0  0  0  0  0  0  0  0
   38.2680   29.1390   28.6440 H   0  0  0  0  0  0  0  0  0  0  0  0
   38.1410   27.0370   29.9500 H   0  0  0  0  0  0  0  0  0  0  0  0
   34.9750   33.1670   32.5050 C   0  0  0  0  0  0  0  0  0  0  0  0
   33.6200   33.3160   32.1510 C   0  0  0  0  0  0  0  0  0  0  0  0
   33.0550   32.3090   31.3500 C   0  0  0  0  0  0  0  0  0  0  0  0
   33.8330   31.2580   30.9640 N   0  0  0  0  0  0  0  0  0  0  0  0
   35.1240   31.1710   31.3360 C   0  0  0  0  0  0  0  0  0  0  0  0
   35.6830   32.1140   32.0950 N   0  0  0  0  0  0  0  0  0  0  0  0
   35.4610   33.9160   33.1220 H   0  0  0  0  0  0  0  0  0  0  0  0
   33.0550   34.1800   32.4920 H   0  0  0  0  0  0  0  0  0  0  0  0
   32.0260   32.3820   31.0570 H   0  0  0  0  0  0  0  0  0  0  0  0
  1  2  1  0  0  0  0
  2  7  1  0  0  0  0
  3  2  2  0  0  0  0
  3  4  1  0  0  0  0
  4  5  2  0  0  0  0
  5  6  1  0  0  0  0
  5  9  1  0  0  0  0
  6 10  1  0  0  0  0
  7 12  1  0  0  0  0
  7  6  2  0  0  0  0
  8  4  1  0  0  0  0
 11 18  1  0  0  0  0
 11 20  1  0  0  0  0
 12 11  2  0  0  0  0
 13 15  2  0  0  0  0
 13 12  1  0  0  0  0
 14 13  1  0  0  0  0
 15 17  1  0  0  0  0
 16 15  1  0  0  0  0
 17 18  2  0  0  0  0
 19 22  1  0  0  0  0
 19 20  2  0  0  0  0
 20 21  1  0  0  0  0
 21 24  1  0  0  0  0
 21 23  1  0  0  0  0
 25  3  1  0  0  0  0
 27 26  1  0  0  0  0
 28 40  1  0  0  0  0
 28 27  2  0  0  0  0
 29 28  1  0  0  0  0
 30 29  2  0  0  0  0
 30 31  1  0  0  0  0
 31 32  2  0  0  0  0
 32 27  1  0  0  0  0
 32 25  1  0  0  0  0
 33 29  1  0  0  0  0
 34 30  1  0  0  0  0
 35 31  1  0  0  0  0
 36 42  1  0  0  0  0
 37 43  1  0  0  0  0
 37 36  1  0  0  0  0
 38 37  2  0  0  0  0
 39 40  2  0  0  0  0
 39 38  1  0  0  0  0
 40 41  1  0  0  0  0
 41 36  2  0  0  0  0
 44 38  1  0  0  0  0
M  END
>  <minimizedAffinity>
-6.02067471

$$$$

 OpenBabel03272505143D

 44 47  0  0  0  0  0  0  0  0999 V2000
   36.1410   27.8490   34.0030 Cl  0  0  0  0  0  0  0  0  0  0  0  0
   36.3580   28.8920   32.6090 C   0  0  0  0  0  0  0  0  0  0  0  0
   37.0220   28.5520   31.4390 C   0  0  0  0  0  0  0  0  0  0  0  0
   37.1200   29.4620   30.4250 C   0  0  0  0  0  0  0  0  0  0  0  0
   36.5750   30.7010   30.5420 C   0  0  0  0  0  0  0  0  0  0  0  0
   35.8970   31.1010   31.6890 C   0  0  0  0  0  0  0  0  0  0  0  0
   35.8060   30.1730   32.7070 C   0  0  0  0  0  0  0  0  0  0  0  0
   37.6570   29.0910   29.5600 H   0  0  0  0  0  0  0  0  0  0  0  0
   36.6770   31.3970   29.7060 H   0  0  0  0  0  0  0  0  0  0  0  0
   35.4790   32.0880   31.7490 H   0  0  0  0  0  0  0  0  0  0  0  0
   33.7220   30.5980   34.0910 C   0  0  0  0  0  0  0  0  0  0  0  0
   35.0840   30.6450   33.8880 C   0  0  0  0  0  0  0  0  0  0  0  0
   35.8990   31.1840   34.8750 C   0  0  0  0  0  0  0  0  0  0  0  0
   36.9850   31.2970   34.8740 H   0  0  0  0  0  0  0  0  0  0  0  0
   35.3360   31.6680   36.0450 C   0  0  0  0  0  0  0  0  0  0  0  0
   35.9060   32.1080   36.8710 H   0  0  0  0  0  0  0  0  0  0  0  0
   33.9740   31.6310   36.2710 C   0  0  0  0  0  3  0  0  0  0  0  0
   33.1910   31.0890   35.2730 C   0  0  0  0  0  3  0  0  0  0  0  0
   32.7260   28.7480   33.0050 N   0  0  0  0  0  0  0  0  0  0  0  0
   32.9290   30.0220   33.0230 C   0  0  0  0  0  0  0  0  0  0  0  0
   32.4240   30.9380   32.0490 N   0  0  0  0  0  0  0  0  0  0  0  0
   32.1450   28.3790   32.2090 H   0  0  0  0  0  0  0  0  0  0  0  0
   31.6140   31.3480   32.5880 H   0  0  0  0  0  0  0  0  0  0  0  0
   32.4080   31.4200   31.1220 H   0  0  0  0  0  0  0  0  0  0  0  0
   37.6820   26.8870   31.4390 S   0  0  0  0  0  0  0  0  0  0  0  0
   37.6710   24.6480   33.5970 Cl  0  0  0  0  0  0  0  0  0  0  0  0
   39.0380   25.7110   33.5380 C   0  0  0  0  0  0  0  0  0  0  0  0
   40.0490   25.5070   34.4510 C   0  0  0  0  0  0  0  0  0  0  0  0
   41.1450   26.3570   34.4060 C   0  0  0  0  0  0  0  0  0  0  0  0
   41.1980   27.3520   33.4810 C   0  0  0  0  0  0  0  0  0  0  0  0
   40.1420   27.5090   32.5810 C   0  0  0  0  0  0  0  0  0  0  0  0
   39.0340   26.7100   32.5690 C   0  0  0  0  0  0  0  0  0  0  0  0
   41.9400   26.1970   35.1240 H   0  0  0  0  0  0  0  0  0  0  0  0
   42.0650   28.0030   33.4660 H   0  0  0  0  0  0  0  0  0  0  0  0
   40.2110   28.3120   31.8520 H   0  0  0  0  0  0  0  0  0  0  0  0
   40.8110   22.4080   36.2110 C   0  0  0  0  0  0  0  0  0  0  0  0
   39.8330   22.3350   37.2230 C   0  0  0  0  0  0  0  0  0  0  0  0
   38.9010   23.3840   37.2860 C   0  0  0  0  0  0  0  0  0  0  0  0
   38.9870   24.4000   36.3820 N   0  0  0  0  0  0  0  0  0  0  0  0
   39.9450   24.4130   35.4360 C   0  0  0  0  0  0  0  0  0  0  0  0
   40.8420   23.4300   35.3550 N   0  0  0  0  0  0  0  0  0  0  0  0
   41.5560   21.6240   36.1170 H   0  0  0  0  0  0  0  0  0  0  0  0
   39.8210   21.4950   37.9140 H   0  0  0  0  0  0  0  0  0  0  0  0
   38.1390   23.3680   38.0410 H   0  0  0  0  0  0  0  0  0  0  0  0
  2  7  1  0  0  0  0
  2  1  1  0  0  0  0
  3 25  1  0  0  0  0
  3  2  2  0  0  0  0
  4  5  2  0  0  0  0
  4  3  1  0  0  0  0
  5  6  1  0  0  0  0
  6 10  1  0  0  0  0
  6  7  2  0  0  0  0
  7 12  1  0  0  0  0
  8  4  1  0  0  0  0
  9  5  1  0  0  0  0
 11 18  1  0  0  0  0
 12 11  2  0  0  0  0
 12 13  1  0  0  0  0
 13 15  2  0  0  0  0
 14 13  1  0  0  0  0
 15 17  1  0  0  0  0
 15 16  1  0  0  0  0
 18 17  2  0  0  0  0
 19 20  2  0  0  0  0
 20 11  1  0  0  0  0
 21 23  1  0  0  0  0
 21 20  1  0  0  0  0
 22 19  1  0  0  0  0
 24 21  1  0  0  0  0
 25 32  1  0  0  0  0
 27 26  1  0  0  0  0
 27 28  1  0  0  0  0
 28 40  1  0  0  0  0
 29 28  2  0  0  0  0
 29 33  1  0  0  0  0
 30 29  1  0  0  0  0
 31 30  2  0  0  0  0
 32 31  1  0  0  0  0
 32 27  2  0  0  0  0
 34 30  1  0  0  0  0
 35 31  1  0  0  0  0
 36 37  1  0  0  0  0
 37 38  2  0  0  0  0
 37 43  1  0  0  0  0
 38 44  1  0  0  0  0
 39 38  1  0  0  0  0
 40 39  2  0  0  0  0
 41 40  1  0  0  0  0
 41 36  2  0  0  0  0
 42 36  1  0  0  0  0
M  END
>  <minimizedAffinity>
-5.96091747

$$$$
