
 OpenBabel03262523133D

 34 36  0  0  0  0  0  0  0  0999 V2000
   34.9420   29.3870   48.3620 C   0  0  0  0  0  0  0  0  0  0  0  0
   34.5630   28.1360   48.8140 C   0  0  0  0  0  0  0  0  0  0  0  0
   33.4830   27.6100   48.1580 C   0  0  0  0  0  0  0  0  0  0  0  0
   32.8250   28.2740   47.1320 C   0  0  0  0  0  0  0  0  0  0  0  0
   33.2690   29.5210   46.7450 C   0  0  0  0  0  0  0  0  0  0  0  0
   34.3290   30.0610   47.3720 N   0  0  0  0  0  0  0  0  0  0  0  0
   35.1060   27.6690   49.6080 H   0  0  0  0  0  0  0  0  0  0  0  0
   33.2080   26.6090   48.5430 H   0  0  0  0  0  0  0  0  0  0  0  0
   32.0200   27.6770   46.7760 H   0  0  0  0  0  0  0  0  0  0  0  0
   37.5890   30.2310   50.7800 C   0  0  0  0  0  0  0  0  0  0  0  0
   38.2490   31.2830   50.1370 C   0  0  0  0  0  0  0  0  0  0  0  0
   37.7860   31.6910   48.8940 C   0  0  0  0  0  0  0  0  0  0  0  0
   36.7180   31.0420   48.3800 N   0  0  0  0  0  0  0  0  0  0  0  0
   36.0890   30.0420   48.9880 C   0  0  0  0  0  0  0  0  0  0  0  0
   36.5530   29.6530   50.2030 N   0  0  0  0  0  0  0  0  0  0  0  0
   39.0940   31.7320   50.6400 H   0  0  0  0  0  0  0  0  0  0  0  0
   38.2930   32.5100   48.3860 H   0  0  0  0  0  0  0  0  0  0  0  0
   37.9800   29.7250   52.0630 N   0  0  0  0  0  0  0  0  0  0  0  0
   37.5900   29.8690   53.0160 H   0  0  0  0  0  0  0  0  0  0  0  0
   38.7970   29.1530   51.7540 H   0  0  0  0  0  0  0  0  0  0  0  0
   33.0990   30.6350   44.5120 C   0  0  0  0  0  0  0  0  0  0  0  0
   32.5310   30.1610   45.6710 C   0  0  0  0  0  0  0  0  0  0  0  0
   31.1730   30.3570   45.7170 C   0  0  0  0  0  0  0  0  0  0  0  0
   30.5660   30.0490   46.5450 H   0  0  0  0  0  0  0  0  0  0  0  0
   30.4520   30.9610   44.7140 C   0  0  0  0  0  0  0  0  0  0  0  0
   29.3880   31.1080   44.7650 H   0  0  0  0  0  0  0  0  0  0  0  0
   31.0720   31.4170   43.5750 C   0  0  0  0  0  3  0  0  0  0  0  0
   32.4320   31.2440   43.4800 C   0  0  0  0  0  3  0  0  0  0  0  0
   35.7250   30.8820   44.4930 N   0  0  0  0  0  0  0  0  0  0  0  0
   34.5240   30.5430   44.2890 C   0  0  0  0  0  0  0  0  0  0  0  0
   35.0730   29.5950   43.3480 N   0  0  0  0  0  0  0  0  0  0  0  0
   36.4590   30.3800   43.9540 H   0  0  0  0  0  0  0  0  0  0  0  0
   35.5800   28.7580   43.0130 H   0  0  0  0  0  0  0  0  0  0  0  0
   34.9540   29.7080   42.3130 H   0  0  0  0  0  0  0  0  0  0  0  0
  1  2  1  0  0  0  0
  1 14  1  0  0  0  0
  2  7  1  0  0  0  0
  3  8  1  0  0  0  0
  3  2  2  0  0  0  0
  4  3  1  0  0  0  0
  5  4  2  0  0  0  0
  5  6  1  0  0  0  0
  6  1  2  0  0  0  0
  9  4  1  0  0  0  0
 10 18  1  0  0  0  0
 11 16  1  0  0  0  0
 11 10  2  0  0  0  0
 12 11  1  0  0  0  0
 13 12  2  0  0  0  0
 13 14  1  0  0  0  0
 14 15  2  0  0  0  0
 15 10  1  0  0  0  0
 17 12  1  0  0  0  0
 18 19  1  0  0  0  0
 20 18  1  0  0  0  0
 21 22  1  0  0  0  0
 22 23  2  0  0  0  0
 22  5  1  0  0  0  0
 23 24  1  0  0  0  0
 25 26  1  0  0  0  0
 25 23  1  0  0  0  0
 27 25  2  0  0  0  0
 28 27  1  0  0  0  0
 28 21  2  0  0  0  0
 30 29  2  0  0  0  0
 30 21  1  0  0  0  0
 31 30  1  0  0  0  0
 32 29  1  0  0  0  0
 33 31  1  0  0  0  0
 34 31  1  0  0  0  0
M  END
>  <minimizedAffinity>
-5.56039762

>  <minimizedRMSD>
2.11621976

$$$$
