
 OpenBabel03262520083D

 23 22  0  0  0  0  0  0  0  0999 V2000
   35.7880   30.0980   49.2050 C   0  0  0  0  0  0  0  0  0  0  0  0
   37.0840   30.5380   49.0540 C   0  0  0  0  0  0  0  0  0  0  0  0
   37.9010   30.4050   50.1610 C   0  0  0  0  0  0  0  0  0  0  0  0
   38.9350   30.7430   50.0800 H   0  0  0  0  0  0  0  0  0  0  0  0
   37.3790   29.8620   51.2940 C   0  0  0  0  0  0  0  0  0  0  0  0
   38.0800   29.7940   52.1140 H   0  0  0  0  0  0  0  0  0  0  0  0
   36.0820   29.4200   51.4490 C   0  0  0  0  0  0  0  0  0  0  0  0
   35.2580   29.5480   50.3530 C   0  0  0  0  0  0  0  0  0  0  0  0
   39.1000   32.5810   46.7950 C   0  0  0  0  0  0  0  0  0  0  0  0
   38.6000   32.2710   45.5130 C   0  0  0  0  0  0  0  0  0  0  0  0
   37.5590   31.3470   45.4360 C   0  0  0  0  0  0  0  0  0  0  0  0
   37.0900   30.8060   46.5870 N   0  0  0  0  0  0  0  0  0  0  0  0
   37.5740   31.1100   47.8020 C   0  0  0  0  0  0  0  0  0  0  0  0
   38.5790   32.0010   47.8790 N   0  0  0  0  0  0  0  0  0  0  0  0
   39.8950   33.2900   46.8190 H   0  0  0  0  0  0  0  0  0  0  0  0
   38.9440   32.6790   44.5720 H   0  0  0  0  0  0  0  0  0  0  0  0
   37.0830   31.0190   44.5270 H   0  0  0  0  0  0  0  0  0  0  0  0
   33.9540   30.6660   47.3380 N   0  0  0  0  0  0  0  0  0  0  0  0
   34.8350   30.1870   48.1270 C   0  0  0  0  0  0  0  0  0  0  0  0
   34.5180   29.1650   47.2130 N   0  0  0  0  0  0  0  0  0  0  0  0
   33.5700   30.0500   46.5600 H   0  0  0  0  0  0  0  0  0  0  0  0
   35.1610   28.3400   47.2380 H   0  0  0  0  0 10  0  0  0  0  0  0
   34.7240   28.2360   46.8000 H   0  0  0  0  0  0  0  0  0  0  0  0
  1  8  1  0  0  0  0
  2  1  2  0  0  0  0
  2  3  1  0  0  0  0
  3  5  2  0  0  0  0
  4  3  1  0  0  0  0
  5  7  1  0  0  0  0
  5  6  1  0  0  0  0
  8  7  2  0  0  0  0
  9 15  1  0  0  0  0
  9 14  1  0  0  0  0
 10  9  2  0  0  0  0
 11 10  1  0  0  0  0
 11 12  2  0  0  0  0
 12 13  1  0  0  0  0
 13 14  2  0  0  0  0
 13  2  1  0  0  0  0
 16 10  1  0  0  0  0
 17 11  1  0  0  0  0
 18 19  1  0  0  0  0
 19  1  1  0  0  0  0
 21 18  1  0  0  0  0
 23 20  1  0  0  0  0
M  END
>  <minimizedAffinity>
-5.76804066

>  <minimizedRMSD>
4.08563137

$$$$
