
 OpenBabel03272506063D

 35 37  0  0  0  0  0  0  0  0999 V2000
   34.4220   29.0590   48.1210 C   0  0  0  0  0  0  0  0  0  0  0  0
   34.3780   30.0380   47.0610 C   0  0  0  0  0  0  0  0  0  0  0  0
   32.7900   29.7020   46.3680 S   0  0  0  0  0  0  0  0  0  0  0  0
   32.3860   28.3180   47.5630 C   0  0  0  0  0  0  0  0  0  0  0  0
   33.3710   28.2960   48.2350 N   0  0  0  0  0  0  0  0  0  0  0  0
   35.1540   30.7520   46.8160 H   0  0  0  0  0  0  0  0  0  0  0  0
   31.0040   26.5360   46.6290 C   0  0  0  0  0  0  0  0  0  0  0  0
   31.0810   27.6510   47.4060 C   0  0  0  0  0  0  0  0  0  0  0  0
   29.9230   28.0920   48.0030 C   0  0  0  0  0  0  0  0  0  0  0  0
   29.9580   28.9750   48.6260 H   0  0  0  0  0  0  0  0  0  0  0  0
   28.7640   27.4150   47.8010 C   0  0  0  0  0  0  0  0  0  0  0  0
   27.8870   27.8090   48.2950 H   0  0  0  0  0  0  0  0  0  0  0  0
   28.7020   26.2950   47.0130 C   0  0  0  0  0  3  0  0  0  0  0  0
   29.8430   25.8290   46.4030 C   0  0  0  0  0  3  0  0  0  0  0  0
   33.3840   25.5870   46.0620 N   0  0  0  0  0  0  0  0  0  0  0  0
   32.1800   26.0280   45.9860 C   0  0  0  0  0  0  0  0  0  0  0  0
   32.2280   25.8550   44.5550 N   0  0  0  0  0  0  0  0  0  0  0  0
   33.8890   25.3050   45.1940 H   0  0  0  0  0  0  0  0  0  0  0  0
   32.6310   26.3030   43.6800 H   0  0  0  0  0  0  0  0  0  0  0  0
   31.7090   25.0200   44.1580 H   0  0  0  0  0  0  0  0  0  0  0  0
   35.6420   29.0000   48.9890 C   0  0  0  0  0  0  0  0  0  0  0  0
   35.6330   28.0750   49.6010 H   0  0  0  0  0  0  0  0  0  0  0  0
   36.5560   28.8960   48.3330 H   0  0  0  0  0  0  0  0  0  0  0  0
   35.7490   30.1780   49.8910 C   0  0  0  0  0  0  0  0  0  0  0  0
   34.8070   30.7250   49.9530 H   0  0  0  0  0  0  0  0  0  0  0  0
   35.9950   29.8670   50.9430 H   0  0  0  0  0  0  0  0  0  0  0  0
   37.9140   33.1450   49.4000 C   0  0  0  0  0  0  0  0  0  0  0  0
   38.7810   32.7470   48.3840 C   0  0  0  0  0  0  0  0  0  0  0  0
   38.6130   31.4500   47.8690 C   0  0  0  0  0  0  0  0  0  0  0  0
   37.6270   30.6740   48.3900 N   0  0  0  0  0  0  0  0  0  0  0  0
   36.8160   31.1230   49.3820 C   0  0  0  0  0  0  0  0  0  0  0  0
   36.9520   32.3510   49.8890 N   0  0  0  0  0  0  0  0  0  0  0  0
   37.9930   34.1210   49.8320 H   0  0  0  0  0  0  0  0  0  0  0  0
   39.5300   33.4360   48.0390 H   0  0  0  0  0  0  0  0  0  0  0  0
   39.2660   31.1190   47.0870 H   0  0  0  0  0  0  0  0  0  0  0  0
  1  5  1  0  0  0  0
  1 21  1  0  0  0  0
  2  1  2  0  0  0  0
  3  2  1  0  0  0  0
  3  4  1  0  0  0  0
  4  5  2  0  0  0  0
  6  2  1  0  0  0  0
  7  8  1  0  0  0  0
  8  4  1  0  0  0  0
  8  9  2  0  0  0  0
  9 10  1  0  0  0  0
 11  9  1  0  0  0  0
 11 12  1  0  0  0  0
 13 11  2  0  0  0  0
 14  7  2  0  0  0  0
 14 13  1  0  0  0  0
 16 15  2  0  0  0  0
 16  7  1  0  0  0  0
 17 16  1  0  0  0  0
 18 15  1  0  0  0  0
 19 17  1  0  0  0  0
 20 17  1  0  0  0  0
 21 22  1  0  0  0  0
 21 24  1  0  0  0  0
 23 21  1  0  0  0  0
 24 25  1  0  0  0  0
 24 26  1  0  0  0  0
 27 33  1  0  0  0  0
 27 32  1  0  0  0  0
 28 27  2  0  0  0  0
 29 28  1  0  0  0  0
 29 30  2  0  0  0  0
 30 31  1  0  0  0  0
 31 32  2  0  0  0  0
 31 24  1  0  0  0  0
 34 28  1  0  0  0  0
 35 29  1  0  0  0  0
M  END
>  <minimizedAffinity>
-4.72372961

>  <minimizedRMSD>
1.43305135

$$$$
