
 OpenBabel03262521103D

 27 29  0  0  0  0  0  0  0  0999 V2000
   34.7050   25.6100   31.0390 O   0  0  0  0  0  0  0  0  0  0  0  0
   36.0950   26.2220   31.1890 P   0  0  1  0  0  0  0  0  0  0  0  0
   36.3990   27.3260   29.9480 O   0  0  0  0  0  0  0  0  0  0  0  0
   36.8650   28.1300   30.2760 H   0  0  0  0  0  0  0  0  0  0  0  0
   36.2480   27.0900   32.6690 O   0  0  0  0  0  0  0  0  0  0  0  0
   37.3910   27.0370   33.4500 C   0  0  0  0  0  0  0  0  0  0  0  0
   38.7140   27.1500   32.9900 C   0  0  0  0  0  0  0  0  0  0  0  0
   39.7380   27.0730   33.9190 C   0  0  0  0  0  0  0  0  0  0  0  0
   39.4280   26.8900   35.2370 N   0  0  0  0  0  0  0  0  0  0  0  0
   38.1260   26.7820   35.6550 C   0  0  0  0  0  0  0  0  0  0  0  0
   37.1250   26.8580   34.7480 N   0  0  0  0  0  0  0  0  0  0  0  0
   38.8070   27.2920   31.9220 H   0  0  0  0  0  0  0  0  0  0  0  0
   40.7280   27.1610   33.5470 H   0  0  0  0  0  0  0  0  0  0  0  0
   37.9700   26.6390   36.7200 H   0  0  0  0  0  0  0  0  0  0  0  0
   37.1800   24.9360   31.1770 O   0  0  0  0  0  0  0  0  0  0  0  0
   34.9500   23.6790   32.4200 H   0  0  0  0  0  0  0  0  0  0  0  0
   35.6530   23.1220   31.9180 N   0  0  0  0  0  0  0  0  0  0  0  0
   36.7490   23.6240   31.2950 C   0  0  0  0  0  0  0  0  0  0  0  0
   37.4240   22.5930   30.7570 N   0  0  0  0  0  0  0  0  0  0  0  0
   36.7880   21.4510   31.0220 C   0  0  0  0  0  0  0  0  0  0  0  0
   36.9330   20.1000   30.7750 C   0  0  0  0  0  0  0  0  0  0  0  0
   37.8040   19.8010   30.1990 H   0  0  0  0  0  0  0  0  0  0  0  0
   36.0260   19.2000   31.2360 N   0  0  0  0  0  0  0  0  0  0  0  0
   34.9610   19.5840   31.9420 C   0  0  0  0  0  0  0  0  0  0  0  0
   34.2050   18.9080   32.3330 H   0  0  0  0  0  0  0  0  0  0  0  0
   34.7180   20.8920   32.2430 N   0  0  0  0  0  0  0  0  0  0  0  0
   35.6490   21.7650   31.7640 C   0  0  0  0  0  0  0  0  0  0  0  0
  2  1  2  6  0  0  0
  2  5  1  0  0  0  0
  3  4  1  0  0  0  0
  3  2  1  0  0  0  0
  5  6  1  0  0  0  0
  6 11  1  0  0  0  0
  7  6  2  0  0  0  0
  7  8  1  0  0  0  0
  8  9  2  0  0  0  0
  9 10  1  0  0  0  0
 10 14  1  0  0  0  0
 11 10  2  0  0  0  0
 12  7  1  0  0  0  0
 13  8  1  0  0  0  0
 15  2  1  0  0  0  0
 15 18  1  0  0  0  0
 17 16  1  0  0  0  0
 18 17  1  0  0  0  0
 19 20  1  0  0  0  0
 19 18  2  0  0  0  0
 20 27  1  0  0  0  0
 21 20  2  0  0  0  0
 21 23  1  0  0  0  0
 22 21  1  0  0  0  0
 23 24  2  0  0  0  0
 24 26  1  0  0  0  0
 24 25  1  0  0  0  0
 27 17  1  0  0  0  0
 27 26  2  0  0  0  0
M  END
>  <minimizedAffinity>
-4.90447044

$$$$

 OpenBabel03262521103D

 27 29  0  0  0  0  0  0  0  0999 V2000
   37.3320   28.1950   35.3150 O   0  0  0  0  0  0  0  0  0  0  0  0
   38.1050   26.8970   35.0970 P   0  0  1  0  0  0  0  0  0  0  0  0
   39.6920   27.0460   35.6520 O   0  0  0  0  0  0  0  0  0  0  0  0
   39.9970   26.2330   36.1180 H   0  0  0  0  0  0  0  0  0  0  0  0
   37.3990   25.5870   35.9650 O   0  0  0  0  0  0  0  0  0  0  0  0
   38.1550   24.6800   36.6890 C   0  0  0  0  0  0  0  0  0  0  0  0
   37.9550   24.3210   38.0320 C   0  0  0  0  0  0  0  0  0  0  0  0
   38.8140   23.3920   38.5960 C   0  0  0  0  0  0  0  0  0  0  0  0
   39.8150   22.8630   37.8310 N   0  0  0  0  0  0  0  0  0  0  0  0
   39.9850   23.2340   36.5220 C   0  0  0  0  0  0  0  0  0  0  0  0
   39.1460   24.1420   35.9720 N   0  0  0  0  0  0  0  0  0  0  0  0
   37.1240   24.8200   38.5110 H   0  0  0  0  0  0  0  0  0  0  0  0
   38.6420   23.1370   39.6120 H   0  0  0  0  0  0  0  0  0  0  0  0
   40.8060   22.7640   35.9880 H   0  0  0  0  0  0  0  0  0  0  0  0
   38.0350   26.5790   33.4450 O   0  0  0  0  0  0  0  0  0  0  0  0
   39.0690   23.9400   33.6960 H   0  0  0  0  0  0  0  0  0  0  0  0
   38.2210   24.1210   33.1440 N   0  0  0  0  0  0  0  0  0  0  0  0
   37.6500   25.3390   32.9630 C   0  0  0  0  0  0  0  0  0  0  0  0
   36.5650   25.1730   32.1860 N   0  0  0  0  0  0  0  0  0  0  0  0
   36.4320   23.8840   31.8680 C   0  0  0  0  0  0  0  0  0  0  0  0
   35.5800   23.0770   31.1410 C   0  0  0  0  0  0  0  0  0  0  0  0
   34.7440   23.5680   30.6510 H   0  0  0  0  0  0  0  0  0  0  0  0
   35.7880   21.7380   31.0490 N   0  0  0  0  0  0  0  0  0  0  0  0
   36.8190   21.1500   31.6580 C   0  0  0  0  0  0  0  0  0  0  0  0
   37.0330   20.0840   31.6190 H   0  0  0  0  0  0  0  0  0  0  0  0
   37.7220   21.8500   32.4030 N   0  0  0  0  0  0  0  0  0  0  0  0
   37.4810   23.1900   32.4720 C   0  0  0  0  0  0  0  0  0  0  0  0
  2  1  2  1  0  0  0
  2  3  1  0  0  0  0
  2  5  1  0  0  0  0
  3  4  1  0  0  0  0
  5  6  1  0  0  0  0
  6  7  1  0  0  0  0
  7 12  1  0  0  0  0
  7  8  2  0  0  0  0
  8 13  1  0  0  0  0
  9  8  1  0  0  0  0
 10  9  2  0  0  0  0
 11 10  1  0  0  0  0
 11  6  2  0  0  0  0
 14 10  1  0  0  0  0
 15  2  1  0  0  0  0
 17 16  1  0  0  0  0
 18 17  1  0  0  0  0
 18 15  1  0  0  0  0
 19 18  2  0  0  0  0
 20 19  1  0  0  0  0
 20 27  1  0  0  0  0
 21 20  2  0  0  0  0
 22 21  1  0  0  0  0
 23 21  1  0  0  0  0
 23 24  2  0  0  0  0
 24 26  1  0  0  0  0
 25 24  1  0  0  0  0
 26 27  2  0  0  0  0
 27 17  1  0  0  0  0
M  END
>  <minimizedAffinity>
-4.87015438

$$$$

 OpenBabel03262521103D

 27 29  0  0  0  0  0  0  0  0999 V2000
   37.2120   29.0990   31.4790 O   0  0  0  0  0  0  0  0  0  0  0  0
   36.2690   27.8990   31.4530 P   0  0  1  0  0  0  0  0  0  0  0  0
   36.1070   27.3000   29.8830 O   0  0  0  0  0  0  0  0  0  0  0  0
   36.1000   26.3140   29.8640 H   0  0  0  0  0  0  0  0  0  0  0  0
   36.8670   26.6030   32.4170 O   0  0  0  0  0  0  0  0  0  0  0  0
   37.7780   26.7950   33.4420 C   0  0  0  0  0  0  0  0  0  0  0  0
   39.1760   26.6990   33.3370 C   0  0  0  0  0  0  0  0  0  0  0  0
   39.9340   26.9250   34.4740 C   0  0  0  0  0  0  0  0  0  0  0  0
   39.3010   27.2310   35.6450 N   0  0  0  0  0  0  0  0  0  0  0  0
   37.9340   27.3170   35.7160 C   0  0  0  0  0  0  0  0  0  0  0  0
   37.1930   27.0970   34.6060 N   0  0  0  0  0  0  0  0  0  0  0  0
   39.5350   26.4500   32.3480 H   0  0  0  0  0  0  0  0  0  0  0  0
   40.9870   26.8460   34.3690 H   0  0  0  0  0  0  0  0  0  0  0  0
   37.5140   27.5660   36.6860 H   0  0  0  0  0  0  0  0  0  0  0  0
   34.8040   28.4380   32.0830 O   0  0  0  0  0  0  0  0  0  0  0  0
   36.7350   29.9270   33.5500 H   0  0  0  0  0  0  0  0  0  0  0  0
   35.7480   29.9220   33.8370 N   0  0  0  0  0  0  0  0  0  0  0  0
   34.7540   29.2470   33.2070 C   0  0  0  0  0  0  0  0  0  0  0  0
   33.6090   29.4830   33.8740 N   0  0  0  0  0  0  0  0  0  0  0  0
   33.8500   30.2900   34.9090 C   0  0  0  0  0  0  0  0  0  0  0  0
   33.1560   30.8910   35.9400 C   0  0  0  0  0  0  0  0  0  0  0  0
   32.0880   30.6940   35.9880 H   0  0  0  0  0  0  0  0  0  0  0  0
   33.7860   31.6860   36.8420 N   0  0  0  0  0  0  0  0  0  0  0  0
   35.0980   31.9180   36.7680 C   0  0  0  0  0  0  0  0  0  0  0  0
   35.6530   32.5450   37.4620 H   0  0  0  0  0  0  0  0  0  0  0  0
   35.8810   31.3770   35.7920 N   0  0  0  0  0  0  0  0  0  0  0  0
   35.2140   30.5850   34.9050 C   0  0  0  0  0  0  0  0  0  0  0  0
  2  1  2  1  0  0  0
  2 15  1  0  0  0  0
  2  5  1  0  0  0  0
  3  2  1  0  0  0  0
  4  3  1  0  0  0  0
  5  6  1  0  0  0  0
  6 11  1  0  0  0  0
  7  6  2  0  0  0  0
  7  8  1  0  0  0  0
  8  9  2  0  0  0  0
  9 10  1  0  0  0  0
 10 14  1  0  0  0  0
 11 10  2  0  0  0  0
 12  7  1  0  0  0  0
 13  8  1  0  0  0  0
 15 18  1  0  0  0  0
 16 17  1  0  0  0  0
 17 27  1  0  0  0  0
 18 17  1  0  0  0  0
 18 19  2  0  0  0  0
 19 20  1  0  0  0  0
 20 21  1  0  0  0  0
 21 22  1  0  0  0  0
 21 23  2  0  0  0  0
 24 23  1  0  0  0  0
 24 25  1  0  0  0  0
 26 24  2  0  0  0  0
 27 20  2  0  0  0  0
 27 26  1  0  0  0  0
M  END
>  <minimizedAffinity>
-4.80588913

$$$$

 OpenBabel03262521103D

 27 29  0  0  0  0  0  0  0  0999 V2000
   37.4820   24.1850   30.3640 O   0  0  0  0  0  0  0  0  0  0  0  0
   37.1160   23.8540   31.8080 P   0  0  1  0  0  0  0  0  0  0  0  0
   36.8060   25.2640   32.6840 O   0  0  0  0  0  0  0  0  0  0  0  0
   36.0350   25.1610   33.2890 H   0  0  0  0  0  0  0  0  0  0  0  0
   35.6870   22.8950   31.8960 O   0  0  0  0  0  0  0  0  0  0  0  0
   35.7210   21.5130   31.9660 C   0  0  0  0  0  0  0  0  0  0  0  0
   35.4270   20.7330   33.0970 C   0  0  0  0  0  0  0  0  0  0  0  0
   35.5130   19.3560   32.9830 C   0  0  0  0  0  0  0  0  0  0  0  0
   35.8790   18.8100   31.7840 N   0  0  0  0  0  0  0  0  0  0  0  0
   36.1610   19.5980   30.6980 C   0  0  0  0  0  0  0  0  0  0  0  0
   36.0760   20.9440   30.8100 N   0  0  0  0  0  0  0  0  0  0  0  0
   35.1520   21.3020   33.9750 H   0  0  0  0  0  0  0  0  0  0  0  0
   35.2860   18.7890   33.8510 H   0  0  0  0  0  0  0  0  0  0  0  0
   36.4430   19.0810   29.7850 H   0  0  0  0  0  0  0  0  0  0  0  0
   38.4150   22.9870   32.4360 O   0  0  0  0  0  0  0  0  0  0  0  0
   37.1030   24.0240   34.7380 H   0  0  0  0  0  0  0  0  0  0  0  0
   37.9910   23.5130   34.8260 N   0  0  0  0  0  0  0  0  0  0  0  0
   38.6920   22.9810   33.7930 C   0  0  0  0  0  0  0  0  0  0  0  0
   39.7910   22.3960   34.3010 N   0  0  0  0  0  0  0  0  0  0  0  0
   39.8070   22.5400   35.6270 C   0  0  0  0  0  0  0  0  0  0  0  0
   40.6040   22.1960   36.7000 C   0  0  0  0  0  0  0  0  0  0  0  0
   41.5090   21.6380   36.4750 H   0  0  0  0  0  0  0  0  0  0  0  0
   40.2650   22.5420   37.9690 N   0  0  0  0  0  0  0  0  0  0  0  0
   39.1500   23.2270   38.2280 C   0  0  0  0  0  0  0  0  0  0  0  0
   38.8290   23.5300   39.2230 H   0  0  0  0  0  0  0  0  0  0  0  0
   38.2890   23.6190   37.2460 N   0  0  0  0  0  0  0  0  0  0  0  0
   38.6620   23.2530   35.9870 C   0  0  0  0  0  0  0  0  0  0  0  0
  2  1  2  6  0  0  0
  2  5  1  0  0  0  0
  2 15  1  0  0  0  0
  2  3  1  0  0  0  0
  3  4  1  0  0  0  0
  5  6  1  0  0  0  0
  6  7  1  0  0  0  0
  7 12  1  0  0  0  0
  8  7  2  0  0  0  0
  8 13  1  0  0  0  0
  9  8  1  0  0  0  0
 10 11  1  0  0  0  0
 10  9  2  0  0  0  0
 11  6  2  0  0  0  0
 14 10  1  0  0  0  0
 15 18  1  0  0  0  0
 16 17  1  0  0  0  0
 17 27  1  0  0  0  0
 18 19  2  0  0  0  0
 18 17  1  0  0  0  0
 19 20  1  0  0  0  0
 20 27  2  0  0  0  0
 20 21  1  0  0  0  0
 21 23  2  0  0  0  0
 22 21  1  0  0  0  0
 23 24  1  0  0  0  0
 24 25  1  0  0  0  0
 26 24  2  0  0  0  0
 27 26  1  0  0  0  0
M  END
>  <minimizedAffinity>
-4.6425004

$$$$

 OpenBabel03262521103D

 27 29  0  0  0  0  0  0  0  0999 V2000
   39.7710   22.5960   35.7670 O   0  0  0  0  0  0  0  0  0  0  0  0
   38.7340   23.0750   36.7790 P   0  0  1  0  0  0  0  0  0  0  0  0
   39.2730   22.8140   38.3570 O   0  0  0  0  0  0  0  0  0  0  0  0
   39.0550   23.5690   38.9510 H   0  0  0  0  0  0  0  0  0  0  0  0
   38.4420   24.7670   36.6320 O   0  0  0  0  0  0  0  0  0  0  0  0
   38.6840   25.4660   35.4620 C   0  0  0  0  0  0  0  0  0  0  0  0
   39.7180   26.3950   35.2510 C   0  0  0  0  0  0  0  0  0  0  0  0
   39.8090   27.0010   34.0090 C   0  0  0  0  0  0  0  0  0  0  0  0
   38.8980   26.6780   33.0430 N   0  0  0  0  0  0  0  0  0  0  0  0
   37.9000   25.7680   33.2800 C   0  0  0  0  0  0  0  0  0  0  0  0
   37.8110   25.1750   34.4930 N   0  0  0  0  0  0  0  0  0  0  0  0
   40.3630   26.5500   36.1060 H   0  0  0  0  0  0  0  0  0  0  0  0
   40.5970   27.6990   33.8750 H   0  0  0  0  0  0  0  0  0  0  0  0
   37.2200   25.5700   32.4560 H   0  0  0  0  0  0  0  0  0  0  0  0
   37.3200   22.2290   36.4400 O   0  0  0  0  0  0  0  0  0  0  0  0
   38.4610   22.6820   33.8740 H   0  0  0  0  0  0  0  0  0  0  0  0
   37.6470   22.0640   33.9840 N   0  0  0  0  0  0  0  0  0  0  0  0
   37.0310   21.7840   35.1600 C   0  0  0  0  0  0  0  0  0  0  0  0
   36.0130   20.9440   34.9020 N   0  0  0  0  0  0  0  0  0  0  0  0
   35.9660   20.6830   33.5940 C   0  0  0  0  0  0  0  0  0  0  0  0
   35.2090   19.9390   32.7110 C   0  0  0  0  0  0  0  0  0  0  0  0
   34.3870   19.3680   33.1340 H   0  0  0  0  0  0  0  0  0  0  0  0
   35.4880   19.9300   31.3820 N   0  0  0  0  0  0  0  0  0  0  0  0
   36.5010   20.6360   30.8780 C   0  0  0  0  0  0  0  0  0  0  0  0
   36.7690   20.6640   29.8240 H   0  0  0  0  0  0  0  0  0  0  0  0
   37.3140   21.4050   31.6580 N   0  0  0  0  0  0  0  0  0  0  0  0
   37.0040   21.3890   32.9860 C   0  0  0  0  0  0  0  0  0  0  0  0
  2  1  2  6  0  0  0
  2  3  1  0  0  0  0
  3  4  1  0  0  0  0
  5  2  1  0  0  0  0
  6  5  1  0  0  0  0
  7  6  1  0  0  0  0
  7 12  1  0  0  0  0
  8  7  2  0  0  0  0
  9 10  2  0  0  0  0
  9  8  1  0  0  0  0
 10 11  1  0  0  0  0
 11  6  2  0  0  0  0
 13  8  1  0  0  0  0
 14 10  1  0  0  0  0
 15  2  1  0  0  0  0
 16 17  1  0  0  0  0
 17 18  1  0  0  0  0
 18 15  1  0  0  0  0
 19 18  2  0  0  0  0
 20 19  1  0  0  0  0
 21 22  1  0  0  0  0
 21 20  2  0  0  0  0
 23 21  1  0  0  0  0
 24 23  2  0  0  0  0
 24 26  1  0  0  0  0
 25 24  1  0  0  0  0
 26 27  2  0  0  0  0
 27 20  1  0  0  0  0
 27 17  1  0  0  0  0
M  END
>  <minimizedAffinity>
-4.60385132

$$$$

 OpenBabel03262521103D

 27 29  0  0  0  0  0  0  0  0999 V2000
   39.1480   25.6540   31.2130 O   0  0  0  0  0  0  0  0  0  0  0  0
   37.9110   24.9550   31.7710 P   0  0  1  0  0  0  0  0  0  0  0  0
   36.5950   25.1480   30.7310 O   0  0  0  0  0  0  0  0  0  0  0  0
   36.0640   24.3220   30.6500 H   0  0  0  0  0  0  0  0  0  0  0  0
   38.1640   23.2590   31.9360 O   0  0  0  0  0  0  0  0  0  0  0  0
   37.1240   22.3670   32.1390 C   0  0  0  0  0  0  0  0  0  0  0  0
   36.2010   21.9360   31.1700 C   0  0  0  0  0  0  0  0  0  0  0  0
   35.2220   21.0350   31.5550 C   0  0  0  0  0  0  0  0  0  0  0  0
   35.1890   20.6020   32.8500 N   0  0  0  0  0  0  0  0  0  0  0  0
   36.1030   21.0420   33.7730 C   0  0  0  0  0  0  0  0  0  0  0  0
   37.0600   21.9210   33.3970 N   0  0  0  0  0  0  0  0  0  0  0  0
   36.3510   22.3630   30.1880 H   0  0  0  0  0  0  0  0  0  0  0  0
   34.5370   20.7250   30.8050 H   0  0  0  0  0  0  0  0  0  0  0  0
   36.0040   20.6460   34.7800 H   0  0  0  0  0  0  0  0  0  0  0  0
   37.6300   25.6310   33.2860 O   0  0  0  0  0  0  0  0  0  0  0  0
   39.7110   23.7880   33.8910 H   0  0  0  0  0  0  0  0  0  0  0  0
   39.0900   24.1380   34.6310 N   0  0  0  0  0  0  0  0  0  0  0  0
   38.0720   25.0160   34.4460 C   0  0  0  0  0  0  0  0  0  0  0  0
   37.4920   25.2310   35.6410 N   0  0  0  0  0  0  0  0  0  0  0  0
   38.1150   24.5140   36.5780 C   0  0  0  0  0  0  0  0  0  0  0  0
   38.0310   24.2870   37.9370 C   0  0  0  0  0  0  0  0  0  0  0  0
   37.2470   24.8160   38.4720 H   0  0  0  0  0  0  0  0  0  0  0  0
   38.8910   23.4430   38.5640 N   0  0  0  0  0  0  0  0  0  0  0  0
   39.8490   22.8020   37.8920 C   0  0  0  0  0  0  0  0  0  0  0  0
   40.5640   22.1170   38.3420 H   0  0  0  0  0  0  0  0  0  0  0  0
   40.0240   22.9520   36.5480 N   0  0  0  0  0  0  0  0  0  0  0  0
   39.1430   23.8060   35.9540 C   0  0  0  0  0  0  0  0  0  0  0  0
  2  1  2  6  0  0  0
  2  5  1  0  0  0  0
  2 15  1  0  0  0  0
  3  2  1  0  0  0  0
  4  3  1  0  0  0  0
  5  6  1  0  0  0  0
  6 11  1  0  0  0  0
  7  8  1  0  0  0  0
  7  6  2  0  0  0  0
  8  9  2  0  0  0  0
  9 10  1  0  0  0  0
 10 14  1  0  0  0  0
 11 10  2  0  0  0  0
 12  7  1  0  0  0  0
 13  8  1  0  0  0  0
 15 18  1  0  0  0  0
 16 17  1  0  0  0  0
 17 27  1  0  0  0  0
 18 17  1  0  0  0  0
 18 19  2  0  0  0  0
 19 20  1  0  0  0  0
 20 21  1  0  0  0  0
 21 22  1  0  0  0  0
 21 23  2  0  0  0  0
 24 25  1  0  0  0  0
 24 23  1  0  0  0  0
 26 24  2  0  0  0  0
 27 26  1  0  0  0  0
 27 20  2  0  0  0  0
M  END
>  <minimizedAffinity>
-4.58231163

$$$$

 OpenBabel03262521103D

 27 29  0  0  0  0  0  0  0  0999 V2000
   36.6710   24.5070   32.2550 O   0  0  0  0  0  0  0  0  0  0  0  0
   37.8990   25.0980   31.5680 P   0  0  1  0  0  0  0  0  0  0  0  0
   38.0170   24.5450   29.9770 O   0  0  0  0  0  0  0  0  0  0  0  0
   38.2960   25.2600   29.3580 H   0  0  0  0  0  0  0  0  0  0  0  0
   37.8130   26.8170   31.4870 O   0  0  0  0  0  0  0  0  0  0  0  0
   36.9540   27.5580   32.2810 C   0  0  0  0  0  0  0  0  0  0  0  0
   35.8390   28.2890   31.8370 C   0  0  0  0  0  0  0  0  0  0  0  0
   35.0890   28.9750   32.7780 C   0  0  0  0  0  0  0  0  0  0  0  0
   35.4580   28.9170   34.0920 N   0  0  0  0  0  0  0  0  0  0  0  0
   36.5520   28.1950   34.4940 C   0  0  0  0  0  0  0  0  0  0  0  0
   37.2850   27.5240   33.5750 N   0  0  0  0  0  0  0  0  0  0  0  0
   35.6690   28.2430   30.7690 H   0  0  0  0  0  0  0  0  0  0  0  0
   34.2520   29.5190   32.4170 H   0  0  0  0  0  0  0  0  0  0  0  0
   36.7730   28.2020   35.5580 H   0  0  0  0  0  0  0  0  0  0  0  0
   39.2240   24.6440   32.5000 O   0  0  0  0  0  0  0  0  0  0  0  0
   37.3860   25.4280   34.5260 H   0  0  0  0  0  0  0  0  0  0  0  0
   38.1700   24.7990   34.7440 N   0  0  0  0  0  0  0  0  0  0  0  0
   39.0970   24.3680   33.8520 C   0  0  0  0  0  0  0  0  0  0  0  0
   39.9560   23.5660   34.5070 N   0  0  0  0  0  0  0  0  0  0  0  0
   39.5990   23.4760   35.7890 C   0  0  0  0  0  0  0  0  0  0  0  0
   40.0250   22.8500   36.9440 C   0  0  0  0  0  0  0  0  0  0  0  0
   40.9120   22.2280   36.8610 H   0  0  0  0  0  0  0  0  0  0  0  0
   39.3610   23.0130   38.1170 N   0  0  0  0  0  0  0  0  0  0  0  0
   38.2730   23.7810   38.2010 C   0  0  0  0  0  0  0  0  0  0  0  0
   37.7030   23.9460   39.1120 H   0  0  0  0  0  0  0  0  0  0  0  0
   37.7640   24.4440   37.1240 N   0  0  0  0  0  0  0  0  0  0  0  0
   38.4560   24.2570   35.9640 C   0  0  0  0  0  0  0  0  0  0  0  0
  2  1  2  1  0  0  0
  2 15  1  0  0  0  0
  3  2  1  0  0  0  0
  4  3  1  0  0  0  0
  5  2  1  0  0  0  0
  5  6  1  0  0  0  0
  6 11  1  0  0  0  0
  7  6  2  0  0  0  0
  7  8  1  0  0  0  0
  8  9  2  0  0  0  0
  9 10  1  0  0  0  0
 10 14  1  0  0  0  0
 11 10  2  0  0  0  0
 12  7  1  0  0  0  0
 13  8  1  0  0  0  0
 15 18  1  0  0  0  0
 16 17  1  0  0  0  0
 17 27  1  0  0  0  0
 18 19  2  0  0  0  0
 18 17  1  0  0  0  0
 19 20  1  0  0  0  0
 20 27  2  0  0  0  0
 20 21  1  0  0  0  0
 21 23  2  0  0  0  0
 22 21  1  0  0  0  0
 23 24  1  0  0  0  0
 24 25  1  0  0  0  0
 26 24  2  0  0  0  0
 27 26  1  0  0  0  0
M  END
>  <minimizedAffinity>
-4.53310108

$$$$

 OpenBabel03262521103D

 27 29  0  0  0  0  0  0  0  0999 V2000
   38.9560   27.4770   35.4320 O   0  0  0  0  0  0  0  0  0  0  0  0
   37.7940   26.6720   34.8580 P   0  0  1  0  0  0  0  0  0  0  0  0
   36.3790   27.5930   34.8380 O   0  0  0  0  0  0  0  0  0  0  0  0
   35.8600   27.4540   34.0120 H   0  0  0  0  0  0  0  0  0  0  0  0
   38.0960   26.1980   33.2290 O   0  0  0  0  0  0  0  0  0  0  0  0
   37.1700   25.5000   32.4720 C   0  0  0  0  0  0  0  0  0  0  0  0
   36.1600   26.0630   31.6740 C   0  0  0  0  0  0  0  0  0  0  0  0
   35.3200   25.2070   30.9820 C   0  0  0  0  0  0  0  0  0  0  0  0
   35.5020   23.8570   31.0990 N   0  0  0  0  0  0  0  0  0  0  0  0
   36.4980   23.3390   31.8870 C   0  0  0  0  0  0  0  0  0  0  0  0
   37.3190   24.1750   32.5620 N   0  0  0  0  0  0  0  0  0  0  0  0
   36.1360   27.1440   31.6770 H   0  0  0  0  0  0  0  0  0  0  0  0
   34.5650   25.6560   30.3860 H   0  0  0  0  0  0  0  0  0  0  0  0
   36.5730   22.2550   31.9220 H   0  0  0  0  0  0  0  0  0  0  0  0
   37.6480   25.3010   35.8230 O   0  0  0  0  0  0  0  0  0  0  0  0
   39.4960   24.2020   33.9600 H   0  0  0  0  0  0  0  0  0  0  0  0
   39.5020   23.9010   34.9430 N   0  0  0  0  0  0  0  0  0  0  0  0
   38.6650   24.3630   35.9060 C   0  0  0  0  0  0  0  0  0  0  0  0
   38.9750   23.7370   37.0550 N   0  0  0  0  0  0  0  0  0  0  0  0
   39.9850   22.8910   36.8480 C   0  0  0  0  0  0  0  0  0  0  0  0
   40.7490   21.9900   37.5640 C   0  0  0  0  0  0  0  0  0  0  0  0
   40.5140   21.8830   38.6190 H   0  0  0  0  0  0  0  0  0  0  0  0
   41.7400   21.2780   36.9670 N   0  0  0  0  0  0  0  0  0  0  0  0
   42.0160   21.4220   35.6700 C   0  0  0  0  0  0  0  0  0  0  0  0
   42.7970   20.8800   35.1420 H   0  0  0  0  0  0  0  0  0  0  0  0
   41.3270   22.2830   34.8680 N   0  0  0  0  0  0  0  0  0  0  0  0
   40.3400   22.9800   35.5010 C   0  0  0  0  0  0  0  0  0  0  0  0
  2  1  2  1  0  0  0
  2 15  1  0  0  0  0
  3  2  1  0  0  0  0
  4  3  1  0  0  0  0
  5  2  1  0  0  0  0
  6 11  1  0  0  0  0
  6  5  1  0  0  0  0
  7 12  1  0  0  0  0
  7  6  2  0  0  0  0
  8  9  2  0  0  0  0
  8  7  1  0  0  0  0
  9 10  1  0  0  0  0
 10 14  1  0  0  0  0
 10 11  2  0  0  0  0
 13  8  1  0  0  0  0
 15 18  1  0  0  0  0
 16 17  1  0  0  0  0
 17 27  1  0  0  0  0
 17 18  1  0  0  0  0
 18 19  2  0  0  0  0
 20 19  1  0  0  0  0
 20 21  1  0  0  0  0
 21 22  1  0  0  0  0
 23 21  2  0  0  0  0
 24 23  1  0  0  0  0
 25 24  1  0  0  0  0
 26 27  1  0  0  0  0
 26 24  2  0  0  0  0
 27 20  2  0  0  0  0
M  END
>  <minimizedAffinity>
-4.51088047

$$$$

 OpenBabel03262521103D

 27 29  0  0  0  0  0  0  0  0999 V2000
   40.0470   27.3770   32.8980 O   0  0  0  0  0  0  0  0  0  0  0  0
   38.6850   26.8710   32.4300 P   0  0  1  0  0  0  0  0  0  0  0  0
   37.9510   27.9920   31.4040 O   0  0  0  0  0  0  0  0  0  0  0  0
   37.5010   27.5560   30.6430 H   0  0  0  0  0  0  0  0  0  0  0  0
   38.8280   25.4040   31.5370 O   0  0  0  0  0  0  0  0  0  0  0  0
   37.7800   24.5090   31.4030 C   0  0  0  0  0  0  0  0  0  0  0  0
   37.8710   23.1090   31.4900 C   0  0  0  0  0  0  0  0  0  0  0  0
   36.7120   22.3680   31.3290 C   0  0  0  0  0  0  0  0  0  0  0  0
   35.5340   23.0180   31.0930 N   0  0  0  0  0  0  0  0  0  0  0  0
   35.4780   24.3860   31.0130 C   0  0  0  0  0  0  0  0  0  0  0  0
   36.6100   25.1110   31.1700 N   0  0  0  0  0  0  0  0  0  0  0  0
   38.8680   22.7350   31.6820 H   0  0  0  0  0  0  0  0  0  0  0  0
   36.8070   21.3130   31.4000 H   0  0  0  0  0  0  0  0  0  0  0  0
   34.5010   24.8210   30.8230 H   0  0  0  0  0  0  0  0  0  0  0  0
   37.7820   26.5950   33.8230 O   0  0  0  0  0  0  0  0  0  0  0  0
   39.8900   24.6920   33.9960 H   0  0  0  0  0  0  0  0  0  0  0  0
   39.2430   24.8300   34.7830 N   0  0  0  0  0  0  0  0  0  0  0  0
   38.2100   25.7100   34.8000 C   0  0  0  0  0  0  0  0  0  0  0  0
   37.5980   25.6020   35.9920 N   0  0  0  0  0  0  0  0  0  0  0  0
   38.2140   24.6790   36.7330 C   0  0  0  0  0  0  0  0  0  0  0  0
   38.1040   24.1110   37.9860 C   0  0  0  0  0  0  0  0  0  0  0  0
   37.2950   24.4720   38.6160 H   0  0  0  0  0  0  0  0  0  0  0  0
   38.9680   23.1480   38.4000 N   0  0  0  0  0  0  0  0  0  0  0  0
   39.9560   22.7160   37.6150 C   0  0  0  0  0  0  0  0  0  0  0  0
   40.6760   21.9500   37.8950 H   0  0  0  0  0  0  0  0  0  0  0  0
   40.1590   23.2080   36.3590 N   0  0  0  0  0  0  0  0  0  0  0  0
   39.2730   24.1720   35.9790 C   0  0  0  0  0  0  0  0  0  0  0  0
  2  1  2  1  0  0  0
  2 15  1  0  0  0  0
  3  2  1  0  0  0  0
  4  3  1  0  0  0  0
  5  2  1  0  0  0  0
  6  7  1  0  0  0  0
  6  5  1  0  0  0  0
  7 12  1  0  0  0  0
  8 13  1  0  0  0  0
  8  7  2  0  0  0  0
  9  8  1  0  0  0  0
 10  9  2  0  0  0  0
 10 11  1  0  0  0  0
 11  6  2  0  0  0  0
 14 10  1  0  0  0  0
 15 18  1  0  0  0  0
 16 17  1  0  0  0  0
 17 18  1  0  0  0  0
 17 27  1  0  0  0  0
 18 19  2  0  0  0  0
 19 20  1  0  0  0  0
 20 21  1  0  0  0  0
 21 23  2  0  0  0  0
 21 22  1  0  0  0  0
 24 25  1  0  0  0  0
 24 23  1  0  0  0  0
 26 24  2  0  0  0  0
 27 26  1  0  0  0  0
 27 20  2  0  0  0  0
M  END
>  <minimizedAffinity>
-4.41379833

$$$$
