
 OpenBabel03272508093D

 27 29  0  0  0  0  0  0  0  0999 V2000
   40.0530   27.2490   34.0590 O   0  0  0  0  0  0  0  0  0  0  0  0
   38.8130   26.8320   34.7900 P   0  0  2  0  0  0  0  0  0  0  0  0
   38.7230   27.6630   36.2780 O   0  0  0  0  0  0  0  0  0  0  0  0
   39.3360   28.4270   36.2520 H   0  0  0  0  0  0  0  0  0  0  0  0
   38.6430   25.1770   35.0020 O   0  0  0  0  0  0  0  0  0  0  0  0
   39.7580   22.8180   37.6270 C   0  0  0  0  0  0  0  0  0  0  0  0
   39.7530   23.4330   36.3700 C   0  0  0  0  0  0  0  0  0  0  0  0
   38.8330   24.4430   36.1350 C   0  0  0  0  0  0  0  0  0  0  0  0
   37.9720   24.7930   37.1450 N   0  0  0  0  0  0  0  0  0  0  0  0
   38.0150   24.1700   38.3440 C   0  0  0  0  0  0  0  0  0  0  0  0
   38.9030   23.1900   38.5810 N   0  0  0  0  0  0  0  0  0  0  0  0
   40.4810   22.0420   37.7740 H   0  0  0  0  0  0  0  0  0  0  0  0
   40.3910   23.2100   35.5440 H   0  0  0  0  0  0  0  0  0  0  0  0
   37.3100   24.4780   39.1270 H   0  0  0  0  0  0  0  0  0  0  0  0
   37.4900   27.3970   33.8820 O   0  0  0  0  0  0  0  0  0  0  0  0
   39.2270   26.3550   31.9600 H   0  0  0  0  0  0  0  0  0  0  0  0
   38.5830   27.1250   31.6780 N   0  0  0  0  0  0  0  0  0  0  0  0
   37.6990   27.7010   32.5330 C   0  0  0  0  0  0  0  0  0  0  0  0
   37.0820   28.6280   31.7730 N   0  0  0  0  0  0  0  0  0  0  0  0
   37.5420   28.6370   30.5260 C   0  0  0  0  0  0  0  0  0  0  0  0
   37.3130   29.3260   29.3510 C   0  0  0  0  0  0  0  0  0  0  0  0
   36.5600   30.0980   29.3530 H   0  0  0  0  0  0  0  0  0  0  0  0
   37.9920   29.0640   28.2250 N   0  0  0  0  0  0  0  0  0  0  0  0
   38.9390   28.0890   28.2290 C   0  0  0  0  0  0  0  0  0  0  0  0
   39.5020   27.8660   27.3100 H   0  0  0  0  0  0  0  0  0  0  0  0
   39.2010   27.3890   29.3490 N   0  0  0  0  0  0  0  0  0  0  0  0
   38.5100   27.6670   30.4660 C   0  0  0  0  0  0  0  0  0  0  0  0
  2  1  2  6  0  0  0
  2  5  1  0  0  0  0
  2  3  1  0  0  0  0
  4  3  1  0  0  0  0
  5  8  1  0  0  0  0
  6 12  1  0  0  0  0
  6 11  1  0  0  0  0
  7  6  2  0  0  0  0
  8  7  1  0  0  0  0
  8  9  2  0  0  0  0
  9 10  1  0  0  0  0
 10 11  2  0  0  0  0
 10 14  1  0  0  0  0
 13  7  1  0  0  0  0
 15  2  1  0  0  0  0
 17 16  1  0  0  0  0
 17 18  1  0  0  0  0
 18 15  1  0  0  0  0
 19 18  2  0  0  0  0
 20 19  1  0  0  0  0
 21 22  1  0  0  0  0
 21 20  2  0  0  0  0
 23 24  2  0  0  0  0
 23 21  1  0  0  0  0
 24 26  1  0  0  0  0
 25 24  1  0  0  0  0
 26 27  2  0  0  0  0
 27 20  1  0  0  0  0
 27 17  1  0  0  0  0
M  END
>  <minimizedAffinity>
-5.03681421

$$$$

 OpenBabel03272508093D

 27 29  0  0  0  0  0  0  0  0999 V2000
   39.8070   27.0750   35.3620 O   0  0  0  0  0  0  0  0  0  0  0  0
   38.3210   26.9610   35.2030 P   0  0  2  0  0  0  0  0  0  0  0  0
   37.5790   28.4030   35.7390 O   0  0  0  0  0  0  0  0  0  0  0  0
   38.2590   29.1070   35.7930 H   0  0  0  0  0  0  0  0  0  0  0  0
   37.6350   25.6150   35.9310 O   0  0  0  0  0  0  0  0  0  0  0  0
   38.7710   23.3970   38.6680 C   0  0  0  0  0  0  0  0  0  0  0  0
   38.0290   24.4190   38.0670 C   0  0  0  0  0  0  0  0  0  0  0  0
   38.2360   24.6790   36.7210 C   0  0  0  0  0  0  0  0  0  0  0  0
   39.1580   23.9230   36.0410 N   0  0  0  0  0  0  0  0  0  0  0  0
   39.8510   22.9450   36.6660 C   0  0  0  0  0  0  0  0  0  0  0  0
   39.6580   22.6860   37.9690 N   0  0  0  0  0  0  0  0  0  0  0  0
   38.5870   23.2230   39.7080 H   0  0  0  0  0  0  0  0  0  0  0  0
   37.3000   25.0430   38.5350 H   0  0  0  0  0  0  0  0  0  0  0  0
   40.5800   22.3610   36.0880 H   0  0  0  0  0  0  0  0  0  0  0  0
   38.0050   26.8900   33.5330 O   0  0  0  0  0  0  0  0  0  0  0  0
   39.0200   24.2930   33.6840 H   0  0  0  0  0  0  0  0  0  0  0  0
   38.1490   24.4520   33.1340 N   0  0  0  0  0  0  0  0  0  0  0  0
   37.5720   25.6730   32.9980 C   0  0  0  0  0  0  0  0  0  0  0  0
   36.4930   25.4290   32.2260 N   0  0  0  0  0  0  0  0  0  0  0  0
   36.3940   24.1450   31.9000 C   0  0  0  0  0  0  0  0  0  0  0  0
   35.5490   23.3310   31.1690 C   0  0  0  0  0  0  0  0  0  0  0  0
   34.6950   23.7850   30.6910 H   0  0  0  0  0  0  0  0  0  0  0  0
   35.7600   22.0140   31.0410 N   0  0  0  0  0  0  0  0  0  0  0  0
   36.8360   21.4480   31.6470 C   0  0  0  0  0  0  0  0  0  0  0  0
   37.0180   20.3670   31.5480 H   0  0  0  0  0  0  0  0  0  0  0  0
   37.6910   22.1970   32.3700 N   0  0  0  0  0  0  0  0  0  0  0  0
   37.4630   23.5140   32.4850 C   0  0  0  0  0  0  0  0  0  0  0  0
  2  1  2  1  0  0  0
  2  3  1  0  0  0  0
  2  5  1  0  0  0  0
  3  4  1  0  0  0  0
  5  8  1  0  0  0  0
  6 12  1  0  0  0  0
  7 13  1  0  0  0  0
  7  6  1  0  0  0  0
  8  7  2  0  0  0  0
  9 10  2  0  0  0  0
  9  8  1  0  0  0  0
 10 11  1  0  0  0  0
 11  6  2  0  0  0  0
 14 10  1  0  0  0  0
 15  2  1  0  0  0  0
 17 16  1  0  0  0  0
 18 17  1  0  0  0  0
 18 15  1  0  0  0  0
 19 18  2  0  0  0  0
 20 19  1  0  0  0  0
 20 27  1  0  0  0  0
 21 20  2  0  0  0  0
 22 21  1  0  0  0  0
 23 21  1  0  0  0  0
 23 24  2  0  0  0  0
 24 26  1  0  0  0  0
 25 24  1  0  0  0  0
 26 27  2  0  0  0  0
 27 17  1  0  0  0  0
M  END
>  <minimizedAffinity>
-4.99675751

$$$$

 OpenBabel03272508093D

 27 29  0  0  0  0  0  0  0  0999 V2000
   40.1770   26.8710   34.8950 O   0  0  0  0  0  0  0  0  0  0  0  0
   38.6840   26.9030   35.0260 P   0  0  2  0  0  0  0  0  0  0  0  0
   38.2290   28.2030   36.0350 O   0  0  0  0  0  0  0  0  0  0  0  0
   38.9860   28.8210   36.1150 H   0  0  0  0  0  0  0  0  0  0  0  0
   37.9910   25.4630   35.5330 O   0  0  0  0  0  0  0  0  0  0  0  0
   38.6360   23.3750   38.5210 C   0  0  0  0  0  0  0  0  0  0  0  0
   37.9900   24.3450   37.7470 C   0  0  0  0  0  0  0  0  0  0  0  0
   38.4550   24.5780   36.4610 C   0  0  0  0  0  0  0  0  0  0  0  0
   39.5250   23.8470   36.0090 N   0  0  0  0  0  0  0  0  0  0  0  0
   40.1170   22.9200   36.7950 C   0  0  0  0  0  0  0  0  0  0  0  0
   39.6730   22.6870   38.0410 N   0  0  0  0  0  0  0  0  0  0  0  0
   38.2510   23.2220   39.5080 H   0  0  0  0  0  0  0  0  0  0  0  0
   37.1580   24.9470   38.0350 H   0  0  0  0  0  0  0  0  0  0  0  0
   40.9700   22.3550   36.3970 H   0  0  0  0  0  0  0  0  0  0  0  0
   38.0600   27.2900   33.4910 O   0  0  0  0  0  0  0  0  0  0  0  0
   36.0350   27.8250   35.3390 H   0  0  0  0  0  0  0  0  0  0  0  0
   35.9790   28.2740   34.4000 N   0  0  0  0  0  0  0  0  0  0  0  0
   36.9100   28.0830   33.4300 C   0  0  0  0  0  0  0  0  0  0  0  0
   36.4580   28.8330   32.4050 N   0  0  0  0  0  0  0  0  0  0  0  0
   35.3230   29.4560   32.7060 C   0  0  0  0  0  0  0  0  0  0  0  0
   34.4300   30.3170   32.0970 C   0  0  0  0  0  0  0  0  0  0  0  0
   34.6330   30.6270   31.0840 H   0  0  0  0  0  0  0  0  0  0  0  0
   33.3350   30.7700   32.7230 N   0  0  0  0  0  0  0  0  0  0  0  0
   33.0840   30.3760   33.9990 C   0  0  0  0  0  0  0  0  0  0  0  0
   32.1880   30.7430   34.5220 H   0  0  0  0  0  0  0  0  0  0  0  0
   33.9230   29.5380   34.6370 N   0  0  0  0  0  0  0  0  0  0  0  0
   35.0140   29.0950   33.9930 C   0  0  0  0  0  0  0  0  0  0  0  0
  2  1  2  6  0  0  0
  2  5  1  0  0  0  0
  2  3  1  0  0  0  0
  3  4  1  0  0  0  0
  5  8  1  0  0  0  0
  6 12  1  0  0  0  0
  7 13  1  0  0  0  0
  7  6  2  0  0  0  0
  8  7  1  0  0  0  0
  9  8  2  0  0  0  0
  9 10  1  0  0  0  0
 10 11  2  0  0  0  0
 11  6  1  0  0  0  0
 14 10  1  0  0  0  0
 15  2  1  0  0  0  0
 17 16  1  0  0  0  0
 18 15  1  0  0  0  0
 18 17  1  0  0  0  0
 19 20  1  0  0  0  0
 19 18  2  0  0  0  0
 20 27  1  0  0  0  0
 21 20  2  0  0  0  0
 21 23  1  0  0  0  0
 22 21  1  0  0  0  0
 23 24  2  0  0  0  0
 24 25  1  0  0  0  0
 24 26  1  0  0  0  0
 27 17  1  0  0  0  0
 27 26  2  0  0  0  0
M  END
>  <minimizedAffinity>
-4.87875605

$$$$

 OpenBabel03272508093D

 27 29  0  0  0  0  0  0  0  0999 V2000
   38.0430   24.8920   36.9110 O   0  0  0  0  0  0  0  0  0  0  0  0
   38.5520   23.5060   36.6580 P   0  0  2  0  0  0  0  0  0  0  0  0
   37.2790   22.3860   36.8580 O   0  0  0  0  0  0  0  0  0  0  0  0
   36.4260   22.8690   36.8360 H   0  0  0  0  0  0  0  0  0  0  0  0
   39.8950   23.0720   37.5640 O   0  0  0  0  0  0  0  0  0  0  0  0
   43.2710   22.6660   36.1040 C   0  0  0  0  0  0  0  0  0  0  0  0
   42.0960   23.3390   36.4540 C   0  0  0  0  0  0  0  0  0  0  0  0
   41.1090   22.6330   37.1260 C   0  0  0  0  0  0  0  0  0  0  0  0
   41.3310   21.3100   37.4150 N   0  0  0  0  0  0  0  0  0  0  0  0
   42.4840   20.7030   37.0550 C   0  0  0  0  0  0  0  0  0  0  0  0
   43.4460   21.3780   36.4040 N   0  0  0  0  0  0  0  0  0  0  0  0
   44.0110   23.2400   35.5860 H   0  0  0  0  0  0  0  0  0  0  0  0
   41.8590   24.3610   36.2600 H   0  0  0  0  0  0  0  0  0  0  0  0
   42.6250   19.6430   37.3050 H   0  0  0  0  0  0  0  0  0  0  0  0
   38.9650   23.4220   35.0100 O   0  0  0  0  0  0  0  0  0  0  0  0
   38.3140   26.1270   34.7690 H   0  0  0  0  0  0  0  0  0  0  0  0
   37.9200   25.4600   34.0720 N   0  0  0  0  0  0  0  0  0  0  0  0
   38.1740   24.1260   34.0970 C   0  0  0  0  0  0  0  0  0  0  0  0
   37.4820   23.6520   33.0410 N   0  0  0  0  0  0  0  0  0  0  0  0
   36.8380   24.6170   32.3930 C   0  0  0  0  0  0  0  0  0  0  0  0
   36.0100   24.7430   31.2940 C   0  0  0  0  0  0  0  0  0  0  0  0
   35.7620   23.8520   30.7410 H   0  0  0  0  0  0  0  0  0  0  0  0
   35.5160   25.9260   30.9040 N   0  0  0  0  0  0  0  0  0  0  0  0
   35.8340   27.0460   31.6050 C   0  0  0  0  0  0  0  0  0  0  0  0
   35.4330   28.0230   31.2920 H   0  0  0  0  0  0  0  0  0  0  0  0
   36.6360   26.9770   32.6840 N   0  0  0  0  0  0  0  0  0  0  0  0
   37.1210   25.7840   33.0590 C   0  0  0  0  0  0  0  0  0  0  0  0
  2  3  1  0  0  0  0
  2  1  2  1  0  0  0
  2  5  1  0  0  0  0
  4  3  1  0  0  0  0
  6 11  2  0  0  0  0
  6  7  1  0  0  0  0
  7  8  2  0  0  0  0
  8  9  1  0  0  0  0
  8  5  1  0  0  0  0
 10 14  1  0  0  0  0
 10  9  2  0  0  0  0
 11 10  1  0  0  0  0
 12  6  1  0  0  0  0
 13  7  1  0  0  0  0
 15  2  1  0  0  0  0
 17 18  1  0  0  0  0
 17 16  1  0  0  0  0
 18 15  1  0  0  0  0
 19 18  2  0  0  0  0
 20 19  1  0  0  0  0
 20 27  1  0  0  0  0
 21 20  2  0  0  0  0
 22 21  1  0  0  0  0
 23 21  1  0  0  0  0
 23 24  2  0  0  0  0
 24 26  1  0  0  0  0
 25 24  1  0  0  0  0
 26 27  2  0  0  0  0
 27 17  1  0  0  0  0
M  END
>  <minimizedAffinity>
-4.70355177

$$$$

 OpenBabel03272508093D

 27 29  0  0  0  0  0  0  0  0999 V2000
   39.7720   22.4070   34.3960 O   0  0  0  0  0  0  0  0  0  0  0  0
   38.9390   22.4550   35.6410 P   0  0  2  0  0  0  0  0  0  0  0  0
   39.7210   21.5830   36.8830 O   0  0  0  0  0  0  0  0  0  0  0  0
   40.6600   21.4500   36.6340 H   0  0  0  0  0  0  0  0  0  0  0  0
   37.3520   21.9510   35.4460 O   0  0  0  0  0  0  0  0  0  0  0  0
   35.2710   20.2980   32.8690 C   0  0  0  0  0  0  0  0  0  0  0  0
   35.7730   20.5430   34.1510 C   0  0  0  0  0  0  0  0  0  0  0  0
   36.7260   21.5390   34.3060 C   0  0  0  0  0  0  0  0  0  0  0  0
   37.1320   22.2360   33.1960 N   0  0  0  0  0  0  0  0  0  0  0  0
   36.6170   21.9620   31.9760 C   0  0  0  0  0  0  0  0  0  0  0  0
   35.6930   21.0010   31.8160 N   0  0  0  0  0  0  0  0  0  0  0  0
   34.5370   19.5240   32.7850 H   0  0  0  0  0  0  0  0  0  0  0  0
   35.5030   20.0400   35.0530 H   0  0  0  0  0  0  0  0  0  0  0  0
   36.9660   22.5430   31.1120 H   0  0  0  0  0  0  0  0  0  0  0  0
   38.9290   24.0720   36.1690 O   0  0  0  0  0  0  0  0  0  0  0  0
   38.1480   24.0800   33.4870 H   0  0  0  0  0  0  0  0  0  0  0  0
   37.9310   24.9190   34.0680 N   0  0  0  0  0  0  0  0  0  0  0  0
   38.2650   25.0170   35.3800 C   0  0  0  0  0  0  0  0  0  0  0  0
   37.8070   26.2360   35.7330 N   0  0  0  0  0  0  0  0  0  0  0  0
   37.2240   26.8620   34.7160 C   0  0  0  0  0  0  0  0  0  0  0  0
   36.5990   28.0710   34.4760 C   0  0  0  0  0  0  0  0  0  0  0  0
   36.5130   28.7700   35.2920 H   0  0  0  0  0  0  0  0  0  0  0  0
   36.1030   28.3910   33.2720 N   0  0  0  0  0  0  0  0  0  0  0  0
   36.2120   27.5050   32.2480 C   0  0  0  0  0  0  0  0  0  0  0  0
   35.8080   27.7580   31.2560 H   0  0  0  0  0  0  0  0  0  0  0  0
   36.8140   26.3140   32.4300 N   0  0  0  0  0  0  0  0  0  0  0  0
   37.3040   26.0120   33.6420 C   0  0  0  0  0  0  0  0  0  0  0  0
  2  1  2  6  0  0  0
  2 15  1  0  0  0  0
  2  3  1  0  0  0  0
  4  3  1  0  0  0  0
  5  2  1  0  0  0  0
  6  7  1  0  0  0  0
  7  8  2  0  0  0  0
  7 13  1  0  0  0  0
  8  5  1  0  0  0  0
  9  8  1  0  0  0  0
 10  9  2  0  0  0  0
 11 10  1  0  0  0  0
 11  6  2  0  0  0  0
 12  6  1  0  0  0  0
 14 10  1  0  0  0  0
 16 17  1  0  0  0  0
 17 18  1  0  0  0  0
 18 19  2  0  0  0  0
 18 15  1  0  0  0  0
 20 19  1  0  0  0  0
 21 20  1  0  0  0  0
 21 22  1  0  0  0  0
 23 21  2  0  0  0  0
 24 26  2  0  0  0  0
 24 23  1  0  0  0  0
 25 24  1  0  0  0  0
 26 27  1  0  0  0  0
 27 17  1  0  0  0  0
 27 20  2  0  0  0  0
M  END
>  <minimizedAffinity>
-4.6621933

$$$$

 OpenBabel03272508093D

 27 29  0  0  0  0  0  0  0  0999 V2000
   37.6100   27.2270   30.7130 O   0  0  0  0  0  0  0  0  0  0  0  0
   36.8290   26.0220   31.1460 P   0  0  2  0  0  0  0  0  0  0  0  0
   35.3930   25.9160   30.2300 O   0  0  0  0  0  0  0  0  0  0  0  0
   35.4790   26.4880   29.4390 H   0  0  0  0  0  0  0  0  0  0  0  0
   36.5130   25.9420   32.7900 O   0  0  0  0  0  0  0  0  0  0  0  0
   38.0750   27.6860   35.6570 C   0  0  0  0  0  0  0  0  0  0  0  0
   37.1310   27.4620   34.6490 C   0  0  0  0  0  0  0  0  0  0  0  0
   37.2960   26.3580   33.8270 C   0  0  0  0  0  0  0  0  0  0  0  0
   38.3750   25.5370   34.0400 N   0  0  0  0  0  0  0  0  0  0  0  0
   39.2610   25.7950   35.0280 C   0  0  0  0  0  0  0  0  0  0  0  0
   39.1100   26.8620   35.8290 N   0  0  0  0  0  0  0  0  0  0  0  0
   37.9180   28.5470   36.2730 H   0  0  0  0  0  0  0  0  0  0  0  0
   36.2740   28.0580   34.4290 H   0  0  0  0  0  0  0  0  0  0  0  0
   40.1110   25.1140   35.1670 H   0  0  0  0  0  0  0  0  0  0  0  0
   37.7420   24.6560   30.7060 O   0  0  0  0  0  0  0  0  0  0  0  0
   35.4000   23.8260   31.9810 H   0  0  0  0  0  0  0  0  0  0  0  0
   36.0290   23.0980   31.5790 N   0  0  0  0  0  0  0  0  0  0  0  0
   37.1890   23.3930   30.9390 C   0  0  0  0  0  0  0  0  0  0  0  0
   37.6740   22.1840   30.5890 N   0  0  0  0  0  0  0  0  0  0  0  0
   36.8750   21.1960   30.9780 C   0  0  0  0  0  0  0  0  0  0  0  0
   36.8400   19.8160   30.9120 C   0  0  0  0  0  0  0  0  0  0  0  0
   37.6540   19.3100   30.4190 H   0  0  0  0  0  0  0  0  0  0  0  0
   35.8350   19.1020   31.4380 N   0  0  0  0  0  0  0  0  0  0  0  0
   34.8110   19.7450   32.0580 C   0  0  0  0  0  0  0  0  0  0  0  0
   33.9800   19.1670   32.4920 H   0  0  0  0  0  0  0  0  0  0  0  0
   34.7990   21.0880   32.1500 N   0  0  0  0  0  0  0  0  0  0  0  0
   35.8140   21.7860   31.6180 C   0  0  0  0  0  0  0  0  0  0  0  0
  2  1  2  6  0  0  0
  2  5  1  0  0  0  0
  3  2  1  0  0  0  0
  4  3  1  0  0  0  0
  5  8  1  0  0  0  0
  6 11  1  0  0  0  0
  6 12  1  0  0  0  0
  7  6  2  0  0  0  0
  8  9  2  0  0  0  0
  8  7  1  0  0  0  0
  9 10  1  0  0  0  0
 10 14  1  0  0  0  0
 10 11  2  0  0  0  0
 13  7  1  0  0  0  0
 15 18  1  0  0  0  0
 15  2  1  0  0  0  0
 17 27  1  0  0  0  0
 17 16  1  0  0  0  0
 18 17  1  0  0  0  0
 19 18  2  0  0  0  0
 19 20  1  0  0  0  0
 20 27  1  0  0  0  0
 21 20  2  0  0  0  0
 21 23  1  0  0  0  0
 22 21  1  0  0  0  0
 23 24  2  0  0  0  0
 24 26  1  0  0  0  0
 24 25  1  0  0  0  0
 27 26  2  0  0  0  0
M  END
>  <minimizedAffinity>
-4.58401585

$$$$

 OpenBabel03272508093D

 27 29  0  0  0  0  0  0  0  0999 V2000
   38.9420   23.1570   38.5900 O   0  0  0  0  0  0  0  0  0  0  0  0
   38.5970   23.3030   37.1390 P   0  0  2  0  0  0  0  0  0  0  0  0
   37.1770   22.4180   36.7990 O   0  0  0  0  0  0  0  0  0  0  0  0
   36.7240   22.2110   37.6430 H   0  0  0  0  0  0  0  0  0  0  0  0
   39.8330   22.9070   36.0770 O   0  0  0  0  0  0  0  0  0  0  0  0
   43.4340   23.6630   36.4790 C   0  0  0  0  0  0  0  0  0  0  0  0
   42.2320   22.9820   36.6990 C   0  0  0  0  0  0  0  0  0  0  0  0
   41.1000   23.4100   36.0230 C   0  0  0  0  0  0  0  0  0  0  0  0
   41.2100   24.4800   35.1710 N   0  0  0  0  0  0  0  0  0  0  0  0
   42.3940   25.1070   34.9910 C   0  0  0  0  0  0  0  0  0  0  0  0
   43.4970   24.7000   35.6410 N   0  0  0  0  0  0  0  0  0  0  0  0
   44.2880   23.3070   37.0170 H   0  0  0  0  0  0  0  0  0  0  0  0
   42.0770   22.1470   37.3450 H   0  0  0  0  0  0  0  0  0  0  0  0
   42.4420   25.9590   34.3010 H   0  0  0  0  0  0  0  0  0  0  0  0
   38.1770   24.9330   36.8910 O   0  0  0  0  0  0  0  0  0  0  0  0
   38.4060   23.6740   34.4090 H   0  0  0  0  0  0  0  0  0  0  0  0
   38.0140   24.6390   34.4390 N   0  0  0  0  0  0  0  0  0  0  0  0
   37.8580   25.3390   35.5920 C   0  0  0  0  0  0  0  0  0  0  0  0
   37.3310   26.5110   35.1810 N   0  0  0  0  0  0  0  0  0  0  0  0
   37.1630   26.5470   33.8640 C   0  0  0  0  0  0  0  0  0  0  0  0
   36.6900   27.4300   32.9110 C   0  0  0  0  0  0  0  0  0  0  0  0
   36.3340   28.3920   33.2430 H   0  0  0  0  0  0  0  0  0  0  0  0
   36.6640   27.1260   31.6060 N   0  0  0  0  0  0  0  0  0  0  0  0
   37.1140   25.9120   31.1950 C   0  0  0  0  0  0  0  0  0  0  0  0
   37.0970   25.6520   30.1250 H   0  0  0  0  0  0  0  0  0  0  0  0
   37.5850   25.0160   32.0830 N   0  0  0  0  0  0  0  0  0  0  0  0
   37.6030   25.3390   33.3850 C   0  0  0  0  0  0  0  0  0  0  0  0
  2  1  2  1  0  0  0
  3  2  1  0  0  0  0
  3  4  1  0  0  0  0
  5  2  1  0  0  0  0
  6  7  1  0  0  0  0
  6 12  1  0  0  0  0
  7 13  1  0  0  0  0
  8  5  1  0  0  0  0
  8  7  2  0  0  0  0
  9  8  1  0  0  0  0
 10  9  2  0  0  0  0
 10 11  1  0  0  0  0
 11  6  2  0  0  0  0
 14 10  1  0  0  0  0
 15  2  1  0  0  0  0
 16 17  1  0  0  0  0
 17 18  1  0  0  0  0
 18 15  1  0  0  0  0
 19 18  2  0  0  0  0
 20 19  1  0  0  0  0
 21 22  1  0  0  0  0
 21 20  2  0  0  0  0
 23 21  1  0  0  0  0
 24 23  2  0  0  0  0
 24 26  1  0  0  0  0
 25 24  1  0  0  0  0
 26 27  2  0  0  0  0
 27 20  1  0  0  0  0
 27 17  1  0  0  0  0
M  END
>  <minimizedAffinity>
-4.58080673

$$$$

 OpenBabel03272508093D

 27 29  0  0  0  0  0  0  0  0999 V2000
   37.5630   27.9800   31.9010 O   0  0  0  0  0  0  0  0  0  0  0  0
   36.3530   28.1580   31.0360 P   0  0  2  0  0  0  0  0  0  0  0  0
   36.8010   28.0210   29.3950 O   0  0  0  0  0  0  0  0  0  0  0  0
   37.6840   27.5980   29.3420 H   0  0  0  0  0  0  0  0  0  0  0  0
   35.4870   29.5670   31.3170 O   0  0  0  0  0  0  0  0  0  0  0  0
   36.1810   32.5490   33.3970 C   0  0  0  0  0  0  0  0  0  0  0  0
   36.0860   31.7970   32.2220 C   0  0  0  0  0  0  0  0  0  0  0  0
   35.6560   30.4820   32.3150 C   0  0  0  0  0  0  0  0  0  0  0  0
   35.3440   29.9800   33.5540 N   0  0  0  0  0  0  0  0  0  0  0  0
   35.4520   30.7470   34.6620 C   0  0  0  0  0  0  0  0  0  0  0  0
   35.8670   32.0220   34.5820 N   0  0  0  0  0  0  0  0  0  0  0  0
   36.5160   33.5600   33.2890 H   0  0  0  0  0  0  0  0  0  0  0  0
   36.3120   32.1230   31.2310 H   0  0  0  0  0  0  0  0  0  0  0  0
   35.1930   30.3110   35.6350 H   0  0  0  0  0  0  0  0  0  0  0  0
   35.3310   26.8310   31.3330 O   0  0  0  0  0  0  0  0  0  0  0  0
   37.7930   25.9020   30.3980 H   0  0  0  0  0  0  0  0  0  0  0  0
   37.0900   25.2020   30.7170 N   0  0  0  0  0  0  0  0  0  0  0  0
   35.8640   25.5460   31.1890 C   0  0  0  0  0  0  0  0  0  0  0  0
   35.2920   24.3600   31.4800 N   0  0  0  0  0  0  0  0  0  0  0  0
   36.0990   23.3390   31.2120 C   0  0  0  0  0  0  0  0  0  0  0  0
   36.0750   21.9590   31.2940 C   0  0  0  0  0  0  0  0  0  0  0  0
   35.1830   21.4890   31.6760 H   0  0  0  0  0  0  0  0  0  0  0  0
   37.1150   21.2030   30.9180 N   0  0  0  0  0  0  0  0  0  0  0  0
   38.2370   21.8020   30.4390 C   0  0  0  0  0  0  0  0  0  0  0  0
   39.0970   21.1890   30.1280 H   0  0  0  0  0  0  0  0  0  0  0  0
   38.3110   23.1420   30.3380 N   0  0  0  0  0  0  0  0  0  0  0  0
   37.2590   23.8820   30.7190 C   0  0  0  0  0  0  0  0  0  0  0  0
  2  5  1  0  0  0  0
  2 15  1  0  0  0  0
  2  1  2  1  0  0  0
  3  2  1  0  0  0  0
  4  3  1  0  0  0  0
  5  8  1  0  0  0  0
  6 11  1  0  0  0  0
  7  8  1  0  0  0  0
  7  6  2  0  0  0  0
  8  9  2  0  0  0  0
  9 10  1  0  0  0  0
 10 14  1  0  0  0  0
 11 10  2  0  0  0  0
 12  6  1  0  0  0  0
 13  7  1  0  0  0  0
 16 17  1  0  0  0  0
 17 27  1  0  0  0  0
 17 18  1  0  0  0  0
 18 15  1  0  0  0  0
 18 19  2  0  0  0  0
 20 21  1  0  0  0  0
 20 19  1  0  0  0  0
 21 22  1  0  0  0  0
 23 21  2  0  0  0  0
 24 23  1  0  0  0  0
 25 24  1  0  0  0  0
 26 24  2  0  0  0  0
 26 27  1  0  0  0  0
 27 20  2  0  0  0  0
M  END
>  <minimizedAffinity>
-4.56936932

$$$$

 OpenBabel03272508093D

 27 29  0  0  0  0  0  0  0  0999 V2000
   35.5090   26.3810   30.8370 O   0  0  0  0  0  0  0  0  0  0  0  0
   36.5760   25.4840   31.3870 P   0  0  2  0  0  0  0  0  0  0  0  0
   37.8230   25.3070   30.2340 O   0  0  0  0  0  0  0  0  0  0  0  0
   37.7360   26.0160   29.5630 H   0  0  0  0  0  0  0  0  0  0  0  0
   36.0320   23.9940   31.9310 O   0  0  0  0  0  0  0  0  0  0  0  0
   36.1590   20.4800   30.7740 C   0  0  0  0  0  0  0  0  0  0  0  0
   35.5630   21.6660   31.2170 C   0  0  0  0  0  0  0  0  0  0  0  0
   36.3820   22.7500   31.4930 C   0  0  0  0  0  0  0  0  0  0  0  0
   37.7360   22.6110   31.3190 N   0  0  0  0  0  0  0  0  0  0  0  0
   38.2650   21.4430   30.8880 C   0  0  0  0  0  0  0  0  0  0  0  0
   37.4800   20.3870   30.6190 N   0  0  0  0  0  0  0  0  0  0  0  0
   35.4980   19.6630   30.5710 H   0  0  0  0  0  0  0  0  0  0  0  0
   34.5220   21.8410   31.3740 H   0  0  0  0  0  0  0  0  0  0  0  0
   39.3530   21.3710   30.7610 H   0  0  0  0  0  0  0  0  0  0  0  0
   37.2900   26.3060   32.6950 O   0  0  0  0  0  0  0  0  0  0  0  0
   38.8700   24.0140   32.9210 H   0  0  0  0  0  0  0  0  0  0  0  0
   38.4880   24.4390   33.7930 N   0  0  0  0  0  0  0  0  0  0  0  0
   37.7100   25.5520   33.7950 C   0  0  0  0  0  0  0  0  0  0  0  0
   37.4430   25.7490   35.1020 N   0  0  0  0  0  0  0  0  0  0  0  0
   38.0120   24.8270   35.8710 C   0  0  0  0  0  0  0  0  0  0  0  0
   38.0960   24.5180   37.2160 C   0  0  0  0  0  0  0  0  0  0  0  0
   37.5810   25.1550   37.9160 H   0  0  0  0  0  0  0  0  0  0  0  0
   38.7900   23.4620   37.6630 N   0  0  0  0  0  0  0  0  0  0  0  0
   39.4370   22.6630   36.7760 C   0  0  0  0  0  0  0  0  0  0  0  0
   40.0100   21.7940   37.1340 H   0  0  0  0  0  0  0  0  0  0  0  0
   39.3860   22.9200   35.4550 N   0  0  0  0  0  0  0  0  0  0  0  0
   38.6860   23.9820   35.0260 C   0  0  0  0  0  0  0  0  0  0  0  0
  2  1  2  6  0  0  0
  2  5  1  0  0  0  0
  2 15  1  0  0  0  0
  3  2  1  0  0  0  0
  4  3  1  0  0  0  0
  6  7  1  0  0  0  0
  7 13  1  0  0  0  0
  7  8  2  0  0  0  0
  8  5  1  0  0  0  0
  9  8  1  0  0  0  0
 10  9  2  0  0  0  0
 11  6  2  0  0  0  0
 11 10  1  0  0  0  0
 12  6  1  0  0  0  0
 14 10  1  0  0  0  0
 15 18  1  0  0  0  0
 16 17  1  0  0  0  0
 17 18  1  0  0  0  0
 17 27  1  0  0  0  0
 18 19  2  0  0  0  0
 19 20  1  0  0  0  0
 20 21  1  0  0  0  0
 21 23  2  0  0  0  0
 21 22  1  0  0  0  0
 24 25  1  0  0  0  0
 24 23  1  0  0  0  0
 26 24  2  0  0  0  0
 27 26  1  0  0  0  0
 27 20  2  0  0  0  0
M  END
>  <minimizedAffinity>
-4.52393246

$$$$
