
 OpenBabel03262521103D

 27 29  0  0  0  0  0  0  0  0999 V2000
   35.3490   29.8620   46.2670 O   0  0  0  0  0  0  0  0  0  0  0  0
   34.2290   29.5200   47.2460 P   0  0  1  0  0  0  0  0  0  0  0  0
   34.2980   27.8920   47.6870 O   0  0  0  0  0  0  0  0  0  0  0  0
   34.1140   27.7610   48.6460 H   0  0  0  0  0  0  0  0  0  0  0  0
   34.3590   30.4310   48.7020 O   0  0  0  0  0  0  0  0  0  0  0  0
   35.4710   30.3650   49.5250 C   0  0  0  0  0  0  0  0  0  0  0  0
   35.6710   29.4530   50.5750 C   0  0  0  0  0  0  0  0  0  0  0  0
   36.8500   29.5350   51.2970 C   0  0  0  0  0  0  0  0  0  0  0  0
   37.7690   30.4900   50.9640 N   0  0  0  0  0  0  0  0  0  0  0  0
   37.5450   31.3660   49.9330 C   0  0  0  0  0  0  0  0  0  0  0  0
   36.3930   31.2860   49.2280 N   0  0  0  0  0  0  0  0  0  0  0  0
   34.8580   28.7550   50.7230 H   0  0  0  0  0  0  0  0  0  0  0  0
   36.9770   28.8350   52.0850 H   0  0  0  0  0  0  0  0  0  0  0  0
   38.3280   32.0930   49.7350 H   0  0  0  0  0  0  0  0  0  0  0  0
   32.7880   29.9080   46.4670 O   0  0  0  0  0  0  0  0  0  0  0  0
   30.9460   29.2080   48.5180 H   0  0  0  0  0  0  0  0  0  0  0  0
   30.8580   28.8060   47.5760 N   0  0  0  0  0  0  0  0  0  0  0  0
   31.6830   29.0750   46.5330 C   0  0  0  0  0  0  0  0  0  0  0  0
   31.2510   28.3650   45.4740 N   0  0  0  0  0  0  0  0  0  0  0  0
   30.1760   27.6540   45.8170 C   0  0  0  0  0  0  0  0  0  0  0  0
   29.2910   26.7650   45.2400 C   0  0  0  0  0  0  0  0  0  0  0  0
   29.4580   26.5220   44.1940 H   0  0  0  0  0  0  0  0  0  0  0  0
   28.2700   26.2260   45.9530 N   0  0  0  0  0  0  0  0  0  0  0  0
   28.0800   26.5340   47.2370 C   0  0  0  0  0  0  0  0  0  0  0  0
   27.2790   26.1330   47.8550 H   0  0  0  0  0  0  0  0  0  0  0  0
   28.8910   27.4010   47.9090 N   0  0  0  0  0  0  0  0  0  0  0  0
   29.9050   27.9210   47.1610 C   0  0  0  0  0  0  0  0  0  0  0  0
  2  1  2  6  0  0  0
  2  3  1  0  0  0  0
  2  5  1  0  0  0  0
  3  4  1  0  0  0  0
  5  6  1  0  0  0  0
  6  7  1  0  0  0  0
  7 12  1  0  0  0  0
  7  8  2  0  0  0  0
  8 13  1  0  0  0  0
  9  8  1  0  0  0  0
 10  9  2  0  0  0  0
 11  6  2  0  0  0  0
 11 10  1  0  0  0  0
 14 10  1  0  0  0  0
 15 18  1  0  0  0  0
 15  2  1  0  0  0  0
 17 16  1  0  0  0  0
 18 17  1  0  0  0  0
 19 20  1  0  0  0  0
 19 18  2  0  0  0  0
 20 27  1  0  0  0  0
 21 20  2  0  0  0  0
 21 23  1  0  0  0  0
 22 21  1  0  0  0  0
 23 24  2  0  0  0  0
 24 25  1  0  0  0  0
 24 26  1  0  0  0  0
 27 17  1  0  0  0  0
 27 26  2  0  0  0  0
M  END
>  <minimizedAffinity>
-4.48784876

>  <minimizedRMSD>
2.54871869

$$$$
