
 OpenBabel03272506413D

 22 24  0  0  0  0  0  0  0  0999 V2000
   38.5480   25.0230   34.0350 H   0  0  0  0  0  0  0  0  0  0  0  0
   37.9170   24.4720   33.3980 N   0  0  0  0  0  0  0  0  0  0  0  0
   37.7590   23.1380   33.1670 C   0  0  0  0  0  0  0  0  0  0  0  0
   36.8010   22.9840   32.2380 N   0  0  0  0  0  0  0  0  0  0  0  0
   36.3300   24.1900   31.8570 C   0  0  0  0  0  0  0  0  0  0  0  0
   35.3650   24.5800   30.9540 C   0  0  0  0  0  0  0  0  0  0  0  0
   34.8300   23.8290   30.3960 H   0  0  0  0  0  0  0  0  0  0  0  0
   35.1020   25.8910   30.7800 N   0  0  0  0  0  0  0  0  0  0  0  0
   35.8040   26.7830   31.5060 C   0  0  0  0  0  0  0  0  0  0  0  0
   35.7270   27.8690   31.4960 H   0  0  0  0  0  0  0  0  0  0  0  0
   36.7460   26.4130   32.3890 N   0  0  0  0  0  0  0  0  0  0  0  0
   37.0440   25.1090   32.5970 C   0  0  0  0  0  0  0  0  0  0  0  0
   38.7960   22.0170   34.0950 S   0  0  0  0  0  0  0  0  0  0  0  0
   37.9280   23.5130   37.6520 C   0  0  0  0  0  0  0  0  0  0  0  0
   39.0740   23.2830   38.4200 C   0  0  0  0  0  0  0  0  0  0  0  0
   40.1680   22.6400   37.8220 C   0  0  0  0  0  0  0  0  0  0  0  0
   40.0600   22.2680   36.5200 N   0  0  0  0  0  0  0  0  0  0  0  0
   38.9350   22.5040   35.8010 C   0  0  0  0  0  0  0  0  0  0  0  0
   37.8830   23.1150   36.3510 N   0  0  0  0  0  0  0  0  0  0  0  0
   37.0690   24.0000   38.0690 H   0  0  0  0  0  0  0  0  0  0  0  0
   39.0540   23.6230   39.4560 H   0  0  0  0  0  0  0  0  0  0  0  0
   41.0320   22.4740   38.4230 H   0  0  0  0  0  0  0  0  0  0  0  0
  2  1  1  0  0  0  0
  3  2  1  0  0  0  0
  3 13  1  0  0  0  0
  4  3  2  0  0  0  0
  5  4  1  0  0  0  0
  5 12  1  0  0  0  0
  6  5  2  0  0  0  0
  7  6  1  0  0  0  0
  8  6  1  0  0  0  0
  8  9  2  0  0  0  0
  9 11  1  0  0  0  0
 10  9  1  0  0  0  0
 11 12  2  0  0  0  0
 12  2  1  0  0  0  0
 13 18  1  0  0  0  0
 14 20  1  0  0  0  0
 14 15  1  0  0  0  0
 15 21  1  0  0  0  0
 16 15  2  0  0  0  0
 16 22  1  0  0  0  0
 17 16  1  0  0  0  0
 18 19  1  0  0  0  0
 18 17  2  0  0  0  0
 19 14  2  0  0  0  0
M  END
>  <minimizedAffinity>
-4.50658083

$$$$

 OpenBabel03272506413D

 22 24  0  0  0  0  0  0  0  0999 V2000
   38.0520   26.2400   35.3820 H   0  0  0  0  0  0  0  0  0  0  0  0
   37.7010   26.0550   34.4070 N   0  0  0  0  0  0  0  0  0  0  0  0
   37.7950   24.9850   33.5690 C   0  0  0  0  0  0  0  0  0  0  0  0
   37.1570   25.2900   32.4260 N   0  0  0  0  0  0  0  0  0  0  0  0
   36.6490   26.5380   32.5010 C   0  0  0  0  0  0  0  0  0  0  0  0
   35.9230   27.3120   31.6210 C   0  0  0  0  0  0  0  0  0  0  0  0
   35.6680   26.9120   30.6530 H   0  0  0  0  0  0  0  0  0  0  0  0
   35.5420   28.5550   31.9810 N   0  0  0  0  0  0  0  0  0  0  0  0
   35.8900   28.9980   33.2040 C   0  0  0  0  0  0  0  0  0  0  0  0
   35.6710   29.9640   33.6580 H   0  0  0  0  0  0  0  0  0  0  0  0
   36.5960   28.2520   34.0680 N   0  0  0  0  0  0  0  0  0  0  0  0
   37.0010   26.9990   33.7510 C   0  0  0  0  0  0  0  0  0  0  0  0
   38.6810   23.5530   34.1650 S   0  0  0  0  0  0  0  0  0  0  0  0
   39.8430   22.7480   37.8590 C   0  0  0  0  0  0  0  0  0  0  0  0
   38.9000   23.3840   38.6710 C   0  0  0  0  0  0  0  0  0  0  0  0
   37.8550   24.0940   38.0610 C   0  0  0  0  0  0  0  0  0  0  0  0
   37.8110   24.1310   36.7040 N   0  0  0  0  0  0  0  0  0  0  0  0
   38.7410   23.5040   35.9430 C   0  0  0  0  0  0  0  0  0  0  0  0
   39.7430   22.8230   36.5030 N   0  0  0  0  0  0  0  0  0  0  0  0
   40.6580   22.1950   38.2820 H   0  0  0  0  0  0  0  0  0  0  0  0
   39.0300   23.2900   39.7500 H   0  0  0  0  0  0  0  0  0  0  0  0
   37.1450   24.5720   38.6970 H   0  0  0  0  0  0  0  0  0  0  0  0
  2  1  1  0  0  0  0
  3 13  1  0  0  0  0
  3  2  1  0  0  0  0
  4  5  1  0  0  0  0
  4  3  2  0  0  0  0
  5 12  1  0  0  0  0
  6  8  1  0  0  0  0
  6  5  2  0  0  0  0
  7  6  1  0  0  0  0
  8  9  2  0  0  0  0
  9 10  1  0  0  0  0
  9 11  1  0  0  0  0
 12 11  2  0  0  0  0
 12  2  1  0  0  0  0
 13 18  1  0  0  0  0
 14 20  1  0  0  0  0
 14 15  1  0  0  0  0
 15 21  1  0  0  0  0
 16 15  2  0  0  0  0
 16 22  1  0  0  0  0
 17 16  1  0  0  0  0
 18 19  1  0  0  0  0
 18 17  2  0  0  0  0
 19 14  2  0  0  0  0
M  END
>  <minimizedAffinity>
-4.40415478

$$$$

 OpenBabel03272506413D

 22 24  0  0  0  0  0  0  0  0999 V2000
   37.1630   24.9390   34.5940 H   0  0  0  0  0  0  0  0  0  0  0  0
   38.0800   24.4770   34.8230 N   0  0  0  0  0  0  0  0  0  0  0  0
   39.1860   24.1810   34.0840 C   0  0  0  0  0  0  0  0  0  0  0  0
   40.0800   23.5800   34.8880 N   0  0  0  0  0  0  0  0  0  0  0  0
   39.5800   23.4790   36.1370 C   0  0  0  0  0  0  0  0  0  0  0  0
   40.0820   22.9570   37.3100 C   0  0  0  0  0  0  0  0  0  0  0  0
   41.0670   22.5220   37.3150 H   0  0  0  0  0  0  0  0  0  0  0  0
   39.3350   22.9970   38.4330 N   0  0  0  0  0  0  0  0  0  0  0  0
   38.1100   23.5530   38.3630 C   0  0  0  0  0  0  0  0  0  0  0  0
   37.3780   23.6710   39.1610 H   0  0  0  0  0  0  0  0  0  0  0  0
   37.6140   24.0650   37.2250 N   0  0  0  0  0  0  0  0  0  0  0  0
   38.3260   24.0470   36.0740 C   0  0  0  0  0  0  0  0  0  0  0  0
   39.1620   24.6350   32.3560 S   0  0  0  0  0  0  0  0  0  0  0  0
   35.3680   24.1210   31.3620 C   0  0  0  0  0  0  0  0  0  0  0  0
   34.9500   25.3760   30.9080 C   0  0  0  0  0  0  0  0  0  0  0  0
   35.8730   26.4330   30.9040 C   0  0  0  0  0  0  0  0  0  0  0  0
   37.1330   26.1850   31.3450 N   0  0  0  0  0  0  0  0  0  0  0  0
   37.5100   24.9580   31.7800 C   0  0  0  0  0  0  0  0  0  0  0  0
   36.6470   23.9380   31.7910 N   0  0  0  0  0  0  0  0  0  0  0  0
   34.6970   23.2860   31.3820 H   0  0  0  0  0  0  0  0  0  0  0  0
   33.9150   25.4650   30.5760 H   0  0  0  0  0  0  0  0  0  0  0  0
   35.5360   27.3820   30.5550 H   0  0  0  0  0  0  0  0  0  0  0  0
  1  2  1  0  0  0  0
  2 12  1  0  0  0  0
  3  2  1  0  0  0  0
  3  4  2  0  0  0  0
  4  5  1  0  0  0  0
  5  6  1  0  0  0  0
  6  7  1  0  0  0  0
  6  8  2  0  0  0  0
  9  8  1  0  0  0  0
  9 10  1  0  0  0  0
 11  9  2  0  0  0  0
 12  5  2  0  0  0  0
 12 11  1  0  0  0  0
 13  3  1  0  0  0  0
 14 20  1  0  0  0  0
 14 19  1  0  0  0  0
 15 14  2  0  0  0  0
 16 15  1  0  0  0  0
 16 17  2  0  0  0  0
 17 18  1  0  0  0  0
 18 19  2  0  0  0  0
 18 13  1  0  0  0  0
 21 15  1  0  0  0  0
 22 16  1  0  0  0  0
M  END
>  <minimizedAffinity>
-4.27726412

$$$$

 OpenBabel03272506413D

 22 24  0  0  0  0  0  0  0  0999 V2000
   36.9140   25.8120   35.5280 H   0  0  0  0  0  0  0  0  0  0  0  0
   37.7640   25.2110   35.3690 N   0  0  0  0  0  0  0  0  0  0  0  0
   38.5440   24.9710   34.2780 C   0  0  0  0  0  0  0  0  0  0  0  0
   39.5110   24.1080   34.6360 N   0  0  0  0  0  0  0  0  0  0  0  0
   39.3770   23.7810   35.9390 C   0  0  0  0  0  0  0  0  0  0  0  0
   40.0920   22.9540   36.7780 C   0  0  0  0  0  0  0  0  0  0  0  0
   40.9470   22.4230   36.3940 H   0  0  0  0  0  0  0  0  0  0  0  0
   39.7130   22.8190   38.0660 N   0  0  0  0  0  0  0  0  0  0  0  0
   38.6360   23.5090   38.4880 C   0  0  0  0  0  0  0  0  0  0  0  0
   38.1920   23.5220   39.4830 H   0  0  0  0  0  0  0  0  0  0  0  0
   37.9340   24.3180   37.6780 N   0  0  0  0  0  0  0  0  0  0  0  0
   38.2750   24.4830   36.3780 C   0  0  0  0  0  0  0  0  0  0  0  0
   38.1110   25.8050   32.7600 S   0  0  0  0  0  0  0  0  0  0  0  0
   35.2950   28.5230   32.1820 C   0  0  0  0  0  0  0  0  0  0  0  0
   35.2030   29.2000   33.4020 C   0  0  0  0  0  0  0  0  0  0  0  0
   36.0430   28.8080   34.4550 C   0  0  0  0  0  0  0  0  0  0  0  0
   36.9090   27.7840   34.2370 N   0  0  0  0  0  0  0  0  0  0  0  0
   36.9750   27.1460   33.0430 C   0  0  0  0  0  0  0  0  0  0  0  0
   36.1840   27.5040   32.0280 N   0  0  0  0  0  0  0  0  0  0  0  0
   34.6730   28.7890   31.3510 H   0  0  0  0  0  0  0  0  0  0  0  0
   34.4730   30.0070   33.4680 H   0  0  0  0  0  0  0  0  0  0  0  0
   35.9590   29.3350   35.3770 H   0  0  0  0  0  0  0  0  0  0  0  0
  2  1  1  0  0  0  0
  2 12  1  0  0  0  0
  3  4  2  0  0  0  0
  3  2  1  0  0  0  0
  4  5  1  0  0  0  0
  5 12  2  0  0  0  0
  5  6  1  0  0  0  0
  6  8  2  0  0  0  0
  7  6  1  0  0  0  0
  8  9  1  0  0  0  0
  9 10  1  0  0  0  0
 11  9  2  0  0  0  0
 12 11  1  0  0  0  0
 13 18  1  0  0  0  0
 13  3  1  0  0  0  0
 14 15  1  0  0  0  0
 15 21  1  0  0  0  0
 15 16  2  0  0  0  0
 16 22  1  0  0  0  0
 17 16  1  0  0  0  0
 18 17  2  0  0  0  0
 19 14  2  0  0  0  0
 19 18  1  0  0  0  0
 20 14  1  0  0  0  0
M  END
>  <minimizedAffinity>
-4.2235918

$$$$

 OpenBabel03272506413D

 22 24  0  0  0  0  0  0  0  0999 V2000
   38.6630   23.3950   33.6720 H   0  0  0  0  0  0  0  0  0  0  0  0
   38.0710   24.2300   33.4260 N   0  0  0  0  0  0  0  0  0  0  0  0
   37.2250   24.5000   32.3920 C   0  0  0  0  0  0  0  0  0  0  0  0
   36.7230   25.7340   32.5730 N   0  0  0  0  0  0  0  0  0  0  0  0
   37.2250   26.2740   33.7030 C   0  0  0  0  0  0  0  0  0  0  0  0
   37.0370   27.4880   34.3280 C   0  0  0  0  0  0  0  0  0  0  0  0
   36.3690   28.2110   33.8880 H   0  0  0  0  0  0  0  0  0  0  0  0
   37.6890   27.7570   35.4780 N   0  0  0  0  0  0  0  0  0  0  0  0
   38.5110   26.8140   35.9780 C   0  0  0  0  0  0  0  0  0  0  0  0
   39.1110   26.8570   36.8860 H   0  0  0  0  0  0  0  0  0  0  0  0
   38.6990   25.6280   35.3770 N   0  0  0  0  0  0  0  0  0  0  0  0
   38.0670   25.3140   34.2220 C   0  0  0  0  0  0  0  0  0  0  0  0
   37.0170   23.2330   31.1500 S   0  0  0  0  0  0  0  0  0  0  0  0
   35.6300   19.5420   31.4710 C   0  0  0  0  0  0  0  0  0  0  0  0
   35.3830   19.3760   32.8380 C   0  0  0  0  0  0  0  0  0  0  0  0
   35.6520   20.4450   33.7050 C   0  0  0  0  0  0  0  0  0  0  0  0
   36.1440   21.5950   33.1740 N   0  0  0  0  0  0  0  0  0  0  0  0
   36.3740   21.7260   31.8450 C   0  0  0  0  0  0  0  0  0  0  0  0
   36.1240   20.7210   31.0010 N   0  0  0  0  0  0  0  0  0  0  0  0
   35.4390   18.7520   30.7720 H   0  0  0  0  0  0  0  0  0  0  0  0
   34.9880   18.4120   33.1570 H   0  0  0  0  0  0  0  0  0  0  0  0
   35.4580   20.3000   34.7430 H   0  0  0  0  0  0  0  0  0  0  0  0
  2  1  1  0  0  0  0
  2 12  1  0  0  0  0
  3  4  2  0  0  0  0
  3  2  1  0  0  0  0
  4  5  1  0  0  0  0
  5 12  2  0  0  0  0
  5  6  1  0  0  0  0
  6  8  2  0  0  0  0
  7  6  1  0  0  0  0
  8  9  1  0  0  0  0
  9 10  1  0  0  0  0
 11  9  2  0  0  0  0
 12 11  1  0  0  0  0
 13 18  1  0  0  0  0
 13  3  1  0  0  0  0
 14 15  1  0  0  0  0
 15 21  1  0  0  0  0
 15 16  2  0  0  0  0
 16 22  1  0  0  0  0
 17 16  1  0  0  0  0
 18 17  2  0  0  0  0
 19 14  2  0  0  0  0
 19 18  1  0  0  0  0
 20 14  1  0  0  0  0
M  END
>  <minimizedAffinity>
-4.16465139

$$$$

 OpenBabel03272506413D

 22 24  0  0  0  0  0  0  0  0999 V2000
   36.9150   30.8980   35.1120 H   0  0  0  0  0  0  0  0  0  0  0  0
   35.8810   30.7030   35.1080 N   0  0  0  0  0  0  0  0  0  0  0  0
   35.1070   29.7890   34.4580 C   0  0  0  0  0  0  0  0  0  0  0  0
   33.8290   29.9860   34.8240 N   0  0  0  0  0  0  0  0  0  0  0  0
   33.7530   31.0100   35.6990 C   0  0  0  0  0  0  0  0  0  0  0  0
   32.7000   31.6020   36.3630 C   0  0  0  0  0  0  0  0  0  0  0  0
   31.7010   31.2310   36.2060 H   0  0  0  0  0  0  0  0  0  0  0  0
   32.9330   32.6360   37.1980 N   0  0  0  0  0  0  0  0  0  0  0  0
   34.2040   33.0550   37.3530 C   0  0  0  0  0  0  0  0  0  0  0  0
   34.5740   33.8650   37.9800 H   0  0  0  0  0  0  0  0  0  0  0  0
   35.2360   32.4840   36.7110 N   0  0  0  0  0  0  0  0  0  0  0  0
   35.0510   31.4450   35.8630 C   0  0  0  0  0  0  0  0  0  0  0  0
   35.9340   28.6450   33.3630 S   0  0  0  0  0  0  0  0  0  0  0  0
   37.9350   25.3930   34.3980 C   0  0  0  0  0  0  0  0  0  0  0  0
   38.6110   25.7520   35.5680 C   0  0  0  0  0  0  0  0  0  0  0  0
   38.4470   27.0530   36.0680 C   0  0  0  0  0  0  0  0  0  0  0  0
   37.6380   27.9050   35.3870 N   0  0  0  0  0  0  0  0  0  0  0  0
   36.9960   27.5270   34.2540 C   0  0  0  0  0  0  0  0  0  0  0  0
   37.1380   26.2940   33.7620 N   0  0  0  0  0  0  0  0  0  0  0  0
   38.0310   24.4100   33.9800 H   0  0  0  0  0  0  0  0  0  0  0  0
   39.2350   24.9900   36.0340 H   0  0  0  0  0  0  0  0  0  0  0  0
   38.9700   27.3080   36.9610 H   0  0  0  0  0  0  0  0  0  0  0  0
  2  1  1  0  0  0  0
  2 12  1  0  0  0  0
  3  4  2  0  0  0  0
  3  2  1  0  0  0  0
  4  5  1  0  0  0  0
  5 12  2  0  0  0  0
  5  6  1  0  0  0  0
  6  8  2  0  0  0  0
  7  6  1  0  0  0  0
  8  9  1  0  0  0  0
  9 10  1  0  0  0  0
 11  9  2  0  0  0  0
 12 11  1  0  0  0  0
 13 18  1  0  0  0  0
 13  3  1  0  0  0  0
 14 15  1  0  0  0  0
 15 21  1  0  0  0  0
 15 16  2  0  0  0  0
 16 22  1  0  0  0  0
 17 16  1  0  0  0  0
 18 17  2  0  0  0  0
 19 18  1  0  0  0  0
 19 14  2  0  0  0  0
 20 14  1  0  0  0  0
M  END
>  <minimizedAffinity>
-4.11212111

$$$$

 OpenBabel03272506413D

 22 24  0  0  0  0  0  0  0  0999 V2000
   35.6860   24.2640   32.6000 H   0  0  0  0  0  0  0  0  0  0  0  0
   36.2970   23.6400   32.0140 N   0  0  0  0  0  0  0  0  0  0  0  0
   37.4400   23.8550   31.3040 C   0  0  0  0  0  0  0  0  0  0  0  0
   37.8040   22.6940   30.7320 N   0  0  0  0  0  0  0  0  0  0  0  0
   36.9210   21.7260   31.0550 C   0  0  0  0  0  0  0  0  0  0  0  0
   36.8360   20.3870   30.7370 C   0  0  0  0  0  0  0  0  0  0  0  0
   37.5900   19.9460   30.1050 H   0  0  0  0  0  0  0  0  0  0  0  0
   35.8150   19.6490   31.2170 N   0  0  0  0  0  0  0  0  0  0  0  0
   34.9040   20.2570   32.0010 C   0  0  0  0  0  0  0  0  0  0  0  0
   34.0240   19.8220   32.4730 H   0  0  0  0  0  0  0  0  0  0  0  0
   34.9790   21.5600   32.3180 N   0  0  0  0  0  0  0  0  0  0  0  0
   35.9850   22.3400   31.8580 C   0  0  0  0  0  0  0  0  0  0  0  0
   38.1130   25.5100   31.3140 S   0  0  0  0  0  0  0  0  0  0  0  0
   37.1530   26.7800   34.9350 C   0  0  0  0  0  0  0  0  0  0  0  0
   38.3710   27.1490   35.5140 C   0  0  0  0  0  0  0  0  0  0  0  0
   39.5450   27.0050   34.7600 C   0  0  0  0  0  0  0  0  0  0  0  0
   39.4420   26.5080   33.5000 N   0  0  0  0  0  0  0  0  0  0  0  0
   38.2460   26.1580   32.9660 C   0  0  0  0  0  0  0  0  0  0  0  0
   37.1170   26.2890   33.6660 N   0  0  0  0  0  0  0  0  0  0  0  0
   36.2300   26.8730   35.4740 H   0  0  0  0  0  0  0  0  0  0  0  0
   38.3390   27.5360   36.5320 H   0  0  0  0  0  0  0  0  0  0  0  0
   40.4640   27.2920   35.2180 H   0  0  0  0  0  0  0  0  0  0  0  0
  2  1  1  0  0  0  0
  3 13  1  0  0  0  0
  3  2  1  0  0  0  0
  4  5  1  0  0  0  0
  4  3  2  0  0  0  0
  5 12  1  0  0  0  0
  6  5  2  0  0  0  0
  6  8  1  0  0  0  0
  7  6  1  0  0  0  0
  8  9  2  0  0  0  0
  9 11  1  0  0  0  0
  9 10  1  0  0  0  0
 12  2  1  0  0  0  0
 12 11  2  0  0  0  0
 13 18  1  0  0  0  0
 14 20  1  0  0  0  0
 14 15  1  0  0  0  0
 15 21  1  0  0  0  0
 16 22  1  0  0  0  0
 16 15  2  0  0  0  0
 17 16  1  0  0  0  0
 18 17  2  0  0  0  0
 18 19  1  0  0  0  0
 19 14  2  0  0  0  0
M  END
>  <minimizedAffinity>
-4.00890589

$$$$

 OpenBabel03272506413D

 22 24  0  0  0  0  0  0  0  0999 V2000
   36.5080   28.3590   35.5920 H   0  0  0  0  0  0  0  0  0  0  0  0
   36.6410   27.7950   34.7140 N   0  0  0  0  0  0  0  0  0  0  0  0
   36.2930   28.0000   33.4120 C   0  0  0  0  0  0  0  0  0  0  0  0
   36.7130   26.9430   32.6940 N   0  0  0  0  0  0  0  0  0  0  0  0
   37.3270   26.0530   33.5020 C   0  0  0  0  0  0  0  0  0  0  0  0
   37.9230   24.8320   33.2720 C   0  0  0  0  0  0  0  0  0  0  0  0
   37.9450   24.4350   32.2700 H   0  0  0  0  0  0  0  0  0  0  0  0
   38.4690   24.1500   34.3000 N   0  0  0  0  0  0  0  0  0  0  0  0
   38.4090   24.6970   35.5290 C   0  0  0  0  0  0  0  0  0  0  0  0
   38.7930   24.2940   36.4650 H   0  0  0  0  0  0  0  0  0  0  0  0
   37.8320   25.8870   35.7630 N   0  0  0  0  0  0  0  0  0  0  0  0
   37.2700   26.6060   34.7630 C   0  0  0  0  0  0  0  0  0  0  0  0
   35.4300   29.5140   33.0230 S   0  0  0  0  0  0  0  0  0  0  0  0
   35.5770   31.7360   36.2920 C   0  0  0  0  0  0  0  0  0  0  0  0
   34.2600   31.7630   36.7600 C   0  0  0  0  0  0  0  0  0  0  0  0
   33.2760   31.0660   36.0420 C   0  0  0  0  0  0  0  0  0  0  0  0
   33.6520   30.3980   34.9210 N   0  0  0  0  0  0  0  0  0  0  0  0
   34.9380   30.3910   34.4920 C   0  0  0  0  0  0  0  0  0  0  0  0
   35.8900   31.0470   35.1610 N   0  0  0  0  0  0  0  0  0  0  0  0
   36.3610   32.2540   36.8090 H   0  0  0  0  0  0  0  0  0  0  0  0
   34.0680   32.3300   37.6710 H   0  0  0  0  0  0  0  0  0  0  0  0
   32.2780   31.0970   36.4140 H   0  0  0  0  0  0  0  0  0  0  0  0
  2 12  1  0  0  0  0
  2  1  1  0  0  0  0
  3  2  1  0  0  0  0
  4  3  2  0  0  0  0
  4  5  1  0  0  0  0
  5 12  1  0  0  0  0
  6  5  2  0  0  0  0
  6  8  1  0  0  0  0
  7  6  1  0  0  0  0
  8  9  2  0  0  0  0
  9 11  1  0  0  0  0
  9 10  1  0  0  0  0
 12 11  2  0  0  0  0
 13  3  1  0  0  0  0
 13 18  1  0  0  0  0
 14 15  1  0  0  0  0
 14 20  1  0  0  0  0
 15 21  1  0  0  0  0
 16 22  1  0  0  0  0
 16 15  2  0  0  0  0
 17 16  1  0  0  0  0
 18 17  2  0  0  0  0
 18 19  1  0  0  0  0
 19 14  2  0  0  0  0
M  END
>  <minimizedAffinity>
-4.00175333

$$$$

 OpenBabel03272506413D

 22 24  0  0  0  0  0  0  0  0999 V2000
   37.9360   26.6210   29.3950 H   0  0  0  0  0  0  0  0  0  0  0  0
   37.4620   27.4580   29.8230 N   0  0  0  0  0  0  0  0  0  0  0  0
   36.7080   27.6300   30.9440 C   0  0  0  0  0  0  0  0  0  0  0  0
   36.3490   28.9240   31.0140 N   0  0  0  0  0  0  0  0  0  0  0  0
   36.8530   29.5980   29.9590 C   0  0  0  0  0  0  0  0  0  0  0  0
   36.7810   30.9180   29.5670 C   0  0  0  0  0  0  0  0  0  0  0  0
   36.2270   31.6190   30.1700 H   0  0  0  0  0  0  0  0  0  0  0  0
   37.4010   31.3140   28.4370 N   0  0  0  0  0  0  0  0  0  0  0  0
   38.0770   30.3920   27.7250 C   0  0  0  0  0  0  0  0  0  0  0  0
   38.6320   30.5300   26.7980 H   0  0  0  0  0  0  0  0  0  0  0  0
   38.1540   29.1040   28.1000 N   0  0  0  0  0  0  0  0  0  0  0  0
   37.5470   28.6610   29.2260 C   0  0  0  0  0  0  0  0  0  0  0  0
   36.4120   26.1920   31.9620 S   0  0  0  0  0  0  0  0  0  0  0  0
   37.7190   27.6860   35.3840 C   0  0  0  0  0  0  0  0  0  0  0  0
   38.3940   26.6260   35.9960 C   0  0  0  0  0  0  0  0  0  0  0  0
   38.4550   25.3920   35.3310 C   0  0  0  0  0  0  0  0  0  0  0  0
   37.8500   25.2860   34.1200 N   0  0  0  0  0  0  0  0  0  0  0  0
   37.2020   26.3330   33.5510 C   0  0  0  0  0  0  0  0  0  0  0  0
   37.1330   27.5150   34.1670 N   0  0  0  0  0  0  0  0  0  0  0  0
   37.6480   28.6460   35.8560 H   0  0  0  0  0  0  0  0  0  0  0  0
   38.8430   26.8200   36.9700 H   0  0  0  0  0  0  0  0  0  0  0  0
   38.9730   24.5960   35.8130 H   0  0  0  0  0  0  0  0  0  0  0  0
  1  2  1  0  0  0  0
  2  3  1  0  0  0  0
  3  4  2  0  0  0  0
  3 13  1  0  0  0  0
  5  4  1  0  0  0  0
  6  5  1  0  0  0  0
  6  7  1  0  0  0  0
  8  6  2  0  0  0  0
  9 11  2  0  0  0  0
  9  8  1  0  0  0  0
 10  9  1  0  0  0  0
 11 12  1  0  0  0  0
 12  2  1  0  0  0  0
 12  5  2  0  0  0  0
 13 18  1  0  0  0  0
 14 20  1  0  0  0  0
 14 15  1  0  0  0  0
 15 21  1  0  0  0  0
 16 22  1  0  0  0  0
 16 15  2  0  0  0  0
 17 16  1  0  0  0  0
 18 17  2  0  0  0  0
 18 19  1  0  0  0  0
 19 14  2  0  0  0  0
M  END
>  <minimizedAffinity>
-3.96821523

$$$$
