
 OpenBabel03272503573D

 37 41  0  0  0  0  0  0  0  0999 V2000
   35.9620   30.2140   31.0580 C   0  0  0  0  0  0  0  0  0  0  0  0
   36.1350   28.8200   30.8770 C   0  0  0  0  0  0  0  0  0  0  0  0
   36.0010   28.0500   32.0080 C   0  0  0  0  0  0  0  0  0  0  0  0
   35.7280   28.6480   33.1540 N   0  0  0  0  0  0  0  0  0  0  0  0
   35.5590   29.9370   33.3660 C   0  0  0  0  0  0  0  0  0  0  0  0
   35.6930   30.6650   32.2620 N   0  0  0  0  0  0  0  0  0  0  0  0
   36.3550   28.4400   29.8940 H   0  0  0  0  0  0  0  0  0  0  0  0
   36.1540   26.6410   31.9370 N   0  0  0  0  0  0  0  0  0  0  0  0
   35.4150   25.9000   31.0740 C   0  0  0  0  0  0  0  0  0  0  0  0
   34.6530   26.1620   30.3510 H   0  0  0  0  0  0  0  0  0  0  0  0
   35.7450   24.5820   31.1960 N   0  0  0  0  0  0  0  0  0  0  0  0
   36.6960   24.4750   32.1350 C   0  0  0  0  0  0  0  0  0  0  0  0
   37.4550   23.4710   32.7370 C   0  0  0  0  0  0  0  0  0  0  0  0
   37.2650   22.4620   32.3840 H   0  0  0  0  0  0  0  0  0  0  0  0
   38.3640   23.7330   33.6920 N   0  0  0  0  0  0  0  0  0  0  0  0
   38.5460   25.0090   34.0800 C   0  0  0  0  0  0  0  0  0  0  0  0
   39.2970   25.1160   34.8520 H   0  0  0  0  0  0  0  0  0  0  0  0
   37.8490   26.0440   33.5450 N   0  0  0  0  0  0  0  0  0  0  0  0
   36.9380   25.7620   32.5840 C   0  0  0  0  0  0  0  0  0  0  0  0
   35.2550   30.7280   34.5540 C   0  0  0  0  0  0  0  0  0  0  0  0
   36.0850   31.6920   35.0290 N   0  0  0  0  0  0  0  0  0  0  0  0
   35.7940   32.4120   36.1130 C   0  0  0  0  0  0  0  0  0  0  0  0
   34.6710   32.2630   36.8350 N   0  0  0  0  0  0  0  0  0  0  0  0
   33.8060   31.3250   36.4200 C   0  0  0  0  0  0  0  0  0  0  0  0
   32.6560   31.1640   37.1480 C   0  0  0  0  0  0  0  0  0  0  0  0
   31.7200   30.2110   36.7720 C   0  0  0  0  0  0  0  0  0  0  0  0
   32.0160   29.4570   35.6460 C   0  0  0  0  0  0  0  0  0  0  0  0
   33.1850   29.6630   34.9530 C   0  0  0  0  0  0  0  0  0  0  0  0
   34.1180   30.5930   35.3040 C   0  0  0  0  0  0  0  0  0  0  0  0
   36.4840   33.1920   36.4820 H   0  0  0  0  0  0  0  0  0  0  0  0
   32.4730   31.7780   38.0200 H   0  0  0  0  0  0  0  0  0  0  0  0
   30.8220   30.0900   37.3470 H   0  0  0  0  0  0  0  0  0  0  0  0
   31.2540   28.7310   35.3970 H   0  0  0  0  0  0  0  0  0  0  0  0
   33.2640   28.9950   34.1110 H   0  0  0  0  0  0  0  0  0  0  0  0
   36.0700   31.1520   29.9580 N   0  0  0  0  0  0  0  0  0  0  0  0
   35.3300   31.6560   29.4160 H   0  0  0  0  0  0  0  0  0  0  0  0
   36.9700   31.4800   29.5210 H   0  0  0  0  0  0  0  0  0  0  0  0
  1  6  1  0  0  0  0
  2  1  2  0  0  0  0
  2  3  1  0  0  0  0
  3  4  2  0  0  0  0
  4  5  1  0  0  0  0
  5 20  1  0  0  0  0
  6  5  2  0  0  0  0
  7  2  1  0  0  0  0
  8  3  1  0  0  0  0
  8 19  1  0  0  0  0
  9 11  2  0  0  0  0
  9  8  1  0  0  0  0
 10  9  1  0  0  0  0
 11 12  1  0  0  0  0
 12 19  2  0  0  0  0
 12 13  1  0  0  0  0
 13 15  2  0  0  0  0
 14 13  1  0  0  0  0
 15 16  1  0  0  0  0
 16 17  1  0  0  0  0
 18 16  2  0  0  0  0
 19 18  1  0  0  0  0
 20 21  2  0  0  0  0
 20 29  1  0  0  0  0
 21 22  1  0  0  0  0
 22 30  1  0  0  0  0
 22 23  2  0  0  0  0
 24 23  1  0  0  0  0
 24 25  1  0  0  0  0
 25 31  1  0  0  0  0
 26 25  2  0  0  0  0
 26 32  1  0  0  0  0
 27 26  1  0  0  0  0
 28 29  1  0  0  0  0
 28 27  2  0  0  0  0
 29 24  2  0  0  0  0
 33 27  1  0  0  0  0
 34 28  1  0  0  0  0
 35  1  1  0  0  0  0
 36 35  1  0  0  0  0
 37 35  1  0  0  0  0
M  END
>  <minimizedAffinity>
-6.78705215

$$$$

 OpenBabel03272503573D

 37 41  0  0  0  0  0  0  0  0999 V2000
   36.4770   23.4500   31.9280 C   0  0  0  0  0  0  0  0  0  0  0  0
   36.1140   24.7730   31.5770 C   0  0  0  0  0  0  0  0  0  0  0  0
   36.8400   25.7720   32.1800 C   0  0  0  0  0  0  0  0  0  0  0  0
   37.8020   25.4370   33.0220 N   0  0  0  0  0  0  0  0  0  0  0  0
   38.1730   24.2230   33.3750 C   0  0  0  0  0  0  0  0  0  0  0  0
   37.4590   23.2710   32.7830 N   0  0  0  0  0  0  0  0  0  0  0  0
   35.3110   24.9300   30.8780 H   0  0  0  0  0  0  0  0  0  0  0  0
   36.5580   27.1330   31.8980 N   0  0  0  0  0  0  0  0  0  0  0  0
   36.5560   27.5970   30.6230 C   0  0  0  0  0  0  0  0  0  0  0  0
   36.7420   27.1190   29.6700 H   0  0  0  0  0  0  0  0  0  0  0  0
   36.2580   28.9280   30.6170 N   0  0  0  0  0  0  0  0  0  0  0  0
   36.0660   29.3200   31.8840 C   0  0  0  0  0  0  0  0  0  0  0  0
   35.7470   30.4900   32.5740 C   0  0  0  0  0  0  0  0  0  0  0  0
   35.5980   31.3730   31.9590 H   0  0  0  0  0  0  0  0  0  0  0  0
   35.6300   30.5250   33.9130 N   0  0  0  0  0  0  0  0  0  0  0  0
   35.8290   29.3900   34.6090 C   0  0  0  0  0  0  0  0  0  0  0  0
   35.7130   29.5210   35.6770 H   0  0  0  0  0  0  0  0  0  0  0  0
   36.1430   28.2100   34.0150 N   0  0  0  0  0  0  0  0  0  0  0  0
   36.2560   28.1940   32.6660 C   0  0  0  0  0  0  0  0  0  0  0  0
   39.2010   23.7090   34.2740 C   0  0  0  0  0  0  0  0  0  0  0  0
   40.4200   23.2980   33.8400 N   0  0  0  0  0  0  0  0  0  0  0  0
   41.3540   22.8350   34.6720 C   0  0  0  0  0  0  0  0  0  0  0  0
   41.1900   22.7290   36.0020 N   0  0  0  0  0  0  0  0  0  0  0  0
   40.0060   23.1190   36.4970 C   0  0  0  0  0  0  0  0  0  0  0  0
   39.8270   23.0160   37.8520 C   0  0  0  0  0  0  0  0  0  0  0  0
   38.6250   23.4030   38.4280 C   0  0  0  0  0  0  0  0  0  0  0  0
   37.6480   23.8840   37.5690 C   0  0  0  0  0  0  0  0  0  0  0  0
   37.8830   23.9660   36.2180 C   0  0  0  0  0  0  0  0  0  0  0  0
   39.0560   23.5920   35.6300 C   0  0  0  0  0  0  0  0  0  0  0  0
   42.3400   22.5060   34.2980 H   0  0  0  0  0  0  0  0  0  0  0  0
   40.6210   22.6330   38.4790 H   0  0  0  0  0  0  0  0  0  0  0  0
   38.4920   23.3190   39.4900 H   0  0  0  0  0  0  0  0  0  0  0  0
   36.7330   24.1710   38.0690 H   0  0  0  0  0  0  0  0  0  0  0  0
   37.0260   24.3550   35.6930 H   0  0  0  0  0  0  0  0  0  0  0  0
   35.8040   22.2920   31.3710 N   0  0  0  0  0  0  0  0  0  0  0  0
   36.1030   21.6230   30.6250 H   0  0  0  0  0  0  0  0  0  0  0  0
   34.8560   21.9410   31.6610 H   0  0  0  0  0  0  0  0  0  0  0  0
  1  6  1  0  0  0  0
  2  1  2  0  0  0  0
  2  3  1  0  0  0  0
  3  4  2  0  0  0  0
  4  5  1  0  0  0  0
  5 20  1  0  0  0  0
  6  5  2  0  0  0  0
  7  2  1  0  0  0  0
  8  3  1  0  0  0  0
  8 19  1  0  0  0  0
  9  8  1  0  0  0  0
 10  9  1  0  0  0  0
 11  9  2  0  0  0  0
 11 12  1  0  0  0  0
 12 13  2  0  0  0  0
 12 19  1  0  0  0  0
 13 15  1  0  0  0  0
 14 13  1  0  0  0  0
 15 16  2  0  0  0  0
 16 17  1  0  0  0  0
 18 16  1  0  0  0  0
 19 18  2  0  0  0  0
 20 29  1  0  0  0  0
 21 20  2  0  0  0  0
 21 22  1  0  0  0  0
 22 23  2  0  0  0  0
 23 24  1  0  0  0  0
 24 25  1  0  0  0  0
 25 26  2  0  0  0  0
 25 31  1  0  0  0  0
 26 32  1  0  0  0  0
 27 33  1  0  0  0  0
 27 26  1  0  0  0  0
 28 27  2  0  0  0  0
 29 28  1  0  0  0  0
 29 24  2  0  0  0  0
 30 22  1  0  0  0  0
 34 28  1  0  0  0  0
 35 37  1  0  0  0  0
 35  1  1  0  0  0  0
 36 35  1  0  0  0  0
M  END
>  <minimizedAffinity>
-6.70240736

$$$$

 OpenBabel03272503573D

 37 41  0  0  0  0  0  0  0  0999 V2000
   36.4540   29.8710   30.5690 C   0  0  0  0  0  0  0  0  0  0  0  0
   37.4020   28.8230   30.6710 C   0  0  0  0  0  0  0  0  0  0  0  0
   37.2700   28.0020   31.7660 C   0  0  0  0  0  0  0  0  0  0  0  0
   36.2940   28.2420   32.6240 N   0  0  0  0  0  0  0  0  0  0  0  0
   35.3930   29.2010   32.5670 C   0  0  0  0  0  0  0  0  0  0  0  0
   35.5370   29.9850   31.5030 N   0  0  0  0  0  0  0  0  0  0  0  0
   38.1570   28.7210   29.9110 H   0  0  0  0  0  0  0  0  0  0  0  0
   38.1670   26.9210   31.9630 N   0  0  0  0  0  0  0  0  0  0  0  0
   38.3520   25.9820   31.0020 C   0  0  0  0  0  0  0  0  0  0  0  0
   37.9280   25.8510   30.0150 H   0  0  0  0  0  0  0  0  0  0  0  0
   39.2570   25.0560   31.4290 N   0  0  0  0  0  0  0  0  0  0  0  0
   39.6560   25.3980   32.6620 C   0  0  0  0  0  0  0  0  0  0  0  0
   40.5240   24.9210   33.6460 C   0  0  0  0  0  0  0  0  0  0  0  0
   41.0620   24.0120   33.3970 H   0  0  0  0  0  0  0  0  0  0  0  0
   40.6860   25.5460   34.8250 N   0  0  0  0  0  0  0  0  0  0  0  0
   39.9850   26.6710   35.0630 C   0  0  0  0  0  0  0  0  0  0  0  0
   40.1840   27.0980   36.0370 H   0  0  0  0  0  0  0  0  0  0  0  0
   39.1200   27.2010   34.1610 N   0  0  0  0  0  0  0  0  0  0  0  0
   38.9690   26.5580   32.9780 C   0  0  0  0  0  0  0  0  0  0  0  0
   34.2750   29.5800   33.4240 C   0  0  0  0  0  0  0  0  0  0  0  0
   32.9960   29.1950   33.1790 N   0  0  0  0  0  0  0  0  0  0  0  0
   31.9820   29.5420   33.9730 C   0  0  0  0  0  0  0  0  0  0  0  0
   32.1170   30.2960   35.0770 N   0  0  0  0  0  0  0  0  0  0  0  0
   33.3560   30.7100   35.3780 C   0  0  0  0  0  0  0  0  0  0  0  0
   33.5060   31.4780   36.5030 C   0  0  0  0  0  0  0  0  0  0  0  0
   34.7630   31.9400   36.8700 C   0  0  0  0  0  0  0  0  0  0  0  0
   35.8220   31.5830   36.0490 C   0  0  0  0  0  0  0  0  0  0  0  0
   35.6130   30.8100   34.9330 C   0  0  0  0  0  0  0  0  0  0  0  0
   34.3880   30.3450   34.5530 C   0  0  0  0  0  0  0  0  0  0  0  0
   30.9490   29.2180   33.7540 H   0  0  0  0  0  0  0  0  0  0  0  0
   32.6470   31.7290   37.1100 H   0  0  0  0  0  0  0  0  0  0  0  0
   34.8730   32.5410   37.7520 H   0  0  0  0  0  0  0  0  0  0  0  0
   36.7770   31.9680   36.3810 H   0  0  0  0  0  0  0  0  0  0  0  0
   36.5340   30.6270   34.4030 H   0  0  0  0  0  0  0  0  0  0  0  0
   36.4650   30.8140   29.4680 N   0  0  0  0  0  0  0  0  0  0  0  0
   35.8560   30.8800   28.6200 H   0  0  0  0  0  0  0  0  0  0  0  0
   37.1330   31.6200   29.3610 H   0  0  0  0  0  0  0  0  0  0  0  0
  1  2  2  0  0  0  0
  1  6  1  0  0  0  0
  2  3  1  0  0  0  0
  3  8  1  0  0  0  0
  3  4  2  0  0  0  0
  5  4  1  0  0  0  0
  5 20  1  0  0  0  0
  6  5  2  0  0  0  0
  7  2  1  0  0  0  0
  8 19  1  0  0  0  0
  9 11  2  0  0  0  0
  9  8  1  0  0  0  0
 10  9  1  0  0  0  0
 11 12  1  0  0  0  0
 12 19  2  0  0  0  0
 12 13  1  0  0  0  0
 13 15  2  0  0  0  0
 14 13  1  0  0  0  0
 15 16  1  0  0  0  0
 16 17  1  0  0  0  0
 18 16  2  0  0  0  0
 19 18  1  0  0  0  0
 20 29  1  0  0  0  0
 21 20  2  0  0  0  0
 21 22  1  0  0  0  0
 22 23  2  0  0  0  0
 23 24  1  0  0  0  0
 24 25  1  0  0  0  0
 25 26  2  0  0  0  0
 25 31  1  0  0  0  0
 26 32  1  0  0  0  0
 27 33  1  0  0  0  0
 27 26  1  0  0  0  0
 28 27  2  0  0  0  0
 29 28  1  0  0  0  0
 29 24  2  0  0  0  0
 30 22  1  0  0  0  0
 34 28  1  0  0  0  0
 35  1  1  0  0  0  0
 36 35  1  0  0  0  0
 37 35  1  0  0  0  0
M  END
>  <minimizedAffinity>
-6.62757349

$$$$

 OpenBabel03272503573D

 37 41  0  0  0  0  0  0  0  0999 V2000
   36.1360   30.2140   30.9800 C   0  0  0  0  0  0  0  0  0  0  0  0
   35.7900   30.9690   32.1280 C   0  0  0  0  0  0  0  0  0  0  0  0
   35.5450   30.2420   33.2690 C   0  0  0  0  0  0  0  0  0  0  0  0
   35.6470   28.9260   33.2170 N   0  0  0  0  0  0  0  0  0  0  0  0
   35.9660   28.1860   32.1740 C   0  0  0  0  0  0  0  0  0  0  0  0
   36.1980   28.9060   31.0810 N   0  0  0  0  0  0  0  0  0  0  0  0
   35.7370   32.0410   32.0560 H   0  0  0  0  0  0  0  0  0  0  0  0
   35.1910   30.9000   34.4750 N   0  0  0  0  0  0  0  0  0  0  0  0
   35.9770   31.8750   34.9960 C   0  0  0  0  0  0  0  0  0  0  0  0
   36.9130   32.3130   34.6720 H   0  0  0  0  0  0  0  0  0  0  0  0
   35.4240   32.3470   36.1500 N   0  0  0  0  0  0  0  0  0  0  0  0
   34.2830   31.6790   36.3710 C   0  0  0  0  0  0  0  0  0  0  0  0
   33.2600   31.6520   37.3190 C   0  0  0  0  0  0  0  0  0  0  0  0
   33.3620   32.3530   38.1410 H   0  0  0  0  0  0  0  0  0  0  0  0
   32.2140   30.8120   37.2240 N   0  0  0  0  0  0  0  0  0  0  0  0
   32.1550   29.9700   36.1750 C   0  0  0  0  0  0  0  0  0  0  0  0
   31.2770   29.3370   36.1880 H   0  0  0  0  0  0  0  0  0  0  0  0
   33.1080   29.9320   35.2090 N   0  0  0  0  0  0  0  0  0  0  0  0
   34.1540   30.7850   35.3210 C   0  0  0  0  0  0  0  0  0  0  0  0
   36.1180   26.7490   31.9710 C   0  0  0  0  0  0  0  0  0  0  0  0
   35.2540   26.0160   31.2230 N   0  0  0  0  0  0  0  0  0  0  0  0
   35.4070   24.7030   31.0400 C   0  0  0  0  0  0  0  0  0  0  0  0
   36.4120   23.9830   31.5660 N   0  0  0  0  0  0  0  0  0  0  0  0
   37.3020   24.6480   32.3170 C   0  0  0  0  0  0  0  0  0  0  0  0
   38.3330   23.9240   32.8580 C   0  0  0  0  0  0  0  0  0  0  0  0
   39.2880   24.5520   33.6450 C   0  0  0  0  0  0  0  0  0  0  0  0
   39.1360   25.9170   33.8410 C   0  0  0  0  0  0  0  0  0  0  0  0
   38.0830   26.5920   33.2730 C   0  0  0  0  0  0  0  0  0  0  0  0
   37.1330   25.9960   32.4960 C   0  0  0  0  0  0  0  0  0  0  0  0
   34.6920   24.1260   30.4270 H   0  0  0  0  0  0  0  0  0  0  0  0
   38.4060   22.8610   32.6750 H   0  0  0  0  0  0  0  0  0  0  0  0
   40.0920   23.9790   34.0660 H   0  0  0  0  0  0  0  0  0  0  0  0
   39.9070   26.3550   34.4600 H   0  0  0  0  0  0  0  0  0  0  0  0
   38.1070   27.6400   33.5250 H   0  0  0  0  0  0  0  0  0  0  0  0
   36.4260   30.8410   29.7050 N   0  0  0  0  0  0  0  0  0  0  0  0
   37.3380   31.0200   29.2250 H   0  0  0  0  0  0  0  0  0  0  0  0
   35.7090   31.2300   29.0400 H   0  0  0  0  0  0  0  0  0  0  0  0
  1  6  2  0  0  0  0
  1  2  1  0  0  0  0
  2  3  2  0  0  0  0
  3  8  1  0  0  0  0
  4  3  1  0  0  0  0
  5  4  2  0  0  0  0
  6  5  1  0  0  0  0
  7  2  1  0  0  0  0
  8  9  1  0  0  0  0
  8 19  1  0  0  0  0
  9 11  2  0  0  0  0
 10  9  1  0  0  0  0
 11 12  1  0  0  0  0
 12 13  1  0  0  0  0
 13 14  1  0  0  0  0
 15 13  2  0  0  0  0
 16 17  1  0  0  0  0
 16 15  1  0  0  0  0
 18 19  1  0  0  0  0
 18 16  2  0  0  0  0
 19 12  2  0  0  0  0
 20  5  1  0  0  0  0
 20 29  1  0  0  0  0
 21 20  2  0  0  0  0
 22 21  1  0  0  0  0
 22 23  2  0  0  0  0
 23 24  1  0  0  0  0
 24 29  2  0  0  0  0
 24 25  1  0  0  0  0
 25 26  2  0  0  0  0
 26 27  1  0  0  0  0
 26 32  1  0  0  0  0
 27 33  1  0  0  0  0
 28 34  1  0  0  0  0
 28 27  2  0  0  0  0
 29 28  1  0  0  0  0
 30 22  1  0  0  0  0
 31 25  1  0  0  0  0
 35  1  1  0  0  0  0
 36 35  1  0  0  0  0
 37 35  1  0  0  0  0
M  END
>  <minimizedAffinity>
-6.41451836

$$$$

 OpenBabel03272503573D

 37 41  0  0  0  0  0  0  0  0999 V2000
   37.1910   22.8730   32.3840 C   0  0  0  0  0  0  0  0  0  0  0  0
   37.1510   24.0850   31.6520 C   0  0  0  0  0  0  0  0  0  0  0  0
   37.5520   25.2090   32.3340 C   0  0  0  0  0  0  0  0  0  0  0  0
   37.9380   25.0830   33.5920 N   0  0  0  0  0  0  0  0  0  0  0  0
   37.9920   23.9790   34.3090 C   0  0  0  0  0  0  0  0  0  0  0  0
   37.5990   22.9040   33.6330 N   0  0  0  0  0  0  0  0  0  0  0  0
   36.8190   24.0700   30.6290 H   0  0  0  0  0  0  0  0  0  0  0  0
   37.5510   26.4740   31.6940 N   0  0  0  0  0  0  0  0  0  0  0  0
   38.2190   26.6700   30.5300 C   0  0  0  0  0  0  0  0  0  0  0  0
   38.8200   26.0150   29.9110 H   0  0  0  0  0  0  0  0  0  0  0  0
   38.0650   27.9610   30.1190 N   0  0  0  0  0  0  0  0  0  0  0  0
   37.2970   28.5960   31.0150 C   0  0  0  0  0  0  0  0  0  0  0  0
   36.7640   29.8710   31.2120 C   0  0  0  0  0  0  0  0  0  0  0  0
   37.0080   30.6050   30.4500 H   0  0  0  0  0  0  0  0  0  0  0  0
   35.9980   30.1730   32.2750 N   0  0  0  0  0  0  0  0  0  0  0  0
   35.7380   29.2100   33.1790 C   0  0  0  0  0  0  0  0  0  0  0  0
   35.1140   29.5510   33.9960 H   0  0  0  0  0  0  0  0  0  0  0  0
   36.2170   27.9450   33.0630 N   0  0  0  0  0  0  0  0  0  0  0  0
   36.9860   27.6590   31.9860 C   0  0  0  0  0  0  0  0  0  0  0  0
   38.3920   23.6920   35.6820 C   0  0  0  0  0  0  0  0  0  0  0  0
   37.6580   24.0760   36.7580 N   0  0  0  0  0  0  0  0  0  0  0  0
   38.0320   23.8030   38.0100 C   0  0  0  0  0  0  0  0  0  0  0  0
   39.1520   23.1330   38.3300 N   0  0  0  0  0  0  0  0  0  0  0  0
   39.9230   22.7250   37.3120 C   0  0  0  0  0  0  0  0  0  0  0  0
   41.0680   22.0390   37.6270 C   0  0  0  0  0  0  0  0  0  0  0  0
   41.9110   21.5900   36.6200 C   0  0  0  0  0  0  0  0  0  0  0  0
   41.5300   21.8700   35.3160 C   0  0  0  0  0  0  0  0  0  0  0  0
   40.3700   22.5610   35.0590 C   0  0  0  0  0  0  0  0  0  0  0  0
   39.5270   23.0120   36.0320 C   0  0  0  0  0  0  0  0  0  0  0  0
   37.4190   24.1240   38.8710 H   0  0  0  0  0  0  0  0  0  0  0  0
   41.3200   21.8470   38.6610 H   0  0  0  0  0  0  0  0  0  0  0  0
   42.8050   21.0540   36.8740 H   0  0  0  0  0  0  0  0  0  0  0  0
   42.2210   21.4970   34.5720 H   0  0  0  0  0  0  0  0  0  0  0  0
   40.2220   22.7000   34.0010 H   0  0  0  0  0  0  0  0  0  0  0  0
   36.8010   21.6060   31.7980 N   0  0  0  0  0  0  0  0  0  0  0  0
   37.3810   20.8090   31.4470 H   0  0  0  0  0  0  0  0  0  0  0  0
   35.8110   21.2890   31.6320 H   0  0  0  0  0  0  0  0  0  0  0  0
  1  6  1  0  0  0  0
  2  3  1  0  0  0  0
  2  1  2  0  0  0  0
  3  4  2  0  0  0  0
  4  5  1  0  0  0  0
  5 20  1  0  0  0  0
  6  5  2  0  0  0  0
  7  2  1  0  0  0  0
  8 19  1  0  0  0  0
  8  3  1  0  0  0  0
  9  8  1  0  0  0  0
 10  9  1  0  0  0  0
 11  9  2  0  0  0  0
 11 12  1  0  0  0  0
 12 13  2  0  0  0  0
 12 19  1  0  0  0  0
 13 15  1  0  0  0  0
 14 13  1  0  0  0  0
 15 16  2  0  0  0  0
 16 17  1  0  0  0  0
 18 16  1  0  0  0  0
 19 18  2  0  0  0  0
 20 29  2  0  0  0  0
 20 21  1  0  0  0  0
 21 22  2  0  0  0  0
 22 23  1  0  0  0  0
 22 30  1  0  0  0  0
 24 25  1  0  0  0  0
 24 23  2  0  0  0  0
 25 31  1  0  0  0  0
 26 32  1  0  0  0  0
 26 25  2  0  0  0  0
 27 26  1  0  0  0  0
 28 27  2  0  0  0  0
 28 29  1  0  0  0  0
 29 24  1  0  0  0  0
 33 27  1  0  0  0  0
 34 28  1  0  0  0  0
 35  1  1  0  0  0  0
 36 35  1  0  0  0  0
 37 35  1  0  0  0  0
M  END
>  <minimizedAffinity>
-6.4026556

$$$$

 OpenBabel03272503573D

 37 41  0  0  0  0  0  0  0  0999 V2000
   38.4810   22.1600   31.6750 C   0  0  0  0  0  0  0  0  0  0  0  0
   38.2230   23.4220   31.0850 C   0  0  0  0  0  0  0  0  0  0  0  0
   38.5230   24.5170   31.8590 C   0  0  0  0  0  0  0  0  0  0  0  0
   39.0190   24.3210   33.0690 N   0  0  0  0  0  0  0  0  0  0  0  0
   39.2750   23.1700   33.6550 C   0  0  0  0  0  0  0  0  0  0  0  0
   38.9780   22.1230   32.8910 N   0  0  0  0  0  0  0  0  0  0  0  0
   37.8170   23.4640   30.0890 H   0  0  0  0  0  0  0  0  0  0  0  0
   38.3030   25.8270   31.3630 N   0  0  0  0  0  0  0  0  0  0  0  0
   38.8470   26.2310   30.1880 C   0  0  0  0  0  0  0  0  0  0  0  0
   39.4800   25.7320   29.4650 H   0  0  0  0  0  0  0  0  0  0  0  0
   38.4900   27.5220   29.9320 N   0  0  0  0  0  0  0  0  0  0  0  0
   37.7160   27.9500   30.9400 C   0  0  0  0  0  0  0  0  0  0  0  0
   37.0350   29.1100   31.3090 C   0  0  0  0  0  0  0  0  0  0  0  0
   37.1190   29.9440   30.6190 H   0  0  0  0  0  0  0  0  0  0  0  0
   36.3210   29.1930   32.4450 N   0  0  0  0  0  0  0  0  0  0  0  0
   36.2630   28.1170   33.2520 C   0  0  0  0  0  0  0  0  0  0  0  0
   35.6650   28.2830   34.1390 H   0  0  0  0  0  0  0  0  0  0  0  0
   36.8960   26.9510   32.9670 N   0  0  0  0  0  0  0  0  0  0  0  0
   37.6100   26.8850   31.8190 C   0  0  0  0  0  0  0  0  0  0  0  0
   39.8150   22.8060   34.9600 C   0  0  0  0  0  0  0  0  0  0  0  0
   40.9290   22.0430   35.1090 N   0  0  0  0  0  0  0  0  0  0  0  0
   41.4180   21.7210   36.3080 C   0  0  0  0  0  0  0  0  0  0  0  0
   40.8700   22.1100   37.4710 N   0  0  0  0  0  0  0  0  0  0  0  0
   39.7660   22.8680   37.3950 C   0  0  0  0  0  0  0  0  0  0  0  0
   39.1980   23.2720   38.5760 C   0  0  0  0  0  0  0  0  0  0  0  0
   38.0540   24.0570   38.5670 C   0  0  0  0  0  0  0  0  0  0  0  0
   37.5390   24.3950   37.3240 C   0  0  0  0  0  0  0  0  0  0  0  0
   38.1500   23.9620   36.1730 C   0  0  0  0  0  0  0  0  0  0  0  0
   39.2750   23.1900   36.1570 C   0  0  0  0  0  0  0  0  0  0  0  0
   42.3250   21.0990   36.4050 H   0  0  0  0  0  0  0  0  0  0  0  0
   39.6390   22.9800   39.5200 H   0  0  0  0  0  0  0  0  0  0  0  0
   37.6150   24.3690   39.4950 H   0  0  0  0  0  0  0  0  0  0  0  0
   36.6490   25.0070   37.3750 H   0  0  0  0  0  0  0  0  0  0  0  0
   37.6250   24.3060   35.2960 H   0  0  0  0  0  0  0  0  0  0  0  0
   38.2200   20.9160   30.9780 N   0  0  0  0  0  0  0  0  0  0  0  0
   38.8720   20.2480   30.5060 H   0  0  0  0  0  0  0  0  0  0  0  0
   37.2710   20.4820   30.8410 H   0  0  0  0  0  0  0  0  0  0  0  0
  1  6  1  0  0  0  0
  2  1  2  0  0  0  0
  2  3  1  0  0  0  0
  3  4  2  0  0  0  0
  4  5  1  0  0  0  0
  5 20  1  0  0  0  0
  6  5  2  0  0  0  0
  7  2  1  0  0  0  0
  8 19  1  0  0  0  0
  8  3  1  0  0  0  0
  9  8  1  0  0  0  0
 10  9  1  0  0  0  0
 11  9  2  0  0  0  0
 11 12  1  0  0  0  0
 12 13  2  0  0  0  0
 12 19  1  0  0  0  0
 13 15  1  0  0  0  0
 14 13  1  0  0  0  0
 15 16  2  0  0  0  0
 16 17  1  0  0  0  0
 18 16  1  0  0  0  0
 19 18  2  0  0  0  0
 20 21  2  0  0  0  0
 20 29  1  0  0  0  0
 21 22  1  0  0  0  0
 22 30  1  0  0  0  0
 22 23  2  0  0  0  0
 24 23  1  0  0  0  0
 24 25  1  0  0  0  0
 25 31  1  0  0  0  0
 26 25  2  0  0  0  0
 26 32  1  0  0  0  0
 27 33  1  0  0  0  0
 27 26  1  0  0  0  0
 28 27  2  0  0  0  0
 29 28  1  0  0  0  0
 29 24  2  0  0  0  0
 34 28  1  0  0  0  0
 35  1  1  0  0  0  0
 36 35  1  0  0  0  0
 37 35  1  0  0  0  0
M  END
>  <minimizedAffinity>
-6.16959906

$$$$

 OpenBabel03272503573D

 37 41  0  0  0  0  0  0  0  0999 V2000
   36.1410   30.6440   30.9300 C   0  0  0  0  0  0  0  0  0  0  0  0
   35.4380   31.2270   32.0120 C   0  0  0  0  0  0  0  0  0  0  0  0
   35.4110   30.4910   33.1730 C   0  0  0  0  0  0  0  0  0  0  0  0
   36.0260   29.3220   33.1970 N   0  0  0  0  0  0  0  0  0  0  0  0
   36.6910   28.7440   32.2170 C   0  0  0  0  0  0  0  0  0  0  0  0
   36.7050   29.4700   31.1040 N   0  0  0  0  0  0  0  0  0  0  0  0
   34.9730   32.1880   31.8810 H   0  0  0  0  0  0  0  0  0  0  0  0
   34.7340   30.9840   34.3180 N   0  0  0  0  0  0  0  0  0  0  0  0
   35.0300   32.2030   34.8350 C   0  0  0  0  0  0  0  0  0  0  0  0
   35.7400   32.9680   34.5460 H   0  0  0  0  0  0  0  0  0  0  0  0
   34.2480   32.4450   35.9250 N   0  0  0  0  0  0  0  0  0  0  0  0
   33.4480   31.3850   36.1110 C   0  0  0  0  0  0  0  0  0  0  0  0
   32.4480   30.9780   36.9940 C   0  0  0  0  0  0  0  0  0  0  0  0
   32.2020   31.6820   37.7830 H   0  0  0  0  0  0  0  0  0  0  0  0
   31.8280   29.7910   36.8790 N   0  0  0  0  0  0  0  0  0  0  0  0
   32.1870   28.9680   35.8750 C   0  0  0  0  0  0  0  0  0  0  0  0
   31.6310   28.0390   35.8680 H   0  0  0  0  0  0  0  0  0  0  0  0
   33.1500   29.2880   34.9730 N   0  0  0  0  0  0  0  0  0  0  0  0
   33.7630   30.4880   35.1040 C   0  0  0  0  0  0  0  0  0  0  0  0
   37.4110   27.4810   32.1010 C   0  0  0  0  0  0  0  0  0  0  0  0
   38.7350   27.3600   32.3820 N   0  0  0  0  0  0  0  0  0  0  0  0
   39.3820   26.1980   32.2770 C   0  0  0  0  0  0  0  0  0  0  0  0
   38.8040   25.0480   31.8910 N   0  0  0  0  0  0  0  0  0  0  0  0
   37.4970   25.0980   31.5980 C   0  0  0  0  0  0  0  0  0  0  0  0
   36.8960   23.9310   31.2040 C   0  0  0  0  0  0  0  0  0  0  0  0
   35.5450   23.9140   30.8860 C   0  0  0  0  0  0  0  0  0  0  0  0
   34.8650   25.1190   30.9910 C   0  0  0  0  0  0  0  0  0  0  0  0
   35.5180   26.2590   31.3930 C   0  0  0  0  0  0  0  0  0  0  0  0
   36.8440   26.2980   31.7100 C   0  0  0  0  0  0  0  0  0  0  0  0
   40.4590   26.1220   32.5110 H   0  0  0  0  0  0  0  0  0  0  0  0
   37.4720   23.0180   31.1370 H   0  0  0  0  0  0  0  0  0  0  0  0
   35.0810   22.9970   30.5780 H   0  0  0  0  0  0  0  0  0  0  0  0
   33.8170   25.0490   30.7330 H   0  0  0  0  0  0  0  0  0  0  0  0
   34.8520   27.1050   31.4180 H   0  0  0  0  0  0  0  0  0  0  0  0
   36.2590   31.3030   29.6440 N   0  0  0  0  0  0  0  0  0  0  0  0
   37.0610   31.8160   29.2110 H   0  0  0  0  0  0  0  0  0  0  0  0
   35.5010   31.3600   28.9160 H   0  0  0  0  0  0  0  0  0  0  0  0
  1  6  2  0  0  0  0
  1  2  1  0  0  0  0
  2  3  2  0  0  0  0
  3  4  1  0  0  0  0
  3  8  1  0  0  0  0
  5  4  2  0  0  0  0
  6  5  1  0  0  0  0
  7  2  1  0  0  0  0
  8  9  1  0  0  0  0
  8 19  1  0  0  0  0
  9 11  2  0  0  0  0
 10  9  1  0  0  0  0
 11 12  1  0  0  0  0
 12 13  1  0  0  0  0
 13 14  1  0  0  0  0
 15 13  2  0  0  0  0
 16 15  1  0  0  0  0
 17 16  1  0  0  0  0
 18 19  1  0  0  0  0
 18 16  2  0  0  0  0
 19 12  2  0  0  0  0
 20  5  1  0  0  0  0
 20 21  1  0  0  0  0
 22 21  2  0  0  0  0
 22 30  1  0  0  0  0
 23 22  1  0  0  0  0
 24 29  1  0  0  0  0
 24 23  2  0  0  0  0
 25 24  1  0  0  0  0
 26 27  1  0  0  0  0
 26 25  2  0  0  0  0
 27 28  2  0  0  0  0
 28 34  1  0  0  0  0
 28 29  1  0  0  0  0
 29 20  2  0  0  0  0
 31 25  1  0  0  0  0
 32 26  1  0  0  0  0
 33 27  1  0  0  0  0
 35  1  1  0  0  0  0
 36 35  1  0  0  0  0
 37 35  1  0  0  0  0
M  END
>  <minimizedAffinity>
-6.15746784

$$$$

 OpenBabel03272503573D

 37 41  0  0  0  0  0  0  0  0999 V2000
   35.7450   26.1240   31.4090 C   0  0  0  0  0  0  0  0  0  0  0  0
   36.8150   25.5360   32.1250 C   0  0  0  0  0  0  0  0  0  0  0  0
   37.5480   26.3910   32.9140 C   0  0  0  0  0  0  0  0  0  0  0  0
   37.2110   27.6680   32.9480 N   0  0  0  0  0  0  0  0  0  0  0  0
   36.2250   28.2550   32.3000 C   0  0  0  0  0  0  0  0  0  0  0  0
   35.5290   27.4130   31.5430 N   0  0  0  0  0  0  0  0  0  0  0  0
   37.0000   24.4810   32.0230 H   0  0  0  0  0  0  0  0  0  0  0  0
   38.6420   25.9050   33.6740 N   0  0  0  0  0  0  0  0  0  0  0  0
   38.4860   24.8770   34.5460 C   0  0  0  0  0  0  0  0  0  0  0  0
   37.6280   24.2800   34.8280 H   0  0  0  0  0  0  0  0  0  0  0  0
   39.6770   24.5980   35.1490 N   0  0  0  0  0  0  0  0  0  0  0  0
   40.5990   25.4420   34.6670 C   0  0  0  0  0  0  0  0  0  0  0  0
   41.9590   25.7050   34.8340 C   0  0  0  0  0  0  0  0  0  0  0  0
   42.4740   25.0730   35.5510 H   0  0  0  0  0  0  0  0  0  0  0  0
   42.5920   26.6750   34.1530 N   0  0  0  0  0  0  0  0  0  0  0  0
   41.8870   27.4180   33.2790 C   0  0  0  0  0  0  0  0  0  0  0  0
   42.4840   28.1710   32.7820 H   0  0  0  0  0  0  0  0  0  0  0  0
   40.5610   27.2280   33.0570 N   0  0  0  0  0  0  0  0  0  0  0  0
   39.9400   26.2460   33.7520 C   0  0  0  0  0  0  0  0  0  0  0  0
   35.7400   29.6300   32.2430 C   0  0  0  0  0  0  0  0  0  0  0  0
   35.3380   30.2220   31.0880 N   0  0  0  0  0  0  0  0  0  0  0  0
   34.8910   31.4780   31.0490 C   0  0  0  0  0  0  0  0  0  0  0  0
   34.7920   32.2740   32.1260 N   0  0  0  0  0  0  0  0  0  0  0  0
   35.1730   31.7500   33.3010 C   0  0  0  0  0  0  0  0  0  0  0  0
   35.0760   32.5530   34.4080 C   0  0  0  0  0  0  0  0  0  0  0  0
   35.4540   32.0720   35.6530 C   0  0  0  0  0  0  0  0  0  0  0  0
   35.9210   30.7670   35.7030 C   0  0  0  0  0  0  0  0  0  0  0  0
   35.9960   30.0080   34.5600 C   0  0  0  0  0  0  0  0  0  0  0  0
   35.6300   30.4590   33.3260 C   0  0  0  0  0  0  0  0  0  0  0  0
   34.5690   31.9390   30.0980 H   0  0  0  0  0  0  0  0  0  0  0  0
   34.7050   33.5650   34.3160 H   0  0  0  0  0  0  0  0  0  0  0  0
   35.3750   32.7070   36.5160 H   0  0  0  0  0  0  0  0  0  0  0  0
   36.2010   30.4430   36.6960 H   0  0  0  0  0  0  0  0  0  0  0  0
   36.3820   29.0230   34.7680 H   0  0  0  0  0  0  0  0  0  0  0  0
   34.8820   25.3480   30.5390 N   0  0  0  0  0  0  0  0  0  0  0  0
   33.9080   24.9960   30.6830 H   0  0  0  0  0  0  0  0  0  0  0  0
   35.1330   25.0090   29.5760 H   0  0  0  0  0  0  0  0  0  0  0  0
  1  6  2  0  0  0  0
  1  2  1  0  0  0  0
  2  3  2  0  0  0  0
  3  4  1  0  0  0  0
  3  8  1  0  0  0  0
  5  4  2  0  0  0  0
  6  5  1  0  0  0  0
  7  2  1  0  0  0  0
  8 19  1  0  0  0  0
  8  9  1  0  0  0  0
  9 10  1  0  0  0  0
  9 11  2  0  0  0  0
 12 13  1  0  0  0  0
 12 11  1  0  0  0  0
 13 14  1  0  0  0  0
 15 13  2  0  0  0  0
 16 15  1  0  0  0  0
 17 16  1  0  0  0  0
 18 16  2  0  0  0  0
 18 19  1  0  0  0  0
 19 12  2  0  0  0  0
 20  5  1  0  0  0  0
 20 29  1  0  0  0  0
 21 20  2  0  0  0  0
 22 21  1  0  0  0  0
 22 23  2  0  0  0  0
 23 24  1  0  0  0  0
 24 29  2  0  0  0  0
 24 25  1  0  0  0  0
 25 26  2  0  0  0  0
 26 27  1  0  0  0  0
 26 32  1  0  0  0  0
 27 33  1  0  0  0  0
 28 34  1  0  0  0  0
 28 27  2  0  0  0  0
 29 28  1  0  0  0  0
 30 22  1  0  0  0  0
 31 25  1  0  0  0  0
 35 36  1  0  0  0  0
 35  1  1  0  0  0  0
 37 35  1  0  0  0  0
M  END
>  <minimizedAffinity>
-6.13986397

$$$$

 OpenBabel03272503573D

 37 41  0  0  0  0  0  0  0  0999 V2000
   37.1450   28.4610   29.9650 C   0  0  0  0  0  0  0  0  0  0  0  0
   36.4430   29.5360   30.5620 C   0  0  0  0  0  0  0  0  0  0  0  0
   36.1780   29.4040   31.9050 C   0  0  0  0  0  0  0  0  0  0  0  0
   36.5860   28.3130   32.5270 N   0  0  0  0  0  0  0  0  0  0  0  0
   37.2400   27.2920   32.0120 C   0  0  0  0  0  0  0  0  0  0  0  0
   37.4860   27.4370   30.7140 N   0  0  0  0  0  0  0  0  0  0  0  0
   36.1590   30.3800   29.9570 H   0  0  0  0  0  0  0  0  0  0  0  0
   35.4810   30.4250   32.6010 N   0  0  0  0  0  0  0  0  0  0  0  0
   35.9210   31.7080   32.5850 C   0  0  0  0  0  0  0  0  0  0  0  0
   36.7730   32.1840   32.1170 H   0  0  0  0  0  0  0  0  0  0  0  0
   35.0840   32.4920   33.3230 N   0  0  0  0  0  0  0  0  0  0  0  0
   34.1060   31.7170   33.8120 C   0  0  0  0  0  0  0  0  0  0  0  0
   32.9690   31.8550   34.6080 C   0  0  0  0  0  0  0  0  0  0  0  0
   32.7650   32.8590   34.9670 H   0  0  0  0  0  0  0  0  0  0  0  0
   32.1750   30.8130   34.9130 N   0  0  0  0  0  0  0  0  0  0  0  0
   32.4920   29.5960   34.4320 C   0  0  0  0  0  0  0  0  0  0  0  0
   31.7940   28.8260   34.7320 H   0  0  0  0  0  0  0  0  0  0  0  0
   33.5800   29.3760   33.6500 N   0  0  0  0  0  0  0  0  0  0  0  0
   34.3670   30.4370   33.3530 C   0  0  0  0  0  0  0  0  0  0  0  0
   37.7500   26.0430   32.5680 C   0  0  0  0  0  0  0  0  0  0  0  0
   38.8650   25.9820   33.3400 N   0  0  0  0  0  0  0  0  0  0  0  0
   39.3190   24.8340   33.8480 C   0  0  0  0  0  0  0  0  0  0  0  0
   38.7320   23.6420   33.6510 N   0  0  0  0  0  0  0  0  0  0  0  0
   37.6240   23.6320   32.8960 C   0  0  0  0  0  0  0  0  0  0  0  0
   37.0150   22.4210   32.6890 C   0  0  0  0  0  0  0  0  0  0  0  0
   35.8650   22.3410   31.9170 C   0  0  0  0  0  0  0  0  0  0  0  0
   35.3870   23.5300   31.3850 C   0  0  0  0  0  0  0  0  0  0  0  0
   36.0380   24.7160   31.6250 C   0  0  0  0  0  0  0  0  0  0  0  0
   37.1690   24.8180   32.3810 C   0  0  0  0  0  0  0  0  0  0  0  0
   40.2280   24.8080   34.4740 H   0  0  0  0  0  0  0  0  0  0  0  0
   37.4280   21.5220   33.1270 H   0  0  0  0  0  0  0  0  0  0  0  0
   35.3940   21.3900   31.7590 H   0  0  0  0  0  0  0  0  0  0  0  0
   34.4900   23.4110   30.7930 H   0  0  0  0  0  0  0  0  0  0  0  0
   35.5440   25.5410   31.1390 H   0  0  0  0  0  0  0  0  0  0  0  0
   37.4980   28.4580   28.5590 N   0  0  0  0  0  0  0  0  0  0  0  0
   38.4140   28.6380   28.0850 H   0  0  0  0  0  0  0  0  0  0  0  0
   36.8370   28.2620   27.7640 H   0  0  0  0  0  0  0  0  0  0  0  0
  1  2  2  0  0  0  0
  1  6  1  0  0  0  0
  2  3  1  0  0  0  0
  3  4  2  0  0  0  0
  3  8  1  0  0  0  0
  5  4  1  0  0  0  0
  5 20  1  0  0  0  0
  6  5  2  0  0  0  0
  7  2  1  0  0  0  0
  8 19  1  0  0  0  0
  9  8  1  0  0  0  0
  9 11  2  0  0  0  0
 10  9  1  0  0  0  0
 11 12  1  0  0  0  0
 12 13  1  0  0  0  0
 13 15  2  0  0  0  0
 13 14  1  0  0  0  0
 16 17  1  0  0  0  0
 16 15  1  0  0  0  0
 18 16  2  0  0  0  0
 19 18  1  0  0  0  0
 19 12  2  0  0  0  0
 20 21  1  0  0  0  0
 21 22  2  0  0  0  0
 22 30  1  0  0  0  0
 23 22  1  0  0  0  0
 24 23  2  0  0  0  0
 25 24  1  0  0  0  0
 25 31  1  0  0  0  0
 26 25  2  0  0  0  0
 27 28  2  0  0  0  0
 27 26  1  0  0  0  0
 28 29  1  0  0  0  0
 29 20  2  0  0  0  0
 29 24  1  0  0  0  0
 32 26  1  0  0  0  0
 33 27  1  0  0  0  0
 34 28  1  0  0  0  0
 35  1  1  0  0  0  0
 36 35  1  0  0  0  0
 37 35  1  0  0  0  0
M  END
>  <minimizedAffinity>
-6.10930204

$$$$
