
 OpenBabel03262523463D

 41 45  0  0  0  0  0  0  0  0999 V2000
   36.8860   32.6110   43.4870 Cl  0  0  0  0  0  0  0  0  0  0  0  0
   37.8180   31.1530   43.1920 C   0  0  0  0  0  0  0  0  0  0  0  0
   38.5630   30.6920   44.2640 C   0  0  0  0  0  0  0  0  0  0  0  0
   39.3410   29.5370   44.1270 C   0  0  0  0  0  0  0  0  0  0  0  0
   39.3670   28.8470   42.9180 C   0  0  0  0  0  0  0  0  0  0  0  0
   38.6150   29.3350   41.8790 C   0  0  0  0  0  0  0  0  0  0  0  0
   37.8400   30.4750   41.9930 C   0  0  0  0  0  0  0  0  0  0  0  0
   39.9390   29.1350   44.9260 H   0  0  0  0  0  0  0  0  0  0  0  0
   39.9700   27.9450   42.8010 H   0  0  0  0  0  0  0  0  0  0  0  0
   38.5830   28.8600   40.9190 H   0  0  0  0  0  0  0  0  0  0  0  0
   37.0450   31.0070   40.9250 N   0  0  0  0  0  0  0  0  0  0  0  0
   37.7000   31.7620   40.0240 C   0  0  0  0  0  0  0  0  0  0  0  0
   38.6940   32.1150   39.8410 H   0  0  0  0  0  0  0  0  0  0  0  0
   36.7700   32.1580   39.1120 N   0  0  0  0  0  0  0  0  0  0  0  0
   35.5720   31.6620   39.4370 C   0  0  0  0  0  0  0  0  0  0  0  0
   34.2700   31.6850   38.9520 C   0  0  0  0  0  0  0  0  0  0  0  0
   34.1040   32.2520   38.0480 H   0  0  0  0  0  0  0  0  0  0  0  0
   33.3140   31.0180   39.6170 N   0  0  0  0  0  0  0  0  0  0  0  0
   33.5450   30.3170   40.7420 C   0  0  0  0  0  0  0  0  0  0  0  0
   32.6860   29.8270   41.1760 H   0  0  0  0  0  0  0  0  0  0  0  0
   34.7860   30.2290   41.3030 N   0  0  0  0  0  0  0  0  0  0  0  0
   35.7340   30.9190   40.6030 C   0  0  0  0  0  0  0  0  0  0  0  0
   38.6830   32.9440   49.7850 Cl  0  0  0  0  0  0  0  0  0  0  0  0
   38.6450   32.2780   48.1610 C   0  0  0  0  0  0  0  0  0  0  0  0
   37.8980   31.1630   47.8790 C   0  0  0  0  0  0  0  0  0  0  0  0
   37.9110   30.6910   46.5880 C   0  0  0  0  0  0  0  0  0  0  0  0
   38.6420   31.3010   45.5930 C   0  0  0  0  0  0  0  0  0  0  0  0
   39.3860   32.4280   45.9190 C   0  0  0  0  0  0  0  0  0  0  0  0
   40.2940   33.1580   44.6120 Cl  0  0  0  0  0  0  0  0  0  0  0  0
   39.3990   32.9280   47.1940 C   0  0  0  0  0  0  0  0  0  0  0  0
   37.3160   29.8100   46.3800 H   0  0  0  0  0  0  0  0  0  0  0  0
   39.9870   33.8130   47.4350 H   0  0  0  0  0  0  0  0  0  0  0  0
   37.0300   29.3620   51.1050 C   0  0  0  0  0  0  0  0  0  0  0  0
   37.7770   29.9270   50.0600 C   0  0  0  0  0  0  0  0  0  0  0  0
   37.1380   30.5590   48.9930 C   0  0  0  0  0  0  0  0  0  0  0  0
   35.7680   30.5970   49.0220 N   0  0  0  0  0  0  0  0  0  0  0  0
   35.0940   30.0390   50.0500 C   0  0  0  0  0  0  0  0  0  0  0  0
   35.6960   29.4390   51.0620 N   0  0  0  0  0  0  0  0  0  0  0  0
   37.5700   28.8860   51.9050 H   0  0  0  0  0  0  0  0  0  0  0  0
   38.8620   29.8730   50.0800 H   0  0  0  0  0  0  0  0  0  0  0  0
   34.0240   30.1320   49.9610 H   0  0  0  0  0  0  0  0  0  0  0  0
  2  1  1  0  0  0  0
  2  3  1  0  0  0  0
  3 27  1  0  0  0  0
  4  3  2  0  0  0  0
  4  8  1  0  0  0  0
  5  4  1  0  0  0  0
  6  7  1  0  0  0  0
  6  5  2  0  0  0  0
  7  2  2  0  0  0  0
  9  5  1  0  0  0  0
 10  6  1  0  0  0  0
 11  7  1  0  0  0  0
 12 11  1  0  0  0  0
 13 12  1  0  0  0  0
 14 15  1  0  0  0  0
 14 12  2  0  0  0  0
 15 22  1  0  0  0  0
 16 15  2  0  0  0  0
 16 18  1  0  0  0  0
 17 16  1  0  0  0  0
 18 19  2  0  0  0  0
 19 20  1  0  0  0  0
 19 21  1  0  0  0  0
 22 11  1  0  0  0  0
 22 21  2  0  0  0  0
 24 23  1  0  0  0  0
 25 24  1  0  0  0  0
 25 35  1  0  0  0  0
 26 25  2  0  0  0  0
 27 28  2  0  0  0  0
 27 26  1  0  0  0  0
 28 30  1  0  0  0  0
 29 28  1  0  0  0  0
 30 32  1  0  0  0  0
 30 24  2  0  0  0  0
 31 26  1  0  0  0  0
 33 39  1  0  0  0  0
 34 40  1  0  0  0  0
 34 33  2  0  0  0  0
 35 36  2  0  0  0  0
 35 34  1  0  0  0  0
 36 37  1  0  0  0  0
 37 38  2  0  0  0  0
 38 33  1  0  0  0  0
 41 37  1  0  0  0  0
M  END
>  <minimizedAffinity>
-6.45654392

>  <minimizedRMSD>
0.896740198

$$$$
