
 OpenBabel03272507013D

 49 53  0  0  1  0  0  0  0  0999 V2000
   35.0820   30.0080   48.3760 C   0  0  2  0  0  0  0  0  0  0  0  0
   35.5410   30.6520   47.1110 C   0  0  0  0  0  0  0  0  0  0  0  0
   36.8310   30.0790   46.6040 C   0  0  2  0  0  0  0  0  0  0  0  0
   37.9400   30.0970   47.5910 C   0  0  0  0  0  0  0  0  0  0  0  0
   37.4830   29.7810   49.0000 C   0  0  0  0  0  0  0  0  0  0  0  0
   36.1170   29.1170   49.0060 C   0  0  0  0  0  0  0  0  0  0  0  0
   34.7980   30.7340   49.1940 H   0  0  0  0  0  0  0  0  0  0  0  0
   35.5400   31.7140   47.3230 H   0  0  0  0  0  0  0  0  0  0  0  0
   34.8590   30.4990   46.2610 H   0  0  0  0  0  0  0  0  0  0  0  0
   36.6050   29.0210   46.3500 H   0  0  0  0  0  0  0  0  0  0  0  0
   38.6030   30.9840   47.5330 H   0  0  0  0  0  0  0  0  0  0  0  0
   38.6250   29.2380   47.3190 H   0  0  0  0  0  0  0  0  0  0  0  0
   37.3660   30.7540   49.5220 H   0  0  0  0  0  0  0  0  0  0  0  0
   38.2130   29.2090   49.5680 H   0  0  0  0  0  0  0  0  0  0  0  0
   35.8430   28.9490   50.0640 H   0  0  0  0  0  0  0  0  0  0  0  0
   36.2030   28.1490   48.4790 H   0  0  0  0  0  0  0  0  0  0  0  0
   37.1380   30.7610   45.4060 N   0  0  1  0  0  0  0  0  0  0  0  0
   36.0300   31.2750   44.6580 C   0  0  0  0  0  0  0  0  0  0  0  0
   36.7210   31.6400   43.3430 C   0  0  0  0  0  0  0  0  0  0  0  0
   38.0130   32.2290   43.8860 C   0  0  0  0  0  0  0  0  0  0  0  0
   38.2490   31.4720   45.2200 C   0  0  1  0  0  0  0  0  0  0  0  0
   35.6170   32.2070   45.1030 H   0  0  0  0  0  0  0  0  0  0  0  0
   35.2800   30.5140   44.4270 H   0  0  0  0  0  0  0  0  0  0  0  0
   36.1030   32.4040   42.8400 H   0  0  0  0  0  0  0  0  0  0  0  0
   36.9050   30.7330   42.7550 H   0  0  0  0  0  0  0  0  0  0  0  0
   38.8480   32.1160   43.1840 H   0  0  0  0  0  0  0  0  0  0  0  0
   37.8510   33.2910   44.0200 H   0  0  0  0  0  0  0  0  0  0  0  0
   38.9940   30.6750   44.8480 H   0  0  0  0  0  0  0  0  0  0  0  0
   38.9810   32.3130   46.0490 N   0  0  0  0  0  0  0  0  0  0  0  0
   40.2090   32.8630   45.7760 C   0  0  0  0  0  0  0  0  0  0  0  0
   40.8460   32.7550   44.8850 H   0  0  0  0  0  0  0  0  0  0  0  0
   40.6860   33.6340   46.7280 N   0  0  0  0  0  0  0  0  0  0  0  0
   39.7730   33.6390   47.7160 C   0  0  0  0  0  0  0  0  0  0  0  0
   39.6800   34.2400   48.9640 C   0  0  0  0  0  0  0  0  0  0  0  0
   40.4830   34.8770   49.3140 H   0  0  0  0  0  0  0  0  0  0  0  0
   38.6140   34.0540   49.7640 N   0  0  0  0  0  0  0  0  0  0  0  0
   37.6150   33.2640   49.3320 C   0  0  0  0  0  0  0  0  0  0  0  0
   36.6730   32.9850   49.8180 H   0  0  0  0  0  0  0  0  0  0  0  0
   37.7070   32.6930   48.1450 N   0  0  0  0  0  0  0  0  0  0  0  0
   38.7380   32.8320   47.2950 C   0  0  0  0  0  0  0  0  0  0  0  0
   33.8590   29.2010   48.1660 C   0  0  0  0  0  0  0  0  0  0  0  0
   33.2720   29.3570   46.9090 C   0  0  0  0  0  0  0  0  0  0  0  0
   32.1170   28.6010   46.6590 C   0  0  0  0  0  0  0  0  0  0  0  0
   31.6280   27.7610   47.6460 N   0  0  0  0  0  0  0  0  0  0  0  0
   32.2440   27.6490   48.8600 C   0  0  0  0  0  0  0  0  0  0  0  0
   33.3310   28.3640   49.0850 N   0  0  0  0  0  0  0  0  0  0  0  0
   33.4000   29.9090   46.0030 H   0  0  0  0  0  0  0  0  0  0  0  0
   31.4800   28.5210   45.8130 H   0  0  0  0  0  0  0  0  0  0  0  0
   31.8660   27.0000   49.6210 H   0  0  0  0  0  0  0  0  0  0  0  0
  1  6  1  0  0  0  0
  1  7  1  1  0  0  0
  2  8  1  0  0  0  0
  2  1  1  0  0  0  0
  3 10  1  6  0  0  0
  3  2  1  0  0  0  0
  3  4  1  0  0  0  0
  4  5  1  0  0  0  0
  5  6  1  0  0  0  0
  5 13  1  0  0  0  0
  5 14  1  0  0  0  0
  6 15  1  0  0  0  0
  9  2  1  0  0  0  0
 11  4  1  0  0  0  0
 12  4  1  0  0  0  0
 16  6  1  0  0  0  0
 17 18  1  1  0  0  0
 17  3  1  0  0  0  0
 18 22  1  0  0  0  0
 19 20  1  0  0  0  0
 19 18  1  0  0  0  0
 20 27  1  0  0  0  0
 20 21  1  0  0  0  0
 21 28  1  6  0  0  0
 21 17  1  0  0  0  0
 21 29  1  0  0  0  0
 23 18  1  0  0  0  0
 24 19  1  0  0  0  0
 25 19  1  0  0  0  0
 26 20  1  0  0  0  0
 29 40  1  0  0  0  0
 30 29  1  0  0  0  0
 30 32  2  0  0  0  0
 31 30  1  0  0  0  0
 32 33  1  0  0  0  0
 33 34  1  0  0  0  0
 34 35  1  0  0  0  0
 34 36  2  0  0  0  0
 37 36  1  0  0  0  0
 37 38  1  0  0  0  0
 39 37  2  0  0  0  0
 40 33  2  0  0  0  0
 40 39  1  0  0  0  0
 41  1  1  0  0  0  0
 41 46  1  0  0  0  0
 42 41  2  0  0  0  0
 43 42  1  0  0  0  0
 43 44  2  0  0  0  0
 44 45  1  0  0  0  0
 45 46  2  0  0  0  0
 45 49  1  0  0  0  0
 47 42  1  0  0  0  0
 48 43  1  0  0  0  0
M  END
>  <minimizedAffinity>
-3.83791399

>  <minimizedRMSD>
2.74498582

$$$$
