
 OpenBabel03272506013D

 49 53  0  0  1  0  0  0  0  0999 V2000
   35.1170   30.0190   49.0910 C   0  0  2  0  0  0  0  0  0  0  0  0
   36.0610   31.1110   48.8780 C   0  0  0  0  0  0  0  0  0  0  0  0
   37.5460   30.6650   49.0430 C   0  0  2  0  0  0  0  0  0  0  0  0
   37.8410   30.1020   50.3380 C   0  0  0  0  0  0  0  0  0  0  0  0
   36.7160   29.2290   50.8990 C   0  0  0  0  0  0  0  0  0  0  0  0
   35.7540   28.8320   49.8200 C   0  0  0  0  0  0  0  0  0  0  0  0
   34.2880   30.3310   49.7940 H   0  0  0  0  0  0  0  0  0  0  0  0
   36.0640   31.7300   48.0130 H   0  0  0  0  0  0  0  0  0  0  0  0
   35.9660   31.8330   49.7610 H   0  0  0  0  0  0  0  0  0  0  0  0
   37.7710   29.9820   48.2030 H   0  0  0  0  0  0  0  0  0  0  0  0
   38.7990   29.5440   50.2880 H   0  0  0  0  0  0  0  0  0  0  0  0
   38.0060   30.8820   51.1070 H   0  0  0  0  0  0  0  0  0  0  0  0
   37.1930   28.2880   51.2410 H   0  0  0  0  0  0  0  0  0  0  0  0
   36.2180   29.6710   51.7670 H   0  0  0  0  0  0  0  0  0  0  0  0
   36.2410   28.1750   49.0820 H   0  0  0  0  0  0  0  0  0  0  0  0
   34.9390   28.2480   50.2760 H   0  0  0  0  0  0  0  0  0  0  0  0
   34.4660   29.4800   47.9010 C   0  0  0  0  0  0  0  0  0  0  0  0
   35.0060   29.9360   46.7080 C   0  0  0  0  0  0  0  0  0  0  0  0
   34.4720   29.4670   45.5090 C   0  0  0  0  0  0  0  0  0  0  0  0
   33.4120   28.5560   45.5690 N   0  0  0  0  0  0  0  0  0  0  0  0
   32.9240   28.1460   46.7470 C   0  0  0  0  0  0  0  0  0  0  0  0
   33.4640   28.6180   47.8710 N   0  0  0  0  0  0  0  0  0  0  0  0
   35.7840   30.6060   46.3700 H   0  0  0  0  0  0  0  0  0  0  0  0
   34.7000   29.6540   44.4860 H   0  0  0  0  0  0  0  0  0  0  0  0
   31.8470   27.2200   46.8230 N   0  0  0  0  0  0  0  0  0  0  0  0
   31.8080   25.8720   46.7080 C   0  0  0  0  0  0  0  0  0  0  0  0
   32.6950   25.2730   46.5240 H   0  0  0  0  0  0  0  0  0  0  0  0
   30.5190   25.4750   46.8620 N   0  0  0  0  0  0  0  0  0  0  0  0
   29.7520   26.5580   47.0730 C   0  0  0  0  0  0  0  0  0  0  0  0
   28.3960   26.7940   47.2940 C   0  0  0  0  0  0  0  0  0  0  0  0
   27.7190   25.9570   47.3200 H   0  0  0  0  0  0  0  0  0  0  0  0
   27.9050   28.0350   47.4780 N   0  0  0  0  0  0  0  0  0  0  0  0
   28.7330   29.1020   47.4510 C   0  0  0  0  0  0  0  0  0  0  0  0
   28.3730   30.1220   47.5960 H   0  0  0  0  0  0  0  0  0  0  0  0
   30.0320   28.8780   47.2400 N   0  0  0  0  0  0  0  0  0  0  0  0
   30.5730   27.6510   47.0500 C   0  0  0  0  0  0  0  0  0  0  0  0
   38.5290   31.0760   46.2880 Cl  0  0  0  0  0  0  0  0  0  0  0  0
   38.8550   32.2040   47.5790 C   0  0  0  0  0  0  0  0  0  0  0  0
   38.3050   31.9340   48.8060 C   0  0  0  0  0  0  0  0  0  0  0  0
   38.5780   32.8960   49.7590 C   0  0  0  0  0  0  0  0  0  0  0  0
   39.3330   34.0240   49.5080 C   0  0  0  0  0  0  0  0  0  0  0  0
   39.8600   34.2270   48.2300 C   0  0  0  0  0  0  0  0  0  0  0  0
   39.6080   33.2810   47.2370 C   0  0  0  0  0  0  0  0  0  0  0  0
   38.1700   32.7490   50.7550 H   0  0  0  0  0  0  0  0  0  0  0  0
   39.5090   34.7370   50.2950 H   0  0  0  0  0  0  0  0  0  0  0  0
   40.4560   35.0960   47.9890 H   0  0  0  0  0  0  0  0  0  0  0  0
   40.1460   33.4850   45.9410 N   0  0  0  0  0  0  0  0  0  0  0  0
   40.6700   32.6150   45.6390 H   0  0  0  0  0  0  0  0  0  0  0  0
   40.1210   34.2700   45.2820 H   0  0  0  0  0  0  0  0  0  0  0  0
  1  7  1  1  0  0  0
  1  6  1  0  0  0  0
  2  3  1  0  0  0  0
  2  1  1  0  0  0  0
  2  9  1  0  0  0  0
  3 10  1  6  0  0  0
  3  4  1  0  0  0  0
  4  5  1  0  0  0  0
  4 12  1  0  0  0  0
  5 13  1  0  0  0  0
  5 14  1  0  0  0  0
  6 16  1  0  0  0  0
  6  5  1  0  0  0  0
  8  2  1  0  0  0  0
 11  4  1  0  0  0  0
 15  6  1  0  0  0  0
 17  1  1  0  0  0  0
 18 17  2  0  0  0  0
 19 20  2  0  0  0  0
 19 18  1  0  0  0  0
 20 21  1  0  0  0  0
 21 25  1  0  0  0  0
 21 22  2  0  0  0  0
 22 17  1  0  0  0  0
 23 18  1  0  0  0  0
 24 19  1  0  0  0  0
 25 36  1  0  0  0  0
 26 25  1  0  0  0  0
 26 28  2  0  0  0  0
 27 26  1  0  0  0  0
 28 29  1  0  0  0  0
 29 30  1  0  0  0  0
 30 31  1  0  0  0  0
 30 32  2  0  0  0  0
 33 32  1  0  0  0  0
 33 34  1  0  0  0  0
 35 33  2  0  0  0  0
 36 29  2  0  0  0  0
 36 35  1  0  0  0  0
 37 38  1  0  0  0  0
 38 39  1  0  0  0  0
 39  3  1  0  0  0  0
 39 40  2  0  0  0  0
 40 44  1  0  0  0  0
 41 40  1  0  0  0  0
 41 45  1  0  0  0  0
 42 41  2  0  0  0  0
 43 38  2  0  0  0  0
 43 42  1  0  0  0  0
 46 42  1  0  0  0  0
 47 43  1  0  0  0  0
 48 47  1  0  0  0  0
 49 47  1  0  0  0  0
M  END
>  <minimizedAffinity>
-8.41036415

>  <minimizedRMSD>
1.73863113

$$$$
