
 OpenBabel03262523473D

 41 45  0  0  0  0  0  0  0  0999 V2000
   36.9080   32.6440   43.5110 Cl  0  0  0  0  0  0  0  0  0  0  0  0
   37.8220   31.1760   43.2090 C   0  0  0  0  0  0  0  0  0  0  0  0
   38.5590   30.6990   44.2800 C   0  0  0  0  0  0  0  0  0  0  0  0
   39.3210   29.5350   44.1380 C   0  0  0  0  0  0  0  0  0  0  0  0
   39.3410   28.8510   42.9250 C   0  0  0  0  0  0  0  0  0  0  0  0
   38.5970   29.3550   41.8880 C   0  0  0  0  0  0  0  0  0  0  0  0
   37.8370   30.5050   42.0070 C   0  0  0  0  0  0  0  0  0  0  0  0
   39.9120   29.1210   44.9360 H   0  0  0  0  0  0  0  0  0  0  0  0
   39.9320   27.9420   42.8050 H   0  0  0  0  0  0  0  0  0  0  0  0
   38.5610   28.8860   40.9250 H   0  0  0  0  0  0  0  0  0  0  0  0
   37.0510   31.0530   40.9400 N   0  0  0  0  0  0  0  0  0  0  0  0
   37.7260   31.7660   40.0210 C   0  0  0  0  0  0  0  0  0  0  0  0
   38.7310   32.0750   39.8190 H   0  0  0  0  0  0  0  0  0  0  0  0
   36.8010   32.1870   39.1120 N   0  0  0  0  0  0  0  0  0  0  0  0
   35.5890   31.7460   39.4600 C   0  0  0  0  0  0  0  0  0  0  0  0
   34.2830   31.8160   38.9900 C   0  0  0  0  0  0  0  0  0  0  0  0
   34.1290   32.3760   38.0800 H   0  0  0  0  0  0  0  0  0  0  0  0
   33.3070   31.2000   39.6780 N   0  0  0  0  0  0  0  0  0  0  0  0
   33.5230   30.5070   40.8100 C   0  0  0  0  0  0  0  0  0  0  0  0
   32.6510   30.0590   41.2630 H   0  0  0  0  0  0  0  0  0  0  0  0
   34.7670   30.3760   41.3570 N   0  0  0  0  0  0  0  0  0  0  0  0
   35.7340   31.0140   40.6350 C   0  0  0  0  0  0  0  0  0  0  0  0
   38.6980   32.9180   49.8150 Cl  0  0  0  0  0  0  0  0  0  0  0  0
   38.6550   32.2610   48.1860 C   0  0  0  0  0  0  0  0  0  0  0  0
   37.8980   31.1540   47.8990 C   0  0  0  0  0  0  0  0  0  0  0  0
   37.9080   30.6900   46.6050 C   0  0  0  0  0  0  0  0  0  0  0  0
   38.6420   31.2990   45.6130 C   0  0  0  0  0  0  0  0  0  0  0  0
   39.3950   32.4200   45.9460 C   0  0  0  0  0  0  0  0  0  0  0  0
   40.3090   33.1500   44.6420 Cl  0  0  0  0  0  0  0  0  0  0  0  0
   39.4130   32.9120   47.2230 C   0  0  0  0  0  0  0  0  0  0  0  0
   37.3060   29.8140   46.3910 H   0  0  0  0  0  0  0  0  0  0  0  0
   40.0080   33.7900   47.4690 H   0  0  0  0  0  0  0  0  0  0  0  0
   37.0180   29.3510   51.1200 C   0  0  0  0  0  0  0  0  0  0  0  0
   37.7700   29.9170   50.0780 C   0  0  0  0  0  0  0  0  0  0  0  0
   37.1340   30.5500   49.0100 C   0  0  0  0  0  0  0  0  0  0  0  0
   35.7640   30.5880   49.0330 N   0  0  0  0  0  0  0  0  0  0  0  0
   35.0870   30.0290   50.0580 C   0  0  0  0  0  0  0  0  0  0  0  0
   35.6850   29.4280   51.0720 N   0  0  0  0  0  0  0  0  0  0  0  0
   37.5550   28.8740   51.9220 H   0  0  0  0  0  0  0  0  0  0  0  0
   38.8540   29.8620   50.1020 H   0  0  0  0  0  0  0  0  0  0  0  0
   34.0170   30.1220   49.9660 H   0  0  0  0  0  0  0  0  0  0  0  0
  2  1  1  0  0  0  0
  2  3  1  0  0  0  0
  3 27  1  0  0  0  0
  4  3  2  0  0  0  0
  4  8  1  0  0  0  0
  5  4  1  0  0  0  0
  6  7  1  0  0  0  0
  6  5  2  0  0  0  0
  7  2  2  0  0  0  0
  9  5  1  0  0  0  0
 10  6  1  0  0  0  0
 11  7  1  0  0  0  0
 12 11  1  0  0  0  0
 13 12  1  0  0  0  0
 14 15  1  0  0  0  0
 14 12  2  0  0  0  0
 15 22  1  0  0  0  0
 16 15  2  0  0  0  0
 16 18  1  0  0  0  0
 17 16  1  0  0  0  0
 18 19  2  0  0  0  0
 19 20  1  0  0  0  0
 19 21  1  0  0  0  0
 22 11  1  0  0  0  0
 22 21  2  0  0  0  0
 24 23  1  0  0  0  0
 25 24  1  0  0  0  0
 25 35  1  0  0  0  0
 26 25  2  0  0  0  0
 27 28  2  0  0  0  0
 27 26  1  0  0  0  0
 28 30  1  0  0  0  0
 29 28  1  0  0  0  0
 30 32  1  0  0  0  0
 30 24  2  0  0  0  0
 31 26  1  0  0  0  0
 33 39  1  0  0  0  0
 34 40  1  0  0  0  0
 34 33  2  0  0  0  0
 35 36  2  0  0  0  0
 35 34  1  0  0  0  0
 36 37  1  0  0  0  0
 37 38  2  0  0  0  0
 38 33  1  0  0  0  0
 41 37  1  0  0  0  0
M  END
>  <minimizedAffinity>
-6.45752859

>  <minimizedRMSD>
1.14306271

$$$$
