
 OpenBabel03262521353D

 40 44  0  0  1  0  0  0  0  0999 V2000
   38.1360   31.2500   45.4020 C   0  0  1  0  0  0  0  0  0  0  0  0
   38.6480   32.1970   46.4120 C   0  0  2  0  0  0  0  0  0  0  0  0
   40.1060   32.4110   45.9690 C   0  0  0  0  0  0  0  0  0  0  0  0
   40.4560   31.1460   45.5940 O   0  0  0  0  0  0  0  0  0  0  0  0
   39.3880   30.4990   44.9980 C   0  0  0  0  0  0  0  0  0  0  0  0
   37.7380   31.7740   44.5330 H   0  0  0  0  0  0  0  0  0  0  0  0
   38.1630   33.1750   46.2710 H   0  0  0  0  0  0  0  0  0  0  0  0
   40.2000   33.1770   45.1970 H   0  0  0  0  0  0  0  0  0  0  0  0
   40.6600   32.6650   46.9080 H   0  0  0  0  0  0  0  0  0  0  0  0
   39.3690   29.4290   45.2970 H   0  0  0  0  0  0  0  0  0  0  0  0
   39.4840   30.4750   43.8840 H   0  0  0  0  0  0  0  0  0  0  0  0
   37.4660   32.2110   48.7290 C   0  0  1  0  0  0  0  0  0  0  0  0
   38.7060   32.9320   48.8310 C   0  0  0  0  0  0  0  0  0  0  0  0
   38.6310   31.7410   47.8550 C   0  0  2  0  0  0  0  0  0  0  0  0
   36.6280   32.6640   48.1230 H   0  0  0  0  0  0  0  0  0  0  0  0
   38.8650   33.9370   48.4470 H   0  0  0  0  0  0  0  0  0  0  0  0
   39.3300   32.7330   49.7510 H   0  0  0  0  0  0  0  0  0  0  0  0
   39.1730   30.8360   48.1300 H   0  0  0  0  0  0  0  0  0  0  0  0
   35.4530   29.5810   50.4700 C   0  0  0  0  0  0  0  0  0  0  0  0
   35.8300   30.5210   49.5140 C   0  0  0  0  0  0  0  0  0  0  0  0
   37.0250   31.1940   49.7040 C   0  0  0  0  0  0  0  0  0  0  0  0
   37.7750   30.9010   50.8230 N   0  0  0  0  0  0  0  0  0  0  0  0
   37.3880   29.9870   51.7350 C   0  0  0  0  0  0  0  0  0  0  0  0
   36.2080   29.3100   51.5610 N   0  0  0  0  0  0  0  0  0  0  0  0
   34.5110   29.0620   50.3020 H   0  0  0  0  0  0  0  0  0  0  0  0
   35.1820   30.6900   48.6650 H   0  0  0  0  0  0  0  0  0  0  0  0
   38.0390   29.8220   52.5820 H   0  0  0  0  0  0  0  0  0  0  0  0
   37.1790   30.3770   45.8850 O   0  0  0  0  0  0  0  0  0  0  0  0
   34.6370   30.1950   47.1480 H   0  0  0  0  0  0  0  0  0  0  0  0
   34.6970   30.3150   46.1270 N   0  0  0  0  0  0  0  0  0  0  0  0
   35.8450   30.4120   45.4320 C   0  0  0  0  0  0  0  0  0  0  0  0
   35.4830   30.5590   44.1330 N   0  0  0  0  0  0  0  0  0  0  0  0
   34.1310   30.5530   44.0360 C   0  0  0  0  0  0  0  0  0  0  0  0
   33.3000   30.6670   42.9570 C   0  0  0  0  0  0  0  0  0  0  0  0
   33.6870   30.7890   41.9580 H   0  0  0  0  0  0  0  0  0  0  0  0
   31.9800   30.6270   43.1540 N   0  0  0  0  0  0  0  0  0  0  0  0
   31.4640   30.4750   44.3990 C   0  0  0  0  0  0  0  0  0  0  0  0
   30.3960   30.4580   44.4260 H   0  0  0  0  0  0  0  0  0  0  0  0
   32.3030   30.3610   45.4630 N   0  0  0  0  0  0  0  0  0  0  0  0
   33.6440   30.3970   45.3140 C   0  0  0  0  0  0  0  0  0  0  0  0
  1  6  1  6  0  0  0
  1 28  1  0  0  0  0
  1  2  1  0  0  0  0
  2  7  1  6  0  0  0
  2 14  1  0  0  0  0
  3  2  1  0  0  0  0
  3  9  1  0  0  0  0
  4  3  1  0  0  0  0
  5 10  1  0  0  0  0
  5  1  1  0  0  0  0
  5  4  1  0  0  0  0
  8  3  1  0  0  0  0
 11  5  1  0  0  0  0
 12 15  1  6  0  0  0
 12 13  1  0  0  0  0
 12 21  1  0  0  0  0
 13 17  1  0  0  0  0
 14 18  1  1  0  0  0
 14 12  1  0  0  0  0
 14 13  1  0  0  0  0
 16 13  1  0  0  0  0
 19 24  1  0  0  0  0
 20 21  1  0  0  0  0
 20 19  2  0  0  0  0
 21 22  2  0  0  0  0
 22 23  1  0  0  0  0
 23 27  1  0  0  0  0
 24 23  2  0  0  0  0
 25 19  1  0  0  0  0
 26 20  1  0  0  0  0
 30 29  1  0  0  0  0
 31 28  1  0  0  0  0
 31 30  1  0  0  0  0
 32 31  2  0  0  0  0
 33 32  1  0  0  0  0
 33 40  1  0  0  0  0
 34 36  1  0  0  0  0
 34 33  2  0  0  0  0
 35 34  1  0  0  0  0
 36 37  2  0  0  0  0
 37 38  1  0  0  0  0
 37 39  1  0  0  0  0
 40 39  2  0  0  0  0
 40 30  1  0  0  0  0
M  END
>  <minimizedAffinity>
-5.76305199

>  <minimizedRMSD>
1.0907048

$$$$
