
 OpenBabel03272507473D

 49 54  0  0  0  0  0  0  0  0999 V2000
   32.7800   28.6380   47.0420 N   0  0  0  0  0  0  0  0  0  0  0  0
   33.2120   28.1790   48.3160 C   0  0  0  0  0  0  0  0  0  0  0  0
   34.3820   28.8660   48.9120 C   0  0  0  0  0  0  0  0  0  0  0  0
   35.4550   29.2500   47.9960 C   0  0  0  0  0  0  0  0  0  0  0  0
   34.9230   29.6630   46.6130 C   0  0  0  0  0  0  0  0  0  0  0  0
   33.9210   28.5860   46.1710 C   0  0  0  0  0  0  0  0  0  0  0  0
   32.3470   28.2310   49.0380 H   0  0  0  0  0  0  0  0  0  0  0  0
   33.4620   27.1010   48.2160 H   0  0  0  0  0  0  0  0  0  0  0  0
   33.9120   29.8370   49.2820 H   0  0  0  0  0  0  0  0  0  0  0  0
   34.7190   28.3210   49.8030 H   0  0  0  0  0  0  0  0  0  0  0  0
   36.1600   28.4090   47.7670 H   0  0  0  0  0  0  0  0  0  0  0  0
   34.4290   30.6330   46.6210 H   0  0  0  0  0  0  0  0  0  0  0  0
   35.7690   29.5980   45.8910 H   0  0  0  0  0  0  0  0  0  0  0  0
   33.5710   28.7960   45.1520 H   0  0  0  0  0  0  0  0  0  0  0  0
   34.4150   27.5960   46.1410 H   0  0  0  0  0  0  0  0  0  0  0  0
   31.4740   29.0740   46.6530 C   0  0  0  0  0  0  0  0  0  0  0  0
   31.1790   29.9400   45.6060 C   0  0  0  0  0  0  0  0  0  0  0  0
   29.8390   30.2410   45.3860 C   0  0  0  0  0  0  0  0  0  0  0  0
   28.8960   29.6810   46.1970 N   0  0  0  0  0  0  0  0  0  0  0  0
   29.2130   28.8490   47.1980 C   0  0  0  0  0  0  0  0  0  0  0  0
   30.4940   28.5500   47.4240 N   0  0  0  0  0  0  0  0  0  0  0  0
   32.0340   30.2920   45.0670 H   0  0  0  0  0  0  0  0  0  0  0  0
   29.6540   30.9120   44.5710 H   0  0  0  0  0  0  0  0  0  0  0  0
   28.1750   28.3000   48.0060 N   0  0  0  0  0  0  0  0  0  0  0  0
   27.9600   27.1190   48.6160 C   0  0  0  0  0  0  0  0  0  0  0  0
   28.7760   26.4080   48.4540 H   0  0  0  0  0  0  0  0  0  0  0  0
   26.7790   27.1550   49.2600 N   0  0  0  0  0  0  0  0  0  0  0  0
   26.2460   28.3720   49.0540 C   0  0  0  0  0  0  0  0  0  0  0  0
   25.0420   28.8460   49.5310 C   0  0  0  0  0  0  0  0  0  0  0  0
   24.3930   28.2380   50.1460 H   0  0  0  0  0  0  0  0  0  0  0  0
   24.6880   30.1220   49.2000 N   0  0  0  0  0  0  0  0  0  0  0  0
   25.5330   30.8320   48.4330 C   0  0  0  0  0  0  0  0  0  0  0  0
   25.3700   31.8610   48.0970 H   0  0  0  0  0  0  0  0  0  0  0  0
   26.7230   30.3920   47.9510 N   0  0  0  0  0  0  0  0  0  0  0  0
   27.1150   29.1220   48.2570 C   0  0  0  0  0  0  0  0  0  0  0  0
   36.0700   30.8680   49.7370 C   0  0  0  0  0  0  0  0  0  0  0  0
   36.2790   30.3970   48.4500 C   0  0  0  0  0  0  0  0  0  0  0  0
   37.1780   30.9430   47.5730 C   0  0  0  0  0  0  0  0  0  0  0  0
   37.9210   32.0380   48.0130 C   0  0  0  0  0  0  0  0  0  0  0  0
   37.7190   32.5110   49.2840 C   0  0  0  0  0  0  0  0  0  0  0  0
   36.8050   31.9550   50.1750 C   0  0  0  0  0  0  0  0  0  0  0  0
   38.5560   33.6080   49.5300 O   0  0  0  0  0  0  0  0  0  0  0  0
   39.5030   33.5850   48.4730 C   0  0  0  0  0  0  0  0  0  0  0  0
   38.9050   32.8470   47.4380 O   0  0  0  0  0  0  0  0  0  0  0  0
   35.4060   30.5160   50.5120 H   0  0  0  0  0  0  0  0  0  0  0  0
   37.3100   30.5540   46.5970 H   0  0  0  0  0  0  0  0  0  0  0  0
   36.6970   32.3890   51.1840 H   0  0  0  0  0  0  0  0  0  0  0  0
   39.6550   34.6610   48.1780 H   0  0  0  0  0  0  0  0  0  0  0  0
   40.4840   33.1760   48.7790 H   0  0  0  0  0  0  0  0  0  0  0  0
  1  2  1  0  0  0  0
  2  3  1  0  0  0  0
  2  7  1  0  0  0  0
  3  9  1  0  0  0  0
  3 10  1  0  0  0  0
  4 37  1  0  0  0  0
  4  3  1  0  0  0  0
  5 12  1  0  0  0  0
  5  4  1  0  0  0  0
  6  5  1  0  0  0  0
  6  1  1  0  0  0  0
  8  2  1  0  0  0  0
 11  4  1  0  0  0  0
 13  5  1  0  0  0  0
 14  6  1  0  0  0  0
 15  6  1  0  0  0  0
 16  1  1  0  0  0  0
 16 21  1  0  0  0  0
 17 16  2  0  0  0  0
 18 17  1  0  0  0  0
 18 19  2  0  0  0  0
 19 20  1  0  0  0  0
 20 21  2  0  0  0  0
 20 24  1  0  0  0  0
 22 17  1  0  0  0  0
 23 18  1  0  0  0  0
 24 35  1  0  0  0  0
 24 25  1  0  0  0  0
 25 27  2  0  0  0  0
 26 25  1  0  0  0  0
 28 27  1  0  0  0  0
 28 29  1  0  0  0  0
 29 30  1  0  0  0  0
 31 29  2  0  0  0  0
 32 31  1  0  0  0  0
 33 32  1  0  0  0  0
 34 35  1  0  0  0  0
 34 32  2  0  0  0  0
 35 28  2  0  0  0  0
 36 41  1  0  0  0  0
 36 45  1  0  0  0  0
 37 36  2  0  0  0  0
 38 39  2  0  0  0  0
 38 37  1  0  0  0  0
 39 40  1  0  0  0  0
 40 42  1  0  0  0  0
 40 41  2  0  0  0  0
 41 47  1  0  0  0  0
 43 49  1  0  0  0  0
 43 42  1  0  0  0  0
 44 39  1  0  0  0  0
 44 43  1  0  0  0  0
 46 38  1  0  0  0  0
 48 43  1  0  0  0  0
M  END
>  <minimizedAffinity>
-8.31380081

>  <minimizedRMSD>
0.903215885

$$$$
