
 OpenBabel03272507473D

 49 54  0  0  0  0  0  0  0  0999 V2000
   32.1500   28.2000   47.3300 N   0  0  0  0  0  0  0  0  0  0  0  0
   32.4530   27.8260   48.6670 C   0  0  0  0  0  0  0  0  0  0  0  0
   33.6800   28.4040   49.2610 C   0  0  0  0  0  0  0  0  0  0  0  0
   34.8390   28.5350   48.3780 C   0  0  0  0  0  0  0  0  0  0  0  0
   34.4360   28.8660   46.9300 C   0  0  0  0  0  0  0  0  0  0  0  0
   33.3100   27.8970   46.5390 C   0  0  0  0  0  0  0  0  0  0  0  0
   31.5720   28.0740   49.3270 H   0  0  0  0  0  0  0  0  0  0  0  0
   32.5490   26.7190   48.6910 H   0  0  0  0  0  0  0  0  0  0  0  0
   33.3390   29.4650   49.5030 H   0  0  0  0  0  0  0  0  0  0  0  0
   33.8950   27.9160   50.2210 H   0  0  0  0  0  0  0  0  0  0  0  0
   35.4250   27.5850   48.2770 H   0  0  0  0  0  0  0  0  0  0  0  0
   34.0870   29.8910   46.8120 H   0  0  0  0  0  0  0  0  0  0  0  0
   35.2960   28.6070   46.2720 H   0  0  0  0  0  0  0  0  0  0  0  0
   33.0420   28.0430   45.4850 H   0  0  0  0  0  0  0  0  0  0  0  0
   33.6570   26.8510   46.6380 H   0  0  0  0  0  0  0  0  0  0  0  0
   30.9400   28.7680   46.8210 C   0  0  0  0  0  0  0  0  0  0  0  0
   30.7810   29.3800   45.5810 C   0  0  0  0  0  0  0  0  0  0  0  0
   29.5170   29.8700   45.2700 C   0  0  0  0  0  0  0  0  0  0  0  0
   28.5130   29.7300   46.1820 N   0  0  0  0  0  0  0  0  0  0  0  0
   28.6980   29.1350   47.3690 C   0  0  0  0  0  0  0  0  0  0  0  0
   29.9040   28.6590   47.6840 N   0  0  0  0  0  0  0  0  0  0  0  0
   31.6690   29.4090   44.9850 H   0  0  0  0  0  0  0  0  0  0  0  0
   29.4360   30.3340   44.3070 H   0  0  0  0  0  0  0  0  0  0  0  0
   27.6020   29.0230   48.2730 N   0  0  0  0  0  0  0  0  0  0  0  0
   26.3330   29.4710   48.3000 C   0  0  0  0  0  0  0  0  0  0  0  0
   26.0780   30.0640   47.4170 H   0  0  0  0  0  0  0  0  0  0  0  0
   25.7330   29.0510   49.4290 N   0  0  0  0  0  0  0  0  0  0  0  0
   26.6350   28.3310   50.1190 C   0  0  0  0  0  0  0  0  0  0  0  0
   26.4490   27.7100   51.3370 C   0  0  0  0  0  0  0  0  0  0  0  0
   25.5060   27.7560   51.8640 H   0  0  0  0  0  0  0  0  0  0  0  0
   27.5040   27.0250   51.8660 N   0  0  0  0  0  0  0  0  0  0  0  0
   28.6540   27.0010   51.1690 C   0  0  0  0  0  0  0  0  0  0  0  0
   29.5710   26.4920   51.4790 H   0  0  0  0  0  0  0  0  0  0  0  0
   28.8650   27.6020   49.9710 N   0  0  0  0  0  0  0  0  0  0  0  0
   27.8360   28.2970   49.4060 C   0  0  0  0  0  0  0  0  0  0  0  0
   36.0600   29.7680   50.1140 C   0  0  0  0  0  0  0  0  0  0  0  0
   35.7980   29.5990   48.7640 C   0  0  0  0  0  0  0  0  0  0  0  0
   36.3500   30.3700   47.7760 C   0  0  0  0  0  0  0  0  0  0  0  0
   37.2270   31.3820   48.1650 C   0  0  0  0  0  0  0  0  0  0  0  0
   37.4910   31.5560   49.4990 C   0  0  0  0  0  0  0  0  0  0  0  0
   36.9290   30.7710   50.5030 C   0  0  0  0  0  0  0  0  0  0  0  0
   38.3880   32.6170   49.6800 O   0  0  0  0  0  0  0  0  0  0  0  0
   38.9100   32.8760   48.3850 C   0  0  0  0  0  0  0  0  0  0  0  0
   37.9710   32.3480   47.4820 O   0  0  0  0  0  0  0  0  0  0  0  0
   35.6980   29.2210   50.9720 H   0  0  0  0  0  0  0  0  0  0  0  0
   36.1250   30.2100   46.7540 H   0  0  0  0  0  0  0  0  0  0  0  0
   37.1890   30.9700   51.5570 H   0  0  0  0  0  0  0  0  0  0  0  0
   38.9770   33.9960   48.3030 H   0  0  0  0  0  0  0  0  0  0  0  0
   39.9250   32.4630   48.2360 H   0  0  0  0  0  0  0  0  0  0  0  0
  1  2  1  0  0  0  0
  2  8  1  0  0  0  0
  2  3  1  0  0  0  0
  2  7  1  0  0  0  0
  3  9  1  0  0  0  0
  3 10  1  0  0  0  0
  4 37  1  0  0  0  0
  4  3  1  0  0  0  0
  5  4  1  0  0  0  0
  6 15  1  0  0  0  0
  6  5  1  0  0  0  0
  6  1  1  0  0  0  0
 11  4  1  0  0  0  0
 12  5  1  0  0  0  0
 13  5  1  0  0  0  0
 14  6  1  0  0  0  0
 16  1  1  0  0  0  0
 16 21  1  0  0  0  0
 17 16  2  0  0  0  0
 18 17  1  0  0  0  0
 18 19  2  0  0  0  0
 19 20  1  0  0  0  0
 20 21  2  0  0  0  0
 20 24  1  0  0  0  0
 22 17  1  0  0  0  0
 23 18  1  0  0  0  0
 24 25  1  0  0  0  0
 24 35  1  0  0  0  0
 25 27  2  0  0  0  0
 26 25  1  0  0  0  0
 27 28  1  0  0  0  0
 28 29  1  0  0  0  0
 29 30  1  0  0  0  0
 29 31  2  0  0  0  0
 32 33  1  0  0  0  0
 32 31  1  0  0  0  0
 34 32  2  0  0  0  0
 35 34  1  0  0  0  0
 35 28  2  0  0  0  0
 36 41  1  0  0  0  0
 36 45  1  0  0  0  0
 37 36  2  0  0  0  0
 38 39  2  0  0  0  0
 38 37  1  0  0  0  0
 39 40  1  0  0  0  0
 40 42  1  0  0  0  0
 40 41  2  0  0  0  0
 41 47  1  0  0  0  0
 43 42  1  0  0  0  0
 44 39  1  0  0  0  0
 44 43  1  0  0  0  0
 46 38  1  0  0  0  0
 48 43  1  0  0  0  0
 49 43  1  0  0  0  0
M  END
>  <minimizedAffinity>
-8.99877739

>  <minimizedRMSD>
1.42986476

$$$$
