
 OpenBabel03262522183D

 27 29  0  0  0  0  0  0  0  0999 V2000
   37.4070   33.6460   49.2540 O   0  0  0  0  0  0  0  0  0  0  0  0
   38.8310   33.0920   49.2490 P   0  0  1  0  0  0  0  0  0  0  0  0
   39.7720   34.0820   50.2680 O   0  0  0  0  0  0  0  0  0  0  0  0
   40.7420   33.9320   50.1010 H   0  0  0  0  0  0  0  0  0  0  0  0
   38.7930   31.5620   49.9760 O   0  0  0  0  0  0  0  0  0  0  0  0
   37.1960   30.3050   51.2350 C   0  0  0  0  0  0  0  0  0  0  0  0
   37.7500   30.6810   50.0030 C   0  0  0  0  0  0  0  0  0  0  0  0
   37.1800   30.1140   48.8620 C   0  0  0  0  0  0  0  0  0  0  0  0
   36.1410   29.2420   48.9850 N   0  0  0  0  0  0  0  0  0  0  0  0
   35.6510   28.9180   50.2010 C   0  0  0  0  0  0  0  0  0  0  0  0
   36.1680   29.4410   51.3290 N   0  0  0  0  0  0  0  0  0  0  0  0
   37.6000   30.7150   52.1570 H   0  0  0  0  0  0  0  0  0  0  0  0
   37.6360   30.4310   47.9380 H   0  0  0  0  0  0  0  0  0  0  0  0
   34.8270   28.2270   50.2900 H   0  0  0  0  0  0  0  0  0  0  0  0
   39.3980   33.0950   47.6900 O   0  0  0  0  0  0  0  0  0  0  0  0
   37.1590   33.2640   45.9390 H   0  0  0  0  0  0  0  0  0  0  0  0
   37.8220   32.4690   45.8010 N   0  0  0  0  0  0  0  0  0  0  0  0
   38.8930   32.3710   46.6260 C   0  0  0  0  0  0  0  0  0  0  0  0
   39.6180   31.2750   46.2750 N   0  0  0  0  0  0  0  0  0  0  0  0
   38.9990   30.6860   45.2320 C   0  0  0  0  0  0  0  0  0  0  0  0
   39.1770   29.5880   44.4150 C   0  0  0  0  0  0  0  0  0  0  0  0
   40.0630   28.9670   44.6220 H   0  0  0  0  0  0  0  0  0  0  0  0
   38.3320   29.2690   43.4180 N   0  0  0  0  0  0  0  0  0  0  0  0
   37.2480   30.0370   43.1730 C   0  0  0  0  0  0  0  0  0  0  0  0
   36.5710   29.7810   42.3730 H   0  0  0  0  0  0  0  0  0  0  0  0
   37.0130   31.1360   43.9420 N   0  0  0  0  0  0  0  0  0  0  0  0
   37.8770   31.4350   44.9380 C   0  0  0  0  0  0  0  0  0  0  0  0
  2  1  2  6  0  0  0
  2  5  1  0  0  0  0
  2  3  1  0  0  0  0
  4  3  1  0  0  0  0
  5  7  1  0  0  0  0
  6 11  1  0  0  0  0
  6 12  1  0  0  0  0
  7  6  2  0  0  0  0
  8  9  2  0  0  0  0
  8  7  1  0  0  0  0
  9 10  1  0  0  0  0
 10 14  1  0  0  0  0
 10 11  2  0  0  0  0
 13  8  1  0  0  0  0
 15  2  1  0  0  0  0
 17 16  1  0  0  0  0
 17 18  1  0  0  0  0
 18 15  1  0  0  0  0
 19 18  2  0  0  0  0
 20 19  1  0  0  0  0
 21 22  1  0  0  0  0
 21 20  2  0  0  0  0
 23 21  1  0  0  0  0
 24 23  2  0  0  0  0
 24 26  1  0  0  0  0
 25 24  1  0  0  0  0
 26 27  2  0  0  0  0
 27 20  1  0  0  0  0
 27 17  1  0  0  0  0
M  END
>  <minimizedAffinity>
-5.3559494

>  <minimizedRMSD>
1.74178076

$$$$
