
 OpenBabel03272508083D

 27 29  0  0  0  0  0  0  0  0999 V2000
   38.9180   32.9610   48.1720 O   0  0  0  0  0  0  0  0  0  0  0  0
   38.6610   31.8790   47.1670 P   0  0  2  0  0  0  0  0  0  0  0  0
   37.5680   32.4480   45.9860 O   0  0  0  0  0  0  0  0  0  0  0  0
   37.5280   33.4260   46.0360 H   0  0  0  0  0  0  0  0  0  0  0  0
   38.1520   30.4200   47.8190 O   0  0  0  0  0  0  0  0  0  0  0  0
   37.3070   30.2140   51.4160 C   0  0  0  0  0  0  0  0  0  0  0  0
   38.0540   30.5780   50.2910 C   0  0  0  0  0  0  0  0  0  0  0  0
   37.5980   30.1840   49.0430 C   0  0  0  0  0  0  0  0  0  0  0  0
   36.4370   29.4550   48.9690 N   0  0  0  0  0  0  0  0  0  0  0  0
   35.7500   29.1270   50.0850 C   0  0  0  0  0  0  0  0  0  0  0  0
   36.1830   29.5040   51.2990 N   0  0  0  0  0  0  0  0  0  0  0  0
   37.6880   30.5340   52.3640 H   0  0  0  0  0  0  0  0  0  0  0  0
   38.9610   31.1400   50.2780 H   0  0  0  0  0  0  0  0  0  0  0  0
   34.8250   28.5430   49.9850 H   0  0  0  0  0  0  0  0  0  0  0  0
   40.1210   31.6170   46.3360 O   0  0  0  0  0  0  0  0  0  0  0  0
   38.6050   29.4220   45.5110 H   0  0  0  0  0  0  0  0  0  0  0  0
   39.2910   29.8300   44.8390 N   0  0  0  0  0  0  0  0  0  0  0  0
   40.0760   30.8960   45.1390 C   0  0  0  0  0  0  0  0  0  0  0  0
   40.7920   31.0870   44.0120 N   0  0  0  0  0  0  0  0  0  0  0  0
   40.4820   30.2060   43.0670 C   0  0  0  0  0  0  0  0  0  0  0  0
   40.8570   29.9130   41.7710 C   0  0  0  0  0  0  0  0  0  0  0  0
   41.6160   30.5260   41.3110 H   0  0  0  0  0  0  0  0  0  0  0  0
   40.3110   28.9030   41.0800 N   0  0  0  0  0  0  0  0  0  0  0  0
   39.3550   28.1350   41.6630 C   0  0  0  0  0  0  0  0  0  0  0  0
   38.9010   27.3030   41.1050 H   0  0  0  0  0  0  0  0  0  0  0  0
   38.9530   28.3780   42.9260 N   0  0  0  0  0  0  0  0  0  0  0  0
   39.5120   29.3940   43.6020 C   0  0  0  0  0  0  0  0  0  0  0  0
  2  5  1  0  0  0  0
  2  1  2  1  0  0  0
  3  4  1  0  0  0  0
  3  2  1  0  0  0  0
  5  8  1  0  0  0  0
  6 12  1  0  0  0  0
  7  6  2  0  0  0  0
  8  7  1  0  0  0  0
  9  8  2  0  0  0  0
  9 10  1  0  0  0  0
 10 11  2  0  0  0  0
 11  6  1  0  0  0  0
 13  7  1  0  0  0  0
 14 10  1  0  0  0  0
 15  2  1  0  0  0  0
 17 18  1  0  0  0  0
 17 16  1  0  0  0  0
 18 15  1  0  0  0  0
 19 18  2  0  0  0  0
 20 27  1  0  0  0  0
 20 19  1  0  0  0  0
 21 20  2  0  0  0  0
 22 21  1  0  0  0  0
 23 24  2  0  0  0  0
 23 21  1  0  0  0  0
 24 26  1  0  0  0  0
 25 24  1  0  0  0  0
 26 27  2  0  0  0  0
 27 17  1  0  0  0  0
M  END
>  <minimizedAffinity>
-5.75361776

>  <minimizedRMSD>
1.2191205

$$$$
