
 OpenBabel03272506463D

 45 49  0  0  1  0  0  0  0  0999 V2000
   31.3770   27.0430   45.5920 O   0  0  0  0  0  0  0  0  0  0  0  0
   32.1790   28.3940   47.4350 C   0  0  2  0  0  0  0  0  0  0  0  0
   33.4320   28.1830   48.2330 C   0  0  1  0  0  0  0  0  0  0  0  0
   33.8400   26.8980   48.0440 O   0  0  0  0  0  0  0  0  0  0  0  0
   33.1440   26.3490   46.9720 C   0  0  0  0  0  0  0  0  0  0  0  0
   32.5180   27.4870   46.2100 C   0  0  1  0  0  0  0  0  0  0  0  0
   31.2650   28.0030   47.8690 H   0  0  0  0  0  0  0  0  0  0  0  0
   33.2860   28.4830   49.2900 H   0  0  0  0  0  0  0  0  0  0  0  0
   33.8550   25.8370   46.2570 H   0  0  0  0  0  0  0  0  0  0  0  0
   32.4750   25.6070   47.3780 H   0  0  0  0  0  0  0  0  0  0  0  0
   33.2440   28.0280   45.6100 H   0  0  0  0  0  0  0  0  0  0  0  0
   32.0880   29.7320   47.0000 O   0  0  0  0  0  0  0  0  0  0  0  0
   32.6360   30.3300   47.5790 H   0  0  0  0  0  0  0  0  0  0  0  0
   34.7210   29.3010   47.5520 S   0  0  0  0  0  0  0  0  0  0  0  0
   37.0450   29.2120   50.7620 C   0  0  0  0  0  0  0  0  0  0  0  0
   37.4550   30.5350   50.9440 C   0  0  0  0  0  0  0  0  0  0  0  0
   36.9950   31.4980   50.0360 C   0  0  0  0  0  0  0  0  0  0  0  0
   36.1740   31.0970   49.0270 N   0  0  0  0  0  0  0  0  0  0  0  0
   35.7990   29.8080   48.8840 C   0  0  0  0  0  0  0  0  0  0  0  0
   36.2280   28.8490   49.7470 N   0  0  0  0  0  0  0  0  0  0  0  0
   37.4220   28.5100   51.4830 H   0  0  0  0  0  0  0  0  0  0  0  0
   38.0970   30.8850   51.7230 H   0  0  0  0  0  0  0  0  0  0  0  0
   37.2180   32.5440   50.0410 H   0  0  0  0  0  0  0  0  0  0  0  0
   30.2010   29.4790   44.4300 Cl  0  0  0  0  0  0  0  0  0  0  0  0
   29.4780   28.3480   45.5510 C   0  0  0  0  0  0  0  0  0  0  0  0
   30.1290   27.2290   46.0190 C   0  0  0  0  0  0  0  0  0  0  0  0
   29.4360   26.3870   46.8920 C   0  0  0  0  0  0  0  0  0  0  0  0
   28.1440   26.6740   47.2690 C   0  0  0  0  0  0  0  0  0  0  0  0
   27.4820   27.7950   46.8040 C   0  0  0  0  0  0  0  0  0  0  0  0
   28.1590   28.6360   45.9390 C   0  0  0  0  0  0  0  0  0  0  0  0
   29.8660   25.4900   47.3020 H   0  0  0  0  0  0  0  0  0  0  0  0
   27.5470   26.0720   47.9390 H   0  0  0  0  0  0  0  0  0  0  0  0
   26.4780   28.0430   47.0810 H   0  0  0  0  0  0  0  0  0  0  0  0
   27.4940   29.7960   45.4490 N   0  0  0  0  0  0  0  0  0  0  0  0
   27.2360   30.2310   44.2000 C   0  0  0  0  0  0  0  0  0  0  0  0
   27.5470   29.6720   43.3140 H   0  0  0  0  0  0  0  0  0  0  0  0
   26.5670   31.4090   44.2550 N   0  0  0  0  0  0  0  0  0  0  0  0
   26.3870   31.7430   45.5450 C   0  0  0  0  0  0  0  0  0  0  0  0
   25.7700   32.8380   46.1130 C   0  0  0  0  0  0  0  0  0  0  0  0
   25.3190   33.6200   45.5170 H   0  0  0  0  0  0  0  0  0  0  0  0
   25.7370   32.9140   47.4760 N   0  0  0  0  0  0  0  0  0  0  0  0
   26.3160   31.9090   48.1920 C   0  0  0  0  0  0  0  0  0  0  0  0
   26.2540   32.0330   49.2820 H   0  0  0  0  0  0  0  0  0  0  0  0
   26.9130   30.8510   47.6210 N   0  0  0  0  0  0  0  0  0  0  0  0
   26.9770   30.7180   46.2670 C   0  0  0  0  0  0  0  0  0  0  0  0
  1 26  1  0  0  0  0
  1  6  1  0  0  0  0
  2  7  1  1  0  0  0
  2  3  1  0  0  0  0
  3  8  1  1  0  0  0
  4  3  1  0  0  0  0
  5 10  1  0  0  0  0
  5  4  1  0  0  0  0
  6 11  1  6  0  0  0
  6  5  1  0  0  0  0
  6  2  1  0  0  0  0
  9  5  1  0  0  0  0
 12  2  1  0  0  0  0
 12 13  1  0  0  0  0
 14  3  1  0  0  0  0
 14 19  1  0  0  0  0
 15 16  1  0  0  0  0
 15 21  1  0  0  0  0
 16 22  1  0  0  0  0
 17 23  1  0  0  0  0
 17 16  2  0  0  0  0
 18 17  1  0  0  0  0
 19 18  2  0  0  0  0
 19 20  1  0  0  0  0
 20 15  2  0  0  0  0
 24 25  1  0  0  0  0
 25 30  2  0  0  0  0
 25 26  1  0  0  0  0
 26 27  2  0  0  0  0
 27 28  1  0  0  0  0
 27 31  1  0  0  0  0
 28 32  1  0  0  0  0
 29 33  1  0  0  0  0
 29 28  2  0  0  0  0
 30 29  1  0  0  0  0
 34 30  1  0  0  0  0
 34 45  1  0  0  0  0
 35 37  2  0  0  0  0
 35 34  1  0  0  0  0
 36 35  1  0  0  0  0
 37 38  1  0  0  0  0
 38 39  2  0  0  0  0
 38 45  1  0  0  0  0
 39 41  1  0  0  0  0
 40 39  1  0  0  0  0
 41 42  2  0  0  0  0
 42 43  1  0  0  0  0
 44 42  1  0  0  0  0
 45 44  2  0  0  0  0
M  END
>  <minimizedAffinity>
-6.06039381

>  <minimizedRMSD>
0.601858675

$$$$
