
 OpenBabel03272505513D

 47 51  0  0  1  0  0  0  0  0999 V2000
   35.4240   29.6400   45.6010 N   0  0  2  0  0  0  0  0  0  0  0  0
   36.5820   30.4770   45.2830 C   0  0  0  0  0  0  0  0  0  0  0  0
   36.7730   30.4110   43.7850 C   0  0  0  0  0  0  0  0  0  0  0  0
   35.7600   29.4230   43.3460 C   0  0  0  0  0  0  0  0  0  0  0  0
   34.6560   29.5370   44.4120 C   0  0  1  0  0  0  0  0  0  0  0  0
   37.4690   30.2380   45.8700 H   0  0  0  0  0  0  0  0  0  0  0  0
   36.2330   31.5290   45.5000 H   0  0  0  0  0  0  0  0  0  0  0  0
   36.7010   31.3950   43.2850 H   0  0  0  0  0  0  0  0  0  0  0  0
   37.7880   29.9880   43.6180 H   0  0  0  0  0  0  0  0  0  0  0  0
   35.3990   29.7340   42.3420 H   0  0  0  0  0  0  0  0  0  0  0  0
   36.1210   28.3990   43.2420 H   0  0  0  0  0  0  0  0  0  0  0  0
   34.1440   30.4230   44.0500 H   0  0  0  0  0  0  0  0  0  0  0  0
   37.2770   29.2150   50.6080 C   0  0  0  0  0  0  0  0  0  0  0  0
   37.4580   30.5680   50.9370 C   0  0  0  0  0  0  0  0  0  0  0  0
   36.7520   31.4980   50.1820 C   0  0  0  0  0  0  0  0  0  0  0  0
   35.9440   31.0430   49.1880 N   0  0  0  0  0  0  0  0  0  0  0  0
   35.8060   29.7490   48.9140 C   0  0  0  0  0  0  0  0  0  0  0  0
   36.4690   28.8340   49.6190 N   0  0  0  0  0  0  0  0  0  0  0  0
   34.9440   29.3450   47.8640 N   0  0  0  0  0  0  0  0  0  0  0  0
   34.2770   28.0470   47.8780 C   0  0  0  0  0  0  0  0  0  0  0  0
   32.8060   28.2310   47.7080 C   0  0  0  0  0  0  0  0  0  0  0  0
   32.3800   29.4510   47.2390 N   0  0  0  0  0  0  0  0  0  0  0  0
   33.2520   30.3240   46.4910 C   0  0  0  0  0  0  0  0  0  0  0  0
   34.6770   30.1970   46.7190 C   0  0  2  0  0  0  0  0  0  0  0  0
   37.8550   28.5560   51.2360 H   0  0  0  0  0  0  0  0  0  0  0  0
   38.0680   30.9960   51.6960 H   0  0  0  0  0  0  0  0  0  0  0  0
   36.8070   32.5650   50.3380 H   0  0  0  0  0  0  0  0  0  0  0  0
   34.7600   27.3430   47.2020 H   0  0  0  0  0  0  0  0  0  0  0  0
   34.4680   27.6140   48.9100 H   0  0  0  0  0  0  0  0  0  0  0  0
   32.2740   27.9860   48.6500 H   0  0  0  0  0  0  0  0  0  0  0  0
   32.4730   27.4210   46.9960 H   0  0  0  0  0  0  0  0  0  0  0  0
   31.4960   29.8580   47.5500 H   0  0  0  0  0  0  0  0  0  0  0  0
   32.8130   30.3790   45.5090 H   0  0  0  0  0  0  0  0  0  0  0  0
   32.9570   31.3470   46.9210 H   0  0  0  0  0  0  0  0  0  0  0  0
   35.1740   31.1890   46.9470 H   0  0  0  0  0  0  0  0  0  0  0  0
   33.9270   28.3000   44.2180 N   0  0  0  0  0  0  0  0  0  0  0  0
   34.2490   26.9840   44.4160 C   0  0  0  0  0  0  0  0  0  0  0  0
   35.2540   26.7440   44.7920 H   0  0  0  0  0  0  0  0  0  0  0  0
   33.2050   26.2020   44.0880 N   0  0  0  0  0  0  0  0  0  0  0  0
   32.1870   26.9980   43.6710 C   0  0  0  0  0  0  0  0  0  0  0  0
   30.9450   26.5740   43.2500 C   0  0  0  0  0  0  0  0  0  0  0  0
   30.6780   25.5270   43.2190 H   0  0  0  0  0  0  0  0  0  0  0  0
   30.0910   27.5550   42.8820 N   0  0  0  0  0  0  0  0  0  0  0  0
   30.4880   28.8380   42.9460 C   0  0  0  0  0  0  0  0  0  0  0  0
   29.7850   29.6290   42.6430 H   0  0  0  0  0  0  0  0  0  0  0  0
   31.7130   29.1820   43.3650 N   0  0  0  0  0  0  0  0  0  0  0  0
   32.6410   28.2990   43.7540 C   0  0  0  0  0  0  0  0  0  0  0  0
  1  2  1  6  0  0  0
  1 24  1  0  0  0  0
  2  7  1  0  0  0  0
  2  6  1  0  0  0  0
  3  2  1  0  0  0  0
  4  3  1  0  0  0  0
  4  5  1  0  0  0  0
  5 12  1  6  0  0  0
  5  1  1  0  0  0  0
  8  3  1  0  0  0  0
  9  3  1  0  0  0  0
 10  4  1  0  0  0  0
 11  4  1  0  0  0  0
 13 14  1  0  0  0  0
 13 25  1  0  0  0  0
 14 26  1  0  0  0  0
 15 27  1  0  0  0  0
 15 14  2  0  0  0  0
 16 15  1  0  0  0  0
 17 16  2  0  0  0  0
 17 18  1  0  0  0  0
 18 13  2  0  0  0  0
 19 20  1  0  0  0  0
 19 17  1  0  0  0  0
 20 29  1  0  0  0  0
 21 20  1  0  0  0  0
 21 30  1  0  0  0  0
 22 32  1  0  0  0  0
 22 21  1  0  0  0  0
 23 24  1  0  0  0  0
 23 34  1  0  0  0  0
 23 22  1  0  0  0  0
 24 35  1  1  0  0  0
 24 19  1  0  0  0  0
 28 20  1  0  0  0  0
 31 21  1  0  0  0  0
 33 23  1  0  0  0  0
 36  5  1  0  0  0  0
 36 37  1  0  0  0  0
 37 38  1  0  0  0  0
 39 37  2  0  0  0  0
 40 47  1  0  0  0  0
 40 39  1  0  0  0  0
 41 40  2  0  0  0  0
 42 41  1  0  0  0  0
 43 44  2  0  0  0  0
 43 41  1  0  0  0  0
 44 46  1  0  0  0  0
 45 44  1  0  0  0  0
 46 47  2  0  0  0  0
 47 36  1  0  0  0  0
M  END
>  <minimizedAffinity>
-4.73170137

>  <minimizedRMSD>
1.54159796

$$$$
