
 OpenBabel03272508083D

 27 29  0  0  0  0  0  0  0  0999 V2000
   38.9180   32.9590   48.1710 O   0  0  0  0  0  0  0  0  0  0  0  0
   38.6600   31.8780   47.1660 P   0  0  2  0  0  0  0  0  0  0  0  0
   37.5690   32.4490   45.9830 O   0  0  0  0  0  0  0  0  0  0  0  0
   37.5310   33.4270   46.0340 H   0  0  0  0  0  0  0  0  0  0  0  0
   38.1480   30.4200   47.8160 O   0  0  0  0  0  0  0  0  0  0  0  0
   37.3090   30.2150   51.4160 C   0  0  0  0  0  0  0  0  0  0  0  0
   38.0540   30.5800   50.2890 C   0  0  0  0  0  0  0  0  0  0  0  0
   37.5960   30.1840   49.0420 C   0  0  0  0  0  0  0  0  0  0  0  0
   36.4360   29.4540   48.9700 N   0  0  0  0  0  0  0  0  0  0  0  0
   35.7520   29.1250   50.0880 C   0  0  0  0  0  0  0  0  0  0  0  0
   36.1860   29.5040   51.3010 N   0  0  0  0  0  0  0  0  0  0  0  0
   37.6910   30.5370   52.3630 H   0  0  0  0  0  0  0  0  0  0  0  0
   38.9600   31.1430   50.2740 H   0  0  0  0  0  0  0  0  0  0  0  0
   34.8270   28.5400   49.9900 H   0  0  0  0  0  0  0  0  0  0  0  0
   40.1210   31.6140   46.3360 O   0  0  0  0  0  0  0  0  0  0  0  0
   38.6050   29.4180   45.5080 H   0  0  0  0  0  0  0  0  0  0  0  0
   39.2900   29.8280   44.8360 N   0  0  0  0  0  0  0  0  0  0  0  0
   40.0750   30.8930   45.1380 C   0  0  0  0  0  0  0  0  0  0  0  0
   40.7920   31.0870   44.0120 N   0  0  0  0  0  0  0  0  0  0  0  0
   40.4820   30.2050   43.0670 C   0  0  0  0  0  0  0  0  0  0  0  0
   40.8580   29.9140   41.7700 C   0  0  0  0  0  0  0  0  0  0  0  0
   41.6180   30.5260   41.3110 H   0  0  0  0  0  0  0  0  0  0  0  0
   40.3120   28.9040   41.0770 N   0  0  0  0  0  0  0  0  0  0  0  0
   39.3570   28.1360   41.6600 C   0  0  0  0  0  0  0  0  0  0  0  0
   38.9020   27.3040   41.1010 H   0  0  0  0  0  0  0  0  0  0  0  0
   38.9540   28.3780   42.9230 N   0  0  0  0  0  0  0  0  0  0  0  0
   39.5130   29.3940   43.5990 C   0  0  0  0  0  0  0  0  0  0  0  0
  2  5  1  0  0  0  0
  2  1  2  1  0  0  0
  3  4  1  0  0  0  0
  3  2  1  0  0  0  0
  5  8  1  0  0  0  0
  6 12  1  0  0  0  0
  7  6  2  0  0  0  0
  8  7  1  0  0  0  0
  9  8  2  0  0  0  0
  9 10  1  0  0  0  0
 10 11  2  0  0  0  0
 11  6  1  0  0  0  0
 13  7  1  0  0  0  0
 14 10  1  0  0  0  0
 15  2  1  0  0  0  0
 17 18  1  0  0  0  0
 17 16  1  0  0  0  0
 18 15  1  0  0  0  0
 19 18  2  0  0  0  0
 20 27  1  0  0  0  0
 20 19  1  0  0  0  0
 21 20  2  0  0  0  0
 22 21  1  0  0  0  0
 23 24  2  0  0  0  0
 23 21  1  0  0  0  0
 24 26  1  0  0  0  0
 25 24  1  0  0  0  0
 26 27  2  0  0  0  0
 27 17  1  0  0  0  0
M  END
>  <minimizedAffinity>
-5.75289011

>  <minimizedRMSD>
1.06420767

$$$$
