
 OpenBabel03272507013D

 49 53  0  0  1  0  0  0  0  0999 V2000
   35.0840   30.0060   48.3810 C   0  0  2  0  0  0  0  0  0  0  0  0
   35.5390   30.6530   47.1160 C   0  0  0  0  0  0  0  0  0  0  0  0
   36.8280   30.0820   46.6050 C   0  0  2  0  0  0  0  0  0  0  0  0
   37.9390   30.0990   47.5890 C   0  0  0  0  0  0  0  0  0  0  0  0
   37.4860   29.7800   48.9980 C   0  0  0  0  0  0  0  0  0  0  0  0
   36.1210   29.1150   49.0060 C   0  0  0  0  0  0  0  0  0  0  0  0
   34.8010   30.7310   49.2010 H   0  0  0  0  0  0  0  0  0  0  0  0
   35.5370   31.7150   47.3310 H   0  0  0  0  0  0  0  0  0  0  0  0
   34.8550   30.5020   46.2670 H   0  0  0  0  0  0  0  0  0  0  0  0
   36.6020   29.0240   46.3490 H   0  0  0  0  0  0  0  0  0  0  0  0
   38.6020   30.9870   47.5310 H   0  0  0  0  0  0  0  0  0  0  0  0
   38.6240   29.2420   47.3140 H   0  0  0  0  0  0  0  0  0  0  0  0
   37.3700   30.7520   49.5230 H   0  0  0  0  0  0  0  0  0  0  0  0
   38.2180   29.2070   49.5630 H   0  0  0  0  0  0  0  0  0  0  0  0
   35.8500   28.9440   50.0650 H   0  0  0  0  0  0  0  0  0  0  0  0
   36.2060   28.1480   48.4770 H   0  0  0  0  0  0  0  0  0  0  0  0
   37.1310   30.7680   45.4070 N   0  0  1  0  0  0  0  0  0  0  0  0
   36.0210   31.2830   44.6640 C   0  0  0  0  0  0  0  0  0  0  0  0
   36.7080   31.6510   43.3480 C   0  0  0  0  0  0  0  0  0  0  0  0
   38.0020   32.2380   43.8880 C   0  0  0  0  0  0  0  0  0  0  0  0
   38.2410   31.4780   45.2200 C   0  0  1  0  0  0  0  0  0  0  0  0
   35.6090   32.2150   45.1130 H   0  0  0  0  0  0  0  0  0  0  0  0
   35.2700   30.5230   44.4330 H   0  0  0  0  0  0  0  0  0  0  0  0
   36.0880   32.4170   42.8480 H   0  0  0  0  0  0  0  0  0  0  0  0
   36.8900   30.7460   42.7570 H   0  0  0  0  0  0  0  0  0  0  0  0
   38.8340   32.1260   43.1830 H   0  0  0  0  0  0  0  0  0  0  0  0
   37.8400   33.3000   44.0250 H   0  0  0  0  0  0  0  0  0  0  0  0
   38.9850   30.6820   44.8430 H   0  0  0  0  0  0  0  0  0  0  0  0
   38.9770   32.3170   46.0480 N   0  0  0  0  0  0  0  0  0  0  0  0
   40.2050   32.8640   45.7740 C   0  0  0  0  0  0  0  0  0  0  0  0
   40.8410   32.7560   44.8810 H   0  0  0  0  0  0  0  0  0  0  0  0
   40.6860   33.6330   46.7250 N   0  0  0  0  0  0  0  0  0  0  0  0
   39.7750   33.6390   47.7140 C   0  0  0  0  0  0  0  0  0  0  0  0
   39.6850   34.2390   48.9640 C   0  0  0  0  0  0  0  0  0  0  0  0
   40.4890   34.8740   49.3130 H   0  0  0  0  0  0  0  0  0  0  0  0
   38.6200   34.0560   49.7650 N   0  0  0  0  0  0  0  0  0  0  0  0
   37.6190   33.2670   49.3340 C   0  0  0  0  0  0  0  0  0  0  0  0
   36.6760   32.9890   49.8210 H   0  0  0  0  0  0  0  0  0  0  0  0
   37.7070   32.6980   48.1460 N   0  0  0  0  0  0  0  0  0  0  0  0
   38.7380   32.8360   47.2940 C   0  0  0  0  0  0  0  0  0  0  0  0
   33.8610   29.1990   48.1720 C   0  0  0  0  0  0  0  0  0  0  0  0
   33.2800   29.3440   46.9110 C   0  0  0  0  0  0  0  0  0  0  0  0
   32.1250   28.5870   46.6620 C   0  0  0  0  0  0  0  0  0  0  0  0
   31.6300   27.7570   47.6550 N   0  0  0  0  0  0  0  0  0  0  0  0
   32.2400   27.6550   48.8730 C   0  0  0  0  0  0  0  0  0  0  0  0
   33.3260   28.3710   49.0970 N   0  0  0  0  0  0  0  0  0  0  0  0
   33.4130   29.8870   46.0000 H   0  0  0  0  0  0  0  0  0  0  0  0
   31.4920   28.4990   45.8140 H   0  0  0  0  0  0  0  0  0  0  0  0
   31.8570   27.0140   49.6380 H   0  0  0  0  0  0  0  0  0  0  0  0
  1  6  1  0  0  0  0
  1  7  1  1  0  0  0
  2  8  1  0  0  0  0
  2  1  1  0  0  0  0
  3 10  1  6  0  0  0
  3  2  1  0  0  0  0
  3  4  1  0  0  0  0
  4  5  1  0  0  0  0
  5  6  1  0  0  0  0
  5 13  1  0  0  0  0
  5 14  1  0  0  0  0
  6 15  1  0  0  0  0
  9  2  1  0  0  0  0
 11  4  1  0  0  0  0
 12  4  1  0  0  0  0
 16  6  1  0  0  0  0
 17 18  1  1  0  0  0
 17  3  1  0  0  0  0
 18 22  1  0  0  0  0
 19 20  1  0  0  0  0
 19 18  1  0  0  0  0
 20 27  1  0  0  0  0
 20 21  1  0  0  0  0
 21 28  1  6  0  0  0
 21 17  1  0  0  0  0
 21 29  1  0  0  0  0
 23 18  1  0  0  0  0
 24 19  1  0  0  0  0
 25 19  1  0  0  0  0
 26 20  1  0  0  0  0
 29 40  1  0  0  0  0
 30 29  1  0  0  0  0
 30 32  2  0  0  0  0
 31 30  1  0  0  0  0
 32 33  1  0  0  0  0
 33 34  1  0  0  0  0
 34 35  1  0  0  0  0
 34 36  2  0  0  0  0
 37 36  1  0  0  0  0
 37 38  1  0  0  0  0
 39 37  2  0  0  0  0
 40 33  2  0  0  0  0
 40 39  1  0  0  0  0
 41  1  1  0  0  0  0
 41 46  1  0  0  0  0
 42 41  2  0  0  0  0
 43 42  1  0  0  0  0
 43 44  2  0  0  0  0
 44 45  1  0  0  0  0
 45 46  2  0  0  0  0
 45 49  1  0  0  0  0
 47 42  1  0  0  0  0
 48 43  1  0  0  0  0
M  END
>  <minimizedAffinity>
-3.82834291

>  <minimizedRMSD>
2.76892567

$$$$
