
 OpenBabel03272506283D

 45 49  0  0  0  0  0  0  0  0999 V2000
   37.6840   26.2920   35.0230 S   0  0  0  0  0  0  0  0  0  0  0  0
   39.5480   24.3720   35.1650 C   0  0  0  0  0  0  0  0  0  0  0  0
   40.8620   23.9440   35.1640 C   0  0  0  0  0  0  0  0  0  0  0  0
   41.9610   24.7960   35.0050 C   0  0  0  0  0  0  0  0  0  0  0  0
   41.7140   26.1770   34.8340 C   0  0  0  0  0  0  0  0  0  0  0  0
   40.4080   26.5770   34.8390 C   0  0  0  0  0  0  0  0  0  0  0  0
   39.3400   25.7460   34.9960 C   0  0  0  0  0  0  0  0  0  0  0  0
   41.0820   22.8840   35.2930 H   0  0  0  0  0  0  0  0  0  0  0  0
   42.9580   24.3340   35.0230 H   0  0  0  0  0  0  0  0  0  0  0  0
   42.6370   26.7050   34.7250 H   0  0  0  0  0  0  0  0  0  0  0  0
   40.4510   27.6310   34.6840 H   0  0  0  0  0  0  0  0  0  0  0  0
   38.1160   22.7260   34.1390 C   0  0  0  0  0  0  0  0  0  0  0  0
   38.5420   23.3630   35.3110 C   0  0  0  0  0  0  0  0  0  0  0  0
   37.9580   22.9700   36.5210 C   0  0  0  0  0  0  0  0  0  0  0  0
   37.0100   21.9960   36.5110 N   0  0  0  0  0  0  0  0  0  0  0  0
   36.6160   21.3930   35.3510 C   0  0  0  0  0  0  0  0  0  0  0  0
   37.1720   21.7620   34.1680 N   0  0  0  0  0  0  0  0  0  0  0  0
   38.5390   22.9990   33.1920 H   0  0  0  0  0  0  0  0  0  0  0  0
   35.8580   20.6270   35.4150 H   0  0  0  0  0  0  0  0  0  0  0  0
   38.3080   23.5630   37.8510 C   0  0  0  0  0  0  0  0  0  0  0  0
   39.6370   23.2310   38.1690 F   0  0  0  0  0  0  0  0  0  0  0  0
   38.1570   24.8950   37.9580 F   0  0  0  0  0  0  0  0  0  0  0  0
   37.5660   22.9310   38.8500 F   0  0  0  0  0  0  0  0  0  0  0  0
   36.3450   29.0770   34.6510 Cl  0  0  0  0  0  0  0  0  0  0  0  0
   36.4490   27.9460   33.3310 C   0  0  0  0  0  0  0  0  0  0  0  0
   37.0190   26.6920   33.4350 C   0  0  0  0  0  0  0  0  0  0  0  0
   37.0610   25.8360   32.3680 C   0  0  0  0  0  0  0  0  0  0  0  0
   36.5090   26.2720   31.1590 C   0  0  0  0  0  0  0  0  0  0  0  0
   35.9320   27.5370   31.0440 C   0  0  0  0  0  0  0  0  0  0  0  0
   35.8940   28.3910   32.1290 C   0  0  0  0  0  0  0  0  0  0  0  0
   37.4410   24.8500   32.3510 H   0  0  0  0  0  0  0  0  0  0  0  0
   36.4940   25.6740   30.2650 H   0  0  0  0  0  0  0  0  0  0  0  0
   35.5020   27.8730   30.1020 H   0  0  0  0  0  0  0  0  0  0  0  0
   35.2970   29.6770   31.9810 N   0  0  0  0  0  0  0  0  0  0  0  0
   35.7600   30.8740   31.5310 C   0  0  0  0  0  0  0  0  0  0  0  0
   36.7670   30.9790   31.1940 H   0  0  0  0  0  0  0  0  0  0  0  0
   34.7490   31.7580   31.6140 N   0  0  0  0  0  0  0  0  0  0  0  0
   33.6670   31.1390   32.1060 C   0  0  0  0  0  0  0  0  0  0  0  0
   32.4110   31.6560   32.3580 C   0  0  0  0  0  0  0  0  0  0  0  0
   32.1520   32.6910   32.1720 H   0  0  0  0  0  0  0  0  0  0  0  0
   31.4880   30.8140   32.8600 N   0  0  0  0  0  0  0  0  0  0  0  0
   31.7960   29.5130   33.0990 C   0  0  0  0  0  0  0  0  0  0  0  0
   31.1360   28.7530   33.4980 H   0  0  0  0  0  0  0  0  0  0  0  0
   33.0230   29.0200   32.8490 N   0  0  0  0  0  0  0  0  0  0  0  0
   33.9910   29.8080   32.3490 C   0  0  0  0  0  0  0  0  0  0  0  0
  2 13  1  0  0  0  0
  3  2  1  0  0  0  0
  3  8  1  0  0  0  0
  4  9  1  0  0  0  0
  4  3  2  0  0  0  0
  5  6  2  0  0  0  0
  5  4  1  0  0  0  0
  6  7  1  0  0  0  0
  7  1  1  0  0  0  0
  7  2  2  0  0  0  0
 10  5  1  0  0  0  0
 11  6  1  0  0  0  0
 12 17  2  0  0  0  0
 12 13  1  0  0  0  0
 13 14  2  0  0  0  0
 14 20  1  0  0  0  0
 15 14  1  0  0  0  0
 16 19  1  0  0  0  0
 16 15  2  0  0  0  0
 17 16  1  0  0  0  0
 18 12  1  0  0  0  0
 20 22  1  0  0  0  0
 20 21  1  0  0  0  0
 20 23  1  0  0  0  0
 25 26  1  0  0  0  0
 25 24  1  0  0  0  0
 26  1  1  0  0  0  0
 27 26  2  0  0  0  0
 28 27  1  0  0  0  0
 29 28  2  0  0  0  0
 29 30  1  0  0  0  0
 30 25  2  0  0  0  0
 31 27  1  0  0  0  0
 32 28  1  0  0  0  0
 33 29  1  0  0  0  0
 34 30  1  0  0  0  0
 34 45  1  0  0  0  0
 35 37  2  0  0  0  0
 35 34  1  0  0  0  0
 36 35  1  0  0  0  0
 37 38  1  0  0  0  0
 38 45  2  0  0  0  0
 38 39  1  0  0  0  0
 39 41  2  0  0  0  0
 40 39  1  0  0  0  0
 41 42  1  0  0  0  0
 42 43  1  0  0  0  0
 44 42  2  0  0  0  0
 45 44  1  0  0  0  0
M  END
>  <minimizedAffinity>
-6.75391006

$$$$

 OpenBabel03272506283D

 45 49  0  0  0  0  0  0  0  0999 V2000
   36.3200   27.8920   33.8150 S   0  0  0  0  0  0  0  0  0  0  0  0
   35.1170   30.0450   32.7670 C   0  0  0  0  0  0  0  0  0  0  0  0
   34.9830   31.0150   31.7920 C   0  0  0  0  0  0  0  0  0  0  0  0
   35.8230   31.1240   30.6780 C   0  0  0  0  0  0  0  0  0  0  0  0
   36.8730   30.1880   30.5420 C   0  0  0  0  0  0  0  0  0  0  0  0
   36.9860   29.2380   31.5170 C   0  0  0  0  0  0  0  0  0  0  0  0
   36.1650   29.1330   32.5990 C   0  0  0  0  0  0  0  0  0  0  0  0
   34.1820   31.7510   31.8720 H   0  0  0  0  0  0  0  0  0  0  0  0
   35.6130   31.9400   29.9720 H   0  0  0  0  0  0  0  0  0  0  0  0
   37.4320   30.3890   29.6520 H   0  0  0  0  0  0  0  0  0  0  0  0
   37.8330   28.6590   31.2290 H   0  0  0  0  0  0  0  0  0  0  0  0
   32.9440   29.4840   33.6500 C   0  0  0  0  0  0  0  0  0  0  0  0
   34.1880   30.0940   33.8570 C   0  0  0  0  0  0  0  0  0  0  0  0
   34.4250   30.6970   35.0970 C   0  0  0  0  0  0  0  0  0  0  0  0
   33.4490   30.6690   36.0420 N   0  0  0  0  0  0  0  0  0  0  0  0
   32.2460   30.0660   35.8110 C   0  0  0  0  0  0  0  0  0  0  0  0
   31.9990   29.4760   34.6130 N   0  0  0  0  0  0  0  0  0  0  0  0
   32.7230   29.0110   32.7130 H   0  0  0  0  0  0  0  0  0  0  0  0
   31.5150   30.0800   36.6060 H   0  0  0  0  0  0  0  0  0  0  0  0
   35.7020   31.3890   35.4610 C   0  0  0  0  0  0  0  0  0  0  0  0
   36.6740   30.4250   35.7840 F   0  0  0  0  0  0  0  0  0  0  0  0
   36.2070   32.2170   34.5290 F   0  0  0  0  0  0  0  0  0  0  0  0
   35.5260   32.0890   36.6560 F   0  0  0  0  0  0  0  0  0  0  0  0
   39.0700   27.1210   35.0520 Cl  0  0  0  0  0  0  0  0  0  0  0  0
   38.3120   26.1150   33.8480 C   0  0  0  0  0  0  0  0  0  0  0  0
   37.1000   26.4090   33.2520 C   0  0  0  0  0  0  0  0  0  0  0  0
   36.5560   25.5920   32.3000 C   0  0  0  0  0  0  0  0  0  0  0  0
   37.2660   24.4390   31.9460 C   0  0  0  0  0  0  0  0  0  0  0  0
   38.4900   24.1340   32.5420 C   0  0  0  0  0  0  0  0  0  0  0  0
   39.0300   24.9690   33.5010 C   0  0  0  0  0  0  0  0  0  0  0  0
   35.6590   25.7410   31.7630 H   0  0  0  0  0  0  0  0  0  0  0  0
   36.9230   23.7350   31.2100 H   0  0  0  0  0  0  0  0  0  0  0  0
   39.0410   23.2370   32.2640 H   0  0  0  0  0  0  0  0  0  0  0  0
   40.2820   24.6320   34.0920 N   0  0  0  0  0  0  0  0  0  0  0  0
   41.5730   24.9070   33.7640 C   0  0  0  0  0  0  0  0  0  0  0  0
   41.8050   25.4900   32.9010 H   0  0  0  0  0  0  0  0  0  0  0  0
   42.3600   24.3270   34.6890 N   0  0  0  0  0  0  0  0  0  0  0  0
   41.5890   23.6970   35.5860 C   0  0  0  0  0  0  0  0  0  0  0  0
   41.9680   22.9740   36.7010 C   0  0  0  0  0  0  0  0  0  0  0  0
   43.0020   22.8300   36.9850 H   0  0  0  0  0  0  0  0  0  0  0  0
   40.9860   22.4350   37.4460 N   0  0  0  0  0  0  0  0  0  0  0  0
   39.6830   22.6060   37.1050 C   0  0  0  0  0  0  0  0  0  0  0  0
   38.8170   22.2190   37.6290 H   0  0  0  0  0  0  0  0  0  0  0  0
   39.3250   23.3120   36.0170 N   0  0  0  0  0  0  0  0  0  0  0  0
   40.2570   23.8770   35.2270 C   0  0  0  0  0  0  0  0  0  0  0  0
  2 13  1  0  0  0  0
  3  8  1  0  0  0  0
  3  2  2  0  0  0  0
  4  3  1  0  0  0  0
  5  4  2  0  0  0  0
  5  6  1  0  0  0  0
  6  7  2  0  0  0  0
  7  2  1  0  0  0  0
  7  1  1  0  0  0  0
  9  4  1  0  0  0  0
 10  5  1  0  0  0  0
 11  6  1  0  0  0  0
 12 13  2  0  0  0  0
 12 17  1  0  0  0  0
 13 14  1  0  0  0  0
 14 20  1  0  0  0  0
 14 15  2  0  0  0  0
 16 15  1  0  0  0  0
 16 19  1  0  0  0  0
 17 16  2  0  0  0  0
 18 12  1  0  0  0  0
 20 21  1  0  0  0  0
 20 23  1  0  0  0  0
 22 20  1  0  0  0  0
 25 24  1  0  0  0  0
 26  1  1  0  0  0  0
 26 25  2  0  0  0  0
 27 26  1  0  0  0  0
 28 27  2  0  0  0  0
 28 29  1  0  0  0  0
 29 30  2  0  0  0  0
 30 25  1  0  0  0  0
 30 34  1  0  0  0  0
 31 27  1  0  0  0  0
 32 28  1  0  0  0  0
 33 29  1  0  0  0  0
 34 45  1  0  0  0  0
 35 34  1  0  0  0  0
 35 37  2  0  0  0  0
 36 35  1  0  0  0  0
 37 38  1  0  0  0  0
 38 39  1  0  0  0  0
 39 40  1  0  0  0  0
 39 41  2  0  0  0  0
 42 41  1  0  0  0  0
 42 43  1  0  0  0  0
 44 42  2  0  0  0  0
 45 38  2  0  0  0  0
 45 44  1  0  0  0  0
M  END
>  <minimizedAffinity>
-6.46848869

$$$$

 OpenBabel03272506283D

 45 49  0  0  0  0  0  0  0  0999 V2000
   38.3160   26.2710   32.5220 S   0  0  0  0  0  0  0  0  0  0  0  0
   38.0640   23.6400   32.9610 C   0  0  0  0  0  0  0  0  0  0  0  0
   37.3990   22.4370   32.8190 C   0  0  0  0  0  0  0  0  0  0  0  0
   36.1890   22.2890   32.1300 C   0  0  0  0  0  0  0  0  0  0  0  0
   35.6120   23.4390   31.5450 C   0  0  0  0  0  0  0  0  0  0  0  0
   36.2870   24.6170   31.6970 C   0  0  0  0  0  0  0  0  0  0  0  0
   37.4660   24.7570   32.3670 C   0  0  0  0  0  0  0  0  0  0  0  0
   37.8210   21.5340   33.2620 H   0  0  0  0  0  0  0  0  0  0  0  0
   35.7590   21.2790   32.0870 H   0  0  0  0  0  0  0  0  0  0  0  0
   34.6970   23.1820   31.0550 H   0  0  0  0  0  0  0  0  0  0  0  0
   35.6800   25.3390   31.2010 H   0  0  0  0  0  0  0  0  0  0  0  0
   40.4650   23.4260   33.0060 C   0  0  0  0  0  0  0  0  0  0  0  0
   39.2770   23.6200   33.7220 C   0  0  0  0  0  0  0  0  0  0  0  0
   39.3650   23.7770   35.1110 C   0  0  0  0  0  0  0  0  0  0  0  0
   40.5880   23.7350   35.7030 N   0  0  0  0  0  0  0  0  0  0  0  0
   41.7290   23.5440   34.9780 C   0  0  0  0  0  0  0  0  0  0  0  0
   41.6610   23.3900   33.6300 N   0  0  0  0  0  0  0  0  0  0  0  0
   40.4400   23.3010   31.9410 H   0  0  0  0  0  0  0  0  0  0  0  0
   42.6670   23.5210   35.5120 H   0  0  0  0  0  0  0  0  0  0  0  0
   38.1840   23.9880   36.0060 C   0  0  0  0  0  0  0  0  0  0  0  0
   38.6290   24.1250   37.3330 F   0  0  0  0  0  0  0  0  0  0  0  0
   37.3990   25.0370   35.7020 F   0  0  0  0  0  0  0  0  0  0  0  0
   37.4130   22.8250   36.0370 F   0  0  0  0  0  0  0  0  0  0  0  0
   36.5670   27.7510   34.6290 Cl  0  0  0  0  0  0  0  0  0  0  0  0
   36.6490   28.3050   32.9800 C   0  0  0  0  0  0  0  0  0  0  0  0
   37.3960   27.6850   31.9960 C   0  0  0  0  0  0  0  0  0  0  0  0
   37.4130   28.1550   30.7110 C   0  0  0  0  0  0  0  0  0  0  0  0
   36.6490   29.2900   30.4200 C   0  0  0  0  0  0  0  0  0  0  0  0
   35.8920   29.9230   31.4070 C   0  0  0  0  0  0  0  0  0  0  0  0
   35.8820   29.4380   32.7010 C   0  0  0  0  0  0  0  0  0  0  0  0
   37.9200   27.7390   29.8830 H   0  0  0  0  0  0  0  0  0  0  0  0
   36.5970   29.7350   29.4430 H   0  0  0  0  0  0  0  0  0  0  0  0
   35.2980   30.8060   31.1770 H   0  0  0  0  0  0  0  0  0  0  0  0
   35.0990   30.1050   33.6870 N   0  0  0  0  0  0  0  0  0  0  0  0
   35.3920   31.0250   34.6450 C   0  0  0  0  0  0  0  0  0  0  0  0
   36.3870   31.3890   34.7680 H   0  0  0  0  0  0  0  0  0  0  0  0
   34.2500   31.3080   35.3000 N   0  0  0  0  0  0  0  0  0  0  0  0
   33.2530   30.5850   34.7710 C   0  0  0  0  0  0  0  0  0  0  0  0
   31.9190   30.5560   35.1270 C   0  0  0  0  0  0  0  0  0  0  0  0
   31.5100   31.1570   35.9300 H   0  0  0  0  0  0  0  0  0  0  0  0
   31.1140   29.7340   34.4300 N   0  0  0  0  0  0  0  0  0  0  0  0
   31.6080   28.9730   33.4200 C   0  0  0  0  0  0  0  0  0  0  0  0
   31.0550   28.2810   32.7960 H   0  0  0  0  0  0  0  0  0  0  0  0
   32.9100   29.0090   33.0810 N   0  0  0  0  0  0  0  0  0  0  0  0
   33.7700   29.8090   33.7380 C   0  0  0  0  0  0  0  0  0  0  0  0
  2 13  1  0  0  0  0
  3  2  1  0  0  0  0
  3  8  1  0  0  0  0
  4  3  2  0  0  0  0
  5  6  2  0  0  0  0
  5  4  1  0  0  0  0
  6  7  1  0  0  0  0
  7  1  1  0  0  0  0
  7  2  2  0  0  0  0
  9  4  1  0  0  0  0
 10  5  1  0  0  0  0
 11  6  1  0  0  0  0
 12 17  2  0  0  0  0
 12 13  1  0  0  0  0
 13 14  2  0  0  0  0
 14 15  1  0  0  0  0
 14 20  1  0  0  0  0
 16 19  1  0  0  0  0
 16 15  2  0  0  0  0
 17 16  1  0  0  0  0
 18 12  1  0  0  0  0
 20 23  1  0  0  0  0
 20 21  1  0  0  0  0
 22 20  1  0  0  0  0
 25 24  1  0  0  0  0
 26  1  1  0  0  0  0
 26 25  2  0  0  0  0
 27 26  1  0  0  0  0
 28 27  2  0  0  0  0
 28 29  1  0  0  0  0
 29 30  2  0  0  0  0
 30 25  1  0  0  0  0
 30 34  1  0  0  0  0
 31 27  1  0  0  0  0
 32 28  1  0  0  0  0
 33 29  1  0  0  0  0
 34 45  1  0  0  0  0
 34 35  1  0  0  0  0
 35 36  1  0  0  0  0
 35 37  2  0  0  0  0
 38 39  1  0  0  0  0
 38 37  1  0  0  0  0
 39 40  1  0  0  0  0
 41 39  2  0  0  0  0
 42 41  1  0  0  0  0
 43 42  1  0  0  0  0
 44 42  2  0  0  0  0
 44 45  1  0  0  0  0
 45 38  2  0  0  0  0
M  END
>  <minimizedAffinity>
-6.41897821

$$$$

 OpenBabel03272506283D

 45 49  0  0  0  0  0  0  0  0999 V2000
   36.7530   26.2330   32.1580 S   0  0  0  0  0  0  0  0  0  0  0  0
   39.2050   25.2040   32.4840 C   0  0  0  0  0  0  0  0  0  0  0  0
   40.4910   24.9500   32.0450 C   0  0  0  0  0  0  0  0  0  0  0  0
   40.9790   25.3360   30.7910 C   0  0  0  0  0  0  0  0  0  0  0  0
   40.1040   26.0230   29.9200 C   0  0  0  0  0  0  0  0  0  0  0  0
   38.8390   26.2630   30.3740 C   0  0  0  0  0  0  0  0  0  0  0  0
   38.3680   25.8890   31.5970 C   0  0  0  0  0  0  0  0  0  0  0  0
   41.1870   24.4200   32.6970 H   0  0  0  0  0  0  0  0  0  0  0  0
   42.0210   25.0750   30.5590 H   0  0  0  0  0  0  0  0  0  0  0  0
   40.6050   26.2530   29.0030 H   0  0  0  0  0  0  0  0  0  0  0  0
   38.3570   26.7690   29.5690 H   0  0  0  0  0  0  0  0  0  0  0  0
   38.2890   23.4380   33.8460 C   0  0  0  0  0  0  0  0  0  0  0  0
   38.8600   24.7150   33.7860 C   0  0  0  0  0  0  0  0  0  0  0  0
   39.0480   25.4080   34.9880 C   0  0  0  0  0  0  0  0  0  0  0  0
   38.6720   24.8210   36.1540 N   0  0  0  0  0  0  0  0  0  0  0  0
   38.1180   23.5730   36.1810 C   0  0  0  0  0  0  0  0  0  0  0  0
   37.9290   22.8870   35.0240 N   0  0  0  0  0  0  0  0  0  0  0  0
   38.1290   22.8740   32.9480 H   0  0  0  0  0  0  0  0  0  0  0  0
   37.8410   23.1660   37.1420 H   0  0  0  0  0  0  0  0  0  0  0  0
   39.6410   26.7800   35.0790 C   0  0  0  0  0  0  0  0  0  0  0  0
   39.1710   27.4100   36.2450 F   0  0  0  0  0  0  0  0  0  0  0  0
   40.9840   26.8400   35.0660 F   0  0  0  0  0  0  0  0  0  0  0  0
   39.1320   27.5740   34.0500 F   0  0  0  0  0  0  0  0  0  0  0  0
   36.1040   27.7250   34.8110 Cl  0  0  0  0  0  0  0  0  0  0  0  0
   36.0280   28.5460   33.2770 C   0  0  0  0  0  0  0  0  0  0  0  0
   36.2920   27.9370   32.0650 C   0  0  0  0  0  0  0  0  0  0  0  0
   36.2030   28.6250   30.8860 C   0  0  0  0  0  0  0  0  0  0  0  0
   35.8380   29.9740   30.9430 C   0  0  0  0  0  0  0  0  0  0  0  0
   35.5700   30.5980   32.1620 C   0  0  0  0  0  0  0  0  0  0  0  0
   35.6610   29.8910   33.3450 C   0  0  0  0  0  0  0  0  0  0  0  0
   36.3510   28.2480   29.9100 H   0  0  0  0  0  0  0  0  0  0  0  0
   35.7420   30.5990   30.0730 H   0  0  0  0  0  0  0  0  0  0  0  0
   35.2850   31.6480   32.2030 H   0  0  0  0  0  0  0  0  0  0  0  0
   35.3810   30.5550   34.5750 N   0  0  0  0  0  0  0  0  0  0  0  0
   36.1480   31.2600   35.4500 C   0  0  0  0  0  0  0  0  0  0  0  0
   37.1900   31.4030   35.2720 H   0  0  0  0  0  0  0  0  0  0  0  0
   35.3490   31.6660   36.4540 N   0  0  0  0  0  0  0  0  0  0  0  0
   34.1030   31.2300   36.2250 C   0  0  0  0  0  0  0  0  0  0  0  0
   32.9650   31.4120   36.9870 C   0  0  0  0  0  0  0  0  0  0  0  0
   32.9620   31.9640   37.9190 H   0  0  0  0  0  0  0  0  0  0  0  0
   31.8240   30.8650   36.5290 N   0  0  0  0  0  0  0  0  0  0  0  0
   31.8080   30.1700   35.3630 C   0  0  0  0  0  0  0  0  0  0  0  0
   30.9520   29.6910   34.9040 H   0  0  0  0  0  0  0  0  0  0  0  0
   32.9220   29.9990   34.6280 N   0  0  0  0  0  0  0  0  0  0  0  0
   34.0970   30.5190   35.0290 C   0  0  0  0  0  0  0  0  0  0  0  0
  2 13  1  0  0  0  0
  3  2  1  0  0  0  0
  3  8  1  0  0  0  0
  4  3  2  0  0  0  0
  5  6  2  0  0  0  0
  5  4  1  0  0  0  0
  6  7  1  0  0  0  0
  7  1  1  0  0  0  0
  7  2  2  0  0  0  0
  9  4  1  0  0  0  0
 10  5  1  0  0  0  0
 11  6  1  0  0  0  0
 12 17  1  0  0  0  0
 13 12  2  0  0  0  0
 13 14  1  0  0  0  0
 14 20  1  0  0  0  0
 14 15  2  0  0  0  0
 15 16  1  0  0  0  0
 16 19  1  0  0  0  0
 17 16  2  0  0  0  0
 18 12  1  0  0  0  0
 20 21  1  0  0  0  0
 22 20  1  0  0  0  0
 23 20  1  0  0  0  0
 25 30  1  0  0  0  0
 25 24  1  0  0  0  0
 26  1  1  0  0  0  0
 26 25  2  0  0  0  0
 27 28  2  0  0  0  0
 27 26  1  0  0  0  0
 28 29  1  0  0  0  0
 29 33  1  0  0  0  0
 29 30  2  0  0  0  0
 30 34  1  0  0  0  0
 31 27  1  0  0  0  0
 32 28  1  0  0  0  0
 34 45  1  0  0  0  0
 34 35  1  0  0  0  0
 35 37  2  0  0  0  0
 36 35  1  0  0  0  0
 38 37  1  0  0  0  0
 38 39  1  0  0  0  0
 39 40  1  0  0  0  0
 41 39  2  0  0  0  0
 42 41  1  0  0  0  0
 43 42  1  0  0  0  0
 44 45  1  0  0  0  0
 44 42  2  0  0  0  0
 45 38  2  0  0  0  0
M  END
>  <minimizedAffinity>
-6.37941933

$$$$

 OpenBabel03272506283D

 45 49  0  0  0  0  0  0  0  0999 V2000
   37.5600   26.3970   34.5830 S   0  0  0  0  0  0  0  0  0  0  0  0
   39.5110   24.6010   34.9650 C   0  0  0  0  0  0  0  0  0  0  0  0
   40.8430   24.2520   35.0830 C   0  0  0  0  0  0  0  0  0  0  0  0
   41.9020   25.1580   34.9590 C   0  0  0  0  0  0  0  0  0  0  0  0
   41.5920   26.5120   34.6960 C   0  0  0  0  0  0  0  0  0  0  0  0
   40.2700   26.8340   34.5830 C   0  0  0  0  0  0  0  0  0  0  0  0
   39.2410   25.9490   34.7070 C   0  0  0  0  0  0  0  0  0  0  0  0
   41.1110   23.2140   35.2860 H   0  0  0  0  0  0  0  0  0  0  0  0
   42.9190   24.7570   35.0740 H   0  0  0  0  0  0  0  0  0  0  0  0
   42.4910   27.0880   34.6250 H   0  0  0  0  0  0  0  0  0  0  0  0
   40.2660   27.8790   34.3740 H   0  0  0  0  0  0  0  0  0  0  0  0
   38.1880   22.8810   33.9130 C   0  0  0  0  0  0  0  0  0  0  0  0
   38.5540   23.5420   35.0920 C   0  0  0  0  0  0  0  0  0  0  0  0
   37.9630   23.1240   36.2900 C   0  0  0  0  0  0  0  0  0  0  0  0
   37.0670   22.1030   36.2620 N   0  0  0  0  0  0  0  0  0  0  0  0
   36.7300   21.4770   35.0960 C   0  0  0  0  0  0  0  0  0  0  0  0
   37.2940   21.8710   33.9250 N   0  0  0  0  0  0  0  0  0  0  0  0
   38.6180   23.1720   32.9750 H   0  0  0  0  0  0  0  0  0  0  0  0
   36.0110   20.6740   35.1450 H   0  0  0  0  0  0  0  0  0  0  0  0
   38.2520   23.7360   37.6250 C   0  0  0  0  0  0  0  0  0  0  0  0
   39.5550   23.3840   38.0230 F   0  0  0  0  0  0  0  0  0  0  0  0
   38.1250   25.0730   37.6970 F   0  0  0  0  0  0  0  0  0  0  0  0
   37.4420   23.1410   38.5940 F   0  0  0  0  0  0  0  0  0  0  0  0
   35.5950   28.8090   34.6580 Cl  0  0  0  0  0  0  0  0  0  0  0  0
   36.2500   28.2300   33.1510 C   0  0  0  0  0  0  0  0  0  0  0  0
   37.1150   27.1570   33.0510 C   0  0  0  0  0  0  0  0  0  0  0  0
   37.5900   26.7340   31.8390 C   0  0  0  0  0  0  0  0  0  0  0  0
   37.1720   27.4250   30.6970 C   0  0  0  0  0  0  0  0  0  0  0  0
   36.2990   28.5100   30.7890 C   0  0  0  0  0  0  0  0  0  0  0  0
   35.8260   28.9260   32.0180 C   0  0  0  0  0  0  0  0  0  0  0  0
   38.2240   25.9110   31.6510 H   0  0  0  0  0  0  0  0  0  0  0  0
   37.4880   27.1700   29.7020 H   0  0  0  0  0  0  0  0  0  0  0  0
   35.9740   29.0450   29.8980 H   0  0  0  0  0  0  0  0  0  0  0  0
   34.9340   30.0370   32.0800 N   0  0  0  0  0  0  0  0  0  0  0  0
   33.5860   30.1430   32.2270 C   0  0  0  0  0  0  0  0  0  0  0  0
   32.9760   29.2740   32.3230 H   0  0  0  0  0  0  0  0  0  0  0  0
   33.2790   31.4540   32.2180 N   0  0  0  0  0  0  0  0  0  0  0  0
   34.4050   32.1650   32.0690 C   0  0  0  0  0  0  0  0  0  0  0  0
   34.5630   33.5370   32.0070 C   0  0  0  0  0  0  0  0  0  0  0  0
   33.7340   34.2290   32.0760 H   0  0  0  0  0  0  0  0  0  0  0  0
   35.8160   34.0040   31.8520 N   0  0  0  0  0  0  0  0  0  0  0  0
   36.8680   33.1500   31.7640 C   0  0  0  0  0  0  0  0  0  0  0  0
   37.9110   33.4150   31.6400 H   0  0  0  0  0  0  0  0  0  0  0  0
   36.7020   31.8170   31.8260 N   0  0  0  0  0  0  0  0  0  0  0  0
   35.4770   31.2830   31.9800 C   0  0  0  0  0  0  0  0  0  0  0  0
  1  7  1  0  0  0  0
  2  3  1  0  0  0  0
  2 13  1  0  0  0  0
  3  8  1  0  0  0  0
  4  9  1  0  0  0  0
  4  3  2  0  0  0  0
  5  4  1  0  0  0  0
  6  5  2  0  0  0  0
  6  7  1  0  0  0  0
  7  2  2  0  0  0  0
 10  5  1  0  0  0  0
 11  6  1  0  0  0  0
 12 17  2  0  0  0  0
 12 13  1  0  0  0  0
 13 14  2  0  0  0  0
 14 20  1  0  0  0  0
 15 14  1  0  0  0  0
 16 19  1  0  0  0  0
 16 15  2  0  0  0  0
 17 16  1  0  0  0  0
 18 12  1  0  0  0  0
 20 22  1  0  0  0  0
 20 21  1  0  0  0  0
 20 23  1  0  0  0  0
 25 24  1  0  0  0  0
 26 25  1  0  0  0  0
 26  1  1  0  0  0  0
 27 26  2  0  0  0  0
 28 29  2  0  0  0  0
 28 27  1  0  0  0  0
 29 30  1  0  0  0  0
 30 34  1  0  0  0  0
 30 25  2  0  0  0  0
 31 27  1  0  0  0  0
 32 28  1  0  0  0  0
 33 29  1  0  0  0  0
 34 35  1  0  0  0  0
 35 36  1  0  0  0  0
 37 35  2  0  0  0  0
 38 37  1  0  0  0  0
 39 38  1  0  0  0  0
 39 40  1  0  0  0  0
 41 39  2  0  0  0  0
 42 44  2  0  0  0  0
 42 41  1  0  0  0  0
 43 42  1  0  0  0  0
 44 45  1  0  0  0  0
 45 38  2  0  0  0  0
 45 34  1  0  0  0  0
M  END
>  <minimizedAffinity>
-6.34095335

$$$$

 OpenBabel03272506283D

 45 49  0  0  0  0  0  0  0  0999 V2000
   37.5160   26.1430   32.5130 S   0  0  0  0  0  0  0  0  0  0  0  0
   39.5640   24.9050   33.7180 C   0  0  0  0  0  0  0  0  0  0  0  0
   40.8240   24.9000   34.2850 C   0  0  0  0  0  0  0  0  0  0  0  0
   41.6480   26.0280   34.3680 C   0  0  0  0  0  0  0  0  0  0  0  0
   41.1640   27.2460   33.8390 C   0  0  0  0  0  0  0  0  0  0  0  0
   39.9170   27.2280   33.2830 C   0  0  0  0  0  0  0  0  0  0  0  0
   39.1160   26.1280   33.2060 C   0  0  0  0  0  0  0  0  0  0  0  0
   41.2230   23.9740   34.7010 H   0  0  0  0  0  0  0  0  0  0  0  0
   42.6300   25.8950   34.8440 H   0  0  0  0  0  0  0  0  0  0  0  0
   41.8930   28.0180   33.9680 H   0  0  0  0  0  0  0  0  0  0  0  0
   39.7620   28.2250   32.9420 H   0  0  0  0  0  0  0  0  0  0  0  0
   38.9070   22.9380   32.4880 C   0  0  0  0  0  0  0  0  0  0  0  0
   38.8640   23.6550   33.6900 C   0  0  0  0  0  0  0  0  0  0  0  0
   38.1500   23.1020   34.7600 C   0  0  0  0  0  0  0  0  0  0  0  0
   37.5320   21.9040   34.5910 N   0  0  0  0  0  0  0  0  0  0  0  0
   37.5910   21.2280   33.4050 C   0  0  0  0  0  0  0  0  0  0  0  0
   38.2800   21.7500   32.3580 N   0  0  0  0  0  0  0  0  0  0  0  0
   39.4430   23.3280   31.6450 H   0  0  0  0  0  0  0  0  0  0  0  0
   37.0770   20.2810   33.3400 H   0  0  0  0  0  0  0  0  0  0  0  0
   38.0140   23.7530   36.1010 C   0  0  0  0  0  0  0  0  0  0  0  0
   39.2110   23.5850   36.8200 F   0  0  0  0  0  0  0  0  0  0  0  0
   37.6960   25.0600   36.0890 F   0  0  0  0  0  0  0  0  0  0  0  0
   37.0750   23.0550   36.8620 F   0  0  0  0  0  0  0  0  0  0  0  0
   36.4820   27.7090   34.9960 Cl  0  0  0  0  0  0  0  0  0  0  0  0
   36.4120   28.4060   33.4020 C   0  0  0  0  0  0  0  0  0  0  0  0
   36.8420   27.7580   32.2590 C   0  0  0  0  0  0  0  0  0  0  0  0
   36.7510   28.3460   31.0280 C   0  0  0  0  0  0  0  0  0  0  0  0
   36.2080   29.6340   30.9580 C   0  0  0  0  0  0  0  0  0  0  0  0
   35.7710   30.2960   32.1060 C   0  0  0  0  0  0  0  0  0  0  0  0
   35.8670   29.6900   33.3430 C   0  0  0  0  0  0  0  0  0  0  0  0
   37.0180   27.9280   30.0950 H   0  0  0  0  0  0  0  0  0  0  0  0
   36.0940   30.1790   30.0380 H   0  0  0  0  0  0  0  0  0  0  0  0
   35.3480   31.2970   32.0480 H   0  0  0  0  0  0  0  0  0  0  0  0
   35.4120   30.3910   34.4980 N   0  0  0  0  0  0  0  0  0  0  0  0
   36.0230   31.2220   35.3850 C   0  0  0  0  0  0  0  0  0  0  0  0
   37.0570   31.4640   35.2860 H   0  0  0  0  0  0  0  0  0  0  0  0
   35.1000   31.5990   36.2890 N   0  0  0  0  0  0  0  0  0  0  0  0
   33.9290   31.0220   35.9860 C   0  0  0  0  0  0  0  0  0  0  0  0
   32.7150   31.1270   36.6370 C   0  0  0  0  0  0  0  0  0  0  0  0
   32.5730   31.7280   37.5260 H   0  0  0  0  0  0  0  0  0  0  0  0
   31.6800   30.4370   36.1220 N   0  0  0  0  0  0  0  0  0  0  0  0
   31.8390   29.6770   35.0080 C   0  0  0  0  0  0  0  0  0  0  0  0
   31.0800   29.0850   34.5120 H   0  0  0  0  0  0  0  0  0  0  0  0
   33.0270   29.5820   34.3820 N   0  0  0  0  0  0  0  0  0  0  0  0
   34.1020   30.2450   34.8450 C   0  0  0  0  0  0  0  0  0  0  0  0
  1  7  1  0  0  0  0
  2  3  1  0  0  0  0
  3  4  2  0  0  0  0
  3  8  1  0  0  0  0
  4  9  1  0  0  0  0
  5 10  1  0  0  0  0
  5  4  1  0  0  0  0
  6  5  2  0  0  0  0
  7  6  1  0  0  0  0
  7  2  2  0  0  0  0
 11  6  1  0  0  0  0
 12 13  1  0  0  0  0
 13  2  1  0  0  0  0
 13 14  2  0  0  0  0
 14 20  1  0  0  0  0
 15 14  1  0  0  0  0
 16 15  2  0  0  0  0
 17 12  2  0  0  0  0
 17 16  1  0  0  0  0
 18 12  1  0  0  0  0
 19 16  1  0  0  0  0
 20 21  1  0  0  0  0
 20 23  1  0  0  0  0
 22 20  1  0  0  0  0
 25 24  1  0  0  0  0
 26  1  1  0  0  0  0
 26 25  2  0  0  0  0
 27 26  1  0  0  0  0
 28 27  2  0  0  0  0
 28 29  1  0  0  0  0
 29 30  2  0  0  0  0
 30 25  1  0  0  0  0
 30 34  1  0  0  0  0
 31 27  1  0  0  0  0
 32 28  1  0  0  0  0
 33 29  1  0  0  0  0
 34 45  1  0  0  0  0
 34 35  1  0  0  0  0
 35 37  2  0  0  0  0
 36 35  1  0  0  0  0
 38 37  1  0  0  0  0
 38 39  1  0  0  0  0
 39 40  1  0  0  0  0
 41 39  2  0  0  0  0
 42 41  1  0  0  0  0
 43 42  1  0  0  0  0
 44 45  1  0  0  0  0
 44 42  2  0  0  0  0
 45 38  2  0  0  0  0
M  END
>  <minimizedAffinity>
-6.31749058

$$$$

 OpenBabel03272506283D

 45 49  0  0  0  0  0  0  0  0999 V2000
   38.6230   24.5060   32.7580 S   0  0  0  0  0  0  0  0  0  0  0  0
   37.8440   22.2950   34.0560 C   0  0  0  0  0  0  0  0  0  0  0  0
   36.9900   21.2230   34.2380 C   0  0  0  0  0  0  0  0  0  0  0  0
   35.8640   20.9770   33.4440 C   0  0  0  0  0  0  0  0  0  0  0  0
   35.5800   21.8800   32.3940 C   0  0  0  0  0  0  0  0  0  0  0  0
   36.4360   22.9320   32.2330 C   0  0  0  0  0  0  0  0  0  0  0  0
   37.5340   23.1670   33.0060 C   0  0  0  0  0  0  0  0  0  0  0  0
   37.1850   20.5110   35.0410 H   0  0  0  0  0  0  0  0  0  0  0  0
   35.2640   20.0900   33.6900 H   0  0  0  0  0  0  0  0  0  0  0  0
   34.6970   21.5730   31.8750 H   0  0  0  0  0  0  0  0  0  0  0  0
   36.0340   23.4800   31.4120 H   0  0  0  0  0  0  0  0  0  0  0  0
   40.1890   21.9890   34.5220 C   0  0  0  0  0  0  0  0  0  0  0  0
   38.9350   22.4140   34.9760 C   0  0  0  0  0  0  0  0  0  0  0  0
   38.8440   22.9170   36.2800 C   0  0  0  0  0  0  0  0  0  0  0  0
   39.9650   22.9710   37.0460 N   0  0  0  0  0  0  0  0  0  0  0  0
   41.1750   22.5490   36.5740 C   0  0  0  0  0  0  0  0  0  0  0  0
   41.2810   22.0590   35.3120 N   0  0  0  0  0  0  0  0  0  0  0  0
   40.3010   21.5980   33.5300 H   0  0  0  0  0  0  0  0  0  0  0  0
   42.0250   22.6200   37.2360 H   0  0  0  0  0  0  0  0  0  0  0  0
   37.5730   23.4040   36.9020 C   0  0  0  0  0  0  0  0  0  0  0  0
   37.8310   23.8110   38.2230 F   0  0  0  0  0  0  0  0  0  0  0  0
   36.9480   24.4040   36.2550 F   0  0  0  0  0  0  0  0  0  0  0  0
   36.6920   22.3320   37.0580 F   0  0  0  0  0  0  0  0  0  0  0  0
   36.2460   26.3590   31.9810 Cl  0  0  0  0  0  0  0  0  0  0  0  0
   37.2220   26.6900   33.3860 C   0  0  0  0  0  0  0  0  0  0  0  0
   38.2970   25.9140   33.7750 C   0  0  0  0  0  0  0  0  0  0  0  0
   39.0400   26.2270   34.8810 C   0  0  0  0  0  0  0  0  0  0  0  0
   38.6760   27.3630   35.6120 C   0  0  0  0  0  0  0  0  0  0  0  0
   37.5920   28.1520   35.2260 C   0  0  0  0  0  0  0  0  0  0  0  0
   36.8510   27.8260   34.1070 C   0  0  0  0  0  0  0  0  0  0  0  0
   39.8950   25.7230   35.2430 H   0  0  0  0  0  0  0  0  0  0  0  0
   39.1960   27.6910   36.4930 H   0  0  0  0  0  0  0  0  0  0  0  0
   37.3120   29.0360   35.7970 H   0  0  0  0  0  0  0  0  0  0  0  0
   35.7490   28.6520   33.7380 N   0  0  0  0  0  0  0  0  0  0  0  0
   34.5140   28.8530   34.2710 C   0  0  0  0  0  0  0  0  0  0  0  0
   34.2070   28.3330   35.1500 H   0  0  0  0  0  0  0  0  0  0  0  0
   33.8810   29.7560   33.4990 N   0  0  0  0  0  0  0  0  0  0  0  0
   34.6920   30.1210   32.4980 C   0  0  0  0  0  0  0  0  0  0  0  0
   34.4590   31.0190   31.4740 C   0  0  0  0  0  0  0  0  0  0  0  0
   33.5270   31.5600   31.3670 H   0  0  0  0  0  0  0  0  0  0  0  0
   35.4510   31.2090   30.5840 N   0  0  0  0  0  0  0  0  0  0  0  0
   36.6260   30.5390   30.7040 C   0  0  0  0  0  0  0  0  0  0  0  0
   37.4860   30.6150   30.0500 H   0  0  0  0  0  0  0  0  0  0  0  0
   36.8430   29.6670   31.7050 N   0  0  0  0  0  0  0  0  0  0  0  0
   35.8930   29.4300   32.6280 C   0  0  0  0  0  0  0  0  0  0  0  0
  1  7  1  0  0  0  0
  1 26  1  0  0  0  0
  2  3  1  0  0  0  0
  2 13  1  0  0  0  0
  3  8  1  0  0  0  0
  4  9  1  0  0  0  0
  4  3  2  0  0  0  0
  5  4  1  0  0  0  0
  6  5  2  0  0  0  0
  6  7  1  0  0  0  0
  7  2  2  0  0  0  0
 10  5  1  0  0  0  0
 11  6  1  0  0  0  0
 12 13  2  0  0  0  0
 12 17  1  0  0  0  0
 13 14  1  0  0  0  0
 14 20  1  0  0  0  0
 14 15  2  0  0  0  0
 16 15  1  0  0  0  0
 16 19  1  0  0  0  0
 17 16  2  0  0  0  0
 18 12  1  0  0  0  0
 20 23  1  0  0  0  0
 20 21  1  0  0  0  0
 22 20  1  0  0  0  0
 24 25  1  0  0  0  0
 25 26  2  0  0  0  0
 25 30  1  0  0  0  0
 26 27  1  0  0  0  0
 27 31  1  0  0  0  0
 27 28  2  0  0  0  0
 28 32  1  0  0  0  0
 29 28  1  0  0  0  0
 29 33  1  0  0  0  0
 30 29  2  0  0  0  0
 34 30  1  0  0  0  0
 34 35  1  0  0  0  0
 35 36  1  0  0  0  0
 37 35  2  0  0  0  0
 38 45  1  0  0  0  0
 38 37  1  0  0  0  0
 39 38  2  0  0  0  0
 40 39  1  0  0  0  0
 41 42  2  0  0  0  0
 41 39  1  0  0  0  0
 42 44  1  0  0  0  0
 43 42  1  0  0  0  0
 44 45  2  0  0  0  0
 45 34  1  0  0  0  0
M  END
>  <minimizedAffinity>
-6.29278564

$$$$

 OpenBabel03272506283D

 45 49  0  0  0  0  0  0  0  0999 V2000
   34.8550   29.3980   33.9140 S   0  0  0  0  0  0  0  0  0  0  0  0
   33.3360   30.5740   35.7820 C   0  0  0  0  0  0  0  0  0  0  0  0
   33.1200   31.5310   36.7550 C   0  0  0  0  0  0  0  0  0  0  0  0
   34.0700   32.4860   37.1360 C   0  0  0  0  0  0  0  0  0  0  0  0
   35.3270   32.4700   36.4890 C   0  0  0  0  0  0  0  0  0  0  0  0
   35.5170   31.5150   35.5310 C   0  0  0  0  0  0  0  0  0  0  0  0
   34.5890   30.5890   35.1600 C   0  0  0  0  0  0  0  0  0  0  0  0
   32.1600   31.5660   37.2710 H   0  0  0  0  0  0  0  0  0  0  0  0
   33.7780   33.1950   37.9240 H   0  0  0  0  0  0  0  0  0  0  0  0
   35.9500   33.2470   36.8770 H   0  0  0  0  0  0  0  0  0  0  0  0
   36.5150   31.6730   35.1910 H   0  0  0  0  0  0  0  0  0  0  0  0
   32.2170   28.5140   36.3450 C   0  0  0  0  0  0  0  0  0  0  0  0
   32.2660   29.6550   35.5340 C   0  0  0  0  0  0  0  0  0  0  0  0
   31.2760   29.8070   34.5550 C   0  0  0  0  0  0  0  0  0  0  0  0
   30.3180   28.8510   34.4310 N   0  0  0  0  0  0  0  0  0  0  0  0
   30.2970   27.7490   35.2370 C   0  0  0  0  0  0  0  0  0  0  0  0
   31.2490   27.5860   36.1920 N   0  0  0  0  0  0  0  0  0  0  0  0
   32.9570   28.3600   37.1060 H   0  0  0  0  0  0  0  0  0  0  0  0
   29.5080   27.0290   35.0840 H   0  0  0  0  0  0  0  0  0  0  0  0
   31.2020   30.9690   33.6150 C   0  0  0  0  0  0  0  0  0  0  0  0
   30.0410   30.8540   32.8290 F   0  0  0  0  0  0  0  0  0  0  0  0
   31.2200   32.1870   34.1850 F   0  0  0  0  0  0  0  0  0  0  0  0
   32.2370   30.8790   32.6830 F   0  0  0  0  0  0  0  0  0  0  0  0
   35.9750   27.8770   31.4410 Cl  0  0  0  0  0  0  0  0  0  0  0  0
   36.7750   27.7930   32.9850 C   0  0  0  0  0  0  0  0  0  0  0  0
   36.3210   28.4340   34.1220 C   0  0  0  0  0  0  0  0  0  0  0  0
   36.9800   28.3230   35.3160 C   0  0  0  0  0  0  0  0  0  0  0  0
   38.1380   27.5360   35.3520 C   0  0  0  0  0  0  0  0  0  0  0  0
   38.6040   26.8860   34.2090 C   0  0  0  0  0  0  0  0  0  0  0  0
   37.9280   27.0050   33.0100 C   0  0  0  0  0  0  0  0  0  0  0  0
   36.7020   28.7410   36.2450 H   0  0  0  0  0  0  0  0  0  0  0  0
   38.7250   27.3880   36.2400 H   0  0  0  0  0  0  0  0  0  0  0  0
   39.5040   26.2740   34.2400 H   0  0  0  0  0  0  0  0  0  0  0  0
   38.4270   26.3280   31.8600 N   0  0  0  0  0  0  0  0  0  0  0  0
   39.2300   26.7080   30.8290 C   0  0  0  0  0  0  0  0  0  0  0  0
   39.6200   27.6990   30.7770 H   0  0  0  0  0  0  0  0  0  0  0  0
   39.3740   25.6470   30.0150 N   0  0  0  0  0  0  0  0  0  0  0  0
   38.6800   24.6150   30.5130 C   0  0  0  0  0  0  0  0  0  0  0  0
   38.5450   23.3350   30.0110 C   0  0  0  0  0  0  0  0  0  0  0  0
   39.0200   23.0100   29.0940 H   0  0  0  0  0  0  0  0  0  0  0  0
   37.7820   22.4760   30.7120 N   0  0  0  0  0  0  0  0  0  0  0  0
   37.1790   22.8670   31.8640 C   0  0  0  0  0  0  0  0  0  0  0  0
   36.5480   22.2630   32.5040 H   0  0  0  0  0  0  0  0  0  0  0  0
   37.3180   24.1160   32.3450 N   0  0  0  0  0  0  0  0  0  0  0  0
   38.0660   25.0250   31.6930 C   0  0  0  0  0  0  0  0  0  0  0  0
  1 26  1  0  0  0  0
  1  7  1  0  0  0  0
  2  3  1  0  0  0  0
  3  4  2  0  0  0  0
  3  8  1  0  0  0  0
  4  9  1  0  0  0  0
  5 10  1  0  0  0  0
  5  4  1  0  0  0  0
  6  5  2  0  0  0  0
  7  6  1  0  0  0  0
  7  2  2  0  0  0  0
 11  6  1  0  0  0  0
 12 18  1  0  0  0  0
 13  2  1  0  0  0  0
 13 12  2  0  0  0  0
 14 13  1  0  0  0  0
 15 14  2  0  0  0  0
 15 16  1  0  0  0  0
 16 17  2  0  0  0  0
 17 12  1  0  0  0  0
 19 16  1  0  0  0  0
 20 22  1  0  0  0  0
 20 14  1  0  0  0  0
 21 20  1  0  0  0  0
 23 20  1  0  0  0  0
 24 25  1  0  0  0  0
 25 30  2  0  0  0  0
 25 26  1  0  0  0  0
 26 27  2  0  0  0  0
 27 28  1  0  0  0  0
 27 31  1  0  0  0  0
 28 32  1  0  0  0  0
 29 33  1  0  0  0  0
 29 28  2  0  0  0  0
 30 29  1  0  0  0  0
 34 30  1  0  0  0  0
 35 34  1  0  0  0  0
 36 35  1  0  0  0  0
 37 38  1  0  0  0  0
 37 35  2  0  0  0  0
 38 45  1  0  0  0  0
 39 38  2  0  0  0  0
 39 41  1  0  0  0  0
 40 39  1  0  0  0  0
 41 42  2  0  0  0  0
 42 44  1  0  0  0  0
 42 43  1  0  0  0  0
 45 34  1  0  0  0  0
 45 44  2  0  0  0  0
M  END
>  <minimizedAffinity>
-6.28401804

$$$$

 OpenBabel03272506283D

 45 49  0  0  0  0  0  0  0  0999 V2000
   37.5340   26.2830   32.9200 S   0  0  0  0  0  0  0  0  0  0  0  0
   39.6850   25.6470   34.3850 C   0  0  0  0  0  0  0  0  0  0  0  0
   41.0160   25.7970   34.7290 C   0  0  0  0  0  0  0  0  0  0  0  0
   41.8910   26.6880   34.0980 C   0  0  0  0  0  0  0  0  0  0  0  0
   41.3860   27.4820   33.0430 C   0  0  0  0  0  0  0  0  0  0  0  0
   40.0690   27.3180   32.7200 C   0  0  0  0  0  0  0  0  0  0  0  0
   39.2190   26.4510   33.3390 C   0  0  0  0  0  0  0  0  0  0  0  0
   41.4320   25.1960   35.5390 H   0  0  0  0  0  0  0  0  0  0  0  0
   42.9270   26.7140   34.4640 H   0  0  0  0  0  0  0  0  0  0  0  0
   42.1580   28.1110   32.6550 H   0  0  0  0  0  0  0  0  0  0  0  0
   39.9070   27.9890   31.9090 H   0  0  0  0  0  0  0  0  0  0  0  0
   38.3430   25.0950   36.3100 C   0  0  0  0  0  0  0  0  0  0  0  0
   38.9370   24.6690   35.1160 C   0  0  0  0  0  0  0  0  0  0  0  0
   38.7550   23.3350   34.7310 C   0  0  0  0  0  0  0  0  0  0  0  0
   38.0180   22.5140   35.5250 N   0  0  0  0  0  0  0  0  0  0  0  0
   37.4510   22.9590   36.6850 C   0  0  0  0  0  0  0  0  0  0  0  0
   37.6180   24.2500   37.0720 N   0  0  0  0  0  0  0  0  0  0  0  0
   38.4590   26.1090   36.6400 H   0  0  0  0  0  0  0  0  0  0  0  0
   36.8790   22.2540   37.2680 H   0  0  0  0  0  0  0  0  0  0  0  0
   39.3310   22.7370   33.4850 C   0  0  0  0  0  0  0  0  0  0  0  0
   38.9750   21.3780   33.4180 F   0  0  0  0  0  0  0  0  0  0  0  0
   38.9810   23.3340   32.3320 F   0  0  0  0  0  0  0  0  0  0  0  0
   40.7230   22.7050   33.5870 F   0  0  0  0  0  0  0  0  0  0  0  0
   36.8070   28.0940   35.3440 Cl  0  0  0  0  0  0  0  0  0  0  0  0
   36.4190   28.5740   33.7150 C   0  0  0  0  0  0  0  0  0  0  0  0
   36.7030   27.8100   32.6000 C   0  0  0  0  0  0  0  0  0  0  0  0
   36.3630   28.2280   31.3420 C   0  0  0  0  0  0  0  0  0  0  0  0
   35.7160   29.4620   31.2170 C   0  0  0  0  0  0  0  0  0  0  0  0
   35.4250   30.2410   32.3370 C   0  0  0  0  0  0  0  0  0  0  0  0
   35.7720   29.8070   33.6020 C   0  0  0  0  0  0  0  0  0  0  0  0
   36.5040   27.7080   30.4330 H   0  0  0  0  0  0  0  0  0  0  0  0
   35.4090   29.8760   30.2740 H   0  0  0  0  0  0  0  0  0  0  0  0
   34.9200   31.2000   32.2370 H   0  0  0  0  0  0  0  0  0  0  0  0
   35.4610   30.6240   34.7280 N   0  0  0  0  0  0  0  0  0  0  0  0
   36.1560   31.5720   35.4120 C   0  0  0  0  0  0  0  0  0  0  0  0
   37.1500   31.8330   35.1280 H   0  0  0  0  0  0  0  0  0  0  0  0
   35.3610   32.0230   36.4000 N   0  0  0  0  0  0  0  0  0  0  0  0
   34.1880   31.3780   36.3470 C   0  0  0  0  0  0  0  0  0  0  0  0
   33.0810   31.5200   37.1620 C   0  0  0  0  0  0  0  0  0  0  0  0
   33.0450   32.2170   37.9890 H   0  0  0  0  0  0  0  0  0  0  0  0
   32.0160   30.7420   36.8930 N   0  0  0  0  0  0  0  0  0  0  0  0
   32.0450   29.8620   35.8600 C   0  0  0  0  0  0  0  0  0  0  0  0
   31.2500   29.1910   35.5550 H   0  0  0  0  0  0  0  0  0  0  0  0
   33.1280   29.7320   35.0720 N   0  0  0  0  0  0  0  0  0  0  0  0
   34.2270   30.4780   35.2860 C   0  0  0  0  0  0  0  0  0  0  0  0
  1  7  1  0  0  0  0
  2  3  1  0  0  0  0
  2 13  1  0  0  0  0
  3  8  1  0  0  0  0
  4  9  1  0  0  0  0
  4  3  2  0  0  0  0
  5  4  1  0  0  0  0
  6  5  2  0  0  0  0
  6  7  1  0  0  0  0
  7  2  2  0  0  0  0
 10  5  1  0  0  0  0
 11  6  1  0  0  0  0
 12 18  1  0  0  0  0
 12 17  1  0  0  0  0
 13 12  2  0  0  0  0
 14 13  1  0  0  0  0
 14 15  2  0  0  0  0
 15 16  1  0  0  0  0
 16 17  2  0  0  0  0
 16 19  1  0  0  0  0
 20 23  1  0  0  0  0
 20 14  1  0  0  0  0
 21 20  1  0  0  0  0
 22 20  1  0  0  0  0
 25 24  1  0  0  0  0
 26  1  1  0  0  0  0
 26 25  2  0  0  0  0
 27 26  1  0  0  0  0
 28 27  2  0  0  0  0
 28 29  1  0  0  0  0
 29 30  2  0  0  0  0
 30 25  1  0  0  0  0
 30 34  1  0  0  0  0
 31 27  1  0  0  0  0
 32 28  1  0  0  0  0
 33 29  1  0  0  0  0
 34 45  1  0  0  0  0
 34 35  1  0  0  0  0
 35 37  2  0  0  0  0
 36 35  1  0  0  0  0
 38 37  1  0  0  0  0
 38 39  1  0  0  0  0
 39 40  1  0  0  0  0
 41 39  2  0  0  0  0
 42 41  1  0  0  0  0
 43 42  1  0  0  0  0
 44 45  1  0  0  0  0
 44 42  2  0  0  0  0
 45 38  2  0  0  0  0
M  END
>  <minimizedAffinity>
-6.27428102

$$$$
