
 OpenBabel03262520143D

 45 48  0  0  0  0  0  0  0  0999 V2000
   38.8000   27.0310   33.0900 C   0  0  0  0  0  0  0  0  0  0  0  0
   37.8760   27.5390   33.2800 H   0  0  0  0  0  0  0  0  0  0  0  0
   39.4910   27.8720   32.7310 H   0  0  0  0  0  0  0  0  0  0  0  0
   38.7530   26.1110   31.9260 C   0  0  0  0  0  0  0  0  0  0  0  0
   39.6140   25.4020   31.9810 H   0  0  0  0  0  0  0  0  0  0  0  0
   38.9470   26.6960   30.9850 H   0  0  0  0  0  0  0  0  0  0  0  0
   38.9050   22.9950   32.4290 Br  0  0  0  0  0  0  0  0  0  0  0  0
   37.3680   24.0170   31.8880 C   0  0  0  0  0  0  0  0  0  0  0  0
   36.1630   23.3960   31.6750 C   0  0  0  0  0  0  0  0  0  0  0  0
   35.1050   24.1730   31.2790 C   0  0  0  0  0  0  0  0  0  0  0  0
   35.2120   25.5390   31.0890 C   0  0  0  0  0  0  0  0  0  0  0  0
   36.4600   26.1360   31.3170 C   0  0  0  0  0  0  0  0  0  0  0  0
   37.5170   25.3650   31.7140 C   0  0  0  0  0  0  0  0  0  0  0  0
   34.1620   23.6240   31.1220 H   0  0  0  0  0  0  0  0  0  0  0  0
   34.2930   26.0100   30.7760 H   0  0  0  0  0  0  0  0  0  0  0  0
   36.3420   27.1730   31.1070 H   0  0  0  0  0  0  0  0  0  0  0  0
   36.1150   19.8340   30.8870 C   0  0  0  0  0  0  0  0  0  0  0  0
   35.7360   19.2230   32.1270 C   0  0  0  0  0  0  0  0  0  0  0  0
   35.5100   20.0580   33.1900 C   0  0  0  0  0  0  0  0  0  0  0  0
   35.6490   21.4210   33.0470 N   0  0  0  0  0  0  0  0  0  0  0  0
   36.0070   21.9490   31.8600 C   0  0  0  0  0  0  0  0  0  0  0  0
   36.2330   21.1510   30.8050 N   0  0  0  0  0  0  0  0  0  0  0  0
   36.3090   19.2470   30.0060 H   0  0  0  0  0  0  0  0  0  0  0  0
   35.6470   18.1480   32.1660 H   0  0  0  0  0  0  0  0  0  0  0  0
   35.2230   19.6280   34.1370 H   0  0  0  0  0  0  0  0  0  0  0  0
   39.5250   26.4150   34.1420 N   0  0  0  0  0  0  0  0  0  0  0  0
   40.5420   26.6480   34.2020 H   0  0  0  0  0  0  0  0  0  0  0  0
   38.9280   26.4070   35.4270 C   0  0  0  0  0  0  0  0  0  0  0  0
   38.4580   27.3930   35.6470 H   0  0  0  0  0  0  0  0  0  0  0  0
   39.6690   26.2420   36.2420 H   0  0  0  0  0  0  0  0  0  0  0  0
   37.9030   25.3230   35.4700 C   0  0  0  0  0  0  0  0  0  0  0  0
   36.9510   25.6490   35.9590 H   0  0  0  0  0  0  0  0  0  0  0  0
   37.7680   24.6740   34.6280 H   0  0  0  0  0  0  0  0  0  0  0  0
   38.4530   24.3800   36.5000 N   0  0  0  0  0  0  0  0  0  0  0  0
   37.9180   24.1370   37.7250 C   0  0  0  0  0  0  0  0  0  0  0  0
   37.0120   24.6060   38.1100 H   0  0  0  0  0  0  0  0  0  0  0  0
   38.6920   23.2360   38.3580 N   0  0  0  0  0  0  0  0  0  0  0  0
   39.7060   22.8970   37.5660 C   0  0  0  0  0  0  0  0  0  0  0  0
   40.7940   22.0630   37.6250 C   0  0  0  0  0  0  0  0  0  0  0  0
   40.9650   21.4730   38.5150 H   0  0  0  0  0  0  0  0  0  0  0  0
   41.7050   21.9090   36.6280 N   0  0  0  0  0  0  0  0  0  0  0  0
   41.5210   22.6370   35.4910 C   0  0  0  0  0  0  0  0  0  0  0  0
   42.1170   22.6690   34.5840 H   0  0  0  0  0  0  0  0  0  0  0  0
   40.4570   23.4790   35.3850 N   0  0  0  0  0  0  0  0  0  0  0  0
   39.5710   23.6040   36.4010 C   0  0  0  0  0  0  0  0  0  0  0  0
  1  2  1  0  0  0  0
  1 26  1  0  0  0  0
  3  1  1  0  0  0  0
  4  5  1  0  0  0  0
  4  1  1  0  0  0  0
  6  4  1  0  0  0  0
  8  7  1  0  0  0  0
  9 21  1  0  0  0  0
  9  8  2  0  0  0  0
 10  9  1  0  0  0  0
 11 10  2  0  0  0  0
 11 12  1  0  0  0  0
 12 13  2  0  0  0  0
 13  8  1  0  0  0  0
 13  4  1  0  0  0  0
 14 10  1  0  0  0  0
 15 11  1  0  0  0  0
 16 12  1  0  0  0  0
 17 18  1  0  0  0  0
 18 24  1  0  0  0  0
 18 19  2  0  0  0  0
 19 25  1  0  0  0  0
 20 19  1  0  0  0  0
 21 20  2  0  0  0  0
 22 17  2  0  0  0  0
 22 21  1  0  0  0  0
 23 17  1  0  0  0  0
 26 27  1  0  0  0  0
 26 28  1  0  0  0  0
 28 31  1  0  0  0  0
 28 29  1  0  0  0  0
 28 30  1  0  0  0  0
 31 32  1  0  0  0  0
 31 34  1  0  0  0  0
 33 31  1  0  0  0  0
 34 35  1  0  0  0  0
 35 36  1  0  0  0  0
 35 37  2  0  0  0  0
 38 39  1  0  0  0  0
 38 37  1  0  0  0  0
 39 40  1  0  0  0  0
 41 39  2  0  0  0  0
 42 41  1  0  0  0  0
 43 42  1  0  0  0  0
 44 42  2  0  0  0  0
 44 45  1  0  0  0  0
 45 34  1  0  0  0  0
 45 38  2  0  0  0  0
M  END
>  <minimizedAffinity>
-5.5445652

$$$$

 OpenBabel03262520143D

 45 48  0  0  0  0  0  0  0  0999 V2000
   35.7920   26.9350   31.6020 C   0  0  0  0  0  0  0  0  0  0  0  0
   34.9190   27.5550   31.6510 H   0  0  0  0  0  0  0  0  0  0  0  0
   35.7370   26.3310   32.5750 H   0  0  0  0  0  0  0  0  0  0  0  0
   37.0680   27.6810   31.7380 C   0  0  0  0  0  0  0  0  0  0  0  0
   36.8760   28.7700   31.5860 H   0  0  0  0  0  0  0  0  0  0  0  0
   37.7470   27.4070   30.8840 H   0  0  0  0  0  0  0  0  0  0  0  0
   40.0680   26.7550   31.3810 Br  0  0  0  0  0  0  0  0  0  0  0  0
   39.1400   27.0990   33.0310 C   0  0  0  0  0  0  0  0  0  0  0  0
   39.7830   26.9470   34.2330 C   0  0  0  0  0  0  0  0  0  0  0  0
   39.0690   27.1950   35.3770 C   0  0  0  0  0  0  0  0  0  0  0  0
   37.7420   27.5850   35.3570 C   0  0  0  0  0  0  0  0  0  0  0  0
   37.1190   27.7290   34.1090 C   0  0  0  0  0  0  0  0  0  0  0  0
   37.8300   27.4850   32.9660 C   0  0  0  0  0  0  0  0  0  0  0  0
   39.6330   27.0580   36.3140 H   0  0  0  0  0  0  0  0  0  0  0  0
   37.3180   27.7410   36.3380 H   0  0  0  0  0  0  0  0  0  0  0  0
   36.1140   28.0180   34.3040 H   0  0  0  0  0  0  0  0  0  0  0  0
   42.7070   24.8780   34.9270 C   0  0  0  0  0  0  0  0  0  0  0  0
   43.8000   25.6770   34.4570 C   0  0  0  0  0  0  0  0  0  0  0  0
   43.4930   26.8980   33.9190 C   0  0  0  0  0  0  0  0  0  0  0  0
   42.1840   27.3170   33.8430 N   0  0  0  0  0  0  0  0  0  0  0  0
   41.1890   26.5300   34.2990 C   0  0  0  0  0  0  0  0  0  0  0  0
   41.4660   25.3290   34.8300 N   0  0  0  0  0  0  0  0  0  0  0  0
   42.8650   23.9070   35.3630 H   0  0  0  0  0  0  0  0  0  0  0  0
   44.8010   25.2840   34.5480 H   0  0  0  0  0  0  0  0  0  0  0  0
   44.2950   27.5230   33.5560 H   0  0  0  0  0  0  0  0  0  0  0  0
   35.9320   25.9490   30.5930 N   0  0  0  0  0  0  0  0  0  0  0  0
   36.7530   26.0540   29.9540 H   0  0  0  0  0  0  0  0  0  0  0  0
   35.7510   24.5970   30.9720 C   0  0  0  0  0  0  0  0  0  0  0  0
   34.9740   24.1120   30.3370 H   0  0  0  0  0  0  0  0  0  0  0  0
   35.3870   24.4900   32.0200 H   0  0  0  0  0  0  0  0  0  0  0  0
   37.0550   23.8830   30.8320 C   0  0  0  0  0  0  0  0  0  0  0  0
   37.1200   23.2860   29.8890 H   0  0  0  0  0  0  0  0  0  0  0  0
   37.9680   24.3680   31.1120 H   0  0  0  0  0  0  0  0  0  0  0  0
   36.9560   22.7950   31.8610 N   0  0  0  0  0  0  0  0  0  0  0  0
   36.4520   21.5500   31.6590 C   0  0  0  0  0  0  0  0  0  0  0  0
   36.0530   21.1880   30.7100 H   0  0  0  0  0  0  0  0  0  0  0  0
   36.5330   20.8630   32.8140 N   0  0  0  0  0  0  0  0  0  0  0  0
   37.0760   21.6400   33.7480 C   0  0  0  0  0  0  0  0  0  0  0  0
   37.4130   21.5350   35.0730 C   0  0  0  0  0  0  0  0  0  0  0  0
   37.2290   20.6070   35.5970 H   0  0  0  0  0  0  0  0  0  0  0  0
   37.9780   22.5290   35.8090 N   0  0  0  0  0  0  0  0  0  0  0  0
   38.2250   23.7120   35.1810 C   0  0  0  0  0  0  0  0  0  0  0  0
   38.6620   24.6260   35.5700 H   0  0  0  0  0  0  0  0  0  0  0  0
   37.9070   23.8650   33.8660 N   0  0  0  0  0  0  0  0  0  0  0  0
   37.3460   22.8510   33.1670 C   0  0  0  0  0  0  0  0  0  0  0  0
  1  2  1  0  0  0  0
  1  4  1  0  0  0  0
  1  3  1  0  0  0  0
  4 13  1  0  0  0  0
  5  4  1  0  0  0  0
  6  4  1  0  0  0  0
  7  8  1  0  0  0  0
  8  9  1  0  0  0  0
  9 21  1  0  0  0  0
  9 10  2  0  0  0  0
 10 14  1  0  0  0  0
 11 10  1  0  0  0  0
 11 15  1  0  0  0  0
 12 16  1  0  0  0  0
 12 11  2  0  0  0  0
 13  8  2  0  0  0  0
 13 12  1  0  0  0  0
 17 23  1  0  0  0  0
 18 24  1  0  0  0  0
 18 17  2  0  0  0  0
 19 18  1  0  0  0  0
 20 19  2  0  0  0  0
 20 21  1  0  0  0  0
 21 22  2  0  0  0  0
 22 17  1  0  0  0  0
 25 19  1  0  0  0  0
 26 28  1  0  0  0  0
 26  1  1  0  0  0  0
 27 26  1  0  0  0  0
 28 30  1  0  0  0  0
 29 28  1  0  0  0  0
 31 28  1  0  0  0  0
 31 33  1  0  0  0  0
 31 34  1  0  0  0  0
 32 31  1  0  0  0  0
 34 45  1  0  0  0  0
 35 34  1  0  0  0  0
 35 37  2  0  0  0  0
 36 35  1  0  0  0  0
 37 38  1  0  0  0  0
 38 39  1  0  0  0  0
 39 40  1  0  0  0  0
 39 41  2  0  0  0  0
 42 43  1  0  0  0  0
 42 41  1  0  0  0  0
 44 42  2  0  0  0  0
 45 38  2  0  0  0  0
 45 44  1  0  0  0  0
M  END
>  <minimizedAffinity>
-5.5029211

$$$$

 OpenBabel03262520143D

 45 48  0  0  0  0  0  0  0  0999 V2000
   37.7350   27.8500   31.5500 C   0  0  0  0  0  0  0  0  0  0  0  0
   37.3390   27.5140   30.6120 H   0  0  0  0  0  0  0  0  0  0  0  0
   38.2360   28.8450   31.2790 H   0  0  0  0  0  0  0  0  0  0  0  0
   38.8640   27.0280   32.0560 C   0  0  0  0  0  0  0  0  0  0  0  0
   39.4800   27.6410   32.7560 H   0  0  0  0  0  0  0  0  0  0  0  0
   39.5650   26.8030   31.2060 H   0  0  0  0  0  0  0  0  0  0  0  0
   39.4350   26.8100   35.1560 Br  0  0  0  0  0  0  0  0  0  0  0  0
   38.6920   25.4580   34.0080 C   0  0  0  0  0  0  0  0  0  0  0  0
   38.3440   24.2320   34.5150 C   0  0  0  0  0  0  0  0  0  0  0  0
   37.8300   23.3020   33.6470 C   0  0  0  0  0  0  0  0  0  0  0  0
   37.6540   23.5580   32.3000 C   0  0  0  0  0  0  0  0  0  0  0  0
   38.0220   24.8230   31.8190 C   0  0  0  0  0  0  0  0  0  0  0  0
   38.5330   25.7530   32.6810 C   0  0  0  0  0  0  0  0  0  0  0  0
   37.5680   22.3350   34.1070 H   0  0  0  0  0  0  0  0  0  0  0  0
   37.2410   22.7270   31.7480 H   0  0  0  0  0  0  0  0  0  0  0  0
   37.8250   24.8170   30.7730 H   0  0  0  0  0  0  0  0  0  0  0  0
   39.8500   22.9150   37.5670 C   0  0  0  0  0  0  0  0  0  0  0  0
   38.9170   23.2920   38.5880 C   0  0  0  0  0  0  0  0  0  0  0  0
   37.8040   23.9840   38.1910 C   0  0  0  0  0  0  0  0  0  0  0  0
   37.6130   24.2930   36.8630 N   0  0  0  0  0  0  0  0  0  0  0  0
   38.5180   23.9180   35.9380 C   0  0  0  0  0  0  0  0  0  0  0  0
   39.6160   23.2390   36.3040 N   0  0  0  0  0  0  0  0  0  0  0  0
   40.7480   22.3700   37.7980 H   0  0  0  0  0  0  0  0  0  0  0  0
   39.1320   23.0160   39.6090 H   0  0  0  0  0  0  0  0  0  0  0  0
   37.0830   24.2810   38.9370 H   0  0  0  0  0  0  0  0  0  0  0  0
   36.8760   28.1790   32.6290 N   0  0  0  0  0  0  0  0  0  0  0  0
   37.1760   28.9790   33.2320 H   0  0  0  0  0  0  0  0  0  0  0  0
   35.4870   28.2340   32.3630 C   0  0  0  0  0  0  0  0  0  0  0  0
   34.9050   27.8510   33.2330 H   0  0  0  0  0  0  0  0  0  0  0  0
   35.1890   27.5940   31.5010 H   0  0  0  0  0  0  0  0  0  0  0  0
   35.1120   29.6500   32.0730 C   0  0  0  0  0  0  0  0  0  0  0  0
   35.9560   30.3630   32.2480 H   0  0  0  0  0  0  0  0  0  0  0  0
   34.5050   29.8840   31.2220 H   0  0  0  0  0  0  0  0  0  0  0  0
   34.1960   29.9960   33.2100 N   0  0  0  0  0  0  0  0  0  0  0  0
   32.8630   29.7420   33.2670 C   0  0  0  0  0  0  0  0  0  0  0  0
   32.2920   29.2480   32.4780 H   0  0  0  0  0  0  0  0  0  0  0  0
   32.3890   30.1980   34.4400 N   0  0  0  0  0  0  0  0  0  0  0  0
   33.3880   30.7370   35.1350 C   0  0  0  0  0  0  0  0  0  0  0  0
   33.5520   31.3480   36.3520 C   0  0  0  0  0  0  0  0  0  0  0  0
   32.6980   31.4760   37.0030 H   0  0  0  0  0  0  0  0  0  0  0  0
   34.7350   31.8220   36.8260 N   0  0  0  0  0  0  0  0  0  0  0  0
   35.8330   31.6770   36.0330 C   0  0  0  0  0  0  0  0  0  0  0  0
   36.8610   31.9780   36.2090 H   0  0  0  0  0  0  0  0  0  0  0  0
   35.7200   31.0780   34.8160 N   0  0  0  0  0  0  0  0  0  0  0  0
   34.5240   30.6180   34.3800 C   0  0  0  0  0  0  0  0  0  0  0  0
  1  4  1  0  0  0  0
  1 26  1  0  0  0  0
  2  1  1  0  0  0  0
  3  1  1  0  0  0  0
  4 13  1  0  0  0  0
  4  5  1  0  0  0  0
  6  4  1  0  0  0  0
  8  9  1  0  0  0  0
  8  7  1  0  0  0  0
  9 21  1  0  0  0  0
 10 14  1  0  0  0  0
 10  9  2  0  0  0  0
 11 10  1  0  0  0  0
 12 11  2  0  0  0  0
 12 13  1  0  0  0  0
 13  8  2  0  0  0  0
 15 11  1  0  0  0  0
 16 12  1  0  0  0  0
 17 23  1  0  0  0  0
 17 18  1  0  0  0  0
 18 24  1  0  0  0  0
 19 18  2  0  0  0  0
 19 25  1  0  0  0  0
 20 19  1  0  0  0  0
 21 22  1  0  0  0  0
 21 20  2  0  0  0  0
 22 17  2  0  0  0  0
 26 27  1  0  0  0  0
 28 26  1  0  0  0  0
 28 29  1  0  0  0  0
 30 28  1  0  0  0  0
 31 32  1  0  0  0  0
 31 28  1  0  0  0  0
 31 34  1  0  0  0  0
 33 31  1  0  0  0  0
 34 35  1  0  0  0  0
 34 45  1  0  0  0  0
 35 37  2  0  0  0  0
 36 35  1  0  0  0  0
 37 38  1  0  0  0  0
 38 39  1  0  0  0  0
 39 41  2  0  0  0  0
 39 40  1  0  0  0  0
 42 43  1  0  0  0  0
 42 41  1  0  0  0  0
 44 42  2  0  0  0  0
 45 44  1  0  0  0  0
 45 38  2  0  0  0  0
M  END
>  <minimizedAffinity>
-5.49815989

$$$$

 OpenBabel03262520143D

 45 48  0  0  0  0  0  0  0  0999 V2000
   37.1680   27.0080   31.0140 C   0  0  0  0  0  0  0  0  0  0  0  0
   37.7280   26.3580   30.3710 H   0  0  0  0  0  0  0  0  0  0  0  0
   37.9820   27.6360   31.5220 H   0  0  0  0  0  0  0  0  0  0  0  0
   36.5170   26.3120   32.1520 C   0  0  0  0  0  0  0  0  0  0  0  0
   36.3760   25.2360   31.8940 H   0  0  0  0  0  0  0  0  0  0  0  0
   35.4670   26.7000   32.2690 H   0  0  0  0  0  0  0  0  0  0  0  0
   37.9280   23.7010   33.2350 Br  0  0  0  0  0  0  0  0  0  0  0  0
   37.8300   25.4180   34.0960 C   0  0  0  0  0  0  0  0  0  0  0  0
   38.4130   25.6120   35.3230 C   0  0  0  0  0  0  0  0  0  0  0  0
   38.3010   26.8540   35.8950 C   0  0  0  0  0  0  0  0  0  0  0  0
   37.6290   27.8970   35.2850 C   0  0  0  0  0  0  0  0  0  0  0  0
   37.0460   27.6590   34.0320 C   0  0  0  0  0  0  0  0  0  0  0  0
   37.1570   26.4230   33.4580 C   0  0  0  0  0  0  0  0  0  0  0  0
   38.7870   26.9550   36.8790 H   0  0  0  0  0  0  0  0  0  0  0  0
   37.6270   28.8110   35.8600 H   0  0  0  0  0  0  0  0  0  0  0  0
   36.5730   28.5670   33.7420 H   0  0  0  0  0  0  0  0  0  0  0  0
   39.1440   23.0050   37.7680 C   0  0  0  0  0  0  0  0  0  0  0  0
   40.4150   22.4960   37.3430 C   0  0  0  0  0  0  0  0  0  0  0  0
   40.9750   23.0680   36.2320 C   0  0  0  0  0  0  0  0  0  0  0  0
   40.3250   24.0850   35.5690 N   0  0  0  0  0  0  0  0  0  0  0  0
   39.1310   24.5300   36.0070 C   0  0  0  0  0  0  0  0  0  0  0  0
   38.5630   23.9850   37.0930 N   0  0  0  0  0  0  0  0  0  0  0  0
   38.6390   22.6090   38.6320 H   0  0  0  0  0  0  0  0  0  0  0  0
   40.8660   21.6970   37.9110 H   0  0  0  0  0  0  0  0  0  0  0  0
   41.9330   22.7070   35.8870 H   0  0  0  0  0  0  0  0  0  0  0  0
   36.2740   27.9700   30.4810 N   0  0  0  0  0  0  0  0  0  0  0  0
   35.2560   27.7390   30.5400 H   0  0  0  0  0  0  0  0  0  0  0  0
   36.5070   29.3290   30.8050 C   0  0  0  0  0  0  0  0  0  0  0  0
   36.6780   29.9290   29.8830 H   0  0  0  0  0  0  0  0  0  0  0  0
   37.4220   29.4700   31.4260 H   0  0  0  0  0  0  0  0  0  0  0  0
   35.3240   29.8510   31.5520 C   0  0  0  0  0  0  0  0  0  0  0  0
   34.5170   30.2240   30.8740 H   0  0  0  0  0  0  0  0  0  0  0  0
   34.9680   29.3400   32.4240 H   0  0  0  0  0  0  0  0  0  0  0  0
   35.8340   31.1360   32.1350 N   0  0  0  0  0  0  0  0  0  0  0  0
   36.3860   32.1640   31.4380 C   0  0  0  0  0  0  0  0  0  0  0  0
   36.5270   32.1750   30.3560 H   0  0  0  0  0  0  0  0  0  0  0  0
   36.7190   33.1380   32.3050 N   0  0  0  0  0  0  0  0  0  0  0  0
   36.3930   32.7580   33.5370 C   0  0  0  0  0  0  0  0  0  0  0  0
   36.4700   33.2760   34.8050 C   0  0  0  0  0  0  0  0  0  0  0  0
   36.8960   34.2590   34.9530 H   0  0  0  0  0  0  0  0  0  0  0  0
   36.0420   32.6410   35.9280 N   0  0  0  0  0  0  0  0  0  0  0  0
   35.4990   31.4010   35.7800 C   0  0  0  0  0  0  0  0  0  0  0  0
   35.0990   30.7250   36.5290 H   0  0  0  0  0  0  0  0  0  0  0  0
   35.4010   30.8430   34.5420 N   0  0  0  0  0  0  0  0  0  0  0  0
   35.8380   31.5080   33.4470 C   0  0  0  0  0  0  0  0  0  0  0  0
  1  3  1  0  0  0  0
  1  4  1  0  0  0  0
  2  1  1  0  0  0  0
  4  6  1  0  0  0  0
  4 13  1  0  0  0  0
  5  4  1  0  0  0  0
  7  8  1  0  0  0  0
  8  9  1  0  0  0  0
  9 10  2  0  0  0  0
  9 21  1  0  0  0  0
 10 14  1  0  0  0  0
 11 15  1  0  0  0  0
 11 10  1  0  0  0  0
 12 11  2  0  0  0  0
 13 12  1  0  0  0  0
 13  8  2  0  0  0  0
 16 12  1  0  0  0  0
 17 23  1  0  0  0  0
 18 17  1  0  0  0  0
 18 24  1  0  0  0  0
 19 18  2  0  0  0  0
 20 21  2  0  0  0  0
 20 19  1  0  0  0  0
 21 22  1  0  0  0  0
 22 17  2  0  0  0  0
 25 19  1  0  0  0  0
 26 27  1  0  0  0  0
 26 28  1  0  0  0  0
 26  1  1  0  0  0  0
 28 30  1  0  0  0  0
 28 31  1  0  0  0  0
 29 28  1  0  0  0  0
 31 34  1  0  0  0  0
 31 33  1  0  0  0  0
 32 31  1  0  0  0  0
 34 45  1  0  0  0  0
 35 34  1  0  0  0  0
 35 37  2  0  0  0  0
 36 35  1  0  0  0  0
 37 38  1  0  0  0  0
 38 39  1  0  0  0  0
 39 40  1  0  0  0  0
 39 41  2  0  0  0  0
 42 41  1  0  0  0  0
 42 43  1  0  0  0  0
 44 42  2  0  0  0  0
 45 38  2  0  0  0  0
 45 44  1  0  0  0  0
M  END
>  <minimizedAffinity>
-5.4543314

$$$$

 OpenBabel03262520143D

 45 48  0  0  0  0  0  0  0  0999 V2000
   35.8340   27.3070   31.5550 C   0  0  0  0  0  0  0  0  0  0  0  0
   35.0870   28.0670   31.4350 H   0  0  0  0  0  0  0  0  0  0  0  0
   35.5500   26.8190   32.5530 H   0  0  0  0  0  0  0  0  0  0  0  0
   37.1970   27.8370   31.8110 C   0  0  0  0  0  0  0  0  0  0  0  0
   37.1930   28.9440   31.6740 H   0  0  0  0  0  0  0  0  0  0  0  0
   37.8920   27.4690   31.0080 H   0  0  0  0  0  0  0  0  0  0  0  0
   39.9060   26.2180   31.6700 Br  0  0  0  0  0  0  0  0  0  0  0  0
   38.9880   26.8220   33.2480 C   0  0  0  0  0  0  0  0  0  0  0  0
   39.5020   26.5600   34.4930 C   0  0  0  0  0  0  0  0  0  0  0  0
   38.7980   27.0050   35.5830 C   0  0  0  0  0  0  0  0  0  0  0  0
   37.6060   27.6960   35.4690 C   0  0  0  0  0  0  0  0  0  0  0  0
   37.1130   27.9440   34.1800 C   0  0  0  0  0  0  0  0  0  0  0  0
   37.8130   27.5040   33.0910 C   0  0  0  0  0  0  0  0  0  0  0  0
   39.2550   26.7670   36.5570 H   0  0  0  0  0  0  0  0  0  0  0  0
   37.1710   27.9780   36.4160 H   0  0  0  0  0  0  0  0  0  0  0  0
   36.1950   28.4680   34.3030 H   0  0  0  0  0  0  0  0  0  0  0  0
   41.7830   23.7840   35.1270 C   0  0  0  0  0  0  0  0  0  0  0  0
   43.0790   24.3780   34.9860 C   0  0  0  0  0  0  0  0  0  0  0  0
   43.1230   25.7120   34.6780 C   0  0  0  0  0  0  0  0  0  0  0  0
   41.9580   26.4280   34.5160 N   0  0  0  0  0  0  0  0  0  0  0  0
   40.7620   25.8250   34.6590 C   0  0  0  0  0  0  0  0  0  0  0  0
   40.6940   24.5190   34.9600 N   0  0  0  0  0  0  0  0  0  0  0  0
   41.6640   22.7410   35.3680 H   0  0  0  0  0  0  0  0  0  0  0  0
   43.9500   23.7550   35.1260 H   0  0  0  0  0  0  0  0  0  0  0  0
   44.0850   26.1880   34.5650 H   0  0  0  0  0  0  0  0  0  0  0  0
   35.9180   26.2170   30.6510 N   0  0  0  0  0  0  0  0  0  0  0  0
   36.7470   26.2080   30.0140 H   0  0  0  0  0  0  0  0  0  0  0  0
   35.6550   24.9240   31.1630 C   0  0  0  0  0  0  0  0  0  0  0  0
   34.7090   24.5180   30.7360 H   0  0  0  0  0  0  0  0  0  0  0  0
   35.5080   24.9210   32.2670 H   0  0  0  0  0  0  0  0  0  0  0  0
   36.8030   24.0320   30.8200 C   0  0  0  0  0  0  0  0  0  0  0  0
   36.5490   23.2910   30.0210 H   0  0  0  0  0  0  0  0  0  0  0  0
   37.7950   24.4310   30.7540 H   0  0  0  0  0  0  0  0  0  0  0  0
   36.9080   23.1410   32.0230 N   0  0  0  0  0  0  0  0  0  0  0  0
   37.7030   23.3510   33.1040 C   0  0  0  0  0  0  0  0  0  0  0  0
   38.3710   24.2060   33.2260 H   0  0  0  0  0  0  0  0  0  0  0  0
   37.5220   22.3380   33.9710 N   0  0  0  0  0  0  0  0  0  0  0  0
   36.6300   21.4870   33.4710 C   0  0  0  0  0  0  0  0  0  0  0  0
   36.0410   20.3090   33.8500 C   0  0  0  0  0  0  0  0  0  0  0  0
   36.3020   19.8640   34.8000 H   0  0  0  0  0  0  0  0  0  0  0  0
   35.1240   19.6290   33.1100 N   0  0  0  0  0  0  0  0  0  0  0  0
   34.7700   20.1600   31.9070 C   0  0  0  0  0  0  0  0  0  0  0  0
   34.0680   19.7910   31.1660 H   0  0  0  0  0  0  0  0  0  0  0  0
   35.3270   21.3280   31.4870 N   0  0  0  0  0  0  0  0  0  0  0  0
   36.2370   21.9750   32.2530 C   0  0  0  0  0  0  0  0  0  0  0  0
  1  4  1  0  0  0  0
  1  3  1  0  0  0  0
  2  1  1  0  0  0  0
  4 13  1  0  0  0  0
  5  4  1  0  0  0  0
  6  4  1  0  0  0  0
  7  8  1  0  0  0  0
  8  9  1  0  0  0  0
  9 21  1  0  0  0  0
  9 10  2  0  0  0  0
 10 14  1  0  0  0  0
 11 10  1  0  0  0  0
 11 15  1  0  0  0  0
 12 16  1  0  0  0  0
 12 11  2  0  0  0  0
 13  8  2  0  0  0  0
 13 12  1  0  0  0  0
 17 23  1  0  0  0  0
 18 24  1  0  0  0  0
 18 17  1  0  0  0  0
 19 18  2  0  0  0  0
 20 21  2  0  0  0  0
 20 19  1  0  0  0  0
 21 22  1  0  0  0  0
 22 17  2  0  0  0  0
 25 19  1  0  0  0  0
 26 28  1  0  0  0  0
 26  1  1  0  0  0  0
 27 26  1  0  0  0  0
 28 30  1  0  0  0  0
 29 28  1  0  0  0  0
 31 28  1  0  0  0  0
 31 34  1  0  0  0  0
 32 31  1  0  0  0  0
 33 31  1  0  0  0  0
 34 45  1  0  0  0  0
 34 35  1  0  0  0  0
 35 36  1  0  0  0  0
 35 37  2  0  0  0  0
 38 39  1  0  0  0  0
 38 37  1  0  0  0  0
 39 40  1  0  0  0  0
 41 39  2  0  0  0  0
 42 41  1  0  0  0  0
 43 42  1  0  0  0  0
 44 42  2  0  0  0  0
 44 45  1  0  0  0  0
 45 38  2  0  0  0  0
M  END
>  <minimizedAffinity>
-5.40433741

$$$$

 OpenBabel03262520143D

 45 48  0  0  0  0  0  0  0  0999 V2000
   36.1900   28.2260   32.1530 C   0  0  0  0  0  0  0  0  0  0  0  0
   35.8340   27.5940   31.3640 H   0  0  0  0  0  0  0  0  0  0  0  0
   36.4830   29.1880   31.6030 H   0  0  0  0  0  0  0  0  0  0  0  0
   37.4710   27.7750   32.7540 C   0  0  0  0  0  0  0  0  0  0  0  0
   37.6880   28.3890   33.6600 H   0  0  0  0  0  0  0  0  0  0  0  0
   38.3140   28.0230   32.0520 H   0  0  0  0  0  0  0  0  0  0  0  0
   38.5480   27.1040   35.6470 Br  0  0  0  0  0  0  0  0  0  0  0  0
   38.0260   25.8590   34.2780 C   0  0  0  0  0  0  0  0  0  0  0  0
   38.1010   24.5070   34.5040 C   0  0  0  0  0  0  0  0  0  0  0  0
   37.7260   23.6670   33.4870 C   0  0  0  0  0  0  0  0  0  0  0  0
   37.2840   24.1300   32.2620 C   0  0  0  0  0  0  0  0  0  0  0  0
   37.2220   25.5180   32.0680 C   0  0  0  0  0  0  0  0  0  0  0  0
   37.5930   26.3590   33.0810 C   0  0  0  0  0  0  0  0  0  0  0  0
   37.8060   22.5930   33.7220 H   0  0  0  0  0  0  0  0  0  0  0  0
   37.0280   23.3460   31.5650 H   0  0  0  0  0  0  0  0  0  0  0  0
   36.8760   25.6690   31.0740 H   0  0  0  0  0  0  0  0  0  0  0  0
   38.0650   23.5420   38.0220 C   0  0  0  0  0  0  0  0  0  0  0  0
   39.3720   22.9910   38.2300 C   0  0  0  0  0  0  0  0  0  0  0  0
   40.2190   22.9710   37.1530 C   0  0  0  0  0  0  0  0  0  0  0  0
   39.8080   23.4650   35.9350 N   0  0  0  0  0  0  0  0  0  0  0  0
   38.5690   23.9740   35.7890 C   0  0  0  0  0  0  0  0  0  0  0  0
   37.7220   24.0030   36.8290 N   0  0  0  0  0  0  0  0  0  0  0  0
   37.3430   23.5940   38.8180 H   0  0  0  0  0  0  0  0  0  0  0  0
   39.6250   22.6220   39.2120 H   0  0  0  0  0  0  0  0  0  0  0  0
   41.2100   22.5630   37.2790 H   0  0  0  0  0  0  0  0  0  0  0  0
   35.3210   28.6680   33.1830 N   0  0  0  0  0  0  0  0  0  0  0  0
   34.6470   27.9620   33.5550 H   0  0  0  0  0  0  0  0  0  0  0  0
   35.8880   29.4330   34.2310 C   0  0  0  0  0  0  0  0  0  0  0  0
   37.0000   29.3680   34.2070 H   0  0  0  0  0  0  0  0  0  0  0  0
   35.5900   29.0660   35.2390 H   0  0  0  0  0  0  0  0  0  0  0  0
   35.4480   30.8520   34.0780 C   0  0  0  0  0  0  0  0  0  0  0  0
   36.2560   31.5830   34.3320 H   0  0  0  0  0  0  0  0  0  0  0  0
   34.8350   31.1400   33.2480 H   0  0  0  0  0  0  0  0  0  0  0  0
   34.5100   31.0400   35.2340 N   0  0  0  0  0  0  0  0  0  0  0  0
   34.7810   31.7200   36.3790 C   0  0  0  0  0  0  0  0  0  0  0  0
   35.7280   32.2170   36.5960 H   0  0  0  0  0  0  0  0  0  0  0  0
   33.6970   31.6690   37.1740 N   0  0  0  0  0  0  0  0  0  0  0  0
   32.7400   30.9730   36.5640 C   0  0  0  0  0  0  0  0  0  0  0  0
   31.4550   30.5790   36.8350 C   0  0  0  0  0  0  0  0  0  0  0  0
   30.9980   30.8580   37.7750 H   0  0  0  0  0  0  0  0  0  0  0  0
   30.6780   29.8430   35.9960 N   0  0  0  0  0  0  0  0  0  0  0  0
   31.2200   29.4730   34.8020 C   0  0  0  0  0  0  0  0  0  0  0  0
   30.7860   28.8930   33.9940 H   0  0  0  0  0  0  0  0  0  0  0  0
   32.4920   29.8400   34.4880 N   0  0  0  0  0  0  0  0  0  0  0  0
   33.2330   30.5740   35.3510 C   0  0  0  0  0  0  0  0  0  0  0  0
  1  4  1  0  0  0  0
  1 26  1  0  0  0  0
  2  1  1  0  0  0  0
  3  1  1  0  0  0  0
  4 13  1  0  0  0  0
  4  5  1  0  0  0  0
  6  4  1  0  0  0  0
  8  9  1  0  0  0  0
  8  7  1  0  0  0  0
  9 21  1  0  0  0  0
 10 14  1  0  0  0  0
 10  9  2  0  0  0  0
 11 10  1  0  0  0  0
 12 11  2  0  0  0  0
 12 13  1  0  0  0  0
 13  8  2  0  0  0  0
 15 11  1  0  0  0  0
 16 12  1  0  0  0  0
 17 18  1  0  0  0  0
 17 23  1  0  0  0  0
 18 24  1  0  0  0  0
 19 25  1  0  0  0  0
 19 18  2  0  0  0  0
 20 19  1  0  0  0  0
 21 20  2  0  0  0  0
 21 22  1  0  0  0  0
 22 17  2  0  0  0  0
 26 27  1  0  0  0  0
 26 28  1  0  0  0  0
 28 30  1  0  0  0  0
 29 28  1  0  0  0  0
 31 28  1  0  0  0  0
 31 32  1  0  0  0  0
 31 34  1  0  0  0  0
 33 31  1  0  0  0  0
 34 45  1  0  0  0  0
 34 35  1  0  0  0  0
 35 36  1  0  0  0  0
 35 37  2  0  0  0  0
 38 39  1  0  0  0  0
 38 37  1  0  0  0  0
 39 40  1  0  0  0  0
 41 39  2  0  0  0  0
 42 41  1  0  0  0  0
 43 42  1  0  0  0  0
 44 42  2  0  0  0  0
 44 45  1  0  0  0  0
 45 38  2  0  0  0  0
M  END
>  <minimizedAffinity>
-5.32394552

$$$$

 OpenBabel03262520143D

 45 48  0  0  0  0  0  0  0  0999 V2000
   35.3220   25.2410   31.1490 C   0  0  0  0  0  0  0  0  0  0  0  0
   34.8470   25.2550   32.1110 H   0  0  0  0  0  0  0  0  0  0  0  0
   34.5640   24.6850   30.4930 H   0  0  0  0  0  0  0  0  0  0  0  0
   36.5260   24.3750   31.0850 C   0  0  0  0  0  0  0  0  0  0  0  0
   37.4400   25.0160   31.0720 H   0  0  0  0  0  0  0  0  0  0  0  0
   36.5510   23.8520   30.0900 H   0  0  0  0  0  0  0  0  0  0  0  0
   38.5570   25.0030   33.4220 Br  0  0  0  0  0  0  0  0  0  0  0  0
   37.4770   23.4270   33.2060 C   0  0  0  0  0  0  0  0  0  0  0  0
   37.5390   22.4120   34.1280 C   0  0  0  0  0  0  0  0  0  0  0  0
   36.7550   21.3070   33.9160 C   0  0  0  0  0  0  0  0  0  0  0  0
   35.9200   21.1840   32.8200 C   0  0  0  0  0  0  0  0  0  0  0  0
   35.8860   22.2410   31.9000 C   0  0  0  0  0  0  0  0  0  0  0  0
   36.6640   23.3460   32.1090 C   0  0  0  0  0  0  0  0  0  0  0  0
   36.8430   20.5230   34.6860 H   0  0  0  0  0  0  0  0  0  0  0  0
   35.3690   20.2560   32.7930 H   0  0  0  0  0  0  0  0  0  0  0  0
   35.2050   21.9540   31.1350 H   0  0  0  0  0  0  0  0  0  0  0  0
   40.5390   22.1280   36.1840 C   0  0  0  0  0  0  0  0  0  0  0  0
   40.1200   22.6340   37.4580 C   0  0  0  0  0  0  0  0  0  0  0  0
   38.8200   23.0540   37.5640 C   0  0  0  0  0  0  0  0  0  0  0  0
   37.9740   22.9840   36.4800 N   0  0  0  0  0  0  0  0  0  0  0  0
   38.4150   22.5000   35.3020 C   0  0  0  0  0  0  0  0  0  0  0  0
   39.6840   22.0830   35.1740 N   0  0  0  0  0  0  0  0  0  0  0  0
   41.5440   21.7780   36.0200 H   0  0  0  0  0  0  0  0  0  0  0  0
   40.8370   22.6600   38.2640 H   0  0  0  0  0  0  0  0  0  0  0  0
   38.4740   23.4400   38.5110 H   0  0  0  0  0  0  0  0  0  0  0  0
   35.5720   26.4440   30.4420 N   0  0  0  0  0  0  0  0  0  0  0  0
   34.7520   27.0740   30.2960 H   0  0  0  0  0  0  0  0  0  0  0  0
   36.7260   27.1830   30.8000 C   0  0  0  0  0  0  0  0  0  0  0  0
   36.9640   27.9410   30.0190 H   0  0  0  0  0  0  0  0  0  0  0  0
   37.6360   26.5450   30.8830 H   0  0  0  0  0  0  0  0  0  0  0  0
   36.4760   27.8510   32.1120 C   0  0  0  0  0  0  0  0  0  0  0  0
   35.6510   27.3660   32.6920 H   0  0  0  0  0  0  0  0  0  0  0  0
   37.2980   28.1890   32.7100 H   0  0  0  0  0  0  0  0  0  0  0  0
   35.8310   29.1460   31.7130 N   0  0  0  0  0  0  0  0  0  0  0  0
   36.3880   30.1070   30.9310 C   0  0  0  0  0  0  0  0  0  0  0  0
   37.3870   30.0500   30.4950 H   0  0  0  0  0  0  0  0  0  0  0  0
   35.5060   31.1150   30.7990 N   0  0  0  0  0  0  0  0  0  0  0  0
   34.3990   30.8200   31.4760 C   0  0  0  0  0  0  0  0  0  0  0  0
   33.1860   31.4080   31.7260 C   0  0  0  0  0  0  0  0  0  0  0  0
   32.9670   32.3780   31.3020 H   0  0  0  0  0  0  0  0  0  0  0  0
   32.2010   30.8570   32.4850 N   0  0  0  0  0  0  0  0  0  0  0  0
   32.4420   29.6340   33.0350 C   0  0  0  0  0  0  0  0  0  0  0  0
   31.8060   29.0200   33.6650 H   0  0  0  0  0  0  0  0  0  0  0  0
   33.6310   29.0100   32.8160 N   0  0  0  0  0  0  0  0  0  0  0  0
   34.5870   29.5920   32.0530 C   0  0  0  0  0  0  0  0  0  0  0  0
  1  2  1  0  0  0  0
  3  1  1  0  0  0  0
  4  1  1  0  0  0  0
  4 13  1  0  0  0  0
  5  4  1  0  0  0  0
  6  4  1  0  0  0  0
  8  7  1  0  0  0  0
  8  9  1  0  0  0  0
  9 21  1  0  0  0  0
 10  9  2  0  0  0  0
 10 14  1  0  0  0  0
 11 10  1  0  0  0  0
 12 13  1  0  0  0  0
 12 11  2  0  0  0  0
 13  8  2  0  0  0  0
 15 11  1  0  0  0  0
 16 12  1  0  0  0  0
 17 18  1  0  0  0  0
 18 19  2  0  0  0  0
 18 24  1  0  0  0  0
 19 25  1  0  0  0  0
 20 19  1  0  0  0  0
 21 20  2  0  0  0  0
 22 21  1  0  0  0  0
 22 17  2  0  0  0  0
 23 17  1  0  0  0  0
 26 28  1  0  0  0  0
 26  1  1  0  0  0  0
 27 26  1  0  0  0  0
 28 30  1  0  0  0  0
 28 31  1  0  0  0  0
 29 28  1  0  0  0  0
 31 32  1  0  0  0  0
 31 33  1  0  0  0  0
 34 45  1  0  0  0  0
 34 31  1  0  0  0  0
 35 34  1  0  0  0  0
 36 35  1  0  0  0  0
 37 35  2  0  0  0  0
 37 38  1  0  0  0  0
 38 39  2  0  0  0  0
 38 45  1  0  0  0  0
 39 41  1  0  0  0  0
 40 39  1  0  0  0  0
 41 42  2  0  0  0  0
 42 43  1  0  0  0  0
 44 42  1  0  0  0  0
 45 44  2  0  0  0  0
M  END
>  <minimizedAffinity>
-5.30762005

$$$$

 OpenBabel03262520143D

 45 48  0  0  0  0  0  0  0  0999 V2000
   35.7940   27.1820   31.4330 C   0  0  0  0  0  0  0  0  0  0  0  0
   35.5740   27.9520   32.1450 H   0  0  0  0  0  0  0  0  0  0  0  0
   34.7610   26.7410   31.1990 H   0  0  0  0  0  0  0  0  0  0  0  0
   36.5340   26.0290   32.0030 C   0  0  0  0  0  0  0  0  0  0  0  0
   37.3020   25.6860   31.2690 H   0  0  0  0  0  0  0  0  0  0  0  0
   35.8370   25.1510   32.0920 H   0  0  0  0  0  0  0  0  0  0  0  0
   37.9720   23.4980   33.2310 Br  0  0  0  0  0  0  0  0  0  0  0  0
   37.8330   25.2520   34.0060 C   0  0  0  0  0  0  0  0  0  0  0  0
   38.3940   25.5160   35.2300 C   0  0  0  0  0  0  0  0  0  0  0  0
   38.2530   26.7810   35.7400 C   0  0  0  0  0  0  0  0  0  0  0  0
   37.5730   27.7820   35.0710 C   0  0  0  0  0  0  0  0  0  0  0  0
   37.0130   27.4740   33.8220 C   0  0  0  0  0  0  0  0  0  0  0  0
   37.1540   26.2130   33.3110 C   0  0  0  0  0  0  0  0  0  0  0  0
   38.7220   26.9380   36.7250 H   0  0  0  0  0  0  0  0  0  0  0  0
   37.5470   28.7230   35.6010 H   0  0  0  0  0  0  0  0  0  0  0  0
   36.5290   28.3580   33.4810 H   0  0  0  0  0  0  0  0  0  0  0  0
   39.1220   23.0280   37.7980 C   0  0  0  0  0  0  0  0  0  0  0  0
   40.4160   22.5350   37.4280 C   0  0  0  0  0  0  0  0  0  0  0  0
   40.9930   23.0760   36.3090 C   0  0  0  0  0  0  0  0  0  0  0  0
   40.3360   24.0490   35.5880 N   0  0  0  0  0  0  0  0  0  0  0  0
   39.1200   24.4800   35.9760 C   0  0  0  0  0  0  0  0  0  0  0  0
   38.5350   23.9650   37.0680 N   0  0  0  0  0  0  0  0  0  0  0  0
   38.6030   22.6530   38.6630 H   0  0  0  0  0  0  0  0  0  0  0  0
   40.8710   21.7710   38.0390 H   0  0  0  0  0  0  0  0  0  0  0  0
   41.9670   22.7260   36.0050 H   0  0  0  0  0  0  0  0  0  0  0  0
   36.3290   27.4970   30.1580 N   0  0  0  0  0  0  0  0  0  0  0  0
   35.7360   27.2540   29.3340 H   0  0  0  0  0  0  0  0  0  0  0  0
   36.9240   28.7730   29.9990 C   0  0  0  0  0  0  0  0  0  0  0  0
   37.6170   28.9910   30.8430 H   0  0  0  0  0  0  0  0  0  0  0  0
   36.1770   29.5990   30.0050 H   0  0  0  0  0  0  0  0  0  0  0  0
   37.6650   28.7940   28.7020 C   0  0  0  0  0  0  0  0  0  0  0  0
   37.5490   27.8440   28.1240 H   0  0  0  0  0  0  0  0  0  0  0  0
   37.6740   29.6800   28.1000 H   0  0  0  0  0  0  0  0  0  0  0  0
   39.1000   28.7000   29.1330 N   0  0  0  0  0  0  0  0  0  0  0  0
   40.0050   29.7130   29.1210 C   0  0  0  0  0  0  0  0  0  0  0  0
   39.7910   30.7320   28.7910 H   0  0  0  0  0  0  0  0  0  0  0  0
   41.1800   29.2430   29.5780 N   0  0  0  0  0  0  0  0  0  0  0  0
   41.0470   27.9550   29.8820 C   0  0  0  0  0  0  0  0  0  0  0  0
   41.8410   26.9490   30.3720 C   0  0  0  0  0  0  0  0  0  0  0  0
   42.8750   27.1560   30.6110 H   0  0  0  0  0  0  0  0  0  0  0  0
   41.4260   25.6730   30.5920 N   0  0  0  0  0  0  0  0  0  0  0  0
   40.1280   25.3770   30.3030 C   0  0  0  0  0  0  0  0  0  0  0  0
   39.5940   24.4370   30.3990 H   0  0  0  0  0  0  0  0  0  0  0  0
   39.3010   26.3410   29.8140 N   0  0  0  0  0  0  0  0  0  0  0  0
   39.7530   27.6000   29.6090 C   0  0  0  0  0  0  0  0  0  0  0  0
  1  4  1  0  0  0  0
  1  2  1  0  0  0  0
  3  1  1  0  0  0  0
  4  6  1  0  0  0  0
  4 13  1  0  0  0  0
  5  4  1  0  0  0  0
  7  8  1  0  0  0  0
  8  9  1  0  0  0  0
  9 10  2  0  0  0  0
  9 21  1  0  0  0  0
 10 14  1  0  0  0  0
 11 15  1  0  0  0  0
 11 10  1  0  0  0  0
 12 11  2  0  0  0  0
 13 12  1  0  0  0  0
 13  8  2  0  0  0  0
 16 12  1  0  0  0  0
 17 23  1  0  0  0  0
 18 17  1  0  0  0  0
 18 24  1  0  0  0  0
 19 18  2  0  0  0  0
 20 21  2  0  0  0  0
 20 19  1  0  0  0  0
 21 22  1  0  0  0  0
 22 17  2  0  0  0  0
 25 19  1  0  0  0  0
 26  1  1  0  0  0  0
 27 26  1  0  0  0  0
 28 30  1  0  0  0  0
 28 26  1  0  0  0  0
 28 29  1  0  0  0  0
 31 34  1  0  0  0  0
 31 28  1  0  0  0  0
 32 31  1  0  0  0  0
 33 31  1  0  0  0  0
 34 45  1  0  0  0  0
 35 34  1  0  0  0  0
 35 37  2  0  0  0  0
 36 35  1  0  0  0  0
 37 38  1  0  0  0  0
 38 39  1  0  0  0  0
 39 41  2  0  0  0  0
 39 40  1  0  0  0  0
 42 43  1  0  0  0  0
 42 41  1  0  0  0  0
 44 42  2  0  0  0  0
 45 44  1  0  0  0  0
 45 38  2  0  0  0  0
M  END
>  <minimizedAffinity>
-5.22059155

$$$$

 OpenBabel03262520143D

 45 48  0  0  0  0  0  0  0  0999 V2000
   38.4940   25.7570   30.2690 C   0  0  0  0  0  0  0  0  0  0  0  0
   38.8270   26.0570   29.2950 H   0  0  0  0  0  0  0  0  0  0  0  0
   38.4210   26.7500   30.8360 H   0  0  0  0  0  0  0  0  0  0  0  0
   39.5060   24.9960   31.0440 C   0  0  0  0  0  0  0  0  0  0  0  0
   40.4600   24.9590   30.4660 H   0  0  0  0  0  0  0  0  0  0  0  0
   39.1880   23.9190   31.1080 H   0  0  0  0  0  0  0  0  0  0  0  0
   38.4260   23.1310   33.3530 Br  0  0  0  0  0  0  0  0  0  0  0  0
   39.4060   24.7740   33.5430 C   0  0  0  0  0  0  0  0  0  0  0  0
   39.7100   25.2610   34.7890 C   0  0  0  0  0  0  0  0  0  0  0  0
   40.4000   26.4440   34.8630 C   0  0  0  0  0  0  0  0  0  0  0  0
   40.7920   27.1500   33.7400 C   0  0  0  0  0  0  0  0  0  0  0  0
   40.4620   26.6200   32.4840 C   0  0  0  0  0  0  0  0  0  0  0  0
   39.7750   25.4400   32.4070 C   0  0  0  0  0  0  0  0  0  0  0  0
   40.6180   26.7890   35.8870 H   0  0  0  0  0  0  0  0  0  0  0  0
   41.3260   28.0620   33.9620 H   0  0  0  0  0  0  0  0  0  0  0  0
   40.8330   27.3060   31.7600 H   0  0  0  0  0  0  0  0  0  0  0  0
   39.7990   22.8420   37.5190 C   0  0  0  0  0  0  0  0  0  0  0  0
   38.6260   23.1560   38.2810 C   0  0  0  0  0  0  0  0  0  0  0  0
   37.8460   24.1870   37.8280 C   0  0  0  0  0  0  0  0  0  0  0  0
   38.1960   24.8770   36.6890 N   0  0  0  0  0  0  0  0  0  0  0  0
   39.3090   24.5450   36.0060 C   0  0  0  0  0  0  0  0  0  0  0  0
   40.0890   23.5390   36.4300 N   0  0  0  0  0  0  0  0  0  0  0  0
   40.4620   22.0460   37.8090 H   0  0  0  0  0  0  0  0  0  0  0  0
   38.4140   22.5730   39.1640 H   0  0  0  0  0  0  0  0  0  0  0  0
   36.9560   24.4470   38.3800 H   0  0  0  0  0  0  0  0  0  0  0  0
   37.2200   25.1610   30.4530 N   0  0  0  0  0  0  0  0  0  0  0  0
   37.2160   24.1550   30.7360 H   0  0  0  0  0  0  0  0  0  0  0  0
   36.2540   25.8990   31.1790 C   0  0  0  0  0  0  0  0  0  0  0  0
   36.2940   25.6380   32.2620 H   0  0  0  0  0  0  0  0  0  0  0  0
   35.2110   25.6740   30.8580 H   0  0  0  0  0  0  0  0  0  0  0  0
   36.5220   27.3550   30.9870 C   0  0  0  0  0  0  0  0  0  0  0  0
   37.6040   27.5740   30.8070 H   0  0  0  0  0  0  0  0  0  0  0  0
   35.8470   27.9560   30.4110 H   0  0  0  0  0  0  0  0  0  0  0  0
   36.3350   27.9170   32.3660 N   0  0  0  0  0  0  0  0  0  0  0  0
   36.8970   27.4370   33.5060 C   0  0  0  0  0  0  0  0  0  0  0  0
   37.5600   26.5710   33.5530 H   0  0  0  0  0  0  0  0  0  0  0  0
   36.4960   28.2030   34.5360 N   0  0  0  0  0  0  0  0  0  0  0  0
   35.6920   29.1610   34.0820 C   0  0  0  0  0  0  0  0  0  0  0  0
   34.9860   30.2140   34.6050 C   0  0  0  0  0  0  0  0  0  0  0  0
   35.0250   30.4060   35.6690 H   0  0  0  0  0  0  0  0  0  0  0  0
   34.2140   31.0660   33.8780 N   0  0  0  0  0  0  0  0  0  0  0  0
   34.1410   30.8540   32.5340 C   0  0  0  0  0  0  0  0  0  0  0  0
   33.5930   31.4030   31.7750 H   0  0  0  0  0  0  0  0  0  0  0  0
   34.8240   29.8220   31.9680 N   0  0  0  0  0  0  0  0  0  0  0  0
   35.5820   28.9960   32.7270 C   0  0  0  0  0  0  0  0  0  0  0  0
  1 26  1  0  0  0  0
  1  3  1  0  0  0  0
  1  4  1  0  0  0  0
  2  1  1  0  0  0  0
  4  6  1  0  0  0  0
  4 13  1  0  0  0  0
  5  4  1  0  0  0  0
  7  8  1  0  0  0  0
  8  9  1  0  0  0  0
  9 10  2  0  0  0  0
  9 21  1  0  0  0  0
 10 14  1  0  0  0  0
 11 15  1  0  0  0  0
 11 10  1  0  0  0  0
 12 11  2  0  0  0  0
 13 12  1  0  0  0  0
 13  8  2  0  0  0  0
 16 12  1  0  0  0  0
 17 23  1  0  0  0  0
 17 18  1  0  0  0  0
 18 24  1  0  0  0  0
 19 18  2  0  0  0  0
 19 25  1  0  0  0  0
 20 19  1  0  0  0  0
 21 22  1  0  0  0  0
 21 20  2  0  0  0  0
 22 17  2  0  0  0  0
 26 27  1  0  0  0  0
 26 28  1  0  0  0  0
 28 29  1  0  0  0  0
 30 28  1  0  0  0  0
 31 28  1  0  0  0  0
 31 34  1  0  0  0  0
 32 31  1  0  0  0  0
 33 31  1  0  0  0  0
 34 45  1  0  0  0  0
 34 35  1  0  0  0  0
 35 36  1  0  0  0  0
 35 37  2  0  0  0  0
 38 37  1  0  0  0  0
 38 39  1  0  0  0  0
 39 40  1  0  0  0  0
 41 39  2  0  0  0  0
 42 41  1  0  0  0  0
 43 42  1  0  0  0  0
 44 42  2  0  0  0  0
 44 45  1  0  0  0  0
 45 38  2  0  0  0  0
M  END
>  <minimizedAffinity>
-5.18709469

$$$$
