
 OpenBabel03272508083D

 27 29  0  0  0  0  0  0  0  0999 V2000
   39.0270   32.8610   48.1680 O   0  0  0  0  0  0  0  0  0  0  0  0
   38.6820   31.8040   47.1640 P   0  0  2  0  0  0  0  0  0  0  0  0
   37.5950   32.4430   46.0140 O   0  0  0  0  0  0  0  0  0  0  0  0
   37.6130   33.4210   46.0710 H   0  0  0  0  0  0  0  0  0  0  0  0
   38.1060   30.3720   47.8190 O   0  0  0  0  0  0  0  0  0  0  0  0
   37.3110   30.2230   51.4310 C   0  0  0  0  0  0  0  0  0  0  0  0
   38.0480   30.5610   50.2910 C   0  0  0  0  0  0  0  0  0  0  0  0
   37.5670   30.1600   49.0540 C   0  0  0  0  0  0  0  0  0  0  0  0
   36.3920   29.4500   49.0060 N   0  0  0  0  0  0  0  0  0  0  0  0
   35.7160   29.1470   50.1360 C   0  0  0  0  0  0  0  0  0  0  0  0
   36.1740   29.5310   51.3390 N   0  0  0  0  0  0  0  0  0  0  0  0
   37.7110   30.5480   52.3690 H   0  0  0  0  0  0  0  0  0  0  0  0
   38.9640   31.1070   50.2570 H   0  0  0  0  0  0  0  0  0  0  0  0
   34.7800   28.5780   50.0570 H   0  0  0  0  0  0  0  0  0  0  0  0
   40.1040   31.4640   46.2940 O   0  0  0  0  0  0  0  0  0  0  0  0
   41.2460   32.2240   43.8620 H   0  0  0  0  0  0  0  0  0  0  0  0
   40.5860   31.4170   43.8680 N   0  0  0  0  0  0  0  0  0  0  0  0
   39.9760   30.9670   44.9930 C   0  0  0  0  0  0  0  0  0  0  0  0
   39.2260   29.9350   44.5560 N   0  0  0  0  0  0  0  0  0  0  0  0
   39.3530   29.7450   43.2470 C   0  0  0  0  0  0  0  0  0  0  0  0
   38.8620   28.8910   42.2790 C   0  0  0  0  0  0  0  0  0  0  0  0
   38.1700   28.1230   42.5830 H   0  0  0  0  0  0  0  0  0  0  0  0
   39.2190   28.9890   40.9910 N   0  0  0  0  0  0  0  0  0  0  0  0
   40.0930   29.9590   40.6130 C   0  0  0  0  0  0  0  0  0  0  0  0
   40.3930   30.0480   39.5580 H   0  0  0  0  0  0  0  0  0  0  0  0
   40.6010   30.8180   41.5170 N   0  0  0  0  0  0  0  0  0  0  0  0
   40.2310   30.7020   42.8030 C   0  0  0  0  0  0  0  0  0  0  0  0
  2  5  1  0  0  0  0
  2  1  2  1  0  0  0
  3  4  1  0  0  0  0
  3  2  1  0  0  0  0
  5  8  1  0  0  0  0
  6 12  1  0  0  0  0
  7  6  2  0  0  0  0
  8  7  1  0  0  0  0
  9  8  2  0  0  0  0
  9 10  1  0  0  0  0
 10 11  2  0  0  0  0
 11  6  1  0  0  0  0
 13  7  1  0  0  0  0
 14 10  1  0  0  0  0
 15  2  1  0  0  0  0
 16 17  1  0  0  0  0
 17 18  1  0  0  0  0
 18 15  1  0  0  0  0
 19 18  2  0  0  0  0
 20 19  1  0  0  0  0
 21 22  1  0  0  0  0
 21 20  2  0  0  0  0
 23 21  1  0  0  0  0
 24 23  2  0  0  0  0
 24 26  1  0  0  0  0
 25 24  1  0  0  0  0
 26 27  2  0  0  0  0
 27 20  1  0  0  0  0
 27 17  1  0  0  0  0
M  END
>  <minimizedAffinity>
-5.58852673

>  <minimizedRMSD>
1.70606458

$$$$
