
 OpenBabel03272507473D

 49 54  0  0  0  0  0  0  0  0999 V2000
   33.4040   28.9470   46.8000 N   0  0  0  0  0  0  0  0  0  0  0  0
   33.8290   28.4730   48.0710 C   0  0  0  0  0  0  0  0  0  0  0  0
   34.9470   29.2010   48.7150 C   0  0  0  0  0  0  0  0  0  0  0  0
   36.0200   29.6670   47.8370 C   0  0  0  0  0  0  0  0  0  0  0  0
   35.5000   30.0930   46.4530 C   0  0  0  0  0  0  0  0  0  0  0  0
   34.5660   28.9790   45.9560 C   0  0  0  0  0  0  0  0  0  0  0  0
   32.9460   28.4590   48.7720 H   0  0  0  0  0  0  0  0  0  0  0  0
   34.1370   27.4130   47.9460 H   0  0  0  0  0  0  0  0  0  0  0  0
   34.4190   30.1360   49.1000 H   0  0  0  0  0  0  0  0  0  0  0  0
   35.2920   28.6480   49.5980 H   0  0  0  0  0  0  0  0  0  0  0  0
   36.7740   28.8710   47.6020 H   0  0  0  0  0  0  0  0  0  0  0  0
   34.9560   31.0360   46.4760 H   0  0  0  0  0  0  0  0  0  0  0  0
   36.3650   30.0930   45.7510 H   0  0  0  0  0  0  0  0  0  0  0  0
   34.2300   29.2010   44.9350 H   0  0  0  0  0  0  0  0  0  0  0  0
   35.1120   28.0170   45.9100 H   0  0  0  0  0  0  0  0  0  0  0  0
   32.0860   29.3260   46.3910 C   0  0  0  0  0  0  0  0  0  0  0  0
   31.7650   30.3820   45.5440 C   0  0  0  0  0  0  0  0  0  0  0  0
   30.4180   30.5870   45.2660 C   0  0  0  0  0  0  0  0  0  0  0  0
   29.4940   29.7570   45.8280 N   0  0  0  0  0  0  0  0  0  0  0  0
   29.8360   28.7470   46.6410 C   0  0  0  0  0  0  0  0  0  0  0  0
   31.1240   28.5360   46.9190 N   0  0  0  0  0  0  0  0  0  0  0  0
   32.6070   30.9370   45.1890 H   0  0  0  0  0  0  0  0  0  0  0  0
   30.2120   31.4100   44.6100 H   0  0  0  0  0  0  0  0  0  0  0  0
   28.8170   27.9190   47.1930 N   0  0  0  0  0  0  0  0  0  0  0  0
   28.1310   26.8390   46.7770 C   0  0  0  0  0  0  0  0  0  0  0  0
   28.4230   26.5170   45.7720 H   0  0  0  0  0  0  0  0  0  0  0  0
   27.2660   26.4580   47.7350 N   0  0  0  0  0  0  0  0  0  0  0  0
   27.4110   27.3080   48.7650 C   0  0  0  0  0  0  0  0  0  0  0  0
   26.7240   27.2920   49.9620 C   0  0  0  0  0  0  0  0  0  0  0  0
   25.9680   26.5490   50.1760 H   0  0  0  0  0  0  0  0  0  0  0  0
   27.0280   28.2550   50.8800 N   0  0  0  0  0  0  0  0  0  0  0  0
   27.9750   29.1540   50.5610 C   0  0  0  0  0  0  0  0  0  0  0  0
   28.3100   29.9730   51.2040 H   0  0  0  0  0  0  0  0  0  0  0  0
   28.6660   29.1950   49.3940 N   0  0  0  0  0  0  0  0  0  0  0  0
   28.3930   28.2490   48.4480 C   0  0  0  0  0  0  0  0  0  0  0  0
   36.4440   31.3190   49.6020 C   0  0  0  0  0  0  0  0  0  0  0  0
   36.7720   30.8410   48.3440 C   0  0  0  0  0  0  0  0  0  0  0  0
   37.7270   31.4030   47.5380 C   0  0  0  0  0  0  0  0  0  0  0  0
   38.4000   32.5230   48.0240 C   0  0  0  0  0  0  0  0  0  0  0  0
   38.0810   33.0020   49.2680 C   0  0  0  0  0  0  0  0  0  0  0  0
   37.1100   32.4300   50.0870 C   0  0  0  0  0  0  0  0  0  0  0  0
   38.8640   34.1240   49.5690 O   0  0  0  0  0  0  0  0  0  0  0  0
   39.8970   34.1180   48.5950 C   0  0  0  0  0  0  0  0  0  0  0  0
   39.4070   33.3520   47.5230 O   0  0  0  0  0  0  0  0  0  0  0  0
   35.7260   30.9580   50.3240 H   0  0  0  0  0  0  0  0  0  0  0  0
   37.9500   31.0080   46.5810 H   0  0  0  0  0  0  0  0  0  0  0  0
   36.9070   32.8720   51.0780 H   0  0  0  0  0  0  0  0  0  0  0  0
   40.0450   35.1940   48.3010 H   0  0  0  0  0  0  0  0  0  0  0  0
   40.8600   33.7380   48.9880 H   0  0  0  0  0  0  0  0  0  0  0  0
  1  2  1  0  0  0  0
  2  3  1  0  0  0  0
  2  7  1  0  0  0  0
  3  9  1  0  0  0  0
  3 10  1  0  0  0  0
  4 37  1  0  0  0  0
  4  3  1  0  0  0  0
  5 12  1  0  0  0  0
  5  4  1  0  0  0  0
  6  5  1  0  0  0  0
  6  1  1  0  0  0  0
  8  2  1  0  0  0  0
 11  4  1  0  0  0  0
 13  5  1  0  0  0  0
 14  6  1  0  0  0  0
 15  6  1  0  0  0  0
 16  1  1  0  0  0  0
 16 21  1  0  0  0  0
 17 16  2  0  0  0  0
 18 17  1  0  0  0  0
 18 19  2  0  0  0  0
 19 20  1  0  0  0  0
 20 21  2  0  0  0  0
 20 24  1  0  0  0  0
 22 17  1  0  0  0  0
 23 18  1  0  0  0  0
 24 35  1  0  0  0  0
 25 24  1  0  0  0  0
 25 27  2  0  0  0  0
 26 25  1  0  0  0  0
 27 28  1  0  0  0  0
 28 29  1  0  0  0  0
 29 30  1  0  0  0  0
 29 31  2  0  0  0  0
 32 31  1  0  0  0  0
 32 33  1  0  0  0  0
 34 32  2  0  0  0  0
 35 28  2  0  0  0  0
 35 34  1  0  0  0  0
 36 41  1  0  0  0  0
 36 45  1  0  0  0  0
 37 36  2  0  0  0  0
 38 39  2  0  0  0  0
 38 37  1  0  0  0  0
 39 40  1  0  0  0  0
 40 42  1  0  0  0  0
 40 41  2  0  0  0  0
 41 47  1  0  0  0  0
 43 49  1  0  0  0  0
 43 42  1  0  0  0  0
 44 39  1  0  0  0  0
 44 43  1  0  0  0  0
 46 38  1  0  0  0  0
 48 43  1  0  0  0  0
M  END
>  <minimizedAffinity>
-7.32284689

>  <minimizedRMSD>
1.4490602

$$$$
