
 OpenBabel03272501153D

 38 42  0  0  1  0  0  0  0  0999 V2000
   35.0250   29.1270   50.6010 C   0  0  0  0  0  0  0  0  0  0  0  0
   34.6680   29.7690   51.4060 H   0  0  0  0  0  0  0  0  0  0  0  0
   35.1620   28.1090   51.0690 H   0  0  0  0  0  0  0  0  0  0  0  0
   34.0310   28.8990   49.5130 C   0  0  0  0  0  0  0  0  0  0  0  0
   34.2170   29.3840   48.2300 C   0  0  0  0  0  0  0  0  0  0  0  0
   33.1910   29.0550   47.4330 N   0  0  0  0  0  0  0  0  0  0  0  0
   32.3440   28.3500   48.2320 C   0  0  0  0  0  0  0  0  0  0  0  0
   32.8580   28.2640   49.4740 N   0  0  0  0  0  0  0  0  0  0  0  0
   35.0680   29.9660   47.8570 H   0  0  0  0  0  0  0  0  0  0  0  0
   33.0530   29.2810   46.4200 H   0  0  0  0  0  0  0  0  0  0  0  0
   31.1040   27.7910   47.8080 N   0  0  0  0  0  0  0  0  0  0  0  0
   30.7750   27.4030   46.5770 C   0  0  0  0  0  0  0  0  0  0  0  0
   31.4630   27.4820   45.7360 H   0  0  0  0  0  0  0  0  0  0  0  0
   29.5000   26.9210   46.5710 N   0  0  0  0  0  0  0  0  0  0  0  0
   29.0240   27.0120   47.8330 C   0  0  0  0  0  0  0  0  0  0  0  0
   27.7890   26.6580   48.3520 C   0  0  0  0  0  0  0  0  0  0  0  0
   27.0220   26.2350   47.7300 H   0  0  0  0  0  0  0  0  0  0  0  0
   27.5540   26.8540   49.6820 N   0  0  0  0  0  0  0  0  0  0  0  0
   28.5500   27.3910   50.4310 C   0  0  0  0  0  0  0  0  0  0  0  0
   28.5040   27.6020   51.4980 H   0  0  0  0  0  0  0  0  0  0  0  0
   29.7610   27.7340   49.9040 N   0  0  0  0  0  0  0  0  0  0  0  0
   30.0320   27.5550   48.5870 C   0  0  0  0  0  0  0  0  0  0  0  0
   36.8030   30.8770   50.1770 C   0  0  1  0  0  0  0  0  0  0  0  0
   36.3700   29.5200   50.0800 C   0  0  1  0  0  0  0  0  0  0  0  0
   37.5360   29.7920   50.9910 C   0  0  0  0  0  0  0  0  0  0  0  0
   36.2620   31.6220   50.8180 H   0  0  0  0  0  0  0  0  0  0  0  0
   36.6680   28.9440   49.1740 H   0  0  0  0  0  0  0  0  0  0  0  0
   37.3390   29.8020   52.0600 H   0  0  0  0  0  0  0  0  0  0  0  0
   38.5580   29.5040   50.6860 H   0  0  0  0  0  0  0  0  0  0  0  0
   37.7150   31.5020   49.1350 C   0  0  0  0  0  0  0  0  0  0  0  0
   38.2000   32.7600   49.4450 C   0  0  0  0  0  0  0  0  0  0  0  0
   39.0220   33.3330   48.4540 C   0  0  0  0  0  0  0  0  0  0  0  0
   39.2870   32.6530   47.2980 N   0  0  0  0  0  0  0  0  0  0  0  0
   38.7800   31.4090   47.0440 C   0  0  0  0  0  0  0  0  0  0  0  0
   37.9760   30.8270   47.9910 N   0  0  0  0  0  0  0  0  0  0  0  0
   37.9770   33.2640   50.3520 H   0  0  0  0  0  0  0  0  0  0  0  0
   39.4520   34.3140   48.5980 H   0  0  0  0  0  0  0  0  0  0  0  0
   38.9870   30.8790   46.1420 H   0  0  0  0  0  0  0  0  0  0  0  0
  1  3  1  0  0  0  0
  1  2  1  0  0  0  0
  4  1  1  0  0  0  0
  5  4  2  0  0  0  0
  6  5  1  0  0  0  0
  6  7  1  0  0  0  0
  7  8  2  0  0  0  0
  8  4  1  0  0  0  0
  9  5  1  0  0  0  0
 10  6  1  0  0  0  0
 11  7  1  0  0  0  0
 11 22  1  0  0  0  0
 12 11  1  0  0  0  0
 13 12  1  0  0  0  0
 14 12  2  0  0  0  0
 14 15  1  0  0  0  0
 15 16  2  0  0  0  0
 15 22  1  0  0  0  0
 16 18  1  0  0  0  0
 17 16  1  0  0  0  0
 18 19  2  0  0  0  0
 19 20  1  0  0  0  0
 21 19  1  0  0  0  0
 22 21  2  0  0  0  0
 23 26  1  1  0  0  0
 23 25  1  0  0  0  0
 24 27  1  6  0  0  0
 24 23  1  0  0  0  0
 24  1  1  0  0  0  0
 24 25  1  0  0  0  0
 25 28  1  0  0  0  0
 29 25  1  0  0  0  0
 30 31  1  0  0  0  0
 30 23  1  0  0  0  0
 31 36  1  0  0  0  0
 32 37  1  0  0  0  0
 32 31  2  0  0  0  0
 33 32  1  0  0  0  0
 34 33  2  0  0  0  0
 34 35  1  0  0  0  0
 35 30  2  0  0  0  0
 38 34  1  0  0  0  0
M  END
>  <minimizedAffinity>
-6.8964386

>  <minimizedRMSD>
1.11660171

$$$$
