
 OpenBabel03272507473D

 49 54  0  0  0  0  0  0  0  0999 V2000
   33.0010   28.8840   46.7240 N   0  0  0  0  0  0  0  0  0  0  0  0
   33.4140   28.3560   47.9780 C   0  0  0  0  0  0  0  0  0  0  0  0
   34.5620   29.0200   48.6370 C   0  0  0  0  0  0  0  0  0  0  0  0
   35.6480   29.4710   47.7680 C   0  0  0  0  0  0  0  0  0  0  0  0
   35.1380   29.9590   46.4000 C   0  0  0  0  0  0  0  0  0  0  0  0
   34.1590   28.8980   45.8750 C   0  0  0  0  0  0  0  0  0  0  0  0
   32.5340   28.3540   48.6830 H   0  0  0  0  0  0  0  0  0  0  0  0
   33.6800   27.2890   47.8190 H   0  0  0  0  0  0  0  0  0  0  0  0
   34.0720   29.9620   49.0540 H   0  0  0  0  0  0  0  0  0  0  0  0
   34.8890   28.4270   49.5010 H   0  0  0  0  0  0  0  0  0  0  0  0
   36.3690   28.6540   47.5040 H   0  0  0  0  0  0  0  0  0  0  0  0
   34.6310   30.9210   46.4560 H   0  0  0  0  0  0  0  0  0  0  0  0
   35.9990   29.9470   45.6940 H   0  0  0  0  0  0  0  0  0  0  0  0
   33.8270   29.1640   44.8630 H   0  0  0  0  0  0  0  0  0  0  0  0
   34.6670   27.9180   45.7960 H   0  0  0  0  0  0  0  0  0  0  0  0
   31.6970   29.3270   46.3350 C   0  0  0  0  0  0  0  0  0  0  0  0
   31.4150   30.3260   45.4090 C   0  0  0  0  0  0  0  0  0  0  0  0
   30.0750   30.6090   45.1670 C   0  0  0  0  0  0  0  0  0  0  0  0
   29.1200   29.9050   45.8380 N   0  0  0  0  0  0  0  0  0  0  0  0
   29.4250   28.9460   46.7240 C   0  0  0  0  0  0  0  0  0  0  0  0
   30.7050   28.6620   46.9700 N   0  0  0  0  0  0  0  0  0  0  0  0
   32.2780   30.7820   44.9720 H   0  0  0  0  0  0  0  0  0  0  0  0
   29.9000   31.3850   44.4470 H   0  0  0  0  0  0  0  0  0  0  0  0
   28.3750   28.2500   47.3890 N   0  0  0  0  0  0  0  0  0  0  0  0
   27.1660   27.7750   47.0360 C   0  0  0  0  0  0  0  0  0  0  0  0
   26.9300   27.9690   45.9860 H   0  0  0  0  0  0  0  0  0  0  0  0
   26.5860   27.1870   48.0980 N   0  0  0  0  0  0  0  0  0  0  0  0
   27.4380   27.2930   49.1300 C   0  0  0  0  0  0  0  0  0  0  0  0
   27.2530   26.8290   50.4170 C   0  0  0  0  0  0  0  0  0  0  0  0
   26.3500   26.3110   50.7110 H   0  0  0  0  0  0  0  0  0  0  0  0
   28.2540   27.0440   51.3200 N   0  0  0  0  0  0  0  0  0  0  0  0
   29.3530   27.6930   50.8980 C   0  0  0  0  0  0  0  0  0  0  0  0
   30.2240   27.9290   51.5170 H   0  0  0  0  0  0  0  0  0  0  0  0
   29.5640   28.1610   49.6420 N   0  0  0  0  0  0  0  0  0  0  0  0
   28.5880   27.9660   48.7090 C   0  0  0  0  0  0  0  0  0  0  0  0
   36.1690   31.0260   49.5940 C   0  0  0  0  0  0  0  0  0  0  0  0
   36.4470   30.5990   48.3060 C   0  0  0  0  0  0  0  0  0  0  0  0
   37.3940   31.1720   47.4980 C   0  0  0  0  0  0  0  0  0  0  0  0
   38.1130   32.2490   48.0160 C   0  0  0  0  0  0  0  0  0  0  0  0
   37.8430   32.6780   49.2900 C   0  0  0  0  0  0  0  0  0  0  0  0
   36.8800   32.0940   50.1100 C   0  0  0  0  0  0  0  0  0  0  0  0
   38.6660   33.7630   49.6190 O   0  0  0  0  0  0  0  0  0  0  0  0
   39.6700   33.7750   48.6150 C   0  0  0  0  0  0  0  0  0  0  0  0
   39.1280   33.0740   47.5240 O   0  0  0  0  0  0  0  0  0  0  0  0
   35.4630   30.6500   50.3200 H   0  0  0  0  0  0  0  0  0  0  0  0
   37.5780   30.8170   46.5180 H   0  0  0  0  0  0  0  0  0  0  0  0
   36.7190   32.4930   51.1260 H   0  0  0  0  0  0  0  0  0  0  0  0
   39.8390   34.8590   48.3670 H   0  0  0  0  0  0  0  0  0  0  0  0
   40.6320   33.3520   48.9600 H   0  0  0  0  0  0  0  0  0  0  0  0
  1  2  1  0  0  0  0
  2  3  1  0  0  0  0
  2  7  1  0  0  0  0
  3  9  1  0  0  0  0
  3 10  1  0  0  0  0
  4 37  1  0  0  0  0
  4  3  1  0  0  0  0
  5 12  1  0  0  0  0
  5  4  1  0  0  0  0
  6  5  1  0  0  0  0
  6  1  1  0  0  0  0
  8  2  1  0  0  0  0
 11  4  1  0  0  0  0
 13  5  1  0  0  0  0
 14  6  1  0  0  0  0
 15  6  1  0  0  0  0
 16  1  1  0  0  0  0
 16 21  1  0  0  0  0
 17 16  2  0  0  0  0
 18 17  1  0  0  0  0
 18 19  2  0  0  0  0
 19 20  1  0  0  0  0
 20 21  2  0  0  0  0
 20 24  1  0  0  0  0
 22 17  1  0  0  0  0
 23 18  1  0  0  0  0
 24 35  1  0  0  0  0
 25 24  1  0  0  0  0
 25 27  2  0  0  0  0
 26 25  1  0  0  0  0
 27 28  1  0  0  0  0
 28 29  1  0  0  0  0
 29 30  1  0  0  0  0
 29 31  2  0  0  0  0
 32 31  1  0  0  0  0
 32 33  1  0  0  0  0
 34 32  2  0  0  0  0
 35 28  2  0  0  0  0
 35 34  1  0  0  0  0
 36 41  1  0  0  0  0
 36 45  1  0  0  0  0
 37 36  2  0  0  0  0
 38 39  2  0  0  0  0
 38 37  1  0  0  0  0
 39 40  1  0  0  0  0
 40 42  1  0  0  0  0
 40 41  2  0  0  0  0
 41 47  1  0  0  0  0
 43 49  1  0  0  0  0
 43 42  1  0  0  0  0
 44 39  1  0  0  0  0
 44 43  1  0  0  0  0
 46 38  1  0  0  0  0
 48 43  1  0  0  0  0
M  END
>  <minimizedAffinity>
-7.65678263

>  <minimizedRMSD>
1.24919689

$$$$
