
 OpenBabel03272505283D

 34 37  0  0  0  0  0  0  0  0999 V2000
   37.0030   25.3140   32.2050 N   0  0  0  0  0  0  0  0  0  0  0  0
   37.8800   24.9980   33.1960 C   0  0  0  0  0  0  0  0  0  0  0  0
   38.0510   23.6970   33.6460 C   0  0  0  0  0  0  0  0  0  0  0  0
   37.2770   22.7020   33.0340 C   0  0  0  0  0  0  0  0  0  0  0  0
   37.3920   21.5110   33.4020 O   0  0  0  0  0  0  0  0  0  0  0  0
   36.3940   23.0170   32.0370 N   0  0  0  0  0  0  0  0  0  0  0  0
   36.3190   24.3070   31.6910 C   0  0  0  0  0  0  0  0  0  0  0  0
   35.5020   24.5600   30.7790 O   0  0  0  0  0  0  0  0  0  0  0  0
   38.4620   25.8110   33.6410 H   0  0  0  0  0  0  0  0  0  0  0  0
   38.9690   23.3690   34.6840 N   0  0  0  0  0  0  0  0  0  0  0  0
   40.2370   22.9560   34.5140 C   0  0  0  0  0  0  0  0  0  0  0  0
   40.7350   22.8140   33.5610 H   0  0  0  0  0  0  0  0  0  0  0  0
   40.8280   22.7330   35.6760 N   0  0  0  0  0  0  0  0  0  0  0  0
   39.9580   22.9950   36.6670 C   0  0  0  0  0  0  0  0  0  0  0  0
   40.0330   22.9370   38.0410 C   0  0  0  0  0  0  0  0  0  0  0  0
   40.9630   22.6190   38.4990 H   0  0  0  0  0  0  0  0  0  0  0  0
   38.9330   23.2820   38.7270 N   0  0  0  0  0  0  0  0  0  0  0  0
   37.7840   23.6740   38.1320 C   0  0  0  0  0  0  0  0  0  0  0  0
   36.9080   23.9480   38.7400 H   0  0  0  0  0  0  0  0  0  0  0  0
   37.7200   23.7290   36.7690 N   0  0  0  0  0  0  0  0  0  0  0  0
   38.7920   23.3950   36.0180 C   0  0  0  0  0  0  0  0  0  0  0  0
   37.4720   28.4860   30.3350 C   0  0  0  0  0  0  0  0  0  0  0  0
   37.6330   27.1680   30.7820 C   0  0  0  0  0  0  0  0  0  0  0  0
   36.8450   26.6330   31.7660 C   0  0  0  0  0  0  0  0  0  0  0  0
   35.8870   27.4280   32.3080 N   0  0  0  0  0  0  0  0  0  0  0  0
   35.7060   28.7130   31.8970 C   0  0  0  0  0  0  0  0  0  0  0  0
   36.4910   29.2410   30.9170 N   0  0  0  0  0  0  0  0  0  0  0  0
   38.0430   28.9710   29.5770 H   0  0  0  0  0  0  0  0  0  0  0  0
   38.4410   26.7080   30.2460 H   0  0  0  0  0  0  0  0  0  0  0  0
   34.9180   29.2410   32.4000 H   0  0  0  0  0  0  0  0  0  0  0  0
   35.5950   21.9900   31.4040 C   0  0  0  0  0  0  0  0  0  0  0  0
   36.4090   21.0390   30.8650 F   0  0  0  0  0  0  0  0  0  0  0  0
   34.8120   22.4770   30.3710 F   0  0  0  0  0  0  0  0  0  0  0  0
   34.8040   21.3790   32.3680 F   0  0  0  0  0  0  0  0  0  0  0  0
  1  2  1  0  0  0  0
  2  9  1  0  0  0  0
  2  3  2  0  0  0  0
  3 10  1  0  0  0  0
  4  5  2  0  0  0  0
  4  3  1  0  0  0  0
  6  4  1  0  0  0  0
  7  6  1  0  0  0  0
  7  1  1  0  0  0  0
  8  7  2  0  0  0  0
 10 21  1  0  0  0  0
 11 10  1  0  0  0  0
 11 13  2  0  0  0  0
 12 11  1  0  0  0  0
 13 14  1  0  0  0  0
 14 15  1  0  0  0  0
 15 16  1  0  0  0  0
 15 17  2  0  0  0  0
 18 17  1  0  0  0  0
 18 19  1  0  0  0  0
 20 18  2  0  0  0  0
 21 14  2  0  0  0  0
 21 20  1  0  0  0  0
 22 23  2  0  0  0  0
 22 27  1  0  0  0  0
 23 24  1  0  0  0  0
 24  1  1  0  0  0  0
 24 25  2  0  0  0  0
 26 25  1  0  0  0  0
 26 30  1  0  0  0  0
 27 26  2  0  0  0  0
 28 22  1  0  0  0  0
 29 23  1  0  0  0  0
 31  6  1  0  0  0  0
 31 34  1  0  0  0  0
 32 31  1  0  0  0  0
 33 31  1  0  0  0  0
M  END
>  <minimizedAffinity>
-6.06875086

$$$$

 OpenBabel03272505283D

 34 37  0  0  0  0  0  0  0  0999 V2000
   38.0650   23.5760   34.4500 N   0  0  0  0  0  0  0  0  0  0  0  0
   38.2740   24.7350   33.7690 C   0  0  0  0  0  0  0  0  0  0  0  0
   37.8070   24.9270   32.4760 C   0  0  0  0  0  0  0  0  0  0  0  0
   37.1020   23.8710   31.8870 C   0  0  0  0  0  0  0  0  0  0  0  0
   36.6590   23.9920   30.7220 O   0  0  0  0  0  0  0  0  0  0  0  0
   36.8900   22.7040   32.5700 N   0  0  0  0  0  0  0  0  0  0  0  0
   37.3890   22.6380   33.8100 C   0  0  0  0  0  0  0  0  0  0  0  0
   37.1800   21.5590   34.4050 O   0  0  0  0  0  0  0  0  0  0  0  0
   38.8300   25.5310   34.2740 H   0  0  0  0  0  0  0  0  0  0  0  0
   38.0280   26.1420   31.7650 N   0  0  0  0  0  0  0  0  0  0  0  0
   39.1090   26.4330   31.0200 C   0  0  0  0  0  0  0  0  0  0  0  0
   39.9630   25.7840   30.8600 H   0  0  0  0  0  0  0  0  0  0  0  0
   39.0120   27.6410   30.4880 N   0  0  0  0  0  0  0  0  0  0  0  0
   37.8480   28.1950   30.8700 C   0  0  0  0  0  0  0  0  0  0  0  0
   37.2420   29.4060   30.6200 C   0  0  0  0  0  0  0  0  0  0  0  0
   37.7530   30.1240   29.9870 H   0  0  0  0  0  0  0  0  0  0  0  0
   36.0440   29.6170   31.1860 N   0  0  0  0  0  0  0  0  0  0  0  0
   35.4280   28.7070   31.9720 C   0  0  0  0  0  0  0  0  0  0  0  0
   34.4440   28.9280   32.4140 H   0  0  0  0  0  0  0  0  0  0  0  0
   36.0360   27.5080   32.2130 N   0  0  0  0  0  0  0  0  0  0  0  0
   37.2440   27.2320   31.6740 C   0  0  0  0  0  0  0  0  0  0  0  0
   38.3070   23.6370   38.1540 C   0  0  0  0  0  0  0  0  0  0  0  0
   37.8330   23.8180   36.8480 C   0  0  0  0  0  0  0  0  0  0  0  0
   38.5440   23.4010   35.7530 C   0  0  0  0  0  0  0  0  0  0  0  0
   39.7410   22.7990   35.9700 N   0  0  0  0  0  0  0  0  0  0  0  0
   40.2300   22.6110   37.2270 C   0  0  0  0  0  0  0  0  0  0  0  0
   39.5200   23.0250   38.3130 N   0  0  0  0  0  0  0  0  0  0  0  0
   37.8150   23.9320   39.0520 H   0  0  0  0  0  0  0  0  0  0  0  0
   36.8840   24.3180   36.8800 H   0  0  0  0  0  0  0  0  0  0  0  0
   41.1860   22.1240   37.2710 H   0  0  0  0  0  0  0  0  0  0  0  0
   36.1610   21.6120   31.9620 C   0  0  0  0  0  0  0  0  0  0  0  0
   35.5690   22.0380   30.8100 F   0  0  0  0  0  0  0  0  0  0  0  0
   35.1500   21.1220   32.7720 F   0  0  0  0  0  0  0  0  0  0  0  0
   37.0560   20.6010   31.6350 F   0  0  0  0  0  0  0  0  0  0  0  0
  1 24  1  0  0  0  0
  2  9  1  0  0  0  0
  2  1  1  0  0  0  0
  3  2  2  0  0  0  0
  4  3  1  0  0  0  0
  4  6  1  0  0  0  0
  5  4  2  0  0  0  0
  6  7  1  0  0  0  0
  7  8  2  0  0  0  0
  7  1  1  0  0  0  0
 10  3  1  0  0  0  0
 11 10  1  0  0  0  0
 12 11  1  0  0  0  0
 13 14  1  0  0  0  0
 13 11  2  0  0  0  0
 14 21  1  0  0  0  0
 15 14  2  0  0  0  0
 15 17  1  0  0  0  0
 16 15  1  0  0  0  0
 17 18  2  0  0  0  0
 18 20  1  0  0  0  0
 18 19  1  0  0  0  0
 21 10  1  0  0  0  0
 21 20  2  0  0  0  0
 22 27  1  0  0  0  0
 22 28  1  0  0  0  0
 23 29  1  0  0  0  0
 23 22  2  0  0  0  0
 24 25  2  0  0  0  0
 24 23  1  0  0  0  0
 25 26  1  0  0  0  0
 26 30  1  0  0  0  0
 26 27  2  0  0  0  0
 31  6  1  0  0  0  0
 31 33  1  0  0  0  0
 32 31  1  0  0  0  0
 34 31  1  0  0  0  0
M  END
>  <minimizedAffinity>
-6.01338053

$$$$

 OpenBabel03272505283D

 34 37  0  0  0  0  0  0  0  0999 V2000
   37.4650   24.9930   32.4500 N   0  0  0  0  0  0  0  0  0  0  0  0
   38.0720   24.7050   33.6330 C   0  0  0  0  0  0  0  0  0  0  0  0
   37.9940   23.4480   34.2160 C   0  0  0  0  0  0  0  0  0  0  0  0
   37.2580   22.4710   33.5350 C   0  0  0  0  0  0  0  0  0  0  0  0
   37.1560   21.3200   34.0170 O   0  0  0  0  0  0  0  0  0  0  0  0
   36.6470   22.7590   32.3450 N   0  0  0  0  0  0  0  0  0  0  0  0
   36.7930   24.0060   31.8840 C   0  0  0  0  0  0  0  0  0  0  0  0
   36.2210   24.2360   30.7970 O   0  0  0  0  0  0  0  0  0  0  0  0
   38.6360   25.5020   34.1250 H   0  0  0  0  0  0  0  0  0  0  0  0
   38.6300   23.1480   35.4550 N   0  0  0  0  0  0  0  0  0  0  0  0
   38.1380   23.4120   36.6780 C   0  0  0  0  0  0  0  0  0  0  0  0
   37.1880   23.8920   36.8890 H   0  0  0  0  0  0  0  0  0  0  0  0
   38.9690   23.0090   37.6250 N   0  0  0  0  0  0  0  0  0  0  0  0
   40.0530   22.4590   37.0520 C   0  0  0  0  0  0  0  0  0  0  0  0
   41.2050   21.8890   37.5450 C   0  0  0  0  0  0  0  0  0  0  0  0
   41.3430   21.8360   38.6190 H   0  0  0  0  0  0  0  0  0  0  0  0
   42.0920   21.4310   36.6480 N   0  0  0  0  0  0  0  0  0  0  0  0
   41.8980   21.5090   35.3120 C   0  0  0  0  0  0  0  0  0  0  0  0
   42.6570   21.1190   34.6160 H   0  0  0  0  0  0  0  0  0  0  0  0
   40.7520   22.0760   34.8330 N   0  0  0  0  0  0  0  0  0  0  0  0
   39.8180   22.5570   35.6830 C   0  0  0  0  0  0  0  0  0  0  0  0
   36.8170   28.5690   31.6890 C   0  0  0  0  0  0  0  0  0  0  0  0
   36.7230   27.2900   32.2540 C   0  0  0  0  0  0  0  0  0  0  0  0
   37.5540   26.2670   31.8780 C   0  0  0  0  0  0  0  0  0  0  0  0
   38.4860   26.5300   30.9270 N   0  0  0  0  0  0  0  0  0  0  0  0
   38.6010   27.7610   30.3570 C   0  0  0  0  0  0  0  0  0  0  0  0
   37.7730   28.7760   30.7340 N   0  0  0  0  0  0  0  0  0  0  0  0
   36.2090   29.4110   31.9280 H   0  0  0  0  0  0  0  0  0  0  0  0
   35.9270   27.2760   32.9730 H   0  0  0  0  0  0  0  0  0  0  0  0
   39.3740   27.8460   29.6170 H   0  0  0  0  0  0  0  0  0  0  0  0
   35.8860   21.7500   31.6400 C   0  0  0  0  0  0  0  0  0  0  0  0
   35.1490   22.3340   30.6520 F   0  0  0  0  0  0  0  0  0  0  0  0
   34.9930   21.0790   32.4580 F   0  0  0  0  0  0  0  0  0  0  0  0
   36.7670   20.8570   31.0450 F   0  0  0  0  0  0  0  0  0  0  0  0
  1  2  1  0  0  0  0
  2  9  1  0  0  0  0
  2  3  2  0  0  0  0
  3 10  1  0  0  0  0
  4  5  2  0  0  0  0
  4  3  1  0  0  0  0
  6  4  1  0  0  0  0
  7  6  1  0  0  0  0
  7  1  1  0  0  0  0
  8  7  2  0  0  0  0
 10 21  1  0  0  0  0
 10 11  1  0  0  0  0
 11 12  1  0  0  0  0
 11 13  2  0  0  0  0
 14 15  1  0  0  0  0
 14 13  1  0  0  0  0
 15 16  1  0  0  0  0
 17 15  2  0  0  0  0
 18 17  1  0  0  0  0
 19 18  1  0  0  0  0
 20 18  2  0  0  0  0
 20 21  1  0  0  0  0
 21 14  2  0  0  0  0
 22 28  1  0  0  0  0
 22 23  1  0  0  0  0
 23 29  1  0  0  0  0
 24 23  2  0  0  0  0
 24  1  1  0  0  0  0
 25 24  1  0  0  0  0
 26 27  1  0  0  0  0
 26 25  2  0  0  0  0
 27 22  2  0  0  0  0
 30 26  1  0  0  0  0
 31  6  1  0  0  0  0
 31 33  1  0  0  0  0
 32 31  1  0  0  0  0
 34 31  1  0  0  0  0
M  END
>  <minimizedAffinity>
-5.89056301

$$$$

 OpenBabel03272505283D

 34 37  0  0  0  0  0  0  0  0999 V2000
   38.0820   23.5630   34.2600 N   0  0  0  0  0  0  0  0  0  0  0  0
   38.1160   24.8100   33.7170 C   0  0  0  0  0  0  0  0  0  0  0  0
   37.4510   25.1220   32.5400 C   0  0  0  0  0  0  0  0  0  0  0  0
   36.7310   24.0920   31.9200 C   0  0  0  0  0  0  0  0  0  0  0  0
   36.1120   24.3200   30.8560 O   0  0  0  0  0  0  0  0  0  0  0  0
   36.6950   22.8380   32.4650 N   0  0  0  0  0  0  0  0  0  0  0  0
   37.3770   22.6600   33.6020 C   0  0  0  0  0  0  0  0  0  0  0  0
   37.3250   21.5030   34.0720 O   0  0  0  0  0  0  0  0  0  0  0  0
   38.6920   25.5790   34.2400 H   0  0  0  0  0  0  0  0  0  0  0  0
   37.4890   26.4280   31.9720 N   0  0  0  0  0  0  0  0  0  0  0  0
   36.7980   27.4960   32.4060 C   0  0  0  0  0  0  0  0  0  0  0  0
   36.1150   27.5100   33.2490 H   0  0  0  0  0  0  0  0  0  0  0  0
   37.0510   28.5630   31.6660 N   0  0  0  0  0  0  0  0  0  0  0  0
   37.9300   28.2300   30.7040 C   0  0  0  0  0  0  0  0  0  0  0  0
   38.5300   28.9270   29.6810 C   0  0  0  0  0  0  0  0  0  0  0  0
   38.2940   29.9780   29.5560 H   0  0  0  0  0  0  0  0  0  0  0  0
   39.3800   28.2470   28.8960 N   0  0  0  0  0  0  0  0  0  0  0  0
   39.6580   26.9360   29.0700 C   0  0  0  0  0  0  0  0  0  0  0  0
   40.3630   26.4210   28.3990 H   0  0  0  0  0  0  0  0  0  0  0  0
   39.0580   26.2530   30.0900 N   0  0  0  0  0  0  0  0  0  0  0  0
   38.1920   26.8790   30.9170 C   0  0  0  0  0  0  0  0  0  0  0  0
   40.7010   22.4320   36.6360 C   0  0  0  0  0  0  0  0  0  0  0  0
   40.0170   22.7200   35.4480 C   0  0  0  0  0  0  0  0  0  0  0  0
   38.7610   23.2680   35.4480 C   0  0  0  0  0  0  0  0  0  0  0  0
   38.1860   23.5270   36.6510 N   0  0  0  0  0  0  0  0  0  0  0  0
   38.8250   23.2570   37.8230 C   0  0  0  0  0  0  0  0  0  0  0  0
   40.0740   22.7130   37.8180 N   0  0  0  0  0  0  0  0  0  0  0  0
   41.6760   22.0080   36.7170 H   0  0  0  0  0  0  0  0  0  0  0  0
   40.6240   22.4370   34.6100 H   0  0  0  0  0  0  0  0  0  0  0  0
   38.2690   23.5050   38.7070 H   0  0  0  0  0  0  0  0  0  0  0  0
   35.9510   21.7740   31.8260 C   0  0  0  0  0  0  0  0  0  0  0  0
   35.2590   22.2710   30.7610 F   0  0  0  0  0  0  0  0  0  0  0  0
   35.0200   21.1870   32.6660 F   0  0  0  0  0  0  0  0  0  0  0  0
   36.8450   20.8240   31.3490 F   0  0  0  0  0  0  0  0  0  0  0  0
  1 24  1  0  0  0  0
  2  9  1  0  0  0  0
  2  1  1  0  0  0  0
  3  2  2  0  0  0  0
  4  6  1  0  0  0  0
  4  3  1  0  0  0  0
  5  4  2  0  0  0  0
  6  7  1  0  0  0  0
  7  8  2  0  0  0  0
  7  1  1  0  0  0  0
 10 11  1  0  0  0  0
 10  3  1  0  0  0  0
 11 12  1  0  0  0  0
 13 11  2  0  0  0  0
 14 21  1  0  0  0  0
 14 13  1  0  0  0  0
 15 14  2  0  0  0  0
 16 15  1  0  0  0  0
 17 18  2  0  0  0  0
 17 15  1  0  0  0  0
 18 20  1  0  0  0  0
 19 18  1  0  0  0  0
 20 21  2  0  0  0  0
 21 10  1  0  0  0  0
 22 28  1  0  0  0  0
 22 27  1  0  0  0  0
 23 22  2  0  0  0  0
 24 23  1  0  0  0  0
 24 25  2  0  0  0  0
 25 26  1  0  0  0  0
 26 30  1  0  0  0  0
 27 26  2  0  0  0  0
 29 23  1  0  0  0  0
 31  6  1  0  0  0  0
 31 33  1  0  0  0  0
 32 31  1  0  0  0  0
 34 31  1  0  0  0  0
M  END
>  <minimizedAffinity>
-5.88350058

$$$$

 OpenBabel03272505283D

 34 37  0  0  0  0  0  0  0  0999 V2000
   36.9980   26.5280   32.7170 N   0  0  0  0  0  0  0  0  0  0  0  0
   37.0210   25.3680   32.0060 C   0  0  0  0  0  0  0  0  0  0  0  0
   37.4380   24.1680   32.5630 C   0  0  0  0  0  0  0  0  0  0  0  0
   37.8400   24.1900   33.9040 C   0  0  0  0  0  0  0  0  0  0  0  0
   38.2250   23.1340   34.4560 O   0  0  0  0  0  0  0  0  0  0  0  0
   37.8170   25.3550   34.6210 N   0  0  0  0  0  0  0  0  0  0  0  0
   37.3960   26.4480   33.9740 C   0  0  0  0  0  0  0  0  0  0  0  0
   37.3890   27.4940   34.6580 O   0  0  0  0  0  0  0  0  0  0  0  0
   36.6960   25.4030   30.9620 H   0  0  0  0  0  0  0  0  0  0  0  0
   37.4620   22.9550   31.8160 N   0  0  0  0  0  0  0  0  0  0  0  0
   38.3870   22.6090   30.9040 C   0  0  0  0  0  0  0  0  0  0  0  0
   39.2420   23.2080   30.6090 H   0  0  0  0  0  0  0  0  0  0  0  0
   38.1290   21.4190   30.3870 N   0  0  0  0  0  0  0  0  0  0  0  0
   37.0080   20.9320   30.9480 C   0  0  0  0  0  0  0  0  0  0  0  0
   36.2950   19.7650   30.7920 C   0  0  0  0  0  0  0  0  0  0  0  0
   36.6480   19.0280   30.0800 H   0  0  0  0  0  0  0  0  0  0  0  0
   35.1930   19.6180   31.5440 N   0  0  0  0  0  0  0  0  0  0  0  0
   34.7710   20.5520   32.4260 C   0  0  0  0  0  0  0  0  0  0  0  0
   33.8590   20.3850   33.0200 H   0  0  0  0  0  0  0  0  0  0  0  0
   35.4860   21.7070   32.5740 N   0  0  0  0  0  0  0  0  0  0  0  0
   36.6050   21.9170   31.8460 C   0  0  0  0  0  0  0  0  0  0  0  0
   36.9140   29.5970   30.6300 C   0  0  0  0  0  0  0  0  0  0  0  0
   37.3390   28.3980   31.2180 C   0  0  0  0  0  0  0  0  0  0  0  0
   36.5750   27.7290   32.1370 C   0  0  0  0  0  0  0  0  0  0  0  0
   35.3740   28.2670   32.4690 N   0  0  0  0  0  0  0  0  0  0  0  0
   34.9330   29.4310   31.9170 C   0  0  0  0  0  0  0  0  0  0  0  0
   35.6960   30.0930   31.0020 N   0  0  0  0  0  0  0  0  0  0  0  0
   37.4500   30.1720   29.9100 H   0  0  0  0  0  0  0  0  0  0  0  0
   38.3100   28.1410   30.8400 H   0  0  0  0  0  0  0  0  0  0  0  0
   33.9690   29.7570   32.2590 H   0  0  0  0  0  0  0  0  0  0  0  0
   38.2320   25.3790   36.0080 C   0  0  0  0  0  0  0  0  0  0  0  0
   37.4000   24.5960   36.7520 F   0  0  0  0  0  0  0  0  0  0  0  0
   38.1860   26.6480   36.5620 F   0  0  0  0  0  0  0  0  0  0  0  0
   39.5130   24.8530   36.1030 F   0  0  0  0  0  0  0  0  0  0  0  0
  1  7  1  0  0  0  0
  2  3  2  0  0  0  0
  2  1  1  0  0  0  0
  3  4  1  0  0  0  0
  4  5  2  0  0  0  0
  4  6  1  0  0  0  0
  6 31  1  0  0  0  0
  7  6  1  0  0  0  0
  7  8  2  0  0  0  0
  9  2  1  0  0  0  0
 10 21  1  0  0  0  0
 10  3  1  0  0  0  0
 11 10  1  0  0  0  0
 12 11  1  0  0  0  0
 13 11  2  0  0  0  0
 13 14  1  0  0  0  0
 14 21  1  0  0  0  0
 15 14  2  0  0  0  0
 15 17  1  0  0  0  0
 16 15  1  0  0  0  0
 17 18  2  0  0  0  0
 18 20  1  0  0  0  0
 18 19  1  0  0  0  0
 21 20  2  0  0  0  0
 22 27  2  0  0  0  0
 22 23  1  0  0  0  0
 23 24  2  0  0  0  0
 24 25  1  0  0  0  0
 24  1  1  0  0  0  0
 26 30  1  0  0  0  0
 26 25  2  0  0  0  0
 27 26  1  0  0  0  0
 28 22  1  0  0  0  0
 29 23  1  0  0  0  0
 31 34  1  0  0  0  0
 31 33  1  0  0  0  0
 31 32  1  0  0  0  0
M  END
>  <minimizedAffinity>
-5.87024641

$$$$

 OpenBabel03272505283D

 34 37  0  0  0  0  0  0  0  0999 V2000
   38.1610   24.1520   34.8710 N   0  0  0  0  0  0  0  0  0  0  0  0
   38.2760   23.2120   33.8950 C   0  0  0  0  0  0  0  0  0  0  0  0
   37.9920   23.4880   32.5650 C   0  0  0  0  0  0  0  0  0  0  0  0
   37.5750   24.7890   32.2570 C   0  0  0  0  0  0  0  0  0  0  0  0
   37.3060   25.0920   31.0730 O   0  0  0  0  0  0  0  0  0  0  0  0
   37.4590   25.7360   33.2370 N   0  0  0  0  0  0  0  0  0  0  0  0
   37.7610   25.3490   34.4820 C   0  0  0  0  0  0  0  0  0  0  0  0
   37.6430   26.2390   35.3530 O   0  0  0  0  0  0  0  0  0  0  0  0
   38.6060   22.2100   34.1870 H   0  0  0  0  0  0  0  0  0  0  0  0
   38.1120   22.5010   31.5450 N   0  0  0  0  0  0  0  0  0  0  0  0
   39.0360   22.4850   30.5690 C   0  0  0  0  0  0  0  0  0  0  0  0
   39.8180   23.2230   30.4240 H   0  0  0  0  0  0  0  0  0  0  0  0
   38.8810   21.4350   29.7790 N   0  0  0  0  0  0  0  0  0  0  0  0
   37.8330   20.7130   30.2120 C   0  0  0  0  0  0  0  0  0  0  0  0
   37.2340   19.5510   29.7810 C   0  0  0  0  0  0  0  0  0  0  0  0
   37.6360   19.0490   28.9080 H   0  0  0  0  0  0  0  0  0  0  0  0
   36.1780   19.1130   30.4830 N   0  0  0  0  0  0  0  0  0  0  0  0
   35.6940   19.7560   31.5690 C   0  0  0  0  0  0  0  0  0  0  0  0
   34.8230   19.3560   32.1110 H   0  0  0  0  0  0  0  0  0  0  0  0
   36.2950   20.9080   31.9890 N   0  0  0  0  0  0  0  0  0  0  0  0
   37.3640   21.4040   31.3270 C   0  0  0  0  0  0  0  0  0  0  0  0
   37.8640   23.8370   38.5580 C   0  0  0  0  0  0  0  0  0  0  0  0
   37.5780   24.1430   37.2210 C   0  0  0  0  0  0  0  0  0  0  0  0
   38.4520   23.8540   36.2070 C   0  0  0  0  0  0  0  0  0  0  0  0
   39.6250   23.2540   36.5380 N   0  0  0  0  0  0  0  0  0  0  0  0
   39.9330   22.9460   37.8280 C   0  0  0  0  0  0  0  0  0  0  0  0
   39.0590   23.2340   38.8330 N   0  0  0  0  0  0  0  0  0  0  0  0
   37.2370   24.0300   39.3990 H   0  0  0  0  0  0  0  0  0  0  0  0
   36.6180   24.6190   37.1630 H   0  0  0  0  0  0  0  0  0  0  0  0
   40.8880   22.4750   37.9630 H   0  0  0  0  0  0  0  0  0  0  0  0
   37.0290   27.0810   32.9200 C   0  0  0  0  0  0  0  0  0  0  0  0
   36.0070   27.0380   32.0190 F   0  0  0  0  0  0  0  0  0  0  0  0
   38.0320   27.8460   32.3470 F   0  0  0  0  0  0  0  0  0  0  0  0
   36.5550   27.6870   34.0760 F   0  0  0  0  0  0  0  0  0  0  0  0
  1 24  1  0  0  0  0
  2  9  1  0  0  0  0
  2  1  1  0  0  0  0
  3  2  2  0  0  0  0
  4  3  1  0  0  0  0
  4  6  1  0  0  0  0
  5  4  2  0  0  0  0
  6  7  1  0  0  0  0
  7  1  1  0  0  0  0
  7  8  2  0  0  0  0
 10  3  1  0  0  0  0
 11 10  1  0  0  0  0
 12 11  1  0  0  0  0
 13 14  1  0  0  0  0
 13 11  2  0  0  0  0
 14 21  1  0  0  0  0
 15 14  2  0  0  0  0
 15 17  1  0  0  0  0
 16 15  1  0  0  0  0
 17 18  2  0  0  0  0
 18 20  1  0  0  0  0
 18 19  1  0  0  0  0
 21 10  1  0  0  0  0
 21 20  2  0  0  0  0
 22 27  1  0  0  0  0
 22 28  1  0  0  0  0
 23 22  2  0  0  0  0
 24 25  2  0  0  0  0
 24 23  1  0  0  0  0
 25 26  1  0  0  0  0
 26 30  1  0  0  0  0
 26 27  2  0  0  0  0
 29 23  1  0  0  0  0
 31  6  1  0  0  0  0
 31 34  1  0  0  0  0
 32 31  1  0  0  0  0
 33 31  1  0  0  0  0
M  END
>  <minimizedAffinity>
-5.81383181

$$$$

 OpenBabel03272505283D

 34 37  0  0  0  0  0  0  0  0999 V2000
   35.6190   29.9460   33.8230 N   0  0  0  0  0  0  0  0  0  0  0  0
   36.1010   28.6770   33.9080 C   0  0  0  0  0  0  0  0  0  0  0  0
   36.7660   28.0660   32.8550 C   0  0  0  0  0  0  0  0  0  0  0  0
   36.9260   28.8130   31.6810 C   0  0  0  0  0  0  0  0  0  0  0  0
   37.5190   28.3090   30.6990 O   0  0  0  0  0  0  0  0  0  0  0  0
   36.4420   30.0890   31.5920 N   0  0  0  0  0  0  0  0  0  0  0  0
   35.8190   30.5690   32.6750 C   0  0  0  0  0  0  0  0  0  0  0  0
   35.3870   31.7370   32.5600 O   0  0  0  0  0  0  0  0  0  0  0  0
   35.9510   28.1360   34.8470 H   0  0  0  0  0  0  0  0  0  0  0  0
   37.2690   26.7360   32.9460 N   0  0  0  0  0  0  0  0  0  0  0  0
   38.3680   26.3540   33.6200 C   0  0  0  0  0  0  0  0  0  0  0  0
   39.0230   27.0070   34.1870 H   0  0  0  0  0  0  0  0  0  0  0  0
   38.5670   25.0510   33.5110 N   0  0  0  0  0  0  0  0  0  0  0  0
   37.5940   24.5210   32.7490 C   0  0  0  0  0  0  0  0  0  0  0  0
   37.3100   23.2460   32.3170 C   0  0  0  0  0  0  0  0  0  0  0  0
   37.9690   22.4360   32.6120 H   0  0  0  0  0  0  0  0  0  0  0  0
   36.2220   23.0890   31.5490 N   0  0  0  0  0  0  0  0  0  0  0  0
   35.4150   24.1140   31.1930 C   0  0  0  0  0  0  0  0  0  0  0  0
   34.5320   23.9350   30.5600 H   0  0  0  0  0  0  0  0  0  0  0  0
   35.7040   25.3760   31.6280 N   0  0  0  0  0  0  0  0  0  0  0  0
   36.7860   25.6030   32.4050 C   0  0  0  0  0  0  0  0  0  0  0  0
   34.9300   31.9600   36.8640 C   0  0  0  0  0  0  0  0  0  0  0  0
   35.5980   31.3540   35.7930 C   0  0  0  0  0  0  0  0  0  0  0  0
   34.9500   30.5440   34.8970 C   0  0  0  0  0  0  0  0  0  0  0  0
   33.6210   30.3400   35.0790 N   0  0  0  0  0  0  0  0  0  0  0  0
   32.9430   30.9140   36.1110 C   0  0  0  0  0  0  0  0  0  0  0  0
   33.5910   31.7190   36.9990 N   0  0  0  0  0  0  0  0  0  0  0  0
   35.3630   32.6000   37.5990 H   0  0  0  0  0  0  0  0  0  0  0  0
   36.6370   31.6240   35.8230 H   0  0  0  0  0  0  0  0  0  0  0  0
   31.8960   30.6780   36.1510 H   0  0  0  0  0  0  0  0  0  0  0  0
   36.6070   30.8620   30.3800 C   0  0  0  0  0  0  0  0  0  0  0  0
   35.4970   31.6230   30.1620 F   0  0  0  0  0  0  0  0  0  0  0  0
   36.7740   30.0710   29.2550 F   0  0  0  0  0  0  0  0  0  0  0  0
   37.6890   31.7190   30.5370 F   0  0  0  0  0  0  0  0  0  0  0  0
  1  2  1  0  0  0  0
  1 24  1  0  0  0  0
  2  9  1  0  0  0  0
  3 10  1  0  0  0  0
  3  2  2  0  0  0  0
  4  3  1  0  0  0  0
  5  4  2  0  0  0  0
  6  4  1  0  0  0  0
  6  7  1  0  0  0  0
  7  1  1  0  0  0  0
  8  7  2  0  0  0  0
 10 11  1  0  0  0  0
 11 12  1  0  0  0  0
 13 11  2  0  0  0  0
 14 13  1  0  0  0  0
 15 16  1  0  0  0  0
 15 14  2  0  0  0  0
 17 15  1  0  0  0  0
 18 17  2  0  0  0  0
 18 20  1  0  0  0  0
 19 18  1  0  0  0  0
 20 21  2  0  0  0  0
 21 14  1  0  0  0  0
 21 10  1  0  0  0  0
 22 27  1  0  0  0  0
 22 28  1  0  0  0  0
 23 29  1  0  0  0  0
 23 22  2  0  0  0  0
 24 25  2  0  0  0  0
 24 23  1  0  0  0  0
 25 26  1  0  0  0  0
 26 30  1  0  0  0  0
 26 27  2  0  0  0  0
 31 34  1  0  0  0  0
 31  6  1  0  0  0  0
 32 31  1  0  0  0  0
 33 31  1  0  0  0  0
M  END
>  <minimizedAffinity>
-5.77753973

$$$$

 OpenBabel03272505283D

 34 37  0  0  0  0  0  0  0  0999 V2000
   37.9810   23.5870   34.6460 N   0  0  0  0  0  0  0  0  0  0  0  0
   37.5430   22.5190   33.9250 C   0  0  0  0  0  0  0  0  0  0  0  0
   37.0990   22.6430   32.6170 C   0  0  0  0  0  0  0  0  0  0  0  0
   37.1170   23.9260   32.0540 C   0  0  0  0  0  0  0  0  0  0  0  0
   36.7270   24.0940   30.8760 O   0  0  0  0  0  0  0  0  0  0  0  0
   37.5570   25.0010   32.7770 N   0  0  0  0  0  0  0  0  0  0  0  0
   37.9600   24.7540   34.0290 C   0  0  0  0  0  0  0  0  0  0  0  0
   38.3550   25.7580   34.6620 O   0  0  0  0  0  0  0  0  0  0  0  0
   37.5490   21.5380   34.4100 H   0  0  0  0  0  0  0  0  0  0  0  0
   36.6390   21.5250   31.8640 N   0  0  0  0  0  0  0  0  0  0  0  0
   35.4610   20.8970   32.0230 C   0  0  0  0  0  0  0  0  0  0  0  0
   34.6980   21.1560   32.7490 H   0  0  0  0  0  0  0  0  0  0  0  0
   35.3330   19.8950   31.1690 N   0  0  0  0  0  0  0  0  0  0  0  0
   36.4380   19.8260   30.4060 C   0  0  0  0  0  0  0  0  0  0  0  0
   36.8370   18.9990   29.3810 C   0  0  0  0  0  0  0  0  0  0  0  0
   36.1720   18.2050   29.0610 H   0  0  0  0  0  0  0  0  0  0  0  0
   38.0420   19.2360   28.8390 N   0  0  0  0  0  0  0  0  0  0  0  0
   38.8560   20.2320   29.2550 C   0  0  0  0  0  0  0  0  0  0  0  0
   39.8360   20.3860   28.7780 H   0  0  0  0  0  0  0  0  0  0  0  0
   38.4500   21.0480   30.2730 N   0  0  0  0  0  0  0  0  0  0  0  0
   37.2480   20.8640   30.8610 C   0  0  0  0  0  0  0  0  0  0  0  0
   40.0910   22.7430   37.5820 C   0  0  0  0  0  0  0  0  0  0  0  0
   39.6410   22.8840   36.2630 C   0  0  0  0  0  0  0  0  0  0  0  0
   38.4250   23.4400   35.9650 C   0  0  0  0  0  0  0  0  0  0  0  0
   37.6530   23.8590   37.0010 N   0  0  0  0  0  0  0  0  0  0  0  0
   38.0610   23.7350   38.2940 C   0  0  0  0  0  0  0  0  0  0  0  0
   39.2720   23.1820   38.5850 N   0  0  0  0  0  0  0  0  0  0  0  0
   41.0200   22.3230   37.8920 H   0  0  0  0  0  0  0  0  0  0  0  0
   40.3790   22.4880   35.5920 H   0  0  0  0  0  0  0  0  0  0  0  0
   37.3640   24.1010   39.0240 H   0  0  0  0  0  0  0  0  0  0  0  0
   37.5770   26.3260   32.1960 C   0  0  0  0  0  0  0  0  0  0  0  0
   38.1270   26.2750   30.9500 F   0  0  0  0  0  0  0  0  0  0  0  0
   38.3350   27.2240   32.9290 F   0  0  0  0  0  0  0  0  0  0  0  0
   36.2710   26.7810   32.0690 F   0  0  0  0  0  0  0  0  0  0  0  0
  1 24  1  0  0  0  0
  2  9  1  0  0  0  0
  2  1  1  0  0  0  0
  3  2  2  0  0  0  0
  4  3  1  0  0  0  0
  4  6  1  0  0  0  0
  5  4  2  0  0  0  0
  6  7  1  0  0  0  0
  7  1  1  0  0  0  0
  7  8  2  0  0  0  0
 10 11  1  0  0  0  0
 10  3  1  0  0  0  0
 11 12  1  0  0  0  0
 13 11  2  0  0  0  0
 14 21  1  0  0  0  0
 14 13  1  0  0  0  0
 15 14  2  0  0  0  0
 16 15  1  0  0  0  0
 17 18  2  0  0  0  0
 17 15  1  0  0  0  0
 18 20  1  0  0  0  0
 19 18  1  0  0  0  0
 20 21  2  0  0  0  0
 21 10  1  0  0  0  0
 22 28  1  0  0  0  0
 22 27  1  0  0  0  0
 23 22  2  0  0  0  0
 24 23  1  0  0  0  0
 24 25  2  0  0  0  0
 25 26  1  0  0  0  0
 26 27  2  0  0  0  0
 26 30  1  0  0  0  0
 29 23  1  0  0  0  0
 31  6  1  0  0  0  0
 31 33  1  0  0  0  0
 32 31  1  0  0  0  0
 34 31  1  0  0  0  0
M  END
>  <minimizedAffinity>
-5.77733946

$$$$

 OpenBabel03272505283D

 34 37  0  0  0  0  0  0  0  0999 V2000
   36.0740   28.2470   32.1390 N   0  0  0  0  0  0  0  0  0  0  0  0
   35.6670   28.8050   33.3120 C   0  0  0  0  0  0  0  0  0  0  0  0
   35.5720   30.1780   33.4830 C   0  0  0  0  0  0  0  0  0  0  0  0
   35.9140   30.9850   32.3900 C   0  0  0  0  0  0  0  0  0  0  0  0
   35.8450   32.2310   32.4910 O   0  0  0  0  0  0  0  0  0  0  0  0
   36.3230   30.4260   31.2100 N   0  0  0  0  0  0  0  0  0  0  0  0
   36.3750   29.0900   31.1670 C   0  0  0  0  0  0  0  0  0  0  0  0
   36.7540   28.6130   30.0760 O   0  0  0  0  0  0  0  0  0  0  0  0
   35.4110   28.1320   34.1350 H   0  0  0  0  0  0  0  0  0  0  0  0
   35.1470   30.7600   34.7120 N   0  0  0  0  0  0  0  0  0  0  0  0
   35.9470   31.3060   35.6440 C   0  0  0  0  0  0  0  0  0  0  0  0
   37.0280   31.3770   35.5890 H   0  0  0  0  0  0  0  0  0  0  0  0
   35.2460   31.7600   36.6700 N   0  0  0  0  0  0  0  0  0  0  0  0
   33.9410   31.5250   36.4470 C   0  0  0  0  0  0  0  0  0  0  0  0
   32.7920   31.7800   37.1610 C   0  0  0  0  0  0  0  0  0  0  0  0
   32.8730   32.2740   38.1230 H   0  0  0  0  0  0  0  0  0  0  0  0
   31.6320   31.3940   36.6080 N   0  0  0  0  0  0  0  0  0  0  0  0
   31.5550   30.7780   35.4070 C   0  0  0  0  0  0  0  0  0  0  0  0
   30.5780   30.4800   34.9960 H   0  0  0  0  0  0  0  0  0  0  0  0
   32.7000   30.5310   34.7060 N   0  0  0  0  0  0  0  0  0  0  0  0
   33.9020   30.8940   35.2060 C   0  0  0  0  0  0  0  0  0  0  0  0
   37.2460   24.7370   32.4370 C   0  0  0  0  0  0  0  0  0  0  0  0
   37.1580   26.1280   32.5820 C   0  0  0  0  0  0  0  0  0  0  0  0
   36.1640   26.8590   31.9860 C   0  0  0  0  0  0  0  0  0  0  0  0
   35.2510   26.1890   31.2380 N   0  0  0  0  0  0  0  0  0  0  0  0
   35.3100   24.8380   31.0760 C   0  0  0  0  0  0  0  0  0  0  0  0
   36.3000   24.1150   31.6710 N   0  0  0  0  0  0  0  0  0  0  0  0
   37.9860   24.1030   32.8680 H   0  0  0  0  0  0  0  0  0  0  0  0
   37.9680   26.4740   33.1950 H   0  0  0  0  0  0  0  0  0  0  0  0
   34.5340   24.4230   30.4620 H   0  0  0  0  0  0  0  0  0  0  0  0
   36.6760   31.2590   30.0800 C   0  0  0  0  0  0  0  0  0  0  0  0
   35.6720   32.1470   29.8300 F   0  0  0  0  0  0  0  0  0  0  0  0
   36.8650   30.5340   28.9150 F   0  0  0  0  0  0  0  0  0  0  0  0
   37.8190   31.9820   30.3940 F   0  0  0  0  0  0  0  0  0  0  0  0
  1  2  1  0  0  0  0
  2  3  2  0  0  0  0
  2  9  1  0  0  0  0
  3 10  1  0  0  0  0
  4  5  2  0  0  0  0
  4  3  1  0  0  0  0
  6  4  1  0  0  0  0
  7  6  1  0  0  0  0
  7  1  1  0  0  0  0
  8  7  2  0  0  0  0
 10 21  1  0  0  0  0
 10 11  1  0  0  0  0
 11 13  2  0  0  0  0
 12 11  1  0  0  0  0
 14 13  1  0  0  0  0
 14 15  1  0  0  0  0
 15 16  1  0  0  0  0
 17 15  2  0  0  0  0
 18 17  1  0  0  0  0
 19 18  1  0  0  0  0
 20 21  1  0  0  0  0
 20 18  2  0  0  0  0
 21 14  2  0  0  0  0
 22 23  1  0  0  0  0
 22 28  1  0  0  0  0
 23 29  1  0  0  0  0
 24  1  1  0  0  0  0
 24 23  2  0  0  0  0
 25 24  1  0  0  0  0
 26 25  2  0  0  0  0
 26 27  1  0  0  0  0
 27 22  2  0  0  0  0
 30 26  1  0  0  0  0
 31 34  1  0  0  0  0
 31  6  1  0  0  0  0
 32 31  1  0  0  0  0
 33 31  1  0  0  0  0
M  END
>  <minimizedAffinity>
-5.73865986

$$$$
