
 OpenBabel03272507473D

 49 54  0  0  0  0  0  0  0  0999 V2000
   33.2600   28.6920   46.5740 N   0  0  0  0  0  0  0  0  0  0  0  0
   33.8140   28.0730   47.7270 C   0  0  0  0  0  0  0  0  0  0  0  0
   34.9230   28.7870   48.4010 C   0  0  0  0  0  0  0  0  0  0  0  0
   35.8900   29.4640   47.5370 C   0  0  0  0  0  0  0  0  0  0  0  0
   35.2350   30.0450   46.2710 C   0  0  0  0  0  0  0  0  0  0  0  0
   34.3480   28.9430   45.6720 C   0  0  0  0  0  0  0  0  0  0  0  0
   32.9910   27.8830   48.4740 H   0  0  0  0  0  0  0  0  0  0  0  0
   34.1870   27.0720   47.4220 H   0  0  0  0  0  0  0  0  0  0  0  0
   34.3610   29.6080   48.9580 H   0  0  0  0  0  0  0  0  0  0  0  0
   35.3730   28.1410   49.1650 H   0  0  0  0  0  0  0  0  0  0  0  0
   36.6780   28.7760   47.1340 H   0  0  0  0  0  0  0  0  0  0  0  0
   34.6290   30.9260   46.4730 H   0  0  0  0  0  0  0  0  0  0  0  0
   36.0420   30.2190   45.5220 H   0  0  0  0  0  0  0  0  0  0  0  0
   33.9200   29.2850   44.7200 H   0  0  0  0  0  0  0  0  0  0  0  0
   34.9560   28.0470   45.4430 H   0  0  0  0  0  0  0  0  0  0  0  0
   31.8910   29.0170   46.3150 C   0  0  0  0  0  0  0  0  0  0  0  0
   31.3770   29.4920   45.1120 C   0  0  0  0  0  0  0  0  0  0  0  0
   30.0110   29.7490   45.0610 C   0  0  0  0  0  0  0  0  0  0  0  0
   29.2560   29.5270   46.1750 N   0  0  0  0  0  0  0  0  0  0  0  0
   29.7820   29.0690   47.3200 C   0  0  0  0  0  0  0  0  0  0  0  0
   31.0910   28.8180   47.3870 N   0  0  0  0  0  0  0  0  0  0  0  0
   32.1030   29.6110   44.3360 H   0  0  0  0  0  0  0  0  0  0  0  0
   29.6540   30.1120   44.1180 H   0  0  0  0  0  0  0  0  0  0  0  0
   28.9330   28.8600   48.4450 N   0  0  0  0  0  0  0  0  0  0  0  0
   28.5960   29.5740   49.5360 C   0  0  0  0  0  0  0  0  0  0  0  0
   29.0900   30.5500   49.5690 H   0  0  0  0  0  0  0  0  0  0  0  0
   27.7300   28.8670   50.2850 N   0  0  0  0  0  0  0  0  0  0  0  0
   27.5220   27.6960   49.6590 C   0  0  0  0  0  0  0  0  0  0  0  0
   26.7050   26.6640   50.0730 C   0  0  0  0  0  0  0  0  0  0  0  0
   26.1350   26.7200   50.9900 H   0  0  0  0  0  0  0  0  0  0  0  0
   26.6370   25.5530   49.2830 N   0  0  0  0  0  0  0  0  0  0  0  0
   27.3690   25.5380   48.1540 C   0  0  0  0  0  0  0  0  0  0  0  0
   27.4040   24.7130   47.4360 H   0  0  0  0  0  0  0  0  0  0  0  0
   28.1790   26.5370   47.7230 N   0  0  0  0  0  0  0  0  0  0  0  0
   28.2760   27.6650   48.4830 C   0  0  0  0  0  0  0  0  0  0  0  0
   36.2000   30.9790   49.4430 C   0  0  0  0  0  0  0  0  0  0  0  0
   36.5930   30.6090   48.1670 C   0  0  0  0  0  0  0  0  0  0  0  0
   37.5680   31.2510   47.4500 C   0  0  0  0  0  0  0  0  0  0  0  0
   38.1940   32.3410   48.0520 C   0  0  0  0  0  0  0  0  0  0  0  0
   37.8110   32.7140   49.3150 C   0  0  0  0  0  0  0  0  0  0  0  0
   36.8200   32.0600   50.0420 C   0  0  0  0  0  0  0  0  0  0  0  0
   38.5550   33.8240   49.7380 O   0  0  0  0  0  0  0  0  0  0  0  0
   39.6290   33.9150   48.8130 C   0  0  0  0  0  0  0  0  0  0  0  0
   39.2020   33.2280   47.6630 O   0  0  0  0  0  0  0  0  0  0  0  0
   35.4610   30.5470   50.1020 H   0  0  0  0  0  0  0  0  0  0  0  0
   37.8400   30.9380   46.4760 H   0  0  0  0  0  0  0  0  0  0  0  0
   36.5650   32.4170   51.0550 H   0  0  0  0  0  0  0  0  0  0  0  0
   39.7640   35.0130   48.6110 H   0  0  0  0  0  0  0  0  0  0  0  0
   40.5820   33.5240   49.2160 H   0  0  0  0  0  0  0  0  0  0  0  0
  1  2  1  0  0  0  0
  2  3  1  0  0  0  0
  2  7  1  0  0  0  0
  3  9  1  0  0  0  0
  3 10  1  0  0  0  0
  4 37  1  0  0  0  0
  4  3  1  0  0  0  0
  5 12  1  0  0  0  0
  5  4  1  0  0  0  0
  6  5  1  0  0  0  0
  6  1  1  0  0  0  0
  8  2  1  0  0  0  0
 11  4  1  0  0  0  0
 13  5  1  0  0  0  0
 14  6  1  0  0  0  0
 15  6  1  0  0  0  0
 16  1  1  0  0  0  0
 16 21  1  0  0  0  0
 17 16  2  0  0  0  0
 18 17  1  0  0  0  0
 18 19  2  0  0  0  0
 19 20  1  0  0  0  0
 20 21  2  0  0  0  0
 20 24  1  0  0  0  0
 22 17  1  0  0  0  0
 23 18  1  0  0  0  0
 24 35  1  0  0  0  0
 24 25  1  0  0  0  0
 25 26  1  0  0  0  0
 25 27  2  0  0  0  0
 28 29  1  0  0  0  0
 28 27  1  0  0  0  0
 29 30  1  0  0  0  0
 31 29  2  0  0  0  0
 32 31  1  0  0  0  0
 33 32  1  0  0  0  0
 34 32  2  0  0  0  0
 34 35  1  0  0  0  0
 35 28  2  0  0  0  0
 36 41  1  0  0  0  0
 36 45  1  0  0  0  0
 37 36  2  0  0  0  0
 38 39  2  0  0  0  0
 38 37  1  0  0  0  0
 39 40  1  0  0  0  0
 40 42  1  0  0  0  0
 40 41  2  0  0  0  0
 41 47  1  0  0  0  0
 43 49  1  0  0  0  0
 43 42  1  0  0  0  0
 44 39  1  0  0  0  0
 44 43  1  0  0  0  0
 46 38  1  0  0  0  0
 48 43  1  0  0  0  0
M  END
>  <minimizedAffinity>
-4.90495825

>  <minimizedRMSD>
1.17980683

$$$$
