
 OpenBabel03262522453D

 40 44  0  0  1  0  0  0  0  0999 V2000
   34.6380   26.1030   41.9960 C   0  0  0  0  0  0  0  0  0  0  0  0
   35.2900   27.2950   42.5230 C   0  0  0  0  0  0  0  0  0  0  0  0
   36.4920   27.6770   42.0000 C   0  0  0  0  0  0  0  0  0  0  0  0
   37.0220   26.8940   40.9920 N   0  0  0  0  0  0  0  0  0  0  0  0
   36.4000   25.7910   40.5220 C   0  0  0  0  0  0  0  0  0  0  0  0
   35.2240   25.4090   41.0200 N   0  0  0  0  0  0  0  0  0  0  0  0
   37.0020   24.9910   39.5360 N   0  0  0  0  0  0  0  0  0  0  0  0
   33.6920   25.8660   42.4550 H   0  0  0  0  0  0  0  0  0  0  0  0
   37.4710   24.1440   39.9470 H   0  0  0  0  0  0  0  0  0  0  0  0
   36.8720   25.3880   38.5750 H   0  0  0  0  0  0  0  0  0  0  0  0
   37.2320   28.8140   42.4140 N   0  0  0  0  0  0  0  0  0  0  0  0
   36.7540   29.9780   42.9440 C   0  0  0  0  0  0  0  0  0  0  0  0
   35.7090   30.2120   43.1360 H   0  0  0  0  0  0  0  0  0  0  0  0
   37.8100   30.7830   43.1890 N   0  0  0  0  0  0  0  0  0  0  0  0
   38.9570   30.1700   42.8310 C   0  0  0  0  0  0  0  0  0  0  0  0
   40.3000   30.4650   42.8350 C   0  0  0  0  0  0  0  0  0  0  0  0
   40.5920   31.4270   43.2130 H   0  0  0  0  0  0  0  0  0  0  0  0
   41.2420   29.5980   42.3880 N   0  0  0  0  0  0  0  0  0  0  0  0
   40.8610   28.3950   41.9170 C   0  0  0  0  0  0  0  0  0  0  0  0
   41.4970   27.5990   41.5270 H   0  0  0  0  0  0  0  0  0  0  0  0
   39.5610   28.0690   41.8950 N   0  0  0  0  0  0  0  0  0  0  0  0
   38.5930   28.9230   42.3390 C   0  0  0  0  0  0  0  0  0  0  0  0
   34.6610   28.1460   43.5910 C   0  0  1  0  0  0  0  0  0  0  0  0
   33.2460   28.1010   43.8110 C   0  0  0  0  0  0  0  0  0  0  0  0
   34.1090   27.3610   44.8200 C   0  0  2  0  0  0  0  0  0  0  0  0
   35.3590   28.9180   44.0070 H   0  0  0  0  0  0  0  0  0  0  0  0
   32.5650   27.4670   43.2100 H   0  0  0  0  0  0  0  0  0  0  0  0
   32.6900   28.9720   44.2410 H   0  0  0  0  0  0  0  0  0  0  0  0
   33.8130   26.3130   44.8130 H   0  0  0  0  0  0  0  0  0  0  0  0
   34.1860   30.4490   45.1020 Cl  0  0  0  0  0  0  0  0  0  0  0  0
   34.1190   29.3620   46.4570 C   0  0  0  0  0  0  0  0  0  0  0  0
   34.1400   28.0270   46.1200 C   0  0  0  0  0  0  0  0  0  0  0  0
   34.0960   27.1370   47.1880 C   0  0  0  0  0  0  0  0  0  0  0  0
   34.0370   27.5690   48.5170 C   0  0  0  0  0  0  0  0  0  0  0  0
   34.0210   28.9540   48.7940 C   0  0  0  0  0  0  0  0  0  0  0  0
   33.9770   29.6170   50.4160 Cl  0  0  0  0  0  0  0  0  0  0  0  0
   34.0630   29.8470   47.7170 C   0  0  0  0  0  0  0  0  0  0  0  0
   34.0840   26.0620   47.2680 H   0  0  0  0  0  0  0  0  0  0  0  0
   33.9990   27.0080   49.4170 H   0  0  0  0  0  0  0  0  0  0  0  0
   34.0510   30.9080   47.8960 H   0  0  0  0  0  0  0  0  0  0  0  0
  1  8  1  0  0  0  0
  1  2  1  0  0  0  0
  2 23  1  0  0  0  0
  3 11  1  0  0  0  0
  3  2  2  0  0  0  0
  4  3  1  0  0  0  0
  5  4  2  0  0  0  0
  5  6  1  0  0  0  0
  6  1  2  0  0  0  0
  7  9  1  0  0  0  0
  7  5  1  0  0  0  0
 10  7  1  0  0  0  0
 11 12  1  0  0  0  0
 12 13  1  0  0  0  0
 12 14  2  0  0  0  0
 15 16  1  0  0  0  0
 15 14  1  0  0  0  0
 16 17  1  0  0  0  0
 18 16  2  0  0  0  0
 19 18  1  0  0  0  0
 20 19  1  0  0  0  0
 21 19  2  0  0  0  0
 21 22  1  0  0  0  0
 22 11  1  0  0  0  0
 22 15  2  0  0  0  0
 23 24  1  0  0  0  0
 23 26  1  1  0  0  0
 23 25  1  0  0  0  0
 24 28  1  0  0  0  0
 24 25  1  0  0  0  0
 25 29  1  6  0  0  0
 25 32  1  0  0  0  0
 27 24  1  0  0  0  0
 30 31  1  0  0  0  0
 31 37  1  0  0  0  0
 32 31  2  0  0  0  0
 32 33  1  0  0  0  0
 33 38  1  0  0  0  0
 33 34  2  0  0  0  0
 34 35  1  0  0  0  0
 34 39  1  0  0  0  0
 35 36  1  0  0  0  0
 37 40  1  0  0  0  0
 37 35  2  0  0  0  0
M  END
>  <minimizedAffinity>
-4.19955826

>  <minimizedRMSD>
5.30532074

$$$$
