
 OpenBabel03272506413D

 22 24  0  0  0  0  0  0  0  0999 V2000
   34.0750   30.9430   48.1850 H   0  0  0  0  0  0  0  0  0  0  0  0
   33.6530   30.1060   47.7060 N   0  0  0  0  0  0  0  0  0  0  0  0
   33.6940   28.7680   47.9590 C   0  0  0  0  0  0  0  0  0  0  0  0
   32.9700   28.1400   47.0160 N   0  0  0  0  0  0  0  0  0  0  0  0
   32.4590   29.0420   46.1530 C   0  0  0  0  0  0  0  0  0  0  0  0
   31.6640   28.9240   45.0330 C   0  0  0  0  0  0  0  0  0  0  0  0
   31.3410   27.9460   44.7150 H   0  0  0  0  0  0  0  0  0  0  0  0
   31.3010   30.0300   44.3510 N   0  0  0  0  0  0  0  0  0  0  0  0
   31.7350   31.2240   44.7980 C   0  0  0  0  0  0  0  0  0  0  0  0
   31.5430   32.2110   44.3790 H   0  0  0  0  0  0  0  0  0  0  0  0
   32.5090   31.3490   45.8880 N   0  0  0  0  0  0  0  0  0  0  0  0
   32.8990   30.2680   46.6030 C   0  0  0  0  0  0  0  0  0  0  0  0
   34.6330   28.2310   49.3810 S   0  0  0  0  0  0  0  0  0  0  0  0
   37.4210   30.3140   51.2610 C   0  0  0  0  0  0  0  0  0  0  0  0
   38.1700   30.9040   50.2380 C   0  0  0  0  0  0  0  0  0  0  0  0
   37.8060   30.6540   48.9060 C   0  0  0  0  0  0  0  0  0  0  0  0
   36.7390   29.8460   48.6740 N   0  0  0  0  0  0  0  0  0  0  0  0
   36.0320   29.2880   49.6870 C   0  0  0  0  0  0  0  0  0  0  0  0
   36.3620   29.5140   50.9620 N   0  0  0  0  0  0  0  0  0  0  0  0
   37.6630   30.4780   52.2920 H   0  0  0  0  0  0  0  0  0  0  0  0
   39.0070   31.5350   50.5360 H   0  0  0  0  0  0  0  0  0  0  0  0
   38.3880   31.1120   48.1410 H   0  0  0  0  0  0  0  0  0  0  0  0
  2  3  1  0  0  0  0
  2  1  1  0  0  0  0
  3 13  1  0  0  0  0
  4  3  2  0  0  0  0
  5 12  1  0  0  0  0
  5  4  1  0  0  0  0
  6  5  2  0  0  0  0
  7  6  1  0  0  0  0
  8  9  2  0  0  0  0
  8  6  1  0  0  0  0
  9 11  1  0  0  0  0
 10  9  1  0  0  0  0
 11 12  2  0  0  0  0
 12  2  1  0  0  0  0
 13 18  1  0  0  0  0
 14 20  1  0  0  0  0
 15 21  1  0  0  0  0
 15 14  2  0  0  0  0
 16 15  1  0  0  0  0
 17 16  2  0  0  0  0
 17 18  1  0  0  0  0
 18 19  2  0  0  0  0
 19 14  1  0  0  0  0
 22 16  1  0  0  0  0
M  END
>  <minimizedAffinity>
-4.31727886

>  <minimizedRMSD>
5.46805954

$$$$
