
 OpenBabel03272505263D

 34 37  0  0  0  0  0  0  0  0999 V2000
   37.4730   31.0830   47.0760 N   0  0  0  0  0  0  0  0  0  0  0  0
   36.9280   30.6930   45.8910 C   0  0  0  0  0  0  0  0  0  0  0  0
   37.4150   31.1390   44.6710 C   0  0  0  0  0  0  0  0  0  0  0  0
   38.5040   32.0190   44.7000 C   0  0  0  0  0  0  0  0  0  0  0  0
   38.9820   32.4530   43.6270 O   0  0  0  0  0  0  0  0  0  0  0  0
   39.0530   32.4130   45.8890 N   0  0  0  0  0  0  0  0  0  0  0  0
   38.4960   31.9150   46.9990 C   0  0  0  0  0  0  0  0  0  0  0  0
   39.0210   32.2970   48.0680 O   0  0  0  0  0  0  0  0  0  0  0  0
   36.0800   30.0030   45.9230 H   0  0  0  0  0  0  0  0  0  0  0  0
   36.8420   30.7290   43.4320 N   0  0  0  0  0  0  0  0  0  0  0  0
   35.7750   31.2870   42.8350 C   0  0  0  0  0  0  0  0  0  0  0  0
   35.2020   32.1260   43.2150 H   0  0  0  0  0  0  0  0  0  0  0  0
   35.4920   30.6770   41.6950 N   0  0  0  0  0  0  0  0  0  0  0  0
   36.3760   29.6820   41.4990 C   0  0  0  0  0  0  0  0  0  0  0  0
   36.5520   28.7480   40.5050 C   0  0  0  0  0  0  0  0  0  0  0  0
   35.8690   28.7470   39.6620 H   0  0  0  0  0  0  0  0  0  0  0  0
   37.5710   27.8860   40.6500 N   0  0  0  0  0  0  0  0  0  0  0  0
   38.4080   27.9060   41.7110 C   0  0  0  0  0  0  0  0  0  0  0  0
   39.2310   27.1780   41.7840 H   0  0  0  0  0  0  0  0  0  0  0  0
   38.2260   28.8370   42.6920 N   0  0  0  0  0  0  0  0  0  0  0  0
   37.2190   29.7340   42.6080 C   0  0  0  0  0  0  0  0  0  0  0  0
   37.2710   29.5960   50.4710 C   0  0  0  0  0  0  0  0  0  0  0  0
   37.7740   30.0510   49.2450 C   0  0  0  0  0  0  0  0  0  0  0  0
   36.9670   30.6220   48.2960 C   0  0  0  0  0  0  0  0  0  0  0  0
   35.6450   30.7360   48.5790 N   0  0  0  0  0  0  0  0  0  0  0  0
   35.1250   30.3020   49.7610 C   0  0  0  0  0  0  0  0  0  0  0  0
   35.9310   29.7360   50.7020 N   0  0  0  0  0  0  0  0  0  0  0  0
   37.8330   29.1440   51.2560 H   0  0  0  0  0  0  0  0  0  0  0  0
   38.8300   29.8660   49.2030 H   0  0  0  0  0  0  0  0  0  0  0  0
   34.0670   30.4450   49.8680 H   0  0  0  0  0  0  0  0  0  0  0  0
   40.1780   33.3230   45.9200 C   0  0  0  0  0  0  0  0  0  0  0  0
   40.0130   34.2940   44.9770 F   0  0  0  0  0  0  0  0  0  0  0  0
   41.3830   32.6990   45.6410 F   0  0  0  0  0  0  0  0  0  0  0  0
   40.2250   33.9380   47.1640 F   0  0  0  0  0  0  0  0  0  0  0  0
  1 24  1  0  0  0  0
  2  9  1  0  0  0  0
  2  1  1  0  0  0  0
  3  4  1  0  0  0  0
  3  2  2  0  0  0  0
  4  6  1  0  0  0  0
  5  4  2  0  0  0  0
  6 31  1  0  0  0  0
  6  7  1  0  0  0  0
  7  1  1  0  0  0  0
  7  8  2  0  0  0  0
 10  3  1  0  0  0  0
 11 12  1  0  0  0  0
 11 10  1  0  0  0  0
 13 11  2  0  0  0  0
 14 13  1  0  0  0  0
 14 21  1  0  0  0  0
 15 17  1  0  0  0  0
 15 14  2  0  0  0  0
 16 15  1  0  0  0  0
 17 18  2  0  0  0  0
 18 19  1  0  0  0  0
 18 20  1  0  0  0  0
 21 20  2  0  0  0  0
 21 10  1  0  0  0  0
 22 27  1  0  0  0  0
 22 28  1  0  0  0  0
 23 22  2  0  0  0  0
 24 25  2  0  0  0  0
 24 23  1  0  0  0  0
 25 26  1  0  0  0  0
 26 30  1  0  0  0  0
 26 27  2  0  0  0  0
 29 23  1  0  0  0  0
 31 34  1  0  0  0  0
 32 31  1  0  0  0  0
 33 31  1  0  0  0  0
M  END
>  <minimizedAffinity>
-6.26995802

>  <minimizedRMSD>
0.880306304

$$$$
