
 OpenBabel03272505513D

 47 51  0  0  1  0  0  0  0  0999 V2000
   35.0830   29.6560   45.4340 N   0  0  2  0  0  0  0  0  0  0  0  0
   36.4070   30.2730   45.3270 C   0  0  0  0  0  0  0  0  0  0  0  0
   36.7140   30.4000   43.8530 C   0  0  0  0  0  0  0  0  0  0  0  0
   35.5710   29.7230   43.1970 C   0  0  0  0  0  0  0  0  0  0  0  0
   34.4200   29.8990   44.2030 C   0  0  1  0  0  0  0  0  0  0  0  0
   37.1730   29.7690   45.9140 H   0  0  0  0  0  0  0  0  0  0  0  0
   36.2520   31.3280   45.6990 H   0  0  0  0  0  0  0  0  0  0  0  0
   36.8810   31.4430   43.5230 H   0  0  0  0  0  0  0  0  0  0  0  0
   37.6380   29.8060   43.6750 H   0  0  0  0  0  0  0  0  0  0  0  0
   35.3690   30.2530   42.2410 H   0  0  0  0  0  0  0  0  0  0  0  0
   35.7320   28.6750   42.9420 H   0  0  0  0  0  0  0  0  0  0  0  0
   34.1250   30.9160   43.9670 H   0  0  0  0  0  0  0  0  0  0  0  0
   37.1260   29.2130   50.3650 C   0  0  0  0  0  0  0  0  0  0  0  0
   37.2830   30.5650   50.7070 C   0  0  0  0  0  0  0  0  0  0  0  0
   36.5250   31.4860   49.9910 C   0  0  0  0  0  0  0  0  0  0  0  0
   35.6940   31.0230   49.0200 N   0  0  0  0  0  0  0  0  0  0  0  0
   35.5810   29.7300   48.7320 C   0  0  0  0  0  0  0  0  0  0  0  0
   36.2930   28.8230   49.4000 N   0  0  0  0  0  0  0  0  0  0  0  0
   34.6930   29.3160   47.7070 N   0  0  0  0  0  0  0  0  0  0  0  0
   34.0620   28.0010   47.7260 C   0  0  0  0  0  0  0  0  0  0  0  0
   32.5810   28.1470   47.6110 C   0  0  0  0  0  0  0  0  0  0  0  0
   32.1060   29.3610   47.1760 N   0  0  0  0  0  0  0  0  0  0  0  0
   32.9280   30.2680   46.4100 C   0  0  0  0  0  0  0  0  0  0  0  0
   34.3630   30.1770   46.5850 C   0  0  2  0  0  0  0  0  0  0  0  0
   37.7440   28.5610   50.9610 H   0  0  0  0  0  0  0  0  0  0  0  0
   37.9080   30.9990   51.4490 H   0  0  0  0  0  0  0  0  0  0  0  0
   36.5570   32.5520   50.1610 H   0  0  0  0  0  0  0  0  0  0  0  0
   34.5390   27.3200   47.0230 H   0  0  0  0  0  0  0  0  0  0  0  0
   34.3010   27.5600   48.7440 H   0  0  0  0  0  0  0  0  0  0  0  0
   32.0910   27.8750   48.5680 H   0  0  0  0  0  0  0  0  0  0  0  0
   32.2450   27.3390   46.8990 H   0  0  0  0  0  0  0  0  0  0  0  0
   31.2230   29.7400   47.5240 H   0  0  0  0  0  0  0  0  0  0  0  0
   32.4520   30.3250   45.4450 H   0  0  0  0  0  0  0  0  0  0  0  0
   32.6210   31.2760   46.8650 H   0  0  0  0  0  0  0  0  0  0  0  0
   34.8410   31.1790   46.8100 H   0  0  0  0  0  0  0  0  0  0  0  0
   33.4840   28.8840   43.7620 N   0  0  0  0  0  0  0  0  0  0  0  0
   32.2750   28.9430   43.1220 C   0  0  0  0  0  0  0  0  0  0  0  0
   31.8680   29.9300   42.8650 H   0  0  0  0  0  0  0  0  0  0  0  0
   31.7990   27.6990   42.9260 N   0  0  0  0  0  0  0  0  0  0  0  0
   32.6930   26.8130   43.4350 C   0  0  0  0  0  0  0  0  0  0  0  0
   32.5690   25.4400   43.4290 C   0  0  0  0  0  0  0  0  0  0  0  0
   31.7100   24.9460   42.9980 H   0  0  0  0  0  0  0  0  0  0  0  0
   33.5920   24.7630   43.9960 N   0  0  0  0  0  0  0  0  0  0  0  0
   34.6310   25.4420   44.5140 C   0  0  0  0  0  0  0  0  0  0  0  0
   35.4580   24.8790   44.9730 H   0  0  0  0  0  0  0  0  0  0  0  0
   34.6890   26.7790   44.4860 N   0  0  0  0  0  0  0  0  0  0  0  0
   33.7370   27.5540   43.9520 C   0  0  0  0  0  0  0  0  0  0  0  0
  1  2  1  6  0  0  0
  1 24  1  0  0  0  0
  2  7  1  0  0  0  0
  2  6  1  0  0  0  0
  3  2  1  0  0  0  0
  4  3  1  0  0  0  0
  4  5  1  0  0  0  0
  5 12  1  6  0  0  0
  5  1  1  0  0  0  0
  8  3  1  0  0  0  0
  9  3  1  0  0  0  0
 10  4  1  0  0  0  0
 11  4  1  0  0  0  0
 13 14  1  0  0  0  0
 13 25  1  0  0  0  0
 14 26  1  0  0  0  0
 15 27  1  0  0  0  0
 15 14  2  0  0  0  0
 16 15  1  0  0  0  0
 17 16  2  0  0  0  0
 17 18  1  0  0  0  0
 18 13  2  0  0  0  0
 19 20  1  0  0  0  0
 19 17  1  0  0  0  0
 20 29  1  0  0  0  0
 21 20  1  0  0  0  0
 21 30  1  0  0  0  0
 22 32  1  0  0  0  0
 22 21  1  0  0  0  0
 23 24  1  0  0  0  0
 23 34  1  0  0  0  0
 23 22  1  0  0  0  0
 24 35  1  1  0  0  0
 24 19  1  0  0  0  0
 28 20  1  0  0  0  0
 31 21  1  0  0  0  0
 33 23  1  0  0  0  0
 36 47  1  0  0  0  0
 36  5  1  0  0  0  0
 37 36  1  0  0  0  0
 38 37  1  0  0  0  0
 39 37  2  0  0  0  0
 39 40  1  0  0  0  0
 40 47  1  0  0  0  0
 41 40  2  0  0  0  0
 41 43  1  0  0  0  0
 42 41  1  0  0  0  0
 43 44  2  0  0  0  0
 44 45  1  0  0  0  0
 46 44  1  0  0  0  0
 47 46  2  0  0  0  0
M  END
>  <minimizedAffinity>
-4.54355478

>  <minimizedRMSD>
0.789362609

$$$$
