
 OpenBabel03272508373D

 47 51  0  0  1  0  0  0  0  0999 V2000
   40.1060   31.3330   43.0280 N   0  0  0  0  0  0  0  0  0  0  0  0
   39.5910   32.5470   42.5430 C   0  0  0  0  0  0  0  0  0  0  0  0
   38.1730   32.5420   42.1050 C   0  0  0  0  0  0  0  0  0  0  0  0
   37.8180   31.3800   41.4080 O   0  0  0  0  0  0  0  0  0  0  0  0
   38.1250   30.2700   42.1360 C   0  0  0  0  0  0  0  0  0  0  0  0
   39.5730   30.1900   42.4340 C   0  0  1  0  0  0  0  0  0  0  0  0
   39.8710   33.4880   42.9740 H   0  0  0  0  0  0  0  0  0  0  0  0
   40.1990   32.6060   41.5750 H   0  0  0  0  0  0  0  0  0  0  0  0
   37.4180   33.0300   42.6850 H   0  0  0  0  0  0  0  0  0  0  0  0
   38.1620   33.2730   41.2050 H   0  0  0  0  0  0  0  0  0  0  0  0
   37.9820   29.4470   41.3810 H   0  0  0  0  0  0  0  0  0  0  0  0
   37.4340   29.9670   42.9140 H   0  0  0  0  0  0  0  0  0  0  0  0
   39.6680   29.3600   43.1990 H   0  0  0  0  0  0  0  0  0  0  0  0
   40.3730   29.7200   41.3060 N   0  0  0  0  0  0  0  0  0  0  0  0
   41.2530   30.4500   40.5880 C   0  0  0  0  0  0  0  0  0  0  0  0
   41.5230   31.4850   40.7100 H   0  0  0  0  0  0  0  0  0  0  0  0
   41.8230   29.7090   39.6130 N   0  0  0  0  0  0  0  0  0  0  0  0
   41.3130   28.4780   39.6890 C   0  0  0  0  0  0  0  0  0  0  0  0
   41.4840   27.2950   38.9940 C   0  0  0  0  0  0  0  0  0  0  0  0
   42.1780   27.2720   38.1750 H   0  0  0  0  0  0  0  0  0  0  0  0
   40.7820   26.1790   39.3400 N   0  0  0  0  0  0  0  0  0  0  0  0
   39.9220   26.2120   40.3560 C   0  0  0  0  0  0  0  0  0  0  0  0
   39.3860   25.2950   40.5940 H   0  0  0  0  0  0  0  0  0  0  0  0
   39.7320   27.3620   41.0600 N   0  0  0  0  0  0  0  0  0  0  0  0
   40.4240   28.4840   40.7270 C   0  0  0  0  0  0  0  0  0  0  0  0
   40.5340   31.2950   44.3580 C   0  0  0  0  0  0  0  0  0  0  0  0
   41.6550   31.2950   44.3450 H   0  0  0  0  0  0  0  0  0  0  0  0
   40.2980   30.2570   44.7440 H   0  0  0  0  0  0  0  0  0  0  0  0
   39.9710   32.2510   45.2880 C   0  0  0  0  0  0  0  0  0  0  0  0
   39.5950   33.2250   45.0060 H   0  0  0  0  0  0  0  0  0  0  0  0
   40.8020   32.5130   46.0170 H   0  0  0  0  0  0  0  0  0  0  0  0
   37.7710   30.8580   47.7620 C   0  0  0  0  0  0  0  0  0  0  0  0
   36.9660   30.8060   46.6420 C   0  0  0  0  0  0  0  0  0  0  0  0
   37.7130   31.3280   45.5790 C   0  0  0  0  0  0  0  0  0  0  0  0
   38.9010   31.6620   46.0840 N   0  0  0  0  0  0  0  0  0  0  0  0
   38.9390   31.3820   47.3890 N   0  0  0  0  0  0  0  0  0  0  0  0
   35.9290   30.4210   46.6150 H   0  0  0  0  0  0  0  0  0  0  0  0
   37.2330   31.3490   44.6700 H   0  0  0  0  0  0  0  0  0  0  0  0
   37.4450   30.1950   51.4470 C   0  0  0  0  0  0  0  0  0  0  0  0
   37.9730   30.7010   50.2570 C   0  0  0  0  0  0  0  0  0  0  0  0
   37.3420   30.4050   49.0600 C   0  0  0  0  0  0  0  0  0  0  0  0
   36.2360   29.6240   49.1610 N   0  0  0  0  0  0  0  0  0  0  0  0
   35.7420   29.1460   50.3210 C   0  0  0  0  0  0  0  0  0  0  0  0
   36.3550   29.4380   51.4560 N   0  0  0  0  0  0  0  0  0  0  0  0
   37.9900   30.4660   52.3590 H   0  0  0  0  0  0  0  0  0  0  0  0
   38.8490   31.3140   50.2130 H   0  0  0  0  0  0  0  0  0  0  0  0
   34.8530   28.5300   50.3160 H   0  0  0  0  0  0  0  0  0  0  0  0
  1 26  1  0  0  0  0
  2  7  1  0  0  0  0
  2  1  1  0  0  0  0
  3  2  1  0  0  0  0
  3  9  1  0  0  0  0
  4  3  1  0  0  0  0
  4  5  1  0  0  0  0
  5  6  1  0  0  0  0
  5 12  1  0  0  0  0
  6  1  1  0  0  0  0
  6 13  1  1  0  0  0
  8  2  1  0  0  0  0
 10  3  1  0  0  0  0
 11  5  1  0  0  0  0
 14  6  1  0  0  0  0
 15 16  1  0  0  0  0
 15 14  1  0  0  0  0
 17 18  1  0  0  0  0
 17 15  2  0  0  0  0
 18 25  1  0  0  0  0
 19 21  1  0  0  0  0
 19 18  2  0  0  0  0
 20 19  1  0  0  0  0
 21 22  2  0  0  0  0
 22 23  1  0  0  0  0
 22 24  1  0  0  0  0
 25 24  2  0  0  0  0
 25 14  1  0  0  0  0
 26 28  1  0  0  0  0
 26 29  1  0  0  0  0
 27 26  1  0  0  0  0
 29 31  1  0  0  0  0
 29 35  1  0  0  0  0
 30 29  1  0  0  0  0
 32 41  1  0  0  0  0
 33 32  1  0  0  0  0
 34 35  1  0  0  0  0
 34 33  2  0  0  0  0
 35 36  1  0  0  0  0
 36 32  2  0  0  0  0
 37 33  1  0  0  0  0
 38 34  1  0  0  0  0
 39 44  1  0  0  0  0
 39 45  1  0  0  0  0
 40 39  2  0  0  0  0
 41 42  2  0  0  0  0
 41 40  1  0  0  0  0
 42 43  1  0  0  0  0
 43 44  2  0  0  0  0
 46 40  1  0  0  0  0
 47 43  1  0  0  0  0
M  END
>  <minimizedAffinity>
-5.83050299

>  <minimizedRMSD>
1.24230886

$$$$
