
 OpenBabel03262521533D

 26 28  0  0  0  0  0  0  0  0999 V2000
   35.7830   29.4680   51.1230 C   0  0  0  0  0  0  0  0  0  0  0  0
   35.3970   28.5730   51.6310 H   0  0  0  0  0  0  0  0  0  0  0  0
   35.8470   30.2860   51.8730 H   0  0  0  0  0  0  0  0  0  0  0  0
   37.4530   29.1770   50.4950 S   0  0  0  0  0  0  0  0  0  0  0  0
   37.8580   30.4800   49.3530 C   0  0  0  0  0  0  0  0  0  0  0  0
   38.2350   31.6880   49.9130 C   0  0  0  0  0  0  0  0  0  0  0  0
   38.5640   32.7480   49.0790 C   0  0  0  0  0  0  0  0  0  0  0  0
   38.4990   32.5480   47.7090 N   0  0  0  0  0  0  0  0  0  0  0  0
   38.1280   31.3620   47.2210 C   0  0  0  0  0  0  0  0  0  0  0  0
   37.8110   30.3400   48.0110 N   0  0  0  0  0  0  0  0  0  0  0  0
   38.3070   31.9120   50.9770 H   0  0  0  0  0  0  0  0  0  0  0  0
   38.8650   33.7130   49.4910 H   0  0  0  0  0  0  0  0  0  0  0  0
   38.0610   31.1530   46.1620 H   0  0  0  0  0  0  0  0  0  0  0  0
   34.6550   30.0560   49.8320 S   0  0  0  0  0  0  0  0  0  0  0  0
   31.7420   28.8630   49.6570 H   0  0  0  0  0  0  0  0  0  0  0  0
   32.4390   28.3400   49.1190 N   0  0  0  0  0  0  0  0  0  0  0  0
   33.7260   28.7240   49.0910 C   0  0  0  0  0  0  0  0  0  0  0  0
   34.4520   27.8700   48.3100 N   0  0  0  0  0  0  0  0  0  0  0  0
   33.6290   26.9120   47.8160 C   0  0  0  0  0  0  0  0  0  0  0  0
   33.8400   25.8330   46.9920 C   0  0  0  0  0  0  0  0  0  0  0  0
   34.8430   25.6410   46.6200 H   0  0  0  0  0  0  0  0  0  0  0  0
   32.7690   25.0490   46.6790 N   0  0  0  0  0  0  0  0  0  0  0  0
   31.5840   25.3880   47.2000 C   0  0  0  0  0  0  0  0  0  0  0  0
   30.7590   24.7190   46.9130 H   0  0  0  0  0  0  0  0  0  0  0  0
   31.3680   26.4480   48.0120 N   0  0  0  0  0  0  0  0  0  0  0  0
   32.4090   27.2640   48.3550 C   0  0  0  0  0  0  0  0  0  0  0  0
  1  2  1  0  0  0  0
  1  3  1  0  0  0  0
  4  1  1  0  0  0  0
  5  6  1  0  0  0  0
  5  4  1  0  0  0  0
  6 11  1  0  0  0  0
  7 12  1  0  0  0  0
  7  6  2  0  0  0  0
  8  7  1  0  0  0  0
  9  8  2  0  0  0  0
  9 10  1  0  0  0  0
 10  5  2  0  0  0  0
 13  9  1  0  0  0  0
 14  1  1  0  0  0  0
 16 15  1  0  0  0  0
 17 16  1  0  0  0  0
 17 14  1  0  0  0  0
 18 17  2  0  0  0  0
 19 18  1  0  0  0  0
 19 26  1  0  0  0  0
 20 19  2  0  0  0  0
 21 20  1  0  0  0  0
 22 20  1  0  0  0  0
 22 23  2  0  0  0  0
 23 25  1  0  0  0  0
 24 23  1  0  0  0  0
 25 26  2  0  0  0  0
 26 16  1  0  0  0  0
M  END
>  <minimizedAffinity>
-4.69385767

>  <minimizedRMSD>
3.24242806

$$$$
