
 OpenBabel03272501083D

 43 47  0  0  1  0  0  0  0  0999 V2000
   40.5720   31.5130   44.7640 Cl  0  0  0  0  0  0  0  0  0  0  0  0
   38.9620   30.8680   44.6310 C   0  0  0  0  0  0  0  0  0  0  0  0
   38.0640   31.3650   45.5590 C   0  0  0  0  0  0  0  0  0  0  0  0
   36.7790   30.8500   45.4580 C   0  0  0  0  0  0  0  0  0  0  0  0
   36.4150   29.9170   44.5140 C   0  0  0  0  0  0  0  0  0  0  0  0
   37.3590   29.4710   43.6270 C   0  0  0  0  0  0  0  0  0  0  0  0
   38.6690   29.9330   43.6570 C   0  0  0  0  0  0  0  0  0  0  0  0
   35.9510   31.1240   46.1000 H   0  0  0  0  0  0  0  0  0  0  0  0
   35.4240   29.5000   44.4130 H   0  0  0  0  0  0  0  0  0  0  0  0
   37.1790   28.7320   42.8360 H   0  0  0  0  0  0  0  0  0  0  0  0
   39.7250   29.5390   42.7860 N   0  0  0  0  0  0  0  0  0  0  0  0
   40.9660   30.0420   42.6540 C   0  0  0  0  0  0  0  0  0  0  0  0
   41.3650   30.8760   43.2290 H   0  0  0  0  0  0  0  0  0  0  0  0
   41.5730   29.3190   41.6950 N   0  0  0  0  0  0  0  0  0  0  0  0
   40.7280   28.3820   41.2370 C   0  0  0  0  0  0  0  0  0  0  0  0
   40.8370   27.3840   40.2660 C   0  0  0  0  0  0  0  0  0  0  0  0
   41.7680   27.2760   39.7180 H   0  0  0  0  0  0  0  0  0  0  0  0
   39.8070   26.5400   39.9830 N   0  0  0  0  0  0  0  0  0  0  0  0
   38.6690   26.7060   40.6830 C   0  0  0  0  0  0  0  0  0  0  0  0
   37.7500   26.1210   40.5840 H   0  0  0  0  0  0  0  0  0  0  0  0
   38.5280   27.6570   41.6260 N   0  0  0  0  0  0  0  0  0  0  0  0
   39.5250   28.5140   41.9370 C   0  0  0  0  0  0  0  0  0  0  0  0
   38.1770   32.2610   46.5600 O   0  0  0  0  0  0  0  0  0  0  0  0
   38.9130   32.4040   47.6870 C   0  0  2  0  0  0  0  0  0  0  0  0
   38.0270   32.7200   48.9320 C   0  0  2  0  0  0  0  0  0  0  0  0
   38.9770   33.4440   49.7650 C   0  0  0  0  0  0  0  0  0  0  0  0
   39.7810   34.2110   48.9350 O   0  0  0  0  0  0  0  0  0  0  0  0
   39.6040   33.7980   47.6540 C   0  0  0  0  0  0  0  0  0  0  0  0
   39.6630   31.6620   47.9500 H   0  0  0  0  0  0  0  0  0  0  0  0
   37.2440   33.3980   48.5330 H   0  0  0  0  0  0  0  0  0  0  0  0
   39.6540   32.8520   50.3840 H   0  0  0  0  0  0  0  0  0  0  0  0
   38.4230   34.1510   50.4240 H   0  0  0  0  0  0  0  0  0  0  0  0
   40.5900   33.6790   47.1480 H   0  0  0  0  0  0  0  0  0  0  0  0
   38.9700   34.4520   47.0310 H   0  0  0  0  0  0  0  0  0  0  0  0
   37.3500   29.6170   50.9450 C   0  0  0  0  0  0  0  0  0  0  0  0
   38.0320   30.7730   50.4720 C   0  0  0  0  0  0  0  0  0  0  0  0
   37.3880   31.5420   49.4620 C   0  0  0  0  0  0  0  0  0  0  0  0
   36.1590   31.1400   48.9960 N   0  0  0  0  0  0  0  0  0  0  0  0
   35.5610   30.0450   49.4710 C   0  0  0  0  0  0  0  0  0  0  0  0
   36.1370   29.2780   50.4380 N   0  0  0  0  0  0  0  0  0  0  0  0
   37.8440   29.0390   51.7110 H   0  0  0  0  0  0  0  0  0  0  0  0
   38.9980   31.0410   50.8760 H   0  0  0  0  0  0  0  0  0  0  0  0
   34.6090   29.6630   49.1650 H   0  0  0  0  0  0  0  0  0  0  0  0
  2  1  1  0  0  0  0
  2  3  1  0  0  0  0
  3 23  1  0  0  0  0
  4  3  2  0  0  0  0
  4  8  1  0  0  0  0
  5  4  1  0  0  0  0
  6  7  1  0  0  0  0
  6  5  2  0  0  0  0
  7  2  2  0  0  0  0
  9  5  1  0  0  0  0
 10  6  1  0  0  0  0
 11  7  1  0  0  0  0
 12 11  1  0  0  0  0
 12 13  1  0  0  0  0
 14 12  2  0  0  0  0
 15 14  1  0  0  0  0
 15 22  1  0  0  0  0
 16 15  2  0  0  0  0
 17 16  1  0  0  0  0
 18 16  1  0  0  0  0
 18 19  2  0  0  0  0
 19 21  1  0  0  0  0
 20 19  1  0  0  0  0
 21 22  2  0  0  0  0
 22 11  1  0  0  0  0
 23 24  1  0  0  0  0
 24 29  1  1  0  0  0
 24 25  1  0  0  0  0
 25 30  1  6  0  0  0
 25 37  1  0  0  0  0
 25 26  1  0  0  0  0
 26 31  1  0  0  0  0
 26 32  1  0  0  0  0
 27 26  1  0  0  0  0
 28 24  1  0  0  0  0
 28 27  1  0  0  0  0
 33 28  1  0  0  0  0
 34 28  1  0  0  0  0
 35 41  1  0  0  0  0
 36 42  1  0  0  0  0
 36 35  1  0  0  0  0
 37 36  2  0  0  0  0
 38 37  1  0  0  0  0
 38 39  2  0  0  0  0
 39 40  1  0  0  0  0
 40 35  2  0  0  0  0
 43 39  1  0  0  0  0
M  END
>  <minimizedAffinity>
-6.40199852

>  <minimizedRMSD>
0.741172433

$$$$
