
 OpenBabel03272508083D

 27 29  0  0  0  0  0  0  0  0999 V2000
   38.9210   32.9590   48.1710 O   0  0  0  0  0  0  0  0  0  0  0  0
   38.6620   31.8780   47.1660 P   0  0  2  0  0  0  0  0  0  0  0  0
   37.5700   32.4490   45.9840 O   0  0  0  0  0  0  0  0  0  0  0  0
   37.5320   33.4270   46.0350 H   0  0  0  0  0  0  0  0  0  0  0  0
   38.1500   30.4200   47.8170 O   0  0  0  0  0  0  0  0  0  0  0  0
   37.3080   30.2150   51.4160 C   0  0  0  0  0  0  0  0  0  0  0  0
   38.0540   30.5800   50.2900 C   0  0  0  0  0  0  0  0  0  0  0  0
   37.5970   30.1840   49.0420 C   0  0  0  0  0  0  0  0  0  0  0  0
   36.4370   29.4550   48.9690 N   0  0  0  0  0  0  0  0  0  0  0  0
   35.7510   29.1260   50.0870 C   0  0  0  0  0  0  0  0  0  0  0  0
   36.1850   29.5050   51.3000 N   0  0  0  0  0  0  0  0  0  0  0  0
   37.6900   30.5360   52.3630 H   0  0  0  0  0  0  0  0  0  0  0  0
   38.9610   31.1420   50.2750 H   0  0  0  0  0  0  0  0  0  0  0  0
   34.8260   28.5420   49.9880 H   0  0  0  0  0  0  0  0  0  0  0  0
   40.1220   31.6130   46.3350 O   0  0  0  0  0  0  0  0  0  0  0  0
   38.6040   29.4200   45.5070 H   0  0  0  0  0  0  0  0  0  0  0  0
   39.2890   29.8280   44.8360 N   0  0  0  0  0  0  0  0  0  0  0  0
   40.0750   30.8930   45.1370 C   0  0  0  0  0  0  0  0  0  0  0  0
   40.7930   31.0860   44.0110 N   0  0  0  0  0  0  0  0  0  0  0  0
   40.4820   30.2050   43.0650 C   0  0  0  0  0  0  0  0  0  0  0  0
   40.8580   29.9120   41.7680 C   0  0  0  0  0  0  0  0  0  0  0  0
   41.6170   30.5250   41.3090 H   0  0  0  0  0  0  0  0  0  0  0  0
   40.3120   28.9030   41.0760 N   0  0  0  0  0  0  0  0  0  0  0  0
   39.3550   28.1360   41.6600 C   0  0  0  0  0  0  0  0  0  0  0  0
   38.8990   27.3040   41.1000 H   0  0  0  0  0  0  0  0  0  0  0  0
   38.9520   28.3780   42.9220 N   0  0  0  0  0  0  0  0  0  0  0  0
   39.5110   29.3940   43.5980 C   0  0  0  0  0  0  0  0  0  0  0  0
  2  5  1  0  0  0  0
  2  1  2  1  0  0  0
  3  4  1  0  0  0  0
  3  2  1  0  0  0  0
  5  8  1  0  0  0  0
  6 12  1  0  0  0  0
  7  6  2  0  0  0  0
  8  7  1  0  0  0  0
  9  8  2  0  0  0  0
  9 10  1  0  0  0  0
 10 11  2  0  0  0  0
 11  6  1  0  0  0  0
 13  7  1  0  0  0  0
 14 10  1  0  0  0  0
 15  2  1  0  0  0  0
 17 18  1  0  0  0  0
 17 16  1  0  0  0  0
 18 15  1  0  0  0  0
 19 18  2  0  0  0  0
 20 27  1  0  0  0  0
 20 19  1  0  0  0  0
 21 20  2  0  0  0  0
 22 21  1  0  0  0  0
 23 24  2  0  0  0  0
 23 21  1  0  0  0  0
 24 26  1  0  0  0  0
 25 24  1  0  0  0  0
 26 27  2  0  0  0  0
 27 17  1  0  0  0  0
M  END
>  <minimizedAffinity>
-5.7525959

>  <minimizedRMSD>
1.05451941

$$$$
