
 OpenBabel03262520273D

 23 25  0  0  0  0  0  0  0  0999 V2000
   38.2410   32.7020   49.5750 C   0  0  0  0  0  0  0  0  0  0  0  0
   38.7370   33.0340   48.3050 C   0  0  0  0  0  0  0  0  0  0  0  0
   38.2830   32.2810   47.2330 C   0  0  0  0  0  0  0  0  0  0  0  0
   37.3910   31.2680   47.4430 N   0  0  0  0  0  0  0  0  0  0  0  0
   36.9410   30.9820   48.6760 C   0  0  0  0  0  0  0  0  0  0  0  0
   37.3630   31.6920   49.7240 N   0  0  0  0  0  0  0  0  0  0  0  0
   38.7940   32.6290   45.9510 N   0  0  0  0  0  0  0  0  0  0  0  0
   38.6110   33.3020   50.3970 H   0  0  0  0  0  0  0  0  0  0  0  0
   39.4450   33.8500   48.2050 H   0  0  0  0  0  0  0  0  0  0  0  0
   38.4170   33.5700   45.6660 H   0  0  0  0  0  0  0  0  0  0  0  0
   39.4010   31.8710   45.6320 H   0  0  0  0  0  0  0  0  0  0  0  0
   36.0090   29.9240   48.8950 N   0  0  0  0  0  0  0  0  0  0  0  0
   35.9600   28.9250   49.8200 C   0  0  0  0  0  0  0  0  0  0  0  0
   36.7180   28.8250   50.5740 H   0  0  0  0  0  0  0  0  0  0  0  0
   34.8690   28.1690   49.6080 N   0  0  0  0  0  0  0  0  0  0  0  0
   34.1920   28.6570   48.5490 C   0  0  0  0  0  0  0  0  0  0  0  0
   33.0200   28.2450   47.9330 C   0  0  0  0  0  0  0  0  0  0  0  0
   32.4490   27.3800   48.2760 H   0  0  0  0  0  0  0  0  0  0  0  0
   32.5820   28.9640   46.8580 N   0  0  0  0  0  0  0  0  0  0  0  0
   33.2810   30.0320   46.4280 C   0  0  0  0  0  0  0  0  0  0  0  0
   32.9930   30.6530   45.5770 H   0  0  0  0  0  0  0  0  0  0  0  0
   34.4170   30.4090   47.0450 N   0  0  0  0  0  0  0  0  0  0  0  0
   34.9080   29.7510   48.1080 C   0  0  0  0  0  0  0  0  0  0  0  0
  1  6  1  0  0  0  0
  1  8  1  0  0  0  0
  2  1  2  0  0  0  0
  3  4  2  0  0  0  0
  3  2  1  0  0  0  0
  4  5  1  0  0  0  0
  5 12  1  0  0  0  0
  5  6  2  0  0  0  0
  7  3  1  0  0  0  0
  9  2  1  0  0  0  0
 10  7  1  0  0  0  0
 11  7  1  0  0  0  0
 12 13  1  0  0  0  0
 13 14  1  0  0  0  0
 15 13  2  0  0  0  0
 16 15  1  0  0  0  0
 17 18  1  0  0  0  0
 17 16  2  0  0  0  0
 19 17  1  0  0  0  0
 20 19  2  0  0  0  0
 20 22  1  0  0  0  0
 21 20  1  0  0  0  0
 22 23  2  0  0  0  0
 23 16  1  0  0  0  0
 23 12  1  0  0  0  0
M  END
>  <minimizedAffinity>
-5.30402184

>  <minimizedRMSD>
2.23764992

$$$$
