
 OpenBabel03272503563D

 37 41  0  0  0  0  0  0  0  0999 V2000
   37.3620   30.0960   50.7660 C   0  0  0  0  0  0  0  0  0  0  0  0
   38.2510   30.9280   50.0420 C   0  0  0  0  0  0  0  0  0  0  0  0
   37.8930   31.1980   48.7420 C   0  0  0  0  0  0  0  0  0  0  0  0
   36.7740   30.6770   48.2720 N   0  0  0  0  0  0  0  0  0  0  0  0
   35.9200   29.9010   48.9080 C   0  0  0  0  0  0  0  0  0  0  0  0
   36.2830   29.6510   50.1620 N   0  0  0  0  0  0  0  0  0  0  0  0
   39.1380   31.2980   50.5270 H   0  0  0  0  0  0  0  0  0  0  0  0
   38.7140   32.0210   47.9290 N   0  0  0  0  0  0  0  0  0  0  0  0
   39.0640   33.2700   48.3280 C   0  0  0  0  0  0  0  0  0  0  0  0
   38.8370   33.8460   49.2160 H   0  0  0  0  0  0  0  0  0  0  0  0
   39.8510   33.8530   47.3790 N   0  0  0  0  0  0  0  0  0  0  0  0
   40.0090   32.9830   46.3720 C   0  0  0  0  0  0  0  0  0  0  0  0
   40.6590   32.9240   45.1390 C   0  0  0  0  0  0  0  0  0  0  0  0
   41.2180   33.8120   44.8600 H   0  0  0  0  0  0  0  0  0  0  0  0
   40.6010   31.8390   44.3480 N   0  0  0  0  0  0  0  0  0  0  0  0
   39.8890   30.7740   44.7610 C   0  0  0  0  0  0  0  0  0  0  0  0
   39.9030   29.9530   44.0560 H   0  0  0  0  0  0  0  0  0  0  0  0
   39.2260   30.7490   45.9460 N   0  0  0  0  0  0  0  0  0  0  0  0
   39.2960   31.8510   46.7300 C   0  0  0  0  0  0  0  0  0  0  0  0
   34.6630   29.2650   48.5260 C   0  0  0  0  0  0  0  0  0  0  0  0
   33.8580   28.6320   49.4170 N   0  0  0  0  0  0  0  0  0  0  0  0
   32.7080   28.0590   49.0570 C   0  0  0  0  0  0  0  0  0  0  0  0
   32.2360   28.0480   47.7990 N   0  0  0  0  0  0  0  0  0  0  0  0
   32.9840   28.6580   46.8680 C   0  0  0  0  0  0  0  0  0  0  0  0
   32.5120   28.6550   45.5810 C   0  0  0  0  0  0  0  0  0  0  0  0
   33.2390   29.2680   44.5700 C   0  0  0  0  0  0  0  0  0  0  0  0
   34.4360   29.8660   44.9360 C   0  0  0  0  0  0  0  0  0  0  0  0
   34.8600   29.8390   46.2430 C   0  0  0  0  0  0  0  0  0  0  0  0
   34.1630   29.2430   47.2520 C   0  0  0  0  0  0  0  0  0  0  0  0
   32.0680   27.5490   49.7980 H   0  0  0  0  0  0  0  0  0  0  0  0
   31.5720   28.1740   45.3470 H   0  0  0  0  0  0  0  0  0  0  0  0
   32.8630   29.2620   43.5650 H   0  0  0  0  0  0  0  0  0  0  0  0
   34.9600   30.3290   44.1110 H   0  0  0  0  0  0  0  0  0  0  0  0
   35.8060   30.3410   46.3590 H   0  0  0  0  0  0  0  0  0  0  0  0
   37.6040   29.7270   52.1470 N   0  0  0  0  0  0  0  0  0  0  0  0
   37.1730   30.0790   53.0320 H   0  0  0  0  0  0  0  0  0  0  0  0
   38.2960   29.0040   52.4720 H   0  0  0  0  0  0  0  0  0  0  0  0
  1 35  1  0  0  0  0
  2  7  1  0  0  0  0
  2  1  2  0  0  0  0
  3  2  1  0  0  0  0
  4  3  2  0  0  0  0
  4  5  1  0  0  0  0
  5  6  2  0  0  0  0
  6  1  1  0  0  0  0
  8  9  1  0  0  0  0
  8  3  1  0  0  0  0
  9 10  1  0  0  0  0
 11  9  2  0  0  0  0
 12 19  1  0  0  0  0
 12 11  1  0  0  0  0
 13 12  2  0  0  0  0
 14 13  1  0  0  0  0
 15 16  2  0  0  0  0
 15 13  1  0  0  0  0
 16 18  1  0  0  0  0
 17 16  1  0  0  0  0
 18 19  2  0  0  0  0
 19  8  1  0  0  0  0
 20  5  1  0  0  0  0
 20 21  1  0  0  0  0
 22 21  2  0  0  0  0
 22 30  1  0  0  0  0
 23 22  1  0  0  0  0
 24 29  1  0  0  0  0
 24 23  2  0  0  0  0
 25 24  1  0  0  0  0
 26 27  1  0  0  0  0
 26 25  2  0  0  0  0
 27 28  2  0  0  0  0
 28 34  1  0  0  0  0
 28 29  1  0  0  0  0
 29 20  2  0  0  0  0
 31 25  1  0  0  0  0
 32 26  1  0  0  0  0
 33 27  1  0  0  0  0
 35 37  1  0  0  0  0
 35 36  1  0  0  0  0
M  END
>  <minimizedAffinity>
-7.55068827

>  <minimizedRMSD>
0.943403542

$$$$
