
 OpenBabel03272505583D

 47 51  0  0  1  0  0  0  0  0999 V2000
   35.1890   30.3150   50.0150 C   0  0  2  0  0  0  0  0  0  0  0  0
   36.1270   31.2280   49.3160 C   0  0  0  0  0  0  0  0  0  0  0  0
   37.5850   30.7490   49.3970 C   0  0  2  0  0  0  0  0  0  0  0  0
   38.0700   30.5330   50.7560 C   0  0  0  0  0  0  0  0  0  0  0  0
   37.0370   29.8970   51.6780 C   0  0  0  0  0  0  0  0  0  0  0  0
   35.8830   29.3190   50.9130 C   0  0  0  0  0  0  0  0  0  0  0  0
   34.4760   30.8890   50.6800 H   0  0  0  0  0  0  0  0  0  0  0  0
   36.1360   32.2290   49.8630 H   0  0  0  0  0  0  0  0  0  0  0  0
   36.0160   31.4680   48.2860 H   0  0  0  0  0  0  0  0  0  0  0  0
   37.6660   29.8600   48.7580 H   0  0  0  0  0  0  0  0  0  0  0  0
   39.0110   29.9470   50.7320 H   0  0  0  0  0  0  0  0  0  0  0  0
   38.3350   31.4910   51.2420 H   0  0  0  0  0  0  0  0  0  0  0  0
   36.7240   30.5530   52.5030 H   0  0  0  0  0  0  0  0  0  0  0  0
   37.5410   29.0340   52.1610 H   0  0  0  0  0  0  0  0  0  0  0  0
   35.1470   28.9670   51.6550 H   0  0  0  0  0  0  0  0  0  0  0  0
   36.2120   28.4720   50.3000 H   0  0  0  0  0  0  0  0  0  0  0  0
   37.9040   30.4790   46.4760 Cl  0  0  0  0  0  0  0  0  0  0  0  0
   38.5990   31.8130   47.3810 C   0  0  0  0  0  0  0  0  0  0  0  0
   38.3530   31.8500   48.7440 C   0  0  0  0  0  0  0  0  0  0  0  0
   38.9210   32.9430   49.3590 C   0  0  0  0  0  0  0  0  0  0  0  0
   39.6550   33.8930   48.6790 C   0  0  0  0  0  0  0  0  0  0  0  0
   39.8550   33.7810   47.3080 C   0  0  0  0  0  0  0  0  0  0  0  0
   39.3020   32.6960   46.6410 C   0  0  0  0  0  0  0  0  0  0  0  0
   38.7750   33.0550   50.4240 H   0  0  0  0  0  0  0  0  0  0  0  0
   40.0640   34.7230   49.2590 H   0  0  0  0  0  0  0  0  0  0  0  0
   40.4290   34.5320   46.8020 H   0  0  0  0  0  0  0  0  0  0  0  0
   39.5040   32.5770   45.2380 N   0  0  0  0  0  0  0  0  0  0  0  0
   39.6230   33.7200   44.5100 C   0  0  0  0  0  0  0  0  0  0  0  0
   39.5940   34.7680   44.8010 H   0  0  0  0  0  0  0  0  0  0  0  0
   39.8070   33.4110   43.2200 N   0  0  0  0  0  0  0  0  0  0  0  0
   39.8100   32.0830   43.0920 C   0  0  0  0  0  0  0  0  0  0  0  0
   39.9410   31.1370   42.1100 C   0  0  0  0  0  0  0  0  0  0  0  0
   40.0920   31.4850   41.0970 H   0  0  0  0  0  0  0  0  0  0  0  0
   39.8840   29.8320   42.4050 N   0  0  0  0  0  0  0  0  0  0  0  0
   39.6960   29.3750   43.6610 C   0  0  0  0  0  0  0  0  0  0  0  0
   39.6690   28.2990   43.7570 H   0  0  0  0  0  0  0  0  0  0  0  0
   39.5590   30.2550   44.6790 N   0  0  0  0  0  0  0  0  0  0  0  0
   39.6180   31.5630   44.3720 C   0  0  0  0  0  0  0  0  0  0  0  0
   34.3300   29.5560   49.0930 C   0  0  0  0  0  0  0  0  0  0  0  0
   34.3310   30.0090   47.7730 C   0  0  0  0  0  0  0  0  0  0  0  0
   33.5400   29.3120   46.8490 C   0  0  0  0  0  0  0  0  0  0  0  0
   32.8010   28.2180   47.2860 N   0  0  0  0  0  0  0  0  0  0  0  0
   32.8330   27.8180   48.5720 C   0  0  0  0  0  0  0  0  0  0  0  0
   33.5930   28.4970   49.4340 N   0  0  0  0  0  0  0  0  0  0  0  0
   34.7630   30.7830   47.1650 H   0  0  0  0  0  0  0  0  0  0  0  0
   33.3590   29.4340   45.8110 H   0  0  0  0  0  0  0  0  0  0  0  0
   32.2660   26.9730   48.9260 H   0  0  0  0  0  0  0  0  0  0  0  0
  1  7  1  1  0  0  0
  1  6  1  0  0  0  0
  2  3  1  0  0  0  0
  2  8  1  0  0  0  0
  2  1  1  0  0  0  0
  3 10  1  6  0  0  0
  3  4  1  0  0  0  0
  4 12  1  0  0  0  0
  4  5  1  0  0  0  0
  5 14  1  0  0  0  0
  5 13  1  0  0  0  0
  6 15  1  0  0  0  0
  6  5  1  0  0  0  0
  9  2  1  0  0  0  0
 11  4  1  0  0  0  0
 16  6  1  0  0  0  0
 17 18  1  0  0  0  0
 18 19  1  0  0  0  0
 19 20  2  0  0  0  0
 19  3  1  0  0  0  0
 20 24  1  0  0  0  0
 21 25  1  0  0  0  0
 21 20  1  0  0  0  0
 22 21  2  0  0  0  0
 23 22  1  0  0  0  0
 23 18  2  0  0  0  0
 26 22  1  0  0  0  0
 27 23  1  0  0  0  0
 28 29  1  0  0  0  0
 28 27  1  0  0  0  0
 30 28  2  0  0  0  0
 31 30  1  0  0  0  0
 31 38  1  0  0  0  0
 32 34  1  0  0  0  0
 32 31  2  0  0  0  0
 33 32  1  0  0  0  0
 34 35  2  0  0  0  0
 35 36  1  0  0  0  0
 35 37  1  0  0  0  0
 38 37  2  0  0  0  0
 38 27  1  0  0  0  0
 39 44  1  0  0  0  0
 39  1  1  0  0  0  0
 40 39  2  0  0  0  0
 41 42  2  0  0  0  0
 41 40  1  0  0  0  0
 42 43  1  0  0  0  0
 43 47  1  0  0  0  0
 43 44  2  0  0  0  0
 45 40  1  0  0  0  0
 46 41  1  0  0  0  0
M  END
>  <minimizedAffinity>
-8.02552128

>  <minimizedRMSD>
0.639321506

$$$$
