
 OpenBabel03272506233D

 34 37  0  0  0  0  0  0  0  0999 V2000
   36.6730   29.1370   43.1540 C   0  0  0  0  0  0  0  0  0  0  0  0
   36.6150   28.2580   42.1030 C   0  0  0  0  0  0  0  0  0  0  0  0
   37.6820   27.5140   41.6430 C   0  0  0  0  0  0  0  0  0  0  0  0
   38.9330   27.6660   42.3010 C   0  0  0  0  0  0  0  0  0  0  0  0
   38.9880   28.5550   43.3620 C   0  0  0  0  0  0  0  0  0  0  0  0
   37.9040   29.2830   43.7970 C   0  0  0  0  0  0  0  0  0  0  0  0
   35.6960   28.0900   41.5560 H   0  0  0  0  0  0  0  0  0  0  0  0
   37.6040   26.8280   40.8110 H   0  0  0  0  0  0  0  0  0  0  0  0
   39.7710   27.0950   41.9540 H   0  0  0  0  0  0  0  0  0  0  0  0
   39.9370   28.6880   43.8810 H   0  0  0  0  0  0  0  0  0  0  0  0
   37.9440   30.1970   44.8810 N   0  0  0  0  0  0  0  0  0  0  0  0
   37.2410   30.2870   46.0460 C   0  0  0  0  0  0  0  0  0  0  0  0
   36.4700   29.5290   46.2480 H   0  0  0  0  0  0  0  0  0  0  0  0
   37.6630   31.3550   46.7510 N   0  0  0  0  0  0  0  0  0  0  0  0
   38.6520   31.9720   46.0450 C   0  0  0  0  0  0  0  0  0  0  0  0
   39.3690   33.0970   46.3830 C   0  0  0  0  0  0  0  0  0  0  0  0
   39.1660   33.6010   47.3180 H   0  0  0  0  0  0  0  0  0  0  0  0
   40.2980   33.4740   45.4670 N   0  0  0  0  0  0  0  0  0  0  0  0
   40.4640   32.7610   44.3250 C   0  0  0  0  0  0  0  0  0  0  0  0
   41.2400   33.1460   43.6480 H   0  0  0  0  0  0  0  0  0  0  0  0
   39.7630   31.6610   43.9960 N   0  0  0  0  0  0  0  0  0  0  0  0
   38.8260   31.2400   44.8680 C   0  0  0  0  0  0  0  0  0  0  0  0
   34.4990   29.1130   44.2840 C   0  0  0  0  0  0  0  0  0  0  0  0
   35.4520   29.8310   43.4980 C   0  0  0  0  0  0  0  0  0  0  0  0
   35.1230   31.1330   43.1310 C   0  0  0  0  0  0  0  0  0  0  0  0
   33.9310   31.6430   43.5370 N   0  0  0  0  0  0  0  0  0  0  0  0
   33.0430   30.9350   44.2860 C   0  0  0  0  0  0  0  0  0  0  0  0
   33.3410   29.6580   44.6580 N   0  0  0  0  0  0  0  0  0  0  0  0
   34.6940   28.0960   44.6020 H   0  0  0  0  0  0  0  0  0  0  0  0
   32.1320   31.4590   44.5390 H   0  0  0  0  0  0  0  0  0  0  0  0
   36.0070   31.9860   42.3250 C   0  0  0  0  0  0  0  0  0  0  0  0
   36.7250   32.8620   43.1650 F   0  0  0  0  0  0  0  0  0  0  0  0
   36.8900   31.3670   41.5050 F   0  0  0  0  0  0  0  0  0  0  0  0
   35.2520   32.8750   41.5490 F   0  0  0  0  0  0  0  0  0  0  0  0
  1 24  1  0  0  0  0
  1  6  1  0  0  0  0
  2  1  2  0  0  0  0
  3  2  1  0  0  0  0
  3  4  2  0  0  0  0
  4  5  1  0  0  0  0
  5  6  2  0  0  0  0
  5 10  1  0  0  0  0
  6 11  1  0  0  0  0
  7  2  1  0  0  0  0
  8  3  1  0  0  0  0
  9  4  1  0  0  0  0
 11 12  1  0  0  0  0
 12 13  1  0  0  0  0
 12 14  2  0  0  0  0
 15 16  1  0  0  0  0
 15 14  1  0  0  0  0
 16 17  1  0  0  0  0
 18 16  2  0  0  0  0
 19 18  1  0  0  0  0
 20 19  1  0  0  0  0
 21 19  2  0  0  0  0
 21 22  1  0  0  0  0
 22 11  1  0  0  0  0
 22 15  2  0  0  0  0
 23 29  1  0  0  0  0
 23 28  1  0  0  0  0
 24 23  2  0  0  0  0
 25 24  1  0  0  0  0
 25 26  2  0  0  0  0
 26 27  1  0  0  0  0
 27 30  1  0  0  0  0
 27 28  2  0  0  0  0
 31 25  1  0  0  0  0
 31 32  1  0  0  0  0
 33 31  1  0  0  0  0
 34 31  1  0  0  0  0
M  END
>  <minimizedAffinity>
-3.55570269

>  <minimizedRMSD>
6.49228954

$$$$
