
 OpenBabel03272504083D

 36 39  0  0  0  0  0  0  0  0999 V2000
   37.5480   30.6280   50.1550 C   0  0  0  0  0  0  0  0  0  0  0  0
   37.1700   30.6770   48.8280 C   0  0  0  0  0  0  0  0  0  0  0  0
   35.9240   30.1470   48.4160 C   0  0  0  0  0  0  0  0  0  0  0  0
   35.1350   29.5960   49.3770 N   0  0  0  0  0  0  0  0  0  0  0  0
   35.5480   29.5650   50.6910 C   0  0  0  0  0  0  0  0  0  0  0  0
   36.7500   30.0800   51.0740 N   0  0  0  0  0  0  0  0  0  0  0  0
   34.6480   28.9640   51.6350 N   0  0  0  0  0  0  0  0  0  0  0  0
   38.4900   31.0230   50.5060 H   0  0  0  0  0  0  0  0  0  0  0  0
   33.9030   29.4810   52.1750 H   0  0  0  0  0  0  0  0  0  0  0  0
   34.6810   27.9430   51.8490 H   0  0  0  0  0  0  0  0  0  0  0  0
   38.1400   33.5360   49.1750 Cl  0  0  0  0  0  0  0  0  0  0  0  0
   38.6410   32.5550   47.8450 C   0  0  0  0  0  0  0  0  0  0  0  0
   38.1050   31.2980   47.8630 C   0  0  0  0  0  0  0  0  0  0  0  0
   38.4640   30.4180   46.8170 C   0  0  0  0  0  0  0  0  0  0  0  0
   39.3030   30.7840   45.8190 C   0  0  0  0  0  0  0  0  0  0  0  0
   39.8290   32.0740   45.8310 C   0  0  0  0  0  0  0  0  0  0  0  0
   40.9150   32.5930   44.5690 Cl  0  0  0  0  0  0  0  0  0  0  0  0
   39.4900   32.9250   46.8350 C   0  0  0  0  0  0  0  0  0  0  0  0
   38.1170   29.3980   46.7300 H   0  0  0  0  0  0  0  0  0  0  0  0
   39.6020   30.1450   45.0000 H   0  0  0  0  0  0  0  0  0  0  0  0
   39.8740   33.9470   46.8930 H   0  0  0  0  0  0  0  0  0  0  0  0
   35.5320   30.2190   47.0220 C   0  0  0  0  0  0  0  0  0  0  0  0
   35.6110   31.3060   46.7260 H   0  0  0  0  0  0  0  0  0  0  0  0
   36.1430   29.6890   46.2860 H   0  0  0  0  0  0  0  0  0  0  0  0
   34.1340   29.7780   46.8800 N   0  0  0  0  0  0  0  0  0  0  0  0
   33.0880   30.5710   46.5930 C   0  0  0  0  0  0  0  0  0  0  0  0
   33.0970   31.6230   46.4230 H   0  0  0  0  0  0  0  0  0  0  0  0
   31.9620   29.8370   46.5420 N   0  0  0  0  0  0  0  0  0  0  0  0
   32.2870   28.5650   46.7990 C   0  0  0  0  0  0  0  0  0  0  0  0
   31.4960   27.4280   46.8640 C   0  0  0  0  0  0  0  0  0  0  0  0
   30.4250   27.4640   46.6960 H   0  0  0  0  0  0  0  0  0  0  0  0
   32.1540   26.2890   47.1490 N   0  0  0  0  0  0  0  0  0  0  0  0
   33.4780   26.2130   47.3610 C   0  0  0  0  0  0  0  0  0  0  0  0
   33.8900   25.2320   47.5820 H   0  0  0  0  0  0  0  0  0  0  0  0
   34.2570   27.3330   47.2960 N   0  0  0  0  0  0  0  0  0  0  0  0
   33.6700   28.5250   47.0140 C   0  0  0  0  0  0  0  0  0  0  0  0
  1  8  1  0  0  0  0
  1  6  1  0  0  0  0
  2  1  2  0  0  0  0
  3  2  1  0  0  0  0
  3  4  2  0  0  0  0
  4  5  1  0  0  0  0
  5  6  2  0  0  0  0
  5  7  1  0  0  0  0
  7 10  1  0  0  0  0
  7  9  1  0  0  0  0
 12 13  1  0  0  0  0
 12 11  1  0  0  0  0
 13  2  1  0  0  0  0
 14 13  2  0  0  0  0
 15 16  2  0  0  0  0
 15 14  1  0  0  0  0
 16 18  1  0  0  0  0
 17 16  1  0  0  0  0
 18 21  1  0  0  0  0
 18 12  2  0  0  0  0
 19 14  1  0  0  0  0
 20 15  1  0  0  0  0
 22  3  1  0  0  0  0
 23 22  1  0  0  0  0
 24 22  1  0  0  0  0
 25 36  1  0  0  0  0
 25 22  1  0  0  0  0
 26 25  1  0  0  0  0
 27 26  1  0  0  0  0
 28 26  2  0  0  0  0
 28 29  1  0  0  0  0
 29 30  2  0  0  0  0
 29 36  1  0  0  0  0
 30 32  1  0  0  0  0
 31 30  1  0  0  0  0
 32 33  2  0  0  0  0
 33 34  1  0  0  0  0
 35 33  1  0  0  0  0
 36 35  2  0  0  0  0
M  END
>  <minimizedAffinity>
-5.9783535

>  <minimizedRMSD>
1.28845394

$$$$
