
 OpenBabel03272506553D

 23 25  0  0  0  0  0  0  0  0999 V2000
   36.4250   29.6010   51.0100 C   0  0  0  0  0  0  0  0  0  0  0  0
   37.2480   30.0360   49.9540 C   0  0  0  0  0  0  0  0  0  0  0  0
   36.7260   29.8450   48.6460 C   0  0  0  0  0  0  0  0  0  0  0  0
   35.4950   29.2670   48.5140 N   0  0  0  0  0  0  0  0  0  0  0  0
   34.7660   28.8780   49.5670 C   0  0  0  0  0  0  0  0  0  0  0  0
   35.2120   29.0350   50.8290 N   0  0  0  0  0  0  0  0  0  0  0  0
   36.7920   29.7310   52.0320 H   0  0  0  0  0  0  0  0  0  0  0  0
   37.3180   30.1610   47.8220 H   0  0  0  0  0  0  0  0  0  0  0  0
   33.5130   28.3010   49.1850 N   0  0  0  0  0  0  0  0  0  0  0  0
   32.2870   28.5900   49.6610 C   0  0  0  0  0  0  0  0  0  0  0  0
   32.1130   29.3430   50.4380 H   0  0  0  0  0  0  0  0  0  0  0  0
   31.3710   27.8240   49.0390 N   0  0  0  0  0  0  0  0  0  0  0  0
   32.0040   27.0230   48.1440 C   0  0  0  0  0  0  0  0  0  0  0  0
   31.4690   26.0800   47.2870 C   0  0  0  0  0  0  0  0  0  0  0  0
   30.4260   25.8790   47.2480 H   0  0  0  0  0  0  0  0  0  0  0  0
   32.3780   25.4310   46.5020 N   0  0  0  0  0  0  0  0  0  0  0  0
   33.6950   25.7260   46.5930 C   0  0  0  0  0  0  0  0  0  0  0  0
   34.3910   25.1870   45.9500 H   0  0  0  0  0  0  0  0  0  0  0  0
   34.1520   26.6450   47.4380 N   0  0  0  0  0  0  0  0  0  0  0  0
   33.3600   27.3420   48.2530 C   0  0  0  0  0  0  0  0  0  0  0  0
   38.5210   30.6280   50.2030 N   0  0  0  0  0  0  0  0  0  0  0  0
   38.5510   31.4010   50.9280 H   0  0  0  0  0  0  0  0  0  0  0  0
   39.3610   30.2950   49.6820 H   0  0  0  0  0  0  0  0  0  0  0  0
  1  7  1  0  0  0  0
  2 21  1  0  0  0  0
  2  1  2  0  0  0  0
  3  2  1  0  0  0  0
  4  3  2  0  0  0  0
  4  5  1  0  0  0  0
  5  6  2  0  0  0  0
  6  1  1  0  0  0  0
  8  3  1  0  0  0  0
  9  5  1  0  0  0  0
  9 10  1  0  0  0  0
 10 11  1  0  0  0  0
 12 10  2  0  0  0  0
 13 20  1  0  0  0  0
 13 12  1  0  0  0  0
 14 13  2  0  0  0  0
 15 14  1  0  0  0  0
 16 17  2  0  0  0  0
 16 14  1  0  0  0  0
 17 19  1  0  0  0  0
 18 17  1  0  0  0  0
 19 20  2  0  0  0  0
 20  9  1  0  0  0  0
 21 22  1  0  0  0  0
 23 21  1  0  0  0  0
M  END
>  <minimizedAffinity>
-4.17343712

>  <minimizedRMSD>
0.602331221

$$$$
