
 OpenBabel03272508083D

 27 29  0  0  0  0  0  0  0  0999 V2000
   38.9900   32.8330   48.1340 O   0  0  0  0  0  0  0  0  0  0  0  0
   38.6530   31.7830   47.1200 P   0  0  2  0  0  0  0  0  0  0  0  0
   37.6210   32.4470   45.9330 O   0  0  0  0  0  0  0  0  0  0  0  0
   37.6630   33.4250   45.9900 H   0  0  0  0  0  0  0  0  0  0  0  0
   38.0180   30.3670   47.7580 O   0  0  0  0  0  0  0  0  0  0  0  0
   37.3240   30.1980   51.3900 C   0  0  0  0  0  0  0  0  0  0  0  0
   38.0310   30.5380   50.2320 C   0  0  0  0  0  0  0  0  0  0  0  0
   37.5110   30.1510   49.0060 C   0  0  0  0  0  0  0  0  0  0  0  0
   36.3300   29.4530   48.9850 N   0  0  0  0  0  0  0  0  0  0  0  0
   35.6830   29.1470   50.1320 C   0  0  0  0  0  0  0  0  0  0  0  0
   36.1780   29.5180   51.3240 N   0  0  0  0  0  0  0  0  0  0  0  0
   37.7530   30.5120   52.3190 H   0  0  0  0  0  0  0  0  0  0  0  0
   38.9510   31.0760   50.1770 H   0  0  0  0  0  0  0  0  0  0  0  0
   34.7400   28.5870   50.0750 H   0  0  0  0  0  0  0  0  0  0  0  0
   40.0940   31.4040   46.2990 O   0  0  0  0  0  0  0  0  0  0  0  0
   41.8810   31.1770   44.1660 H   0  0  0  0  0  0  0  0  0  0  0  0
   40.9370   30.7430   44.0700 N   0  0  0  0  0  0  0  0  0  0  0  0
   39.9950   30.7950   45.0450 C   0  0  0  0  0  0  0  0  0  0  0  0
   38.9530   30.1240   44.5140 N   0  0  0  0  0  0  0  0  0  0  0  0
   39.2180   29.6790   43.2900 C   0  0  0  0  0  0  0  0  0  0  0  0
   38.5790   28.9650   42.2940 C   0  0  0  0  0  0  0  0  0  0  0  0
   37.5700   28.6300   42.4770 H   0  0  0  0  0  0  0  0  0  0  0  0
   39.1710   28.6810   41.1260 N   0  0  0  0  0  0  0  0  0  0  0  0
   40.4430   29.1050   40.9020 C   0  0  0  0  0  0  0  0  0  0  0  0
   40.9390   28.8770   39.9460 H   0  0  0  0  0  0  0  0  0  0  0  0
   41.1090   29.8050   41.8400 N   0  0  0  0  0  0  0  0  0  0  0  0
   40.4990   30.0800   43.0030 C   0  0  0  0  0  0  0  0  0  0  0  0
  2  5  1  0  0  0  0
  2  1  2  1  0  0  0
  3  4  1  0  0  0  0
  3  2  1  0  0  0  0
  5  8  1  0  0  0  0
  6 12  1  0  0  0  0
  7  6  2  0  0  0  0
  8  7  1  0  0  0  0
  9  8  2  0  0  0  0
  9 10  1  0  0  0  0
 10 11  2  0  0  0  0
 11  6  1  0  0  0  0
 13  7  1  0  0  0  0
 14 10  1  0  0  0  0
 15  2  1  0  0  0  0
 17 16  1  0  0  0  0
 17 18  1  0  0  0  0
 18 15  1  0  0  0  0
 19 18  2  0  0  0  0
 20 19  1  0  0  0  0
 21 22  1  0  0  0  0
 21 20  2  0  0  0  0
 23 21  1  0  0  0  0
 24 23  2  0  0  0  0
 24 26  1  0  0  0  0
 25 24  1  0  0  0  0
 26 27  2  0  0  0  0
 27 20  1  0  0  0  0
 27 17  1  0  0  0  0
M  END
>  <minimizedAffinity>
-5.73406219

>  <minimizedRMSD>
1.17787528

$$$$
