
 OpenBabel03262522463D

 40 44  0  0  1  0  0  0  0  0999 V2000
   35.4740   25.7320   31.1240 C   0  0  0  0  0  0  0  0  0  0  0  0
   36.5560   25.9860   32.0670 C   0  0  0  0  0  0  0  0  0  0  0  0
   37.2260   24.9240   32.6050 C   0  0  0  0  0  0  0  0  0  0  0  0
   36.8260   23.6600   32.2170 N   0  0  0  0  0  0  0  0  0  0  0  0
   35.8170   23.4500   31.3430 C   0  0  0  0  0  0  0  0  0  0  0  0
   35.1580   24.4770   30.8060 N   0  0  0  0  0  0  0  0  0  0  0  0
   35.4050   22.1460   31.0200 N   0  0  0  0  0  0  0  0  0  0  0  0
   34.9950   26.6180   30.7390 H   0  0  0  0  0  0  0  0  0  0  0  0
   34.5500   21.8570   31.5600 H   0  0  0  0  0  0  0  0  0  0  0  0
   36.0260   21.7050   30.3000 H   0  0  0  0  0  0  0  0  0  0  0  0
   38.2990   25.0260   33.5280 N   0  0  0  0  0  0  0  0  0  0  0  0
   39.1980   26.0440   33.6590 C   0  0  0  0  0  0  0  0  0  0  0  0
   39.2270   26.9540   33.0630 H   0  0  0  0  0  0  0  0  0  0  0  0
   40.0430   25.7200   34.6610 N   0  0  0  0  0  0  0  0  0  0  0  0
   39.7130   24.5200   35.1790 C   0  0  0  0  0  0  0  0  0  0  0  0
   40.1760   23.6910   36.1740 C   0  0  0  0  0  0  0  0  0  0  0  0
   41.0300   24.0230   36.7340 H   0  0  0  0  0  0  0  0  0  0  0  0
   39.6000   22.4970   36.4610 N   0  0  0  0  0  0  0  0  0  0  0  0
   38.5300   22.0940   35.7500 C   0  0  0  0  0  0  0  0  0  0  0  0
   37.9650   21.1670   35.8630 H   0  0  0  0  0  0  0  0  0  0  0  0
   38.0480   22.8720   34.7710 N   0  0  0  0  0  0  0  0  0  0  0  0
   38.6080   24.0780   34.4630 C   0  0  0  0  0  0  0  0  0  0  0  0
   36.9910   27.3770   32.4310 C   0  0  1  0  0  0  0  0  0  0  0  0
   37.3300   28.3210   31.4070 C   0  0  0  0  0  0  0  0  0  0  0  0
   35.9730   28.5030   32.0700 C   0  0  2  0  0  0  0  0  0  0  0  0
   37.2090   27.4990   33.5240 H   0  0  0  0  0  0  0  0  0  0  0  0
   37.3030   28.0700   30.3290 H   0  0  0  0  0  0  0  0  0  0  0  0
   38.0430   29.1620   31.5950 H   0  0  0  0  0  0  0  0  0  0  0  0
   35.2090   28.4310   31.2970 H   0  0  0  0  0  0  0  0  0  0  0  0
   35.9690   31.3910   30.9380 Cl  0  0  0  0  0  0  0  0  0  0  0  0
   35.8640   31.0230   32.6340 C   0  0  0  0  0  0  0  0  0  0  0  0
   35.9300   29.6810   32.9330 C   0  0  0  0  0  0  0  0  0  0  0  0
   35.8560   29.3620   34.2850 C   0  0  0  0  0  0  0  0  0  0  0  0
   35.7260   30.3390   35.2760 C   0  0  0  0  0  0  0  0  0  0  0  0
   35.6670   31.7000   34.9020 C   0  0  0  0  0  0  0  0  0  0  0  0
   35.5340   33.0160   36.0520 Cl  0  0  0  0  0  0  0  0  0  0  0  0
   35.7390   32.0170   33.5410 C   0  0  0  0  0  0  0  0  0  0  0  0
   35.8640   28.4360   34.8380 H   0  0  0  0  0  0  0  0  0  0  0  0
   35.6590   30.2390   36.3300 H   0  0  0  0  0  0  0  0  0  0  0  0
   35.6950   33.0460   33.2240 H   0  0  0  0  0  0  0  0  0  0  0  0
  1  2  1  0  0  0  0
  2 23  1  0  0  0  0
  2  3  2  0  0  0  0
  3 11  1  0  0  0  0
  4  3  1  0  0  0  0
  5  4  2  0  0  0  0
  6  1  2  0  0  0  0
  6  5  1  0  0  0  0
  7  5  1  0  0  0  0
  7  9  1  0  0  0  0
  8  1  1  0  0  0  0
 10  7  1  0  0  0  0
 11 12  1  0  0  0  0
 11 22  1  0  0  0  0
 12 14  2  0  0  0  0
 13 12  1  0  0  0  0
 14 15  1  0  0  0  0
 15 16  1  0  0  0  0
 16 18  2  0  0  0  0
 16 17  1  0  0  0  0
 19 20  1  0  0  0  0
 19 18  1  0  0  0  0
 21 19  2  0  0  0  0
 22 21  1  0  0  0  0
 22 15  2  0  0  0  0
 23 26  1  1  0  0  0
 24 28  1  0  0  0  0
 24 25  1  0  0  0  0
 24 23  1  0  0  0  0
 25 29  1  6  0  0  0
 25 23  1  0  0  0  0
 25 32  1  0  0  0  0
 27 24  1  0  0  0  0
 30 31  1  0  0  0  0
 31 32  2  0  0  0  0
 31 37  1  0  0  0  0
 32 33  1  0  0  0  0
 33 38  1  0  0  0  0
 33 34  2  0  0  0  0
 34 39  1  0  0  0  0
 35 34  1  0  0  0  0
 35 36  1  0  0  0  0
 37 35  2  0  0  0  0
 40 37  1  0  0  0  0
M  END
>  <minimizedAffinity>
-6.56082392

$$$$

 OpenBabel03262522463D

 40 44  0  0  1  0  0  0  0  0999 V2000
   37.2500   26.1950   32.2430 C   0  0  0  0  0  0  0  0  0  0  0  0
   37.7120   24.8390   32.5080 C   0  0  0  0  0  0  0  0  0  0  0  0
   37.0310   23.7900   31.9600 C   0  0  0  0  0  0  0  0  0  0  0  0
   35.9280   24.0870   31.1820 N   0  0  0  0  0  0  0  0  0  0  0  0
   35.5170   25.3530   30.9540 C   0  0  0  0  0  0  0  0  0  0  0  0
   36.1750   26.3870   31.4770 N   0  0  0  0  0  0  0  0  0  0  0  0
   34.3560   25.6080   30.2030 N   0  0  0  0  0  0  0  0  0  0  0  0
   37.8390   26.9720   32.7050 H   0  0  0  0  0  0  0  0  0  0  0  0
   33.5250   25.8040   30.8170 H   0  0  0  0  0  0  0  0  0  0  0  0
   34.5360   25.5550   29.1720 H   0  0  0  0  0  0  0  0  0  0  0  0
   37.3730   22.4230   32.1310 N   0  0  0  0  0  0  0  0  0  0  0  0
   38.6090   21.8910   32.3590 C   0  0  0  0  0  0  0  0  0  0  0  0
   39.5390   22.4480   32.4480 H   0  0  0  0  0  0  0  0  0  0  0  0
   38.4680   20.5510   32.4550 N   0  0  0  0  0  0  0  0  0  0  0  0
   37.1740   20.2060   32.2940 C   0  0  0  0  0  0  0  0  0  0  0  0
   36.4360   19.0460   32.2850 C   0  0  0  0  0  0  0  0  0  0  0  0
   36.9640   18.1240   32.4420 H   0  0  0  0  0  0  0  0  0  0  0  0
   35.0940   19.0330   32.0880 N   0  0  0  0  0  0  0  0  0  0  0  0
   34.4450   20.1960   31.8920 C   0  0  0  0  0  0  0  0  0  0  0  0
   33.3770   20.3440   31.7210 H   0  0  0  0  0  0  0  0  0  0  0  0
   35.1290   21.3490   31.8920 N   0  0  0  0  0  0  0  0  0  0  0  0
   36.4790   21.3900   32.0890 C   0  0  0  0  0  0  0  0  0  0  0  0
   38.9420   24.5580   33.3240 C   0  0  1  0  0  0  0  0  0  0  0  0
   39.5750   25.6080   34.0640 C   0  0  0  0  0  0  0  0  0  0  0  0
   38.7400   24.6260   34.8690 C   0  0  2  0  0  0  0  0  0  0  0  0
   39.3880   23.5500   33.1170 H   0  0  0  0  0  0  0  0  0  0  0  0
   39.2080   26.6530   34.0570 H   0  0  0  0  0  0  0  0  0  0  0  0
   40.6680   25.5810   34.3080 H   0  0  0  0  0  0  0  0  0  0  0  0
   37.9530   25.1860   35.3730 H   0  0  0  0  0  0  0  0  0  0  0  0
   37.8910   23.7790   37.7300 Cl  0  0  0  0  0  0  0  0  0  0  0  0
   39.3400   23.2160   36.9510 C   0  0  0  0  0  0  0  0  0  0  0  0
   39.5600   23.7480   35.7000 C   0  0  0  0  0  0  0  0  0  0  0  0
   40.7180   23.3190   35.0600 C   0  0  0  0  0  0  0  0  0  0  0  0
   41.6030   22.4100   35.6480 C   0  0  0  0  0  0  0  0  0  0  0  0
   41.3200   21.9060   36.9370 C   0  0  0  0  0  0  0  0  0  0  0  0
   42.3650   20.7860   37.7890 Cl  0  0  0  0  0  0  0  0  0  0  0  0
   40.1530   22.3370   37.5770 C   0  0  0  0  0  0  0  0  0  0  0  0
   41.1630   23.5240   34.0990 H   0  0  0  0  0  0  0  0  0  0  0  0
   42.5100   22.0030   35.2790 H   0  0  0  0  0  0  0  0  0  0  0  0
   39.9090   21.9680   38.5590 H   0  0  0  0  0  0  0  0  0  0  0  0
  1  2  1  0  0  0  0
  1  8  1  0  0  0  0
  2 23  1  0  0  0  0
  3 11  1  0  0  0  0
  3  2  2  0  0  0  0
  4  3  1  0  0  0  0
  5  4  2  0  0  0  0
  5  6  1  0  0  0  0
  6  1  2  0  0  0  0
  7  9  1  0  0  0  0
  7  5  1  0  0  0  0
 10  7  1  0  0  0  0
 11 12  1  0  0  0  0
 12 13  1  0  0  0  0
 12 14  2  0  0  0  0
 15 14  1  0  0  0  0
 16 15  1  0  0  0  0
 16 17  1  0  0  0  0
 18 16  2  0  0  0  0
 19 18  1  0  0  0  0
 20 19  1  0  0  0  0
 21 19  2  0  0  0  0
 21 22  1  0  0  0  0
 22 11  1  0  0  0  0
 22 15  2  0  0  0  0
 23 26  1  6  0  0  0
 23 24  1  0  0  0  0
 23 25  1  0  0  0  0
 24 28  1  0  0  0  0
 24 25  1  0  0  0  0
 25 29  1  1  0  0  0
 25 32  1  0  0  0  0
 27 24  1  0  0  0  0
 31 37  1  0  0  0  0
 31 30  1  0  0  0  0
 32 31  2  0  0  0  0
 33 34  2  0  0  0  0
 33 32  1  0  0  0  0
 34 35  1  0  0  0  0
 35 37  2  0  0  0  0
 35 36  1  0  0  0  0
 37 40  1  0  0  0  0
 38 33  1  0  0  0  0
 39 34  1  0  0  0  0
M  END
>  <minimizedAffinity>
-6.55489063

$$$$

 OpenBabel03262522463D

 40 44  0  0  1  0  0  0  0  0999 V2000
   36.7090   26.0920   31.0840 C   0  0  0  0  0  0  0  0  0  0  0  0
   36.9980   26.5000   32.4520 C   0  0  0  0  0  0  0  0  0  0  0  0
   37.5130   25.5810   33.3220 C   0  0  0  0  0  0  0  0  0  0  0  0
   37.7250   24.3030   32.8400 N   0  0  0  0  0  0  0  0  0  0  0  0
   37.4460   23.9480   31.5670 C   0  0  0  0  0  0  0  0  0  0  0  0
   36.9480   24.8360   30.7070 N   0  0  0  0  0  0  0  0  0  0  0  0
   37.6230   22.6220   31.1360 N   0  0  0  0  0  0  0  0  0  0  0  0
   36.3090   26.8720   30.4550 H   0  0  0  0  0  0  0  0  0  0  0  0
   36.7190   22.0850   31.1300 H   0  0  0  0  0  0  0  0  0  0  0  0
   38.6230   22.4170   30.8990 H   0  0  0  0  0  0  0  0  0  0  0  0
   37.8440   25.8430   34.6760 N   0  0  0  0  0  0  0  0  0  0  0  0
   38.2330   27.0280   35.2300 C   0  0  0  0  0  0  0  0  0  0  0  0
   38.3490   27.9730   34.7040 H   0  0  0  0  0  0  0  0  0  0  0  0
   38.4480   26.8160   36.5460 N   0  0  0  0  0  0  0  0  0  0  0  0
   38.2070   25.5260   36.8560 C   0  0  0  0  0  0  0  0  0  0  0  0
   38.2490   24.7360   37.9810 C   0  0  0  0  0  0  0  0  0  0  0  0
   38.5440   25.2040   38.9020 H   0  0  0  0  0  0  0  0  0  0  0  0
   37.9360   23.4160   37.9620 N   0  0  0  0  0  0  0  0  0  0  0  0
   37.5680   22.8430   36.8010 C   0  0  0  0  0  0  0  0  0  0  0  0
   37.2900   21.8020   36.6300 H   0  0  0  0  0  0  0  0  0  0  0  0
   37.5150   23.5780   35.6810 N   0  0  0  0  0  0  0  0  0  0  0  0
   37.8250   24.9070   35.6730 C   0  0  0  0  0  0  0  0  0  0  0  0
   36.7950   27.9120   32.9260 C   0  0  1  0  0  0  0  0  0  0  0  0
   36.5530   28.9640   31.9850 C   0  0  0  0  0  0  0  0  0  0  0  0
   35.3450   28.4620   32.7590 C   0  0  2  0  0  0  0  0  0  0  0  0
   37.0550   28.0550   34.0070 H   0  0  0  0  0  0  0  0  0  0  0  0
   36.5220   28.7940   30.8910 H   0  0  0  0  0  0  0  0  0  0  0  0
   36.8250   30.0270   32.2070 H   0  0  0  0  0  0  0  0  0  0  0  0
   34.6140   28.0920   32.0410 H   0  0  0  0  0  0  0  0  0  0  0  0
   32.3280   28.9910   33.2490 Cl  0  0  0  0  0  0  0  0  0  0  0  0
   33.5980   29.7700   34.1450 C   0  0  0  0  0  0  0  0  0  0  0  0
   34.8710   29.4340   33.7410 C   0  0  0  0  0  0  0  0  0  0  0  0
   35.9040   30.0520   34.4380 C   0  0  0  0  0  0  0  0  0  0  0  0
   35.6680   30.9570   35.4770 C   0  0  0  0  0  0  0  0  0  0  0  0
   34.3370   31.2610   35.8390 C   0  0  0  0  0  0  0  0  0  0  0  0
   33.9120   32.3990   37.1030 Cl  0  0  0  0  0  0  0  0  0  0  0  0
   33.2990   30.6360   35.1380 C   0  0  0  0  0  0  0  0  0  0  0  0
   36.9800   30.0000   34.3850 H   0  0  0  0  0  0  0  0  0  0  0  0
   36.3510   31.4940   36.0850 H   0  0  0  0  0  0  0  0  0  0  0  0
   32.2740   30.8460   35.3920 H   0  0  0  0  0  0  0  0  0  0  0  0
  1  2  1  0  0  0  0
  2 23  1  0  0  0  0
  2  3  2  0  0  0  0
  3 11  1  0  0  0  0
  4  3  1  0  0  0  0
  5  4  2  0  0  0  0
  6  1  2  0  0  0  0
  6  5  1  0  0  0  0
  7  5  1  0  0  0  0
  8  1  1  0  0  0  0
  9  7  1  0  0  0  0
 10  7  1  0  0  0  0
 11 12  1  0  0  0  0
 11 22  1  0  0  0  0
 12 14  2  0  0  0  0
 13 12  1  0  0  0  0
 14 15  1  0  0  0  0
 15 16  1  0  0  0  0
 16 17  1  0  0  0  0
 18 16  2  0  0  0  0
 19 18  1  0  0  0  0
 20 19  1  0  0  0  0
 21 19  2  0  0  0  0
 22 21  1  0  0  0  0
 22 15  2  0  0  0  0
 23 26  1  1  0  0  0
 24 28  1  0  0  0  0
 24 25  1  0  0  0  0
 24 23  1  0  0  0  0
 25 29  1  6  0  0  0
 25 23  1  0  0  0  0
 25 32  1  0  0  0  0
 27 24  1  0  0  0  0
 30 31  1  0  0  0  0
 31 37  1  0  0  0  0
 32 31  2  0  0  0  0
 32 33  1  0  0  0  0
 33 34  2  0  0  0  0
 34 35  1  0  0  0  0
 34 39  1  0  0  0  0
 35 36  1  0  0  0  0
 37 40  1  0  0  0  0
 37 35  2  0  0  0  0
 38 33  1  0  0  0  0
M  END
>  <minimizedAffinity>
-6.36470842

$$$$

 OpenBabel03262522463D

 40 44  0  0  1  0  0  0  0  0999 V2000
   36.6970   27.8840   34.0280 C   0  0  0  0  0  0  0  0  0  0  0  0
   38.0150   27.2930   33.8370 C   0  0  0  0  0  0  0  0  0  0  0  0
   38.5810   27.3290   32.5950 C   0  0  0  0  0  0  0  0  0  0  0  0
   37.8550   27.9290   31.5840 N   0  0  0  0  0  0  0  0  0  0  0  0
   36.6320   28.4670   31.7860 C   0  0  0  0  0  0  0  0  0  0  0  0
   36.0690   28.4440   32.9940 N   0  0  0  0  0  0  0  0  0  0  0  0
   35.9030   29.0170   30.7160 N   0  0  0  0  0  0  0  0  0  0  0  0
   36.3160   27.8220   35.0350 H   0  0  0  0  0  0  0  0  0  0  0  0
   35.1800   28.3480   30.3480 H   0  0  0  0  0  0  0  0  0  0  0  0
   36.2170   29.9890   30.4870 H   0  0  0  0  0  0  0  0  0  0  0  0
   39.8560   26.7970   32.2690 N   0  0  0  0  0  0  0  0  0  0  0  0
   40.9400   26.6570   33.0870 C   0  0  0  0  0  0  0  0  0  0  0  0
   40.9890   26.9360   34.1380 H   0  0  0  0  0  0  0  0  0  0  0  0
   41.9360   26.1100   32.3590 N   0  0  0  0  0  0  0  0  0  0  0  0
   41.5240   25.8930   31.0940 C   0  0  0  0  0  0  0  0  0  0  0  0
   42.0600   25.3830   29.9340 C   0  0  0  0  0  0  0  0  0  0  0  0
   43.0790   25.0440   29.9690 H   0  0  0  0  0  0  0  0  0  0  0  0
   41.3570   25.2980   28.7770 N   0  0  0  0  0  0  0  0  0  0  0  0
   40.0810   25.7270   28.7490 C   0  0  0  0  0  0  0  0  0  0  0  0
   39.3950   25.7230   27.9000 H   0  0  0  0  0  0  0  0  0  0  0  0
   39.5220   26.2320   29.8570 N   0  0  0  0  0  0  0  0  0  0  0  0
   40.2070   26.3290   31.0340 C   0  0  0  0  0  0  0  0  0  0  0  0
   38.7930   26.6880   34.9710 C   0  0  1  0  0  0  0  0  0  0  0  0
   38.2940   26.7630   36.3120 C   0  0  0  0  0  0  0  0  0  0  0  0
   38.1490   25.4210   35.6120 C   0  0  2  0  0  0  0  0  0  0  0  0
   39.8340   26.3900   34.6820 H   0  0  0  0  0  0  0  0  0  0  0  0
   37.3450   27.2700   36.5710 H   0  0  0  0  0  0  0  0  0  0  0  0
   38.9800   26.7410   37.1970 H   0  0  0  0  0  0  0  0  0  0  0  0
   37.0890   25.1720   35.5780 H   0  0  0  0  0  0  0  0  0  0  0  0
   37.8130   24.2820   38.4780 Cl  0  0  0  0  0  0  0  0  0  0  0  0
   39.0350   23.7410   37.3660 C   0  0  0  0  0  0  0  0  0  0  0  0
   39.0460   24.4070   36.1610 C   0  0  0  0  0  0  0  0  0  0  0  0
   40.0210   23.9980   35.2570 C   0  0  0  0  0  0  0  0  0  0  0  0
   40.9330   22.9790   35.5530 C   0  0  0  0  0  0  0  0  0  0  0  0
   40.8680   22.3380   36.8110 C   0  0  0  0  0  0  0  0  0  0  0  0
   41.9710   21.0700   37.3090 Cl  0  0  0  0  0  0  0  0  0  0  0  0
   39.8850   22.7500   37.7170 C   0  0  0  0  0  0  0  0  0  0  0  0
   40.2850   24.2930   34.2540 H   0  0  0  0  0  0  0  0  0  0  0  0
   41.7170   22.5710   34.9670 H   0  0  0  0  0  0  0  0  0  0  0  0
   39.8100   22.2800   38.6820 H   0  0  0  0  0  0  0  0  0  0  0  0
  1  8  1  0  0  0  0
  2  1  1  0  0  0  0
  2 23  1  0  0  0  0
  3  2  2  0  0  0  0
  4  5  2  0  0  0  0
  4  3  1  0  0  0  0
  5  6  1  0  0  0  0
  6  1  2  0  0  0  0
  7  5  1  0  0  0  0
  9  7  1  0  0  0  0
 10  7  1  0  0  0  0
 11  3  1  0  0  0  0
 11 12  1  0  0  0  0
 12 13  1  0  0  0  0
 14 12  2  0  0  0  0
 15 14  1  0  0  0  0
 16 17  1  0  0  0  0
 16 15  2  0  0  0  0
 18 16  1  0  0  0  0
 19 18  2  0  0  0  0
 19 21  1  0  0  0  0
 20 19  1  0  0  0  0
 21 22  2  0  0  0  0
 22 15  1  0  0  0  0
 22 11  1  0  0  0  0
 23 26  1  6  0  0  0
 23 25  1  0  0  0  0
 23 24  1  0  0  0  0
 24 27  1  0  0  0  0
 24 28  1  0  0  0  0
 25 29  1  6  0  0  0
 25 32  1  0  0  0  0
 25 24  1  0  0  0  0
 31 37  1  0  0  0  0
 31 30  1  0  0  0  0
 32 31  2  0  0  0  0
 33 34  2  0  0  0  0
 33 32  1  0  0  0  0
 34 35  1  0  0  0  0
 35 36  1  0  0  0  0
 35 37  2  0  0  0  0
 37 40  1  0  0  0  0
 38 33  1  0  0  0  0
 39 34  1  0  0  0  0
M  END
>  <minimizedAffinity>
-6.35084343

$$$$

 OpenBabel03262522463D

 40 44  0  0  1  0  0  0  0  0999 V2000
   40.3000   26.9650   32.6180 C   0  0  0  0  0  0  0  0  0  0  0  0
   39.8130   25.8180   33.3720 C   0  0  0  0  0  0  0  0  0  0  0  0
   40.5810   25.3170   34.3840 C   0  0  0  0  0  0  0  0  0  0  0  0
   41.7910   25.9380   34.6280 N   0  0  0  0  0  0  0  0  0  0  0  0
   42.2230   26.9990   33.9120 C   0  0  0  0  0  0  0  0  0  0  0  0
   41.4810   27.5020   32.9250 N   0  0  0  0  0  0  0  0  0  0  0  0
   43.4870   27.5650   34.1550 N   0  0  0  0  0  0  0  0  0  0  0  0
   39.6380   27.3060   31.8370 H   0  0  0  0  0  0  0  0  0  0  0  0
   44.2080   27.2300   33.4660 H   0  0  0  0  0  0  0  0  0  0  0  0
   43.4740   28.2140   34.9780 H   0  0  0  0  0  0  0  0  0  0  0  0
   40.2270   24.2110   35.2000 N   0  0  0  0  0  0  0  0  0  0  0  0
   38.9750   23.7840   35.5360 C   0  0  0  0  0  0  0  0  0  0  0  0
   38.0380   24.2370   35.2200 H   0  0  0  0  0  0  0  0  0  0  0  0
   39.1100   22.7000   36.3300 N   0  0  0  0  0  0  0  0  0  0  0  0
   40.4150   22.4170   36.5140 C   0  0  0  0  0  0  0  0  0  0  0  0
   41.1550   21.4760   37.1920 C   0  0  0  0  0  0  0  0  0  0  0  0
   40.6170   20.7320   37.7480 H   0  0  0  0  0  0  0  0  0  0  0  0
   42.5120   21.4620   37.1790 N   0  0  0  0  0  0  0  0  0  0  0  0
   43.1740   22.4010   36.4770 C   0  0  0  0  0  0  0  0  0  0  0  0
   44.2540   22.5180   36.3720 H   0  0  0  0  0  0  0  0  0  0  0  0
   42.4900   23.3360   35.8030 N   0  0  0  0  0  0  0  0  0  0  0  0
   41.1250   23.3730   35.8000 C   0  0  0  0  0  0  0  0  0  0  0  0
   38.4700   25.1970   33.1060 C   0  0  1  0  0  0  0  0  0  0  0  0
   37.6800   25.6300   31.9920 C   0  0  0  0  0  0  0  0  0  0  0  0
   38.3990   24.3000   31.8310 C   0  0  2  0  0  0  0  0  0  0  0  0
   38.1050   24.5580   33.9510 H   0  0  0  0  0  0  0  0  0  0  0  0
   38.0050   26.4340   31.3030 H   0  0  0  0  0  0  0  0  0  0  0  0
   36.5640   25.5460   31.9940 H   0  0  0  0  0  0  0  0  0  0  0  0
   39.0650   24.3780   30.9730 H   0  0  0  0  0  0  0  0  0  0  0  0
   39.2260   21.5110   32.9070 Cl  0  0  0  0  0  0  0  0  0  0  0  0
   37.6290   21.8830   32.3310 C   0  0  0  0  0  0  0  0  0  0  0  0
   37.4790   23.1650   31.8510 C   0  0  0  0  0  0  0  0  0  0  0  0
   36.2110   23.4840   31.3760 C   0  0  0  0  0  0  0  0  0  0  0  0
   35.1580   22.5640   31.3830 C   0  0  0  0  0  0  0  0  0  0  0  0
   35.3800   21.2630   31.8860 C   0  0  0  0  0  0  0  0  0  0  0  0
   34.1500   20.0150   31.9210 Cl  0  0  0  0  0  0  0  0  0  0  0  0
   36.6560   20.9460   32.3660 C   0  0  0  0  0  0  0  0  0  0  0  0
   35.7690   24.3750   30.9600 H   0  0  0  0  0  0  0  0  0  0  0  0
   34.1550   22.6710   31.0560 H   0  0  0  0  0  0  0  0  0  0  0  0
   36.8560   19.9630   32.7580 H   0  0  0  0  0  0  0  0  0  0  0  0
  1  6  2  0  0  0  0
  1  2  1  0  0  0  0
  2  3  2  0  0  0  0
  3  4  1  0  0  0  0
  3 11  1  0  0  0  0
  5  7  1  0  0  0  0
  5  4  2  0  0  0  0
  6  5  1  0  0  0  0
  7 10  1  0  0  0  0
  8  1  1  0  0  0  0
  9  7  1  0  0  0  0
 11 12  1  0  0  0  0
 11 22  1  0  0  0  0
 12 14  2  0  0  0  0
 13 12  1  0  0  0  0
 14 15  1  0  0  0  0
 15 16  1  0  0  0  0
 16 17  1  0  0  0  0
 18 16  2  0  0  0  0
 19 18  1  0  0  0  0
 20 19  1  0  0  0  0
 21 19  2  0  0  0  0
 22 21  1  0  0  0  0
 22 15  2  0  0  0  0
 23  2  1  0  0  0  0
 23 26  1  1  0  0  0
 24 28  1  0  0  0  0
 24 23  1  0  0  0  0
 25 29  1  6  0  0  0
 25 32  1  0  0  0  0
 25 24  1  0  0  0  0
 25 23  1  0  0  0  0
 27 24  1  0  0  0  0
 31 37  1  0  0  0  0
 31 30  1  0  0  0  0
 32 31  2  0  0  0  0
 33 34  2  0  0  0  0
 33 32  1  0  0  0  0
 34 35  1  0  0  0  0
 35 36  1  0  0  0  0
 35 37  2  0  0  0  0
 37 40  1  0  0  0  0
 38 33  1  0  0  0  0
 39 34  1  0  0  0  0
M  END
>  <minimizedAffinity>
-5.99853754

$$$$

 OpenBabel03262522463D

 40 44  0  0  1  0  0  0  0  0999 V2000
   36.0560   29.7930   31.0170 C   0  0  0  0  0  0  0  0  0  0  0  0
   36.2370   28.7370   32.0050 C   0  0  0  0  0  0  0  0  0  0  0  0
   37.0130   27.6600   31.6860 C   0  0  0  0  0  0  0  0  0  0  0  0
   37.5820   27.6380   30.4270 N   0  0  0  0  0  0  0  0  0  0  0  0
   37.3970   28.6280   29.5270 C   0  0  0  0  0  0  0  0  0  0  0  0
   36.6460   29.6880   29.8250 N   0  0  0  0  0  0  0  0  0  0  0  0
   37.9470   28.5380   28.2360 N   0  0  0  0  0  0  0  0  0  0  0  0
   35.4340   30.6130   31.3400 H   0  0  0  0  0  0  0  0  0  0  0  0
   37.2400   28.2160   27.5280 H   0  0  0  0  0  0  0  0  0  0  0  0
   38.9590   28.8100   28.2220 H   0  0  0  0  0  0  0  0  0  0  0  0
   37.2760   26.5660   32.5520 N   0  0  0  0  0  0  0  0  0  0  0  0
   37.3110   26.5670   33.9160 C   0  0  0  0  0  0  0  0  0  0  0  0
   37.1350   27.4250   34.5610 H   0  0  0  0  0  0  0  0  0  0  0  0
   37.6010   25.3110   34.3200 N   0  0  0  0  0  0  0  0  0  0  0  0
   37.7540   24.5020   33.2530 C   0  0  0  0  0  0  0  0  0  0  0  0
   38.0450   23.1760   33.0290 C   0  0  0  0  0  0  0  0  0  0  0  0
   38.2060   22.5540   33.8890 H   0  0  0  0  0  0  0  0  0  0  0  0
   38.1320   22.6460   31.7830 N   0  0  0  0  0  0  0  0  0  0  0  0
   37.9290   23.4380   30.7140 C   0  0  0  0  0  0  0  0  0  0  0  0
   37.9650   23.1580   29.6590 H   0  0  0  0  0  0  0  0  0  0  0  0
   37.6440   24.7360   30.8900 N   0  0  0  0  0  0  0  0  0  0  0  0
   37.5500   25.2940   32.1310 C   0  0  0  0  0  0  0  0  0  0  0  0
   35.6370   28.8180   33.3800 C   0  0  1  0  0  0  0  0  0  0  0  0
   36.2310   29.6540   34.3810 C   0  0  0  0  0  0  0  0  0  0  0  0
   34.9630   30.1810   33.7280 C   0  0  2  0  0  0  0  0  0  0  0  0
   34.8590   28.0340   33.5680 H   0  0  0  0  0  0  0  0  0  0  0  0
   37.1450   30.2520   34.1980 H   0  0  0  0  0  0  0  0  0  0  0  0
   36.1210   29.4330   35.4730 H   0  0  0  0  0  0  0  0  0  0  0  0
   35.1980   31.1340   33.2560 H   0  0  0  0  0  0  0  0  0  0  0  0
   34.9260   31.7750   36.3880 Cl  0  0  0  0  0  0  0  0  0  0  0  0
   33.5840   30.8300   35.8170 C   0  0  0  0  0  0  0  0  0  0  0  0
   33.8190   30.1600   34.6370 C   0  0  0  0  0  0  0  0  0  0  0  0
   32.7620   29.3890   34.1630 C   0  0  0  0  0  0  0  0  0  0  0  0
   31.5420   29.2980   34.8400 C   0  0  0  0  0  0  0  0  0  0  0  0
   31.3680   30.0090   36.0480 C   0  0  0  0  0  0  0  0  0  0  0  0
   29.8990   29.9530   37.0020 Cl  0  0  0  0  0  0  0  0  0  0  0  0
   32.4320   30.7860   36.5210 C   0  0  0  0  0  0  0  0  0  0  0  0
   32.6170   28.7720   33.2910 H   0  0  0  0  0  0  0  0  0  0  0  0
   30.6640   28.7560   34.5970 H   0  0  0  0  0  0  0  0  0  0  0  0
   32.3300   31.3400   37.4380 H   0  0  0  0  0  0  0  0  0  0  0  0
  1  8  1  0  0  0  0
  1  2  1  0  0  0  0
  2 23  1  0  0  0  0
  3  2  2  0  0  0  0
  3 11  1  0  0  0  0
  4  3  1  0  0  0  0
  5  6  1  0  0  0  0
  5  4  2  0  0  0  0
  6  1  2  0  0  0  0
  7  5  1  0  0  0  0
  9  7  1  0  0  0  0
 10  7  1  0  0  0  0
 11 12  1  0  0  0  0
 12 14  2  0  0  0  0
 12 13  1  0  0  0  0
 15 14  1  0  0  0  0
 16 15  1  0  0  0  0
 16 17  1  0  0  0  0
 18 16  2  0  0  0  0
 19 21  2  0  0  0  0
 19 18  1  0  0  0  0
 20 19  1  0  0  0  0
 21 22  1  0  0  0  0
 22 11  1  0  0  0  0
 22 15  2  0  0  0  0
 23 26  1  1  0  0  0
 23 25  1  0  0  0  0
 23 24  1  0  0  0  0
 24 28  1  0  0  0  0
 25 29  1  6  0  0  0
 25 24  1  0  0  0  0
 25 32  1  0  0  0  0
 27 24  1  0  0  0  0
 31 30  1  0  0  0  0
 31 37  1  0  0  0  0
 32 31  2  0  0  0  0
 33 32  1  0  0  0  0
 33 34  2  0  0  0  0
 34 35  1  0  0  0  0
 35 37  2  0  0  0  0
 35 36  1  0  0  0  0
 37 40  1  0  0  0  0
 38 33  1  0  0  0  0
 39 34  1  0  0  0  0
M  END
>  <minimizedAffinity>
-5.95800447

$$$$

 OpenBabel03262522463D

 40 44  0  0  1  0  0  0  0  0999 V2000
   36.7320   32.1330   31.7140 C   0  0  0  0  0  0  0  0  0  0  0  0
   35.7720   31.1390   32.1760 C   0  0  0  0  0  0  0  0  0  0  0  0
   34.9040   31.4730   33.1750 C   0  0  0  0  0  0  0  0  0  0  0  0
   34.9960   32.7500   33.6940 N   0  0  0  0  0  0  0  0  0  0  0  0
   35.8970   33.6540   33.2510 C   0  0  0  0  0  0  0  0  0  0  0  0
   36.7470   33.3440   32.2730 N   0  0  0  0  0  0  0  0  0  0  0  0
   35.9950   34.9240   33.8470 N   0  0  0  0  0  0  0  0  0  0  0  0
   37.3820   31.7990   30.9200 H   0  0  0  0  0  0  0  0  0  0  0  0
   36.7840   34.9740   34.5400 H   0  0  0  0  0  0  0  0  0  0  0  0
   35.2630   35.5820   33.4890 H   0  0  0  0  0  0  0  0  0  0  0  0
   33.9180   30.6070   33.7160 N   0  0  0  0  0  0  0  0  0  0  0  0
   33.2750   29.5770   33.0940 C   0  0  0  0  0  0  0  0  0  0  0  0
   33.4260   29.2560   32.0650 H   0  0  0  0  0  0  0  0  0  0  0  0
   32.4190   29.0290   33.9830 N   0  0  0  0  0  0  0  0  0  0  0  0
   32.4930   29.6790   35.1620 C   0  0  0  0  0  0  0  0  0  0  0  0
   31.8960   29.5920   36.3980 C   0  0  0  0  0  0  0  0  0  0  0  0
   31.1610   28.8230   36.5380 H   0  0  0  0  0  0  0  0  0  0  0  0
   32.2020   30.4310   37.4200 N   0  0  0  0  0  0  0  0  0  0  0  0
   33.1260   31.3920   37.2300 C   0  0  0  0  0  0  0  0  0  0  0  0
   33.4750   32.1340   37.9500 H   0  0  0  0  0  0  0  0  0  0  0  0
   33.7310   31.5090   36.0400 N   0  0  0  0  0  0  0  0  0  0  0  0
   33.4420   30.6790   34.9960 C   0  0  0  0  0  0  0  0  0  0  0  0
   35.6730   29.7730   31.5560 C   0  0  1  0  0  0  0  0  0  0  0  0
   36.4250   29.4570   30.3780 C   0  0  0  0  0  0  0  0  0  0  0  0
   36.9550   28.8940   31.6880 C   0  0  2  0  0  0  0  0  0  0  0  0
   34.8350   29.1590   31.9750 H   0  0  0  0  0  0  0  0  0  0  0  0
   37.0850   30.1890   29.8730 H   0  0  0  0  0  0  0  0  0  0  0  0
   36.0830   28.6750   29.6540 H   0  0  0  0  0  0  0  0  0  0  0  0
   37.9640   29.2770   31.8360 H   0  0  0  0  0  0  0  0  0  0  0  0
   38.5030   27.1640   33.7450 Cl  0  0  0  0  0  0  0  0  0  0  0  0
   37.3170   26.5220   32.6490 C   0  0  0  0  0  0  0  0  0  0  0  0
   36.7780   27.4470   31.7830 C   0  0  0  0  0  0  0  0  0  0  0  0
   35.8320   26.9550   30.8900 C   0  0  0  0  0  0  0  0  0  0  0  0
   35.4530   25.6090   30.8710 C   0  0  0  0  0  0  0  0  0  0  0  0
   36.0470   24.7110   31.7850 C   0  0  0  0  0  0  0  0  0  0  0  0
   35.6780   22.9980   31.8390 Cl  0  0  0  0  0  0  0  0  0  0  0  0
   36.9970   25.2090   32.6840 C   0  0  0  0  0  0  0  0  0  0  0  0
   35.2280   27.4010   30.1160 H   0  0  0  0  0  0  0  0  0  0  0  0
   34.7540   25.1040   30.2530 H   0  0  0  0  0  0  0  0  0  0  0  0
   37.4660   24.5500   33.3940 H   0  0  0  0  0  0  0  0  0  0  0  0
  1  2  2  0  0  0  0
  1  6  1  0  0  0  0
  2  3  1  0  0  0  0
  3  4  2  0  0  0  0
  3 11  1  0  0  0  0
  5  4  1  0  0  0  0
  5  7  1  0  0  0  0
  6  5  2  0  0  0  0
  7  9  1  0  0  0  0
  8  1  1  0  0  0  0
 10  7  1  0  0  0  0
 11 22  1  0  0  0  0
 12 11  1  0  0  0  0
 12 14  2  0  0  0  0
 13 12  1  0  0  0  0
 14 15  1  0  0  0  0
 15 16  1  0  0  0  0
 16 17  1  0  0  0  0
 16 18  2  0  0  0  0
 19 18  1  0  0  0  0
 19 20  1  0  0  0  0
 21 19  2  0  0  0  0
 22 15  2  0  0  0  0
 22 21  1  0  0  0  0
 23 25  1  0  0  0  0
 23 26  1  1  0  0  0
 23  2  1  0  0  0  0
 24 23  1  0  0  0  0
 24 25  1  0  0  0  0
 25 32  1  0  0  0  0
 25 29  1  1  0  0  0
 27 24  1  0  0  0  0
 28 24  1  0  0  0  0
 31 37  1  0  0  0  0
 31 30  1  0  0  0  0
 32 31  2  0  0  0  0
 33 32  1  0  0  0  0
 34 33  2  0  0  0  0
 34 35  1  0  0  0  0
 35 36  1  0  0  0  0
 35 37  2  0  0  0  0
 37 40  1  0  0  0  0
 38 33  1  0  0  0  0
 39 34  1  0  0  0  0
M  END
>  <minimizedAffinity>
-5.9532876

$$$$

 OpenBabel03262522463D

 40 44  0  0  1  0  0  0  0  0999 V2000
   37.3070   27.9570   30.1520 C   0  0  0  0  0  0  0  0  0  0  0  0
   36.6760   28.1740   31.4470 C   0  0  0  0  0  0  0  0  0  0  0  0
   36.1640   29.4070   31.7350 C   0  0  0  0  0  0  0  0  0  0  0  0
   36.2840   30.3850   30.7650 N   0  0  0  0  0  0  0  0  0  0  0  0
   36.8770   30.1600   29.5720 C   0  0  0  0  0  0  0  0  0  0  0  0
   37.3760   28.9600   29.2760 N   0  0  0  0  0  0  0  0  0  0  0  0
   37.0290   31.1990   28.6380 N   0  0  0  0  0  0  0  0  0  0  0  0
   37.6840   26.9590   29.9950 H   0  0  0  0  0  0  0  0  0  0  0  0
   37.9950   31.6130   28.6630 H   0  0  0  0  0  0  0  0  0  0  0  0
   36.1510   31.3650   28.0910 H   0  0  0  0  0  0  0  0  0  0  0  0
   35.5210   29.7550   32.9510 N   0  0  0  0  0  0  0  0  0  0  0  0
   34.8230   28.9380   33.7930 C   0  0  0  0  0  0  0  0  0  0  0  0
   34.6540   27.8720   33.6570 H   0  0  0  0  0  0  0  0  0  0  0  0
   34.3840   29.6910   34.8250 N   0  0  0  0  0  0  0  0  0  0  0  0
   34.7790   30.9710   34.6700 C   0  0  0  0  0  0  0  0  0  0  0  0
   34.6470   32.1550   35.3560 C   0  0  0  0  0  0  0  0  0  0  0  0
   34.0920   32.1330   36.2750 H   0  0  0  0  0  0  0  0  0  0  0  0
   35.1850   33.3210   34.9170 N   0  0  0  0  0  0  0  0  0  0  0  0
   35.8790   33.3330   33.7630 C   0  0  0  0  0  0  0  0  0  0  0  0
   36.3650   34.1850   33.2860 H   0  0  0  0  0  0  0  0  0  0  0  0
   36.0300   32.1990   33.0640 N   0  0  0  0  0  0  0  0  0  0  0  0
   35.4990   31.0140   33.4830 C   0  0  0  0  0  0  0  0  0  0  0  0
   36.5250   27.0730   32.4590 C   0  0  1  0  0  0  0  0  0  0  0  0
   36.6070   25.7010   32.0540 C   0  0  0  0  0  0  0  0  0  0  0  0
   37.8280   26.2690   32.7580 C   0  0  2  0  0  0  0  0  0  0  0  0
   36.1530   27.4350   33.4520 H   0  0  0  0  0  0  0  0  0  0  0  0
   36.7630   25.3950   31.0010 H   0  0  0  0  0  0  0  0  0  0  0  0
   36.0910   24.8880   32.6240 H   0  0  0  0  0  0  0  0  0  0  0  0
   38.6780   26.1810   32.0830 H   0  0  0  0  0  0  0  0  0  0  0  0
   37.8520   28.0700   35.2840 Cl  0  0  0  0  0  0  0  0  0  0  0  0
   37.9780   26.3370   35.3390 C   0  0  0  0  0  0  0  0  0  0  0  0
   37.9960   25.7260   34.1040 C   0  0  0  0  0  0  0  0  0  0  0  0
   38.1050   24.3400   34.1210 C   0  0  0  0  0  0  0  0  0  0  0  0
   38.1930   23.6130   35.3130 C   0  0  0  0  0  0  0  0  0  0  0  0
   38.1730   24.3010   36.5460 C   0  0  0  0  0  0  0  0  0  0  0  0
   38.3050   23.5060   38.1020 Cl  0  0  0  0  0  0  0  0  0  0  0  0
   38.0600   25.6960   36.5250 C   0  0  0  0  0  0  0  0  0  0  0  0
   38.1320   23.5800   33.3560 H   0  0  0  0  0  0  0  0  0  0  0  0
   38.2790   22.5670   35.4710 H   0  0  0  0  0  0  0  0  0  0  0  0
   38.0400   26.2490   37.4490 H   0  0  0  0  0  0  0  0  0  0  0  0
  1  2  1  0  0  0  0
  2  3  2  0  0  0  0
  2 23  1  0  0  0  0
  3 11  1  0  0  0  0
  4  3  1  0  0  0  0
  5  4  2  0  0  0  0
  6  5  1  0  0  0  0
  6  1  2  0  0  0  0
  7  9  1  0  0  0  0
  7  5  1  0  0  0  0
  8  1  1  0  0  0  0
 10  7  1  0  0  0  0
 11 22  1  0  0  0  0
 11 12  1  0  0  0  0
 12 14  2  0  0  0  0
 13 12  1  0  0  0  0
 15 14  1  0  0  0  0
 15 16  1  0  0  0  0
 16 17  1  0  0  0  0
 18 16  2  0  0  0  0
 19 18  1  0  0  0  0
 20 19  1  0  0  0  0
 21 22  1  0  0  0  0
 21 19  2  0  0  0  0
 22 15  2  0  0  0  0
 23 25  1  0  0  0  0
 23 26  1  1  0  0  0
 24 23  1  0  0  0  0
 24 28  1  0  0  0  0
 24 25  1  0  0  0  0
 25 29  1  6  0  0  0
 25 32  1  0  0  0  0
 27 24  1  0  0  0  0
 30 31  1  0  0  0  0
 31 37  1  0  0  0  0
 32 33  1  0  0  0  0
 32 31  2  0  0  0  0
 33 34  2  0  0  0  0
 34 39  1  0  0  0  0
 34 35  1  0  0  0  0
 35 36  1  0  0  0  0
 37 35  2  0  0  0  0
 37 40  1  0  0  0  0
 38 33  1  0  0  0  0
M  END
>  <minimizedAffinity>
-5.9061842

$$$$

 OpenBabel03262522463D

 40 44  0  0  1  0  0  0  0  0999 V2000
   38.9880   25.2270   30.0820 C   0  0  0  0  0  0  0  0  0  0  0  0
   38.8330   25.7350   31.4390 C   0  0  0  0  0  0  0  0  0  0  0  0
   38.9590   24.8690   32.4870 C   0  0  0  0  0  0  0  0  0  0  0  0
   39.2260   23.5460   32.1880 N   0  0  0  0  0  0  0  0  0  0  0  0
   39.3630   23.0990   30.9210 C   0  0  0  0  0  0  0  0  0  0  0  0
   39.2470   23.9330   29.8880 N   0  0  0  0  0  0  0  0  0  0  0  0
   39.5770   21.7340   30.6590 N   0  0  0  0  0  0  0  0  0  0  0  0
   38.8790   25.9690   29.3070 H   0  0  0  0  0  0  0  0  0  0  0  0
   38.6890   21.2420   30.3820 H   0  0  0  0  0  0  0  0  0  0  0  0
   40.5800   21.4630   30.7890 H   0  0  0  0  0  0  0  0  0  0  0  0
   38.8370   25.2270   33.8540 N   0  0  0  0  0  0  0  0  0  0  0  0
   39.1040   26.4350   34.4310 C   0  0  0  0  0  0  0  0  0  0  0  0
   39.4570   27.3260   33.9160 H   0  0  0  0  0  0  0  0  0  0  0  0
   38.8510   26.3250   35.7530 N   0  0  0  0  0  0  0  0  0  0  0  0
   38.4270   25.0780   36.0440 C   0  0  0  0  0  0  0  0  0  0  0  0
   38.0330   24.3850   37.1640 C   0  0  0  0  0  0  0  0  0  0  0  0
   38.0370   24.9140   38.0980 H   0  0  0  0  0  0  0  0  0  0  0  0
   37.6490   23.0840   37.1240 N   0  0  0  0  0  0  0  0  0  0  0  0
   37.6500   22.4330   35.9450 C   0  0  0  0  0  0  0  0  0  0  0  0
   37.3690   21.3960   35.7560 H   0  0  0  0  0  0  0  0  0  0  0  0
   38.0280   23.0730   34.8300 N   0  0  0  0  0  0  0  0  0  0  0  0
   38.4180   24.3810   34.8430 C   0  0  0  0  0  0  0  0  0  0  0  0
   38.5860   27.1890   31.7260 C   0  0  1  0  0  0  0  0  0  0  0  0
   38.4720   28.1300   30.6510 C   0  0  0  0  0  0  0  0  0  0  0  0
   37.1730   27.7110   31.3210 C   0  0  2  0  0  0  0  0  0  0  0  0
   38.7120   27.4520   32.8080 H   0  0  0  0  0  0  0  0  0  0  0  0
   38.5740   27.8400   29.5870 H   0  0  0  0  0  0  0  0  0  0  0  0
   38.7250   29.2120   30.7870 H   0  0  0  0  0  0  0  0  0  0  0  0
   36.5330   27.2620   30.5640 H   0  0  0  0  0  0  0  0  0  0  0  0
   36.5200   30.5040   30.1390 Cl  0  0  0  0  0  0  0  0  0  0  0  0
   36.1800   30.0540   31.7830 C   0  0  0  0  0  0  0  0  0  0  0  0
   36.5910   28.7840   32.1240 C   0  0  0  0  0  0  0  0  0  0  0  0
   36.3380   28.4040   33.4380 C   0  0  0  0  0  0  0  0  0  0  0  0
   35.7100   29.2540   34.3530 C   0  0  0  0  0  0  0  0  0  0  0  0
   35.3160   30.5460   33.9390 C   0  0  0  0  0  0  0  0  0  0  0  0
   34.5480   31.7110   34.9990 Cl  0  0  0  0  0  0  0  0  0  0  0  0
   35.5700   30.9250   32.6160 C   0  0  0  0  0  0  0  0  0  0  0  0
   36.5130   27.5030   34.0050 H   0  0  0  0  0  0  0  0  0  0  0  0
   35.4580   29.0960   35.3720 H   0  0  0  0  0  0  0  0  0  0  0  0
   35.2810   31.9030   32.2700 H   0  0  0  0  0  0  0  0  0  0  0  0
  1  2  1  0  0  0  0
  2 23  1  0  0  0  0
  2  3  2  0  0  0  0
  3 11  1  0  0  0  0
  4  3  1  0  0  0  0
  5  4  2  0  0  0  0
  6  1  2  0  0  0  0
  6  5  1  0  0  0  0
  7 10  1  0  0  0  0
  7  5  1  0  0  0  0
  8  1  1  0  0  0  0
  9  7  1  0  0  0  0
 11 12  1  0  0  0  0
 11 22  1  0  0  0  0
 12 14  2  0  0  0  0
 13 12  1  0  0  0  0
 14 15  1  0  0  0  0
 15 16  1  0  0  0  0
 16 17  1  0  0  0  0
 18 16  2  0  0  0  0
 19 18  1  0  0  0  0
 20 19  1  0  0  0  0
 21 22  1  0  0  0  0
 21 19  2  0  0  0  0
 22 15  2  0  0  0  0
 23 26  1  1  0  0  0
 24 28  1  0  0  0  0
 24 25  1  0  0  0  0
 24 23  1  0  0  0  0
 25 29  1  6  0  0  0
 25 23  1  0  0  0  0
 25 32  1  0  0  0  0
 27 24  1  0  0  0  0
 30 31  1  0  0  0  0
 31 32  2  0  0  0  0
 31 37  1  0  0  0  0
 32 33  1  0  0  0  0
 33 38  1  0  0  0  0
 33 34  2  0  0  0  0
 34 39  1  0  0  0  0
 35 34  1  0  0  0  0
 35 36  1  0  0  0  0
 37 35  2  0  0  0  0
 40 37  1  0  0  0  0
M  END
>  <minimizedAffinity>
-5.88070107

$$$$
