
 OpenBabel03262521353D

 40 44  0  0  1  0  0  0  0  0999 V2000
   38.3250   31.3240   45.3600 C   0  0  1  0  0  0  0  0  0  0  0  0
   38.8030   32.2610   46.3950 C   0  0  2  0  0  0  0  0  0  0  0  0
   40.2810   32.4610   46.0170 C   0  0  0  0  0  0  0  0  0  0  0  0
   40.6330   31.1940   45.6500 O   0  0  0  0  0  0  0  0  0  0  0  0
   39.5860   30.5610   45.0050 C   0  0  0  0  0  0  0  0  0  0  0  0
   37.9700   31.8560   44.4770 H   0  0  0  0  0  0  0  0  0  0  0  0
   38.3350   33.2440   46.2390 H   0  0  0  0  0  0  0  0  0  0  0  0
   40.4160   33.2300   45.2540 H   0  0  0  0  0  0  0  0  0  0  0  0
   40.7970   32.7040   46.9790 H   0  0  0  0  0  0  0  0  0  0  0  0
   39.5430   29.4900   45.2970 H   0  0  0  0  0  0  0  0  0  0  0  0
   39.7290   30.5420   43.8960 H   0  0  0  0  0  0  0  0  0  0  0  0
   37.5190   32.2680   48.6580 C   0  0  1  0  0  0  0  0  0  0  0  0
   38.7560   32.9830   48.8180 C   0  0  0  0  0  0  0  0  0  0  0  0
   38.7200   31.7970   47.8340 C   0  0  2  0  0  0  0  0  0  0  0  0
   36.7110   32.7280   48.0170 H   0  0  0  0  0  0  0  0  0  0  0  0
   38.9370   33.9890   48.4470 H   0  0  0  0  0  0  0  0  0  0  0  0
   39.3370   32.7760   49.7640 H   0  0  0  0  0  0  0  0  0  0  0  0
   39.2450   30.8890   48.1280 H   0  0  0  0  0  0  0  0  0  0  0  0
   35.3960   29.6730   50.3190 C   0  0  0  0  0  0  0  0  0  0  0  0
   35.8180   30.6180   49.3860 C   0  0  0  0  0  0  0  0  0  0  0  0
   37.0310   31.2490   49.6070 C   0  0  0  0  0  0  0  0  0  0  0  0
   37.7530   30.9110   50.7310 N   0  0  0  0  0  0  0  0  0  0  0  0
   37.3230   29.9930   51.6200 C   0  0  0  0  0  0  0  0  0  0  0  0
   36.1250   29.3580   51.4160 N   0  0  0  0  0  0  0  0  0  0  0  0
   34.4400   29.1880   50.1280 H   0  0  0  0  0  0  0  0  0  0  0  0
   35.1880   30.8230   48.5310 H   0  0  0  0  0  0  0  0  0  0  0  0
   37.9560   29.7920   52.4730 H   0  0  0  0  0  0  0  0  0  0  0  0
   37.3390   30.4580   45.7970 O   0  0  0  0  0  0  0  0  0  0  0  0
   34.7440   29.9810   46.8580 H   0  0  0  0  0  0  0  0  0  0  0  0
   34.8550   30.2450   45.8680 N   0  0  0  0  0  0  0  0  0  0  0  0
   36.0340   30.4920   45.2680 C   0  0  0  0  0  0  0  0  0  0  0  0
   35.7370   30.8020   43.9820 N   0  0  0  0  0  0  0  0  0  0  0  0
   34.3970   30.7440   43.7980 C   0  0  0  0  0  0  0  0  0  0  0  0
   33.6220   30.9680   42.6930 C   0  0  0  0  0  0  0  0  0  0  0  0
   34.0580   31.2480   41.7480 H   0  0  0  0  0  0  0  0  0  0  0  0
   32.2970   30.8380   42.8000 N   0  0  0  0  0  0  0  0  0  0  0  0
   31.7220   30.4890   43.9760 C   0  0  0  0  0  0  0  0  0  0  0  0
   30.6560   30.4170   43.9320 H   0  0  0  0  0  0  0  0  0  0  0  0
   32.5030   30.2690   45.0660 N   0  0  0  0  0  0  0  0  0  0  0  0
   33.8470   30.3880   45.0090 C   0  0  0  0  0  0  0  0  0  0  0  0
  1  6  1  6  0  0  0
  1 28  1  0  0  0  0
  1  2  1  0  0  0  0
  2  7  1  6  0  0  0
  2 14  1  0  0  0  0
  3  2  1  0  0  0  0
  3  9  1  0  0  0  0
  4  3  1  0  0  0  0
  5 10  1  0  0  0  0
  5  1  1  0  0  0  0
  5  4  1  0  0  0  0
  8  3  1  0  0  0  0
 11  5  1  0  0  0  0
 12 15  1  6  0  0  0
 12 13  1  0  0  0  0
 12 21  1  0  0  0  0
 13 17  1  0  0  0  0
 14 18  1  1  0  0  0
 14 12  1  0  0  0  0
 14 13  1  0  0  0  0
 16 13  1  0  0  0  0
 19 24  1  0  0  0  0
 20 21  1  0  0  0  0
 20 19  2  0  0  0  0
 21 22  2  0  0  0  0
 22 23  1  0  0  0  0
 23 27  1  0  0  0  0
 24 23  2  0  0  0  0
 25 19  1  0  0  0  0
 26 20  1  0  0  0  0
 30 29  1  0  0  0  0
 31 28  1  0  0  0  0
 31 30  1  0  0  0  0
 32 31  2  0  0  0  0
 33 32  1  0  0  0  0
 33 40  1  0  0  0  0
 34 36  1  0  0  0  0
 34 33  2  0  0  0  0
 35 34  1  0  0  0  0
 36 37  2  0  0  0  0
 37 39  1  0  0  0  0
 38 37  1  0  0  0  0
 40 39  2  0  0  0  0
 40 30  1  0  0  0  0
M  END
>  <minimizedAffinity>
-5.75825739

>  <minimizedRMSD>
1.09642982

$$$$
