
 OpenBabel03272508373D

 47 51  0  0  1  0  0  0  0  0999 V2000
   38.5870   30.6450   44.4980 N   0  0  0  0  0  0  0  0  0  0  0  0
   38.4770   31.9150   43.9060 C   0  0  0  0  0  0  0  0  0  0  0  0
   39.3300   32.9900   44.4720 C   0  0  0  0  0  0  0  0  0  0  0  0
   39.4090   32.9480   45.8700 O   0  0  0  0  0  0  0  0  0  0  0  0
   39.8060   31.7160   46.2930 C   0  0  0  0  0  0  0  0  0  0  0  0
   38.8640   30.6560   45.8640 C   0  0  1  0  0  0  0  0  0  0  0  0
   38.3400   32.0310   42.8490 H   0  0  0  0  0  0  0  0  0  0  0  0
   37.4160   32.1650   44.2530 H   0  0  0  0  0  0  0  0  0  0  0  0
   40.1740   33.3620   43.9320 H   0  0  0  0  0  0  0  0  0  0  0  0
   38.6680   33.9380   44.3810 H   0  0  0  0  0  0  0  0  0  0  0  0
   39.6220   31.7760   47.4010 H   0  0  0  0  0  0  0  0  0  0  0  0
   40.8650   31.4870   46.2650 H   0  0  0  0  0  0  0  0  0  0  0  0
   39.3970   29.6830   46.0890 H   0  0  0  0  0  0  0  0  0  0  0  0
   37.6550   30.5900   46.6820 N   0  0  0  0  0  0  0  0  0  0  0  0
   36.3920   30.4260   46.2340 C   0  0  0  0  0  0  0  0  0  0  0  0
   36.0490   30.3150   45.2190 H   0  0  0  0  0  0  0  0  0  0  0  0
   35.5080   30.4100   47.2550 N   0  0  0  0  0  0  0  0  0  0  0  0
   36.1960   30.5660   48.3880 C   0  0  0  0  0  0  0  0  0  0  0  0
   35.8800   30.6330   49.7320 C   0  0  0  0  0  0  0  0  0  0  0  0
   34.8500   30.5470   50.0270 H   0  0  0  0  0  0  0  0  0  0  0  0
   36.8580   30.8040   50.6680 N   0  0  0  0  0  0  0  0  0  0  0  0
   38.1330   30.9090   50.2990 C   0  0  0  0  0  0  0  0  0  0  0  0
   38.8770   31.0440   51.0830 H   0  0  0  0  0  0  0  0  0  0  0  0
   38.4750   30.8470   48.9830 N   0  0  0  0  0  0  0  0  0  0  0  0
   37.5120   30.6770   48.0370 C   0  0  0  0  0  0  0  0  0  0  0  0
   39.0490   29.5940   43.7010 C   0  0  0  0  0  0  0  0  0  0  0  0
   38.8410   28.6420   44.2550 H   0  0  0  0  0  0  0  0  0  0  0  0
   40.1790   29.6440   43.7230 H   0  0  0  0  0  0  0  0  0  0  0  0
   38.6350   29.5520   42.3140 C   0  0  0  0  0  0  0  0  0  0  0  0
   37.9500   30.2570   41.8610 H   0  0  0  0  0  0  0  0  0  0  0  0
   38.0940   28.5630   42.1730 H   0  0  0  0  0  0  0  0  0  0  0  0
   41.2860   28.8320   40.0000 C   0  0  0  0  0  0  0  0  0  0  0  0
   41.5200   30.1700   40.2540 C   0  0  0  0  0  0  0  0  0  0  0  0
   40.5400   30.5890   41.1620 C   0  0  0  0  0  0  0  0  0  0  0  0
   39.7790   29.5240   41.4110 N   0  0  0  0  0  0  0  0  0  0  0  0
   40.2230   28.4720   40.7180 N   0  0  0  0  0  0  0  0  0  0  0  0
   42.3360   30.7730   39.8100 H   0  0  0  0  0  0  0  0  0  0  0  0
   40.5940   31.5760   41.4450 H   0  0  0  0  0  0  0  0  0  0  0  0
   42.5860   26.2220   37.6300 C   0  0  0  0  0  0  0  0  0  0  0  0
   41.6940   26.8810   38.4800 C   0  0  0  0  0  0  0  0  0  0  0  0
   42.0970   28.0490   39.1050 C   0  0  0  0  0  0  0  0  0  0  0  0
   43.3630   28.4540   38.8250 N   0  0  0  0  0  0  0  0  0  0  0  0
   44.2090   27.8020   38.0000 C   0  0  0  0  0  0  0  0  0  0  0  0
   43.8090   26.6890   37.4100 N   0  0  0  0  0  0  0  0  0  0  0  0
   42.2070   25.3040   37.1660 H   0  0  0  0  0  0  0  0  0  0  0  0
   40.7020   26.5330   38.6790 H   0  0  0  0  0  0  0  0  0  0  0  0
   45.2020   28.1930   37.8300 H   0  0  0  0  0  0  0  0  0  0  0  0
  1  6  1  0  0  0  0
  2  8  1  0  0  0  0
  2  3  1  0  0  0  0
  2  1  1  0  0  0  0
  3  4  1  0  0  0  0
  4  5  1  0  0  0  0
  5 11  1  0  0  0  0
  6 13  1  1  0  0  0
  6  5  1  0  0  0  0
  6 14  1  0  0  0  0
  7  2  1  0  0  0  0
  9  3  1  0  0  0  0
 10  3  1  0  0  0  0
 12  5  1  0  0  0  0
 14 25  1  0  0  0  0
 15 14  1  0  0  0  0
 15 17  2  0  0  0  0
 16 15  1  0  0  0  0
 17 18  1  0  0  0  0
 18 19  1  0  0  0  0
 19 20  1  0  0  0  0
 19 21  2  0  0  0  0
 22 21  1  0  0  0  0
 22 23  1  0  0  0  0
 24 22  2  0  0  0  0
 25 18  2  0  0  0  0
 25 24  1  0  0  0  0
 26 28  1  0  0  0  0
 26 27  1  0  0  0  0
 26  1  1  0  0  0  0
 29 26  1  0  0  0  0
 30 29  1  0  0  0  0
 31 29  1  0  0  0  0
 32 33  1  0  0  0  0
 32 36  2  0  0  0  0
 33 34  2  0  0  0  0
 34 35  1  0  0  0  0
 34 38  1  0  0  0  0
 35 29  1  0  0  0  0
 36 35  1  0  0  0  0
 37 33  1  0  0  0  0
 39 40  1  0  0  0  0
 40 46  1  0  0  0  0
 40 41  2  0  0  0  0
 41 32  1  0  0  0  0
 42 41  1  0  0  0  0
 43 42  2  0  0  0  0
 44 39  2  0  0  0  0
 44 43  1  0  0  0  0
 45 39  1  0  0  0  0
 47 43  1  0  0  0  0
M  END
>  <minimizedAffinity>
-5.30943584

>  <minimizedRMSD>
9.43106651

$$$$
