
 OpenBabel03272506013D

 49 53  0  0  1  0  0  0  0  0999 V2000
   35.2150   30.0850   49.1800 C   0  0  2  0  0  0  0  0  0  0  0  0
   36.1510   31.1800   48.9510 C   0  0  0  0  0  0  0  0  0  0  0  0
   37.6400   30.7250   49.0250 C   0  0  2  0  0  0  0  0  0  0  0  0
   38.0000   30.1230   50.2860 C   0  0  0  0  0  0  0  0  0  0  0  0
   36.9020   29.2360   50.8780 C   0  0  0  0  0  0  0  0  0  0  0  0
   35.8840   28.8740   49.8390 C   0  0  0  0  0  0  0  0  0  0  0  0
   34.4240   30.3770   49.9340 H   0  0  0  0  0  0  0  0  0  0  0  0
   36.1110   31.8250   48.1060 H   0  0  0  0  0  0  0  0  0  0  0  0
   36.1050   31.8750   49.8590 H   0  0  0  0  0  0  0  0  0  0  0  0
   37.8190   30.0670   48.1540 H   0  0  0  0  0  0  0  0  0  0  0  0
   38.9520   29.5640   50.1690 H   0  0  0  0  0  0  0  0  0  0  0  0
   38.2080   30.8790   51.0680 H   0  0  0  0  0  0  0  0  0  0  0  0
   37.3920   28.2840   51.1660 H   0  0  0  0  0  0  0  0  0  0  0  0
   36.4510   29.6540   51.7830 H   0  0  0  0  0  0  0  0  0  0  0  0
   36.3290   28.2380   49.0570 H   0  0  0  0  0  0  0  0  0  0  0  0
   35.0910   28.2790   50.3200 H   0  0  0  0  0  0  0  0  0  0  0  0
   34.5000   29.5830   48.0100 C   0  0  0  0  0  0  0  0  0  0  0  0
   35.0560   29.9730   46.8010 C   0  0  0  0  0  0  0  0  0  0  0  0
   34.4650   29.5310   45.6190 C   0  0  0  0  0  0  0  0  0  0  0  0
   33.3330   28.7140   45.7120 N   0  0  0  0  0  0  0  0  0  0  0  0
   32.8330   28.3650   46.9040 C   0  0  0  0  0  0  0  0  0  0  0  0
   33.4290   28.8090   48.0110 N   0  0  0  0  0  0  0  0  0  0  0  0
   35.8820   30.5690   46.4390 H   0  0  0  0  0  0  0  0  0  0  0  0
   34.6890   29.6820   44.5900 H   0  0  0  0  0  0  0  0  0  0  0  0
   31.6830   27.5350   47.0120 N   0  0  0  0  0  0  0  0  0  0  0  0
   30.5360   27.6730   47.7170 C   0  0  0  0  0  0  0  0  0  0  0  0
   30.3390   28.5310   48.3540 H   0  0  0  0  0  0  0  0  0  0  0  0
   29.7580   26.5880   47.4690 N   0  0  0  0  0  0  0  0  0  0  0  0
   30.4040   25.7740   46.6180 C   0  0  0  0  0  0  0  0  0  0  0  0
   30.1360   24.5500   46.0080 C   0  0  0  0  0  0  0  0  0  0  0  0
   29.1990   24.0600   46.2130 H   0  0  0  0  0  0  0  0  0  0  0  0
   31.0090   23.9590   45.1710 N   0  0  0  0  0  0  0  0  0  0  0  0
   32.1920   24.5510   44.8980 C   0  0  0  0  0  0  0  0  0  0  0  0
   32.9260   24.1040   44.2260 H   0  0  0  0  0  0  0  0  0  0  0  0
   32.4510   25.7240   45.4800 N   0  0  0  0  0  0  0  0  0  0  0  0
   31.6060   26.3580   46.3290 C   0  0  0  0  0  0  0  0  0  0  0  0
   38.5780   31.1630   46.2590 Cl  0  0  0  0  0  0  0  0  0  0  0  0
   38.9210   32.2810   47.5530 C   0  0  0  0  0  0  0  0  0  0  0  0
   38.3920   31.9980   48.7870 C   0  0  0  0  0  0  0  0  0  0  0  0
   38.6760   32.9530   49.7430 C   0  0  0  0  0  0  0  0  0  0  0  0
   39.4230   34.0870   49.4900 C   0  0  0  0  0  0  0  0  0  0  0  0
   39.9290   34.3020   48.2060 C   0  0  0  0  0  0  0  0  0  0  0  0
   39.6650   33.3630   47.2090 C   0  0  0  0  0  0  0  0  0  0  0  0
   38.2850   32.7970   50.7440 H   0  0  0  0  0  0  0  0  0  0  0  0
   39.6100   34.7930   50.2800 H   0  0  0  0  0  0  0  0  0  0  0  0
   40.5190   35.1750   47.9630 H   0  0  0  0  0  0  0  0  0  0  0  0
   40.1810   33.5800   45.9060 N   0  0  0  0  0  0  0  0  0  0  0  0
   40.7040   32.7150   45.5880 H   0  0  0  0  0  0  0  0  0  0  0  0
   40.1440   34.3700   45.2540 H   0  0  0  0  0  0  0  0  0  0  0  0
  1  6  1  0  0  0  0
  1  7  1  1  0  0  0
  2  3  1  0  0  0  0
  2  1  1  0  0  0  0
  2  9  1  0  0  0  0
  3 10  1  6  0  0  0
  3  4  1  0  0  0  0
  4  5  1  0  0  0  0
  4 12  1  0  0  0  0
  5 13  1  0  0  0  0
  5 14  1  0  0  0  0
  6 16  1  0  0  0  0
  6  5  1  0  0  0  0
  8  2  1  0  0  0  0
 11  4  1  0  0  0  0
 15  6  1  0  0  0  0
 17 22  1  0  0  0  0
 17  1  1  0  0  0  0
 18 17  2  0  0  0  0
 19 20  2  0  0  0  0
 19 18  1  0  0  0  0
 20 21  1  0  0  0  0
 21 25  1  0  0  0  0
 21 22  2  0  0  0  0
 23 18  1  0  0  0  0
 24 19  1  0  0  0  0
 25 26  1  0  0  0  0
 26 27  1  0  0  0  0
 28 26  2  0  0  0  0
 29 28  1  0  0  0  0
 30 31  1  0  0  0  0
 30 29  2  0  0  0  0
 32 30  1  0  0  0  0
 33 32  2  0  0  0  0
 33 35  1  0  0  0  0
 34 33  1  0  0  0  0
 35 36  2  0  0  0  0
 36 29  1  0  0  0  0
 36 25  1  0  0  0  0
 37 38  1  0  0  0  0
 38 39  1  0  0  0  0
 39  3  1  0  0  0  0
 39 40  2  0  0  0  0
 40 44  1  0  0  0  0
 41 40  1  0  0  0  0
 41 45  1  0  0  0  0
 42 41  2  0  0  0  0
 43 38  2  0  0  0  0
 43 42  1  0  0  0  0
 46 42  1  0  0  0  0
 47 43  1  0  0  0  0
 48 47  1  0  0  0  0
 49 47  1  0  0  0  0
M  END
>  <minimizedAffinity>
-7.95426226

>  <minimizedRMSD>
1.45189941

$$$$
