
 OpenBabel03262521403D

 46 51  0  0  0  0  0  0  0  0999 V2000
   38.4600   31.4020   46.1190 C   0  0  0  0  0  0  0  0  0  0  0  0
   39.2010   31.4130   44.9680 N   0  0  0  0  0  0  0  0  0  0  0  0
   40.2020   32.3150   44.8270 C   0  0  0  0  0  0  0  0  0  0  0  0
   40.5150   33.2160   45.7730 N   0  0  0  0  0  0  0  0  0  0  0  0
   39.8210   33.2480   46.9240 C   0  0  0  0  0  0  0  0  0  0  0  0
   40.1440   34.1620   47.8780 C   0  0  0  0  0  0  0  0  0  0  0  0
   39.4400   34.2040   49.0640 C   0  0  0  0  0  0  0  0  0  0  0  0
   38.3860   33.2960   49.2780 C   0  0  0  0  0  0  0  0  0  0  0  0
   38.1060   32.3870   48.2610 C   0  0  0  0  0  0  0  0  0  0  0  0
   38.7930   32.3360   47.0870 C   0  0  0  0  0  0  0  0  0  0  0  0
   40.7790   32.3170   43.9180 H   0  0  0  0  0  0  0  0  0  0  0  0
   40.9590   34.8500   47.6910 H   0  0  0  0  0  0  0  0  0  0  0  0
   39.7450   34.9560   49.7880 H   0  0  0  0  0  0  0  0  0  0  0  0
   37.9130   33.4180   50.2280 H   0  0  0  0  0  0  0  0  0  0  0  0
   37.0210   31.5700   48.6700 N   0  0  0  0  0  0  0  0  0  0  0  0
   35.7830   31.3300   48.1360 C   0  0  0  0  0  0  0  0  0  0  0  0
   35.5110   31.8160   47.1950 H   0  0  0  0  0  0  0  0  0  0  0  0
   35.0830   30.4870   48.9150 N   0  0  0  0  0  0  0  0  0  0  0  0
   35.8090   30.1310   49.9870 C   0  0  0  0  0  0  0  0  0  0  0  0
   35.6640   29.3350   51.0980 C   0  0  0  0  0  0  0  0  0  0  0  0
   34.6960   28.8450   51.1400 H   0  0  0  0  0  0  0  0  0  0  0  0
   36.6500   29.2080   52.0070 N   0  0  0  0  0  0  0  0  0  0  0  0
   37.7930   29.8800   51.8120 C   0  0  0  0  0  0  0  0  0  0  0  0
   38.5330   29.7260   52.5860 H   0  0  0  0  0  0  0  0  0  0  0  0
   37.9740   30.6670   50.7420 N   0  0  0  0  0  0  0  0  0  0  0  0
   37.0150   30.8180   49.8130 C   0  0  0  0  0  0  0  0  0  0  0  0
   37.1350   30.2950   46.4580 S   0  0  0  0  0  0  0  0  0  0  0  0
   34.6500   28.7440   46.4110 F   0  0  0  0  0  0  0  0  0  0  0  0
   34.8160   29.4520   45.2510 C   0  0  0  0  0  0  0  0  0  0  0  0
   33.8740   29.3790   44.2410 C   0  0  0  0  0  0  0  0  0  0  0  0
   34.0840   30.1210   43.0680 C   0  0  0  0  0  0  0  0  0  0  0  0
   35.2220   30.9230   42.9180 C   0  0  0  0  0  0  0  0  0  0  0  0
   36.1110   30.9390   43.9720 C   0  0  0  0  0  0  0  0  0  0  0  0
   35.9380   30.2250   45.1340 C   0  0  0  0  0  0  0  0  0  0  0  0
   33.3270   30.0420   42.2970 H   0  0  0  0  0  0  0  0  0  0  0  0
   35.3580   31.4830   42.0070 H   0  0  0  0  0  0  0  0  0  0  0  0
   36.9590   31.5710   43.7990 H   0  0  0  0  0  0  0  0  0  0  0  0
   32.8790   27.2500   44.0150 C   0  0  0  0  0  0  0  0  0  0  0  0
   32.7440   28.5520   44.4500 C   0  0  0  0  0  0  0  0  0  0  0  0
   31.5310   28.8870   45.0310 C   0  0  0  0  0  0  0  0  0  0  0  0
   30.5550   27.9400   45.1430 N   0  0  0  0  0  0  0  0  0  0  0  0
   30.7420   26.6990   44.7070 C   0  0  0  0  0  0  0  0  0  0  0  0
   31.9040   26.3170   44.1310 N   0  0  0  0  0  0  0  0  0  0  0  0
   33.7940   26.8680   43.5390 H   0  0  0  0  0  0  0  0  0  0  0  0
   31.4460   29.9100   45.3640 H   0  0  0  0  0  0  0  0  0  0  0  0
   29.9260   25.9890   44.8240 H   0  0  0  0  0  0  0  0  0  0  0  0
  1 27  1  0  0  0  0
  1 10  1  0  0  0  0
  2  1  2  0  0  0  0
  3  2  1  0  0  0  0
  3  4  2  0  0  0  0
  4  5  1  0  0  0  0
  5 10  2  0  0  0  0
  5  6  1  0  0  0  0
  6  7  2  0  0  0  0
  7  8  1  0  0  0  0
  7 13  1  0  0  0  0
  8 14  1  0  0  0  0
  9 15  1  0  0  0  0
  9  8  2  0  0  0  0
 10  9  1  0  0  0  0
 11  3  1  0  0  0  0
 12  6  1  0  0  0  0
 15 26  1  0  0  0  0
 16 15  1  0  0  0  0
 16 18  2  0  0  0  0
 17 16  1  0  0  0  0
 18 19  1  0  0  0  0
 19 20  1  0  0  0  0
 20 21  1  0  0  0  0
 20 22  2  0  0  0  0
 23 22  1  0  0  0  0
 23 24  1  0  0  0  0
 25 23  2  0  0  0  0
 26 19  2  0  0  0  0
 26 25  1  0  0  0  0
 29 28  1  0  0  0  0
 30 39  1  0  0  0  0
 30 29  2  0  0  0  0
 31 30  1  0  0  0  0
 32 31  2  0  0  0  0
 32 33  1  0  0  0  0
 33 34  2  0  0  0  0
 34 29  1  0  0  0  0
 34 27  1  0  0  0  0
 35 31  1  0  0  0  0
 36 32  1  0  0  0  0
 37 33  1  0  0  0  0
 38 43  2  0  0  0  0
 38 39  1  0  0  0  0
 39 40  2  0  0  0  0
 40 41  1  0  0  0  0
 40 45  1  0  0  0  0
 42 46  1  0  0  0  0
 42 41  2  0  0  0  0
 43 42  1  0  0  0  0
 44 38  1  0  0  0  0
M  END
>  <minimizedAffinity>
-5.42416525

>  <minimizedRMSD>
2.09953356

$$$$
