
 OpenBabel03272508373D

 47 51  0  0  1  0  0  0  0  0999 V2000
   39.9800   31.5870   43.1000 N   0  0  0  0  0  0  0  0  0  0  0  0
   39.4590   32.8050   42.6340 C   0  0  0  0  0  0  0  0  0  0  0  0
   38.0330   32.8070   42.2230 C   0  0  0  0  0  0  0  0  0  0  0  0
   37.6630   31.6500   41.5240 O   0  0  0  0  0  0  0  0  0  0  0  0
   37.9800   30.5340   42.2370 C   0  0  0  0  0  0  0  0  0  0  0  0
   39.4340   30.4490   42.5080 C   0  0  1  0  0  0  0  0  0  0  0  0
   39.7490   33.7430   43.0670 H   0  0  0  0  0  0  0  0  0  0  0  0
   40.0490   32.8700   41.6550 H   0  0  0  0  0  0  0  0  0  0  0  0
   37.2900   33.2910   42.8210 H   0  0  0  0  0  0  0  0  0  0  0  0
   38.0070   33.5450   41.3290 H   0  0  0  0  0  0  0  0  0  0  0  0
   37.8220   29.7180   41.4790 H   0  0  0  0  0  0  0  0  0  0  0  0
   37.3040   30.2270   43.0260 H   0  0  0  0  0  0  0  0  0  0  0  0
   39.5420   29.6140   43.2640 H   0  0  0  0  0  0  0  0  0  0  0  0
   40.2120   29.9860   41.3610 N   0  0  0  0  0  0  0  0  0  0  0  0
   41.0170   30.7390   40.5830 C   0  0  0  0  0  0  0  0  0  0  0  0
   41.2310   31.7910   40.6580 H   0  0  0  0  0  0  0  0  0  0  0  0
   41.5890   29.9970   39.6080 N   0  0  0  0  0  0  0  0  0  0  0  0
   41.1550   28.7430   39.7470 C   0  0  0  0  0  0  0  0  0  0  0  0
   41.3650   27.5490   39.0840 C   0  0  0  0  0  0  0  0  0  0  0  0
   42.0250   27.5350   38.2370 H   0  0  0  0  0  0  0  0  0  0  0  0
   40.7450   26.4060   39.4980 N   0  0  0  0  0  0  0  0  0  0  0  0
   39.9270   26.4260   40.5480 C   0  0  0  0  0  0  0  0  0  0  0  0
   39.4560   25.4890   40.8400 H   0  0  0  0  0  0  0  0  0  0  0  0
   39.7010   27.5880   41.2220 N   0  0  0  0  0  0  0  0  0  0  0  0
   40.3110   28.7350   40.8210 C   0  0  0  0  0  0  0  0  0  0  0  0
   40.4330   31.5380   44.4220 C   0  0  0  0  0  0  0  0  0  0  0  0
   41.5530   31.5900   44.3900 H   0  0  0  0  0  0  0  0  0  0  0  0
   40.2510   30.4810   44.7860 H   0  0  0  0  0  0  0  0  0  0  0  0
   39.8440   32.4450   45.3840 C   0  0  0  0  0  0  0  0  0  0  0  0
   39.4280   33.4120   45.1330 H   0  0  0  0  0  0  0  0  0  0  0  0
   40.6720   32.7190   46.1120 H   0  0  0  0  0  0  0  0  0  0  0  0
   37.7130   30.9280   47.8450 C   0  0  0  0  0  0  0  0  0  0  0  0
   36.9240   30.8200   46.7180 C   0  0  0  0  0  0  0  0  0  0  0  0
   37.6470   31.3820   45.6590 C   0  0  0  0  0  0  0  0  0  0  0  0
   38.8060   31.7940   46.1730 N   0  0  0  0  0  0  0  0  0  0  0  0
   38.8480   31.5240   47.4800 N   0  0  0  0  0  0  0  0  0  0  0  0
   35.9130   30.3690   46.6840 H   0  0  0  0  0  0  0  0  0  0  0  0
   37.1750   31.3680   44.7460 H   0  0  0  0  0  0  0  0  0  0  0  0
   37.4570   30.1790   51.5190 C   0  0  0  0  0  0  0  0  0  0  0  0
   37.9730   30.6970   50.3290 C   0  0  0  0  0  0  0  0  0  0  0  0
   37.3010   30.4560   49.1410 C   0  0  0  0  0  0  0  0  0  0  0  0
   36.1700   29.7130   49.2510 N   0  0  0  0  0  0  0  0  0  0  0  0
   35.6890   29.2210   50.4120 C   0  0  0  0  0  0  0  0  0  0  0  0
   36.3400   29.4600   51.5370 N   0  0  0  0  0  0  0  0  0  0  0  0
   38.0340   30.4050   52.4230 H   0  0  0  0  0  0  0  0  0  0  0  0
   38.8690   31.2800   50.2770 H   0  0  0  0  0  0  0  0  0  0  0  0
   34.7790   28.6370   50.4130 H   0  0  0  0  0  0  0  0  0  0  0  0
  1 26  1  0  0  0  0
  2  7  1  0  0  0  0
  2  1  1  0  0  0  0
  3  2  1  0  0  0  0
  3  9  1  0  0  0  0
  4  3  1  0  0  0  0
  4  5  1  0  0  0  0
  5  6  1  0  0  0  0
  5 12  1  0  0  0  0
  6  1  1  0  0  0  0
  6 13  1  1  0  0  0
  8  2  1  0  0  0  0
 10  3  1  0  0  0  0
 11  5  1  0  0  0  0
 14  6  1  0  0  0  0
 15 16  1  0  0  0  0
 15 14  1  0  0  0  0
 17 18  1  0  0  0  0
 17 15  2  0  0  0  0
 18 25  1  0  0  0  0
 19 21  1  0  0  0  0
 19 18  2  0  0  0  0
 20 19  1  0  0  0  0
 21 22  2  0  0  0  0
 22 23  1  0  0  0  0
 22 24  1  0  0  0  0
 25 24  2  0  0  0  0
 25 14  1  0  0  0  0
 26 28  1  0  0  0  0
 26 29  1  0  0  0  0
 27 26  1  0  0  0  0
 29 31  1  0  0  0  0
 29 35  1  0  0  0  0
 30 29  1  0  0  0  0
 32 41  1  0  0  0  0
 33 32  1  0  0  0  0
 34 35  1  0  0  0  0
 34 33  2  0  0  0  0
 35 36  1  0  0  0  0
 36 32  2  0  0  0  0
 37 33  1  0  0  0  0
 38 34  1  0  0  0  0
 39 44  1  0  0  0  0
 39 45  1  0  0  0  0
 40 39  2  0  0  0  0
 41 42  2  0  0  0  0
 41 40  1  0  0  0  0
 42 43  1  0  0  0  0
 43 47  1  0  0  0  0
 43 44  2  0  0  0  0
 46 40  1  0  0  0  0
M  END
>  <minimizedAffinity>
-5.8485322

>  <minimizedRMSD>
1.19734538

$$$$
