
 OpenBabel03272503203D

 38 42  0  0  0  0  0  0  0  0999 V2000
   38.2760   32.8800   49.9000 C   0  0  0  0  0  0  0  0  0  0  0  0
   38.8560   33.1230   48.6360 C   0  0  0  0  0  0  0  0  0  0  0  0
   38.4030   32.3360   47.5530 C   0  0  0  0  0  0  0  0  0  0  0  0
   37.4660   31.4100   47.7560 N   0  0  0  0  0  0  0  0  0  0  0  0
   36.9320   31.2000   48.9730 C   0  0  0  0  0  0  0  0  0  0  0  0
   37.3340   31.9280   50.0280 N   0  0  0  0  0  0  0  0  0  0  0  0
   38.6260   33.4870   50.7250 H   0  0  0  0  0  0  0  0  0  0  0  0
   39.6130   33.8640   48.4460 H   0  0  0  0  0  0  0  0  0  0  0  0
   35.9380   30.1920   49.0960 N   0  0  0  0  0  0  0  0  0  0  0  0
   35.6230   29.6240   50.2960 C   0  0  0  0  0  0  0  0  0  0  0  0
   36.0650   29.8530   51.2630 H   0  0  0  0  0  0  0  0  0  0  0  0
   34.6670   28.7060   50.1690 N   0  0  0  0  0  0  0  0  0  0  0  0
   34.3570   28.6830   48.8470 C   0  0  0  0  0  0  0  0  0  0  0  0
   33.4640   27.9710   48.0500 C   0  0  0  0  0  0  0  0  0  0  0  0
   32.8650   27.2560   48.6300 H   0  0  0  0  0  0  0  0  0  0  0  0
   33.3820   28.1740   46.7240 N   0  0  0  0  0  0  0  0  0  0  0  0
   34.1890   29.0960   46.1420 C   0  0  0  0  0  0  0  0  0  0  0  0
   34.0460   29.1850   45.0730 H   0  0  0  0  0  0  0  0  0  0  0  0
   35.0810   29.8210   46.8750 N   0  0  0  0  0  0  0  0  0  0  0  0
   35.1550   29.6100   48.1980 C   0  0  0  0  0  0  0  0  0  0  0  0
   38.9600   32.5320   46.2110 C   0  0  0  0  0  0  0  0  0  0  0  0
   40.0950   33.0890   45.7870 C   0  0  0  0  0  0  0  0  0  0  0  0
   40.3710   33.1400   44.4660 C   0  0  0  0  0  0  0  0  0  0  0  0
   39.4340   32.5980   43.6090 C   0  0  0  0  0  0  0  0  0  0  0  0
   38.1300   32.0040   44.7510 S   0  0  0  0  0  0  0  0  0  0  0  0
   40.7740   33.4890   46.5370 H   0  0  0  0  0  0  0  0  0  0  0  0
   41.2490   33.5620   43.9950 H   0  0  0  0  0  0  0  0  0  0  0  0
   40.7640   30.1260   42.4340 Cl  0  0  0  0  0  0  0  0  0  0  0  0
   39.9520   31.3960   41.5710 C   0  0  0  0  0  0  0  0  0  0  0  0
   39.3790   32.4740   42.1710 C   0  0  0  0  0  0  0  0  0  0  0  0
   38.7300   33.4960   41.5430 C   0  0  0  0  0  0  0  0  0  0  0  0
   38.6190   33.4770   40.1520 C   0  0  0  0  0  0  0  0  0  0  0  0
   39.1810   32.4070   39.4790 C   0  0  0  0  0  0  0  0  0  0  0  0
   39.1050   32.2730   37.7350 Cl  0  0  0  0  0  0  0  0  0  0  0  0
   39.8390   31.3810   40.1820 C   0  0  0  0  0  0  0  0  0  0  0  0
   38.2770   34.3520   42.0320 H   0  0  0  0  0  0  0  0  0  0  0  0
   38.1300   34.2320   39.5900 H   0  0  0  0  0  0  0  0  0  0  0  0
   40.2840   30.5310   39.6500 H   0  0  0  0  0  0  0  0  0  0  0  0
  1  6  1  0  0  0  0
  1  7  1  0  0  0  0
  2  1  2  0  0  0  0
  3  4  2  0  0  0  0
  3  2  1  0  0  0  0
  4  5  1  0  0  0  0
  5  9  1  0  0  0  0
  5  6  2  0  0  0  0
  8  2  1  0  0  0  0
  9 10  1  0  0  0  0
 10 11  1  0  0  0  0
 12 10  2  0  0  0  0
 13 12  1  0  0  0  0
 14 15  1  0  0  0  0
 14 13  2  0  0  0  0
 16 14  1  0  0  0  0
 17 16  2  0  0  0  0
 17 19  1  0  0  0  0
 18 17  1  0  0  0  0
 19 20  2  0  0  0  0
 20 13  1  0  0  0  0
 20  9  1  0  0  0  0
 21  3  1  0  0  0  0
 22 21  2  0  0  0  0
 22 26  1  0  0  0  0
 23 22  1  0  0  0  0
 24 23  2  0  0  0  0
 24 25  1  0  0  0  0
 25 21  1  0  0  0  0
 27 23  1  0  0  0  0
 29 30  1  0  0  0  0
 29 28  1  0  0  0  0
 30 24  1  0  0  0  0
 31 36  1  0  0  0  0
 31 30  2  0  0  0  0
 32 31  1  0  0  0  0
 33 32  2  0  0  0  0
 33 35  1  0  0  0  0
 34 33  1  0  0  0  0
 35 29  2  0  0  0  0
 37 32  1  0  0  0  0
 38 35  1  0  0  0  0
M  END
>  <minimizedAffinity>
-7.19771528

>  <minimizedRMSD>
2.92872715

$$$$
