
 OpenBabel03272505443D

 27 29  0  0  0  0  0  0  0  0999 V2000
   40.2640   27.1540   34.1870 O   0  0  0  0  0  0  0  0  0  0  0  0
   38.9140   26.7650   34.7540 P   0  0  2  0  0  0  0  0  0  0  0  0
   38.8160   27.5360   36.2610 O   0  0  0  0  0  0  0  0  0  0  0  0
   39.2170   28.4340   36.2330 H   0  0  0  0  0  0  0  0  0  0  0  0
   38.8500   25.0690   34.9110 O   0  0  0  0  0  0  0  0  0  0  0  0
   39.7460   22.8660   37.6690 C   0  0  0  0  0  0  0  0  0  0  0  0
   38.8190   23.2980   38.6460 C   0  0  0  0  0  0  0  0  0  0  0  0
   37.9360   24.3260   38.2990 C   0  0  0  0  0  0  0  0  0  0  0  0
   38.0360   24.8350   37.0420 N   0  0  0  0  0  0  0  0  0  0  0  0
   38.9230   24.4090   36.1320 C   0  0  0  0  0  0  0  0  0  0  0  0
   39.7840   23.4200   36.4440 N   0  0  0  0  0  0  0  0  0  0  0  0
   40.4350   22.0650   37.9380 H   0  0  0  0  0  0  0  0  0  0  0  0
   38.7570   22.8850   39.6270 H   0  0  0  0  0  0  0  0  0  0  0  0
   37.1850   24.7370   38.9660 H   0  0  0  0  0  0  0  0  0  0  0  0
   37.7470   27.4110   33.7500 O   0  0  0  0  0  0  0  0  0  0  0  0
   39.5400   26.3160   31.8350 H   0  0  0  0  0  0  0  0  0  0  0  0
   38.8600   27.0630   31.5870 N   0  0  0  0  0  0  0  0  0  0  0  0
   37.9660   27.6580   32.3950 C   0  0  0  0  0  0  0  0  0  0  0  0
   37.2690   28.5770   31.6930 N   0  0  0  0  0  0  0  0  0  0  0  0
   37.7040   28.5880   30.4130 C   0  0  0  0  0  0  0  0  0  0  0  0
   37.3120   29.3400   29.3240 C   0  0  0  0  0  0  0  0  0  0  0  0
   36.5280   30.0850   29.3790 H   0  0  0  0  0  0  0  0  0  0  0  0
   37.9760   29.0790   28.1910 N   0  0  0  0  0  0  0  0  0  0  0  0
   38.9400   28.1630   28.1250 C   0  0  0  0  0  0  0  0  0  0  0  0
   39.4510   27.9870   27.1840 H   0  0  0  0  0  0  0  0  0  0  0  0
   39.3140   27.4280   29.2130 N   0  0  0  0  0  0  0  0  0  0  0  0
   38.6890   27.6340   30.3970 C   0  0  0  0  0  0  0  0  0  0  0  0
  2  1  2  6  0  0  0
  2  5  1  0  0  0  0
  2  3  1  0  0  0  0
  4  3  1  0  0  0  0
  5 10  1  0  0  0  0
  6 12  1  0  0  0  0
  6  7  1  0  0  0  0
  7 13  1  0  0  0  0
  8  7  2  0  0  0  0
  8 14  1  0  0  0  0
  9  8  1  0  0  0  0
 10 11  1  0  0  0  0
 10  9  2  0  0  0  0
 11  6  2  0  0  0  0
 15  2  1  0  0  0  0
 17 16  1  0  0  0  0
 17 18  1  0  0  0  0
 18 15  1  0  0  0  0
 19 18  2  0  0  0  0
 20 19  1  0  0  0  0
 21 22  1  0  0  0  0
 21 20  2  0  0  0  0
 23 21  1  0  0  0  0
 24 23  2  0  0  0  0
 24 26  1  0  0  0  0
 25 24  1  0  0  0  0
 26 27  2  0  0  0  0
 27 20  1  0  0  0  0
 27 17  1  0  0  0  0
M  END
>  <minimizedAffinity>
-5.04128647

$$$$

 OpenBabel03272505443D

 27 29  0  0  0  0  0  0  0  0999 V2000
   38.0050   24.3700   38.5520 O   0  0  0  0  0  0  0  0  0  0  0  0
   38.4870   23.4430   37.4550 P   0  0  2  0  0  0  0  0  0  0  0  0
   39.6440   22.4410   38.1840 O   0  0  0  0  0  0  0  0  0  0  0  0
   39.3840   22.1970   39.1010 H   0  0  0  0  0  0  0  0  0  0  0  0
   39.1670   24.3790   36.2030 O   0  0  0  0  0  0  0  0  0  0  0  0
   37.8200   27.6880   35.4920 C   0  0  0  0  0  0  0  0  0  0  0  0
   37.1850   27.4390   34.2530 C   0  0  0  0  0  0  0  0  0  0  0  0
   37.2560   26.1430   33.7320 C   0  0  0  0  0  0  0  0  0  0  0  0
   37.9340   25.2150   34.4590 N   0  0  0  0  0  0  0  0  0  0  0  0
   38.5290   25.4740   35.6320 C   0  0  0  0  0  0  0  0  0  0  0  0
   38.4740   26.7160   36.1540 N   0  0  0  0  0  0  0  0  0  0  0  0
   37.7660   28.6970   35.9000 H   0  0  0  0  0  0  0  0  0  0  0  0
   36.6580   28.1810   33.6980 H   0  0  0  0  0  0  0  0  0  0  0  0
   36.8070   25.8370   32.7920 H   0  0  0  0  0  0  0  0  0  0  0  0
   37.1880   22.5040   36.9890 O   0  0  0  0  0  0  0  0  0  0  0  0
   38.7820   22.6730   34.6410 H   0  0  0  0  0  0  0  0  0  0  0  0
   37.9020   22.1200   34.6690 N   0  0  0  0  0  0  0  0  0  0  0  0
   37.0660   21.9620   35.7100 C   0  0  0  0  0  0  0  0  0  0  0  0
   36.0350   21.1710   35.3420 N   0  0  0  0  0  0  0  0  0  0  0  0
   36.1920   20.8030   34.0500 C   0  0  0  0  0  0  0  0  0  0  0  0
   35.4160   20.0100   33.2290 C   0  0  0  0  0  0  0  0  0  0  0  0
   34.4980   19.5440   33.5630 H   0  0  0  0  0  0  0  0  0  0  0  0
   35.8860   19.8590   31.9840 N   0  0  0  0  0  0  0  0  0  0  0  0
   37.0160   20.4330   31.5750 C   0  0  0  0  0  0  0  0  0  0  0  0
   37.3570   20.2820   30.5560 H   0  0  0  0  0  0  0  0  0  0  0  0
   37.7700   21.2140   32.4020 N   0  0  0  0  0  0  0  0  0  0  0  0
   37.3610   21.4150   33.6770 C   0  0  0  0  0  0  0  0  0  0  0  0
  2  3  1  0  0  0  0
  2  1  2  1  0  0  0
  3  4  1  0  0  0  0
  5  2  1  0  0  0  0
  6 12  1  0  0  0  0
  6 11  1  0  0  0  0
  7  6  2  0  0  0  0
  8  7  1  0  0  0  0
  8  9  2  0  0  0  0
  9 10  1  0  0  0  0
 10 11  2  0  0  0  0
 10  5  1  0  0  0  0
 13  7  1  0  0  0  0
 14  8  1  0  0  0  0
 15  2  1  0  0  0  0
 16 17  1  0  0  0  0
 17 18  1  0  0  0  0
 18 15  1  0  0  0  0
 19 18  2  0  0  0  0
 20 19  1  0  0  0  0
 21 22  1  0  0  0  0
 21 20  2  0  0  0  0
 23 21  1  0  0  0  0
 24 23  2  0  0  0  0
 24 26  1  0  0  0  0
 25 24  1  0  0  0  0
 26 27  2  0  0  0  0
 27 20  1  0  0  0  0
 27 17  1  0  0  0  0
M  END
>  <minimizedAffinity>
-4.99923086

$$$$

 OpenBabel03272505443D

 27 29  0  0  0  0  0  0  0  0999 V2000
   39.3010   27.2970   33.6280 O   0  0  0  0  0  0  0  0  0  0  0  0
   38.5000   26.7020   34.7690 P   0  0  2  0  0  0  0  0  0  0  0  0
   38.9460   27.5880   36.1450 O   0  0  0  0  0  0  0  0  0  0  0  0
   39.0710   28.5410   35.9350 H   0  0  0  0  0  0  0  0  0  0  0  0
   38.9050   25.0540   34.9250 O   0  0  0  0  0  0  0  0  0  0  0  0
   39.7450   22.8300   37.6840 C   0  0  0  0  0  0  0  0  0  0  0  0
   38.8160   23.2740   38.6550 C   0  0  0  0  0  0  0  0  0  0  0  0
   37.9520   24.3160   38.3030 C   0  0  0  0  0  0  0  0  0  0  0  0
   38.0700   24.8270   37.0490 N   0  0  0  0  0  0  0  0  0  0  0  0
   38.9580   24.3900   36.1450 C   0  0  0  0  0  0  0  0  0  0  0  0
   39.8010   23.3870   36.4610 N   0  0  0  0  0  0  0  0  0  0  0  0
   40.4190   22.0180   37.9560 H   0  0  0  0  0  0  0  0  0  0  0  0
   38.7400   22.8590   39.6340 H   0  0  0  0  0  0  0  0  0  0  0  0
   37.2020   24.7360   38.9660 H   0  0  0  0  0  0  0  0  0  0  0  0
   36.8880   26.9910   34.4500 O   0  0  0  0  0  0  0  0  0  0  0  0
   37.0340   27.6320   31.6840 H   0  0  0  0  0  0  0  0  0  0  0  0
   36.5810   28.2660   32.3720 N   0  0  0  0  0  0  0  0  0  0  0  0
   36.4480   28.0790   33.6960 C   0  0  0  0  0  0  0  0  0  0  0  0
   35.8010   29.1340   34.2360 N   0  0  0  0  0  0  0  0  0  0  0  0
   35.5030   30.0240   33.2630 C   0  0  0  0  0  0  0  0  0  0  0  0
   34.8560   31.2420   33.3080 C   0  0  0  0  0  0  0  0  0  0  0  0
   34.4730   31.6670   34.2270 H   0  0  0  0  0  0  0  0  0  0  0  0
   34.7370   31.8610   32.1270 N   0  0  0  0  0  0  0  0  0  0  0  0
   35.2090   31.3370   30.9970 C   0  0  0  0  0  0  0  0  0  0  0  0
   35.0880   31.8770   30.0630 H   0  0  0  0  0  0  0  0  0  0  0  0
   35.8460   30.1300   30.9720 N   0  0  0  0  0  0  0  0  0  0  0  0
   36.0060   29.4420   32.1260 C   0  0  0  0  0  0  0  0  0  0  0  0
  2  1  2  6  0  0  0
  2  5  1  0  0  0  0
  2  3  1  0  0  0  0
  4  3  1  0  0  0  0
  5 10  1  0  0  0  0
  6 12  1  0  0  0  0
  6  7  1  0  0  0  0
  7 13  1  0  0  0  0
  8  7  2  0  0  0  0
  8 14  1  0  0  0  0
  9  8  1  0  0  0  0
 10 11  1  0  0  0  0
 10  9  2  0  0  0  0
 11  6  2  0  0  0  0
 15  2  1  0  0  0  0
 16 17  1  0  0  0  0
 17 18  1  0  0  0  0
 18 19  2  0  0  0  0
 18 15  1  0  0  0  0
 20 21  1  0  0  0  0
 20 19  1  0  0  0  0
 21 22  1  0  0  0  0
 23 21  2  0  0  0  0
 24 23  1  0  0  0  0
 25 24  1  0  0  0  0
 26 24  2  0  0  0  0
 26 27  1  0  0  0  0
 27 17  1  0  0  0  0
 27 20  2  0  0  0  0
M  END
>  <minimizedAffinity>
-4.93704987

$$$$

 OpenBabel03272505443D

 27 29  0  0  0  0  0  0  0  0999 V2000
   40.4170   26.9730   34.4940 O   0  0  0  0  0  0  0  0  0  0  0  0
   38.9280   26.7310   34.6370 P   0  0  2  0  0  0  0  0  0  0  0  0
   38.4390   27.6820   35.9530 O   0  0  0  0  0  0  0  0  0  0  0  0
   38.9090   28.5470   35.9670 H   0  0  0  0  0  0  0  0  0  0  0  0
   38.6650   25.0730   34.9300 O   0  0  0  0  0  0  0  0  0  0  0  0
   37.9390   24.2180   38.3960 C   0  0  0  0  0  0  0  0  0  0  0  0
   38.9020   23.2040   38.6110 C   0  0  0  0  0  0  0  0  0  0  0  0
   39.7490   22.8720   37.5480 C   0  0  0  0  0  0  0  0  0  0  0  0
   39.5810   23.5510   36.3820 N   0  0  0  0  0  0  0  0  0  0  0  0
   38.6620   24.5100   36.2010 C   0  0  0  0  0  0  0  0  0  0  0  0
   37.8350   24.8470   37.2110 N   0  0  0  0  0  0  0  0  0  0  0  0
   37.2790   24.4780   39.2220 H   0  0  0  0  0  0  0  0  0  0  0  0
   39.0170   22.6820   39.5330 H   0  0  0  0  0  0  0  0  0  0  0  0
   40.5220   22.1110   37.5980 H   0  0  0  0  0  0  0  0  0  0  0  0
   38.1930   27.3140   33.2570 O   0  0  0  0  0  0  0  0  0  0  0  0
   36.2610   27.8550   35.2710 H   0  0  0  0  0  0  0  0  0  0  0  0
   36.1910   28.2660   34.3180 N   0  0  0  0  0  0  0  0  0  0  0  0
   37.0340   28.0890   33.2860 C   0  0  0  0  0  0  0  0  0  0  0  0
   36.5930   28.7920   32.2210 N   0  0  0  0  0  0  0  0  0  0  0  0
   35.4530   29.4390   32.5510 C   0  0  0  0  0  0  0  0  0  0  0  0
   34.6330   30.2730   31.8190 C   0  0  0  0  0  0  0  0  0  0  0  0
   34.8340   30.5310   30.7860 H   0  0  0  0  0  0  0  0  0  0  0  0
   33.5680   30.7420   32.4820 N   0  0  0  0  0  0  0  0  0  0  0  0
   33.3230   30.4230   33.7520 C   0  0  0  0  0  0  0  0  0  0  0  0
   32.4460   30.8280   34.2470 H   0  0  0  0  0  0  0  0  0  0  0  0
   34.1460   29.5970   34.4600 N   0  0  0  0  0  0  0  0  0  0  0  0
   35.2440   29.0820   33.8600 C   0  0  0  0  0  0  0  0  0  0  0  0
  2  1  2  6  0  0  0
  2  5  1  0  0  0  0
  2  3  1  0  0  0  0
  3  4  1  0  0  0  0
  5 10  1  0  0  0  0
  6  7  1  0  0  0  0
  6 12  1  0  0  0  0
  7 13  1  0  0  0  0
  8 14  1  0  0  0  0
  8  7  2  0  0  0  0
  9  8  1  0  0  0  0
 10  9  2  0  0  0  0
 10 11  1  0  0  0  0
 11  6  2  0  0  0  0
 15 18  1  0  0  0  0
 15  2  1  0  0  0  0
 17 16  1  0  0  0  0
 18 17  1  0  0  0  0
 19 20  1  0  0  0  0
 19 18  2  0  0  0  0
 20 27  1  0  0  0  0
 21 23  1  0  0  0  0
 21 20  2  0  0  0  0
 22 21  1  0  0  0  0
 23 24  2  0  0  0  0
 24 25  1  0  0  0  0
 24 26  1  0  0  0  0
 27 17  1  0  0  0  0
 27 26  2  0  0  0  0
M  END
>  <minimizedAffinity>
-4.81716585

$$$$

 OpenBabel03272505443D

 27 29  0  0  0  0  0  0  0  0999 V2000
   35.5950   25.0490   31.6010 O   0  0  0  0  0  0  0  0  0  0  0  0
   37.1020   24.9900   31.7460 P   0  0  2  0  0  0  0  0  0  0  0  0
   37.7170   25.8930   30.4500 O   0  0  0  0  0  0  0  0  0  0  0  0
   37.1640   26.6870   30.2690 H   0  0  0  0  0  0  0  0  0  0  0  0
   37.5990   23.3610   31.6670 O   0  0  0  0  0  0  0  0  0  0  0  0
   35.1980   20.6220   31.6450 C   0  0  0  0  0  0  0  0  0  0  0  0
   35.2850   20.2020   32.9930 C   0  0  0  0  0  0  0  0  0  0  0  0
   36.1680   20.8870   33.8340 C   0  0  0  0  0  0  0  0  0  0  0  0
   36.8790   21.9100   33.2910 N   0  0  0  0  0  0  0  0  0  0  0  0
   36.7800   22.2920   32.0100 C   0  0  0  0  0  0  0  0  0  0  0  0
   35.9360   21.6470   31.1800 N   0  0  0  0  0  0  0  0  0  0  0  0
   34.5110   20.0900   30.9870 H   0  0  0  0  0  0  0  0  0  0  0  0
   34.7180   19.3960   33.3990 H   0  0  0  0  0  0  0  0  0  0  0  0
   36.3170   20.6520   34.8840 H   0  0  0  0  0  0  0  0  0  0  0  0
   37.4960   25.7650   33.1700 O   0  0  0  0  0  0  0  0  0  0  0  0
   39.4900   23.7720   33.5370 H   0  0  0  0  0  0  0  0  0  0  0  0
   38.9410   24.1530   34.3340 N   0  0  0  0  0  0  0  0  0  0  0  0
   37.9780   25.0910   34.2910 C   0  0  0  0  0  0  0  0  0  0  0  0
   37.5090   25.3090   35.5390 N   0  0  0  0  0  0  0  0  0  0  0  0
   38.1660   24.5120   36.4110 C   0  0  0  0  0  0  0  0  0  0  0  0
   38.0510   24.3670   37.7780 C   0  0  0  0  0  0  0  0  0  0  0  0
   37.3450   24.9380   38.3690 H   0  0  0  0  0  0  0  0  0  0  0  0
   38.8790   23.4660   38.3220 N   0  0  0  0  0  0  0  0  0  0  0  0
   39.7460   22.7650   37.5930 C   0  0  0  0  0  0  0  0  0  0  0  0
   40.3970   22.0460   38.0790 H   0  0  0  0  0  0  0  0  0  0  0  0
   39.8460   22.9220   36.2410 N   0  0  0  0  0  0  0  0  0  0  0  0
   39.0420   23.8150   35.6170 C   0  0  0  0  0  0  0  0  0  0  0  0
  2  1  2  6  0  0  0
  2 15  1  0  0  0  0
  3  2  1  0  0  0  0
  4  3  1  0  0  0  0
  5  2  1  0  0  0  0
  5 10  1  0  0  0  0
  6  7  1  0  0  0  0
  7 13  1  0  0  0  0
  7  8  2  0  0  0  0
  8 14  1  0  0  0  0
  9  8  1  0  0  0  0
 10  9  2  0  0  0  0
 11  6  2  0  0  0  0
 11 10  1  0  0  0  0
 12  6  1  0  0  0  0
 15 18  1  0  0  0  0
 16 17  1  0  0  0  0
 17 27  1  0  0  0  0
 18 17  1  0  0  0  0
 18 19  2  0  0  0  0
 19 20  1  0  0  0  0
 20 21  1  0  0  0  0
 21 23  2  0  0  0  0
 21 22  1  0  0  0  0
 24 25  1  0  0  0  0
 24 23  1  0  0  0  0
 26 24  2  0  0  0  0
 27 26  1  0  0  0  0
 27 20  2  0  0  0  0
M  END
>  <minimizedAffinity>
-4.7301178

$$$$

 OpenBabel03272505443D

 27 29  0  0  0  0  0  0  0  0999 V2000
   39.5570   22.5700   36.9000 O   0  0  0  0  0  0  0  0  0  0  0  0
   38.3260   22.9770   36.1150 P   0  0  2  0  0  0  0  0  0  0  0  0
   37.0220   22.2340   36.9030 O   0  0  0  0  0  0  0  0  0  0  0  0
   37.1380   22.2430   37.8810 H   0  0  0  0  0  0  0  0  0  0  0  0
   38.4880   22.4230   34.5120 O   0  0  0  0  0  0  0  0  0  0  0  0
   36.0350   22.5620   31.8220 C   0  0  0  0  0  0  0  0  0  0  0  0
   35.1910   21.4910   32.1990 C   0  0  0  0  0  0  0  0  0  0  0  0
   35.5150   20.7810   33.3590 C   0  0  0  0  0  0  0  0  0  0  0  0
   36.6220   21.1750   34.0420 N   0  0  0  0  0  0  0  0  0  0  0  0
   37.4080   22.1940   33.6670 C   0  0  0  0  0  0  0  0  0  0  0  0
   37.1160   22.8920   32.5520 N   0  0  0  0  0  0  0  0  0  0  0  0
   35.7850   23.1160   30.9190 H   0  0  0  0  0  0  0  0  0  0  0  0
   34.3260   21.1980   31.6480 H   0  0  0  0  0  0  0  0  0  0  0  0
   34.9400   19.9430   33.7420 H   0  0  0  0  0  0  0  0  0  0  0  0
   38.1650   24.6310   36.2630 O   0  0  0  0  0  0  0  0  0  0  0  0
   39.4520   24.8230   33.7360 H   0  0  0  0  0  0  0  0  0  0  0  0
   38.6810   25.4650   34.0100 N   0  0  0  0  0  0  0  0  0  0  0  0
   37.9970   25.4760   35.1670 C   0  0  0  0  0  0  0  0  0  0  0  0
   37.0770   26.4640   35.1340 N   0  0  0  0  0  0  0  0  0  0  0  0
   37.1520   27.1080   33.9470 C   0  0  0  0  0  0  0  0  0  0  0  0
   36.4340   28.1720   33.4410 C   0  0  0  0  0  0  0  0  0  0  0  0
   35.6440   28.6620   33.9960 H   0  0  0  0  0  0  0  0  0  0  0  0
   36.7870   28.5540   32.2070 N   0  0  0  0  0  0  0  0  0  0  0  0
   37.7590   27.9500   31.5250 C   0  0  0  0  0  0  0  0  0  0  0  0
   38.0100   28.2960   30.5270 H   0  0  0  0  0  0  0  0  0  0  0  0
   38.4590   26.8990   32.0430 N   0  0  0  0  0  0  0  0  0  0  0  0
   38.1600   26.4530   33.2860 C   0  0  0  0  0  0  0  0  0  0  0  0
  2 15  1  0  0  0  0
  2  1  2  1  0  0  0
  2  3  1  0  0  0  0
  3  4  1  0  0  0  0
  5  2  1  0  0  0  0
  6  7  2  0  0  0  0
  6 11  1  0  0  0  0
  7  8  1  0  0  0  0
  8 14  1  0  0  0  0
  8  9  2  0  0  0  0
 10  9  1  0  0  0  0
 10  5  1  0  0  0  0
 11 10  2  0  0  0  0
 12  6  1  0  0  0  0
 13  7  1  0  0  0  0
 16 17  1  0  0  0  0
 17 18  1  0  0  0  0
 18 15  1  0  0  0  0
 19 18  2  0  0  0  0
 20 19  1  0  0  0  0
 21 20  1  0  0  0  0
 21 22  1  0  0  0  0
 23 21  2  0  0  0  0
 24 26  2  0  0  0  0
 24 23  1  0  0  0  0
 25 24  1  0  0  0  0
 26 27  1  0  0  0  0
 27 20  2  0  0  0  0
 27 17  1  0  0  0  0
M  END
>  <minimizedAffinity>
-4.68553972

$$$$

 OpenBabel03272505443D

 27 29  0  0  0  0  0  0  0  0999 V2000
   36.8870   25.0260   32.2580 O   0  0  0  0  0  0  0  0  0  0  0  0
   37.3730   23.8770   31.3990 P   0  0  2  0  0  0  0  0  0  0  0  0
   37.9440   24.5890   29.9700 O   0  0  0  0  0  0  0  0  0  0  0  0
   38.4070   25.4390   30.1510 H   0  0  0  0  0  0  0  0  0  0  0  0
   36.0660   22.8250   31.0970 O   0  0  0  0  0  0  0  0  0  0  0  0
   35.5560   20.2410   33.6120 C   0  0  0  0  0  0  0  0  0  0  0  0
   35.5320   19.0910   32.7880 C   0  0  0  0  0  0  0  0  0  0  0  0
   35.6940   19.2710   31.4110 C   0  0  0  0  0  0  0  0  0  0  0  0
   35.8620   20.5450   30.9640 N   0  0  0  0  0  0  0  0  0  0  0  0
   35.8820   21.6200   31.7640 C   0  0  0  0  0  0  0  0  0  0  0  0
   35.7280   21.4710   33.0950 N   0  0  0  0  0  0  0  0  0  0  0  0
   35.4310   20.1020   34.6860 H   0  0  0  0  0  0  0  0  0  0  0  0
   35.3990   18.1000   33.1580 H   0  0  0  0  0  0  0  0  0  0  0  0
   35.6920   18.4640   30.6850 H   0  0  0  0  0  0  0  0  0  0  0  0
   38.6600   23.1700   32.1920 O   0  0  0  0  0  0  0  0  0  0  0  0
   36.8880   23.8670   34.3040 H   0  0  0  0  0  0  0  0  0  0  0  0
   37.8490   23.5140   34.4870 N   0  0  0  0  0  0  0  0  0  0  0  0
   38.7750   23.1530   33.5820 C   0  0  0  0  0  0  0  0  0  0  0  0
   39.8950   22.7510   34.2220 N   0  0  0  0  0  0  0  0  0  0  0  0
   39.7060   22.8450   35.5570 C   0  0  0  0  0  0  0  0  0  0  0  0
   40.5400   22.5560   36.6180 C   0  0  0  0  0  0  0  0  0  0  0  0
   41.5470   22.1800   36.4850 H   0  0  0  0  0  0  0  0  0  0  0  0
   40.0100   22.7760   37.8280 N   0  0  0  0  0  0  0  0  0  0  0  0
   38.7720   23.2380   37.9900 C   0  0  0  0  0  0  0  0  0  0  0  0
   38.3860   23.4000   38.9910 H   0  0  0  0  0  0  0  0  0  0  0  0
   37.9610   23.5180   36.9280 N   0  0  0  0  0  0  0  0  0  0  0  0
   38.4250   23.3230   35.6720 C   0  0  0  0  0  0  0  0  0  0  0  0
  2 15  1  0  0  0  0
  2  1  2  1  0  0  0
  3  4  1  0  0  0  0
  3  2  1  0  0  0  0
  5  2  1  0  0  0  0
  5 10  1  0  0  0  0
  6 12  1  0  0  0  0
  7 13  1  0  0  0  0
  7  6  2  0  0  0  0
  8  7  1  0  0  0  0
  9  8  2  0  0  0  0
  9 10  1  0  0  0  0
 10 11  2  0  0  0  0
 11  6  1  0  0  0  0
 14  8  1  0  0  0  0
 15 18  1  0  0  0  0
 16 17  1  0  0  0  0
 17 27  1  0  0  0  0
 18 19  2  0  0  0  0
 18 17  1  0  0  0  0
 19 20  1  0  0  0  0
 20 27  2  0  0  0  0
 20 21  1  0  0  0  0
 21 23  2  0  0  0  0
 22 21  1  0  0  0  0
 23 24  1  0  0  0  0
 24 25  1  0  0  0  0
 26 24  2  0  0  0  0
 27 26  1  0  0  0  0
M  END
>  <minimizedAffinity>
-4.6849041

$$$$

 OpenBabel03272505443D

 27 29  0  0  0  0  0  0  0  0999 V2000
   37.6510   27.9470   31.7550 O   0  0  0  0  0  0  0  0  0  0  0  0
   36.3690   28.0260   30.9510 P   0  0  2  0  0  0  0  0  0  0  0  0
   36.8510   27.9870   29.3260 O   0  0  0  0  0  0  0  0  0  0  0  0
   37.6060   27.3710   29.1880 H   0  0  0  0  0  0  0  0  0  0  0  0
   35.5690   29.4820   31.3330 O   0  0  0  0  0  0  0  0  0  0  0  0
   33.0320   29.6260   33.9430 C   0  0  0  0  0  0  0  0  0  0  0  0
   33.7810   30.2160   34.9880 C   0  0  0  0  0  0  0  0  0  0  0  0
   35.1200   30.5310   34.7340 C   0  0  0  0  0  0  0  0  0  0  0  0
   35.6030   30.2450   33.4960 N   0  0  0  0  0  0  0  0  0  0  0  0
   34.8740   29.6860   32.5200 C   0  0  0  0  0  0  0  0  0  0  0  0
   33.5820   29.3740   32.7410 N   0  0  0  0  0  0  0  0  0  0  0  0
   31.9890   29.3800   34.1390 H   0  0  0  0  0  0  0  0  0  0  0  0
   33.3830   30.4310   35.9530 H   0  0  0  0  0  0  0  0  0  0  0  0
   35.7890   30.9840   35.4590 H   0  0  0  0  0  0  0  0  0  0  0  0
   35.4890   26.6470   31.2790 O   0  0  0  0  0  0  0  0  0  0  0  0
   37.9830   25.6530   30.3430 H   0  0  0  0  0  0  0  0  0  0  0  0
   37.2290   25.0190   30.6760 N   0  0  0  0  0  0  0  0  0  0  0  0
   36.0150   25.3630   31.1400 C   0  0  0  0  0  0  0  0  0  0  0  0
   35.3290   24.2470   31.4710 N   0  0  0  0  0  0  0  0  0  0  0  0
   36.0950   23.1600   31.2260 C   0  0  0  0  0  0  0  0  0  0  0  0
   35.8470   21.8140   31.3970 C   0  0  0  0  0  0  0  0  0  0  0  0
   34.9110   21.4360   31.7880 H   0  0  0  0  0  0  0  0  0  0  0  0
   36.8540   21.0050   31.0410 N   0  0  0  0  0  0  0  0  0  0  0  0
   38.0050   21.4710   30.5600 C   0  0  0  0  0  0  0  0  0  0  0  0
   38.7930   20.7770   30.2850 H   0  0  0  0  0  0  0  0  0  0  0  0
   38.2320   22.8070   30.3980 N   0  0  0  0  0  0  0  0  0  0  0  0
   37.2620   23.6890   30.7350 C   0  0  0  0  0  0  0  0  0  0  0  0
  2 15  1  0  0  0  0
  2  5  1  0  0  0  0
  2  1  2  1  0  0  0
  3  2  1  0  0  0  0
  4  3  1  0  0  0  0
  5 10  1  0  0  0  0
  6 12  1  0  0  0  0
  6  7  1  0  0  0  0
  7 13  1  0  0  0  0
  8  7  2  0  0  0  0
  8 14  1  0  0  0  0
  9  8  1  0  0  0  0
 10 11  1  0  0  0  0
 10  9  2  0  0  0  0
 11  6  2  0  0  0  0
 16 17  1  0  0  0  0
 17 27  1  0  0  0  0
 17 18  1  0  0  0  0
 18 15  1  0  0  0  0
 18 19  2  0  0  0  0
 20 21  1  0  0  0  0
 20 19  1  0  0  0  0
 21 22  1  0  0  0  0
 23 21  2  0  0  0  0
 24 23  1  0  0  0  0
 25 24  1  0  0  0  0
 26 24  2  0  0  0  0
 26 27  1  0  0  0  0
 27 20  2  0  0  0  0
M  END
>  <minimizedAffinity>
-4.68124485

$$$$

 OpenBabel03272505443D

 27 29  0  0  0  0  0  0  0  0999 V2000
   40.6570   27.4320   33.8900 O   0  0  0  0  0  0  0  0  0  0  0  0
   39.5650   26.6310   34.5690 P   0  0  2  0  0  0  0  0  0  0  0  0
   39.1120   27.5430   35.9250 O   0  0  0  0  0  0  0  0  0  0  0  0
   39.1130   28.5070   35.7280 H   0  0  0  0  0  0  0  0  0  0  0  0
   40.1940   25.1120   35.0170 O   0  0  0  0  0  0  0  0  0  0  0  0
   39.8090   22.7480   37.7610 C   0  0  0  0  0  0  0  0  0  0  0  0
   38.5160   23.1000   38.2160 C   0  0  0  0  0  0  0  0  0  0  0  0
   37.8500   24.1340   37.5500 C   0  0  0  0  0  0  0  0  0  0  0  0
   38.4970   24.7260   36.5110 N   0  0  0  0  0  0  0  0  0  0  0  0
   39.7220   24.3740   36.0970 C   0  0  0  0  0  0  0  0  0  0  0  0
   40.3840   23.3810   36.7230 N   0  0  0  0  0  0  0  0  0  0  0  0
   40.3300   21.9430   38.2780 H   0  0  0  0  0  0  0  0  0  0  0  0
   38.0260   22.6240   39.0330 H   0  0  0  0  0  0  0  0  0  0  0  0
   36.8570   24.4880   37.8110 H   0  0  0  0  0  0  0  0  0  0  0  0
   38.2710   26.5610   33.5190 O   0  0  0  0  0  0  0  0  0  0  0  0
   39.1730   23.8690   33.6450 H   0  0  0  0  0  0  0  0  0  0  0  0
   38.3080   24.1350   33.1330 N   0  0  0  0  0  0  0  0  0  0  0  0
   37.7790   25.3640   33.0010 C   0  0  0  0  0  0  0  0  0  0  0  0
   36.6520   25.2890   32.2610 N   0  0  0  0  0  0  0  0  0  0  0  0
   36.4330   24.0040   31.9040 C   0  0  0  0  0  0  0  0  0  0  0  0
   35.4270   23.4240   31.1590 C   0  0  0  0  0  0  0  0  0  0  0  0
   34.6120   23.9950   30.7310 H   0  0  0  0  0  0  0  0  0  0  0  0
   35.5340   22.0980   31.0030 N   0  0  0  0  0  0  0  0  0  0  0  0
   36.5360   21.3970   31.5300 C   0  0  0  0  0  0  0  0  0  0  0  0
   36.5800   20.3240   31.3770 H   0  0  0  0  0  0  0  0  0  0  0  0
   37.5220   21.9890   32.2650 N   0  0  0  0  0  0  0  0  0  0  0  0
   37.4850   23.3270   32.4670 C   0  0  0  0  0  0  0  0  0  0  0  0
  2  1  2  6  0  0  0
  2  5  1  0  0  0  0
  2  3  1  0  0  0  0
  4  3  1  0  0  0  0
  5 10  1  0  0  0  0
  6  7  1  0  0  0  0
  6 12  1  0  0  0  0
  7 13  1  0  0  0  0
  8 14  1  0  0  0  0
  8  7  2  0  0  0  0
  9  8  1  0  0  0  0
 10  9  2  0  0  0  0
 10 11  1  0  0  0  0
 11  6  2  0  0  0  0
 15  2  1  0  0  0  0
 17 16  1  0  0  0  0
 18 17  1  0  0  0  0
 18 15  1  0  0  0  0
 19 18  2  0  0  0  0
 20 19  1  0  0  0  0
 20 27  1  0  0  0  0
 21 20  2  0  0  0  0
 22 21  1  0  0  0  0
 23 21  1  0  0  0  0
 23 24  2  0  0  0  0
 24 26  1  0  0  0  0
 25 24  1  0  0  0  0
 26 27  2  0  0  0  0
 27 17  1  0  0  0  0
M  END
>  <minimizedAffinity>
-4.56542444

$$$$
