
 OpenBabel03272506553D

 23 25  0  0  0  0  0  0  0  0999 V2000
   36.1870   30.7460   48.9640 C   0  0  0  0  0  0  0  0  0  0  0  0
   37.3480   30.8120   48.1710 C   0  0  0  0  0  0  0  0  0  0  0  0
   37.1650   30.5520   46.7860 C   0  0  0  0  0  0  0  0  0  0  0  0
   35.9070   30.2640   46.3380 N   0  0  0  0  0  0  0  0  0  0  0  0
   34.8460   30.2190   47.1520 C   0  0  0  0  0  0  0  0  0  0  0  0
   34.9620   30.4570   48.4740 N   0  0  0  0  0  0  0  0  0  0  0  0
   36.2870   30.9400   50.0360 H   0  0  0  0  0  0  0  0  0  0  0  0
   38.0190   30.5940   46.1540 H   0  0  0  0  0  0  0  0  0  0  0  0
   33.6350   29.8990   46.4600 N   0  0  0  0  0  0  0  0  0  0  0  0
   32.5410   30.6690   46.3010 C   0  0  0  0  0  0  0  0  0  0  0  0
   32.4630   31.6820   46.7110 H   0  0  0  0  0  0  0  0  0  0  0  0
   31.6190   29.9980   45.5860 N   0  0  0  0  0  0  0  0  0  0  0  0
   32.1140   28.7730   45.2720 C   0  0  0  0  0  0  0  0  0  0  0  0
   31.5220   27.7520   44.5530 C   0  0  0  0  0  0  0  0  0  0  0  0
   30.5430   27.8400   44.1460 H   0  0  0  0  0  0  0  0  0  0  0  0
   32.2850   26.6300   44.4060 N   0  0  0  0  0  0  0  0  0  0  0  0
   33.5250   26.5720   44.9460 C   0  0  0  0  0  0  0  0  0  0  0  0
   34.1070   25.6590   44.8070 H   0  0  0  0  0  0  0  0  0  0  0  0
   34.0430   27.5890   45.6280 N   0  0  0  0  0  0  0  0  0  0  0  0
   33.3910   28.7330   45.8350 C   0  0  0  0  0  0  0  0  0  0  0  0
   38.6170   31.1220   48.7420 N   0  0  0  0  0  0  0  0  0  0  0  0
   38.6570   31.9670   49.3800 H   0  0  0  0  0  0  0  0  0  0  0  0
   39.4460   30.5280   48.5230 H   0  0  0  0  0  0  0  0  0  0  0  0
  1  7  1  0  0  0  0
  2 21  1  0  0  0  0
  2  1  2  0  0  0  0
  3  2  1  0  0  0  0
  4  3  2  0  0  0  0
  4  5  1  0  0  0  0
  5  6  2  0  0  0  0
  6  1  1  0  0  0  0
  8  3  1  0  0  0  0
  9  5  1  0  0  0  0
 10  9  1  0  0  0  0
 10 11  1  0  0  0  0
 12 10  2  0  0  0  0
 13 12  1  0  0  0  0
 13 20  1  0  0  0  0
 14 13  2  0  0  0  0
 15 14  1  0  0  0  0
 16 14  1  0  0  0  0
 16 17  2  0  0  0  0
 17 19  1  0  0  0  0
 18 17  1  0  0  0  0
 19 20  2  0  0  0  0
 20  9  1  0  0  0  0
 21 22  1  0  0  0  0
 23 21  1  0  0  0  0
M  END
>  <minimizedAffinity>
-3.50315595

>  <minimizedRMSD>
3.44320488

$$$$
