
 OpenBabel03272507473D

 49 54  0  0  0  0  0  0  0  0999 V2000
   32.3190   28.1610   47.4630 N   0  0  0  0  0  0  0  0  0  0  0  0
   32.5570   27.9020   48.8410 C   0  0  0  0  0  0  0  0  0  0  0  0
   33.7710   28.5100   49.4350 C   0  0  0  0  0  0  0  0  0  0  0  0
   34.9680   28.5410   48.5950 C   0  0  0  0  0  0  0  0  0  0  0  0
   34.6330   28.7480   47.1070 C   0  0  0  0  0  0  0  0  0  0  0  0
   33.5050   27.7680   46.7550 C   0  0  0  0  0  0  0  0  0  0  0  0
   31.6550   28.2240   49.4370 H   0  0  0  0  0  0  0  0  0  0  0  0
   32.6290   26.8010   48.9660 H   0  0  0  0  0  0  0  0  0  0  0  0
   33.4420   29.5940   49.5660 H   0  0  0  0  0  0  0  0  0  0  0  0
   33.9340   28.1060   50.4420 H   0  0  0  0  0  0  0  0  0  0  0  0
   35.5380   27.5750   48.6050 H   0  0  0  0  0  0  0  0  0  0  0  0
   34.3120   29.7640   46.8830 H   0  0  0  0  0  0  0  0  0  0  0  0
   35.5150   28.4160   46.5120 H   0  0  0  0  0  0  0  0  0  0  0  0
   33.2840   27.8240   45.6800 H   0  0  0  0  0  0  0  0  0  0  0  0
   33.8250   26.7280   46.9610 H   0  0  0  0  0  0  0  0  0  0  0  0
   31.1440   28.7020   46.8530 C   0  0  0  0  0  0  0  0  0  0  0  0
   31.1030   29.4670   45.6920 C   0  0  0  0  0  0  0  0  0  0  0  0
   29.8550   29.9000   45.2590 C   0  0  0  0  0  0  0  0  0  0  0  0
   28.7500   29.5600   45.9820 N   0  0  0  0  0  0  0  0  0  0  0  0
   28.8230   28.8200   47.0980 C   0  0  0  0  0  0  0  0  0  0  0  0
   30.0120   28.3970   47.5290 N   0  0  0  0  0  0  0  0  0  0  0  0
   32.0590   29.6450   45.2450 H   0  0  0  0  0  0  0  0  0  0  0  0
   29.8660   30.4860   44.3610 H   0  0  0  0  0  0  0  0  0  0  0  0
   27.6270   28.5010   47.8040 N   0  0  0  0  0  0  0  0  0  0  0  0
   27.0690   27.3740   48.2820 C   0  0  0  0  0  0  0  0  0  0  0  0
   27.6780   26.4860   48.0830 H   0  0  0  0  0  0  0  0  0  0  0  0
   25.9010   27.6680   48.8810 N   0  0  0  0  0  0  0  0  0  0  0  0
   25.7220   28.9960   48.7780 C   0  0  0  0  0  0  0  0  0  0  0  0
   24.6560   29.7320   49.2520 C   0  0  0  0  0  0  0  0  0  0  0  0
   23.8310   29.2700   49.7770 H   0  0  0  0  0  0  0  0  0  0  0  0
   24.6720   31.0810   49.0380 N   0  0  0  0  0  0  0  0  0  0  0  0
   25.7220   31.6020   48.3810 C   0  0  0  0  0  0  0  0  0  0  0  0
   25.8570   32.6620   48.1460 H   0  0  0  0  0  0  0  0  0  0  0  0
   26.7830   30.9040   47.9040 N   0  0  0  0  0  0  0  0  0  0  0  0
   26.8070   29.5530   48.0960 C   0  0  0  0  0  0  0  0  0  0  0  0
   36.2660   29.7920   50.2600 C   0  0  0  0  0  0  0  0  0  0  0  0
   35.9320   29.6180   48.9270 C   0  0  0  0  0  0  0  0  0  0  0  0
   36.4190   30.3950   47.9090 C   0  0  0  0  0  0  0  0  0  0  0  0
   37.3020   31.4190   48.2490 C   0  0  0  0  0  0  0  0  0  0  0  0
   37.6370   31.5990   49.5660 C   0  0  0  0  0  0  0  0  0  0  0  0
   37.1420   30.8080   50.6000 C   0  0  0  0  0  0  0  0  0  0  0  0
   38.5290   32.6720   49.6960 O   0  0  0  0  0  0  0  0  0  0  0  0
   38.9740   32.9360   48.3740 C   0  0  0  0  0  0  0  0  0  0  0  0
   37.9940   32.3940   47.5250 O   0  0  0  0  0  0  0  0  0  0  0  0
   35.9590   29.2420   51.1370 H   0  0  0  0  0  0  0  0  0  0  0  0
   36.1400   30.2300   46.9010 H   0  0  0  0  0  0  0  0  0  0  0  0
   37.4570   31.0110   51.6380 H   0  0  0  0  0  0  0  0  0  0  0  0
   39.0220   34.0560   48.2880 H   0  0  0  0  0  0  0  0  0  0  0  0
   39.9860   32.5360   48.1700 H   0  0  0  0  0  0  0  0  0  0  0  0
  1  2  1  0  0  0  0
  2  8  1  0  0  0  0
  2  3  1  0  0  0  0
  2  7  1  0  0  0  0
  3  9  1  0  0  0  0
  3 10  1  0  0  0  0
  4 11  1  0  0  0  0
  4 37  1  0  0  0  0
  4  3  1  0  0  0  0
  5  4  1  0  0  0  0
  6 15  1  0  0  0  0
  6  5  1  0  0  0  0
  6  1  1  0  0  0  0
 12  5  1  0  0  0  0
 13  5  1  0  0  0  0
 14  6  1  0  0  0  0
 16  1  1  0  0  0  0
 16 21  1  0  0  0  0
 17 16  2  0  0  0  0
 18 17  1  0  0  0  0
 18 19  2  0  0  0  0
 19 20  1  0  0  0  0
 20 21  2  0  0  0  0
 20 24  1  0  0  0  0
 22 17  1  0  0  0  0
 23 18  1  0  0  0  0
 24 35  1  0  0  0  0
 24 25  1  0  0  0  0
 25 27  2  0  0  0  0
 26 25  1  0  0  0  0
 28 27  1  0  0  0  0
 28 29  1  0  0  0  0
 29 30  1  0  0  0  0
 31 29  2  0  0  0  0
 32 31  1  0  0  0  0
 33 32  1  0  0  0  0
 34 35  1  0  0  0  0
 34 32  2  0  0  0  0
 35 28  2  0  0  0  0
 36 41  1  0  0  0  0
 36 45  1  0  0  0  0
 37 36  2  0  0  0  0
 38 39  2  0  0  0  0
 38 37  1  0  0  0  0
 39 40  1  0  0  0  0
 40 42  1  0  0  0  0
 40 41  2  0  0  0  0
 41 47  1  0  0  0  0
 43 42  1  0  0  0  0
 44 39  1  0  0  0  0
 44 43  1  0  0  0  0
 46 38  1  0  0  0  0
 48 43  1  0  0  0  0
 49 43  1  0  0  0  0
M  END
>  <minimizedAffinity>
-8.80809021

>  <minimizedRMSD>
1.40443552

$$$$
