
 OpenBabel03272509313D

 41 44  0  0  1  0  0  0  0  0999 V2000
   36.4990   30.7980   49.1070 C   0  0  2  0  0  0  0  0  0  0  0  0
   37.5780   31.5130   49.8630 C   0  0  0  0  0  0  0  0  0  0  0  0
   38.3390   30.6020   50.8020 C   0  0  0  0  0  0  0  0  0  0  0  0
   37.3860   29.9170   51.7790 C   0  0  0  0  0  0  0  0  0  0  0  0
   36.0540   29.5460   51.1730 C   0  0  0  0  0  0  0  0  0  0  0  0
   36.2430   29.4310   49.6480 C   0  0  1  0  0  0  0  0  0  0  0  0
   35.4910   31.3180   49.1600 H   0  0  0  0  0  0  0  0  0  0  0  0
   38.2350   32.1540   49.3090 H   0  0  0  0  0  0  0  0  0  0  0  0
   37.0130   32.2120   50.5690 H   0  0  0  0  0  0  0  0  0  0  0  0
   39.0350   31.2490   51.3550 H   0  0  0  0  0  0  0  0  0  0  0  0
   38.8870   29.8010   50.2870 H   0  0  0  0  0  0  0  0  0  0  0  0
   37.2990   30.5950   52.6430 H   0  0  0  0  0  0  0  0  0  0  0  0
   37.8580   28.9780   52.1370 H   0  0  0  0  0  0  0  0  0  0  0  0
   35.6540   28.6180   51.5890 H   0  0  0  0  0  0  0  0  0  0  0  0
   35.3770   30.4140   51.3160 H   0  0  0  0  0  0  0  0  0  0  0  0
   37.1190   28.8290   49.6210 H   0  0  0  0  0  0  0  0  0  0  0  0
   36.8390   30.6900   47.6650 C   0  0  0  0  0  0  0  0  0  0  0  0
   38.1980   30.8430   47.3480 C   0  0  0  0  0  0  0  0  0  0  0  0
   38.5480   30.7440   45.9960 C   0  0  0  0  0  0  0  0  0  0  0  0
   37.5520   30.5020   45.0750 N   0  0  0  0  0  0  0  0  0  0  0  0
   36.2400   30.3570   45.4370 C   0  0  0  0  0  0  0  0  0  0  0  0
   35.9070   30.4560   46.7350 N   0  0  0  0  0  0  0  0  0  0  0  0
   39.0640   31.0230   47.9530 H   0  0  0  0  0  0  0  0  0  0  0  0
   39.5430   30.8400   45.6050 H   0  0  0  0  0  0  0  0  0  0  0  0
   35.5470   30.1710   44.6350 H   0  0  0  0  0  0  0  0  0  0  0  0
   33.8570   28.6440   49.2900 C   0  0  0  0  0  0  0  0  0  0  0  0
   33.1650   29.2650   50.1750 O   0  0  0  0  0  0  0  0  0  0  0  0
   35.2370   28.6960   48.9710 N   0  0  0  0  0  0  0  0  0  0  0  0
   35.5010   28.1030   48.1200 H   0  0  0  0  0  0  0  0  0  0  0  0
   31.0260   28.7270   48.6750 H   0  0  0  0  0  0  0  0  0  0  0  0
   31.6310   27.9260   48.3230 N   0  0  0  0  0  0  0  0  0  0  0  0
   32.9610   27.7430   48.5240 C   0  0  0  0  0  0  0  0  0  0  0  0
   33.1720   26.6120   47.8750 N   0  0  0  0  0  0  0  0  0  0  0  0
   32.0990   26.0940   47.3020 C   0  0  0  0  0  0  0  0  0  0  0  0
   31.8740   24.9640   46.5520 C   0  0  0  0  0  0  0  0  0  0  0  0
   32.7150   24.2930   46.3360 H   0  0  0  0  0  0  0  0  0  0  0  0
   30.6000   24.7490   46.1200 N   0  0  0  0  0  0  0  0  0  0  0  0
   29.6070   25.5950   46.4090 C   0  0  0  0  0  0  0  0  0  0  0  0
   28.5960   25.4140   46.0590 H   0  0  0  0  0  0  0  0  0  0  0  0
   29.8330   26.7050   47.1460 N   0  0  0  0  0  0  0  0  0  0  0  0
   31.0760   26.9530   47.5920 C   0  0  0  0  0  0  0  0  0  0  0  0
  1  7  1  1  0  0  0
  1  6  1  0  0  0  0
  1  2  1  0  0  0  0
  2  9  1  0  0  0  0
  2  3  1  0  0  0  0
  3 10  1  0  0  0  0
  3  4  1  0  0  0  0
  4 13  1  0  0  0  0
  4 12  1  0  0  0  0
  5 15  1  0  0  0  0
  5 14  1  0  0  0  0
  5  4  1  0  0  0  0
  6 16  1  6  0  0  0
  6  5  1  0  0  0  0
  8  2  1  0  0  0  0
 11  3  1  0  0  0  0
 17  1  1  0  0  0  0
 18 17  1  0  0  0  0
 18 23  1  0  0  0  0
 19 18  2  0  0  0  0
 20 21  2  0  0  0  0
 20 19  1  0  0  0  0
 21 22  1  0  0  0  0
 22 17  2  0  0  0  0
 24 19  1  0  0  0  0
 25 21  1  0  0  0  0
 26 27  2  0  0  0  0
 28 26  1  0  0  0  0
 28  6  1  0  0  0  0
 29 28  1  0  0  0  0
 31 32  1  0  0  0  0
 31 30  1  0  0  0  0
 32 26  1  0  0  0  0
 33 32  2  0  0  0  0
 34 41  1  0  0  0  0
 34 33  1  0  0  0  0
 35 34  2  0  0  0  0
 36 35  1  0  0  0  0
 37 38  2  0  0  0  0
 37 35  1  0  0  0  0
 38 40  1  0  0  0  0
 39 38  1  0  0  0  0
 40 41  2  0  0  0  0
 41 31  1  0  0  0  0
M  END
>  <minimizedAffinity>
-6.19377041

>  <minimizedRMSD>
1.11402774

$$$$
