
 OpenBabel03272506013D

 49 53  0  0  1  0  0  0  0  0999 V2000
   34.9760   29.9330   48.9590 C   0  0  2  0  0  0  0  0  0  0  0  0
   35.9330   31.0170   48.7620 C   0  0  0  0  0  0  0  0  0  0  0  0
   37.4090   30.5630   48.9730 C   0  0  2  0  0  0  0  0  0  0  0  0
   37.6630   30.0110   50.2820 C   0  0  0  0  0  0  0  0  0  0  0  0
   36.5180   29.1500   50.8180 C   0  0  0  0  0  0  0  0  0  0  0  0
   35.5840   28.7490   49.7160 C   0  0  0  0  0  0  0  0  0  0  0  0
   34.1290   30.2570   49.6350 H   0  0  0  0  0  0  0  0  0  0  0  0
   35.9640   31.6280   47.8920 H   0  0  0  0  0  0  0  0  0  0  0  0
   35.8170   31.7470   49.6360 H   0  0  0  0  0  0  0  0  0  0  0  0
   37.6540   29.8700   48.1470 H   0  0  0  0  0  0  0  0  0  0  0  0
   38.6190   29.4450   50.2640 H   0  0  0  0  0  0  0  0  0  0  0  0
   37.8120   30.7970   51.0480 H   0  0  0  0  0  0  0  0  0  0  0  0
   36.9780   28.2090   51.1830 H   0  0  0  0  0  0  0  0  0  0  0  0
   35.9980   29.6040   51.6680 H   0  0  0  0  0  0  0  0  0  0  0  0
   36.0870   28.0820   48.9990 H   0  0  0  0  0  0  0  0  0  0  0  0
   34.7530   28.1750   50.1550 H   0  0  0  0  0  0  0  0  0  0  0  0
   34.3550   29.3870   47.7560 C   0  0  0  0  0  0  0  0  0  0  0  0
   34.9330   29.8260   46.5750 C   0  0  0  0  0  0  0  0  0  0  0  0
   34.4300   29.3490   45.3650 C   0  0  0  0  0  0  0  0  0  0  0  0
   33.3620   28.4470   45.4040 N   0  0  0  0  0  0  0  0  0  0  0  0
   32.8370   28.0530   46.5710 C   0  0  0  0  0  0  0  0  0  0  0  0
   33.3470   28.5330   47.7050 N   0  0  0  0  0  0  0  0  0  0  0  0
   35.7250   30.4870   46.2520 H   0  0  0  0  0  0  0  0  0  0  0  0
   34.6880   29.5240   44.3480 H   0  0  0  0  0  0  0  0  0  0  0  0
   31.7510   27.1370   46.6250 N   0  0  0  0  0  0  0  0  0  0  0  0
   31.6510   25.8350   46.2680 C   0  0  0  0  0  0  0  0  0  0  0  0
   32.4850   25.2760   45.8520 H   0  0  0  0  0  0  0  0  0  0  0  0
   30.3850   25.4230   46.5270 N   0  0  0  0  0  0  0  0  0  0  0  0
   29.6890   26.4520   47.0410 C   0  0  0  0  0  0  0  0  0  0  0  0
   28.3860   26.6510   47.4920 C   0  0  0  0  0  0  0  0  0  0  0  0
   27.6910   25.8280   47.4570 H   0  0  0  0  0  0  0  0  0  0  0  0
   27.9650   27.8370   47.9710 N   0  0  0  0  0  0  0  0  0  0  0  0
   28.8160   28.8850   48.0260 C   0  0  0  0  0  0  0  0  0  0  0  0
   28.5130   29.8620   48.4070 H   0  0  0  0  0  0  0  0  0  0  0  0
   30.0650   28.6970   47.5940 N   0  0  0  0  0  0  0  0  0  0  0  0
   30.5360   27.5240   47.1050 C   0  0  0  0  0  0  0  0  0  0  0  0
   38.3950   30.9840   46.2220 Cl  0  0  0  0  0  0  0  0  0  0  0  0
   38.7360   32.0980   47.5210 C   0  0  0  0  0  0  0  0  0  0  0  0
   38.1830   31.8240   48.7460 C   0  0  0  0  0  0  0  0  0  0  0  0
   38.4670   32.7750   49.7070 C   0  0  0  0  0  0  0  0  0  0  0  0
   39.2360   33.8970   49.4650 C   0  0  0  0  0  0  0  0  0  0  0  0
   39.7640   34.1040   48.1880 C   0  0  0  0  0  0  0  0  0  0  0  0
   39.5010   33.1690   47.1880 C   0  0  0  0  0  0  0  0  0  0  0  0
   38.0590   32.6250   50.7020 H   0  0  0  0  0  0  0  0  0  0  0  0
   39.4210   34.6010   50.2570 H   0  0  0  0  0  0  0  0  0  0  0  0
   40.3710   34.9680   47.9540 H   0  0  0  0  0  0  0  0  0  0  0  0
   40.0410   33.3770   45.8920 N   0  0  0  0  0  0  0  0  0  0  0  0
   40.5550   32.5040   45.5830 H   0  0  0  0  0  0  0  0  0  0  0  0
   40.0250   34.1670   45.2400 H   0  0  0  0  0  0  0  0  0  0  0  0
  1  7  1  1  0  0  0
  1  6  1  0  0  0  0
  2  1  1  0  0  0  0
  2  3  1  0  0  0  0
  2  9  1  0  0  0  0
  3 10  1  6  0  0  0
  3  4  1  0  0  0  0
  4  5  1  0  0  0  0
  4 12  1  0  0  0  0
  5 13  1  0  0  0  0
  5 14  1  0  0  0  0
  6 16  1  0  0  0  0
  6  5  1  0  0  0  0
  8  2  1  0  0  0  0
 11  4  1  0  0  0  0
 15  6  1  0  0  0  0
 17  1  1  0  0  0  0
 18 17  2  0  0  0  0
 19 20  2  0  0  0  0
 19 18  1  0  0  0  0
 20 21  1  0  0  0  0
 21 25  1  0  0  0  0
 21 22  2  0  0  0  0
 22 17  1  0  0  0  0
 23 18  1  0  0  0  0
 24 19  1  0  0  0  0
 25 36  1  0  0  0  0
 26 28  2  0  0  0  0
 26 25  1  0  0  0  0
 27 26  1  0  0  0  0
 28 29  1  0  0  0  0
 29 36  2  0  0  0  0
 29 30  1  0  0  0  0
 30 32  2  0  0  0  0
 31 30  1  0  0  0  0
 32 33  1  0  0  0  0
 33 34  1  0  0  0  0
 35 33  2  0  0  0  0
 36 35  1  0  0  0  0
 37 38  1  0  0  0  0
 38 39  1  0  0  0  0
 39  3  1  0  0  0  0
 39 40  2  0  0  0  0
 40 44  1  0  0  0  0
 41 40  1  0  0  0  0
 41 45  1  0  0  0  0
 42 41  2  0  0  0  0
 43 38  2  0  0  0  0
 43 42  1  0  0  0  0
 46 42  1  0  0  0  0
 47 43  1  0  0  0  0
 48 47  1  0  0  0  0
 49 47  1  0  0  0  0
M  END
>  <minimizedAffinity>
-8.29259586

>  <minimizedRMSD>
1.89150691

$$$$
