
 OpenBabel03272508363D

 47 51  0  0  1  0  0  0  0  0999 V2000
   40.1550   31.7980   43.5260 N   0  0  0  0  0  0  0  0  0  0  0  0
   39.5210   32.9200   42.9670 C   0  0  0  0  0  0  0  0  0  0  0  0
   38.1110   32.7440   42.5370 C   0  0  0  0  0  0  0  0  0  0  0  0
   37.8770   31.5090   41.9170 O   0  0  0  0  0  0  0  0  0  0  0  0
   38.2930   30.4860   42.7120 C   0  0  0  0  0  0  0  0  0  0  0  0
   39.7410   30.5710   43.0090 C   0  0  1  0  0  0  0  0  0  0  0  0
   39.7040   33.9110   43.3360 H   0  0  0  0  0  0  0  0  0  0  0  0
   40.1220   32.9780   41.9950 H   0  0  0  0  0  0  0  0  0  0  0  0
   37.3100   33.1890   43.0870 H   0  0  0  0  0  0  0  0  0  0  0  0
   38.0290   33.4110   41.5920 H   0  0  0  0  0  0  0  0  0  0  0  0
   38.2360   29.6060   42.0130 H   0  0  0  0  0  0  0  0  0  0  0  0
   37.6350   30.1650   43.5120 H   0  0  0  0  0  0  0  0  0  0  0  0
   39.9180   29.8060   43.8250 H   0  0  0  0  0  0  0  0  0  0  0  0
   40.5870   30.1130   41.9100 N   0  0  0  0  0  0  0  0  0  0  0  0
   41.5060   29.1250   41.9640 C   0  0  0  0  0  0  0  0  0  0  0  0
   41.7800   28.5090   42.8030 H   0  0  0  0  0  0  0  0  0  0  0  0
   42.1130   28.9550   40.7690 N   0  0  0  0  0  0  0  0  0  0  0  0
   41.5890   29.8400   39.9200 C   0  0  0  0  0  0  0  0  0  0  0  0
   41.7800   30.1620   38.5890 C   0  0  0  0  0  0  0  0  0  0  0  0
   42.5110   29.6150   38.0230 H   0  0  0  0  0  0  0  0  0  0  0  0
   41.0520   31.1570   38.0030 N   0  0  0  0  0  0  0  0  0  0  0  0
   40.1460   31.8330   38.7060 C   0  0  0  0  0  0  0  0  0  0  0  0
   39.5910   32.6170   38.1950 H   0  0  0  0  0  0  0  0  0  0  0  0
   39.9360   31.5390   40.0200 N   0  0  0  0  0  0  0  0  0  0  0  0
   40.6530   30.5490   40.6180 C   0  0  0  0  0  0  0  0  0  0  0  0
   40.5810   31.8880   44.8540 C   0  0  0  0  0  0  0  0  0  0  0  0
   41.6820   32.1010   44.8350 H   0  0  0  0  0  0  0  0  0  0  0  0
   40.5460   30.8390   45.2770 H   0  0  0  0  0  0  0  0  0  0  0  0
   39.8470   32.7520   45.7540 C   0  0  0  0  0  0  0  0  0  0  0  0
   39.3680   33.6760   45.4560 H   0  0  0  0  0  0  0  0  0  0  0  0
   40.5930   33.1070   46.5350 H   0  0  0  0  0  0  0  0  0  0  0  0
   37.7020   31.0490   48.0770 C   0  0  0  0  0  0  0  0  0  0  0  0
   36.9670   30.9340   46.9140 C   0  0  0  0  0  0  0  0  0  0  0  0
   37.7010   31.5670   45.9040 C   0  0  0  0  0  0  0  0  0  0  0  0
   38.8140   32.0230   46.4790 N   0  0  0  0  0  0  0  0  0  0  0  0
   38.8170   31.7150   47.7780 N   0  0  0  0  0  0  0  0  0  0  0  0
   35.9850   30.4310   46.8240 H   0  0  0  0  0  0  0  0  0  0  0  0
   37.2700   31.5560   44.9710 H   0  0  0  0  0  0  0  0  0  0  0  0
   37.3920   30.0860   51.6960 C   0  0  0  0  0  0  0  0  0  0  0  0
   37.9360   30.6560   50.5430 C   0  0  0  0  0  0  0  0  0  0  0  0
   37.2630   30.5150   49.3400 C   0  0  0  0  0  0  0  0  0  0  0  0
   36.1020   29.8130   49.3990 N   0  0  0  0  0  0  0  0  0  0  0  0
   35.5940   29.2710   50.5260 C   0  0  0  0  0  0  0  0  0  0  0  0
   36.2480   29.4140   51.6660 N   0  0  0  0  0  0  0  0  0  0  0  0
   37.9720   30.2330   52.6150 H   0  0  0  0  0  0  0  0  0  0  0  0
   38.8550   31.2030   50.5310 H   0  0  0  0  0  0  0  0  0  0  0  0
   34.6610   28.7250   50.4880 H   0  0  0  0  0  0  0  0  0  0  0  0
  1 26  1  0  0  0  0
  2  7  1  0  0  0  0
  2  1  1  0  0  0  0
  3  2  1  0  0  0  0
  3  9  1  0  0  0  0
  4  3  1  0  0  0  0
  4  5  1  0  0  0  0
  5  6  1  0  0  0  0
  5 12  1  0  0  0  0
  6  1  1  0  0  0  0
  6 13  1  1  0  0  0
  8  2  1  0  0  0  0
 10  3  1  0  0  0  0
 11  5  1  0  0  0  0
 14 15  1  0  0  0  0
 14  6  1  0  0  0  0
 15 16  1  0  0  0  0
 17 15  2  0  0  0  0
 18 25  1  0  0  0  0
 18 17  1  0  0  0  0
 19 18  2  0  0  0  0
 20 19  1  0  0  0  0
 21 19  1  0  0  0  0
 21 22  2  0  0  0  0
 22 24  1  0  0  0  0
 23 22  1  0  0  0  0
 24 25  2  0  0  0  0
 25 14  1  0  0  0  0
 26 28  1  0  0  0  0
 26 29  1  0  0  0  0
 27 26  1  0  0  0  0
 29 35  1  0  0  0  0
 29 31  1  0  0  0  0
 30 29  1  0  0  0  0
 32 41  1  0  0  0  0
 33 32  1  0  0  0  0
 34 35  1  0  0  0  0
 34 33  2  0  0  0  0
 35 36  1  0  0  0  0
 36 32  2  0  0  0  0
 37 33  1  0  0  0  0
 38 34  1  0  0  0  0
 39 45  1  0  0  0  0
 40 39  2  0  0  0  0
 41 42  2  0  0  0  0
 41 40  1  0  0  0  0
 42 43  1  0  0  0  0
 43 44  2  0  0  0  0
 44 39  1  0  0  0  0
 46 40  1  0  0  0  0
 47 43  1  0  0  0  0
M  END
>  <minimizedAffinity>
-6.13602114

>  <minimizedRMSD>
0.791459918

$$$$
