
 OpenBabel03272500313D

 31 34  0  0  0  0  0  0  0  0999 V2000
   38.7020   25.9000   33.6090 Cl  0  0  0  0  0  0  0  0  0  0  0  0
   37.6470   24.6990   32.8970 C   0  0  0  0  0  0  0  0  0  0  0  0
   36.7510   25.1530   31.9420 C   0  0  0  0  0  0  0  0  0  0  0  0
   35.8940   24.2100   31.3570 C   0  0  0  0  0  0  0  0  0  0  0  0
   35.9790   22.8940   31.7490 C   0  0  0  0  0  0  0  0  0  0  0  0
   36.8950   22.5150   32.7040 C   0  0  0  0  0  0  0  0  0  0  0  0
   37.7590   23.3920   33.3120 C   0  0  0  0  0  0  0  0  0  0  0  0
   35.1770   24.5180   30.6070 H   0  0  0  0  0  0  0  0  0  0  0  0
   35.3370   22.1550   31.3180 H   0  0  0  0  0  0  0  0  0  0  0  0
   36.9400   21.4660   32.9960 H   0  0  0  0  0  0  0  0  0  0  0  0
   38.7140   23.0460   34.2970 N   0  0  0  0  0  0  0  0  0  0  0  0
   39.9110   22.5150   33.9880 C   0  0  0  0  0  0  0  0  0  0  0  0
   40.3100   22.2830   33.0120 H   0  0  0  0  0  0  0  0  0  0  0  0
   40.5510   22.3180   35.1770 N   0  0  0  0  0  0  0  0  0  0  0  0
   39.7400   22.7290   36.1750 C   0  0  0  0  0  0  0  0  0  0  0  0
   39.9500   22.7260   37.5560 C   0  0  0  0  0  0  0  0  0  0  0  0
   40.9020   22.3450   37.9390 H   0  0  0  0  0  0  0  0  0  0  0  0
   38.9710   23.1970   38.3740 N   0  0  0  0  0  0  0  0  0  0  0  0
   37.8360   23.6430   37.7640 C   0  0  0  0  0  0  0  0  0  0  0  0
   37.1080   24.0000   38.4880 H   0  0  0  0  0  0  0  0  0  0  0  0
   37.5910   23.6620   36.4320 N   0  0  0  0  0  0  0  0  0  0  0  0
   38.5490   23.2020   35.6230 C   0  0  0  0  0  0  0  0  0  0  0  0
   37.5410   28.2620   30.2060 C   0  0  0  0  0  0  0  0  0  0  0  0
   36.6830   29.2060   30.7720 C   0  0  0  0  0  0  0  0  0  0  0  0
   35.8140   28.7430   31.7760 C   0  0  0  0  0  0  0  0  0  0  0  0
   35.8510   27.4270   32.1410 N   0  0  0  0  0  0  0  0  0  0  0  0
   36.7010   26.5630   31.5600 C   0  0  0  0  0  0  0  0  0  0  0  0
   37.5410   26.9860   30.5960 N   0  0  0  0  0  0  0  0  0  0  0  0
   38.1870   28.6690   29.4390 H   0  0  0  0  0  0  0  0  0  0  0  0
   36.5720   30.2420   30.5650 H   0  0  0  0  0  0  0  0  0  0  0  0
   35.0700   29.2870   32.3500 H   0  0  0  0  0  0  0  0  0  0  0  0
  2  7  1  0  0  0  0
  2  1  1  0  0  0  0
  3  2  2  0  0  0  0
  4  5  2  0  0  0  0
  4  3  1  0  0  0  0
  5  6  1  0  0  0  0
  6 10  1  0  0  0  0
  6  7  2  0  0  0  0
  7 11  1  0  0  0  0
  8  4  1  0  0  0  0
  9  5  1  0  0  0  0
 11 22  1  0  0  0  0
 12 11  1  0  0  0  0
 12 14  2  0  0  0  0
 13 12  1  0  0  0  0
 14 15  1  0  0  0  0
 15 16  1  0  0  0  0
 16 17  1  0  0  0  0
 16 18  2  0  0  0  0
 19 18  1  0  0  0  0
 19 20  1  0  0  0  0
 21 19  2  0  0  0  0
 22 15  2  0  0  0  0
 22 21  1  0  0  0  0
 23 28  2  0  0  0  0
 23 24  1  0  0  0  0
 24 25  2  0  0  0  0
 25 26  1  0  0  0  0
 25 31  1  0  0  0  0
 27  3  1  0  0  0  0
 27 26  2  0  0  0  0
 28 27  1  0  0  0  0
 29 23  1  0  0  0  0
 30 24  1  0  0  0  0
M  END
>  <minimizedAffinity>
-5.42920446

$$$$

 OpenBabel03272500313D

 31 34  0  0  0  0  0  0  0  0999 V2000
   36.2840   28.2290   34.4990 Cl  0  0  0  0  0  0  0  0  0  0  0  0
   36.1380   29.1880   33.0420 C   0  0  0  0  0  0  0  0  0  0  0  0
   35.5060   30.4140   33.1710 C   0  0  0  0  0  0  0  0  0  0  0  0
   35.3760   31.2010   32.0170 C   0  0  0  0  0  0  0  0  0  0  0  0
   35.8760   30.7290   30.8260 C   0  0  0  0  0  0  0  0  0  0  0  0
   36.4940   29.5000   30.7730 C   0  0  0  0  0  0  0  0  0  0  0  0
   36.6500   28.6860   31.8670 C   0  0  0  0  0  0  0  0  0  0  0  0
   34.8900   32.1660   32.0690 H   0  0  0  0  0  0  0  0  0  0  0  0
   35.7910   31.3090   29.9310 H   0  0  0  0  0  0  0  0  0  0  0  0
   36.8810   29.1510   29.8160 H   0  0  0  0  0  0  0  0  0  0  0  0
   37.2770   27.4170   31.8590 N   0  0  0  0  0  0  0  0  0  0  0  0
   38.5850   27.2550   32.1290 C   0  0  0  0  0  0  0  0  0  0  0  0
   39.3160   28.0090   32.3780 H   0  0  0  0  0  0  0  0  0  0  0  0
   38.8250   25.9150   32.0280 N   0  0  0  0  0  0  0  0  0  0  0  0
   37.6710   25.2960   31.7010 C   0  0  0  0  0  0  0  0  0  0  0  0
   37.4150   23.9400   31.4870 C   0  0  0  0  0  0  0  0  0  0  0  0
   38.2410   23.2290   31.5880 H   0  0  0  0  0  0  0  0  0  0  0  0
   36.1530   23.5490   31.1630 N   0  0  0  0  0  0  0  0  0  0  0  0
   35.2190   24.5380   31.0710 C   0  0  0  0  0  0  0  0  0  0  0  0
   34.2410   24.1400   30.8090 H   0  0  0  0  0  0  0  0  0  0  0  0
   35.4240   25.8620   31.2690 N   0  0  0  0  0  0  0  0  0  0  0  0
   36.6610   26.2520   31.5880 C   0  0  0  0  0  0  0  0  0  0  0  0
   35.4020   32.0260   36.4420 C   0  0  0  0  0  0  0  0  0  0  0  0
   34.1140   31.7720   36.9150 C   0  0  0  0  0  0  0  0  0  0  0  0
   33.2710   31.0260   36.0730 C   0  0  0  0  0  0  0  0  0  0  0  0
   33.7400   30.5950   34.8640 N   0  0  0  0  0  0  0  0  0  0  0  0
   34.9920   30.8690   34.4610 C   0  0  0  0  0  0  0  0  0  0  0  0
   35.8160   31.5840   35.2530 N   0  0  0  0  0  0  0  0  0  0  0  0
   36.0090   32.6040   37.1260 H   0  0  0  0  0  0  0  0  0  0  0  0
   33.6520   32.0570   37.8280 H   0  0  0  0  0  0  0  0  0  0  0  0
   32.2430   30.7110   36.2280 H   0  0  0  0  0  0  0  0  0  0  0  0
  2  3  1  0  0  0  0
  2  1  1  0  0  0  0
  3 27  1  0  0  0  0
  4  8  1  0  0  0  0
  4  3  2  0  0  0  0
  5  4  1  0  0  0  0
  6  5  2  0  0  0  0
  6  7  1  0  0  0  0
  7  2  2  0  0  0  0
  9  5  1  0  0  0  0
 10  6  1  0  0  0  0
 11  7  1  0  0  0  0
 11 12  1  0  0  0  0
 12 13  1  0  0  0  0
 14 12  2  0  0  0  0
 15 14  1  0  0  0  0
 16 17  1  0  0  0  0
 16 15  2  0  0  0  0
 18 16  1  0  0  0  0
 19 18  2  0  0  0  0
 19 21  1  0  0  0  0
 20 19  1  0  0  0  0
 21 22  2  0  0  0  0
 22 15  1  0  0  0  0
 22 11  1  0  0  0  0
 23 24  1  0  0  0  0
 23 29  1  0  0  0  0
 24 30  1  0  0  0  0
 25 31  1  0  0  0  0
 25 24  2  0  0  0  0
 26 25  1  0  0  0  0
 27 26  2  0  0  0  0
 27 28  1  0  0  0  0
 28 23  2  0  0  0  0
M  END
>  <minimizedAffinity>
-5.38090086

$$$$

 OpenBabel03272500313D

 31 34  0  0  0  0  0  0  0  0999 V2000
   38.1160   27.1610   33.2410 Cl  0  0  0  0  0  0  0  0  0  0  0  0
   37.0580   26.0430   32.4090 C   0  0  0  0  0  0  0  0  0  0  0  0
   37.2970   24.6940   32.6190 C   0  0  0  0  0  0  0  0  0  0  0  0
   36.4620   23.7780   31.9630 C   0  0  0  0  0  0  0  0  0  0  0  0
   35.4560   24.2510   31.1520 C   0  0  0  0  0  0  0  0  0  0  0  0
   35.2770   25.6060   30.9910 C   0  0  0  0  0  0  0  0  0  0  0  0
   36.0620   26.5500   31.6060 C   0  0  0  0  0  0  0  0  0  0  0  0
   36.6100   22.7150   32.0970 H   0  0  0  0  0  0  0  0  0  0  0  0
   34.8060   23.5730   30.6410 H   0  0  0  0  0  0  0  0  0  0  0  0
   34.4730   25.9530   30.3420 H   0  0  0  0  0  0  0  0  0  0  0  0
   35.9140   27.9500   31.4680 N   0  0  0  0  0  0  0  0  0  0  0  0
   35.1640   28.6840   32.3100 C   0  0  0  0  0  0  0  0  0  0  0  0
   34.5950   28.3510   33.1640 H   0  0  0  0  0  0  0  0  0  0  0  0
   35.2600   29.9730   31.8700 N   0  0  0  0  0  0  0  0  0  0  0  0
   36.0570   29.9970   30.7810 C   0  0  0  0  0  0  0  0  0  0  0  0
   36.4500   31.0750   29.9850 C   0  0  0  0  0  0  0  0  0  0  0  0
   36.0850   32.0740   30.2410 H   0  0  0  0  0  0  0  0  0  0  0  0
   37.2720   30.8490   28.9250 N   0  0  0  0  0  0  0  0  0  0  0  0
   37.6520   29.5560   28.7200 C   0  0  0  0  0  0  0  0  0  0  0  0
   38.3050   29.4640   27.8560 H   0  0  0  0  0  0  0  0  0  0  0  0
   37.2940   28.4820   29.4650 N   0  0  0  0  0  0  0  0  0  0  0  0
   36.4880   28.6980   30.5080 C   0  0  0  0  0  0  0  0  0  0  0  0
   39.0550   23.6660   35.6450 C   0  0  0  0  0  0  0  0  0  0  0  0
   40.3560   23.3980   35.2180 C   0  0  0  0  0  0  0  0  0  0  0  0
   40.6190   23.5800   33.8490 C   0  0  0  0  0  0  0  0  0  0  0  0
   39.6150   24.0000   33.0240 N   0  0  0  0  0  0  0  0  0  0  0  0
   38.3790   24.2440   33.4920 C   0  0  0  0  0  0  0  0  0  0  0  0
   38.1070   24.0750   34.8010 N   0  0  0  0  0  0  0  0  0  0  0  0
   38.9060   23.5100   36.7060 H   0  0  0  0  0  0  0  0  0  0  0  0
   41.2040   23.0700   35.7690 H   0  0  0  0  0  0  0  0  0  0  0  0
   41.5440   23.4350   33.2980 H   0  0  0  0  0  0  0  0  0  0  0  0
  2  3  1  0  0  0  0
  2  1  1  0  0  0  0
  3 27  1  0  0  0  0
  4  8  1  0  0  0  0
  4  3  2  0  0  0  0
  5  4  1  0  0  0  0
  6  5  2  0  0  0  0
  6  7  1  0  0  0  0
  7  2  2  0  0  0  0
  9  5  1  0  0  0  0
 10  6  1  0  0  0  0
 11  7  1  0  0  0  0
 11 12  1  0  0  0  0
 12 13  1  0  0  0  0
 14 12  2  0  0  0  0
 15 14  1  0  0  0  0
 16 17  1  0  0  0  0
 16 15  2  0  0  0  0
 18 16  1  0  0  0  0
 19 18  2  0  0  0  0
 19 21  1  0  0  0  0
 20 19  1  0  0  0  0
 21 22  2  0  0  0  0
 22 15  1  0  0  0  0
 22 11  1  0  0  0  0
 23 29  1  0  0  0  0
 24 23  1  0  0  0  0
 24 30  1  0  0  0  0
 25 24  2  0  0  0  0
 26 27  2  0  0  0  0
 26 25  1  0  0  0  0
 27 28  1  0  0  0  0
 28 23  2  0  0  0  0
 31 25  1  0  0  0  0
M  END
>  <minimizedAffinity>
-5.22162247

$$$$

 OpenBabel03272500313D

 31 34  0  0  0  0  0  0  0  0999 V2000
   38.9940   25.3960   34.3160 Cl  0  0  0  0  0  0  0  0  0  0  0  0
   38.2010   23.9720   33.6780 C   0  0  0  0  0  0  0  0  0  0  0  0
   37.9870   22.9330   34.5700 C   0  0  0  0  0  0  0  0  0  0  0  0
   37.3530   21.7810   34.0830 C   0  0  0  0  0  0  0  0  0  0  0  0
   36.9760   21.7330   32.7610 C   0  0  0  0  0  0  0  0  0  0  0  0
   37.2210   22.8040   31.9320 C   0  0  0  0  0  0  0  0  0  0  0  0
   37.8370   23.9570   32.3510 C   0  0  0  0  0  0  0  0  0  0  0  0
   37.1640   20.9450   34.7430 H   0  0  0  0  0  0  0  0  0  0  0  0
   36.4910   20.8660   32.3650 H   0  0  0  0  0  0  0  0  0  0  0  0
   36.9120   22.7380   30.8900 H   0  0  0  0  0  0  0  0  0  0  0  0
   38.1090   25.0810   31.5350 N   0  0  0  0  0  0  0  0  0  0  0  0
   39.1840   25.1450   30.7280 C   0  0  0  0  0  0  0  0  0  0  0  0
   39.9570   24.4070   30.5810 H   0  0  0  0  0  0  0  0  0  0  0  0
   39.1130   26.3590   30.1070 N   0  0  0  0  0  0  0  0  0  0  0  0
   38.0090   27.0010   30.5440 C   0  0  0  0  0  0  0  0  0  0  0  0
   37.5150   28.2620   30.2020 C   0  0  0  0  0  0  0  0  0  0  0  0
   38.0690   28.8610   29.4730 H   0  0  0  0  0  0  0  0  0  0  0  0
   36.3660   28.7020   30.7830 N   0  0  0  0  0  0  0  0  0  0  0  0
   35.7780   27.8540   31.6740 C   0  0  0  0  0  0  0  0  0  0  0  0
   34.8680   28.2820   32.0900 H   0  0  0  0  0  0  0  0  0  0  0  0
   36.2220   26.6260   32.0340 N   0  0  0  0  0  0  0  0  0  0  0  0
   37.3490   26.1890   31.4670 C   0  0  0  0  0  0  0  0  0  0  0  0
   37.8680   23.6890   38.1370 C   0  0  0  0  0  0  0  0  0  0  0  0
   39.1070   23.2720   38.6230 C   0  0  0  0  0  0  0  0  0  0  0  0
   39.9960   22.7170   37.6860 C   0  0  0  0  0  0  0  0  0  0  0  0
   39.6140   22.6150   36.3780 N   0  0  0  0  0  0  0  0  0  0  0  0
   38.4060   23.0350   35.9660 C   0  0  0  0  0  0  0  0  0  0  0  0
   37.5400   23.5700   36.8490 N   0  0  0  0  0  0  0  0  0  0  0  0
   37.2220   24.1070   38.8980 H   0  0  0  0  0  0  0  0  0  0  0  0
   39.5020   23.3030   39.6090 H   0  0  0  0  0  0  0  0  0  0  0  0
   41.0000   22.3280   37.8320 H   0  0  0  0  0  0  0  0  0  0  0  0
  2  1  1  0  0  0  0
  2  3  1  0  0  0  0
  3 27  1  0  0  0  0
  4  3  2  0  0  0  0
  4  8  1  0  0  0  0
  5  4  1  0  0  0  0
  6  7  1  0  0  0  0
  6  5  2  0  0  0  0
  7  2  2  0  0  0  0
  9  5  1  0  0  0  0
 10  6  1  0  0  0  0
 11  7  1  0  0  0  0
 12 11  1  0  0  0  0
 13 12  1  0  0  0  0
 14 15  1  0  0  0  0
 14 12  2  0  0  0  0
 15 22  1  0  0  0  0
 16 15  2  0  0  0  0
 16 18  1  0  0  0  0
 17 16  1  0  0  0  0
 18 19  2  0  0  0  0
 19 21  1  0  0  0  0
 19 20  1  0  0  0  0
 22 11  1  0  0  0  0
 22 21  2  0  0  0  0
 23 24  1  0  0  0  0
 23 29  1  0  0  0  0
 24 30  1  0  0  0  0
 25 31  1  0  0  0  0
 25 24  2  0  0  0  0
 26 25  1  0  0  0  0
 27 26  2  0  0  0  0
 27 28  1  0  0  0  0
 28 23  2  0  0  0  0
M  END
>  <minimizedAffinity>
-5.21296501

$$$$

 OpenBabel03272500313D

 31 34  0  0  0  0  0  0  0  0999 V2000
   37.8440   23.2460   34.2750 Cl  0  0  0  0  0  0  0  0  0  0  0  0
   38.8090   24.7040   34.1970 C   0  0  0  0  0  0  0  0  0  0  0  0
   38.4170   25.6540   33.2650 C   0  0  0  0  0  0  0  0  0  0  0  0
   39.1750   26.8310   33.1830 C   0  0  0  0  0  0  0  0  0  0  0  0
   40.2560   26.9910   34.0180 C   0  0  0  0  0  0  0  0  0  0  0  0
   40.5860   26.0050   34.9210 C   0  0  0  0  0  0  0  0  0  0  0  0
   39.8830   24.8320   35.0460 C   0  0  0  0  0  0  0  0  0  0  0  0
   38.9080   27.6010   32.4720 H   0  0  0  0  0  0  0  0  0  0  0  0
   40.8500   27.8800   33.9760 H   0  0  0  0  0  0  0  0  0  0  0  0
   41.4470   26.1580   35.5690 H   0  0  0  0  0  0  0  0  0  0  0  0
   40.1860   23.7930   35.9580 N   0  0  0  0  0  0  0  0  0  0  0  0
   39.4400   23.5490   37.0510 C   0  0  0  0  0  0  0  0  0  0  0  0
   38.5550   24.0670   37.3870 H   0  0  0  0  0  0  0  0  0  0  0  0
   40.0290   22.4890   37.6770 N   0  0  0  0  0  0  0  0  0  0  0  0
   41.1100   22.1130   36.9610 C   0  0  0  0  0  0  0  0  0  0  0  0
   42.0250   21.0860   37.1990 C   0  0  0  0  0  0  0  0  0  0  0  0
   41.8910   20.4600   38.0870 H   0  0  0  0  0  0  0  0  0  0  0  0
   43.0480   20.8960   36.3220 N   0  0  0  0  0  0  0  0  0  0  0  0
   43.0970   21.7470   35.2570 C   0  0  0  0  0  0  0  0  0  0  0  0
   43.9420   21.5260   34.6090 H   0  0  0  0  0  0  0  0  0  0  0  0
   42.2320   22.7540   34.9900 N   0  0  0  0  0  0  0  0  0  0  0  0
   41.2250   22.9450   35.8470 C   0  0  0  0  0  0  0  0  0  0  0  0
   35.3480   26.3290   31.4150 C   0  0  0  0  0  0  0  0  0  0  0  0
   35.0450   25.1200   30.7880 C   0  0  0  0  0  0  0  0  0  0  0  0
   35.9320   24.0540   31.0170 C   0  0  0  0  0  0  0  0  0  0  0  0
   37.0190   24.2470   31.8230 N   0  0  0  0  0  0  0  0  0  0  0  0
   37.2590   25.4350   32.4020 C   0  0  0  0  0  0  0  0  0  0  0  0
   36.4220   26.4700   32.1940 N   0  0  0  0  0  0  0  0  0  0  0  0
   34.6350   27.1160   31.2050 H   0  0  0  0  0  0  0  0  0  0  0  0
   34.2370   24.8640   30.1480 H   0  0  0  0  0  0  0  0  0  0  0  0
   35.9010   23.0360   30.6400 H   0  0  0  0  0  0  0  0  0  0  0  0
  2  1  1  0  0  0  0
  2  7  1  0  0  0  0
  3  2  2  0  0  0  0
  4  3  1  0  0  0  0
  4  5  2  0  0  0  0
  5  6  1  0  0  0  0
  6  7  2  0  0  0  0
  6 10  1  0  0  0  0
  7 11  1  0  0  0  0
  8  4  1  0  0  0  0
  9  5  1  0  0  0  0
 11 12  1  0  0  0  0
 12 13  1  0  0  0  0
 12 14  2  0  0  0  0
 15 16  1  0  0  0  0
 15 14  1  0  0  0  0
 16 17  1  0  0  0  0
 18 16  2  0  0  0  0
 19 18  1  0  0  0  0
 20 19  1  0  0  0  0
 21 19  2  0  0  0  0
 21 22  1  0  0  0  0
 22 11  1  0  0  0  0
 22 15  2  0  0  0  0
 23 28  1  0  0  0  0
 24 25  1  0  0  0  0
 24 23  2  0  0  0  0
 25 26  2  0  0  0  0
 26 27  1  0  0  0  0
 27  3  1  0  0  0  0
 28 27  2  0  0  0  0
 29 23  1  0  0  0  0
 30 24  1  0  0  0  0
 31 25  1  0  0  0  0
M  END
>  <minimizedAffinity>
-5.18229008

$$$$

 OpenBabel03272500313D

 31 34  0  0  0  0  0  0  0  0999 V2000
   35.8720   28.3680   34.4130 Cl  0  0  0  0  0  0  0  0  0  0  0  0
   35.9140   29.5290   33.1040 C   0  0  0  0  0  0  0  0  0  0  0  0
   36.3050   29.0470   31.8650 C   0  0  0  0  0  0  0  0  0  0  0  0
   36.3470   29.9580   30.8000 C   0  0  0  0  0  0  0  0  0  0  0  0
   36.0030   31.2700   31.0270 C   0  0  0  0  0  0  0  0  0  0  0  0
   35.6230   31.6780   32.2860 C   0  0  0  0  0  0  0  0  0  0  0  0
   35.5640   30.8330   33.3660 C   0  0  0  0  0  0  0  0  0  0  0  0
   36.6460   29.6280   29.8130 H   0  0  0  0  0  0  0  0  0  0  0  0
   36.0270   31.9850   30.2310 H   0  0  0  0  0  0  0  0  0  0  0  0
   35.3570   32.7230   32.4370 H   0  0  0  0  0  0  0  0  0  0  0  0
   35.1800   31.2080   34.6750 N   0  0  0  0  0  0  0  0  0  0  0  0
   36.0480   31.7320   35.5610 C   0  0  0  0  0  0  0  0  0  0  0  0
   37.0990   31.9370   35.4280 H   0  0  0  0  0  0  0  0  0  0  0  0
   35.3270   31.9660   36.6970 N   0  0  0  0  0  0  0  0  0  0  0  0
   34.0500   31.5830   36.4820 C   0  0  0  0  0  0  0  0  0  0  0  0
   32.9500   31.6250   37.3410 C   0  0  0  0  0  0  0  0  0  0  0  0
   33.0890   32.0200   38.3520 H   0  0  0  0  0  0  0  0  0  0  0  0
   31.7460   31.1770   36.8930 N   0  0  0  0  0  0  0  0  0  0  0  0
   31.7120   30.7110   35.6120 C   0  0  0  0  0  0  0  0  0  0  0  0
   30.7160   30.3750   35.3360 H   0  0  0  0  0  0  0  0  0  0  0  0
   32.7540   30.6530   34.7480 N   0  0  0  0  0  0  0  0  0  0  0  0
   33.9390   31.0920   35.1810 C   0  0  0  0  0  0  0  0  0  0  0  0
   35.9470   25.4910   31.1350 C   0  0  0  0  0  0  0  0  0  0  0  0
   37.2320   24.9710   31.2980 C   0  0  0  0  0  0  0  0  0  0  0  0
   38.2370   25.8810   31.6680 C   0  0  0  0  0  0  0  0  0  0  0  0
   37.9170   27.1980   31.8470 N   0  0  0  0  0  0  0  0  0  0  0  0
   36.6600   27.6420   31.6760 C   0  0  0  0  0  0  0  0  0  0  0  0
   35.6830   26.7850   31.3210 N   0  0  0  0  0  0  0  0  0  0  0  0
   35.2120   24.7490   30.8500 H   0  0  0  0  0  0  0  0  0  0  0  0
   37.5870   23.9760   31.1850 H   0  0  0  0  0  0  0  0  0  0  0  0
   39.2940   25.7080   31.8480 H   0  0  0  0  0  0  0  0  0  0  0  0
  2  7  1  0  0  0  0
  2  1  1  0  0  0  0
  3  2  2  0  0  0  0
  4  5  2  0  0  0  0
  4  3  1  0  0  0  0
  5  6  1  0  0  0  0
  6 10  1  0  0  0  0
  6  7  2  0  0  0  0
  7 11  1  0  0  0  0
  8  4  1  0  0  0  0
  9  5  1  0  0  0  0
 11 22  1  0  0  0  0
 11 12  1  0  0  0  0
 12 14  2  0  0  0  0
 13 12  1  0  0  0  0
 15 14  1  0  0  0  0
 15 16  1  0  0  0  0
 16 17  1  0  0  0  0
 18 16  2  0  0  0  0
 19 18  1  0  0  0  0
 20 19  1  0  0  0  0
 21 22  1  0  0  0  0
 21 19  2  0  0  0  0
 22 15  2  0  0  0  0
 23 24  2  0  0  0  0
 23 28  1  0  0  0  0
 24 25  1  0  0  0  0
 25 26  2  0  0  0  0
 25 31  1  0  0  0  0
 27 26  1  0  0  0  0
 27  3  1  0  0  0  0
 28 27  2  0  0  0  0
 29 23  1  0  0  0  0
 30 24  1  0  0  0  0
M  END
>  <minimizedAffinity>
-5.11797523

$$$$

 OpenBabel03272500313D

 31 34  0  0  0  0  0  0  0  0999 V2000
   38.1670   23.2030   33.2080 Cl  0  0  0  0  0  0  0  0  0  0  0  0
   37.0900   24.3010   32.3740 C   0  0  0  0  0  0  0  0  0  0  0  0
   36.0730   23.7230   31.6300 C   0  0  0  0  0  0  0  0  0  0  0  0
   35.1960   24.5820   30.9530 C   0  0  0  0  0  0  0  0  0  0  0  0
   35.3800   25.9420   31.0540 C   0  0  0  0  0  0  0  0  0  0  0  0
   36.4120   26.4460   31.8120 C   0  0  0  0  0  0  0  0  0  0  0  0
   37.3020   25.6550   32.4970 C   0  0  0  0  0  0  0  0  0  0  0  0
   34.3870   24.1760   30.3600 H   0  0  0  0  0  0  0  0  0  0  0  0
   34.7250   26.6190   30.5470 H   0  0  0  0  0  0  0  0  0  0  0  0
   36.5350   27.5260   31.8740 H   0  0  0  0  0  0  0  0  0  0  0  0
   38.3760   26.1290   33.2860 N   0  0  0  0  0  0  0  0  0  0  0  0
   38.2250   26.4830   34.5760 C   0  0  0  0  0  0  0  0  0  0  0  0
   37.3280   26.4640   35.1750 H   0  0  0  0  0  0  0  0  0  0  0  0
   39.4590   26.8830   35.0010 N   0  0  0  0  0  0  0  0  0  0  0  0
   40.3270   26.7660   33.9730 C   0  0  0  0  0  0  0  0  0  0  0  0
   41.6920   27.0530   33.9200 C   0  0  0  0  0  0  0  0  0  0  0  0
   42.1830   27.4310   34.8220 H   0  0  0  0  0  0  0  0  0  0  0  0
   42.3650   26.8510   32.7550 N   0  0  0  0  0  0  0  0  0  0  0  0
   41.6320   26.3760   31.7080 C   0  0  0  0  0  0  0  0  0  0  0  0
   42.2440   26.2440   30.8200 H   0  0  0  0  0  0  0  0  0  0  0  0
   40.3090   26.0860   31.7170 N   0  0  0  0  0  0  0  0  0  0  0  0
   39.6420   26.2810   32.8580 C   0  0  0  0  0  0  0  0  0  0  0  0
   34.8280   20.3680   32.3360 C   0  0  0  0  0  0  0  0  0  0  0  0
   35.5620   19.5380   31.4890 C   0  0  0  0  0  0  0  0  0  0  0  0
   36.5070   20.1650   30.6580 C   0  0  0  0  0  0  0  0  0  0  0  0
   36.6570   21.5220   30.7180 N   0  0  0  0  0  0  0  0  0  0  0  0
   35.9210   22.2710   31.5560 C   0  0  0  0  0  0  0  0  0  0  0  0
   35.0100   21.6890   32.3600 N   0  0  0  0  0  0  0  0  0  0  0  0
   34.1150   19.8350   32.9530 H   0  0  0  0  0  0  0  0  0  0  0  0
   35.5260   18.4830   31.3620 H   0  0  0  0  0  0  0  0  0  0  0  0
   37.1820   19.7290   29.9280 H   0  0  0  0  0  0  0  0  0  0  0  0
  2  7  1  0  0  0  0
  2  1  1  0  0  0  0
  3  2  2  0  0  0  0
  4  5  2  0  0  0  0
  4  3  1  0  0  0  0
  5  6  1  0  0  0  0
  6 10  1  0  0  0  0
  6  7  2  0  0  0  0
  7 11  1  0  0  0  0
  8  4  1  0  0  0  0
  9  5  1  0  0  0  0
 11 12  1  0  0  0  0
 12 14  2  0  0  0  0
 12 13  1  0  0  0  0
 15 14  1  0  0  0  0
 16 15  1  0  0  0  0
 16 17  1  0  0  0  0
 18 16  2  0  0  0  0
 19 21  2  0  0  0  0
 19 18  1  0  0  0  0
 20 19  1  0  0  0  0
 21 22  1  0  0  0  0
 22 11  1  0  0  0  0
 22 15  2  0  0  0  0
 23 28  1  0  0  0  0
 23 29  1  0  0  0  0
 24 23  2  0  0  0  0
 25 26  2  0  0  0  0
 25 24  1  0  0  0  0
 26 27  1  0  0  0  0
 27  3  1  0  0  0  0
 27 28  2  0  0  0  0
 30 24  1  0  0  0  0
 31 25  1  0  0  0  0
M  END
>  <minimizedAffinity>
-5.06256294

$$$$

 OpenBabel03272500313D

 31 34  0  0  0  0  0  0  0  0999 V2000
   39.7650   25.2000   31.8700 Cl  0  0  0  0  0  0  0  0  0  0  0  0
   39.0500   25.8860   33.3130 C   0  0  0  0  0  0  0  0  0  0  0  0
   39.8960   26.6110   34.1360 C   0  0  0  0  0  0  0  0  0  0  0  0
   39.3460   27.1710   35.2980 C   0  0  0  0  0  0  0  0  0  0  0  0
   38.0110   26.9790   35.5660 C   0  0  0  0  0  0  0  0  0  0  0  0
   37.2290   26.2470   34.7020 C   0  0  0  0  0  0  0  0  0  0  0  0
   37.7110   25.6750   33.5500 C   0  0  0  0  0  0  0  0  0  0  0  0
   39.9680   27.7460   35.9720 H   0  0  0  0  0  0  0  0  0  0  0  0
   37.5670   27.3960   36.4460 H   0  0  0  0  0  0  0  0  0  0  0  0
   36.1750   26.1110   34.9390 H   0  0  0  0  0  0  0  0  0  0  0  0
   36.9460   24.9150   32.6340 N   0  0  0  0  0  0  0  0  0  0  0  0
   36.1830   25.4840   31.6830 C   0  0  0  0  0  0  0  0  0  0  0  0
   36.0400   26.5340   31.4770 H   0  0  0  0  0  0  0  0  0  0  0  0
   35.6040   24.4520   31.0010 N   0  0  0  0  0  0  0  0  0  0  0  0
   36.0210   23.2900   31.5460 C   0  0  0  0  0  0  0  0  0  0  0  0
   35.7040   21.9750   31.1960 C   0  0  0  0  0  0  0  0  0  0  0  0
   35.0180   21.8070   30.3600 H   0  0  0  0  0  0  0  0  0  0  0  0
   36.2560   20.9520   31.9030 N   0  0  0  0  0  0  0  0  0  0  0  0
   37.0940   21.3030   32.9200 C   0  0  0  0  0  0  0  0  0  0  0  0
   37.4900   20.4290   33.4300 H   0  0  0  0  0  0  0  0  0  0  0  0
   37.4270   22.5630   33.2920 N   0  0  0  0  0  0  0  0  0  0  0  0
   36.8880   23.5710   32.6020 C   0  0  0  0  0  0  0  0  0  0  0  0
   43.5190   26.2080   34.2630 C   0  0  0  0  0  0  0  0  0  0  0  0
   43.9990   27.0480   33.2570 C   0  0  0  0  0  0  0  0  0  0  0  0
   43.0370   27.7640   32.5240 C   0  0  0  0  0  0  0  0  0  0  0  0
   41.7130   27.6090   32.8240 N   0  0  0  0  0  0  0  0  0  0  0  0
   41.3090   26.7850   33.8050 C   0  0  0  0  0  0  0  0  0  0  0  0
   42.2160   26.0890   34.5190 N   0  0  0  0  0  0  0  0  0  0  0  0
   44.3000   25.6800   34.7950 H   0  0  0  0  0  0  0  0  0  0  0  0
   44.9950   27.2400   32.9430 H   0  0  0  0  0  0  0  0  0  0  0  0
   43.1730   28.4660   31.7060 H   0  0  0  0  0  0  0  0  0  0  0  0
  1  2  1  0  0  0  0
  2  7  2  0  0  0  0
  2  3  1  0  0  0  0
  3  4  2  0  0  0  0
  4  5  1  0  0  0  0
  4  8  1  0  0  0  0
  5  9  1  0  0  0  0
  6 10  1  0  0  0  0
  6  5  2  0  0  0  0
  7  6  1  0  0  0  0
 11  7  1  0  0  0  0
 12 11  1  0  0  0  0
 13 12  1  0  0  0  0
 14 15  1  0  0  0  0
 14 12  2  0  0  0  0
 15 22  1  0  0  0  0
 16 15  2  0  0  0  0
 16 18  1  0  0  0  0
 17 16  1  0  0  0  0
 18 19  2  0  0  0  0
 19 21  1  0  0  0  0
 19 20  1  0  0  0  0
 22 11  1  0  0  0  0
 22 21  2  0  0  0  0
 23 28  1  0  0  0  0
 23 29  1  0  0  0  0
 24 23  2  0  0  0  0
 25 26  2  0  0  0  0
 25 24  1  0  0  0  0
 26 27  1  0  0  0  0
 27  3  1  0  0  0  0
 27 28  2  0  0  0  0
 30 24  1  0  0  0  0
 31 25  1  0  0  0  0
M  END
>  <minimizedAffinity>
-5.01115274

$$$$

 OpenBabel03272500313D

 31 34  0  0  0  0  0  0  0  0999 V2000
   38.3180   27.2000   32.9690 Cl  0  0  0  0  0  0  0  0  0  0  0  0
   37.1950   26.0620   32.2570 C   0  0  0  0  0  0  0  0  0  0  0  0
   37.3190   24.7410   32.6560 C   0  0  0  0  0  0  0  0  0  0  0  0
   36.4310   23.8100   32.0990 C   0  0  0  0  0  0  0  0  0  0  0  0
   35.4890   24.2420   31.1940 C   0  0  0  0  0  0  0  0  0  0  0  0
   35.4240   25.5720   30.8440 C   0  0  0  0  0  0  0  0  0  0  0  0
   36.2660   26.5280   31.3560 C   0  0  0  0  0  0  0  0  0  0  0  0
   36.4890   22.7670   32.3810 H   0  0  0  0  0  0  0  0  0  0  0  0
   34.7990   23.5520   30.7550 H   0  0  0  0  0  0  0  0  0  0  0  0
   34.6680   25.8860   30.1260 H   0  0  0  0  0  0  0  0  0  0  0  0
   36.2350   27.9030   31.0250 N   0  0  0  0  0  0  0  0  0  0  0  0
   36.9050   28.4090   29.9720 C   0  0  0  0  0  0  0  0  0  0  0  0
   37.5280   27.8890   29.2620 H   0  0  0  0  0  0  0  0  0  0  0  0
   36.6400   29.7480   29.9700 N   0  0  0  0  0  0  0  0  0  0  0  0
   35.8240   30.0280   31.0090 C   0  0  0  0  0  0  0  0  0  0  0  0
   35.2840   31.2490   31.4160 C   0  0  0  0  0  0  0  0  0  0  0  0
   35.5270   32.1470   30.8400 H   0  0  0  0  0  0  0  0  0  0  0  0
   34.4770   31.2820   32.5110 N   0  0  0  0  0  0  0  0  0  0  0  0
   34.2570   30.0900   33.1350 C   0  0  0  0  0  0  0  0  0  0  0  0
   33.6030   30.2060   33.9960 H   0  0  0  0  0  0  0  0  0  0  0  0
   34.7600   28.8850   32.7740 N   0  0  0  0  0  0  0  0  0  0  0  0
   35.5540   28.8460   31.7000 C   0  0  0  0  0  0  0  0  0  0  0  0
   40.4990   23.5410   33.9800 C   0  0  0  0  0  0  0  0  0  0  0  0
   40.3240   23.5450   35.3650 C   0  0  0  0  0  0  0  0  0  0  0  0
   39.0720   23.9750   35.8390 C   0  0  0  0  0  0  0  0  0  0  0  0
   38.1120   24.3580   34.9460 N   0  0  0  0  0  0  0  0  0  0  0  0
   38.3370   24.3340   33.6220 C   0  0  0  0  0  0  0  0  0  0  0  0
   39.5310   23.9250   33.1470 N   0  0  0  0  0  0  0  0  0  0  0  0
   41.4780   23.2030   33.6680 H   0  0  0  0  0  0  0  0  0  0  0  0
   40.9960   23.2710   36.1410 H   0  0  0  0  0  0  0  0  0  0  0  0
   38.7130   24.0610   36.8600 H   0  0  0  0  0  0  0  0  0  0  0  0
  2  3  1  0  0  0  0
  2  1  1  0  0  0  0
  3 27  1  0  0  0  0
  4  8  1  0  0  0  0
  4  3  2  0  0  0  0
  5  4  1  0  0  0  0
  6  5  2  0  0  0  0
  6  7  1  0  0  0  0
  7  2  2  0  0  0  0
  9  5  1  0  0  0  0
 10  6  1  0  0  0  0
 11  7  1  0  0  0  0
 11 22  1  0  0  0  0
 12 11  1  0  0  0  0
 13 12  1  0  0  0  0
 14 12  2  0  0  0  0
 14 15  1  0  0  0  0
 15 16  2  0  0  0  0
 15 22  1  0  0  0  0
 16 18  1  0  0  0  0
 17 16  1  0  0  0  0
 18 19  2  0  0  0  0
 19 20  1  0  0  0  0
 21 19  1  0  0  0  0
 22 21  2  0  0  0  0
 23 24  1  0  0  0  0
 24 25  2  0  0  0  0
 24 30  1  0  0  0  0
 25 31  1  0  0  0  0
 26 25  1  0  0  0  0
 27 26  2  0  0  0  0
 28 27  1  0  0  0  0
 28 23  2  0  0  0  0
 29 23  1  0  0  0  0
M  END
>  <minimizedAffinity>
-4.99336338

$$$$
