
 OpenBabel03272506383D

 40 43  0  0  1  0  0  0  0  0999 V2000
   34.6890   28.7220   50.1030 O   0  0  0  0  0  0  0  0  0  0  0  0
   34.4780   29.0450   48.9230 C   0  0  0  0  0  0  0  0  0  0  0  0
   35.2220   30.1120   48.2850 C   0  0  2  0  0  0  0  0  0  0  0  0
   34.7250   29.9730   46.8080 C   0  0  0  0  0  0  0  0  0  0  0  0
   33.3590   29.3740   46.9720 C   0  0  0  0  0  0  0  0  0  0  0  0
   33.5010   28.4200   48.0610 N   0  0  0  0  0  0  0  0  0  0  0  0
   35.0250   31.1380   48.6100 H   0  0  0  0  0  0  0  0  0  0  0  0
   35.4170   29.3560   46.2360 H   0  0  0  0  0  0  0  0  0  0  0  0
   34.7460   30.9860   46.3910 H   0  0  0  0  0  0  0  0  0  0  0  0
   32.5630   30.1030   47.1060 H   0  0  0  0  0  0  0  0  0  0  0  0
   33.1400   28.7630   46.0580 H   0  0  0  0  0  0  0  0  0  0  0  0
   32.8260   27.1530   48.2320 C   0  0  0  0  0  0  0  0  0  0  0  0
   33.0290   26.4720   47.3980 H   0  0  0  0  0  0  0  0  0  0  0  0
   33.3050   26.6820   49.1400 H   0  0  0  0  0  0  0  0  0  0  0  0
   31.4320   27.3050   48.5220 N   0  0  0  0  0  0  0  0  0  0  0  0
   30.8780   27.9890   49.5640 C   0  0  0  0  0  0  0  0  0  0  0  0
   31.4890   28.4980   50.2960 H   0  0  0  0  0  0  0  0  0  0  0  0
   29.5170   27.9200   49.5240 N   0  0  0  0  0  0  0  0  0  0  0  0
   29.1850   27.1840   48.4420 C   0  0  0  0  0  0  0  0  0  0  0  0
   27.9640   26.7970   47.9190 C   0  0  0  0  0  0  0  0  0  0  0  0
   27.0750   27.1120   48.4310 H   0  0  0  0  0  0  0  0  0  0  0  0
   28.0130   26.0500   46.8050 N   0  0  0  0  0  0  0  0  0  0  0  0
   29.1720   25.6860   46.2110 C   0  0  0  0  0  0  0  0  0  0  0  0
   29.0720   25.0800   45.3130 H   0  0  0  0  0  0  0  0  0  0  0  0
   30.3650   26.0510   46.7010 N   0  0  0  0  0  0  0  0  0  0  0  0
   30.3680   26.8110   47.8330 C   0  0  0  0  0  0  0  0  0  0  0  0
   36.6320   29.8970   48.2350 O   0  0  0  0  0  0  0  0  0  0  0  0
   37.4540   31.0200   48.2840 C   0  0  0  0  0  0  0  0  0  0  0  0
   37.6190   31.6160   49.5210 C   0  0  0  0  0  0  0  0  0  0  0  0
   38.4330   32.7390   49.6040 C   0  0  0  0  0  0  0  0  0  0  0  0
   39.0290   33.1990   48.4710 N   0  0  0  0  0  0  0  0  0  0  0  0
   38.8590   32.6090   47.2780 C   0  0  0  0  0  0  0  0  0  0  0  0
   38.0820   31.5400   47.2140 N   0  0  0  0  0  0  0  0  0  0  0  0
   40.3670   32.1730   45.5010 C   0  0  0  0  0  0  0  0  0  0  0  0
   40.6140   30.9940   45.8660 O   0  0  0  0  0  0  0  0  0  0  0  0
   39.4980   33.1220   46.1140 N   0  0  0  0  0  0  0  0  0  0  0  0
   37.1670   31.2850   50.4370 H   0  0  0  0  0  0  0  0  0  0  0  0
   38.5830   33.2280   50.5550 H   0  0  0  0  0  0  0  0  0  0  0  0
   40.9310   32.4060   44.6030 H   0  0  0  0  0  0  0  0  0  0  0  0
   39.3940   34.0570   45.7020 H   0  0  0  0  0  0  0  0  0  0  0  0
  2  1  2  0  0  0  0
  3  7  1  1  0  0  0
  3  2  1  0  0  0  0
  4  5  1  0  0  0  0
  4  3  1  0  0  0  0
  5 10  1  0  0  0  0
  5  6  1  0  0  0  0
  6 12  1  0  0  0  0
  6  2  1  0  0  0  0
  8  4  1  0  0  0  0
  9  4  1  0  0  0  0
 11  5  1  0  0  0  0
 12 15  1  0  0  0  0
 12 14  1  0  0  0  0
 13 12  1  0  0  0  0
 15 16  1  0  0  0  0
 16 17  1  0  0  0  0
 18 16  2  0  0  0  0
 19 18  1  0  0  0  0
 20 21  1  0  0  0  0
 20 19  1  0  0  0  0
 22 20  2  0  0  0  0
 23 25  2  0  0  0  0
 23 22  1  0  0  0  0
 24 23  1  0  0  0  0
 25 26  1  0  0  0  0
 26 19  2  0  0  0  0
 26 15  1  0  0  0  0
 27 28  1  0  0  0  0
 27  3  1  0  0  0  0
 28 29  1  0  0  0  0
 29 30  2  0  0  0  0
 29 37  1  0  0  0  0
 30 38  1  0  0  0  0
 31 30  1  0  0  0  0
 32 31  2  0  0  0  0
 33 32  1  0  0  0  0
 33 28  2  0  0  0  0
 34 35  2  0  0  0  0
 34 36  1  0  0  0  0
 36 32  1  0  0  0  0
 39 34  1  0  0  0  0
 40 36  1  0  0  0  0
M  END
>  <minimizedAffinity>
-6.38928699

>  <minimizedRMSD>
1.21904731

$$$$
