
 OpenBabel03272507463D

 49 54  0  0  0  0  0  0  0  0999 V2000
   33.0810   28.2650   47.2210 N   0  0  0  0  0  0  0  0  0  0  0  0
   33.7440   27.7340   48.3600 C   0  0  0  0  0  0  0  0  0  0  0  0
   34.8820   28.5170   48.8960 C   0  0  0  0  0  0  0  0  0  0  0  0
   35.7560   29.1610   47.9160 C   0  0  0  0  0  0  0  0  0  0  0  0
   34.9850   29.6450   46.6750 C   0  0  0  0  0  0  0  0  0  0  0  0
   34.0850   28.4860   46.2190 C   0  0  0  0  0  0  0  0  0  0  0  0
   32.9900   27.5710   49.1830 H   0  0  0  0  0  0  0  0  0  0  0  0
   34.1210   26.7250   48.0880 H   0  0  0  0  0  0  0  0  0  0  0  0
   34.3420   29.3570   49.4470 H   0  0  0  0  0  0  0  0  0  0  0  0
   35.4110   27.9310   49.6590 H   0  0  0  0  0  0  0  0  0  0  0  0
   36.5290   28.4690   47.4930 H   0  0  0  0  0  0  0  0  0  0  0  0
   34.3710   30.5220   46.8730 H   0  0  0  0  0  0  0  0  0  0  0  0
   35.7230   29.7910   45.8540 H   0  0  0  0  0  0  0  0  0  0  0  0
   33.5720   28.7570   45.2870 H   0  0  0  0  0  0  0  0  0  0  0  0
   34.6990   27.5920   45.9960 H   0  0  0  0  0  0  0  0  0  0  0  0
   31.6870   28.5400   47.0550 C   0  0  0  0  0  0  0  0  0  0  0  0
   31.0870   29.0710   45.9180 C   0  0  0  0  0  0  0  0  0  0  0  0
   29.7100   29.2630   45.9550 C   0  0  0  0  0  0  0  0  0  0  0  0
   29.0270   28.9280   47.0870 N   0  0  0  0  0  0  0  0  0  0  0  0
   29.6350   28.4170   48.1670 C   0  0  0  0  0  0  0  0  0  0  0  0
   30.9550   28.2260   48.1490 N   0  0  0  0  0  0  0  0  0  0  0  0
   31.7640   29.2810   45.1170 H   0  0  0  0  0  0  0  0  0  0  0  0
   29.2870   29.6740   45.0600 H   0  0  0  0  0  0  0  0  0  0  0  0
   28.8580   28.0880   49.3150 N   0  0  0  0  0  0  0  0  0  0  0  0
   29.1020   27.4890   50.4960 C   0  0  0  0  0  0  0  0  0  0  0  0
   30.1450   27.1780   50.6020 H   0  0  0  0  0  0  0  0  0  0  0  0
   27.9680   27.4430   51.2190 N   0  0  0  0  0  0  0  0  0  0  0  0
   27.0010   28.0210   50.4860 C   0  0  0  0  0  0  0  0  0  0  0  0
   25.6780   28.1920   50.8380 C   0  0  0  0  0  0  0  0  0  0  0  0
   25.2920   27.8550   51.7900 H   0  0  0  0  0  0  0  0  0  0  0  0
   24.8580   28.8100   49.9370 N   0  0  0  0  0  0  0  0  0  0  0  0
   25.3910   29.2090   48.7690 C   0  0  0  0  0  0  0  0  0  0  0  0
   24.8460   29.7120   47.9650 H   0  0  0  0  0  0  0  0  0  0  0  0
   26.6860   29.0530   48.3970 N   0  0  0  0  0  0  0  0  0  0  0  0
   27.5400   28.4420   49.2670 C   0  0  0  0  0  0  0  0  0  0  0  0
   36.1380   30.8290   49.6750 C   0  0  0  0  0  0  0  0  0  0  0  0
   36.4730   30.3600   48.4150 C   0  0  0  0  0  0  0  0  0  0  0  0
   37.4030   30.9510   47.6020 C   0  0  0  0  0  0  0  0  0  0  0  0
   38.0430   32.0930   48.0820 C   0  0  0  0  0  0  0  0  0  0  0  0
   37.7170   32.5640   49.3270 C   0  0  0  0  0  0  0  0  0  0  0  0
   36.7710   31.9620   50.1540 C   0  0  0  0  0  0  0  0  0  0  0  0
   38.4650   33.7120   49.6210 O   0  0  0  0  0  0  0  0  0  0  0  0
   39.4910   33.7370   48.6400 C   0  0  0  0  0  0  0  0  0  0  0  0
   39.0190   32.9540   47.5730 O   0  0  0  0  0  0  0  0  0  0  0  0
   35.4380   30.4460   50.4030 H   0  0  0  0  0  0  0  0  0  0  0  0
   37.6320   30.5620   46.6440 H   0  0  0  0  0  0  0  0  0  0  0  0
   36.5610   32.3980   51.1450 H   0  0  0  0  0  0  0  0  0  0  0  0
   39.6010   34.8170   48.3430 H   0  0  0  0  0  0  0  0  0  0  0  0
   40.4680   33.3900   49.0260 H   0  0  0  0  0  0  0  0  0  0  0  0
  1  2  1  0  0  0  0
  2  3  1  0  0  0  0
  2  7  1  0  0  0  0
  3  9  1  0  0  0  0
  3 10  1  0  0  0  0
  4 37  1  0  0  0  0
  4  3  1  0  0  0  0
  5 12  1  0  0  0  0
  5  4  1  0  0  0  0
  6  5  1  0  0  0  0
  6  1  1  0  0  0  0
  8  2  1  0  0  0  0
 11  4  1  0  0  0  0
 13  5  1  0  0  0  0
 14  6  1  0  0  0  0
 15  6  1  0  0  0  0
 16  1  1  0  0  0  0
 16 21  1  0  0  0  0
 17 18  1  0  0  0  0
 17 16  2  0  0  0  0
 18 19  2  0  0  0  0
 19 20  1  0  0  0  0
 20 24  1  0  0  0  0
 21 20  2  0  0  0  0
 22 17  1  0  0  0  0
 23 18  1  0  0  0  0
 24 25  1  0  0  0  0
 25 26  1  0  0  0  0
 25 27  2  0  0  0  0
 28 29  1  0  0  0  0
 28 27  1  0  0  0  0
 29 30  1  0  0  0  0
 31 29  2  0  0  0  0
 32 31  1  0  0  0  0
 33 32  1  0  0  0  0
 34 32  2  0  0  0  0
 34 35  1  0  0  0  0
 35 24  1  0  0  0  0
 35 28  2  0  0  0  0
 36 41  1  0  0  0  0
 36 45  1  0  0  0  0
 37 36  2  0  0  0  0
 38 39  2  0  0  0  0
 38 37  1  0  0  0  0
 39 40  1  0  0  0  0
 40 42  1  0  0  0  0
 40 41  2  0  0  0  0
 41 47  1  0  0  0  0
 43 49  1  0  0  0  0
 43 42  1  0  0  0  0
 44 39  1  0  0  0  0
 44 43  1  0  0  0  0
 46 38  1  0  0  0  0
 48 43  1  0  0  0  0
M  END
>  <minimizedAffinity>
-8.08023548

>  <minimizedRMSD>
0.649375141

$$$$
