
 OpenBabel03272508083D

 27 29  0  0  0  0  0  0  0  0999 V2000
   38.9220   32.9560   48.1670 O   0  0  0  0  0  0  0  0  0  0  0  0
   38.6620   31.8760   47.1620 P   0  0  2  0  0  0  0  0  0  0  0  0
   37.5740   32.4500   45.9780 O   0  0  0  0  0  0  0  0  0  0  0  0
   37.5390   33.4280   46.0290 H   0  0  0  0  0  0  0  0  0  0  0  0
   38.1450   30.4190   47.8120 O   0  0  0  0  0  0  0  0  0  0  0  0
   37.3110   30.2170   51.4130 C   0  0  0  0  0  0  0  0  0  0  0  0
   38.0540   30.5810   50.2850 C   0  0  0  0  0  0  0  0  0  0  0  0
   37.5950   30.1840   49.0380 C   0  0  0  0  0  0  0  0  0  0  0  0
   36.4350   29.4530   48.9690 N   0  0  0  0  0  0  0  0  0  0  0  0
   35.7520   29.1250   50.0880 C   0  0  0  0  0  0  0  0  0  0  0  0
   36.1880   29.5060   51.3000 N   0  0  0  0  0  0  0  0  0  0  0  0
   37.6940   30.5400   52.3590 H   0  0  0  0  0  0  0  0  0  0  0  0
   38.9600   31.1450   50.2680 H   0  0  0  0  0  0  0  0  0  0  0  0
   34.8280   28.5400   49.9920 H   0  0  0  0  0  0  0  0  0  0  0  0
   40.1230   31.6070   46.3330 O   0  0  0  0  0  0  0  0  0  0  0  0
   38.6040   29.4150   45.5030 H   0  0  0  0  0  0  0  0  0  0  0  0
   39.2900   29.8250   44.8320 N   0  0  0  0  0  0  0  0  0  0  0  0
   40.0760   30.8880   45.1350 C   0  0  0  0  0  0  0  0  0  0  0  0
   40.7930   31.0820   44.0090 N   0  0  0  0  0  0  0  0  0  0  0  0
   40.4810   30.2030   43.0620 C   0  0  0  0  0  0  0  0  0  0  0  0
   40.8570   29.9130   41.7650 C   0  0  0  0  0  0  0  0  0  0  0  0
   41.6170   30.5240   41.3070 H   0  0  0  0  0  0  0  0  0  0  0  0
   40.3090   28.9050   41.0710 N   0  0  0  0  0  0  0  0  0  0  0  0
   39.3520   28.1370   41.6540 C   0  0  0  0  0  0  0  0  0  0  0  0
   38.8970   27.3060   41.0930 H   0  0  0  0  0  0  0  0  0  0  0  0
   38.9500   28.3780   42.9170 N   0  0  0  0  0  0  0  0  0  0  0  0
   39.5110   29.3910   43.5950 C   0  0  0  0  0  0  0  0  0  0  0  0
  2  5  1  0  0  0  0
  2  1  2  1  0  0  0
  3  4  1  0  0  0  0
  3  2  1  0  0  0  0
  5  8  1  0  0  0  0
  6 12  1  0  0  0  0
  7  6  2  0  0  0  0
  8  7  1  0  0  0  0
  9  8  2  0  0  0  0
  9 10  1  0  0  0  0
 10 11  2  0  0  0  0
 11  6  1  0  0  0  0
 13  7  1  0  0  0  0
 14 10  1  0  0  0  0
 15  2  1  0  0  0  0
 17 18  1  0  0  0  0
 17 16  1  0  0  0  0
 18 15  1  0  0  0  0
 19 18  2  0  0  0  0
 20 27  1  0  0  0  0
 20 19  1  0  0  0  0
 21 20  2  0  0  0  0
 22 21  1  0  0  0  0
 23 24  2  0  0  0  0
 23 21  1  0  0  0  0
 24 26  1  0  0  0  0
 25 24  1  0  0  0  0
 26 27  2  0  0  0  0
 27 17  1  0  0  0  0
M  END
>  <minimizedAffinity>
-5.75646782

>  <minimizedRMSD>
1.10136271

$$$$
