
 OpenBabel03272505293D

 43 47  0  0  0  0  0  0  0  0999 V2000
   37.3390   31.1390   47.1140 N   0  0  0  0  0  0  0  0  0  0  0  0
   36.6860   30.9120   45.9490 C   0  0  0  0  0  0  0  0  0  0  0  0
   37.1230   31.4410   44.7410 C   0  0  0  0  0  0  0  0  0  0  0  0
   38.2840   32.2330   44.7650 C   0  0  0  0  0  0  0  0  0  0  0  0
   38.7130   32.7310   43.7000 O   0  0  0  0  0  0  0  0  0  0  0  0
   38.9360   32.4560   45.9500 N   0  0  0  0  0  0  0  0  0  0  0  0
   38.4200   31.8950   47.0390 C   0  0  0  0  0  0  0  0  0  0  0  0
   39.0560   32.1300   48.0930 O   0  0  0  0  0  0  0  0  0  0  0  0
   35.7880   30.2990   45.9260 H   0  0  0  0  0  0  0  0  0  0  0  0
   36.4580   31.2260   43.4720 C   0  0  0  0  0  0  0  0  0  0  0  0
   36.6730   30.1090   42.6890 C   0  0  0  0  0  0  0  0  0  0  0  0
   36.0620   29.8620   41.4750 C   0  0  0  0  0  0  0  0  0  0  0  0
   35.1560   30.8140   41.0020 C   0  0  0  0  0  0  0  0  0  0  0  0
   34.9710   31.9170   41.8150 C   0  0  0  0  0  0  0  0  0  0  0  0
   35.5870   32.1110   42.9850 N   0  0  0  0  0  0  0  0  0  0  0  0
   37.3870   29.3740   43.0790 H   0  0  0  0  0  0  0  0  0  0  0  0
   36.3240   28.9450   40.9680 H   0  0  0  0  0  0  0  0  0  0  0  0
   34.6820   30.6330   40.0680 H   0  0  0  0  0  0  0  0  0  0  0  0
   34.0490   32.8970   41.3430 N   0  0  0  0  0  0  0  0  0  0  0  0
   34.4000   34.2020   41.1380 C   0  0  0  0  0  0  0  0  0  0  0  0
   35.3660   34.6420   41.2970 H   0  0  0  0  0  0  0  0  0  0  0  0
   33.3710   34.9590   40.6890 N   0  0  0  0  0  0  0  0  0  0  0  0
   32.3250   34.0980   40.6060 C   0  0  0  0  0  0  0  0  0  0  0  0
   31.0080   34.1820   40.2330 C   0  0  0  0  0  0  0  0  0  0  0  0
   30.6430   35.1640   39.9100 H   0  0  0  0  0  0  0  0  0  0  0  0
   30.1770   33.1170   40.2540 N   0  0  0  0  0  0  0  0  0  0  0  0
   30.6320   31.8940   40.6560 C   0  0  0  0  0  0  0  0  0  0  0  0
   29.8770   31.1210   40.6310 H   0  0  0  0  0  0  0  0  0  0  0  0
   31.9310   31.7680   41.0340 N   0  0  0  0  0  0  0  0  0  0  0  0
   32.7460   32.8420   41.0060 C   0  0  0  0  0  0  0  0  0  0  0  0
   37.2810   29.4290   50.4180 C   0  0  0  0  0  0  0  0  0  0  0  0
   37.7510   29.9670   49.1980 C   0  0  0  0  0  0  0  0  0  0  0  0
   36.8910   30.6000   48.3260 C   0  0  0  0  0  0  0  0  0  0  0  0
   35.6040   30.6810   48.6870 N   0  0  0  0  0  0  0  0  0  0  0  0
   35.1120   30.1760   49.8530 C   0  0  0  0  0  0  0  0  0  0  0  0
   35.9810   29.5480   50.7100 N   0  0  0  0  0  0  0  0  0  0  0  0
   37.9600   28.9330   51.1010 H   0  0  0  0  0  0  0  0  0  0  0  0
   38.8090   29.8610   48.9790 H   0  0  0  0  0  0  0  0  0  0  0  0
   34.0690   30.3180   49.9980 H   0  0  0  0  0  0  0  0  0  0  0  0
   40.1300   33.2740   45.9620 C   0  0  0  0  0  0  0  0  0  0  0  0
   40.0520   34.2510   45.0190 F   0  0  0  0  0  0  0  0  0  0  0  0
   41.2910   32.5540   45.6940 F   0  0  0  0  0  0  0  0  0  0  0  0
   40.2370   33.8870   47.2120 F   0  0  0  0  0  0  0  0  0  0  0  0
  1 33  1  0  0  0  0
  2  1  1  0  0  0  0
  3  4  1  0  0  0  0
  3  2  2  0  0  0  0
  4  6  1  0  0  0  0
  5  4  2  0  0  0  0
  6 40  1  0  0  0  0
  6  7  1  0  0  0  0
  7  1  1  0  0  0  0
  7  8  2  0  0  0  0
  9  2  1  0  0  0  0
 10  3  1  0  0  0  0
 11 16  1  0  0  0  0
 11 10  2  0  0  0  0
 12 11  1  0  0  0  0
 13 12  2  0  0  0  0
 13 14  1  0  0  0  0
 14 15  2  0  0  0  0
 15 10  1  0  0  0  0
 17 12  1  0  0  0  0
 18 13  1  0  0  0  0
 19 14  1  0  0  0  0
 20 21  1  0  0  0  0
 20 19  1  0  0  0  0
 22 20  2  0  0  0  0
 23 22  1  0  0  0  0
 23 30  1  0  0  0  0
 24 26  1  0  0  0  0
 24 23  2  0  0  0  0
 25 24  1  0  0  0  0
 26 27  2  0  0  0  0
 27 29  1  0  0  0  0
 28 27  1  0  0  0  0
 30 29  2  0  0  0  0
 30 19  1  0  0  0  0
 31 36  1  0  0  0  0
 31 37  1  0  0  0  0
 32 31  2  0  0  0  0
 33 34  2  0  0  0  0
 33 32  1  0  0  0  0
 34 35  1  0  0  0  0
 35 39  1  0  0  0  0
 35 36  2  0  0  0  0
 38 32  1  0  0  0  0
 40 43  1  0  0  0  0
 41 40  1  0  0  0  0
 42 40  1  0  0  0  0
M  END
>  <minimizedAffinity>
-6.83723688

>  <minimizedRMSD>
0.56331414

$$$$
