
 OpenBabel03272505513D

 47 51  0  0  1  0  0  0  0  0999 V2000
   35.1940   29.7440   45.4730 N   0  0  2  0  0  0  0  0  0  0  0  0
   36.5390   30.3200   45.4320 C   0  0  0  0  0  0  0  0  0  0  0  0
   36.8960   30.4980   43.9750 C   0  0  0  0  0  0  0  0  0  0  0  0
   35.7520   29.8880   43.2570 C   0  0  0  0  0  0  0  0  0  0  0  0
   34.5770   30.0600   44.2350 C   0  0  1  0  0  0  0  0  0  0  0  0
   37.2710   29.7650   46.0190 H   0  0  0  0  0  0  0  0  0  0  0  0
   36.4070   31.3630   45.8440 H   0  0  0  0  0  0  0  0  0  0  0  0
   37.1070   31.5480   43.6940 H   0  0  0  0  0  0  0  0  0  0  0  0
   37.8050   29.8820   43.7980 H   0  0  0  0  0  0  0  0  0  0  0  0
   35.5970   30.4640   42.3190 H   0  0  0  0  0  0  0  0  0  0  0  0
   35.8870   28.8470   42.9620 H   0  0  0  0  0  0  0  0  0  0  0  0
   34.3220   31.0960   44.0350 H   0  0  0  0  0  0  0  0  0  0  0  0
   37.1700   29.2100   50.4230 C   0  0  0  0  0  0  0  0  0  0  0  0
   37.3170   30.5560   50.7940 C   0  0  0  0  0  0  0  0  0  0  0  0
   36.5660   31.4890   50.0850 C   0  0  0  0  0  0  0  0  0  0  0  0
   35.7500   31.0420   49.0930 N   0  0  0  0  0  0  0  0  0  0  0  0
   35.6450   29.7540   48.7790 C   0  0  0  0  0  0  0  0  0  0  0  0
   36.3520   28.8370   49.4390 N   0  0  0  0  0  0  0  0  0  0  0  0
   34.7730   29.3580   47.7340 N   0  0  0  0  0  0  0  0  0  0  0  0
   34.1460   28.0400   47.7180 C   0  0  0  0  0  0  0  0  0  0  0  0
   32.6670   28.1850   47.5850 C   0  0  0  0  0  0  0  0  0  0  0  0
   32.1940   29.4060   47.1670 N   0  0  0  0  0  0  0  0  0  0  0  0
   33.0230   30.3300   46.4320 C   0  0  0  0  0  0  0  0  0  0  0  0
   34.4560   30.2390   46.6250 C   0  0  2  0  0  0  0  0  0  0  0  0
   37.7810   28.5490   51.0150 H   0  0  0  0  0  0  0  0  0  0  0  0
   37.9300   30.9770   51.5530 H   0  0  0  0  0  0  0  0  0  0  0  0
   36.5920   32.5510   50.2760 H   0  0  0  0  0  0  0  0  0  0  0  0
   34.6360   27.3750   47.0090 H   0  0  0  0  0  0  0  0  0  0  0  0
   34.3730   27.5800   48.7300 H   0  0  0  0  0  0  0  0  0  0  0  0
   32.1640   27.8920   48.5300 H   0  0  0  0  0  0  0  0  0  0  0  0
   32.3430   27.3890   46.8540 H   0  0  0  0  0  0  0  0  0  0  0  0
   31.3050   29.7750   47.5110 H   0  0  0  0  0  0  0  0  0  0  0  0
   32.5610   30.4040   45.4610 H   0  0  0  0  0  0  0  0  0  0  0  0
   32.7060   31.3280   46.9020 H   0  0  0  0  0  0  0  0  0  0  0  0
   34.9270   31.2380   46.8760 H   0  0  0  0  0  0  0  0  0  0  0  0
   33.6220   29.0980   43.7240 N   0  0  0  0  0  0  0  0  0  0  0  0
   32.4410   29.2220   43.0440 C   0  0  0  0  0  0  0  0  0  0  0  0
   32.0800   30.2330   42.8070 H   0  0  0  0  0  0  0  0  0  0  0  0
   31.9290   28.0060   42.7840 N   0  0  0  0  0  0  0  0  0  0  0  0
   32.7710   27.0690   43.2940 C   0  0  0  0  0  0  0  0  0  0  0  0
   32.5980   25.7030   43.2340 C   0  0  0  0  0  0  0  0  0  0  0  0
   31.7390   25.2560   42.7540 H   0  0  0  0  0  0  0  0  0  0  0  0
   33.5730   24.9680   43.8140 N   0  0  0  0  0  0  0  0  0  0  0  0
   34.6150   25.5900   44.3930 C   0  0  0  0  0  0  0  0  0  0  0  0
   35.4040   24.9820   44.8610 H   0  0  0  0  0  0  0  0  0  0  0  0
   34.7230   26.9250   44.4160 N   0  0  0  0  0  0  0  0  0  0  0  0
   33.8200   27.7530   43.8760 C   0  0  0  0  0  0  0  0  0  0  0  0
  1  2  1  6  0  0  0
  1 24  1  0  0  0  0
  2  7  1  0  0  0  0
  2  6  1  0  0  0  0
  3  2  1  0  0  0  0
  4  3  1  0  0  0  0
  4  5  1  0  0  0  0
  5 12  1  6  0  0  0
  5  1  1  0  0  0  0
  8  3  1  0  0  0  0
  9  3  1  0  0  0  0
 10  4  1  0  0  0  0
 11  4  1  0  0  0  0
 13 14  1  0  0  0  0
 13 25  1  0  0  0  0
 14 26  1  0  0  0  0
 15 27  1  0  0  0  0
 15 14  2  0  0  0  0
 16 15  1  0  0  0  0
 17 16  2  0  0  0  0
 17 18  1  0  0  0  0
 18 13  2  0  0  0  0
 19 17  1  0  0  0  0
 20 19  1  0  0  0  0
 20 29  1  0  0  0  0
 21 20  1  0  0  0  0
 21 30  1  0  0  0  0
 22 32  1  0  0  0  0
 22 21  1  0  0  0  0
 23 24  1  0  0  0  0
 23 34  1  0  0  0  0
 23 22  1  0  0  0  0
 24 35  1  1  0  0  0
 24 19  1  0  0  0  0
 28 20  1  0  0  0  0
 31 21  1  0  0  0  0
 33 23  1  0  0  0  0
 36 47  1  0  0  0  0
 36  5  1  0  0  0  0
 37 36  1  0  0  0  0
 38 37  1  0  0  0  0
 39 37  2  0  0  0  0
 39 40  1  0  0  0  0
 40 47  1  0  0  0  0
 41 40  2  0  0  0  0
 41 43  1  0  0  0  0
 42 41  1  0  0  0  0
 43 44  2  0  0  0  0
 44 46  1  0  0  0  0
 44 45  1  0  0  0  0
 47 46  2  0  0  0  0
M  END
>  <minimizedAffinity>
-4.57802105

>  <minimizedRMSD>
1.15454423

$$$$
