
 OpenBabel03272506383D

 40 43  0  0  1  0  0  0  0  0999 V2000
   34.4970   28.2020   49.6200 O   0  0  0  0  0  0  0  0  0  0  0  0
   34.1480   28.7090   48.5430 C   0  0  0  0  0  0  0  0  0  0  0  0
   34.7950   29.8930   48.0170 C   0  0  2  0  0  0  0  0  0  0  0  0
   34.1350   29.9840   46.6020 C   0  0  0  0  0  0  0  0  0  0  0  0
   32.8080   29.3180   46.8110 C   0  0  0  0  0  0  0  0  0  0  0  0
   33.0880   28.2020   47.7010 N   0  0  0  0  0  0  0  0  0  0  0  0
   34.6210   30.8430   48.5300 H   0  0  0  0  0  0  0  0  0  0  0  0
   34.7670   29.4960   45.8610 H   0  0  0  0  0  0  0  0  0  0  0  0
   34.0920   31.0520   46.3620 H   0  0  0  0  0  0  0  0  0  0  0  0
   32.0200   29.9870   47.1540 H   0  0  0  0  0  0  0  0  0  0  0  0
   32.4950   28.8610   45.8370 H   0  0  0  0  0  0  0  0  0  0  0  0
   32.4580   26.9010   47.7270 C   0  0  0  0  0  0  0  0  0  0  0  0
   32.2170   26.5910   48.7510 H   0  0  0  0  0  0  0  0  0  0  0  0
   31.4660   27.0420   47.2050 H   0  0  0  0  0  0  0  0  0  0  0  0
   33.1890   25.9180   46.9860 N   0  0  0  0  0  0  0  0  0  0  0  0
   34.0660   26.1390   45.9660 C   0  0  0  0  0  0  0  0  0  0  0  0
   34.2900   27.1390   45.6200 H   0  0  0  0  0  0  0  0  0  0  0  0
   34.5740   24.9670   45.4960 N   0  0  0  0  0  0  0  0  0  0  0  0
   34.0190   23.9710   46.2190 C   0  0  0  0  0  0  0  0  0  0  0  0
   34.1650   22.5950   46.1770 C   0  0  0  0  0  0  0  0  0  0  0  0
   34.8380   22.1840   45.4490 H   0  0  0  0  0  0  0  0  0  0  0  0
   33.4400   21.9000   47.0670 N   0  0  0  0  0  0  0  0  0  0  0  0
   32.6100   22.4850   47.9590 C   0  0  0  0  0  0  0  0  0  0  0  0
   32.0790   21.8080   48.6260 H   0  0  0  0  0  0  0  0  0  0  0  0
   32.4520   23.8140   48.0170 N   0  0  0  0  0  0  0  0  0  0  0  0
   33.1690   24.5650   47.1330 C   0  0  0  0  0  0  0  0  0  0  0  0
   36.1940   29.7400   47.7760 O   0  0  0  0  0  0  0  0  0  0  0  0
   37.0110   30.8420   48.0140 C   0  0  0  0  0  0  0  0  0  0  0  0
   37.0330   31.3310   49.3080 C   0  0  0  0  0  0  0  0  0  0  0  0
   37.8380   32.4310   49.5780 C   0  0  0  0  0  0  0  0  0  0  0  0
   38.5650   32.9750   48.5640 N   0  0  0  0  0  0  0  0  0  0  0  0
   38.5320   32.4880   47.3150 C   0  0  0  0  0  0  0  0  0  0  0  0
   37.7620   31.4400   47.0710 N   0  0  0  0  0  0  0  0  0  0  0  0
   40.2340   32.1780   45.6940 C   0  0  0  0  0  0  0  0  0  0  0  0
   40.4310   30.9690   45.9840 O   0  0  0  0  0  0  0  0  0  0  0  0
   39.3050   33.0860   46.2800 N   0  0  0  0  0  0  0  0  0  0  0  0
   36.4760   30.9320   50.1340 H   0  0  0  0  0  0  0  0  0  0  0  0
   37.8780   32.8380   50.5780 H   0  0  0  0  0  0  0  0  0  0  0  0
   40.9000   32.4760   44.8890 H   0  0  0  0  0  0  0  0  0  0  0  0
   39.2540   34.0530   45.9380 H   0  0  0  0  0  0  0  0  0  0  0  0
  2  1  2  0  0  0  0
  3  7  1  1  0  0  0
  3  2  1  0  0  0  0
  4  5  1  0  0  0  0
  4  3  1  0  0  0  0
  5 10  1  0  0  0  0
  5  6  1  0  0  0  0
  6 12  1  0  0  0  0
  6  2  1  0  0  0  0
  8  4  1  0  0  0  0
  9  4  1  0  0  0  0
 11  5  1  0  0  0  0
 12 13  1  0  0  0  0
 14 12  1  0  0  0  0
 15 26  1  0  0  0  0
 15 12  1  0  0  0  0
 16 15  1  0  0  0  0
 17 16  1  0  0  0  0
 18 16  2  0  0  0  0
 18 19  1  0  0  0  0
 19 26  1  0  0  0  0
 20 19  2  0  0  0  0
 20 22  1  0  0  0  0
 21 20  1  0  0  0  0
 22 23  2  0  0  0  0
 23 25  1  0  0  0  0
 23 24  1  0  0  0  0
 26 25  2  0  0  0  0
 27 28  1  0  0  0  0
 27  3  1  0  0  0  0
 28 29  1  0  0  0  0
 29 30  2  0  0  0  0
 29 37  1  0  0  0  0
 30 38  1  0  0  0  0
 31 30  1  0  0  0  0
 32 31  2  0  0  0  0
 33 32  1  0  0  0  0
 33 28  2  0  0  0  0
 34 35  2  0  0  0  0
 34 36  1  0  0  0  0
 36 32  1  0  0  0  0
 39 34  1  0  0  0  0
 40 36  1  0  0  0  0
M  END
>  <minimizedAffinity>
-5.35210609

>  <minimizedRMSD>
3.83034873

$$$$
