
 OpenBabel03272505013D

 31 34  0  0  0  0  0  0  0  0999 V2000
   36.3280   28.1450   34.4940 Cl  0  0  0  0  0  0  0  0  0  0  0  0
   36.1690   29.2300   33.1260 C   0  0  0  0  0  0  0  0  0  0  0  0
   35.5590   30.4380   33.3200 C   0  0  0  0  0  0  0  0  0  0  0  0
   35.4670   31.2490   32.1920 C   0  0  0  0  0  0  0  0  0  0  0  0
   35.9750   30.8240   30.9650 C   0  0  0  0  0  0  0  0  0  0  0  0
   36.5810   29.5990   30.8220 C   0  0  0  0  0  0  0  0  0  0  0  0
   36.6750   28.7930   31.9310 C   0  0  0  0  0  0  0  0  0  0  0  0
   35.0010   32.2330   32.2270 H   0  0  0  0  0  0  0  0  0  0  0  0
   35.8930   31.4710   30.1020 H   0  0  0  0  0  0  0  0  0  0  0  0
   36.9670   29.2910   29.8600 H   0  0  0  0  0  0  0  0  0  0  0  0
   37.3040   27.5050   31.8110 N   0  0  0  0  0  0  0  0  0  0  0  0
   38.6090   27.2550   31.9910 C   0  0  0  0  0  0  0  0  0  0  0  0
   39.3240   28.0390   32.2530 H   0  0  0  0  0  0  0  0  0  0  0  0
   38.7950   25.9410   31.7910 N   0  0  0  0  0  0  0  0  0  0  0  0
   37.5980   25.3920   31.4890 C   0  0  0  0  0  0  0  0  0  0  0  0
   37.2920   24.0580   31.2000 C   0  0  0  0  0  0  0  0  0  0  0  0
   38.0470   23.2840   31.1930 H   0  0  0  0  0  0  0  0  0  0  0  0
   35.9920   23.8290   30.9360 N   0  0  0  0  0  0  0  0  0  0  0  0
   35.0450   24.7840   30.9420 C   0  0  0  0  0  0  0  0  0  0  0  0
   34.0000   24.5970   30.7290 H   0  0  0  0  0  0  0  0  0  0  0  0
   35.3440   26.0850   31.2240 N   0  0  0  0  0  0  0  0  0  0  0  0
   36.6240   26.3880   31.4970 C   0  0  0  0  0  0  0  0  0  0  0  0
   33.6880   30.6650   34.9520 C   0  0  0  0  0  0  0  0  0  0  0  0
   35.0210   30.9010   34.5970 C   0  0  0  0  0  0  0  0  0  0  0  0
   35.8400   31.5960   35.4950 C   0  0  0  0  0  0  0  0  0  0  0  0
   35.2970   32.0090   36.6740 N   0  0  0  0  0  0  0  0  0  0  0  0
   34.0020   31.7640   36.9860 C   0  0  0  0  0  0  0  0  0  0  0  0
   33.1980   31.0900   36.1220 N   0  0  0  0  0  0  0  0  0  0  0  0
   33.0430   30.1370   34.2850 H   0  0  0  0  0  0  0  0  0  0  0  0
   36.8590   31.7650   35.2010 H   0  0  0  0  0  0  0  0  0  0  0  0
   33.7910   32.1790   37.9620 H   0  0  0  0  0  0  0  0  0  0  0  0
  2  3  1  0  0  0  0
  2  1  1  0  0  0  0
  3 24  1  0  0  0  0
  4  8  1  0  0  0  0
  4  3  2  0  0  0  0
  5  4  1  0  0  0  0
  6  5  2  0  0  0  0
  6  7  1  0  0  0  0
  7  2  2  0  0  0  0
  9  5  1  0  0  0  0
 10  6  1  0  0  0  0
 11  7  1  0  0  0  0
 11 12  1  0  0  0  0
 12 13  1  0  0  0  0
 14 12  2  0  0  0  0
 15 22  1  0  0  0  0
 15 14  1  0  0  0  0
 16 15  2  0  0  0  0
 17 16  1  0  0  0  0
 18 19  2  0  0  0  0
 18 16  1  0  0  0  0
 19 21  1  0  0  0  0
 20 19  1  0  0  0  0
 21 22  2  0  0  0  0
 22 11  1  0  0  0  0
 23 28  1  0  0  0  0
 24 23  2  0  0  0  0
 24 25  1  0  0  0  0
 25 26  2  0  0  0  0
 26 27  1  0  0  0  0
 27 31  1  0  0  0  0
 28 27  2  0  0  0  0
 29 23  1  0  0  0  0
 30 25  1  0  0  0  0
M  END
>  <minimizedAffinity>
-5.45129156

$$$$

 OpenBabel03272505013D

 31 34  0  0  0  0  0  0  0  0999 V2000
   38.7020   26.3630   33.5540 Cl  0  0  0  0  0  0  0  0  0  0  0  0
   37.6150   25.2080   32.8080 C   0  0  0  0  0  0  0  0  0  0  0  0
   36.6540   25.6740   31.9560 C   0  0  0  0  0  0  0  0  0  0  0  0
   35.8260   24.7030   31.3990 C   0  0  0  0  0  0  0  0  0  0  0  0
   35.9970   23.3560   31.7130 C   0  0  0  0  0  0  0  0  0  0  0  0
   36.9810   22.9360   32.5770 C   0  0  0  0  0  0  0  0  0  0  0  0
   37.8020   23.8900   33.1300 C   0  0  0  0  0  0  0  0  0  0  0  0
   35.0250   24.9570   30.7060 H   0  0  0  0  0  0  0  0  0  0  0  0
   35.3430   22.6180   31.2680 H   0  0  0  0  0  0  0  0  0  0  0  0
   37.0940   21.8860   32.8050 H   0  0  0  0  0  0  0  0  0  0  0  0
   38.8400   23.4810   34.0380 N   0  0  0  0  0  0  0  0  0  0  0  0
   40.0750   23.0950   33.6870 C   0  0  0  0  0  0  0  0  0  0  0  0
   40.4010   23.0590   32.6440 H   0  0  0  0  0  0  0  0  0  0  0  0
   40.7360   22.7970   34.8150 N   0  0  0  0  0  0  0  0  0  0  0  0
   39.8980   23.0030   35.8560 C   0  0  0  0  0  0  0  0  0  0  0  0
   40.1370   22.8280   37.2230 C   0  0  0  0  0  0  0  0  0  0  0  0
   41.0910   22.4850   37.6000 H   0  0  0  0  0  0  0  0  0  0  0  0
   39.0880   23.1210   38.0140 N   0  0  0  0  0  0  0  0  0  0  0  0
   37.8980   23.5490   37.5550 C   0  0  0  0  0  0  0  0  0  0  0  0
   37.0560   23.7840   38.1940 H   0  0  0  0  0  0  0  0  0  0  0  0
   37.6660   23.7190   36.2210 N   0  0  0  0  0  0  0  0  0  0  0  0
   38.6690   23.4450   35.3710 C   0  0  0  0  0  0  0  0  0  0  0  0
   35.6680   27.9200   32.4090 C   0  0  0  0  0  0  0  0  0  0  0  0
   36.4590   27.0820   31.6140 C   0  0  0  0  0  0  0  0  0  0  0  0
   37.0660   27.6190   30.4720 C   0  0  0  0  0  0  0  0  0  0  0  0
   36.8570   28.9350   30.1920 N   0  0  0  0  0  0  0  0  0  0  0  0
   36.0860   29.7190   30.9830 C   0  0  0  0  0  0  0  0  0  0  0  0
   35.4920   29.2070   32.0940 N   0  0  0  0  0  0  0  0  0  0  0  0
   35.1950   27.5340   33.2850 H   0  0  0  0  0  0  0  0  0  0  0  0
   37.6670   26.9570   29.8780 H   0  0  0  0  0  0  0  0  0  0  0  0
   36.0610   30.7190   30.5720 H   0  0  0  0  0  0  0  0  0  0  0  0
  2  7  1  0  0  0  0
  2  1  1  0  0  0  0
  3  2  2  0  0  0  0
  4  5  2  0  0  0  0
  4  3  1  0  0  0  0
  5  6  1  0  0  0  0
  6 10  1  0  0  0  0
  6  7  2  0  0  0  0
  7 11  1  0  0  0  0
  8  4  1  0  0  0  0
  9  5  1  0  0  0  0
 11 22  1  0  0  0  0
 12 11  1  0  0  0  0
 12 14  2  0  0  0  0
 13 12  1  0  0  0  0
 14 15  1  0  0  0  0
 15 16  1  0  0  0  0
 16 17  1  0  0  0  0
 16 18  2  0  0  0  0
 19 18  1  0  0  0  0
 19 20  1  0  0  0  0
 21 19  2  0  0  0  0
 22 15  2  0  0  0  0
 22 21  1  0  0  0  0
 23 29  1  0  0  0  0
 24  3  1  0  0  0  0
 24 23  2  0  0  0  0
 25 24  1  0  0  0  0
 26 25  2  0  0  0  0
 26 27  1  0  0  0  0
 27 28  2  0  0  0  0
 28 23  1  0  0  0  0
 30 25  1  0  0  0  0
 31 27  1  0  0  0  0
M  END
>  <minimizedAffinity>
-5.23024178

$$$$

 OpenBabel03272505013D

 31 34  0  0  0  0  0  0  0  0999 V2000
   38.0710   27.1770   33.3350 Cl  0  0  0  0  0  0  0  0  0  0  0  0
   37.0730   26.0170   32.4820 C   0  0  0  0  0  0  0  0  0  0  0  0
   37.3190   24.6860   32.6640 C   0  0  0  0  0  0  0  0  0  0  0  0
   36.4890   23.8200   31.9570 C   0  0  0  0  0  0  0  0  0  0  0  0
   35.4840   24.3160   31.1280 C   0  0  0  0  0  0  0  0  0  0  0  0
   35.2750   25.6660   30.9780 C   0  0  0  0  0  0  0  0  0  0  0  0
   36.0910   26.5270   31.6730 C   0  0  0  0  0  0  0  0  0  0  0  0
   36.5930   22.7380   32.0250 H   0  0  0  0  0  0  0  0  0  0  0  0
   34.8500   23.6260   30.5880 H   0  0  0  0  0  0  0  0  0  0  0  0
   34.4900   26.0280   30.3290 H   0  0  0  0  0  0  0  0  0  0  0  0
   35.8970   27.9440   31.5360 N   0  0  0  0  0  0  0  0  0  0  0  0
   35.1420   28.7090   32.3380 C   0  0  0  0  0  0  0  0  0  0  0  0
   34.5950   28.2990   33.1910 H   0  0  0  0  0  0  0  0  0  0  0  0
   35.2190   29.9680   31.8780 N   0  0  0  0  0  0  0  0  0  0  0  0
   36.0250   29.9670   30.7930 C   0  0  0  0  0  0  0  0  0  0  0  0
   36.4030   31.0390   29.9800 C   0  0  0  0  0  0  0  0  0  0  0  0
   36.0570   32.0480   30.1610 H   0  0  0  0  0  0  0  0  0  0  0  0
   37.2240   30.7080   28.9650 N   0  0  0  0  0  0  0  0  0  0  0  0
   37.6600   29.4570   28.7300 C   0  0  0  0  0  0  0  0  0  0  0  0
   38.3200   29.1930   27.9140 H   0  0  0  0  0  0  0  0  0  0  0  0
   37.2900   28.4110   29.5250 N   0  0  0  0  0  0  0  0  0  0  0  0
   36.4710   28.6670   30.5570 C   0  0  0  0  0  0  0  0  0  0  0  0
   38.1310   23.8900   34.8840 C   0  0  0  0  0  0  0  0  0  0  0  0
   38.3680   24.1460   33.5290 C   0  0  0  0  0  0  0  0  0  0  0  0
   39.6390   23.8760   33.0080 C   0  0  0  0  0  0  0  0  0  0  0  0
   40.5850   23.3740   33.8490 N   0  0  0  0  0  0  0  0  0  0  0  0
   40.3230   23.1370   35.1560 C   0  0  0  0  0  0  0  0  0  0  0  0
   39.0920   23.3960   35.6730 N   0  0  0  0  0  0  0  0  0  0  0  0
   37.1700   24.0880   35.3060 H   0  0  0  0  0  0  0  0  0  0  0  0
   39.7960   24.0810   31.9660 H   0  0  0  0  0  0  0  0  0  0  0  0
   41.2120   22.7430   35.6290 H   0  0  0  0  0  0  0  0  0  0  0  0
  2  3  1  0  0  0  0
  2  1  1  0  0  0  0
  3 24  1  0  0  0  0
  4  8  1  0  0  0  0
  4  3  2  0  0  0  0
  5  4  1  0  0  0  0
  6  5  2  0  0  0  0
  6  7  1  0  0  0  0
  7  2  2  0  0  0  0
  9  5  1  0  0  0  0
 10  6  1  0  0  0  0
 11  7  1  0  0  0  0
 11 12  1  0  0  0  0
 12 13  1  0  0  0  0
 14 12  2  0  0  0  0
 15 14  1  0  0  0  0
 16 17  1  0  0  0  0
 16 15  2  0  0  0  0
 18 16  1  0  0  0  0
 19 18  2  0  0  0  0
 19 21  1  0  0  0  0
 20 19  1  0  0  0  0
 21 22  2  0  0  0  0
 22 15  1  0  0  0  0
 22 11  1  0  0  0  0
 23 29  1  0  0  0  0
 23 28  1  0  0  0  0
 24 23  2  0  0  0  0
 25 24  1  0  0  0  0
 25 26  2  0  0  0  0
 26 27  1  0  0  0  0
 27 31  1  0  0  0  0
 27 28  2  0  0  0  0
 30 25  1  0  0  0  0
M  END
>  <minimizedAffinity>
-5.13277674

$$$$

 OpenBabel03272505013D

 31 34  0  0  0  0  0  0  0  0999 V2000
   39.0050   26.1100   34.6050 Cl  0  0  0  0  0  0  0  0  0  0  0  0
   38.3880   24.6590   33.8400 C   0  0  0  0  0  0  0  0  0  0  0  0
   38.1950   23.5480   34.6100 C   0  0  0  0  0  0  0  0  0  0  0  0
   37.7030   22.4310   33.9380 C   0  0  0  0  0  0  0  0  0  0  0  0
   37.4380   22.4830   32.5710 C   0  0  0  0  0  0  0  0  0  0  0  0
   37.6490   23.6260   31.8390 C   0  0  0  0  0  0  0  0  0  0  0  0
   38.1340   24.7320   32.4950 C   0  0  0  0  0  0  0  0  0  0  0  0
   37.5100   21.4900   34.4510 H   0  0  0  0  0  0  0  0  0  0  0  0
   37.0560   21.6040   32.0690 H   0  0  0  0  0  0  0  0  0  0  0  0
   37.4360   23.6430   30.7790 H   0  0  0  0  0  0  0  0  0  0  0  0
   38.3650   25.9430   31.7550 N   0  0  0  0  0  0  0  0  0  0  0  0
   39.4820   26.2390   31.0740 C   0  0  0  0  0  0  0  0  0  0  0  0
   40.3350   25.5590   31.0260 H   0  0  0  0  0  0  0  0  0  0  0  0
   39.3050   27.4510   30.5260 N   0  0  0  0  0  0  0  0  0  0  0  0
   38.0760   27.8930   30.8760 C   0  0  0  0  0  0  0  0  0  0  0  0
   37.4490   29.0970   30.5450 C   0  0  0  0  0  0  0  0  0  0  0  0
   37.9290   29.8450   29.9280 H   0  0  0  0  0  0  0  0  0  0  0  0
   36.2110   29.2410   31.0550 N   0  0  0  0  0  0  0  0  0  0  0  0
   35.6040   28.3170   31.8220 C   0  0  0  0  0  0  0  0  0  0  0  0
   34.6090   28.4350   32.2310 H   0  0  0  0  0  0  0  0  0  0  0  0
   36.2180   27.1420   32.1450 N   0  0  0  0  0  0  0  0  0  0  0  0
   37.4560   26.9300   31.6710 C   0  0  0  0  0  0  0  0  0  0  0  0
   37.5650   23.9910   36.9820 C   0  0  0  0  0  0  0  0  0  0  0  0
   38.4660   23.4740   36.0450 C   0  0  0  0  0  0  0  0  0  0  0  0
   39.6470   22.8790   36.5070 C   0  0  0  0  0  0  0  0  0  0  0  0
   39.8590   22.8330   37.8520 N   0  0  0  0  0  0  0  0  0  0  0  0
   38.9660   23.3420   38.7320 C   0  0  0  0  0  0  0  0  0  0  0  0
   37.8170   23.9220   38.2940 N   0  0  0  0  0  0  0  0  0  0  0  0
   36.6580   24.4490   36.6550 H   0  0  0  0  0  0  0  0  0  0  0  0
   40.3230   22.4910   35.7690 H   0  0  0  0  0  0  0  0  0  0  0  0
   39.3380   23.1960   39.7370 H   0  0  0  0  0  0  0  0  0  0  0  0
  2  1  1  0  0  0  0
  2  3  1  0  0  0  0
  3 24  1  0  0  0  0
  4  8  1  0  0  0  0
  4  3  2  0  0  0  0
  5  4  1  0  0  0  0
  6  7  1  0  0  0  0
  6  5  2  0  0  0  0
  7  2  2  0  0  0  0
  9  5  1  0  0  0  0
 10  6  1  0  0  0  0
 11  7  1  0  0  0  0
 12 11  1  0  0  0  0
 13 12  1  0  0  0  0
 14 15  1  0  0  0  0
 14 12  2  0  0  0  0
 15 22  1  0  0  0  0
 16 15  2  0  0  0  0
 16 18  1  0  0  0  0
 17 16  1  0  0  0  0
 18 19  2  0  0  0  0
 19 21  1  0  0  0  0
 19 20  1  0  0  0  0
 22 11  1  0  0  0  0
 22 21  2  0  0  0  0
 23 28  1  0  0  0  0
 24 25  1  0  0  0  0
 24 23  2  0  0  0  0
 25 26  2  0  0  0  0
 26 27  1  0  0  0  0
 27 31  1  0  0  0  0
 28 27  2  0  0  0  0
 29 23  1  0  0  0  0
 30 25  1  0  0  0  0
M  END
>  <minimizedAffinity>
-5.06998158

$$$$

 OpenBabel03272505013D

 31 34  0  0  0  0  0  0  0  0999 V2000
   40.6080   24.7800   33.9100 Cl  0  0  0  0  0  0  0  0  0  0  0  0
   39.7390   24.2720   35.3450 C   0  0  0  0  0  0  0  0  0  0  0  0
   40.3350   23.3730   36.1840 C   0  0  0  0  0  0  0  0  0  0  0  0
   39.5890   23.0130   37.3030 C   0  0  0  0  0  0  0  0  0  0  0  0
   38.3220   23.5550   37.5190 C   0  0  0  0  0  0  0  0  0  0  0  0
   37.7660   24.4570   36.6450 C   0  0  0  0  0  0  0  0  0  0  0  0
   38.4970   24.8170   35.5370 C   0  0  0  0  0  0  0  0  0  0  0  0
   39.9620   22.3040   38.0410 H   0  0  0  0  0  0  0  0  0  0  0  0
   37.7600   23.2610   38.3960 H   0  0  0  0  0  0  0  0  0  0  0  0
   36.7820   24.8640   36.8330 H   0  0  0  0  0  0  0  0  0  0  0  0
   37.9400   25.7590   34.6040 N   0  0  0  0  0  0  0  0  0  0  0  0
   37.9090   27.0890   34.7650 C   0  0  0  0  0  0  0  0  0  0  0  0
   38.3200   27.5810   35.6510 H   0  0  0  0  0  0  0  0  0  0  0  0
   37.3120   27.6090   33.6820 N   0  0  0  0  0  0  0  0  0  0  0  0
   36.9790   26.5880   32.8590 C   0  0  0  0  0  0  0  0  0  0  0  0
   36.3400   26.6350   31.6170 C   0  0  0  0  0  0  0  0  0  0  0  0
   36.0310   27.5680   31.1650 H   0  0  0  0  0  0  0  0  0  0  0  0
   36.1490   25.4330   31.0420 N   0  0  0  0  0  0  0  0  0  0  0  0
   36.5310   24.2670   31.5950 C   0  0  0  0  0  0  0  0  0  0  0  0
   36.3760   23.3020   31.1320 H   0  0  0  0  0  0  0  0  0  0  0  0
   37.1540   24.2230   32.8090 N   0  0  0  0  0  0  0  0  0  0  0  0
   37.3780   25.3860   33.4410 C   0  0  0  0  0  0  0  0  0  0  0  0
   42.8100   23.4070   36.4850 C   0  0  0  0  0  0  0  0  0  0  0  0
   41.6600   22.7940   35.9740 C   0  0  0  0  0  0  0  0  0  0  0  0
   41.8020   21.6040   35.2500 C   0  0  0  0  0  0  0  0  0  0  0  0
   43.0560   21.1010   35.0790 N   0  0  0  0  0  0  0  0  0  0  0  0
   44.1470   21.7190   35.5880 C   0  0  0  0  0  0  0  0  0  0  0  0
   44.0220   22.8750   36.2930 N   0  0  0  0  0  0  0  0  0  0  0  0
   42.7290   24.3150   37.0420 H   0  0  0  0  0  0  0  0  0  0  0  0
   40.9060   21.1530   34.8670 H   0  0  0  0  0  0  0  0  0  0  0  0
   45.0280   21.1460   35.3320 H   0  0  0  0  0  0  0  0  0  0  0  0
  1  2  1  0  0  0  0
  2  7  2  0  0  0  0
  2  3  1  0  0  0  0
  3  4  2  0  0  0  0
  4  5  1  0  0  0  0
  4  8  1  0  0  0  0
  5  9  1  0  0  0  0
  6 10  1  0  0  0  0
  6  5  2  0  0  0  0
  7  6  1  0  0  0  0
 11 12  1  0  0  0  0
 11  7  1  0  0  0  0
 12 13  1  0  0  0  0
 14 12  2  0  0  0  0
 15 22  1  0  0  0  0
 15 14  1  0  0  0  0
 16 15  2  0  0  0  0
 17 16  1  0  0  0  0
 18 19  2  0  0  0  0
 18 16  1  0  0  0  0
 19 21  1  0  0  0  0
 20 19  1  0  0  0  0
 21 22  2  0  0  0  0
 22 11  1  0  0  0  0
 23 29  1  0  0  0  0
 24  3  1  0  0  0  0
 24 23  2  0  0  0  0
 25 24  1  0  0  0  0
 26 25  2  0  0  0  0
 26 27  1  0  0  0  0
 27 28  2  0  0  0  0
 28 23  1  0  0  0  0
 30 25  1  0  0  0  0
 31 27  1  0  0  0  0
M  END
>  <minimizedAffinity>
-5.00681305

$$$$

 OpenBabel03272505013D

 31 34  0  0  0  0  0  0  0  0999 V2000
   38.7200   27.2000   33.9410 Cl  0  0  0  0  0  0  0  0  0  0  0  0
   37.6380   26.1990   32.9930 C   0  0  0  0  0  0  0  0  0  0  0  0
   36.6300   26.8050   32.2980 C   0  0  0  0  0  0  0  0  0  0  0  0
   35.8090   25.9500   31.5660 C   0  0  0  0  0  0  0  0  0  0  0  0
   36.0330   24.5740   31.5670 C   0  0  0  0  0  0  0  0  0  0  0  0
   37.0620   24.0120   32.2830 C   0  0  0  0  0  0  0  0  0  0  0  0
   37.8770   24.8500   33.0080 C   0  0  0  0  0  0  0  0  0  0  0  0
   34.9730   26.3210   30.9740 H   0  0  0  0  0  0  0  0  0  0  0  0
   35.3830   23.9290   30.9910 H   0  0  0  0  0  0  0  0  0  0  0  0
   37.2160   22.9420   32.2690 H   0  0  0  0  0  0  0  0  0  0  0  0
   38.9620   24.2900   33.7670 N   0  0  0  0  0  0  0  0  0  0  0  0
   40.1970   24.0530   33.3020 C   0  0  0  0  0  0  0  0  0  0  0  0
   40.4870   24.2740   32.2720 H   0  0  0  0  0  0  0  0  0  0  0  0
   40.9110   23.5320   34.3120 N   0  0  0  0  0  0  0  0  0  0  0  0
   40.1050   23.4530   35.3950 C   0  0  0  0  0  0  0  0  0  0  0  0
   40.4000   22.9770   36.6760 C   0  0  0  0  0  0  0  0  0  0  0  0
   41.3790   22.6000   36.9370 H   0  0  0  0  0  0  0  0  0  0  0  0
   39.3700   23.0310   37.5420 N   0  0  0  0  0  0  0  0  0  0  0  0
   38.1490   23.4980   37.2270 C   0  0  0  0  0  0  0  0  0  0  0  0
   37.3230   23.5400   37.9250 H   0  0  0  0  0  0  0  0  0  0  0  0
   37.8620   23.9620   35.9760 N   0  0  0  0  0  0  0  0  0  0  0  0
   38.8420   23.9380   35.0590 C   0  0  0  0  0  0  0  0  0  0  0  0
   35.6800   28.8700   33.3230 C   0  0  0  0  0  0  0  0  0  0  0  0
   36.3800   28.2450   32.2840 C   0  0  0  0  0  0  0  0  0  0  0  0
   36.8410   29.0290   31.2190 C   0  0  0  0  0  0  0  0  0  0  0  0
   36.5840   30.3660   31.2480 N   0  0  0  0  0  0  0  0  0  0  0  0
   35.9050   30.9400   32.2690 C   0  0  0  0  0  0  0  0  0  0  0  0
   35.4530   30.1880   33.3080 N   0  0  0  0  0  0  0  0  0  0  0  0
   35.3190   28.2940   34.1460 H   0  0  0  0  0  0  0  0  0  0  0  0
   37.3740   28.5260   30.4350 H   0  0  0  0  0  0  0  0  0  0  0  0
   35.8200   32.0020   32.0830 H   0  0  0  0  0  0  0  0  0  0  0  0
  2  7  1  0  0  0  0
  2  1  1  0  0  0  0
  3  2  2  0  0  0  0
  4  5  2  0  0  0  0
  4  3  1  0  0  0  0
  5  6  1  0  0  0  0
  6  7  2  0  0  0  0
  7 11  1  0  0  0  0
  8  4  1  0  0  0  0
  9  5  1  0  0  0  0
 10  6  1  0  0  0  0
 11 22  1  0  0  0  0
 12 11  1  0  0  0  0
 12 14  2  0  0  0  0
 13 12  1  0  0  0  0
 14 15  1  0  0  0  0
 15 16  1  0  0  0  0
 16 17  1  0  0  0  0
 16 18  2  0  0  0  0
 19 18  1  0  0  0  0
 19 20  1  0  0  0  0
 21 19  2  0  0  0  0
 22 15  2  0  0  0  0
 22 21  1  0  0  0  0
 23 29  1  0  0  0  0
 24  3  1  0  0  0  0
 24 23  2  0  0  0  0
 25 26  2  0  0  0  0
 25 24  1  0  0  0  0
 26 27  1  0  0  0  0
 27 28  2  0  0  0  0
 28 23  1  0  0  0  0
 30 25  1  0  0  0  0
 31 27  1  0  0  0  0
M  END
>  <minimizedAffinity>
-4.98954535

$$$$

 OpenBabel03272505013D

 31 34  0  0  0  0  0  0  0  0999 V2000
   36.4410   27.7410   34.8480 Cl  0  0  0  0  0  0  0  0  0  0  0  0
   36.2180   28.5800   33.3250 C   0  0  0  0  0  0  0  0  0  0  0  0
   35.6200   29.8080   33.3390 C   0  0  0  0  0  0  0  0  0  0  0  0
   35.4750   30.4170   32.0950 C   0  0  0  0  0  0  0  0  0  0  0  0
   35.9230   29.7860   30.9360 C   0  0  0  0  0  0  0  0  0  0  0  0
   36.5200   28.5490   30.9750 C   0  0  0  0  0  0  0  0  0  0  0  0
   36.6660   27.9410   32.1990 C   0  0  0  0  0  0  0  0  0  0  0  0
   35.0120   31.3970   31.9850 H   0  0  0  0  0  0  0  0  0  0  0  0
   35.8010   30.2780   29.9800 H   0  0  0  0  0  0  0  0  0  0  0  0
   36.8600   28.0790   30.0630 H   0  0  0  0  0  0  0  0  0  0  0  0
   37.2870   26.6460   32.2710 N   0  0  0  0  0  0  0  0  0  0  0  0
   36.6500   25.4700   32.1770 C   0  0  0  0  0  0  0  0  0  0  0  0
   35.5690   25.4010   32.0350 H   0  0  0  0  0  0  0  0  0  0  0  0
   37.5750   24.5050   32.2920 N   0  0  0  0  0  0  0  0  0  0  0  0
   38.7790   25.0980   32.4540 C   0  0  0  0  0  0  0  0  0  0  0  0
   40.0350   24.5050   32.6160 C   0  0  0  0  0  0  0  0  0  0  0  0
   40.1660   23.4310   32.6240 H   0  0  0  0  0  0  0  0  0  0  0  0
   41.0500   25.3780   32.7560 N   0  0  0  0  0  0  0  0  0  0  0  0
   40.8980   26.7140   32.7460 C   0  0  0  0  0  0  0  0  0  0  0  0
   41.7150   27.4140   32.8600 H   0  0  0  0  0  0  0  0  0  0  0  0
   39.6710   27.2920   32.5890 N   0  0  0  0  0  0  0  0  0  0  0  0
   38.6110   26.4810   32.4440 C   0  0  0  0  0  0  0  0  0  0  0  0
   35.9950   31.2880   35.3110 C   0  0  0  0  0  0  0  0  0  0  0  0
   35.1430   30.4860   34.5430 C   0  0  0  0  0  0  0  0  0  0  0  0
   33.8120   30.3400   34.9520 C   0  0  0  0  0  0  0  0  0  0  0  0
   33.4110   30.9900   36.0800 N   0  0  0  0  0  0  0  0  0  0  0  0
   34.2620   31.7590   36.8000 C   0  0  0  0  0  0  0  0  0  0  0  0
   35.5560   31.9080   36.4120 N   0  0  0  0  0  0  0  0  0  0  0  0
   37.0150   31.4160   35.0190 H   0  0  0  0  0  0  0  0  0  0  0  0
   33.1780   29.7190   34.3480 H   0  0  0  0  0  0  0  0  0  0  0  0
   33.7320   32.1740   37.6460 H   0  0  0  0  0  0  0  0  0  0  0  0
  2  3  1  0  0  0  0
  2  1  1  0  0  0  0
  3 24  1  0  0  0  0
  4  3  2  0  0  0  0
  5  6  2  0  0  0  0
  5  4  1  0  0  0  0
  6  7  1  0  0  0  0
  7 11  1  0  0  0  0
  7  2  2  0  0  0  0
  8  4  1  0  0  0  0
  9  5  1  0  0  0  0
 10  6  1  0  0  0  0
 11 22  1  0  0  0  0
 12 11  1  0  0  0  0
 12 14  2  0  0  0  0
 13 12  1  0  0  0  0
 14 15  1  0  0  0  0
 15 16  1  0  0  0  0
 16 17  1  0  0  0  0
 16 18  2  0  0  0  0
 19 18  1  0  0  0  0
 19 20  1  0  0  0  0
 21 19  2  0  0  0  0
 22 15  2  0  0  0  0
 22 21  1  0  0  0  0
 23 28  1  0  0  0  0
 24 25  1  0  0  0  0
 24 23  2  0  0  0  0
 25 26  2  0  0  0  0
 26 27  1  0  0  0  0
 27 31  1  0  0  0  0
 28 27  2  0  0  0  0
 29 23  1  0  0  0  0
 30 25  1  0  0  0  0
M  END
>  <minimizedAffinity>
-4.89698362

$$$$

 OpenBabel03272505013D

 31 34  0  0  0  0  0  0  0  0999 V2000
   39.7200   25.0650   32.2740 Cl  0  0  0  0  0  0  0  0  0  0  0  0
   38.9860   25.9650   33.5860 C   0  0  0  0  0  0  0  0  0  0  0  0
   37.6310   26.1430   33.5770 C   0  0  0  0  0  0  0  0  0  0  0  0
   37.1140   26.8670   34.6490 C   0  0  0  0  0  0  0  0  0  0  0  0
   37.9550   27.3600   35.6460 C   0  0  0  0  0  0  0  0  0  0  0  0
   39.3130   27.1540   35.6100 C   0  0  0  0  0  0  0  0  0  0  0  0
   39.8300   26.4410   34.5550 C   0  0  0  0  0  0  0  0  0  0  0  0
   36.0490   27.0710   34.7460 H   0  0  0  0  0  0  0  0  0  0  0  0
   37.5320   27.9200   36.4700 H   0  0  0  0  0  0  0  0  0  0  0  0
   39.9450   27.5470   36.3950 H   0  0  0  0  0  0  0  0  0  0  0  0
   41.2470   26.2090   34.4910 N   0  0  0  0  0  0  0  0  0  0  0  0
   42.1470   27.0300   33.9290 C   0  0  0  0  0  0  0  0  0  0  0  0
   41.8620   27.9740   33.4580 H   0  0  0  0  0  0  0  0  0  0  0  0
   43.3530   26.4600   34.0750 N   0  0  0  0  0  0  0  0  0  0  0  0
   43.1850   25.2890   34.7300 C   0  0  0  0  0  0  0  0  0  0  0  0
   44.1480   24.3490   35.1070 C   0  0  0  0  0  0  0  0  0  0  0  0
   45.1990   24.4860   34.8940 H   0  0  0  0  0  0  0  0  0  0  0  0
   43.6560   23.2740   35.7520 N   0  0  0  0  0  0  0  0  0  0  0  0
   42.3500   23.0940   36.0230 C   0  0  0  0  0  0  0  0  0  0  0  0
   41.9570   22.2290   36.5410 H   0  0  0  0  0  0  0  0  0  0  0  0
   41.4110   24.0130   35.6530 N   0  0  0  0  0  0  0  0  0  0  0  0
   41.8300   25.1110   35.0050 C   0  0  0  0  0  0  0  0  0  0  0  0
   35.9810   26.5010   31.7410 C   0  0  0  0  0  0  0  0  0  0  0  0
   36.7340   25.6340   32.5420 C   0  0  0  0  0  0  0  0  0  0  0  0
   36.6110   24.2540   32.3330 C   0  0  0  0  0  0  0  0  0  0  0  0
   35.7640   23.8240   31.3580 N   0  0  0  0  0  0  0  0  0  0  0  0
   35.0510   24.6910   30.6000 C   0  0  0  0  0  0  0  0  0  0  0  0
   35.1620   26.0320   30.7940 N   0  0  0  0  0  0  0  0  0  0  0  0
   36.0580   27.5570   31.8800 H   0  0  0  0  0  0  0  0  0  0  0  0
   37.1980   23.6090   32.9600 H   0  0  0  0  0  0  0  0  0  0  0  0
   34.4500   24.1320   29.8960 H   0  0  0  0  0  0  0  0  0  0  0  0
  1  2  1  0  0  0  0
  2  7  1  0  0  0  0
  3  2  2  0  0  0  0
  3  4  1  0  0  0  0
  4  8  1  0  0  0  0
  4  5  2  0  0  0  0
  5  9  1  0  0  0  0
  6  5  1  0  0  0  0
  6 10  1  0  0  0  0
  7  6  2  0  0  0  0
 11  7  1  0  0  0  0
 11 22  1  0  0  0  0
 12 14  2  0  0  0  0
 12 11  1  0  0  0  0
 13 12  1  0  0  0  0
 14 15  1  0  0  0  0
 15 22  2  0  0  0  0
 15 16  1  0  0  0  0
 16 18  2  0  0  0  0
 17 16  1  0  0  0  0
 18 19  1  0  0  0  0
 19 20  1  0  0  0  0
 21 19  2  0  0  0  0
 22 21  1  0  0  0  0
 23 29  1  0  0  0  0
 23 24  1  0  0  0  0
 24  3  1  0  0  0  0
 25 24  2  0  0  0  0
 25 30  1  0  0  0  0
 26 25  1  0  0  0  0
 27 28  1  0  0  0  0
 27 26  2  0  0  0  0
 28 23  2  0  0  0  0
 31 27  1  0  0  0  0
M  END
>  <minimizedAffinity>
-4.8850708

$$$$

 OpenBabel03272505013D

 31 34  0  0  0  0  0  0  0  0999 V2000
   38.4470   27.1900   33.0430 Cl  0  0  0  0  0  0  0  0  0  0  0  0
   37.3750   25.9650   32.3950 C   0  0  0  0  0  0  0  0  0  0  0  0
   37.4990   24.6830   32.8510 C   0  0  0  0  0  0  0  0  0  0  0  0
   36.6150   23.7620   32.2950 C   0  0  0  0  0  0  0  0  0  0  0  0
   35.6810   24.1580   31.3400 C   0  0  0  0  0  0  0  0  0  0  0  0
   35.5950   25.4620   30.9130 C   0  0  0  0  0  0  0  0  0  0  0  0
   36.4640   26.3770   31.4580 C   0  0  0  0  0  0  0  0  0  0  0  0
   36.6220   22.7110   32.5820 H   0  0  0  0  0  0  0  0  0  0  0  0
   35.0040   23.4260   30.9200 H   0  0  0  0  0  0  0  0  0  0  0  0
   34.8620   25.7460   30.1710 H   0  0  0  0  0  0  0  0  0  0  0  0
   36.3980   27.7490   31.0320 N   0  0  0  0  0  0  0  0  0  0  0  0
   37.0700   28.2770   29.9980 C   0  0  0  0  0  0  0  0  0  0  0  0
   37.7450   27.6840   29.3760 H   0  0  0  0  0  0  0  0  0  0  0  0
   36.7390   29.5750   29.9290 N   0  0  0  0  0  0  0  0  0  0  0  0
   35.8630   29.8360   30.9250 C   0  0  0  0  0  0  0  0  0  0  0  0
   35.2410   31.0450   31.2520 C   0  0  0  0  0  0  0  0  0  0  0  0
   35.4200   31.9530   30.6920 H   0  0  0  0  0  0  0  0  0  0  0  0
   34.4120   30.9770   32.3110 N   0  0  0  0  0  0  0  0  0  0  0  0
   34.1830   29.8530   33.0140 C   0  0  0  0  0  0  0  0  0  0  0  0
   33.5160   29.8010   33.8650 H   0  0  0  0  0  0  0  0  0  0  0  0
   34.7910   28.6740   32.6930 N   0  0  0  0  0  0  0  0  0  0  0  0
   35.6320   28.6670   31.6470 C   0  0  0  0  0  0  0  0  0  0  0  0
   38.1820   24.3060   35.2200 C   0  0  0  0  0  0  0  0  0  0  0  0
   38.4720   24.2480   33.8520 C   0  0  0  0  0  0  0  0  0  0  0  0
   39.7220   23.7620   33.4520 C   0  0  0  0  0  0  0  0  0  0  0  0
   40.5980   23.3680   34.4180 N   0  0  0  0  0  0  0  0  0  0  0  0
   40.2860   23.4370   35.7330 C   0  0  0  0  0  0  0  0  0  0  0  0
   39.0740   23.9070   36.1330 N   0  0  0  0  0  0  0  0  0  0  0  0
   37.2350   24.6730   35.5510 H   0  0  0  0  0  0  0  0  0  0  0  0
   39.9210   23.7270   32.3970 H   0  0  0  0  0  0  0  0  0  0  0  0
   41.1230   23.0740   36.3140 H   0  0  0  0  0  0  0  0  0  0  0  0
  2  3  1  0  0  0  0
  2  1  1  0  0  0  0
  3 24  1  0  0  0  0
  4  8  1  0  0  0  0
  4  3  2  0  0  0  0
  5  4  1  0  0  0  0
  6  5  2  0  0  0  0
  6  7  1  0  0  0  0
  7  2  2  0  0  0  0
  9  5  1  0  0  0  0
 10  6  1  0  0  0  0
 11  7  1  0  0  0  0
 11 22  1  0  0  0  0
 12 11  1  0  0  0  0
 13 12  1  0  0  0  0
 14 12  2  0  0  0  0
 14 15  1  0  0  0  0
 15 16  2  0  0  0  0
 15 22  1  0  0  0  0
 16 18  1  0  0  0  0
 17 16  1  0  0  0  0
 18 19  2  0  0  0  0
 19 20  1  0  0  0  0
 21 19  1  0  0  0  0
 22 21  2  0  0  0  0
 23 29  1  0  0  0  0
 23 28  1  0  0  0  0
 24 23  2  0  0  0  0
 25 24  1  0  0  0  0
 25 26  2  0  0  0  0
 26 27  1  0  0  0  0
 27 28  2  0  0  0  0
 27 31  1  0  0  0  0
 30 25  1  0  0  0  0
M  END
>  <minimizedAffinity>
-4.88472557

$$$$
