
 OpenBabel03272506093D

 47 51  0  0  0  0  0  0  0  0999 V2000
   34.9770   28.4360   48.8820 C   0  0  0  0  0  0  0  0  0  0  0  0
   35.8350   28.4420   48.1780 H   0  0  0  0  0  0  0  0  0  0  0  0
   35.1300   27.5550   49.5530 H   0  0  0  0  0  0  0  0  0  0  0  0
   33.6850   28.2450   48.1220 C   0  0  0  0  0  0  0  0  0  0  0  0
   33.7020   28.3630   46.6780 C   0  0  0  0  0  0  0  0  0  0  0  0
   31.9930   28.0620   46.3100 S   0  0  0  0  0  0  0  0  0  0  0  0
   31.4820   27.8210   48.1060 C   0  0  0  0  0  0  0  0  0  0  0  0
   32.5310   27.9810   48.6450 N   0  0  0  0  0  0  0  0  0  0  0  0
   30.1880   27.5220   48.6990 N   0  0  0  0  0  0  0  0  0  0  0  0
   29.2750   26.7900   47.8830 C   0  0  0  0  0  0  0  0  0  0  0  0
   27.8690   26.8030   48.3680 C   0  0  0  0  0  0  0  0  0  0  0  0
   27.6400   27.7810   49.4330 N   0  0  0  0  0  0  0  0  0  0  0  0
   28.6010   27.4170   50.4760 C   0  0  0  0  0  0  0  0  0  0  0  0
   29.9250   27.9810   50.0420 C   0  0  0  0  0  0  0  0  0  0  0  0
   34.5270   28.5710   46.0740 H   0  0  0  0  0  0  0  0  0  0  0  0
   29.6470   25.7670   47.6490 H   0  0  0  0  0  0  0  0  0  0  0  0
   29.2650   27.2990   46.8740 H   0  0  0  0  0  0  0  0  0  0  0  0
   27.1180   27.0620   47.5800 H   0  0  0  0  0  0  0  0  0  0  0  0
   27.6240   25.7760   48.7110 H   0  0  0  0  0  0  0  0  0  0  0  0
   26.6980   27.5540   49.8470 H   0  0  0  0  0  0  0  0  0  0  0  0
   28.2910   27.7100   51.4770 H   0  0  0  0  0  0  0  0  0  0  0  0
   28.7230   26.2980   50.4990 H   0  0  0  0  0  0  0  0  0  0  0  0
   29.8230   29.0890   50.0140 H   0  0  0  0  0  0  0  0  0  0  0  0
   30.7690   27.6820   50.6960 H   0  0  0  0  0  0  0  0  0  0  0  0
   34.9480   29.6850   49.6940 C   0  0  0  0  0  0  0  0  0  0  0  0
   35.1670   29.4750   50.7590 H   0  0  0  0  0  0  0  0  0  0  0  0
   33.9830   30.1780   49.5220 H   0  0  0  0  0  0  0  0  0  0  0  0
   37.4570   32.4200   49.5680 C   0  0  0  0  0  0  0  0  0  0  0  0
   38.0870   32.2210   48.3500 C   0  0  0  0  0  0  0  0  0  0  0  0
   37.6480   31.1470   47.5770 C   0  0  0  0  0  0  0  0  0  0  0  0
   36.6480   30.3570   48.0290 N   0  0  0  0  0  0  0  0  0  0  0  0
   36.0720   30.6070   49.2350 C   0  0  0  0  0  0  0  0  0  0  0  0
   36.4770   31.6200   49.9760 N   0  0  0  0  0  0  0  0  0  0  0  0
   37.8490   33.2690   50.1140 H   0  0  0  0  0  0  0  0  0  0  0  0
   38.8880   32.7740   47.8830 H   0  0  0  0  0  0  0  0  0  0  0  0
   38.1230   30.7230   46.2910 N   0  0  0  0  0  0  0  0  0  0  0  0
   39.4070   30.4680   45.9060 C   0  0  0  0  0  0  0  0  0  0  0  0
   40.2410   30.5720   46.5880 H   0  0  0  0  0  0  0  0  0  0  0  0
   39.3490   30.0980   44.6040 N   0  0  0  0  0  0  0  0  0  0  0  0
   38.0760   30.1160   44.1740 C   0  0  0  0  0  0  0  0  0  0  0  0
   37.4290   29.8450   42.9840 C   0  0  0  0  0  0  0  0  0  0  0  0
   38.0230   29.5320   42.1330 H   0  0  0  0  0  0  0  0  0  0  0  0
   36.0720   29.9690   42.8890 N   0  0  0  0  0  0  0  0  0  0  0  0
   35.3360   30.3610   43.9620 C   0  0  0  0  0  0  0  0  0  0  0  0
   34.2500   30.4370   43.8050 H   0  0  0  0  0  0  0  0  0  0  0  0
   35.9320   30.6350   45.1400 N   0  0  0  0  0  0  0  0  0  0  0  0
   37.2860   30.5120   45.2390 C   0  0  0  0  0  0  0  0  0  0  0  0
  1  3  1  0  0  0  0
  1 25  1  0  0  0  0
  2  1  1  0  0  0  0
  4  8  1  0  0  0  0
  4  1  1  0  0  0  0
  5  4  2  0  0  0  0
  6  5  1  0  0  0  0
  6  7  1  0  0  0  0
  7  8  2  0  0  0  0
  7  9  1  0  0  0  0
  9 14  1  0  0  0  0
 10 11  1  0  0  0  0
 10  9  1  0  0  0  0
 11 19  1  0  0  0  0
 11 12  1  0  0  0  0
 12 20  1  0  0  0  0
 12 13  1  0  0  0  0
 13 22  1  0  0  0  0
 13 21  1  0  0  0  0
 14 13  1  0  0  0  0
 14 24  1  0  0  0  0
 15  5  1  0  0  0  0
 16 10  1  0  0  0  0
 17 10  1  0  0  0  0
 18 11  1  0  0  0  0
 23 14  1  0  0  0  0
 25 26  1  0  0  0  0
 27 25  1  0  0  0  0
 28 33  1  0  0  0  0
 28 34  1  0  0  0  0
 29 28  2  0  0  0  0
 30 31  2  0  0  0  0
 30 29  1  0  0  0  0
 31 32  1  0  0  0  0
 32 25  1  0  0  0  0
 32 33  2  0  0  0  0
 35 29  1  0  0  0  0
 36 30  1  0  0  0  0
 37 36  1  0  0  0  0
 37 38  1  0  0  0  0
 39 37  2  0  0  0  0
 40 39  1  0  0  0  0
 40 47  1  0  0  0  0
 41 40  2  0  0  0  0
 42 41  1  0  0  0  0
 43 41  1  0  0  0  0
 43 44  2  0  0  0  0
 44 46  1  0  0  0  0
 45 44  1  0  0  0  0
 46 47  2  0  0  0  0
 47 36  1  0  0  0  0
M  END
>  <minimizedAffinity>
-6.33751965

>  <minimizedRMSD>
1.46933091

$$$$
