
 OpenBabel03272505263D

 34 37  0  0  0  0  0  0  0  0999 V2000
   37.3920   31.1630   46.9650 N   0  0  0  0  0  0  0  0  0  0  0  0
   36.7720   30.8710   45.7890 C   0  0  0  0  0  0  0  0  0  0  0  0
   37.2300   31.3550   44.5720 C   0  0  0  0  0  0  0  0  0  0  0  0
   38.3700   32.1680   44.5950 C   0  0  0  0  0  0  0  0  0  0  0  0
   38.8250   32.6320   43.5240 O   0  0  0  0  0  0  0  0  0  0  0  0
   38.9940   32.4640   45.7760 N   0  0  0  0  0  0  0  0  0  0  0  0
   38.4590   31.9380   46.8830 C   0  0  0  0  0  0  0  0  0  0  0  0
   39.0530   32.2290   47.9440 O   0  0  0  0  0  0  0  0  0  0  0  0
   35.8860   30.2300   45.8250 H   0  0  0  0  0  0  0  0  0  0  0  0
   36.5790   31.0480   43.3420 N   0  0  0  0  0  0  0  0  0  0  0  0
   36.6950   29.8990   42.6540 C   0  0  0  0  0  0  0  0  0  0  0  0
   37.3000   29.0460   42.9420 H   0  0  0  0  0  0  0  0  0  0  0  0
   35.9630   29.9260   41.5520 N   0  0  0  0  0  0  0  0  0  0  0  0
   35.3310   31.1100   41.4740 C   0  0  0  0  0  0  0  0  0  0  0  0
   34.4630   31.6680   40.5630 C   0  0  0  0  0  0  0  0  0  0  0  0
   34.1790   31.0890   39.6920 H   0  0  0  0  0  0  0  0  0  0  0  0
   34.0220   32.9080   40.8210 N   0  0  0  0  0  0  0  0  0  0  0  0
   34.3910   33.6110   41.9150 C   0  0  0  0  0  0  0  0  0  0  0  0
   34.0010   34.6270   42.0830 H   0  0  0  0  0  0  0  0  0  0  0  0
   35.2520   33.0490   42.8130 N   0  0  0  0  0  0  0  0  0  0  0  0
   35.7330   31.8020   42.6140 C   0  0  0  0  0  0  0  0  0  0  0  0
   37.2730   29.6000   50.3300 C   0  0  0  0  0  0  0  0  0  0  0  0
   37.7480   30.0920   49.1070 C   0  0  0  0  0  0  0  0  0  0  0  0
   36.9150   30.6650   48.1820 C   0  0  0  0  0  0  0  0  0  0  0  0
   35.5940   30.7440   48.4870 N   0  0  0  0  0  0  0  0  0  0  0  0
   35.1010   30.2730   49.6660 C   0  0  0  0  0  0  0  0  0  0  0  0
   35.9340   29.7050   50.5830 N   0  0  0  0  0  0  0  0  0  0  0  0
   37.8560   29.1440   51.0960 H   0  0  0  0  0  0  0  0  0  0  0  0
   38.8070   29.9310   49.0450 H   0  0  0  0  0  0  0  0  0  0  0  0
   34.0420   30.3910   49.7910 H   0  0  0  0  0  0  0  0  0  0  0  0
   40.1730   33.3030   45.8000 C   0  0  0  0  0  0  0  0  0  0  0  0
   40.0720   34.2680   44.8420 F   0  0  0  0  0  0  0  0  0  0  0  0
   41.3390   32.6040   45.5380 F   0  0  0  0  0  0  0  0  0  0  0  0
   40.2500   33.9340   47.0350 F   0  0  0  0  0  0  0  0  0  0  0  0
  1 24  1  0  0  0  0
  2  9  1  0  0  0  0
  2  1  1  0  0  0  0
  3  4  1  0  0  0  0
  3  2  2  0  0  0  0
  4  6  1  0  0  0  0
  5  4  2  0  0  0  0
  6 31  1  0  0  0  0
  6  7  1  0  0  0  0
  7  1  1  0  0  0  0
  7  8  2  0  0  0  0
 10  3  1  0  0  0  0
 11 12  1  0  0  0  0
 11 10  1  0  0  0  0
 13 11  2  0  0  0  0
 14 13  1  0  0  0  0
 14 21  1  0  0  0  0
 15 17  1  0  0  0  0
 15 14  2  0  0  0  0
 16 15  1  0  0  0  0
 17 18  2  0  0  0  0
 18 19  1  0  0  0  0
 18 20  1  0  0  0  0
 21 20  2  0  0  0  0
 21 10  1  0  0  0  0
 22 27  1  0  0  0  0
 22 28  1  0  0  0  0
 23 22  2  0  0  0  0
 24 25  2  0  0  0  0
 24 23  1  0  0  0  0
 25 26  1  0  0  0  0
 26 30  1  0  0  0  0
 26 27  2  0  0  0  0
 29 23  1  0  0  0  0
 31 34  1  0  0  0  0
 32 31  1  0  0  0  0
 33 31  1  0  0  0  0
M  END
>  <minimizedAffinity>
-6.45120955

>  <minimizedRMSD>
0.271837771

$$$$
