
 OpenBabel03272505263D

 34 37  0  0  0  0  0  0  0  0999 V2000
   37.3820   31.0660   47.1200 N   0  0  0  0  0  0  0  0  0  0  0  0
   36.8030   30.7330   45.9350 C   0  0  0  0  0  0  0  0  0  0  0  0
   37.2730   31.2140   44.7220 C   0  0  0  0  0  0  0  0  0  0  0  0
   38.3830   32.0670   44.7590 C   0  0  0  0  0  0  0  0  0  0  0  0
   38.8490   32.5290   43.6920 O   0  0  0  0  0  0  0  0  0  0  0  0
   38.9680   32.4030   45.9500 N   0  0  0  0  0  0  0  0  0  0  0  0
   38.4230   31.8770   47.0520 C   0  0  0  0  0  0  0  0  0  0  0  0
   38.9800   32.2050   48.1220 O   0  0  0  0  0  0  0  0  0  0  0  0
   35.9390   30.0620   45.9600 H   0  0  0  0  0  0  0  0  0  0  0  0
   36.6650   30.8640   43.4820 N   0  0  0  0  0  0  0  0  0  0  0  0
   35.5860   31.4530   42.9400 C   0  0  0  0  0  0  0  0  0  0  0  0
   35.0280   32.2780   43.3730 H   0  0  0  0  0  0  0  0  0  0  0  0
   35.2680   30.8990   41.7820 N   0  0  0  0  0  0  0  0  0  0  0  0
   36.1400   29.9100   41.5160 C   0  0  0  0  0  0  0  0  0  0  0  0
   36.2830   29.0210   40.4760 C   0  0  0  0  0  0  0  0  0  0  0  0
   35.5790   29.0630   39.6530 H   0  0  0  0  0  0  0  0  0  0  0  0
   37.3010   28.1490   40.5530 N   0  0  0  0  0  0  0  0  0  0  0  0
   38.1670   28.1160   41.5900 C   0  0  0  0  0  0  0  0  0  0  0  0
   38.9860   27.3810   41.6080 H   0  0  0  0  0  0  0  0  0  0  0  0
   38.0160   29.0020   42.6170 N   0  0  0  0  0  0  0  0  0  0  0  0
   37.0120   29.9060   42.6020 C   0  0  0  0  0  0  0  0  0  0  0  0
   37.2170   29.4510   50.4590 C   0  0  0  0  0  0  0  0  0  0  0  0
   37.7040   29.9400   49.2400 C   0  0  0  0  0  0  0  0  0  0  0  0
   36.8920   30.5710   48.3340 C   0  0  0  0  0  0  0  0  0  0  0  0
   35.5800   30.7100   48.6530 N   0  0  0  0  0  0  0  0  0  0  0  0
   35.0760   30.2440   49.8290 C   0  0  0  0  0  0  0  0  0  0  0  0
   35.8870   29.6180   50.7280 N   0  0  0  0  0  0  0  0  0  0  0  0
   37.7840   28.9520   51.2120 H   0  0  0  0  0  0  0  0  0  0  0  0
   38.7540   29.7280   49.1650 H   0  0  0  0  0  0  0  0  0  0  0  0
   34.0250   30.4120   49.9680 H   0  0  0  0  0  0  0  0  0  0  0  0
   40.1150   33.2840   45.9890 C   0  0  0  0  0  0  0  0  0  0  0  0
   39.9740   34.2660   45.0530 F   0  0  0  0  0  0  0  0  0  0  0  0
   41.3040   32.6330   45.7070 F   0  0  0  0  0  0  0  0  0  0  0  0
   40.1750   33.8890   47.2370 F   0  0  0  0  0  0  0  0  0  0  0  0
  1 24  1  0  0  0  0
  2  9  1  0  0  0  0
  2  1  1  0  0  0  0
  3  4  1  0  0  0  0
  3  2  2  0  0  0  0
  4  6  1  0  0  0  0
  5  4  2  0  0  0  0
  6 31  1  0  0  0  0
  6  7  1  0  0  0  0
  7  1  1  0  0  0  0
  7  8  2  0  0  0  0
 10  3  1  0  0  0  0
 11 12  1  0  0  0  0
 11 10  1  0  0  0  0
 13 11  2  0  0  0  0
 14 13  1  0  0  0  0
 14 21  1  0  0  0  0
 15 17  1  0  0  0  0
 15 14  2  0  0  0  0
 16 15  1  0  0  0  0
 17 18  2  0  0  0  0
 18 19  1  0  0  0  0
 18 20  1  0  0  0  0
 21 20  2  0  0  0  0
 21 10  1  0  0  0  0
 22 27  1  0  0  0  0
 22 28  1  0  0  0  0
 23 22  2  0  0  0  0
 24 25  2  0  0  0  0
 24 23  1  0  0  0  0
 25 26  1  0  0  0  0
 26 30  1  0  0  0  0
 26 27  2  0  0  0  0
 29 23  1  0  0  0  0
 31 34  1  0  0  0  0
 32 31  1  0  0  0  0
 33 31  1  0  0  0  0
M  END
>  <minimizedAffinity>
-6.24759102

>  <minimizedRMSD>
0.252952993

$$$$
