
 OpenBabel03272506013D

 49 53  0  0  1  0  0  0  0  0999 V2000
   35.2940   29.9920   49.1690 C   0  0  2  0  0  0  0  0  0  0  0  0
   36.2200   31.0650   48.8230 C   0  0  0  0  0  0  0  0  0  0  0  0
   37.7010   30.7170   49.1610 C   0  0  2  0  0  0  0  0  0  0  0  0
   37.9190   30.4080   50.5540 C   0  0  0  0  0  0  0  0  0  0  0  0
   36.7830   29.6040   51.1890 C   0  0  0  0  0  0  0  0  0  0  0  0
   35.9120   28.9810   50.1400 C   0  0  0  0  0  0  0  0  0  0  0  0
   34.4090   30.3910   49.7480 H   0  0  0  0  0  0  0  0  0  0  0  0
   36.2660   31.5190   47.8620 H   0  0  0  0  0  0  0  0  0  0  0  0
   36.0420   31.9290   49.5520 H   0  0  0  0  0  0  0  0  0  0  0  0
   38.0050   29.9040   48.4760 H   0  0  0  0  0  0  0  0  0  0  0  0
   38.8940   29.8890   50.6670 H   0  0  0  0  0  0  0  0  0  0  0  0
   38.0070   31.3190   51.1770 H   0  0  0  0  0  0  0  0  0  0  0  0
   37.2610   28.7600   51.7260 H   0  0  0  0  0  0  0  0  0  0  0  0
   36.2120   30.1740   51.9290 H   0  0  0  0  0  0  0  0  0  0  0  0
   36.4680   28.2230   49.5670 H   0  0  0  0  0  0  0  0  0  0  0  0
   35.0840   28.4560   50.6410 H   0  0  0  0  0  0  0  0  0  0  0  0
   34.7450   29.2230   48.0560 C   0  0  0  0  0  0  0  0  0  0  0  0
   34.8620   29.8490   46.8250 C   0  0  0  0  0  0  0  0  0  0  0  0
   34.3880   29.1920   45.6910 C   0  0  0  0  0  0  0  0  0  0  0  0
   33.8140   27.9270   45.8530 N   0  0  0  0  0  0  0  0  0  0  0  0
   33.7230   27.3620   47.0640 C   0  0  0  0  0  0  0  0  0  0  0  0
   34.1890   28.0250   48.1230 N   0  0  0  0  0  0  0  0  0  0  0  0
   35.2380   30.7770   46.4160 H   0  0  0  0  0  0  0  0  0  0  0  0
   34.3600   29.4470   44.6590 H   0  0  0  0  0  0  0  0  0  0  0  0
   33.1420   26.0770   47.2430 N   0  0  0  0  0  0  0  0  0  0  0  0
   32.0230   25.6760   47.8890 C   0  0  0  0  0  0  0  0  0  0  0  0
   31.3640   26.3700   48.4050 H   0  0  0  0  0  0  0  0  0  0  0  0
   31.9210   24.3300   47.7590 N   0  0  0  0  0  0  0  0  0  0  0  0
   32.9630   23.8830   47.0360 C   0  0  0  0  0  0  0  0  0  0  0  0
   33.4030   22.6420   46.5790 C   0  0  0  0  0  0  0  0  0  0  0  0
   32.8230   21.7640   46.8160 H   0  0  0  0  0  0  0  0  0  0  0  0
   34.5260   22.5030   45.8520 N   0  0  0  0  0  0  0  0  0  0  0  0
   35.2700   23.5860   45.5400 C   0  0  0  0  0  0  0  0  0  0  0  0
   36.1870   23.5150   44.9520 H   0  0  0  0  0  0  0  0  0  0  0  0
   34.8510   24.7750   45.9770 N   0  0  0  0  0  0  0  0  0  0  0  0
   33.7290   24.9670   46.7110 C   0  0  0  0  0  0  0  0  0  0  0  0
   38.7270   30.7320   46.3920 Cl  0  0  0  0  0  0  0  0  0  0  0  0
   39.0060   32.0480   47.5020 C   0  0  0  0  0  0  0  0  0  0  0  0
   38.4390   31.9530   48.7480 C   0  0  0  0  0  0  0  0  0  0  0  0
   38.6740   33.0530   49.5490 C   0  0  0  0  0  0  0  0  0  0  0  0
   39.4100   34.1490   49.1430 C   0  0  0  0  0  0  0  0  0  0  0  0
   39.9570   34.1690   47.8570 C   0  0  0  0  0  0  0  0  0  0  0  0
   39.7430   33.0780   47.0140 C   0  0  0  0  0  0  0  0  0  0  0  0
   38.2510   33.0480   50.5490 H   0  0  0  0  0  0  0  0  0  0  0  0
   39.5580   34.9750   49.8160 H   0  0  0  0  0  0  0  0  0  0  0  0
   40.5400   35.0060   47.4970 H   0  0  0  0  0  0  0  0  0  0  0  0
   40.3010   33.0980   45.7100 N   0  0  0  0  0  0  0  0  0  0  0  0
   40.8480   32.2050   45.5500 H   0  0  0  0  0  0  0  0  0  0  0  0
   40.2730   33.7740   44.9400 H   0  0  0  0  0  0  0  0  0  0  0  0
  1  7  1  1  0  0  0
  1  6  1  0  0  0  0
  2  3  1  0  0  0  0
  2  1  1  0  0  0  0
  2  9  1  0  0  0  0
  3 10  1  6  0  0  0
  3  4  1  0  0  0  0
  4 11  1  0  0  0  0
  4 12  1  0  0  0  0
  4  5  1  0  0  0  0
  5 13  1  0  0  0  0
  5 14  1  0  0  0  0
  6 16  1  0  0  0  0
  6  5  1  0  0  0  0
  8  2  1  0  0  0  0
 15  6  1  0  0  0  0
 17 22  1  0  0  0  0
 17  1  1  0  0  0  0
 18 17  2  0  0  0  0
 19 20  2  0  0  0  0
 19 18  1  0  0  0  0
 20 21  1  0  0  0  0
 21 25  1  0  0  0  0
 21 22  2  0  0  0  0
 23 18  1  0  0  0  0
 24 19  1  0  0  0  0
 25 26  1  0  0  0  0
 26 27  1  0  0  0  0
 28 26  2  0  0  0  0
 29 28  1  0  0  0  0
 30 31  1  0  0  0  0
 30 29  2  0  0  0  0
 32 30  1  0  0  0  0
 33 32  2  0  0  0  0
 33 35  1  0  0  0  0
 34 33  1  0  0  0  0
 35 36  2  0  0  0  0
 36 29  1  0  0  0  0
 36 25  1  0  0  0  0
 37 38  1  0  0  0  0
 38 39  1  0  0  0  0
 39  3  1  0  0  0  0
 39 40  2  0  0  0  0
 40 44  1  0  0  0  0
 41 40  1  0  0  0  0
 41 45  1  0  0  0  0
 42 41  2  0  0  0  0
 43 38  2  0  0  0  0
 43 42  1  0  0  0  0
 46 42  1  0  0  0  0
 47 43  1  0  0  0  0
 48 47  1  0  0  0  0
 49 47  1  0  0  0  0
M  END
>  <minimizedAffinity>
-8.04063416

>  <minimizedRMSD>
1.32147491

$$$$
