
 OpenBabel03272506553D

 23 25  0  0  0  0  0  0  0  0999 V2000
   36.4870   29.5950   50.9150 C   0  0  0  0  0  0  0  0  0  0  0  0
   37.4460   30.2130   50.0910 C   0  0  0  0  0  0  0  0  0  0  0  0
   37.1300   30.2630   48.7070 C   0  0  0  0  0  0  0  0  0  0  0  0
   35.9480   29.7210   48.2880 N   0  0  0  0  0  0  0  0  0  0  0  0
   35.0810   29.1480   49.1310 C   0  0  0  0  0  0  0  0  0  0  0  0
   35.3290   29.0730   50.4540 N   0  0  0  0  0  0  0  0  0  0  0  0
   36.6930   29.5370   51.9880 H   0  0  0  0  0  0  0  0  0  0  0  0
   37.8310   30.7220   48.0530 H   0  0  0  0  0  0  0  0  0  0  0  0
   33.9140   28.6530   48.4670 N   0  0  0  0  0  0  0  0  0  0  0  0
   32.8180   28.0960   49.0180 C   0  0  0  0  0  0  0  0  0  0  0  0
   32.7010   27.9580   50.0980 H   0  0  0  0  0  0  0  0  0  0  0  0
   31.9480   27.7630   48.0470 N   0  0  0  0  0  0  0  0  0  0  0  0
   32.4770   28.1040   46.8450 C   0  0  0  0  0  0  0  0  0  0  0  0
   31.9430   27.9490   45.5800 C   0  0  0  0  0  0  0  0  0  0  0  0
   30.9870   27.5140   45.4210 H   0  0  0  0  0  0  0  0  0  0  0  0
   32.7310   28.3980   44.5600 N   0  0  0  0  0  0  0  0  0  0  0  0
   33.9410   28.9450   44.8210 C   0  0  0  0  0  0  0  0  0  0  0  0
   34.5430   29.2920   43.9810 H   0  0  0  0  0  0  0  0  0  0  0  0
   34.4040   29.0670   46.0610 N   0  0  0  0  0  0  0  0  0  0  0  0
   33.7230   28.6650   47.1350 C   0  0  0  0  0  0  0  0  0  0  0  0
   38.6520   30.7470   50.6330 N   0  0  0  0  0  0  0  0  0  0  0  0
   38.5540   31.3760   51.4810 H   0  0  0  0  0  0  0  0  0  0  0  0
   39.5680   30.5130   50.1940 H   0  0  0  0  0  0  0  0  0  0  0  0
  1  7  1  0  0  0  0
  2 21  1  0  0  0  0
  2  1  2  0  0  0  0
  3  2  1  0  0  0  0
  4  3  2  0  0  0  0
  4  5  1  0  0  0  0
  5  6  2  0  0  0  0
  6  1  1  0  0  0  0
  8  3  1  0  0  0  0
  9 10  1  0  0  0  0
  9  5  1  0  0  0  0
 10 11  1  0  0  0  0
 12 10  2  0  0  0  0
 13 20  1  0  0  0  0
 13 12  1  0  0  0  0
 14 13  2  0  0  0  0
 15 14  1  0  0  0  0
 16 17  2  0  0  0  0
 16 14  1  0  0  0  0
 17 19  1  0  0  0  0
 18 17  1  0  0  0  0
 19 20  2  0  0  0  0
 20  9  1  0  0  0  0
 21 22  1  0  0  0  0
 23 21  1  0  0  0  0
M  END
>  <minimizedAffinity>
-4.46143436

>  <minimizedRMSD>
1.5361129

$$$$
