
 OpenBabel03272505263D

 34 37  0  0  0  0  0  0  0  0999 V2000
   37.3680   31.1000   47.0590 N   0  0  0  0  0  0  0  0  0  0  0  0
   36.7790   30.7930   45.8720 C   0  0  0  0  0  0  0  0  0  0  0  0
   37.2530   31.2820   44.6630 C   0  0  0  0  0  0  0  0  0  0  0  0
   38.3770   32.1160   44.7070 C   0  0  0  0  0  0  0  0  0  0  0  0
   38.8460   32.5850   43.6450 O   0  0  0  0  0  0  0  0  0  0  0  0
   38.9710   32.4260   45.9000 N   0  0  0  0  0  0  0  0  0  0  0  0
   38.4220   31.8940   46.9980 C   0  0  0  0  0  0  0  0  0  0  0  0
   38.9880   32.1980   48.0700 O   0  0  0  0  0  0  0  0  0  0  0  0
   35.9040   30.1370   45.8910 H   0  0  0  0  0  0  0  0  0  0  0  0
   36.6340   30.9600   43.4210 N   0  0  0  0  0  0  0  0  0  0  0  0
   36.7830   29.8110   42.7410 C   0  0  0  0  0  0  0  0  0  0  0  0
   37.3970   28.9690   43.0440 H   0  0  0  0  0  0  0  0  0  0  0  0
   36.0750   29.8210   41.6220 N   0  0  0  0  0  0  0  0  0  0  0  0
   35.4250   30.9950   41.5270 C   0  0  0  0  0  0  0  0  0  0  0  0
   34.5690   31.5330   40.5950 C   0  0  0  0  0  0  0  0  0  0  0  0
   34.3130   30.9480   39.7200 H   0  0  0  0  0  0  0  0  0  0  0  0
   34.1020   32.7690   40.8380 N   0  0  0  0  0  0  0  0  0  0  0  0
   34.4350   33.4810   41.9380 C   0  0  0  0  0  0  0  0  0  0  0  0
   34.0250   34.4900   42.0920 H   0  0  0  0  0  0  0  0  0  0  0  0
   35.2870   32.9370   42.8560 N   0  0  0  0  0  0  0  0  0  0  0  0
   35.7920   31.6970   42.6710 C   0  0  0  0  0  0  0  0  0  0  0  0
   37.1930   29.4680   50.3890 C   0  0  0  0  0  0  0  0  0  0  0  0
   37.6840   29.9660   49.1750 C   0  0  0  0  0  0  0  0  0  0  0  0
   36.8740   30.5970   48.2680 C   0  0  0  0  0  0  0  0  0  0  0  0
   35.5600   30.7290   48.5820 N   0  0  0  0  0  0  0  0  0  0  0  0
   35.0520   30.2550   49.7530 C   0  0  0  0  0  0  0  0  0  0  0  0
   35.8620   29.6290   50.6530 N   0  0  0  0  0  0  0  0  0  0  0  0
   37.7590   28.9680   51.1420 H   0  0  0  0  0  0  0  0  0  0  0  0
   38.7350   29.7580   49.1040 H   0  0  0  0  0  0  0  0  0  0  0  0
   34.0000   30.4190   49.8880 H   0  0  0  0  0  0  0  0  0  0  0  0
   40.1340   33.2870   45.9470 C   0  0  0  0  0  0  0  0  0  0  0  0
   40.0140   34.2740   45.0130 F   0  0  0  0  0  0  0  0  0  0  0  0
   41.3130   32.6160   45.6680 F   0  0  0  0  0  0  0  0  0  0  0  0
   40.1990   33.8870   47.1970 F   0  0  0  0  0  0  0  0  0  0  0  0
  1 24  1  0  0  0  0
  2  9  1  0  0  0  0
  2  1  1  0  0  0  0
  3  4  1  0  0  0  0
  3  2  2  0  0  0  0
  4  6  1  0  0  0  0
  5  4  2  0  0  0  0
  6 31  1  0  0  0  0
  6  7  1  0  0  0  0
  7  1  1  0  0  0  0
  7  8  2  0  0  0  0
 10  3  1  0  0  0  0
 11 12  1  0  0  0  0
 11 10  1  0  0  0  0
 13 11  2  0  0  0  0
 14 13  1  0  0  0  0
 14 21  1  0  0  0  0
 15 17  1  0  0  0  0
 15 14  2  0  0  0  0
 16 15  1  0  0  0  0
 17 18  2  0  0  0  0
 18 19  1  0  0  0  0
 18 20  1  0  0  0  0
 21 20  2  0  0  0  0
 21 10  1  0  0  0  0
 22 27  1  0  0  0  0
 22 28  1  0  0  0  0
 23 22  2  0  0  0  0
 24 25  2  0  0  0  0
 24 23  1  0  0  0  0
 25 26  1  0  0  0  0
 26 30  1  0  0  0  0
 26 27  2  0  0  0  0
 29 23  1  0  0  0  0
 31 34  1  0  0  0  0
 32 31  1  0  0  0  0
 33 31  1  0  0  0  0
M  END
>  <minimizedAffinity>
-6.39075804

>  <minimizedRMSD>
0.653234601

$$$$
