
 OpenBabel03272508083D

 27 29  0  0  0  0  0  0  0  0999 V2000
   38.9950   32.8360   48.1380 O   0  0  0  0  0  0  0  0  0  0  0  0
   38.6570   31.7850   47.1240 P   0  0  2  0  0  0  0  0  0  0  0  0
   37.6220   32.4490   45.9400 O   0  0  0  0  0  0  0  0  0  0  0  0
   37.6620   33.4260   45.9970 H   0  0  0  0  0  0  0  0  0  0  0  0
   38.0260   30.3680   47.7620 O   0  0  0  0  0  0  0  0  0  0  0  0
   37.3220   30.2000   51.3920 C   0  0  0  0  0  0  0  0  0  0  0  0
   38.0320   30.5400   50.2360 C   0  0  0  0  0  0  0  0  0  0  0  0
   37.5160   30.1520   49.0090 C   0  0  0  0  0  0  0  0  0  0  0  0
   36.3350   29.4540   48.9850 N   0  0  0  0  0  0  0  0  0  0  0  0
   35.6850   29.1480   50.1310 C   0  0  0  0  0  0  0  0  0  0  0  0
   36.1770   29.5190   51.3240 N   0  0  0  0  0  0  0  0  0  0  0  0
   37.7490   30.5140   52.3220 H   0  0  0  0  0  0  0  0  0  0  0  0
   38.9520   31.0780   50.1830 H   0  0  0  0  0  0  0  0  0  0  0  0
   34.7420   28.5880   50.0710 H   0  0  0  0  0  0  0  0  0  0  0  0
   40.0970   31.4100   46.3000 O   0  0  0  0  0  0  0  0  0  0  0  0
   41.8800   31.1810   44.1630 H   0  0  0  0  0  0  0  0  0  0  0  0
   40.9370   30.7460   44.0690 N   0  0  0  0  0  0  0  0  0  0  0  0
   39.9960   30.7970   45.0470 C   0  0  0  0  0  0  0  0  0  0  0  0
   38.9540   30.1240   44.5190 N   0  0  0  0  0  0  0  0  0  0  0  0
   39.2170   29.6780   43.2950 C   0  0  0  0  0  0  0  0  0  0  0  0
   38.5770   28.9600   42.3030 C   0  0  0  0  0  0  0  0  0  0  0  0
   37.5690   28.6240   42.4880 H   0  0  0  0  0  0  0  0  0  0  0  0
   39.1670   28.6750   41.1340 N   0  0  0  0  0  0  0  0  0  0  0  0
   40.4370   29.1010   40.9060 C   0  0  0  0  0  0  0  0  0  0  0  0
   40.9310   28.8720   39.9490 H   0  0  0  0  0  0  0  0  0  0  0  0
   41.1050   29.8040   41.8410 N   0  0  0  0  0  0  0  0  0  0  0  0
   40.4970   30.0790   43.0050 C   0  0  0  0  0  0  0  0  0  0  0  0
  2  5  1  0  0  0  0
  2  1  2  1  0  0  0
  3  4  1  0  0  0  0
  3  2  1  0  0  0  0
  5  8  1  0  0  0  0
  6 12  1  0  0  0  0
  7  6  2  0  0  0  0
  8  7  1  0  0  0  0
  9  8  2  0  0  0  0
  9 10  1  0  0  0  0
 10 11  2  0  0  0  0
 11  6  1  0  0  0  0
 13  7  1  0  0  0  0
 14 10  1  0  0  0  0
 15  2  1  0  0  0  0
 17 16  1  0  0  0  0
 17 18  1  0  0  0  0
 18 15  1  0  0  0  0
 19 18  2  0  0  0  0
 20 19  1  0  0  0  0
 21 22  1  0  0  0  0
 21 20  2  0  0  0  0
 23 21  1  0  0  0  0
 24 23  2  0  0  0  0
 24 26  1  0  0  0  0
 25 24  1  0  0  0  0
 26 27  2  0  0  0  0
 27 20  1  0  0  0  0
 27 17  1  0  0  0  0
M  END
>  <minimizedAffinity>
-5.73309946

>  <minimizedRMSD>
1.19569016

$$$$
