
 OpenBabel03272506553D

 23 25  0  0  0  0  0  0  0  0999 V2000
   36.3310   31.0760   50.1440 C   0  0  0  0  0  0  0  0  0  0  0  0
   37.6020   30.8740   49.5730 C   0  0  0  0  0  0  0  0  0  0  0  0
   37.6110   30.2980   48.2750 C   0  0  0  0  0  0  0  0  0  0  0  0
   36.4160   29.9910   47.6900 N   0  0  0  0  0  0  0  0  0  0  0  0
   35.2420   30.2120   48.2930 C   0  0  0  0  0  0  0  0  0  0  0  0
   35.1740   30.7560   49.5250 N   0  0  0  0  0  0  0  0  0  0  0  0
   36.2820   31.5180   51.1430 H   0  0  0  0  0  0  0  0  0  0  0  0
   38.5530   30.1310   47.8110 H   0  0  0  0  0  0  0  0  0  0  0  0
   34.1270   29.8120   47.4900 N   0  0  0  0  0  0  0  0  0  0  0  0
   33.3180   30.5900   46.7440 C   0  0  0  0  0  0  0  0  0  0  0  0
   33.4400   31.6760   46.6730 H   0  0  0  0  0  0  0  0  0  0  0  0
   32.3890   29.8250   46.1410 N   0  0  0  0  0  0  0  0  0  0  0  0
   32.5900   28.5290   46.4940 C   0  0  0  0  0  0  0  0  0  0  0  0
   31.8830   27.4020   46.1190 C   0  0  0  0  0  0  0  0  0  0  0  0
   31.0480   27.4530   45.4640 H   0  0  0  0  0  0  0  0  0  0  0  0
   32.3380   26.2310   46.6500 N   0  0  0  0  0  0  0  0  0  0  0  0
   33.4070   26.2260   47.4800 C   0  0  0  0  0  0  0  0  0  0  0  0
   33.7420   25.2700   47.8860 H   0  0  0  0  0  0  0  0  0  0  0  0
   34.0490   27.3440   47.8060 N   0  0  0  0  0  0  0  0  0  0  0  0
   33.6960   28.5460   47.3490 C   0  0  0  0  0  0  0  0  0  0  0  0
   38.7920   31.2320   50.2730 N   0  0  0  0  0  0  0  0  0  0  0  0
   38.8190   32.2020   50.6980 H   0  0  0  0  0  0  0  0  0  0  0  0
   39.5780   30.5500   50.3440 H   0  0  0  0  0  0  0  0  0  0  0  0
  1  7  1  0  0  0  0
  2  1  1  0  0  0  0
  2 21  1  0  0  0  0
  3  2  2  0  0  0  0
  4  3  1  0  0  0  0
  4  5  2  0  0  0  0
  5  6  1  0  0  0  0
  6  1  2  0  0  0  0
  8  3  1  0  0  0  0
  9  5  1  0  0  0  0
 10  9  1  0  0  0  0
 11 10  1  0  0  0  0
 12 13  1  0  0  0  0
 12 10  2  0  0  0  0
 13 20  1  0  0  0  0
 14 13  2  0  0  0  0
 14 16  1  0  0  0  0
 15 14  1  0  0  0  0
 16 17  2  0  0  0  0
 17 19  1  0  0  0  0
 17 18  1  0  0  0  0
 20  9  1  0  0  0  0
 20 19  2  0  0  0  0
 21 23  1  0  0  0  0
 21 22  1  0  0  0  0
M  END
>  <minimizedAffinity>
-4.30876732

>  <minimizedRMSD>
2.50498867

$$$$
