
 OpenBabel03272506233D

 34 37  0  0  0  0  0  0  0  0999 V2000
   35.6930   29.5050   47.8830 C   0  0  0  0  0  0  0  0  0  0  0  0
   34.5420   28.8080   47.6210 C   0  0  0  0  0  0  0  0  0  0  0  0
   33.9050   28.7740   46.3970 C   0  0  0  0  0  0  0  0  0  0  0  0
   34.4800   29.5150   45.3280 C   0  0  0  0  0  0  0  0  0  0  0  0
   35.6420   30.2190   45.5960 C   0  0  0  0  0  0  0  0  0  0  0  0
   36.2530   30.2310   46.8300 C   0  0  0  0  0  0  0  0  0  0  0  0
   34.0490   28.2200   48.3860 H   0  0  0  0  0  0  0  0  0  0  0  0
   32.9990   28.2130   46.2220 H   0  0  0  0  0  0  0  0  0  0  0  0
   33.9970   29.4980   44.3720 H   0  0  0  0  0  0  0  0  0  0  0  0
   36.1000   30.7940   44.7920 H   0  0  0  0  0  0  0  0  0  0  0  0
   37.4420   30.9470   47.1210 N   0  0  0  0  0  0  0  0  0  0  0  0
   38.6890   30.9390   46.5680 C   0  0  0  0  0  0  0  0  0  0  0  0
   38.8780   30.2630   45.7200 H   0  0  0  0  0  0  0  0  0  0  0  0
   39.4790   31.8160   47.2170 N   0  0  0  0  0  0  0  0  0  0  0  0
   38.7490   32.4060   48.2030 C   0  0  0  0  0  0  0  0  0  0  0  0
   39.1480   33.3610   49.1100 C   0  0  0  0  0  0  0  0  0  0  0  0
   40.1650   33.7300   49.0860 H   0  0  0  0  0  0  0  0  0  0  0  0
   38.1830   33.7560   49.9800 N   0  0  0  0  0  0  0  0  0  0  0  0
   36.9400   33.2200   49.9160 C   0  0  0  0  0  0  0  0  0  0  0  0
   36.2310   33.6060   50.6620 H   0  0  0  0  0  0  0  0  0  0  0  0
   36.5500   32.2870   49.0290 N   0  0  0  0  0  0  0  0  0  0  0  0
   37.4670   31.8550   48.1400 C   0  0  0  0  0  0  0  0  0  0  0  0
   37.6110   29.1340   49.3610 C   0  0  0  0  0  0  0  0  0  0  0  0
   36.2180   29.4230   49.2280 C   0  0  0  0  0  0  0  0  0  0  0  0
   35.4890   29.6010   50.4010 C   0  0  0  0  0  0  0  0  0  0  0  0
   36.1340   29.4920   51.5910 N   0  0  0  0  0  0  0  0  0  0  0  0
   37.4630   29.2150   51.6870 C   0  0  0  0  0  0  0  0  0  0  0  0
   38.1990   29.0370   50.5550 N   0  0  0  0  0  0  0  0  0  0  0  0
   38.2350   28.9850   48.4880 H   0  0  0  0  0  0  0  0  0  0  0  0
   37.8500   29.1550   52.6950 H   0  0  0  0  0  0  0  0  0  0  0  0
   34.0510   29.9030   50.4120 C   0  0  0  0  0  0  0  0  0  0  0  0
   33.5890   29.9840   51.7420 F   0  0  0  0  0  0  0  0  0  0  0  0
   33.6440   31.0140   49.7530 F   0  0  0  0  0  0  0  0  0  0  0  0
   33.3220   28.8160   49.9120 F   0  0  0  0  0  0  0  0  0  0  0  0
  1 24  1  0  0  0  0
  2  1  1  0  0  0  0
  2  7  1  0  0  0  0
  3  2  2  0  0  0  0
  4  5  2  0  0  0  0
  4  3  1  0  0  0  0
  5  6  1  0  0  0  0
  6 11  1  0  0  0  0
  6  1  2  0  0  0  0
  8  3  1  0  0  0  0
  9  4  1  0  0  0  0
 10  5  1  0  0  0  0
 11 22  1  0  0  0  0
 12 11  1  0  0  0  0
 12 14  2  0  0  0  0
 13 12  1  0  0  0  0
 14 15  1  0  0  0  0
 15 16  1  0  0  0  0
 16 18  2  0  0  0  0
 17 16  1  0  0  0  0
 19 18  1  0  0  0  0
 19 20  1  0  0  0  0
 21 19  2  0  0  0  0
 22 15  2  0  0  0  0
 22 21  1  0  0  0  0
 23 28  1  0  0  0  0
 24 23  2  0  0  0  0
 24 25  1  0  0  0  0
 25 31  1  0  0  0  0
 25 26  2  0  0  0  0
 26 27  1  0  0  0  0
 27 30  1  0  0  0  0
 28 27  2  0  0  0  0
 29 23  1  0  0  0  0
 31 32  1  0  0  0  0
 33 31  1  0  0  0  0
 34 31  1  0  0  0  0
M  END
>  <minimizedAffinity>
-3.43145299

>  <minimizedRMSD>
3.73391008

$$$$
