
 OpenBabel03272506383D

 40 43  0  0  1  0  0  0  0  0999 V2000
   34.5380   29.8460   49.9880 O   0  0  0  0  0  0  0  0  0  0  0  0
   34.3910   29.6890   48.7660 C   0  0  0  0  0  0  0  0  0  0  0  0
   35.2300   30.3750   47.8060 C   0  0  2  0  0  0  0  0  0  0  0  0
   34.7740   29.6910   46.4760 C   0  0  0  0  0  0  0  0  0  0  0  0
   33.3640   29.2790   46.7810 C   0  0  0  0  0  0  0  0  0  0  0  0
   33.4000   28.8270   48.1620 N   0  0  0  0  0  0  0  0  0  0  0  0
   35.0980   31.4550   47.6910 H   0  0  0  0  0  0  0  0  0  0  0  0
   35.4380   28.8630   46.2330 H   0  0  0  0  0  0  0  0  0  0  0  0
   34.8820   30.4540   45.6970 H   0  0  0  0  0  0  0  0  0  0  0  0
   32.6190   30.0440   46.5710 H   0  0  0  0  0  0  0  0  0  0  0  0
   33.1320   28.3700   46.1680 H   0  0  0  0  0  0  0  0  0  0  0  0
   32.6300   27.7690   48.7760 C   0  0  0  0  0  0  0  0  0  0  0  0
   33.0690   27.4490   49.7280 H   0  0  0  0  0  0  0  0  0  0  0  0
   31.6350   28.2380   49.0360 H   0  0  0  0  0  0  0  0  0  0  0  0
   32.3620   26.6880   47.8760 N   0  0  0  0  0  0  0  0  0  0  0  0
   33.2620   25.7970   47.3680 C   0  0  0  0  0  0  0  0  0  0  0  0
   34.3110   25.8440   47.6260 H   0  0  0  0  0  0  0  0  0  0  0  0
   32.6490   24.9040   46.5410 N   0  0  0  0  0  0  0  0  0  0  0  0
   31.3360   25.2190   46.5120 C   0  0  0  0  0  0  0  0  0  0  0  0
   30.2600   24.6590   45.8480 C   0  0  0  0  0  0  0  0  0  0  0  0
   30.4430   23.8080   45.2200 H   0  0  0  0  0  0  0  0  0  0  0  0
   29.0710   25.2470   46.0570 N   0  0  0  0  0  0  0  0  0  0  0  0
   28.9110   26.3210   46.8620 C   0  0  0  0  0  0  0  0  0  0  0  0
   27.8950   26.7010   46.9460 H   0  0  0  0  0  0  0  0  0  0  0  0
   29.9410   26.8790   47.5150 N   0  0  0  0  0  0  0  0  0  0  0  0
   31.1690   26.3170   47.3340 C   0  0  0  0  0  0  0  0  0  0  0  0
   36.6220   30.0830   47.9280 O   0  0  0  0  0  0  0  0  0  0  0  0
   37.4940   31.1600   48.0690 C   0  0  0  0  0  0  0  0  0  0  0  0
   37.6380   31.6800   49.3430 C   0  0  0  0  0  0  0  0  0  0  0  0
   38.5000   32.7550   49.5170 C   0  0  0  0  0  0  0  0  0  0  0  0
   39.1610   33.2460   48.4340 N   0  0  0  0  0  0  0  0  0  0  0  0
   39.0110   32.7290   47.2060 C   0  0  0  0  0  0  0  0  0  0  0  0
   38.1870   31.7050   47.0530 N   0  0  0  0  0  0  0  0  0  0  0  0
   40.5650   32.3150   45.4640 C   0  0  0  0  0  0  0  0  0  0  0  0
   40.7420   31.1080   45.7710 O   0  0  0  0  0  0  0  0  0  0  0  0
   39.7190   33.2720   46.0960 N   0  0  0  0  0  0  0  0  0  0  0  0
   37.1350   31.3230   50.2210 H   0  0  0  0  0  0  0  0  0  0  0  0
   38.6350   33.1840   50.4990 H   0  0  0  0  0  0  0  0  0  0  0  0
   41.1750   32.5680   44.6010 H   0  0  0  0  0  0  0  0  0  0  0  0
   39.6750   34.2310   45.7330 H   0  0  0  0  0  0  0  0  0  0  0  0
  2  1  2  0  0  0  0
  3  7  1  6  0  0  0
  3 27  1  0  0  0  0
  3  2  1  0  0  0  0
  4  5  1  0  0  0  0
  4  3  1  0  0  0  0
  5  6  1  0  0  0  0
  6  2  1  0  0  0  0
  6 12  1  0  0  0  0
  8  4  1  0  0  0  0
  9  4  1  0  0  0  0
 10  5  1  0  0  0  0
 11  5  1  0  0  0  0
 12 14  1  0  0  0  0
 12 13  1  0  0  0  0
 15 12  1  0  0  0  0
 16 17  1  0  0  0  0
 16 15  1  0  0  0  0
 18 16  2  0  0  0  0
 19 18  1  0  0  0  0
 19 26  1  0  0  0  0
 20 22  1  0  0  0  0
 20 19  2  0  0  0  0
 21 20  1  0  0  0  0
 22 23  2  0  0  0  0
 23 24  1  0  0  0  0
 23 25  1  0  0  0  0
 26 25  2  0  0  0  0
 26 15  1  0  0  0  0
 27 28  1  0  0  0  0
 28 29  1  0  0  0  0
 29 30  2  0  0  0  0
 29 37  1  0  0  0  0
 30 38  1  0  0  0  0
 31 30  1  0  0  0  0
 32 31  2  0  0  0  0
 33 32  1  0  0  0  0
 33 28  2  0  0  0  0
 34 35  2  0  0  0  0
 34 36  1  0  0  0  0
 36 32  1  0  0  0  0
 39 34  1  0  0  0  0
 40 36  1  0  0  0  0
M  END
>  <minimizedAffinity>
-5.92832756

>  <minimizedRMSD>
2.9411931

$$$$
