
 OpenBabel03262520123D

 45 48  0  0  0  0  0  0  0  0999 V2000
   34.2070   29.4450   49.7870 C   0  0  0  0  0  0  0  0  0  0  0  0
   33.2530   29.8890   49.5820 H   0  0  0  0  0  0  0  0  0  0  0  0
   34.2230   29.3780   50.9310 H   0  0  0  0  0  0  0  0  0  0  0  0
   35.3600   30.3290   49.4830 C   0  0  0  0  0  0  0  0  0  0  0  0
   36.2300   30.0300   50.1150 H   0  0  0  0  0  0  0  0  0  0  0  0
   35.1240   31.3740   49.8270 H   0  0  0  0  0  0  0  0  0  0  0  0
   38.2390   31.5270   48.9740 Br  0  0  0  0  0  0  0  0  0  0  0  0
   36.9850   30.9030   47.6570 C   0  0  0  0  0  0  0  0  0  0  0  0
   37.3000   30.9500   46.3220 C   0  0  0  0  0  0  0  0  0  0  0  0
   36.3620   30.5030   45.4270 C   0  0  0  0  0  0  0  0  0  0  0  0
   35.1290   30.0150   45.8210 C   0  0  0  0  0  0  0  0  0  0  0  0
   34.8440   29.9840   47.1940 C   0  0  0  0  0  0  0  0  0  0  0  0
   35.7780   30.4270   48.0890 C   0  0  0  0  0  0  0  0  0  0  0  0
   36.6660   30.5630   44.3700 H   0  0  0  0  0  0  0  0  0  0  0  0
   34.5000   29.7030   45.0000 H   0  0  0  0  0  0  0  0  0  0  0  0
   33.8580   29.5940   47.2890 H   0  0  0  0  0  0  0  0  0  0  0  0
   39.7830   33.2810   45.0150 C   0  0  0  0  0  0  0  0  0  0  0  0
   40.9870   32.5030   44.9830 C   0  0  0  0  0  0  0  0  0  0  0  0
   40.9010   31.2050   45.4120 C   0  0  0  0  0  0  0  0  0  0  0  0
   39.7000   30.6940   45.8500 N   0  0  0  0  0  0  0  0  0  0  0  0
   38.5950   31.4650   45.8620 C   0  0  0  0  0  0  0  0  0  0  0  0
   38.6540   32.7390   45.4460 N   0  0  0  0  0  0  0  0  0  0  0  0
   39.7680   34.3080   44.6940 H   0  0  0  0  0  0  0  0  0  0  0  0
   41.8930   32.9700   44.6280 H   0  0  0  0  0  0  0  0  0  0  0  0
   41.7910   30.5940   45.4000 H   0  0  0  0  0  0  0  0  0  0  0  0
   34.5050   28.1260   49.3600 N   0  0  0  0  0  0  0  0  0  0  0  0
   34.9940   27.5150   50.0520 H   0  0  0  0  0  0  0  0  0  0  0  0
   33.4850   27.4140   48.6840 C   0  0  0  0  0  0  0  0  0  0  0  0
   33.5000   26.3370   48.9720 H   0  0  0  0  0  0  0  0  0  0  0  0
   33.6130   27.4270   47.5770 H   0  0  0  0  0  0  0  0  0  0  0  0
   32.1660   28.0240   49.0300 C   0  0  0  0  0  0  0  0  0  0  0  0
   31.8220   27.7490   50.0580 H   0  0  0  0  0  0  0  0  0  0  0  0
   31.9470   29.0330   48.7460 H   0  0  0  0  0  0  0  0  0  0  0  0
   31.2020   27.2480   48.1820 N   0  0  0  0  0  0  0  0  0  0  0  0
   31.5270   26.2710   47.2950 C   0  0  0  0  0  0  0  0  0  0  0  0
   32.5450   25.9300   47.0930 H   0  0  0  0  0  0  0  0  0  0  0  0
   30.3960   25.8130   46.7290 N   0  0  0  0  0  0  0  0  0  0  0  0
   29.3570   26.4740   47.2320 C   0  0  0  0  0  0  0  0  0  0  0  0
   27.9940   26.4780   47.0740 C   0  0  0  0  0  0  0  0  0  0  0  0
   27.5380   25.7930   46.3730 H   0  0  0  0  0  0  0  0  0  0  0  0
   27.1390   27.2940   47.7460 N   0  0  0  0  0  0  0  0  0  0  0  0
   27.6800   28.1700   48.6390 C   0  0  0  0  0  0  0  0  0  0  0  0
   27.1910   28.9030   49.2740 H   0  0  0  0  0  0  0  0  0  0  0  0
   29.0260   28.2050   48.8300 N   0  0  0  0  0  0  0  0  0  0  0  0
   29.8450   27.3740   48.1420 C   0  0  0  0  0  0  0  0  0  0  0  0
  1  3  1  0  0  0  0
  2  1  1  0  0  0  0
  4  1  1  0  0  0  0
  4  6  1  0  0  0  0
  4  5  1  0  0  0  0
  8 13  1  0  0  0  0
  8  7  1  0  0  0  0
  9  8  2  0  0  0  0
 10 11  2  0  0  0  0
 10  9  1  0  0  0  0
 11 12  1  0  0  0  0
 12 16  1  0  0  0  0
 12 13  2  0  0  0  0
 13  4  1  0  0  0  0
 14 10  1  0  0  0  0
 15 11  1  0  0  0  0
 17 22  1  0  0  0  0
 18 17  2  0  0  0  0
 18 19  1  0  0  0  0
 19 20  2  0  0  0  0
 20 21  1  0  0  0  0
 21  9  1  0  0  0  0
 22 21  2  0  0  0  0
 23 17  1  0  0  0  0
 24 18  1  0  0  0  0
 25 19  1  0  0  0  0
 26  1  1  0  0  0  0
 26 27  1  0  0  0  0
 28 29  1  0  0  0  0
 28 31  1  0  0  0  0
 28 26  1  0  0  0  0
 30 28  1  0  0  0  0
 31 32  1  0  0  0  0
 33 31  1  0  0  0  0
 34 31  1  0  0  0  0
 35 34  1  0  0  0  0
 36 35  1  0  0  0  0
 37 38  1  0  0  0  0
 37 35  2  0  0  0  0
 38 45  1  0  0  0  0
 39 38  2  0  0  0  0
 39 41  1  0  0  0  0
 40 39  1  0  0  0  0
 41 42  2  0  0  0  0
 42 44  1  0  0  0  0
 42 43  1  0  0  0  0
 45 34  1  0  0  0  0
 45 44  2  0  0  0  0
M  END
>  <minimizedAffinity>
-5.93992138

>  <minimizedRMSD>
1.77127981

$$$$
