
 OpenBabel03272506013D

 49 53  0  0  1  0  0  0  0  0999 V2000
   35.2340   30.1290   49.3000 C   0  0  2  0  0  0  0  0  0  0  0  0
   36.1670   31.2150   49.0240 C   0  0  0  0  0  0  0  0  0  0  0  0
   37.6560   30.7560   49.0600 C   0  0  2  0  0  0  0  0  0  0  0  0
   38.0520   30.1730   50.3190 C   0  0  0  0  0  0  0  0  0  0  0  0
   36.9700   29.3020   50.9590 C   0  0  0  0  0  0  0  0  0  0  0  0
   35.9180   28.9270   49.9580 C   0  0  0  0  0  0  0  0  0  0  0  0
   34.4680   30.4380   50.0730 H   0  0  0  0  0  0  0  0  0  0  0  0
   36.1040   31.8460   48.1700 H   0  0  0  0  0  0  0  0  0  0  0  0
   36.1520   31.9260   49.9210 H   0  0  0  0  0  0  0  0  0  0  0  0
   37.8050   30.0820   48.1960 H   0  0  0  0  0  0  0  0  0  0  0  0
   38.9980   29.6080   50.1830 H   0  0  0  0  0  0  0  0  0  0  0  0
   38.2870   30.9410   51.0820 H   0  0  0  0  0  0  0  0  0  0  0  0
   37.4650   28.3520   51.2490 H   0  0  0  0  0  0  0  0  0  0  0  0
   36.5490   29.7360   51.8710 H   0  0  0  0  0  0  0  0  0  0  0  0
   36.3360   28.2760   49.1750 H   0  0  0  0  0  0  0  0  0  0  0  0
   35.1390   28.3440   50.4730 H   0  0  0  0  0  0  0  0  0  0  0  0
   34.4820   29.6110   48.1610 C   0  0  0  0  0  0  0  0  0  0  0  0
   35.0550   29.8970   46.9310 C   0  0  0  0  0  0  0  0  0  0  0  0
   34.4290   29.4300   45.7770 C   0  0  0  0  0  0  0  0  0  0  0  0
   33.2480   28.6940   45.9170 N   0  0  0  0  0  0  0  0  0  0  0  0
   32.7330   28.4440   47.1280 C   0  0  0  0  0  0  0  0  0  0  0  0
   33.3630   28.9080   48.2070 N   0  0  0  0  0  0  0  0  0  0  0  0
   35.9150   30.4180   46.5350 H   0  0  0  0  0  0  0  0  0  0  0  0
   34.6570   29.5090   44.7400 H   0  0  0  0  0  0  0  0  0  0  0  0
   31.5330   27.6970   47.2850 N   0  0  0  0  0  0  0  0  0  0  0  0
   30.5160   27.8030   48.1720 C   0  0  0  0  0  0  0  0  0  0  0  0
   30.4970   28.5550   48.9540 H   0  0  0  0  0  0  0  0  0  0  0  0
   29.6070   26.8380   47.8840 N   0  0  0  0  0  0  0  0  0  0  0  0
   30.0420   26.1300   46.8290 C   0  0  0  0  0  0  0  0  0  0  0  0
   29.5700   25.0480   46.0870 C   0  0  0  0  0  0  0  0  0  0  0  0
   28.6260   24.6040   46.3580 H   0  0  0  0  0  0  0  0  0  0  0  0
   30.2530   24.5390   45.0450 N   0  0  0  0  0  0  0  0  0  0  0  0
   31.4380   25.0770   44.6850 C   0  0  0  0  0  0  0  0  0  0  0  0
   32.0220   24.6940   43.8470 H   0  0  0  0  0  0  0  0  0  0  0  0
   31.8930   26.1130   45.3930 N   0  0  0  0  0  0  0  0  0  0  0  0
   31.2430   26.6600   46.4490 C   0  0  0  0  0  0  0  0  0  0  0  0
   38.5540   31.1190   46.2700 Cl  0  0  0  0  0  0  0  0  0  0  0  0
   38.9170   32.2710   47.5290 C   0  0  0  0  0  0  0  0  0  0  0  0
   38.4050   32.0220   48.7770 C   0  0  0  0  0  0  0  0  0  0  0  0
   38.7040   33.0010   49.7040 C   0  0  0  0  0  0  0  0  0  0  0  0
   39.4480   34.1270   49.4100 C   0  0  0  0  0  0  0  0  0  0  0  0
   39.9360   34.3070   48.1140 C   0  0  0  0  0  0  0  0  0  0  0  0
   39.6560   33.3430   47.1460 C   0  0  0  0  0  0  0  0  0  0  0  0
   38.3270   32.8710   50.7150 H   0  0  0  0  0  0  0  0  0  0  0  0
   39.6470   34.8530   50.1790 H   0  0  0  0  0  0  0  0  0  0  0  0
   40.5220   35.1730   47.8390 H   0  0  0  0  0  0  0  0  0  0  0  0
   40.1540   33.5250   45.8300 N   0  0  0  0  0  0  0  0  0  0  0  0
   40.6710   32.6510   45.5270 H   0  0  0  0  0  0  0  0  0  0  0  0
   40.1070   34.2980   45.1580 H   0  0  0  0  0  0  0  0  0  0  0  0
  1  6  1  0  0  0  0
  1  7  1  1  0  0  0
  2  3  1  0  0  0  0
  2  1  1  0  0  0  0
  2  9  1  0  0  0  0
  3 10  1  6  0  0  0
  3  4  1  0  0  0  0
  4  5  1  0  0  0  0
  4 12  1  0  0  0  0
  5 13  1  0  0  0  0
  5 14  1  0  0  0  0
  6 16  1  0  0  0  0
  6  5  1  0  0  0  0
  8  2  1  0  0  0  0
 11  4  1  0  0  0  0
 15  6  1  0  0  0  0
 17 22  1  0  0  0  0
 17  1  1  0  0  0  0
 18 17  2  0  0  0  0
 19 20  2  0  0  0  0
 19 18  1  0  0  0  0
 20 21  1  0  0  0  0
 21 25  1  0  0  0  0
 21 22  2  0  0  0  0
 23 18  1  0  0  0  0
 24 19  1  0  0  0  0
 25 26  1  0  0  0  0
 26 27  1  0  0  0  0
 28 26  2  0  0  0  0
 29 28  1  0  0  0  0
 30 31  1  0  0  0  0
 30 29  2  0  0  0  0
 32 30  1  0  0  0  0
 33 32  2  0  0  0  0
 33 35  1  0  0  0  0
 34 33  1  0  0  0  0
 35 36  2  0  0  0  0
 36 29  1  0  0  0  0
 36 25  1  0  0  0  0
 37 38  1  0  0  0  0
 38 39  1  0  0  0  0
 39  3  1  0  0  0  0
 39 40  2  0  0  0  0
 40 44  1  0  0  0  0
 41 40  1  0  0  0  0
 41 45  1  0  0  0  0
 42 41  2  0  0  0  0
 43 38  2  0  0  0  0
 43 42  1  0  0  0  0
 46 42  1  0  0  0  0
 47 43  1  0  0  0  0
 48 47  1  0  0  0  0
 49 47  1  0  0  0  0
M  END
>  <minimizedAffinity>
-8.08066845

>  <minimizedRMSD>
1.39769208

$$$$
