
 OpenBabel03272508093D

 27 29  0  0  0  0  0  0  0  0999 V2000
   39.0410   32.8980   48.1770 O   0  0  0  0  0  0  0  0  0  0  0  0
   38.7260   31.8500   47.1520 P   0  0  2  0  0  0  0  0  0  0  0  0
   37.6940   32.5100   45.9630 O   0  0  0  0  0  0  0  0  0  0  0  0
   37.7220   33.4870   46.0270 H   0  0  0  0  0  0  0  0  0  0  0  0
   38.1060   30.4210   47.7740 O   0  0  0  0  0  0  0  0  0  0  0  0
   37.3360   30.2380   51.3900 C   0  0  0  0  0  0  0  0  0  0  0  0
   38.0590   30.5970   50.2470 C   0  0  0  0  0  0  0  0  0  0  0  0
   37.5780   30.1920   49.0110 C   0  0  0  0  0  0  0  0  0  0  0  0
   36.4190   29.4590   48.9660 N   0  0  0  0  0  0  0  0  0  0  0  0
   35.7560   29.1370   50.0990 C   0  0  0  0  0  0  0  0  0  0  0  0
   36.2130   29.5240   51.3010 N   0  0  0  0  0  0  0  0  0  0  0  0
   37.7350   30.5660   52.3280 H   0  0  0  0  0  0  0  0  0  0  0  0
   38.9630   31.1620   50.2110 H   0  0  0  0  0  0  0  0  0  0  0  0
   34.8310   28.5500   50.0220 H   0  0  0  0  0  0  0  0  0  0  0  0
   40.1780   31.4980   46.3390 O   0  0  0  0  0  0  0  0  0  0  0  0
   39.9040   29.0310   45.0600 H   0  0  0  0  0  0  0  0  0  0  0  0
   39.9710   29.8890   44.4710 N   0  0  0  0  0  0  0  0  0  0  0  0
   40.1050   31.1350   44.9910 C   0  0  0  0  0  0  0  0  0  0  0  0
   40.1530   31.9290   43.9020 N   0  0  0  0  0  0  0  0  0  0  0  0
   40.0540   31.2340   42.7740 C   0  0  0  0  0  0  0  0  0  0  0  0
   40.0410   31.4770   41.4130 C   0  0  0  0  0  0  0  0  0  0  0  0
   40.1300   32.4990   41.0790 H   0  0  0  0  0  0  0  0  0  0  0  0
   39.9210   30.4920   40.5130 N   0  0  0  0  0  0  0  0  0  0  0  0
   39.8080   29.2070   40.9400 C   0  0  0  0  0  0  0  0  0  0  0  0
   39.7080   28.3900   40.2090 H   0  0  0  0  0  0  0  0  0  0  0  0
   39.8160   28.9170   42.2550 N   0  0  0  0  0  0  0  0  0  0  0  0
   39.9370   29.9170   43.1410 C   0  0  0  0  0  0  0  0  0  0  0  0
  2  5  1  0  0  0  0
  2  1  2  1  0  0  0
  3  4  1  0  0  0  0
  3  2  1  0  0  0  0
  5  8  1  0  0  0  0
  6 12  1  0  0  0  0
  7  6  2  0  0  0  0
  8  7  1  0  0  0  0
  9  8  2  0  0  0  0
  9 10  1  0  0  0  0
 10 11  2  0  0  0  0
 11  6  1  0  0  0  0
 13  7  1  0  0  0  0
 14 10  1  0  0  0  0
 15  2  1  0  0  0  0
 17 18  1  0  0  0  0
 17 16  1  0  0  0  0
 18 15  1  0  0  0  0
 19 18  2  0  0  0  0
 20 27  1  0  0  0  0
 20 19  1  0  0  0  0
 21 20  2  0  0  0  0
 22 21  1  0  0  0  0
 23 24  2  0  0  0  0
 23 21  1  0  0  0  0
 24 26  1  0  0  0  0
 25 24  1  0  0  0  0
 26 27  2  0  0  0  0
 27 17  1  0  0  0  0
M  END
>  <minimizedAffinity>
-5.81491709

>  <minimizedRMSD>
1.78774226

$$$$
