
 OpenBabel03262523473D

 41 45  0  0  0  0  0  0  0  0999 V2000
   36.8860   32.6100   43.4860 Cl  0  0  0  0  0  0  0  0  0  0  0  0
   37.8180   31.1520   43.1910 C   0  0  0  0  0  0  0  0  0  0  0  0
   38.5630   30.6910   44.2630 C   0  0  0  0  0  0  0  0  0  0  0  0
   39.3400   29.5370   44.1260 C   0  0  0  0  0  0  0  0  0  0  0  0
   39.3660   28.8460   42.9170 C   0  0  0  0  0  0  0  0  0  0  0  0
   38.6140   29.3340   41.8780 C   0  0  0  0  0  0  0  0  0  0  0  0
   37.8400   30.4740   41.9930 C   0  0  0  0  0  0  0  0  0  0  0  0
   39.9380   29.1340   44.9260 H   0  0  0  0  0  0  0  0  0  0  0  0
   39.9700   27.9440   42.8010 H   0  0  0  0  0  0  0  0  0  0  0  0
   38.5830   28.8590   40.9180 H   0  0  0  0  0  0  0  0  0  0  0  0
   37.0450   31.0050   40.9240 N   0  0  0  0  0  0  0  0  0  0  0  0
   37.7010   31.7600   40.0230 C   0  0  0  0  0  0  0  0  0  0  0  0
   38.6940   32.1140   39.8400 H   0  0  0  0  0  0  0  0  0  0  0  0
   36.7690   32.1560   39.1100 N   0  0  0  0  0  0  0  0  0  0  0  0
   35.5720   31.6600   39.4360 C   0  0  0  0  0  0  0  0  0  0  0  0
   34.2700   31.6840   38.9510 C   0  0  0  0  0  0  0  0  0  0  0  0
   34.1040   32.2500   38.0470 H   0  0  0  0  0  0  0  0  0  0  0  0
   33.3140   31.0170   39.6170 N   0  0  0  0  0  0  0  0  0  0  0  0
   33.5440   30.3170   40.7420 C   0  0  0  0  0  0  0  0  0  0  0  0
   32.6860   29.8280   41.1770 H   0  0  0  0  0  0  0  0  0  0  0  0
   34.7860   30.2290   41.3030 N   0  0  0  0  0  0  0  0  0  0  0  0
   35.7340   30.9180   40.6030 C   0  0  0  0  0  0  0  0  0  0  0  0
   38.6830   32.9440   49.7840 Cl  0  0  0  0  0  0  0  0  0  0  0  0
   38.6450   32.2780   48.1600 C   0  0  0  0  0  0  0  0  0  0  0  0
   37.8980   31.1630   47.8780 C   0  0  0  0  0  0  0  0  0  0  0  0
   37.9110   30.6910   46.5870 C   0  0  0  0  0  0  0  0  0  0  0  0
   38.6420   31.3000   45.5920 C   0  0  0  0  0  0  0  0  0  0  0  0
   39.3850   32.4280   45.9180 C   0  0  0  0  0  0  0  0  0  0  0  0
   40.2940   33.1580   44.6110 Cl  0  0  0  0  0  0  0  0  0  0  0  0
   39.3990   32.9290   47.1930 C   0  0  0  0  0  0  0  0  0  0  0  0
   37.3160   29.8090   46.3790 H   0  0  0  0  0  0  0  0  0  0  0  0
   39.9860   33.8130   47.4340 H   0  0  0  0  0  0  0  0  0  0  0  0
   37.0300   29.3620   51.1040 C   0  0  0  0  0  0  0  0  0  0  0  0
   37.7780   29.9280   50.0600 C   0  0  0  0  0  0  0  0  0  0  0  0
   37.1380   30.5590   48.9930 C   0  0  0  0  0  0  0  0  0  0  0  0
   35.7680   30.5970   49.0210 N   0  0  0  0  0  0  0  0  0  0  0  0
   35.0940   30.0390   50.0490 C   0  0  0  0  0  0  0  0  0  0  0  0
   35.6960   29.4390   51.0620 N   0  0  0  0  0  0  0  0  0  0  0  0
   37.5700   28.8860   51.9050 H   0  0  0  0  0  0  0  0  0  0  0  0
   38.8620   29.8730   50.0790 H   0  0  0  0  0  0  0  0  0  0  0  0
   34.0240   30.1320   49.9610 H   0  0  0  0  0  0  0  0  0  0  0  0
  2  1  1  0  0  0  0
  2  3  1  0  0  0  0
  3 27  1  0  0  0  0
  4  3  2  0  0  0  0
  4  8  1  0  0  0  0
  5  4  1  0  0  0  0
  6  7  1  0  0  0  0
  6  5  2  0  0  0  0
  7  2  2  0  0  0  0
  9  5  1  0  0  0  0
 10  6  1  0  0  0  0
 11  7  1  0  0  0  0
 12 11  1  0  0  0  0
 13 12  1  0  0  0  0
 14 15  1  0  0  0  0
 14 12  2  0  0  0  0
 15 22  1  0  0  0  0
 16 15  2  0  0  0  0
 16 18  1  0  0  0  0
 17 16  1  0  0  0  0
 18 19  2  0  0  0  0
 19 20  1  0  0  0  0
 19 21  1  0  0  0  0
 22 11  1  0  0  0  0
 22 21  2  0  0  0  0
 24 23  1  0  0  0  0
 25 24  1  0  0  0  0
 25 35  1  0  0  0  0
 26 25  2  0  0  0  0
 27 28  2  0  0  0  0
 27 26  1  0  0  0  0
 28 30  1  0  0  0  0
 29 28  1  0  0  0  0
 30 32  1  0  0  0  0
 30 24  2  0  0  0  0
 31 26  1  0  0  0  0
 33 39  1  0  0  0  0
 34 40  1  0  0  0  0
 34 33  2  0  0  0  0
 35 36  2  0  0  0  0
 35 34  1  0  0  0  0
 36 37  1  0  0  0  0
 37 38  2  0  0  0  0
 38 33  1  0  0  0  0
 41 37  1  0  0  0  0
M  END
>  <minimizedAffinity>
-6.45740461

>  <minimizedRMSD>
0.464808136

$$$$
