
 OpenBabel03262521103D

 27 29  0  0  0  0  0  0  0  0999 V2000
   35.2420   29.7700   46.1770 O   0  0  0  0  0  0  0  0  0  0  0  0
   34.1600   29.4070   47.1910 P   0  0  1  0  0  0  0  0  0  0  0  0
   34.3260   27.8040   47.6940 O   0  0  0  0  0  0  0  0  0  0  0  0
   34.1670   27.7030   48.6620 H   0  0  0  0  0  0  0  0  0  0  0  0
   34.2670   30.3820   48.6070 O   0  0  0  0  0  0  0  0  0  0  0  0
   35.3510   30.3310   49.4670 C   0  0  0  0  0  0  0  0  0  0  0  0
   35.5180   29.4340   50.5360 C   0  0  0  0  0  0  0  0  0  0  0  0
   36.6730   29.5290   51.2950 C   0  0  0  0  0  0  0  0  0  0  0  0
   37.5990   30.4830   50.9790 N   0  0  0  0  0  0  0  0  0  0  0  0
   37.4070   31.3430   49.9290 C   0  0  0  0  0  0  0  0  0  0  0  0
   36.2790   31.2510   49.1880 N   0  0  0  0  0  0  0  0  0  0  0  0
   34.7030   28.7350   50.6670 H   0  0  0  0  0  0  0  0  0  0  0  0
   36.7760   28.8410   52.0970 H   0  0  0  0  0  0  0  0  0  0  0  0
   38.1940   32.0700   49.7480 H   0  0  0  0  0  0  0  0  0  0  0  0
   32.6870   29.6850   46.4270 O   0  0  0  0  0  0  0  0  0  0  0  0
   32.0520   27.8430   48.5000 H   0  0  0  0  0  0  0  0  0  0  0  0
   31.3110   28.2450   47.9120 N   0  0  0  0  0  0  0  0  0  0  0  0
   31.5100   29.1280   46.9010 C   0  0  0  0  0  0  0  0  0  0  0  0
   30.3090   29.4210   46.3690 N   0  0  0  0  0  0  0  0  0  0  0  0
   29.3550   28.7480   47.0150 C   0  0  0  0  0  0  0  0  0  0  0  0
   27.9830   28.6000   46.9780 C   0  0  0  0  0  0  0  0  0  0  0  0
   27.4510   29.1720   46.2220 H   0  0  0  0  0  0  0  0  0  0  0  0
   27.3410   27.7780   47.8480 N   0  0  0  0  0  0  0  0  0  0  0  0
   28.0080   27.0830   48.7700 C   0  0  0  0  0  0  0  0  0  0  0  0
   27.5460   26.4120   49.4910 H   0  0  0  0  0  0  0  0  0  0  0  0
   29.3640   27.1540   48.8970 N   0  0  0  0  0  0  0  0  0  0  0  0
   29.9740   27.9880   48.0080 C   0  0  0  0  0  0  0  0  0  0  0  0
  2  1  2  6  0  0  0
  2  3  1  0  0  0  0
  2  5  1  0  0  0  0
  3  4  1  0  0  0  0
  5  6  1  0  0  0  0
  6  7  1  0  0  0  0
  7 12  1  0  0  0  0
  7  8  2  0  0  0  0
  8 13  1  0  0  0  0
  9  8  1  0  0  0  0
 10  9  2  0  0  0  0
 11  6  2  0  0  0  0
 11 10  1  0  0  0  0
 14 10  1  0  0  0  0
 15 18  1  0  0  0  0
 15  2  1  0  0  0  0
 17 27  1  0  0  0  0
 17 16  1  0  0  0  0
 18 17  1  0  0  0  0
 19 18  2  0  0  0  0
 19 20  1  0  0  0  0
 20 27  1  0  0  0  0
 21 20  2  0  0  0  0
 21 23  1  0  0  0  0
 22 21  1  0  0  0  0
 23 24  2  0  0  0  0
 24 26  1  0  0  0  0
 24 25  1  0  0  0  0
 27 26  2  0  0  0  0
M  END
>  <minimizedAffinity>
-4.69590235

>  <minimizedRMSD>
3.09202051

$$$$
