
 OpenBabel03272506553D

 23 25  0  0  0  0  0  0  0  0999 V2000
   35.9410   29.1050   50.1880 C   0  0  0  0  0  0  0  0  0  0  0  0
   36.3730   30.3170   49.6150 C   0  0  0  0  0  0  0  0  0  0  0  0
   35.7690   30.6630   48.3770 C   0  0  0  0  0  0  0  0  0  0  0  0
   34.8380   29.8160   47.8460 N   0  0  0  0  0  0  0  0  0  0  0  0
   34.4750   28.6770   48.4480 C   0  0  0  0  0  0  0  0  0  0  0  0
   35.0150   28.2990   49.6240 N   0  0  0  0  0  0  0  0  0  0  0  0
   36.3830   28.8030   51.1420 H   0  0  0  0  0  0  0  0  0  0  0  0
   36.0690   31.5720   47.9130 H   0  0  0  0  0  0  0  0  0  0  0  0
   33.4860   27.9550   47.7080 N   0  0  0  0  0  0  0  0  0  0  0  0
   33.6060   27.3970   46.4870 C   0  0  0  0  0  0  0  0  0  0  0  0
   34.5300   27.4420   45.9010 H   0  0  0  0  0  0  0  0  0  0  0  0
   32.4450   26.8090   46.1460 N   0  0  0  0  0  0  0  0  0  0  0  0
   31.5510   26.9820   47.1550 C   0  0  0  0  0  0  0  0  0  0  0  0
   30.2410   26.5520   47.2430 C   0  0  0  0  0  0  0  0  0  0  0  0
   29.7740   25.9990   46.4640 H   0  0  0  0  0  0  0  0  0  0  0  0
   29.5980   26.8900   48.3990 N   0  0  0  0  0  0  0  0  0  0  0  0
   30.2420   27.5950   49.3580 C   0  0  0  0  0  0  0  0  0  0  0  0
   29.6970   27.8460   50.2690 H   0  0  0  0  0  0  0  0  0  0  0  0
   31.5060   27.9820   49.2160 N   0  0  0  0  0  0  0  0  0  0  0  0
   32.2330   27.7110   48.1330 C   0  0  0  0  0  0  0  0  0  0  0  0
   37.3540   31.1290   50.2550 N   0  0  0  0  0  0  0  0  0  0  0  0
   37.2030   31.3350   51.2830 H   0  0  0  0  0  0  0  0  0  0  0  0
   38.1690   31.4870   49.7110 H   0  0  0  0  0  0  0  0  0  0  0  0
  1  7  1  0  0  0  0
  2  1  2  0  0  0  0
  2 21  1  0  0  0  0
  3  2  1  0  0  0  0
  4  3  2  0  0  0  0
  4  5  1  0  0  0  0
  5  6  2  0  0  0  0
  6  1  1  0  0  0  0
  8  3  1  0  0  0  0
  9 20  1  0  0  0  0
  9  5  1  0  0  0  0
 10  9  1  0  0  0  0
 11 10  1  0  0  0  0
 12 10  2  0  0  0  0
 12 13  1  0  0  0  0
 13 14  2  0  0  0  0
 13 20  1  0  0  0  0
 14 16  1  0  0  0  0
 15 14  1  0  0  0  0
 16 17  2  0  0  0  0
 17 18  1  0  0  0  0
 19 17  1  0  0  0  0
 20 19  2  0  0  0  0
 21 22  1  0  0  0  0
 23 21  1  0  0  0  0
M  END
>  <minimizedAffinity>
-4.10961628

>  <minimizedRMSD>
2.20739961

$$$$
