
 OpenBabel03272509313D

 41 44  0  0  1  0  0  0  0  0999 V2000
   36.3580   30.6950   49.0420 C   0  0  2  0  0  0  0  0  0  0  0  0
   37.3460   31.4980   49.8350 C   0  0  0  0  0  0  0  0  0  0  0  0
   38.1590   30.6520   50.7900 C   0  0  0  0  0  0  0  0  0  0  0  0
   37.2440   29.8750   51.7340 C   0  0  0  0  0  0  0  0  0  0  0  0
   35.9690   29.3910   51.0870 C   0  0  0  0  0  0  0  0  0  0  0  0
   36.2120   29.3070   49.5680 C   0  0  1  0  0  0  0  0  0  0  0  0
   35.3070   31.1220   49.0690 H   0  0  0  0  0  0  0  0  0  0  0  0
   37.9590   32.2000   49.3040 H   0  0  0  0  0  0  0  0  0  0  0  0
   36.7010   32.1370   50.5270 H   0  0  0  0  0  0  0  0  0  0  0  0
   38.7780   31.3530   51.3670 H   0  0  0  0  0  0  0  0  0  0  0  0
   38.7920   29.9070   50.2870 H   0  0  0  0  0  0  0  0  0  0  0  0
   37.0710   30.5350   52.6000 H   0  0  0  0  0  0  0  0  0  0  0  0
   37.7880   28.9800   52.1010 H   0  0  0  0  0  0  0  0  0  0  0  0
   35.6430   28.4270   51.4860 H   0  0  0  0  0  0  0  0  0  0  0  0
   35.2120   30.1920   51.2160 H   0  0  0  0  0  0  0  0  0  0  0  0
   37.1390   28.7860   49.5630 H   0  0  0  0  0  0  0  0  0  0  0  0
   36.7480   30.6300   47.6110 C   0  0  0  0  0  0  0  0  0  0  0  0
   38.1120   30.8270   47.3430 C   0  0  0  0  0  0  0  0  0  0  0  0
   38.5090   30.7690   46.0020 C   0  0  0  0  0  0  0  0  0  0  0  0
   37.5500   30.5230   45.0420 N   0  0  0  0  0  0  0  0  0  0  0  0
   36.2320   30.3350   45.3570 C   0  0  0  0  0  0  0  0  0  0  0  0
   35.8530   30.3940   46.6450 N   0  0  0  0  0  0  0  0  0  0  0  0
   38.9530   31.0150   47.9800 H   0  0  0  0  0  0  0  0  0  0  0  0
   39.5130   30.9000   45.6460 H   0  0  0  0  0  0  0  0  0  0  0  0
   35.5700   30.1500   44.5290 H   0  0  0  0  0  0  0  0  0  0  0  0
   33.9010   28.3750   49.0820 C   0  0  0  0  0  0  0  0  0  0  0  0
   33.1170   28.9940   49.8860 O   0  0  0  0  0  0  0  0  0  0  0  0
   35.2960   28.4890   48.8570 N   0  0  0  0  0  0  0  0  0  0  0  0
   35.6510   27.8760   48.0550 H   0  0  0  0  0  0  0  0  0  0  0  0
   34.6050   25.9500   47.6620 H   0  0  0  0  0  0  0  0  0  0  0  0
   33.5970   26.2880   47.6820 N   0  0  0  0  0  0  0  0  0  0  0  0
   33.1100   27.3950   48.2980 C   0  0  0  0  0  0  0  0  0  0  0  0
   31.8250   27.3190   47.9980 N   0  0  0  0  0  0  0  0  0  0  0  0
   31.4900   26.2740   47.2610 C   0  0  0  0  0  0  0  0  0  0  0  0
   30.3020   25.8210   46.7380 C   0  0  0  0  0  0  0  0  0  0  0  0
   29.3850   26.3940   46.9260 H   0  0  0  0  0  0  0  0  0  0  0  0
   30.3430   24.6710   46.0080 N   0  0  0  0  0  0  0  0  0  0  0  0
   31.4850   24.0070   45.8050 C   0  0  0  0  0  0  0  0  0  0  0  0
   31.5060   23.0920   45.2220 H   0  0  0  0  0  0  0  0  0  0  0  0
   32.6500   24.4560   46.3210 N   0  0  0  0  0  0  0  0  0  0  0  0
   32.6530   25.5860   47.0470 C   0  0  0  0  0  0  0  0  0  0  0  0
  1  7  1  1  0  0  0
  1  6  1  0  0  0  0
  1  2  1  0  0  0  0
  2  9  1  0  0  0  0
  2  3  1  0  0  0  0
  3 10  1  0  0  0  0
  3  4  1  0  0  0  0
  4 13  1  0  0  0  0
  4 12  1  0  0  0  0
  5 15  1  0  0  0  0
  5 14  1  0  0  0  0
  5  4  1  0  0  0  0
  6 16  1  6  0  0  0
  6  5  1  0  0  0  0
  8  2  1  0  0  0  0
 11  3  1  0  0  0  0
 17  1  1  0  0  0  0
 18 17  1  0  0  0  0
 18 23  1  0  0  0  0
 19 18  2  0  0  0  0
 20 21  2  0  0  0  0
 20 19  1  0  0  0  0
 21 22  1  0  0  0  0
 22 17  2  0  0  0  0
 24 19  1  0  0  0  0
 25 21  1  0  0  0  0
 26 27  2  0  0  0  0
 28 26  1  0  0  0  0
 28  6  1  0  0  0  0
 29 28  1  0  0  0  0
 30 31  1  0  0  0  0
 31 32  1  0  0  0  0
 32 26  1  0  0  0  0
 33 32  2  0  0  0  0
 34 33  1  0  0  0  0
 35 36  1  0  0  0  0
 35 34  2  0  0  0  0
 37 35  1  0  0  0  0
 38 37  2  0  0  0  0
 38 40  1  0  0  0  0
 39 38  1  0  0  0  0
 40 41  2  0  0  0  0
 41 34  1  0  0  0  0
 41 31  1  0  0  0  0
M  END
>  <minimizedAffinity>
-6.07487726

>  <minimizedRMSD>
0.6014871

$$$$
