
 OpenBabel03272506383D

 40 43  0  0  1  0  0  0  0  0999 V2000
   34.6900   28.7190   50.1020 O   0  0  0  0  0  0  0  0  0  0  0  0
   34.4790   29.0440   48.9230 C   0  0  0  0  0  0  0  0  0  0  0  0
   35.2220   30.1120   48.2860 C   0  0  2  0  0  0  0  0  0  0  0  0
   34.7240   29.9740   46.8100 C   0  0  0  0  0  0  0  0  0  0  0  0
   33.3590   29.3750   46.9740 C   0  0  0  0  0  0  0  0  0  0  0  0
   33.5010   28.4200   48.0610 N   0  0  0  0  0  0  0  0  0  0  0  0
   35.0260   31.1370   48.6120 H   0  0  0  0  0  0  0  0  0  0  0  0
   35.4160   29.3580   46.2370 H   0  0  0  0  0  0  0  0  0  0  0  0
   34.7460   30.9870   46.3930 H   0  0  0  0  0  0  0  0  0  0  0  0
   32.5630   30.1040   47.1090 H   0  0  0  0  0  0  0  0  0  0  0  0
   33.1390   28.7650   46.0590 H   0  0  0  0  0  0  0  0  0  0  0  0
   32.8260   27.1530   48.2310 C   0  0  0  0  0  0  0  0  0  0  0  0
   33.0290   26.4720   47.3960 H   0  0  0  0  0  0  0  0  0  0  0  0
   33.3050   26.6810   49.1390 H   0  0  0  0  0  0  0  0  0  0  0  0
   31.4320   27.3050   48.5210 N   0  0  0  0  0  0  0  0  0  0  0  0
   30.8760   27.9870   49.5630 C   0  0  0  0  0  0  0  0  0  0  0  0
   31.4880   28.4980   50.2950 H   0  0  0  0  0  0  0  0  0  0  0  0
   29.5160   27.9180   49.5220 N   0  0  0  0  0  0  0  0  0  0  0  0
   29.1850   27.1820   48.4390 C   0  0  0  0  0  0  0  0  0  0  0  0
   27.9640   26.7930   47.9160 C   0  0  0  0  0  0  0  0  0  0  0  0
   27.0750   27.1090   48.4260 H   0  0  0  0  0  0  0  0  0  0  0  0
   28.0150   26.0460   46.8020 N   0  0  0  0  0  0  0  0  0  0  0  0
   29.1740   25.6830   46.2080 C   0  0  0  0  0  0  0  0  0  0  0  0
   29.0760   25.0770   45.3100 H   0  0  0  0  0  0  0  0  0  0  0  0
   30.3670   26.0490   46.6990 N   0  0  0  0  0  0  0  0  0  0  0  0
   30.3690   26.8090   47.8310 C   0  0  0  0  0  0  0  0  0  0  0  0
   36.6320   29.8970   48.2350 O   0  0  0  0  0  0  0  0  0  0  0  0
   37.4540   31.0190   48.2840 C   0  0  0  0  0  0  0  0  0  0  0  0
   37.6190   31.6150   49.5210 C   0  0  0  0  0  0  0  0  0  0  0  0
   38.4330   32.7380   49.6040 C   0  0  0  0  0  0  0  0  0  0  0  0
   39.0290   33.1990   48.4710 N   0  0  0  0  0  0  0  0  0  0  0  0
   38.8590   32.6080   47.2790 C   0  0  0  0  0  0  0  0  0  0  0  0
   38.0820   31.5400   47.2140 N   0  0  0  0  0  0  0  0  0  0  0  0
   40.3670   32.1730   45.5010 C   0  0  0  0  0  0  0  0  0  0  0  0
   40.6140   30.9940   45.8650 O   0  0  0  0  0  0  0  0  0  0  0  0
   39.4980   33.1220   46.1140 N   0  0  0  0  0  0  0  0  0  0  0  0
   37.1680   31.2840   50.4370 H   0  0  0  0  0  0  0  0  0  0  0  0
   38.5830   33.2270   50.5550 H   0  0  0  0  0  0  0  0  0  0  0  0
   40.9300   32.4060   44.6020 H   0  0  0  0  0  0  0  0  0  0  0  0
   39.3930   34.0570   45.7020 H   0  0  0  0  0  0  0  0  0  0  0  0
  2  1  2  0  0  0  0
  3  7  1  1  0  0  0
  3  2  1  0  0  0  0
  4  5  1  0  0  0  0
  4  3  1  0  0  0  0
  5 10  1  0  0  0  0
  5  6  1  0  0  0  0
  6 12  1  0  0  0  0
  6  2  1  0  0  0  0
  8  4  1  0  0  0  0
  9  4  1  0  0  0  0
 11  5  1  0  0  0  0
 12 15  1  0  0  0  0
 12 14  1  0  0  0  0
 13 12  1  0  0  0  0
 15 16  1  0  0  0  0
 16 17  1  0  0  0  0
 18 16  2  0  0  0  0
 19 18  1  0  0  0  0
 20 21  1  0  0  0  0
 20 19  1  0  0  0  0
 22 20  2  0  0  0  0
 23 25  2  0  0  0  0
 23 22  1  0  0  0  0
 24 23  1  0  0  0  0
 25 26  1  0  0  0  0
 26 19  2  0  0  0  0
 26 15  1  0  0  0  0
 27 28  1  0  0  0  0
 27  3  1  0  0  0  0
 28 29  1  0  0  0  0
 29 30  2  0  0  0  0
 29 37  1  0  0  0  0
 30 38  1  0  0  0  0
 31 30  1  0  0  0  0
 32 31  2  0  0  0  0
 33 32  1  0  0  0  0
 33 28  2  0  0  0  0
 34 35  2  0  0  0  0
 34 36  1  0  0  0  0
 36 32  1  0  0  0  0
 39 34  1  0  0  0  0
 40 36  1  0  0  0  0
M  END
>  <minimizedAffinity>
-6.39050627

>  <minimizedRMSD>
1.12668967

$$$$
