
 OpenBabel03272506013D

 49 53  0  0  1  0  0  0  0  0999 V2000
   34.2440   29.3700   47.8950 C   0  0  2  0  0  0  0  0  0  0  0  0
   35.2220   30.4470   47.9980 C   0  0  0  0  0  0  0  0  0  0  0  0
   36.5850   29.9700   48.5860 C   0  0  2  0  0  0  0  0  0  0  0  0
   36.4740   29.3770   49.8970 C   0  0  0  0  0  0  0  0  0  0  0  0
   35.2230   28.5140   50.0760 C   0  0  0  0  0  0  0  0  0  0  0  0
   34.6210   28.1560   48.7510 C   0  0  0  0  0  0  0  0  0  0  0  0
   33.2470   29.6830   48.3270 H   0  0  0  0  0  0  0  0  0  0  0  0
   35.4890   31.0830   47.1890 H   0  0  0  0  0  0  0  0  0  0  0  0
   34.8770   31.1530   48.8310 H   0  0  0  0  0  0  0  0  0  0  0  0
   37.0410   29.2990   47.8350 H   0  0  0  0  0  0  0  0  0  0  0  0
   37.3970   28.8010   50.1190 H   0  0  0  0  0  0  0  0  0  0  0  0
   36.4130   30.1380   50.6990 H   0  0  0  0  0  0  0  0  0  0  0  0
   35.5650   27.5580   50.5220 H   0  0  0  0  0  0  0  0  0  0  0  0
   34.4950   28.9490   50.7680 H   0  0  0  0  0  0  0  0  0  0  0  0
   35.2970   27.5050   48.1750 H   0  0  0  0  0  0  0  0  0  0  0  0
   33.7000   27.5800   48.9310 H   0  0  0  0  0  0  0  0  0  0  0  0
   33.9690   28.8660   46.5520 C   0  0  0  0  0  0  0  0  0  0  0  0
   34.2480   29.7740   45.5420 C   0  0  0  0  0  0  0  0  0  0  0  0
   34.0420   29.3880   44.2190 C   0  0  0  0  0  0  0  0  0  0  0  0
   33.5610   28.0980   43.9750 N   0  0  0  0  0  0  0  0  0  0  0  0
   33.3060   27.2560   44.9850 C   0  0  0  0  0  0  0  0  0  0  0  0
   33.5180   27.6650   46.2360 N   0  0  0  0  0  0  0  0  0  0  0  0
   34.6070   30.7880   45.4350 H   0  0  0  0  0  0  0  0  0  0  0  0
   34.1740   29.8820   43.2860 H   0  0  0  0  0  0  0  0  0  0  0  0
   32.8170   25.9420   44.7510 N   0  0  0  0  0  0  0  0  0  0  0  0
   31.7410   25.4890   44.0660 C   0  0  0  0  0  0  0  0  0  0  0  0
   31.0480   26.1530   43.5580 H   0  0  0  0  0  0  0  0  0  0  0  0
   31.7270   24.1350   44.1520 N   0  0  0  0  0  0  0  0  0  0  0  0
   32.7820   23.7350   44.8830 C   0  0  0  0  0  0  0  0  0  0  0  0
   33.2960   22.5100   45.3100 C   0  0  0  0  0  0  0  0  0  0  0  0
   32.7830   21.6060   45.0320 H   0  0  0  0  0  0  0  0  0  0  0  0
   34.4110   22.4220   46.0590 N   0  0  0  0  0  0  0  0  0  0  0  0
   35.0730   23.5430   46.4220 C   0  0  0  0  0  0  0  0  0  0  0  0
   35.9800   23.5130   47.0270 H   0  0  0  0  0  0  0  0  0  0  0  0
   34.5840   24.7150   46.0130 N   0  0  0  0  0  0  0  0  0  0  0  0
   33.4670   24.8560   45.2600 C   0  0  0  0  0  0  0  0  0  0  0  0
   38.0760   30.5940   46.1140 Cl  0  0  0  0  0  0  0  0  0  0  0  0
   38.1710   31.5900   47.5440 C   0  0  0  0  0  0  0  0  0  0  0  0
   37.3960   31.2290   48.6160 C   0  0  0  0  0  0  0  0  0  0  0  0
   37.4990   32.0910   49.6900 C   0  0  0  0  0  0  0  0  0  0  0  0
   38.3060   33.2120   49.6930 C   0  0  0  0  0  0  0  0  0  0  0  0
   39.0680   33.5110   48.5600 C   0  0  0  0  0  0  0  0  0  0  0  0
   38.9920   32.6670   47.4520 C   0  0  0  0  0  0  0  0  0  0  0  0
   36.9090   31.8690   50.5740 H   0  0  0  0  0  0  0  0  0  0  0  0
   38.3420   33.8440   50.5630 H   0  0  0  0  0  0  0  0  0  0  0  0
   39.7130   34.3780   48.5180 H   0  0  0  0  0  0  0  0  0  0  0  0
   39.7680   32.9690   46.3040 N   0  0  0  0  0  0  0  0  0  0  0  0
   40.3260   32.1130   46.0240 H   0  0  0  0  0  0  0  0  0  0  0  0
   39.8810   33.8110   45.7300 H   0  0  0  0  0  0  0  0  0  0  0  0
  1  2  1  0  0  0  0
  1  7  1  1  0  0  0
  1  6  1  0  0  0  0
  2  3  1  0  0  0  0
  2  9  1  0  0  0  0
  3 10  1  6  0  0  0
  3 39  1  0  0  0  0
  3  4  1  0  0  0  0
  4  5  1  0  0  0  0
  4 11  1  0  0  0  0
  4 12  1  0  0  0  0
  5 13  1  0  0  0  0
  5 14  1  0  0  0  0
  6 16  1  0  0  0  0
  6  5  1  0  0  0  0
  8  2  1  0  0  0  0
 15  6  1  0  0  0  0
 17  1  1  0  0  0  0
 18 17  2  0  0  0  0
 19 18  1  0  0  0  0
 20 19  2  0  0  0  0
 20 21  1  0  0  0  0
 21 22  2  0  0  0  0
 22 17  1  0  0  0  0
 23 18  1  0  0  0  0
 24 19  1  0  0  0  0
 25 21  1  0  0  0  0
 25 36  1  0  0  0  0
 26 28  2  0  0  0  0
 26 25  1  0  0  0  0
 27 26  1  0  0  0  0
 28 29  1  0  0  0  0
 29 36  2  0  0  0  0
 29 30  1  0  0  0  0
 30 32  2  0  0  0  0
 31 30  1  0  0  0  0
 32 33  1  0  0  0  0
 33 34  1  0  0  0  0
 35 33  2  0  0  0  0
 36 35  1  0  0  0  0
 37 38  1  0  0  0  0
 38 39  1  0  0  0  0
 39 40  2  0  0  0  0
 40 41  1  0  0  0  0
 40 44  1  0  0  0  0
 41 45  1  0  0  0  0
 42 41  2  0  0  0  0
 43 38  2  0  0  0  0
 43 42  1  0  0  0  0
 46 42  1  0  0  0  0
 47 43  1  0  0  0  0
 48 47  1  0  0  0  0
 49 47  1  0  0  0  0
M  END
>  <minimizedAffinity>
-6.99609232

>  <minimizedRMSD>
3.07578444

$$$$
