
 OpenBabel03272509183D

 36 39  0  0  0  0  0  0  0  0999 V2000
   37.9210   31.3770   47.7640 C   0  0  0  0  0  0  0  0  0  0  0  0
   36.9950   31.2920   48.7980 C   0  0  0  0  0  0  0  0  0  0  0  0
   37.0720   32.3270   49.7430 C   0  0  0  0  0  0  0  0  0  0  0  0
   38.0270   33.3540   49.6170 C   0  0  0  0  0  0  0  0  0  0  0  0
   38.9170   33.3430   48.5290 C   0  0  0  0  0  0  0  0  0  0  0  0
   38.8440   32.3310   47.6030 C   0  0  0  0  0  0  0  0  0  0  0  0
   36.3770   32.2910   50.5480 H   0  0  0  0  0  0  0  0  0  0  0  0
   38.0290   34.1120   50.3740 H   0  0  0  0  0  0  0  0  0  0  0  0
   39.5960   34.1670   48.5330 H   0  0  0  0  0  0  0  0  0  0  0  0
   34.8790   30.2480   48.1270 C   0  0  0  0  0  0  0  0  0  0  0  0
   36.0240   30.2420   48.9210 C   0  0  0  0  0  0  0  0  0  0  0  0
   36.1850   29.1840   49.8310 C   0  0  0  0  0  0  0  0  0  0  0  0
   35.2090   28.2350   49.8740 N   0  0  0  0  0  0  0  0  0  0  0  0
   34.1090   28.2820   49.0800 C   0  0  0  0  0  0  0  0  0  0  0  0
   33.9450   29.2910   48.2050 N   0  0  0  0  0  0  0  0  0  0  0  0
   34.6830   31.0380   47.3960 H   0  0  0  0  0  0  0  0  0  0  0  0
   33.4710   27.4260   49.2860 H   0  0  0  0  0  0  0  0  0  0  0  0
   37.3760   29.1230   50.6970 C   0  0  0  0  0  0  0  0  0  0  0  0
   38.2280   28.5920   50.2170 H   0  0  0  0  0  0  0  0  0  0  0  0
   37.7570   30.1640   50.8940 H   0  0  0  0  0  0  0  0  0  0  0  0
   37.1010   28.7160   51.6940 H   0  0  0  0  0  0  0  0  0  0  0  0
   37.9060   30.3770   46.7800 O   0  0  0  0  0  0  0  0  0  0  0  0
   38.2440   29.4440   46.9610 H   0  0  0  0  0  0  0  0  0  0  0  0
   39.7450   32.3670   46.5490 O   0  0  0  0  0  0  0  0  0  0  0  0
   37.1130   32.7060   45.7120 H   0  0  0  0  0  0  0  0  0  0  0  0
   37.9260   32.6480   45.0500 N   0  0  0  0  0  0  0  0  0  0  0  0
   39.2460   32.4880   45.2590 C   0  0  0  0  0  0  0  0  0  0  0  0
   39.8840   32.4770   44.0730 N   0  0  0  0  0  0  0  0  0  0  0  0
   38.9680   32.6310   43.0730 C   0  0  0  0  0  0  0  0  0  0  0  0
   39.1160   32.6840   41.6900 C   0  0  0  0  0  0  0  0  0  0  0  0
   40.0880   32.5980   41.2300 H   0  0  0  0  0  0  0  0  0  0  0  0
   37.9790   32.8500   40.9540 N   0  0  0  0  0  0  0  0  0  0  0  0
   36.7930   32.9520   41.5820 C   0  0  0  0  0  0  0  0  0  0  0  0
   35.9340   33.0810   40.9260 H   0  0  0  0  0  0  0  0  0  0  0  0
   36.6290   32.9010   42.9350 N   0  0  0  0  0  0  0  0  0  0  0  0
   37.7300   32.7370   43.7150 C   0  0  0  0  0  0  0  0  0  0  0  0
  1  2  1  0  0  0  0
  2 11  1  0  0  0  0
  2  3  2  0  0  0  0
  3  7  1  0  0  0  0
  4  3  1  0  0  0  0
  4  8  1  0  0  0  0
  5  9  1  0  0  0  0
  5  4  2  0  0  0  0
  6  1  2  0  0  0  0
  6  5  1  0  0  0  0
 10 15  2  0  0  0  0
 10 11  1  0  0  0  0
 11 12  2  0  0  0  0
 12 13  1  0  0  0  0
 12 18  1  0  0  0  0
 14 17  1  0  0  0  0
 14 13  2  0  0  0  0
 15 14  1  0  0  0  0
 16 10  1  0  0  0  0
 18 20  1  0  0  0  0
 18 21  1  0  0  0  0
 19 18  1  0  0  0  0
 22 23  1  0  0  0  0
 22  1  1  0  0  0  0
 24  6  1  0  0  0  0
 26 27  1  0  0  0  0
 26 25  1  0  0  0  0
 27 24  1  0  0  0  0
 28 27  2  0  0  0  0
 29 36  1  0  0  0  0
 29 28  1  0  0  0  0
 30 29  2  0  0  0  0
 31 30  1  0  0  0  0
 32 33  2  0  0  0  0
 32 30  1  0  0  0  0
 33 35  1  0  0  0  0
 34 33  1  0  0  0  0
 35 36  2  0  0  0  0
 36 26  1  0  0  0  0
M  END
>  <minimizedAffinity>
-7.1206069

>  <minimizedRMSD>
0.174339607

$$$$
