
 OpenBabel03272504173D

 29 31  0  0  0  0  0  0  0  0999 V2000
   35.4040   29.5690   45.9360 O   0  0  0  0  0  0  0  0  0  0  0  0
   34.3740   29.4140   47.0390 P   0  0  1  0  0  0  0  0  0  0  0  0
   34.4630   27.8840   47.7520 O   0  0  0  0  0  0  0  0  0  0  0  0
   33.5990   27.4180   47.6440 H   0  0  0  0  0  0  0  0  0  0  0  0
   34.6100   30.5690   48.2980 O   0  0  0  0  0  0  0  0  0  0  0  0
   35.7560   30.5780   49.0800 C   0  0  0  0  0  0  0  0  0  0  0  0
   35.9450   29.9060   50.2850 C   0  0  0  0  0  0  0  0  0  0  0  0
   37.1710   30.0340   50.9310 C   0  0  0  0  0  0  0  0  0  0  0  0
   38.1450   30.8090   50.3760 N   0  0  0  0  0  0  0  0  0  0  0  0
   37.9150   31.4480   49.1940 C   0  0  0  0  0  0  0  0  0  0  0  0
   36.7280   31.3430   48.5360 N   0  0  0  0  0  0  0  0  0  0  0  0
   37.2650   29.4920   51.8630 H   0  0  0  0  0  0  0  0  0  0  0  0
   38.7370   32.0560   48.7990 H   0  0  0  0  0  0  0  0  0  0  0  0
   34.8360   29.1510   50.7160 N   0  0  0  0  0  0  0  0  0  0  0  0
   34.7720   28.1090   50.5190 H   0  0  0  0  0  0  0  0  0  0  0  0
   34.1390   29.7160   51.2170 H   0  0  0  0  0  0  0  0  0  0  0  0
   32.8810   29.6690   46.2950 O   0  0  0  0  0  0  0  0  0  0  0  0
   30.1590   30.4350   45.9570 H   0  0  0  0  0  0  0  0  0  0  0  0
   30.3950   29.6300   46.5640 N   0  0  0  0  0  0  0  0  0  0  0  0
   31.6680   29.2370   46.7510 C   0  0  0  0  0  0  0  0  0  0  0  0
   31.6440   28.1660   47.5920 N   0  0  0  0  0  0  0  0  0  0  0  0
   30.3420   27.9410   47.8930 C   0  0  0  0  0  0  0  0  0  0  0  0
   29.6700   27.0120   48.6850 C   0  0  0  0  0  0  0  0  0  0  0  0
   30.2910   26.2810   49.1980 H   0  0  0  0  0  0  0  0  0  0  0  0
   28.3350   26.9960   48.8260 N   0  0  0  0  0  0  0  0  0  0  0  0
   27.5880   27.9020   48.1880 C   0  0  0  0  0  0  0  0  0  0  0  0
   26.5110   27.8690   48.3170 H   0  0  0  0  0  0  0  0  0  0  0  0
   28.1940   28.8330   47.4000 N   0  0  0  0  0  0  0  0  0  0  0  0
   29.5310   28.8610   47.2510 C   0  0  0  0  0  0  0  0  0  0  0  0
  2  1  2  6  0  0  0
  2  3  1  0  0  0  0
  2  5  1  0  0  0  0
  4  3  1  0  0  0  0
  5  6  1  0  0  0  0
  6  7  1  0  0  0  0
  7 14  1  0  0  0  0
  7  8  2  0  0  0  0
  8 12  1  0  0  0  0
  9  8  1  0  0  0  0
 10  9  2  0  0  0  0
 11  6  2  0  0  0  0
 11 10  1  0  0  0  0
 13 10  1  0  0  0  0
 14 16  1  0  0  0  0
 15 14  1  0  0  0  0
 17 20  1  0  0  0  0
 17  2  1  0  0  0  0
 18 19  1  0  0  0  0
 19 20  1  0  0  0  0
 19 29  1  0  0  0  0
 20 21  2  0  0  0  0
 21 22  1  0  0  0  0
 22 23  1  0  0  0  0
 23 25  2  0  0  0  0
 23 24  1  0  0  0  0
 26 27  1  0  0  0  0
 26 25  1  0  0  0  0
 28 26  2  0  0  0  0
 29 28  1  0  0  0  0
 29 22  2  0  0  0  0
M  END
>  <minimizedAffinity>
-4.66515827

>  <minimizedRMSD>
1.69911671

$$$$
