
 OpenBabel03272509193D

 36 39  0  0  0  0  0  0  0  0999 V2000
   37.9120   31.3670   47.6950 C   0  0  0  0  0  0  0  0  0  0  0  0
   37.0580   31.3280   48.7930 C   0  0  0  0  0  0  0  0  0  0  0  0
   37.2320   32.3770   49.7100 C   0  0  0  0  0  0  0  0  0  0  0  0
   38.2070   33.3710   49.4970 C   0  0  0  0  0  0  0  0  0  0  0  0
   39.0180   33.3140   48.3510 C   0  0  0  0  0  0  0  0  0  0  0  0
   38.8500   32.2880   47.4520 C   0  0  0  0  0  0  0  0  0  0  0  0
   36.5950   32.3770   50.5610 H   0  0  0  0  0  0  0  0  0  0  0  0
   38.2840   34.1420   50.2380 H   0  0  0  0  0  0  0  0  0  0  0  0
   39.7190   34.1150   48.2910 H   0  0  0  0  0  0  0  0  0  0  0  0
   34.8850   30.3200   48.2650 C   0  0  0  0  0  0  0  0  0  0  0  0
   36.0670   30.3120   49.0030 C   0  0  0  0  0  0  0  0  0  0  0  0
   36.2450   29.2840   49.9440 C   0  0  0  0  0  0  0  0  0  0  0  0
   35.2470   28.3660   50.0720 N   0  0  0  0  0  0  0  0  0  0  0  0
   34.1110   28.4140   49.3300 C   0  0  0  0  0  0  0  0  0  0  0  0
   33.9310   29.3940   48.4260 N   0  0  0  0  0  0  0  0  0  0  0  0
   34.6750   31.0870   47.5140 H   0  0  0  0  0  0  0  0  0  0  0  0
   33.4620   27.5840   49.6000 H   0  0  0  0  0  0  0  0  0  0  0  0
   37.4740   29.2230   50.7540 C   0  0  0  0  0  0  0  0  0  0  0  0
   38.2880   28.6510   50.2550 H   0  0  0  0  0  0  0  0  0  0  0  0
   37.8920   30.2600   50.8920 H   0  0  0  0  0  0  0  0  0  0  0  0
   37.2390   28.8620   51.7790 H   0  0  0  0  0  0  0  0  0  0  0  0
   37.7980   30.3510   46.7340 O   0  0  0  0  0  0  0  0  0  0  0  0
   38.1200   29.4110   46.9100 H   0  0  0  0  0  0  0  0  0  0  0  0
   39.6750   32.2770   46.3380 O   0  0  0  0  0  0  0  0  0  0  0  0
   40.8720   33.3300   44.0550 H   0  0  0  0  0  0  0  0  0  0  0  0
   39.8590   33.0570   44.1040 N   0  0  0  0  0  0  0  0  0  0  0  0
   39.1120   32.5420   45.0970 C   0  0  0  0  0  0  0  0  0  0  0  0
   37.8500   32.3660   44.6580 N   0  0  0  0  0  0  0  0  0  0  0  0
   37.7720   32.7740   43.3580 C   0  0  0  0  0  0  0  0  0  0  0  0
   36.7040   32.7970   42.4640 C   0  0  0  0  0  0  0  0  0  0  0  0
   35.7230   32.4520   42.7570 H   0  0  0  0  0  0  0  0  0  0  0  0
   36.9590   33.2730   41.2100 N   0  0  0  0  0  0  0  0  0  0  0  0
   38.2000   33.6900   40.9010 C   0  0  0  0  0  0  0  0  0  0  0  0
   38.3240   34.0550   39.8830 H   0  0  0  0  0  0  0  0  0  0  0  0
   39.2580   33.6740   41.7630 N   0  0  0  0  0  0  0  0  0  0  0  0
   39.0580   33.2100   43.0250 C   0  0  0  0  0  0  0  0  0  0  0  0
  1  2  1  0  0  0  0
  2 11  1  0  0  0  0
  2  3  2  0  0  0  0
  3  7  1  0  0  0  0
  4  3  1  0  0  0  0
  4  8  1  0  0  0  0
  5  4  2  0  0  0  0
  6  1  2  0  0  0  0
  6  5  1  0  0  0  0
  9  5  1  0  0  0  0
 10 15  2  0  0  0  0
 10 11  1  0  0  0  0
 11 12  2  0  0  0  0
 12 13  1  0  0  0  0
 12 18  1  0  0  0  0
 14 17  1  0  0  0  0
 14 13  2  0  0  0  0
 15 14  1  0  0  0  0
 16 10  1  0  0  0  0
 18 20  1  0  0  0  0
 18 21  1  0  0  0  0
 19 18  1  0  0  0  0
 22 23  1  0  0  0  0
 22  1  1  0  0  0  0
 24  6  1  0  0  0  0
 25 26  1  0  0  0  0
 26 27  1  0  0  0  0
 27 24  1  0  0  0  0
 28 27  2  0  0  0  0
 29 28  1  0  0  0  0
 30 31  1  0  0  0  0
 30 29  2  0  0  0  0
 32 30  1  0  0  0  0
 33 32  2  0  0  0  0
 33 35  1  0  0  0  0
 34 33  1  0  0  0  0
 35 36  2  0  0  0  0
 36 29  1  0  0  0  0
 36 26  1  0  0  0  0
M  END
>  <minimizedAffinity>
-6.92133093

>  <minimizedRMSD>
0.367544681

$$$$
