
 OpenBabel03272509183D

 36 39  0  0  0  0  0  0  0  0999 V2000
   38.1520   31.4030   47.7030 C   0  0  0  0  0  0  0  0  0  0  0  0
   37.1210   31.3410   48.6340 C   0  0  0  0  0  0  0  0  0  0  0  0
   37.1110   32.3880   49.5700 C   0  0  0  0  0  0  0  0  0  0  0  0
   38.0880   33.4010   49.5340 C   0  0  0  0  0  0  0  0  0  0  0  0
   39.0880   33.3660   48.5480 C   0  0  0  0  0  0  0  0  0  0  0  0
   39.1000   32.3430   47.6300 C   0  0  0  0  0  0  0  0  0  0  0  0
   36.3350   32.3700   50.2970 H   0  0  0  0  0  0  0  0  0  0  0  0
   38.0200   34.1690   50.2790 H   0  0  0  0  0  0  0  0  0  0  0  0
   39.7730   34.1810   48.6140 H   0  0  0  0  0  0  0  0  0  0  0  0
   35.0560   30.3330   47.7760 C   0  0  0  0  0  0  0  0  0  0  0  0
   36.1280   30.3050   48.6650 C   0  0  0  0  0  0  0  0  0  0  0  0
   36.1970   29.2380   49.5770 C   0  0  0  0  0  0  0  0  0  0  0  0
   35.2070   28.3030   49.5290 N   0  0  0  0  0  0  0  0  0  0  0  0
   34.1800   28.3720   48.6440 C   0  0  0  0  0  0  0  0  0  0  0  0
   34.1050   29.3900   47.7670 N   0  0  0  0  0  0  0  0  0  0  0  0
   34.9340   31.1310   47.0380 H   0  0  0  0  0  0  0  0  0  0  0  0
   33.5150   27.5240   48.7880 H   0  0  0  0  0  0  0  0  0  0  0  0
   37.3080   29.1540   50.5410 C   0  0  0  0  0  0  0  0  0  0  0  0
   38.1910   28.6140   50.1310 H   0  0  0  0  0  0  0  0  0  0  0  0
   37.6850   30.1880   50.7780 H   0  0  0  0  0  0  0  0  0  0  0  0
   36.9440   28.7440   51.5070 H   0  0  0  0  0  0  0  0  0  0  0  0
   38.2280   30.3900   46.7350 O   0  0  0  0  0  0  0  0  0  0  0  0
   38.5330   29.4550   46.9610 H   0  0  0  0  0  0  0  0  0  0  0  0
   40.1080   32.3540   46.6780 O   0  0  0  0  0  0  0  0  0  0  0  0
   41.2910   30.9440   44.5920 H   0  0  0  0  0  0  0  0  0  0  0  0
   40.4510   31.5610   44.4670 N   0  0  0  0  0  0  0  0  0  0  0  0
   39.7490   32.3090   45.3370 C   0  0  0  0  0  0  0  0  0  0  0  0
   38.7440   32.9250   44.6840 N   0  0  0  0  0  0  0  0  0  0  0  0
   38.7910   32.5730   43.3650 C   0  0  0  0  0  0  0  0  0  0  0  0
   37.9860   32.9330   42.2880 C   0  0  0  0  0  0  0  0  0  0  0  0
   37.1510   33.6050   42.4160 H   0  0  0  0  0  0  0  0  0  0  0  0
   38.3050   32.3970   41.0740 N   0  0  0  0  0  0  0  0  0  0  0  0
   39.3570   31.5640   40.9740 C   0  0  0  0  0  0  0  0  0  0  0  0
   39.5460   31.1780   39.9740 H   0  0  0  0  0  0  0  0  0  0  0  0
   40.1560   31.1990   42.0180 N   0  0  0  0  0  0  0  0  0  0  0  0
   39.8820   31.7050   43.2490 C   0  0  0  0  0  0  0  0  0  0  0  0
  1  2  1  0  0  0  0
  2 11  1  0  0  0  0
  2  3  2  0  0  0  0
  3  7  1  0  0  0  0
  4  3  1  0  0  0  0
  4  8  1  0  0  0  0
  5  9  1  0  0  0  0
  5  4  2  0  0  0  0
  6  1  2  0  0  0  0
  6  5  1  0  0  0  0
 10 11  1  0  0  0  0
 11 12  2  0  0  0  0
 12 18  1  0  0  0  0
 13 12  1  0  0  0  0
 14 17  1  0  0  0  0
 14 13  2  0  0  0  0
 15 10  2  0  0  0  0
 15 14  1  0  0  0  0
 16 10  1  0  0  0  0
 18 20  1  0  0  0  0
 18 21  1  0  0  0  0
 19 18  1  0  0  0  0
 22 23  1  0  0  0  0
 22  1  1  0  0  0  0
 24  6  1  0  0  0  0
 26 25  1  0  0  0  0
 26 27  1  0  0  0  0
 27 24  1  0  0  0  0
 28 27  2  0  0  0  0
 29 28  1  0  0  0  0
 30 31  1  0  0  0  0
 30 29  2  0  0  0  0
 32 30  1  0  0  0  0
 33 32  2  0  0  0  0
 33 35  1  0  0  0  0
 34 33  1  0  0  0  0
 35 36  2  0  0  0  0
 36 29  1  0  0  0  0
 36 26  1  0  0  0  0
M  END
>  <minimizedAffinity>
-6.97899055

>  <minimizedRMSD>
0.680125475

$$$$
