
 OpenBabel03272509183D

 36 39  0  0  0  0  0  0  0  0999 V2000
   38.1460   31.2730   47.7900 C   0  0  0  0  0  0  0  0  0  0  0  0
   37.0970   31.3180   48.7030 C   0  0  0  0  0  0  0  0  0  0  0  0
   37.0900   32.4510   49.5330 C   0  0  0  0  0  0  0  0  0  0  0  0
   38.0850   33.4410   49.4170 C   0  0  0  0  0  0  0  0  0  0  0  0
   39.1010   33.2940   48.4570 C   0  0  0  0  0  0  0  0  0  0  0  0
   39.1110   32.1870   47.6440 C   0  0  0  0  0  0  0  0  0  0  0  0
   36.3010   32.5170   50.2430 H   0  0  0  0  0  0  0  0  0  0  0  0
   38.0170   34.2790   50.0820 H   0  0  0  0  0  0  0  0  0  0  0  0
   39.7990   34.1010   48.4570 H   0  0  0  0  0  0  0  0  0  0  0  0
   34.9640   30.3400   47.9920 C   0  0  0  0  0  0  0  0  0  0  0  0
   36.0870   30.3060   48.8150 C   0  0  0  0  0  0  0  0  0  0  0  0
   36.1870   29.2570   49.7450 C   0  0  0  0  0  0  0  0  0  0  0  0
   35.1770   28.3440   49.7760 N   0  0  0  0  0  0  0  0  0  0  0  0
   34.1000   28.4180   48.9530 C   0  0  0  0  0  0  0  0  0  0  0  0
   33.9940   29.4180   48.0600 N   0  0  0  0  0  0  0  0  0  0  0  0
   34.8160   31.1250   47.2450 H   0  0  0  0  0  0  0  0  0  0  0  0
   33.4270   27.5880   49.1550 H   0  0  0  0  0  0  0  0  0  0  0  0
   37.3520   29.1680   50.6430 C   0  0  0  0  0  0  0  0  0  0  0  0
   38.1970   28.6000   50.1930 H   0  0  0  0  0  0  0  0  0  0  0  0
   37.7650   30.1980   50.8350 H   0  0  0  0  0  0  0  0  0  0  0  0
   37.0380   28.7860   51.6380 H   0  0  0  0  0  0  0  0  0  0  0  0
   38.2210   30.1700   46.9260 O   0  0  0  0  0  0  0  0  0  0  0  0
   38.5060   29.2570   47.2480 H   0  0  0  0  0  0  0  0  0  0  0  0
   40.1350   32.0900   46.7140 O   0  0  0  0  0  0  0  0  0  0  0  0
   39.7000   34.1810   44.9300 H   0  0  0  0  0  0  0  0  0  0  0  0
   39.6290   33.1690   44.6610 N   0  0  0  0  0  0  0  0  0  0  0  0
   39.8000   32.0360   45.3670 C   0  0  0  0  0  0  0  0  0  0  0  0
   39.5940   30.9760   44.5630 N   0  0  0  0  0  0  0  0  0  0  0  0
   39.2850   31.4230   43.3100 C   0  0  0  0  0  0  0  0  0  0  0  0
   38.9890   30.7360   42.1350 C   0  0  0  0  0  0  0  0  0  0  0  0
   38.9780   29.6560   42.1090 H   0  0  0  0  0  0  0  0  0  0  0  0
   38.7180   31.4900   41.0310 N   0  0  0  0  0  0  0  0  0  0  0  0
   38.7470   32.8330   41.1230 C   0  0  0  0  0  0  0  0  0  0  0  0
   38.5190   33.3620   40.2010 H   0  0  0  0  0  0  0  0  0  0  0  0
   39.0340   33.5220   42.2650 N   0  0  0  0  0  0  0  0  0  0  0  0
   39.3110   32.8180   43.3940 C   0  0  0  0  0  0  0  0  0  0  0  0
  1  2  1  0  0  0  0
  2 11  1  0  0  0  0
  2  3  2  0  0  0  0
  3  7  1  0  0  0  0
  4  3  1  0  0  0  0
  4  8  1  0  0  0  0
  5  4  2  0  0  0  0
  6  1  2  0  0  0  0
  6  5  1  0  0  0  0
  9  5  1  0  0  0  0
 10 15  2  0  0  0  0
 10 11  1  0  0  0  0
 11 12  2  0  0  0  0
 12 13  1  0  0  0  0
 12 18  1  0  0  0  0
 14 17  1  0  0  0  0
 14 13  2  0  0  0  0
 15 14  1  0  0  0  0
 16 10  1  0  0  0  0
 18 20  1  0  0  0  0
 18 21  1  0  0  0  0
 19 18  1  0  0  0  0
 22 23  1  0  0  0  0
 22  1  1  0  0  0  0
 24  6  1  0  0  0  0
 26 25  1  0  0  0  0
 26 27  1  0  0  0  0
 27 24  1  0  0  0  0
 28 27  2  0  0  0  0
 29 36  1  0  0  0  0
 29 28  1  0  0  0  0
 30 29  2  0  0  0  0
 31 30  1  0  0  0  0
 32 33  2  0  0  0  0
 32 30  1  0  0  0  0
 33 35  1  0  0  0  0
 34 33  1  0  0  0  0
 35 36  2  0  0  0  0
 36 26  1  0  0  0  0
M  END
>  <minimizedAffinity>
-6.59730864

>  <minimizedRMSD>
0.663981557

$$$$
