
 OpenBabel03272508193D

 34 37  0  0  0  0  0  0  0  0999 V2000
   35.0980   29.2760   48.1900 C   0  0  0  0  0  0  0  0  0  0  0  0
   35.6960   28.4930   47.7140 H   0  0  0  0  0  0  0  0  0  0  0  0
   34.7850   28.7990   49.1860 H   0  0  0  0  0  0  0  0  0  0  0  0
   32.9330   28.4010   47.2750 C   0  0  0  0  0  0  0  0  0  0  0  0
   33.8640   29.4340   47.4430 C   0  0  0  0  0  0  0  0  0  0  0  0
   33.5490   30.5990   46.7950 C   0  0  0  0  0  0  0  0  0  0  0  0
   32.4130   30.7220   46.0530 N   0  0  0  0  0  0  0  0  0  0  0  0
   31.5340   29.7090   45.9090 C   0  0  0  0  0  0  0  0  0  0  0  0
   31.7930   28.5430   46.5200 N   0  0  0  0  0  0  0  0  0  0  0  0
   34.1270   31.4950   46.7680 H   0  0  0  0  0  0  0  0  0  0  0  0
   30.6430   29.8360   45.3140 H   0  0  0  0  0  0  0  0  0  0  0  0
   33.1970   27.1150   48.0420 C   0  0  0  0  0  0  0  0  0  0  0  0
   32.4940   25.9190   47.7670 C   0  0  0  0  0  0  0  0  0  0  0  0
   33.8170   26.0720   47.0370 C   0  0  0  0  0  0  0  0  0  0  0  0
   33.9260   27.2430   48.8800 H   0  0  0  0  0  0  0  0  0  0  0  0
   31.6190   25.7920   47.1300 H   0  0  0  0  0  0  0  0  0  0  0  0
   32.5300   25.1140   48.5600 H   0  0  0  0  0  0  0  0  0  0  0  0
   34.6950   25.5410   47.4020 H   0  0  0  0  0  0  0  0  0  0  0  0
   33.7770   26.2840   45.9770 H   0  0  0  0  0  0  0  0  0  0  0  0
   35.8650   30.4610   48.5820 C   0  0  0  0  0  0  0  0  0  0  0  0
   35.1280   31.2990   48.7580 H   0  0  0  0  0  0  0  0  0  0  0  0
   36.3380   30.3600   49.6140 H   0  0  0  0  0  0  0  0  0  0  0  0
   36.8860   30.9170   47.6980 N   0  0  0  0  0  0  0  0  0  0  0  0
   37.3990   30.7000   46.4970 C   0  0  0  0  0  0  0  0  0  0  0  0
   37.0240   29.9630   45.8290 H   0  0  0  0  0  0  0  0  0  0  0  0
   38.4470   31.4780   46.1770 N   0  0  0  0  0  0  0  0  0  0  0  0
   38.6870   32.2990   47.2290 C   0  0  0  0  0  0  0  0  0  0  0  0
   39.6450   33.2600   47.3750 C   0  0  0  0  0  0  0  0  0  0  0  0
   40.3370   33.4470   46.5890 H   0  0  0  0  0  0  0  0  0  0  0  0
   39.6210   33.9130   48.5550 N   0  0  0  0  0  0  0  0  0  0  0  0
   38.7030   33.5990   49.4780 C   0  0  0  0  0  0  0  0  0  0  0  0
   38.7090   34.1480   50.4290 H   0  0  0  0  0  0  0  0  0  0  0  0
   37.7800   32.6540   49.3040 N   0  0  0  0  0  0  0  0  0  0  0  0
   37.7100   31.9320   48.1530 C   0  0  0  0  0  0  0  0  0  0  0  0
  1 20  1  0  0  0  0
  1  3  1  0  0  0  0
  2  1  1  0  0  0  0
  4  5  1  0  0  0  0
  4 12  1  0  0  0  0
  5  1  1  0  0  0  0
  6  5  2  0  0  0  0
  7  6  1  0  0  0  0
  8  7  2  0  0  0  0
  8  9  1  0  0  0  0
  9  4  2  0  0  0  0
 10  6  1  0  0  0  0
 11  8  1  0  0  0  0
 12 15  1  0  0  0  0
 13 12  1  0  0  0  0
 13 17  1  0  0  0  0
 14 18  1  0  0  0  0
 14 13  1  0  0  0  0
 14 12  1  0  0  0  0
 16 13  1  0  0  0  0
 19 14  1  0  0  0  0
 20 21  1  0  0  0  0
 20 22  1  0  0  0  0
 23 34  1  0  0  0  0
 23 20  1  0  0  0  0
 24 23  1  0  0  0  0
 25 24  1  0  0  0  0
 26 24  2  0  0  0  0
 26 27  1  0  0  0  0
 27 28  2  0  0  0  0
 27 34  1  0  0  0  0
 28 30  1  0  0  0  0
 29 28  1  0  0  0  0
 30 31  2  0  0  0  0
 31 32  1  0  0  0  0
 33 31  1  0  0  0  0
 34 33  2  0  0  0  0
M  END
>  <minimizedAffinity>
-4.57837009

>  <minimizedRMSD>
5.23085403

$$$$
