
 OpenBabel03262520463D

 37 40  0  0  1  0  0  0  0  0999 V2000
   38.6800   32.1000   46.9430 C   0  0  1  0  0  0  0  0  0  0  0  0
   39.7810   32.8990   46.2650 C   0  0  0  0  0  0  0  0  0  0  0  0
   39.8270   31.4310   46.3010 C   0  0  2  0  0  0  0  0  0  0  0  0
   37.6710   32.0430   46.4680 H   0  0  0  0  0  0  0  0  0  0  0  0
   40.4720   33.4950   46.8870 H   0  0  0  0  0  0  0  0  0  0  0  0
   39.4380   33.3440   45.2880 H   0  0  0  0  0  0  0  0  0  0  0  0
   40.6430   31.0130   46.9590 H   0  0  0  0  0  0  0  0  0  0  0  0
   38.6170   32.2500   48.4460 C   0  0  0  0  0  0  0  0  0  0  0  0
   39.6190   32.2590   48.8930 H   0  0  0  0  0  0  0  0  0  0  0  0
   38.1000   33.2090   48.6910 H   0  0  0  0  0  0  0  0  0  0  0  0
   37.3310   29.8920   51.0520 C   0  0  0  0  0  0  0  0  0  0  0  0
   38.0520   30.9550   50.4040 C   0  0  0  0  0  0  0  0  0  0  0  0
   37.8520   31.1460   49.0610 C   0  0  0  0  0  0  0  0  0  0  0  0
   36.9990   30.3470   48.3980 N   0  0  0  0  0  0  0  0  0  0  0  0
   36.3250   29.3500   49.0150 C   0  0  0  0  0  0  0  0  0  0  0  0
   36.5020   29.1430   50.3180 N   0  0  0  0  0  0  0  0  0  0  0  0
   37.4620   29.7100   52.1080 H   0  0  0  0  0  0  0  0  0  0  0  0
   38.6970   31.5050   51.0770 H   0  0  0  0  0  0  0  0  0  0  0  0
   35.6920   28.8240   48.3110 H   0  0  0  0  0  0  0  0  0  0  0  0
   39.5280   30.5680   45.1190 C   0  0  0  0  0  0  0  0  0  0  0  0
   39.6180   29.5040   45.4180 H   0  0  0  0  0  0  0  0  0  0  0  0
   38.4910   30.7420   44.7290 H   0  0  0  0  0  0  0  0  0  0  0  0
   40.4370   30.8500   43.9310 C   0  0  0  0  0  0  0  0  0  0  0  0
   41.4840   30.6160   44.1410 H   0  0  0  0  0  0  0  0  0  0  0  0
   40.3140   31.8830   43.5870 H   0  0  0  0  0  0  0  0  0  0  0  0
   39.9330   30.0170   42.8300 N   0  0  0  0  0  0  0  0  0  0  0  0
   39.7430   28.6900   42.7130 C   0  0  0  0  0  0  0  0  0  0  0  0
   39.9790   28.0380   43.5340 H   0  0  0  0  0  0  0  0  0  0  0  0
   39.2560   28.4280   41.4910 N   0  0  0  0  0  0  0  0  0  0  0  0
   39.1230   29.5760   40.7990 C   0  0  0  0  0  0  0  0  0  0  0  0
   38.6930   29.9360   39.5440 C   0  0  0  0  0  0  0  0  0  0  0  0
   38.3550   29.1890   38.8620 H   0  0  0  0  0  0  0  0  0  0  0  0
   38.6710   31.2200   39.1090 N   0  0  0  0  0  0  0  0  0  0  0  0
   39.0960   32.1650   39.9660 C   0  0  0  0  0  0  0  0  0  0  0  0
   39.1490   33.2250   39.7950 H   0  0  0  0  0  0  0  0  0  0  0  0
   39.5250   31.8540   41.2010 N   0  0  0  0  0  0  0  0  0  0  0  0
   39.5580   30.5860   41.6600 C   0  0  0  0  0  0  0  0  0  0  0  0
  1  4  1  6  0  0  0
  1  8  1  0  0  0  0
  2  3  1  0  0  0  0
  2  5  1  0  0  0  0
  2  1  1  0  0  0  0
  3  1  1  0  0  0  0
  3  7  1  1  0  0  0
  6  2  1  0  0  0  0
  8 10  1  0  0  0  0
  8  9  1  0  0  0  0
  8 13  1  0  0  0  0
 11 17  1  0  0  0  0
 12 11  1  0  0  0  0
 12 18  1  0  0  0  0
 13 12  2  0  0  0  0
 14 15  2  0  0  0  0
 14 13  1  0  0  0  0
 15 16  1  0  0  0  0
 16 11  2  0  0  0  0
 19 15  1  0  0  0  0
 20 21  1  0  0  0  0
 20  3  1  0  0  0  0
 22 20  1  0  0  0  0
 23 24  1  0  0  0  0
 23 20  1  0  0  0  0
 25 23  1  0  0  0  0
 26 23  1  0  0  0  0
 27 26  1  0  0  0  0
 27 28  1  0  0  0  0
 29 27  2  0  0  0  0
 30 29  1  0  0  0  0
 30 37  1  0  0  0  0
 31 30  2  0  0  0  0
 32 31  1  0  0  0  0
 33 31  1  0  0  0  0
 33 34  2  0  0  0  0
 34 36  1  0  0  0  0
 35 34  1  0  0  0  0
 36 37  2  0  0  0  0
 37 26  1  0  0  0  0
M  END
>  <minimizedAffinity>
-5.05527592

>  <minimizedRMSD>
0.299699962

$$$$
