
 OpenBabel03262520463D

 37 40  0  0  1  0  0  0  0  0999 V2000
   38.7780   32.0890   46.8460 C   0  0  1  0  0  0  0  0  0  0  0  0
   39.8390   32.9130   46.1370 C   0  0  0  0  0  0  0  0  0  0  0  0
   39.9370   31.4480   46.1980 C   0  0  2  0  0  0  0  0  0  0  0  0
   37.7650   31.9870   46.3900 H   0  0  0  0  0  0  0  0  0  0  0  0
   40.5180   33.5450   46.7350 H   0  0  0  0  0  0  0  0  0  0  0  0
   39.4650   33.3270   45.1570 H   0  0  0  0  0  0  0  0  0  0  0  0
   40.7780   31.0710   46.8500 H   0  0  0  0  0  0  0  0  0  0  0  0
   38.7330   32.2640   48.3470 C   0  0  0  0  0  0  0  0  0  0  0  0
   39.7400   32.2590   48.7840 H   0  0  0  0  0  0  0  0  0  0  0  0
   38.2400   33.2380   48.5820 H   0  0  0  0  0  0  0  0  0  0  0  0
   37.4070   29.9920   51.0090 C   0  0  0  0  0  0  0  0  0  0  0  0
   38.1450   31.0280   50.3370 C   0  0  0  0  0  0  0  0  0  0  0  0
   37.9520   31.1870   48.9880 C   0  0  0  0  0  0  0  0  0  0  0  0
   37.0910   30.3820   48.3430 N   0  0  0  0  0  0  0  0  0  0  0  0
   36.4020   29.4110   48.9840 C   0  0  0  0  0  0  0  0  0  0  0  0
   36.5720   29.2350   50.2920 N   0  0  0  0  0  0  0  0  0  0  0  0
   37.5330   29.8360   52.0700 H   0  0  0  0  0  0  0  0  0  0  0  0
   38.7950   31.5870   50.9970 H   0  0  0  0  0  0  0  0  0  0  0  0
   35.7650   28.8750   48.2910 H   0  0  0  0  0  0  0  0  0  0  0  0
   39.6500   30.5530   45.0370 C   0  0  0  0  0  0  0  0  0  0  0  0
   40.1920   29.5960   45.1780 H   0  0  0  0  0  0  0  0  0  0  0  0
   38.5550   30.3330   44.9430 H   0  0  0  0  0  0  0  0  0  0  0  0
   40.0330   31.1720   43.6990 C   0  0  0  0  0  0  0  0  0  0  0  0
   40.9430   31.7760   43.7620 H   0  0  0  0  0  0  0  0  0  0  0  0
   39.1950   31.7450   43.2860 H   0  0  0  0  0  0  0  0  0  0  0  0
   40.2220   30.0470   42.7730 N   0  0  0  0  0  0  0  0  0  0  0  0
   41.3220   29.3950   42.3540 C   0  0  0  0  0  0  0  0  0  0  0  0
   42.2920   29.6870   42.7180 H   0  0  0  0  0  0  0  0  0  0  0  0
   40.9560   28.4310   41.4980 N   0  0  0  0  0  0  0  0  0  0  0  0
   39.6170   28.4420   41.3480 C   0  0  0  0  0  0  0  0  0  0  0  0
   38.6920   27.7220   40.6300 C   0  0  0  0  0  0  0  0  0  0  0  0
   39.0120   26.9270   39.9970 H   0  0  0  0  0  0  0  0  0  0  0  0
   37.3600   27.9720   40.6800 N   0  0  0  0  0  0  0  0  0  0  0  0
   36.9530   28.9760   41.4770 C   0  0  0  0  0  0  0  0  0  0  0  0
   35.9470   29.3120   41.6410 H   0  0  0  0  0  0  0  0  0  0  0  0
   37.8280   29.7020   42.1960 N   0  0  0  0  0  0  0  0  0  0  0  0
   39.1570   29.4760   42.1640 C   0  0  0  0  0  0  0  0  0  0  0  0
  1  4  1  6  0  0  0
  1  8  1  0  0  0  0
  2  3  1  0  0  0  0
  2  5  1  0  0  0  0
  2  1  1  0  0  0  0
  3  1  1  0  0  0  0
  3  7  1  1  0  0  0
  6  2  1  0  0  0  0
  8 10  1  0  0  0  0
  8  9  1  0  0  0  0
  8 13  1  0  0  0  0
 11 17  1  0  0  0  0
 12 18  1  0  0  0  0
 12 11  1  0  0  0  0
 13 12  2  0  0  0  0
 14 15  2  0  0  0  0
 14 13  1  0  0  0  0
 15 16  1  0  0  0  0
 16 11  2  0  0  0  0
 19 15  1  0  0  0  0
 20 21  1  0  0  0  0
 20  3  1  0  0  0  0
 22 20  1  0  0  0  0
 23 24  1  0  0  0  0
 23 20  1  0  0  0  0
 25 23  1  0  0  0  0
 26 23  1  0  0  0  0
 27 28  1  0  0  0  0
 27 26  1  0  0  0  0
 29 27  2  0  0  0  0
 30 29  1  0  0  0  0
 30 37  1  0  0  0  0
 31 33  1  0  0  0  0
 31 30  2  0  0  0  0
 32 31  1  0  0  0  0
 33 34  2  0  0  0  0
 34 35  1  0  0  0  0
 34 36  1  0  0  0  0
 37 36  2  0  0  0  0
 37 26  1  0  0  0  0
M  END
>  <minimizedAffinity>
-5.15399075

>  <minimizedRMSD>
0.98201853

$$$$
