
 OpenBabel03262520463D

 37 40  0  0  1  0  0  0  0  0999 V2000
   38.6980   32.1790   46.8830 C   0  0  1  0  0  0  0  0  0  0  0  0
   39.8360   32.9500   46.2350 C   0  0  0  0  0  0  0  0  0  0  0  0
   39.8660   31.4830   46.3130 C   0  0  2  0  0  0  0  0  0  0  0  0
   37.7120   32.1160   46.3650 H   0  0  0  0  0  0  0  0  0  0  0  0
   40.5030   33.5580   46.8700 H   0  0  0  0  0  0  0  0  0  0  0  0
   39.5420   33.3700   45.2310 H   0  0  0  0  0  0  0  0  0  0  0  0
   40.6490   31.0770   47.0190 H   0  0  0  0  0  0  0  0  0  0  0  0
   38.5680   32.3710   48.3770 C   0  0  0  0  0  0  0  0  0  0  0  0
   39.5500   32.4460   48.8610 H   0  0  0  0  0  0  0  0  0  0  0  0
   37.9950   33.3090   48.5720 H   0  0  0  0  0  0  0  0  0  0  0  0
   37.4290   29.9280   50.9730 C   0  0  0  0  0  0  0  0  0  0  0  0
   38.1160   31.0110   50.3210 C   0  0  0  0  0  0  0  0  0  0  0  0
   37.8370   31.2490   48.9990 C   0  0  0  0  0  0  0  0  0  0  0  0
   36.9430   30.4740   48.3610 N   0  0  0  0  0  0  0  0  0  0  0  0
   36.3030   29.4580   48.9830 C   0  0  0  0  0  0  0  0  0  0  0  0
   36.5560   29.2060   50.2650 N   0  0  0  0  0  0  0  0  0  0  0  0
   37.6220   29.7100   52.0130 H   0  0  0  0  0  0  0  0  0  0  0  0
   38.8020   31.5360   50.9720 H   0  0  0  0  0  0  0  0  0  0  0  0
   35.6270   28.9580   48.3000 H   0  0  0  0  0  0  0  0  0  0  0  0
   39.6130   30.5900   45.1430 C   0  0  0  0  0  0  0  0  0  0  0  0
   39.8030   29.5400   45.4440 H   0  0  0  0  0  0  0  0  0  0  0  0
   38.5560   30.6710   44.7790 H   0  0  0  0  0  0  0  0  0  0  0  0
   40.4640   30.9420   43.9300 C   0  0  0  0  0  0  0  0  0  0  0  0
   41.5270   30.7390   44.0910 H   0  0  0  0  0  0  0  0  0  0  0  0
   40.2910   31.9800   43.6260 H   0  0  0  0  0  0  0  0  0  0  0  0
   39.9460   30.1260   42.8230 N   0  0  0  0  0  0  0  0  0  0  0  0
   40.2960   28.9180   42.3480 C   0  0  0  0  0  0  0  0  0  0  0  0
   41.1010   28.3720   42.8060 H   0  0  0  0  0  0  0  0  0  0  0  0
   39.5040   28.6130   41.3100 N   0  0  0  0  0  0  0  0  0  0  0  0
   38.6300   29.6150   41.0960 C   0  0  0  0  0  0  0  0  0  0  0  0
   37.6090   29.8730   40.2110 C   0  0  0  0  0  0  0  0  0  0  0  0
   37.3640   29.1580   39.4590 H   0  0  0  0  0  0  0  0  0  0  0  0
   36.8750   31.0120   40.2400 N   0  0  0  0  0  0  0  0  0  0  0  0
   37.1820   31.9160   41.1870 C   0  0  0  0  0  0  0  0  0  0  0  0
   36.7120   32.8670   41.3580 H   0  0  0  0  0  0  0  0  0  0  0  0
   38.1720   31.7010   42.0700 N   0  0  0  0  0  0  0  0  0  0  0  0
   38.9180   30.5770   42.0660 C   0  0  0  0  0  0  0  0  0  0  0  0
  1  4  1  6  0  0  0
  1  8  1  0  0  0  0
  2  3  1  0  0  0  0
  2  5  1  0  0  0  0
  2  1  1  0  0  0  0
  3  1  1  0  0  0  0
  3  7  1  1  0  0  0
  6  2  1  0  0  0  0
  8 10  1  0  0  0  0
  8  9  1  0  0  0  0
  8 13  1  0  0  0  0
 11 17  1  0  0  0  0
 12 18  1  0  0  0  0
 12 11  1  0  0  0  0
 13 12  2  0  0  0  0
 14 15  2  0  0  0  0
 14 13  1  0  0  0  0
 15 16  1  0  0  0  0
 16 11  2  0  0  0  0
 19 15  1  0  0  0  0
 20 21  1  0  0  0  0
 20  3  1  0  0  0  0
 22 20  1  0  0  0  0
 23 24  1  0  0  0  0
 23 20  1  0  0  0  0
 25 23  1  0  0  0  0
 26 23  1  0  0  0  0
 27 28  1  0  0  0  0
 27 26  1  0  0  0  0
 29 27  2  0  0  0  0
 30 29  1  0  0  0  0
 30 37  1  0  0  0  0
 31 33  1  0  0  0  0
 31 30  2  0  0  0  0
 32 31  1  0  0  0  0
 33 34  2  0  0  0  0
 34 35  1  0  0  0  0
 34 36  1  0  0  0  0
 37 36  2  0  0  0  0
 37 26  1  0  0  0  0
M  END
>  <minimizedAffinity>
-5.01623821

>  <minimizedRMSD>
0.506082237

$$$$
