
 OpenBabel03272502553D

 40 42  0  0  0  0  0  0  0  0999 V2000
   35.9390   30.1110   48.5820 C   0  0  0  0  0  0  0  0  0  0  0  0
   35.9670   29.2070   49.6230 C   0  0  0  0  0  0  0  0  0  0  0  0
   34.9510   28.2710   49.7660 C   0  0  0  0  0  0  0  0  0  0  0  0
   33.9440   28.3070   48.8260 C   0  0  0  0  0  0  0  0  0  0  0  0
   33.9090   29.2140   47.7760 C   0  0  0  0  0  0  0  0  0  0  0  0
   34.9240   30.0930   47.6940 N   0  0  0  0  0  0  0  0  0  0  0  0
   32.8270   29.1560   46.8750 N   0  0  0  0  0  0  0  0  0  0  0  0
   31.6510   28.4080   47.2460 C   0  0  0  0  0  0  0  0  0  0  0  0
   30.7230   28.4170   46.0580 C   0  0  0  0  0  0  0  0  0  0  0  0
   30.3700   29.8520   45.7070 C   0  0  0  0  0  0  0  0  0  0  0  0
   31.6000   30.6650   45.4730 C   0  0  0  0  0  0  0  0  0  0  0  0
   32.8250   29.8090   45.5850 C   0  0  0  0  0  0  0  0  0  0  0  0
   36.8030   29.2600   50.3080 H   0  0  0  0  0  0  0  0  0  0  0  0
   34.9970   27.5790   50.5850 H   0  0  0  0  0  0  0  0  0  0  0  0
   33.1780   27.5390   49.0050 H   0  0  0  0  0  0  0  0  0  0  0  0
   31.8570   27.3370   47.4620 H   0  0  0  0  0  0  0  0  0  0  0  0
   31.1190   28.9290   48.0630 H   0  0  0  0  0  0  0  0  0  0  0  0
   31.1290   27.8620   45.1990 H   0  0  0  0  0  0  0  0  0  0  0  0
   29.7780   27.9460   46.4040 H   0  0  0  0  0  0  0  0  0  0  0  0
   29.8690   30.2720   46.6250 H   0  0  0  0  0  0  0  0  0  0  0  0
   29.6200   29.9240   44.9210 H   0  0  0  0  0  0  0  0  0  0  0  0
   31.7210   31.5430   46.1120 H   0  0  0  0  0  0  0  0  0  0  0  0
   31.5660   31.0220   44.4040 H   0  0  0  0  0  0  0  0  0  0  0  0
   33.7590   30.4040   45.5220 H   0  0  0  0  0  0  0  0  0  0  0  0
   32.8480   28.9890   44.8340 H   0  0  0  0  0  0  0  0  0  0  0  0
   38.1150   32.9930   49.2180 C   0  0  0  0  0  0  0  0  0  0  0  0
   39.0480   32.9140   48.1870 C   0  0  0  0  0  0  0  0  0  0  0  0
   38.9290   31.8790   47.2830 C   0  0  0  0  0  0  0  0  0  0  0  0
   37.8980   30.9810   47.4440 N   0  0  0  0  0  0  0  0  0  0  0  0
   37.0140   31.0840   48.4490 C   0  0  0  0  0  0  0  0  0  0  0  0
   37.1420   32.0890   49.3150 N   0  0  0  0  0  0  0  0  0  0  0  0
   38.2410   33.8160   49.9060 H   0  0  0  0  0  0  0  0  0  0  0  0
   39.8360   33.6390   48.1020 H   0  0  0  0  0  0  0  0  0  0  0  0
   39.8940   31.7680   46.1870 C   0  0  0  0  0  0  0  0  0  0  0  0
   39.4800   32.3690   44.9550 N   0  0  0  0  0  0  0  0  0  0  0  0
   39.8720   31.7680   44.1760 H   0  0  0  0  0  0  0  0  0  0  0  0
   40.0630   33.6790   44.7390 C   0  0  0  0  0  0  0  0  0  0  0  0
   39.9670   33.9440   43.6700 H   0  0  0  0  0  0  0  0  0  0  0  0
   38.0620   32.4440   44.7670 C   0  0  0  0  0  0  0  0  0  0  0  0
   37.8450   33.2690   44.0430 H   0  0  0  0  0  0  0  0  0  0  0  0
  1  2  1  0  0  0  0
  2  3  2  0  0  0  0
  2 13  1  0  0  0  0
  3 14  1  0  0  0  0
  4 15  1  0  0  0  0
  4  3  1  0  0  0  0
  5  4  2  0  0  0  0
  6  5  1  0  0  0  0
  6  1  2  0  0  0  0
  7  8  1  0  0  0  0
  7  5  1  0  0  0  0
  8 16  1  0  0  0  0
  8 17  1  0  0  0  0
  9 19  1  0  0  0  0
  9  8  1  0  0  0  0
 10  9  1  0  0  0  0
 10 20  1  0  0  0  0
 11 12  1  0  0  0  0
 11 10  1  0  0  0  0
 11 22  1  0  0  0  0
 12  7  1  0  0  0  0
 18  9  1  0  0  0  0
 21 10  1  0  0  0  0
 23 11  1  0  0  0  0
 24 12  1  0  0  0  0
 25 12  1  0  0  0  0
 26 31  1  0  0  0  0
 26 32  1  0  0  0  0
 27 26  2  0  0  0  0
 28 29  2  0  0  0  0
 28 27  1  0  0  0  0
 29 30  1  0  0  0  0
 30  1  1  0  0  0  0
 30 31  2  0  0  0  0
 33 27  1  0  0  0  0
 34 28  1  0  0  0  0
 35 34  1  0  0  0  0
 36 35  1  0  0  0  0
 37 35  1  0  0  0  0
 38 37  1  0  0  0  0
 39 35  1  0  0  0  0
 40 39  1  0  0  0  0
M  END
>  <minimizedAffinity>
-6.16811991

>  <minimizedRMSD>
0.400736809

$$$$
