
 OpenBabel03272504153D

 22 22  0  0  0  0  0  0  0  0999 V2000
   34.9890   30.1060   47.9450 C   0  0  0  0  0  0  0  0  0  0  0  0
   35.0070   29.1630   48.9900 C   0  0  0  0  0  0  0  0  0  0  0  0
   36.2100   28.9650   49.6370 C   0  0  0  0  0  0  0  0  0  0  0  0
   37.3020   29.6690   49.2510 N   0  0  0  0  0  0  0  0  0  0  0  0
   37.2720   30.5740   48.2460 C   0  0  0  0  0  0  0  0  0  0  0  0
   36.0980   30.7730   47.6070 N   0  0  0  0  0  0  0  0  0  0  0  0
   36.2830   28.2620   50.4350 H   0  0  0  0  0  0  0  0  0  0  0  0
   38.1550   31.1240   47.9550 H   0  0  0  0  0  0  0  0  0  0  0  0
   33.8760   30.4450   47.1720 O   0  0  0  0  0  0  0  0  0  0  0  0
   34.7880   28.9100   45.1530 O   0  0  0  0  0  0  0  0  0  0  0  0
   33.7020   29.9070   45.5640 P   0  0  0  0  0  0  0  0  0  0  0  0
   32.1800   29.1880   45.4420 O   0  0  0  0  0  0  0  0  0  0  0  0
   31.5130   29.9180   45.5410 H   0  0  0  0  0  0  0  0  0  0  0  0
   33.8340   31.2130   44.4940 O   0  0  0  0  0  0  0  0  0  0  0  0
   33.2910   31.9800   44.7930 H   0  0  0  0  0  0  0  0  0  0  0  0
   33.7700   28.4780   49.3120 C   0  0  0  0  0  0  0  0  0  0  0  0
   33.0300   27.9360   48.2170 N   0  0  0  0  0  0  0  0  0  0  0  0
   32.9710   28.4990   47.3650 H   0  0  0  0  0  0  0  0  0  0  0  0
   33.7030   26.6750   47.8550 C   0  0  0  0  0  0  0  0  0  0  0  0
   34.3180   26.2930   48.6950 H   0  0  0  0  0  0  0  0  0  0  0  0
   31.6630   27.6110   48.6330 C   0  0  0  0  0  0  0  0  0  0  0  0
   30.9660   28.4260   48.4080 H   0  0  0  0  0  0  0  0  0  0  0  0
  1  2  1  0  0  0  0
  2 16  1  0  0  0  0
  2  3  2  0  0  0  0
  3  7  1  0  0  0  0
  4  3  1  0  0  0  0
  5  4  2  0  0  0  0
  6  1  2  0  0  0  0
  6  5  1  0  0  0  0
  8  5  1  0  0  0  0
  9  1  1  0  0  0  0
 10 11  2  0  0  0  0
 11  9  1  0  0  0  0
 12 13  1  0  0  0  0
 12 11  1  0  0  0  0
 14 15  1  0  0  0  0
 14 11  1  0  0  0  0
 17 21  1  0  0  0  0
 17 16  1  0  0  0  0
 18 17  1  0  0  0  0
 19 17  1  0  0  0  0
 19 20  1  0  0  0  0
 22 21  1  0  0  0  0
M  END
>  <minimizedAffinity>
-3.56653285

>  <minimizedRMSD>
2.15152645

$$$$
