
 OpenBabel03272507223D

 41 44  0  0  1  0  0  0  0  0999 V2000
   38.2340   32.0280   47.2480 C   0  0  0  0  0  0  0  0  0  0  0  0
   38.9350   33.0310   47.8780 C   0  0  0  0  0  0  0  0  0  0  0  0
   40.0220   33.5420   47.1600 C   0  0  0  0  0  0  0  0  0  0  0  0
   40.3310   33.0510   45.9240 N   0  0  0  0  0  0  0  0  0  0  0  0
   39.6180   32.0630   45.3340 C   0  0  0  0  0  0  0  0  0  0  0  0
   38.5590   31.5540   46.0150 N   0  0  0  0  0  0  0  0  0  0  0  0
   38.7310   33.4410   48.8370 H   0  0  0  0  0  0  0  0  0  0  0  0
   40.6320   34.3350   47.5820 H   0  0  0  0  0  0  0  0  0  0  0  0
   39.4670   32.2140   42.9120 C   0  0  0  0  0  0  0  0  0  0  0  0
   39.9630   31.5450   44.0100 C   0  0  0  0  0  0  0  0  0  0  0  0
   40.7580   30.4220   43.8300 C   0  0  0  0  0  0  0  0  0  0  0  0
   41.0880   29.9240   42.5850 C   0  0  0  0  0  0  0  0  0  0  0  0
   41.8180   28.8870   42.1400 N   0  0  0  0  0  0  0  0  0  0  0  0
   41.7570   28.9370   40.7940 C   0  0  0  0  0  0  0  0  0  0  0  0
   41.0090   29.9770   40.4010 N   0  0  0  0  0  0  0  0  0  0  0  0
   40.5680   30.6260   41.4970 C   0  0  0  0  0  0  0  0  0  0  0  0
   39.7720   31.7500   41.6450 C   0  0  0  0  0  0  0  0  0  0  0  0
   38.8460   33.0910   42.9920 H   0  0  0  0  0  0  0  0  0  0  0  0
   41.1380   29.9120   44.7090 H   0  0  0  0  0  0  0  0  0  0  0  0
   42.3040   28.2220   42.7910 H   0  0  0  0  0  0  0  0  0  0  0  0
   42.2480   28.2310   40.1410 H   0  0  0  0  0  0  0  0  0  0  0  0
   39.4040   32.2440   40.7470 H   0  0  0  0  0  0  0  0  0  0  0  0
   37.0600   31.4360   47.9940 C   0  0  1  0  0  0  0  0  0  0  0  0
   36.1170   30.5630   47.3350 C   0  0  2  0  0  0  0  0  0  0  0  0
   37.2250   29.9360   48.2120 C   0  0  2  0  0  0  0  0  0  0  0  0
   36.7020   32.0970   48.8170 H   0  0  0  0  0  0  0  0  0  0  0  0
   35.2010   30.1750   47.9070 H   0  0  0  0  0  0  0  0  0  0  0  0
   37.9790   29.4020   47.6370 H   0  0  0  0  0  0  0  0  0  0  0  0
   36.2590   30.3050   46.0140 O   0  0  0  0  0  0  0  0  0  0  0  0
   35.5610   30.4510   44.8940 C   0  0  0  0  0  0  0  0  0  0  0  0
   34.5890   29.6430   44.7550 O   0  0  0  0  0  0  0  0  0  0  0  0
   35.9860   31.4460   44.0490 N   0  0  0  0  0  0  0  0  0  0  0  0
   35.6550   32.4360   43.9610 H   0  0  0  0  0  0  0  0  0  0  0  0
   36.7440   31.3510   43.3330 H   0  0  0  0  0  0  0  0  0  0  0  0
   36.9700   29.5290   49.6170 C   0  0  0  0  0  2  0  0  0  0  0  0
   35.5950   29.3850   49.9770 N   0  0  0  0  0  4  0  0  0  0  0  0
   35.0620   30.2310   49.6720 H   0  0  0  0  0  0  0  0  0  0  0  0
   34.9260   28.2360   49.4400 C   0  0  0  0  0  2  0  0  0  0  0  0
   33.9390   28.1790   49.9650 H   0  0  0  0  0  0  0  0  0  0  0  0
   35.4720   29.3500   51.4220 C   0  0  0  0  0  2  0  0  0  0  0  0
   35.2550   28.3040   51.7770 H   0  0  0  0  0  0  0  0  0  0  0  0
  1  2  1  0  0  0  0
  1 23  1  0  0  0  0
  2  7  1  0  0  0  0
  3  8  1  0  0  0  0
  3  2  2  0  0  0  0
  4  3  1  0  0  0  0
  5  4  2  0  0  0  0
  5  6  1  0  0  0  0
  6  1  2  0  0  0  0
  9 18  1  0  0  0  0
  9 10  1  0  0  0  0
 10  5  1  0  0  0  0
 11 10  2  0  0  0  0
 11 19  1  0  0  0  0
 12 11  1  0  0  0  0
 13 12  1  0  0  0  0
 13 20  1  0  0  0  0
 14 13  1  0  0  0  0
 15 14  2  0  0  0  0
 15 16  1  0  0  0  0
 16 17  1  0  0  0  0
 16 12  2  0  0  0  0
 17  9  2  0  0  0  0
 21 14  1  0  0  0  0
 22 17  1  0  0  0  0
 23 25  1  0  0  0  0
 23 26  1  1  0  0  0
 24 27  1  1  0  0  0
 24 23  1  0  0  0  0
 24 25  1  0  0  0  0
 25 28  1  6  0  0  0
 25 35  1  0  0  0  0
 29 24  1  0  0  0  0
 30 29  1  0  0  0  0
 31 30  2  0  0  0  0
 32 30  1  0  0  0  0
 33 32  1  0  0  0  0
 34 32  1  0  0  0  0
 35 36  1  0  0  0  0
 36 40  1  0  0  0  0
 37 36  1  0  0  0  0
 38 39  1  0  0  0  0
 38 36  1  0  0  0  0
 40 41  1  0  0  0  0
M  END
>  <minimizedAffinity>
-5.49363136

>  <minimizedRMSD>
2.61961937

$$$$
