
 OpenBabel03272508533D

 36 38  0  0  1  0  0  0  0  0999 V2000
   38.4390   31.7880   44.5990 C   0  0  0  0  0  0  0  0  0  0  0  0
   37.4090   32.5160   44.4790 O   0  0  0  0  0  0  0  0  0  0  0  0
   38.8740   31.3580   45.8930 N   0  0  0  0  0  0  0  0  0  0  0  0
   39.7940   30.9340   46.0480 H   0  0  0  0  0  0  0  0  0  0  0  0
   39.2050   31.3740   43.4130 C   0  0  0  0  0  0  0  0  0  0  0  0
   40.1970   30.4440   43.5760 C   0  0  0  0  0  0  0  0  0  0  0  0
   40.9190   30.0510   42.4580 C   0  0  0  0  0  0  0  0  0  0  0  0
   40.5950   30.6160   41.2590 C   0  0  0  0  0  0  0  0  0  0  0  0
   39.5810   31.5710   41.0740 C   0  0  0  0  0  0  0  0  0  0  0  0
   38.9330   31.8950   42.2030 N   0  0  0  0  0  0  0  0  0  0  0  0
   40.4450   30.0050   44.5260 H   0  0  0  0  0  0  0  0  0  0  0  0
   41.7130   29.3200   42.5340 H   0  0  0  0  0  0  0  0  0  0  0  0
   41.1620   30.3030   40.3980 H   0  0  0  0  0  0  0  0  0  0  0  0
   39.2930   32.1340   39.7420 C   0  0  0  0  0  2  0  0  0  0  0  0
   38.0610   31.6870   39.1610 N   0  0  0  0  0  4  0  0  0  0  0  0
   38.1480   31.7480   38.1210 H   0  0  0  0  0  0  0  0  0  0  0  0
   37.7520   30.3030   39.4770 C   0  0  0  0  0  2  0  0  0  0  0  0
   38.6620   29.6980   39.4130 H   0  0  0  0  0  0  0  0  0  0  0  0
   36.9440   32.5560   39.5610 C   0  0  0  0  0  2  0  0  0  0  0  0
   36.5500   33.1260   38.7150 H   0  0  0  0  0  0  0  0  0  0  0  0
   38.1020   30.7110   48.1750 C   0  0  2  0  0  0  0  0  0  0  0  0
   38.6690   32.0640   48.2870 C   0  0  0  0  0  0  0  0  0  0  0  0
   37.9620   31.5410   47.0070 C   0  0  1  0  0  0  0  0  0  0  0  0
   38.8940   29.9130   48.2160 H   0  0  0  0  0  0  0  0  0  0  0  0
   38.1170   32.8400   48.8640 H   0  0  0  0  0  0  0  0  0  0  0  0
   39.7440   32.2350   48.2340 H   0  0  0  0  0  0  0  0  0  0  0  0
   36.9870   32.0290   46.7910 H   0  0  0  0  0  0  0  0  0  0  0  0
   34.5750   30.0320   49.0350 C   0  0  0  0  0  0  0  0  0  0  0  0
   34.6780   29.5020   50.3490 C   0  0  0  0  0  0  0  0  0  0  0  0
   35.9980   29.3960   50.9270 C   0  0  0  0  0  0  0  0  0  0  0  0
   37.0690   29.8020   50.1970 N   0  0  0  0  0  0  0  0  0  0  0  0
   36.8960   30.3020   48.9420 C   0  0  0  0  0  0  0  0  0  0  0  0
   35.6620   30.4300   48.3350 N   0  0  0  0  0  0  0  0  0  0  0  0
   33.5640   30.0880   48.6560 H   0  0  0  0  0  0  0  0  0  0  0  0
   33.8080   29.1950   50.8850 H   0  0  0  0  0  0  0  0  0  0  0  0
   36.0840   28.9930   51.9270 H   0  0  0  0  0  0  0  0  0  0  0  0
  1  3  1  0  0  0  0
  2  1  2  0  0  0  0
  3  4  1  0  0  0  0
  3 23  1  0  0  0  0
  5  6  1  0  0  0  0
  5  1  1  0  0  0  0
  6 11  1  0  0  0  0
  7 12  1  0  0  0  0
  7  6  2  0  0  0  0
  8  7  1  0  0  0  0
  9  8  2  0  0  0  0
  9 10  1  0  0  0  0
 10  5  2  0  0  0  0
 13  8  1  0  0  0  0
 14  9  1  0  0  0  0
 15 17  1  0  0  0  0
 15 19  1  0  0  0  0
 15 14  1  0  0  0  0
 16 15  1  0  0  0  0
 18 17  1  0  0  0  0
 20 19  1  0  0  0  0
 21 24  1  6  0  0  0
 21 22  1  0  0  0  0
 21 32  1  0  0  0  0
 22 25  1  0  0  0  0
 23 27  1  6  0  0  0
 23 21  1  0  0  0  0
 23 22  1  0  0  0  0
 26 22  1  0  0  0  0
 28 29  1  0  0  0  0
 29 35  1  0  0  0  0
 29 30  2  0  0  0  0
 30 36  1  0  0  0  0
 31 30  1  0  0  0  0
 32 31  2  0  0  0  0
 33 32  1  0  0  0  0
 33 28  2  0  0  0  0
 34 28  1  0  0  0  0
M  END
>  <minimizedAffinity>
-4.7834568

>  <minimizedRMSD>
0.960928261

$$$$
