
 OpenBabel03272500153D

 29 30  0  0  0  0  0  0  0  0999 V2000
   32.9450   30.8450   46.4280 Cl  0  0  0  0  0  0  0  0  0  0  0  0
   33.0340   29.2060   47.0470 C   0  0  0  0  0  0  0  0  0  0  0  0
   34.1120   28.8160   47.8360 C   0  0  0  0  0  0  0  0  0  0  0  0
   34.2170   27.5130   48.3490 C   0  0  0  0  0  0  0  0  0  0  0  0
   33.1970   26.6290   48.0380 C   0  0  0  0  0  0  0  0  0  0  0  0
   32.1170   26.9910   47.2570 C   0  0  0  0  0  0  0  0  0  0  0  0
   30.8830   25.8100   46.9190 Cl  0  0  0  0  0  0  0  0  0  0  0  0
   32.0460   28.2970   46.7630 C   0  0  0  0  0  0  0  0  0  0  0  0
   35.0730   27.2550   48.9580 H   0  0  0  0  0  0  0  0  0  0  0  0
   33.3350   25.6550   48.4560 H   0  0  0  0  0  0  0  0  0  0  0  0
   36.2290   31.1760   49.7120 C   0  0  0  0  0  0  0  0  0  0  0  0
   37.1840   31.5410   48.7230 C   0  0  0  0  0  0  0  0  0  0  0  0
   37.0780   30.9760   47.4550 C   0  0  0  0  0  0  0  0  0  0  0  0
   36.0580   30.0960   47.2240 N   0  0  0  0  0  0  0  0  0  0  0  0
   35.1750   29.7620   48.1540 C   0  0  0  0  0  0  0  0  0  0  0  0
   35.2490   30.2920   49.3910 N   0  0  0  0  0  0  0  0  0  0  0  0
   36.2830   31.5970   50.7090 H   0  0  0  0  0  0  0  0  0  0  0  0
   37.8010   31.2520   46.7030 H   0  0  0  0  0  0  0  0  0  0  0  0
   38.2500   32.5170   49.1050 C   0  0  0  0  0  0  0  0  0  0  0  0
   39.1510   32.6790   48.0260 F   0  0  0  0  0  0  0  0  0  0  0  0
   37.6670   33.7280   49.3460 F   0  0  0  0  0  0  0  0  0  0  0  0
   38.9780   32.1100   50.2080 F   0  0  0  0  0  0  0  0  0  0  0  0
   30.8800   28.6560   45.9320 C   0  0  0  0  0  0  0  0  0  0  0  0
   29.9950   29.6170   46.5110 N   0  0  0  0  0  0  0  0  0  0  0  0
   30.4690   30.2980   47.1490 H   0  0  0  0  0  0  0  0  0  0  0  0
   29.2340   30.3300   45.5100 C   0  0  0  0  0  0  0  0  0  0  0  0
   28.5910   29.6120   44.9690 H   0  0  0  0  0  0  0  0  0  0  0  0
   29.0840   28.8580   47.3760 C   0  0  0  0  0  0  0  0  0  0  0  0
   29.6940   28.4630   48.2240 H   0  0  0  0  0  0  0  0  0  0  0  0
  1  2  1  0  0  0  0
  2  3  1  0  0  0  0
  3 15  1  0  0  0  0
  3  4  2  0  0  0  0
  4  9  1  0  0  0  0
  5  4  1  0  0  0  0
  5 10  1  0  0  0  0
  6  5  2  0  0  0  0
  7  6  1  0  0  0  0
  8  2  2  0  0  0  0
  8  6  1  0  0  0  0
 11 17  1  0  0  0  0
 12 19  1  0  0  0  0
 12 11  2  0  0  0  0
 13 12  1  0  0  0  0
 14 13  2  0  0  0  0
 14 15  1  0  0  0  0
 15 16  2  0  0  0  0
 16 11  1  0  0  0  0
 18 13  1  0  0  0  0
 19 21  1  0  0  0  0
 19 22  1  0  0  0  0
 20 19  1  0  0  0  0
 23 24  1  0  0  0  0
 23  8  1  0  0  0  0
 24 25  1  0  0  0  0
 24 28  1  0  0  0  0
 26 24  1  0  0  0  0
 27 26  1  0  0  0  0
 28 29  1  0  0  0  0
M  END
>  <minimizedAffinity>
-5.49100256

>  <minimizedRMSD>
2.0709784

$$$$
