
 OpenBabel03272504163D

 22 22  0  0  0  0  0  0  0  0999 V2000
   39.3640   24.6760   35.6190 C   0  0  0  0  0  0  0  0  0  0  0  0
   39.2920   26.0220   35.2130 C   0  0  0  0  0  0  0  0  0  0  0  0
   40.4600   26.6080   34.7710 C   0  0  0  0  0  0  0  0  0  0  0  0
   41.6050   25.8840   34.7440 N   0  0  0  0  0  0  0  0  0  0  0  0
   41.6610   24.5900   35.1360 C   0  0  0  0  0  0  0  0  0  0  0  0
   40.5220   24.0090   35.5710 N   0  0  0  0  0  0  0  0  0  0  0  0
   40.4640   27.6260   34.4530 H   0  0  0  0  0  0  0  0  0  0  0  0
   42.5860   24.0310   35.1060 H   0  0  0  0  0  0  0  0  0  0  0  0
   38.2970   23.9110   36.0970 O   0  0  0  0  0  0  0  0  0  0  0  0
   38.0140   24.5700   38.6950 O   0  0  0  0  0  0  0  0  0  0  0  0
   38.2130   23.4050   37.7230 P   0  0  0  0  0  0  0  0  0  0  0  0
   36.9200   22.3260   37.8410 O   0  0  0  0  0  0  0  0  0  0  0  0
   37.1820   21.5130   37.3340 H   0  0  0  0  0  0  0  0  0  0  0  0
   39.6610   22.6550   38.1770 O   0  0  0  0  0  0  0  0  0  0  0  0
   39.9580   22.0030   37.4980 H   0  0  0  0  0  0  0  0  0  0  0  0
   38.0040   26.6880   35.2840 C   0  0  0  0  0  2  0  0  0  0  0  0
   37.5490   27.3360   34.0960 N   0  0  0  0  0  4  0  0  0  0  0  0
   38.2360   27.8720   33.5600 H   0  0  0  0  0  0  0  0  0  0  0  0
   37.0520   26.2650   33.2130 C   0  0  0  0  0  2  0  0  0  0  0  0
   36.8080   25.3500   33.7900 H   0  0  0  0  0  0  0  0  0  0  0  0
   36.4240   28.2270   34.3970 C   0  0  0  0  0  2  0  0  0  0  0  0
   36.7570   29.2580   34.5630 H   0  0  0  0  0  0  0  0  0  0  0  0
  1  9  1  0  0  0  0
  2 16  1  0  0  0  0
  2  1  2  0  0  0  0
  3  2  1  0  0  0  0
  4  3  2  0  0  0  0
  4  5  1  0  0  0  0
  5  6  2  0  0  0  0
  6  1  1  0  0  0  0
  7  3  1  0  0  0  0
  8  5  1  0  0  0  0
  9 11  1  0  0  0  0
 11 12  1  0  0  0  0
 11 14  1  0  0  0  0
 11 10  2  0  0  0  0
 13 12  1  0  0  0  0
 15 14  1  0  0  0  0
 17 21  1  0  0  0  0
 17 16  1  0  0  0  0
 18 17  1  0  0  0  0
 19 20  1  0  0  0  0
 19 17  1  0  0  0  0
 21 22  1  0  0  0  0
M  END
>  <minimizedAffinity>
-4.17682409

$$$$

 OpenBabel03272504163D

 22 22  0  0  0  0  0  0  0  0999 V2000
   39.0530   24.3850   36.1830 C   0  0  0  0  0  0  0  0  0  0  0  0
   39.9000   23.3310   36.5750 C   0  0  0  0  0  0  0  0  0  0  0  0
   39.6980   22.7980   37.8320 C   0  0  0  0  0  0  0  0  0  0  0  0
   38.7170   23.2960   38.6220 N   0  0  0  0  0  0  0  0  0  0  0  0
   37.9090   24.3090   38.2330 C   0  0  0  0  0  0  0  0  0  0  0  0
   38.1000   24.8380   37.0050 N   0  0  0  0  0  0  0  0  0  0  0  0
   40.3110   21.9980   38.1820 H   0  0  0  0  0  0  0  0  0  0  0  0
   37.1320   24.6920   38.8810 H   0  0  0  0  0  0  0  0  0  0  0  0
   39.0990   25.0550   34.9580 O   0  0  0  0  0  0  0  0  0  0  0  0
   39.2020   27.3300   33.5180 O   0  0  0  0  0  0  0  0  0  0  0  0
   39.6080   26.6780   34.8410 P   0  0  0  0  0  0  0  0  0  0  0  0
   38.9140   27.5110   36.1340 O   0  0  0  0  0  0  0  0  0  0  0  0
   39.3480   27.1660   36.9590 H   0  0  0  0  0  0  0  0  0  0  0  0
   41.2970   26.7660   34.9110 O   0  0  0  0  0  0  0  0  0  0  0  0
   41.6570   26.2140   35.6440 H   0  0  0  0  0  0  0  0  0  0  0  0
   40.9100   22.8820   35.6360 C   0  0  0  0  0  2  0  0  0  0  0  0
   41.9450   23.8110   35.3100 N   0  0  0  0  0  4  0  0  0  0  0  0
   41.7260   24.8070   35.3950 H   0  0  0  0  0  0  0  0  0  0  0  0
   43.0510   23.5320   36.2450 C   0  0  0  0  0  2  0  0  0  0  0  0
   42.9730   22.5070   36.6650 H   0  0  0  0  0  0  0  0  0  0  0  0
   42.4370   23.5740   33.9510 C   0  0  0  0  0  2  0  0  0  0  0  0
   41.9370   24.2210   33.2200 H   0  0  0  0  0  0  0  0  0  0  0  0
  1  2  2  0  0  0  0
  1  6  1  0  0  0  0
  2  3  1  0  0  0  0
  3  7  1  0  0  0  0
  3  4  2  0  0  0  0
  5  4  1  0  0  0  0
  5  8  1  0  0  0  0
  6  5  2  0  0  0  0
  9  1  1  0  0  0  0
 10 11  2  0  0  0  0
 11 14  1  0  0  0  0
 11  9  1  0  0  0  0
 11 12  1  0  0  0  0
 12 13  1  0  0  0  0
 14 15  1  0  0  0  0
 16  2  1  0  0  0  0
 17 18  1  0  0  0  0
 17 16  1  0  0  0  0
 17 19  1  0  0  0  0
 19 20  1  0  0  0  0
 21 17  1  0  0  0  0
 22 21  1  0  0  0  0
M  END
>  <minimizedAffinity>
-4.09587193

$$$$

 OpenBabel03272504163D

 22 22  0  0  0  0  0  0  0  0999 V2000
   38.3680   23.2340   34.6630 C   0  0  0  0  0  0  0  0  0  0  0  0
   38.0640   24.2180   33.7020 C   0  0  0  0  0  0  0  0  0  0  0  0
   37.3300   23.8180   32.6040 C   0  0  0  0  0  0  0  0  0  0  0  0
   36.9380   22.5260   32.4950 N   0  0  0  0  0  0  0  0  0  0  0  0
   37.2350   21.5910   33.4250 C   0  0  0  0  0  0  0  0  0  0  0  0
   37.9540   21.9730   34.5030 N   0  0  0  0  0  0  0  0  0  0  0  0
   37.0730   24.5210   31.8450 H   0  0  0  0  0  0  0  0  0  0  0  0
   36.9120   20.5640   33.3170 H   0  0  0  0  0  0  0  0  0  0  0  0
   39.0980   23.4390   35.8360 O   0  0  0  0  0  0  0  0  0  0  0  0
   37.9960   24.7080   37.9420 O   0  0  0  0  0  0  0  0  0  0  0  0
   38.3720   23.3380   37.3750 P   0  0  0  0  0  0  0  0  0  0  0  0
   36.9910   22.3810   37.2110 O   0  0  0  0  0  0  0  0  0  0  0  0
   37.3070   21.4590   37.0170 H   0  0  0  0  0  0  0  0  0  0  0  0
   39.4490   22.6480   38.4850 O   0  0  0  0  0  0  0  0  0  0  0  0
   39.8790   21.8410   38.1150 H   0  0  0  0  0  0  0  0  0  0  0  0
   38.5370   25.5700   33.9370 C   0  0  0  0  0  2  0  0  0  0  0  0
   38.0390   26.2330   35.0990 N   0  0  0  0  0  4  0  0  0  0  0  0
   37.7530   25.6480   35.8880 H   0  0  0  0  0  0  0  0  0  0  0  0
   39.1350   27.0960   35.5770 C   0  0  0  0  0  2  0  0  0  0  0  0
   39.8660   27.3010   34.7680 H   0  0  0  0  0  0  0  0  0  0  0  0
   36.9080   27.0980   34.7500 C   0  0  0  0  0  2  0  0  0  0  0  0
   35.9480   26.5910   34.9040 H   0  0  0  0  0  0  0  0  0  0  0  0
  1  9  1  0  0  0  0
  2 16  1  0  0  0  0
  2  1  2  0  0  0  0
  3  2  1  0  0  0  0
  4  3  2  0  0  0  0
  4  5  1  0  0  0  0
  5  6  2  0  0  0  0
  6  1  1  0  0  0  0
  7  3  1  0  0  0  0
  8  5  1  0  0  0  0
  9 11  1  0  0  0  0
 11 10  2  0  0  0  0
 11 14  1  0  0  0  0
 12 11  1  0  0  0  0
 13 12  1  0  0  0  0
 15 14  1  0  0  0  0
 16 17  1  0  0  0  0
 17 19  1  0  0  0  0
 17 18  1  0  0  0  0
 20 19  1  0  0  0  0
 21 22  1  0  0  0  0
 21 17  1  0  0  0  0
M  END
>  <minimizedAffinity>
-4.01632452

$$$$

 OpenBabel03272504163D

 22 22  0  0  0  0  0  0  0  0999 V2000
   38.5350   25.2680   35.5060 C   0  0  0  0  0  0  0  0  0  0  0  0
   37.9170   25.0950   34.2540 C   0  0  0  0  0  0  0  0  0  0  0  0
   37.2960   26.1970   33.7020 C   0  0  0  0  0  0  0  0  0  0  0  0
   37.3050   27.3760   34.3700 N   0  0  0  0  0  0  0  0  0  0  0  0
   37.9040   27.5300   35.5730 C   0  0  0  0  0  0  0  0  0  0  0  0
   38.5130   26.4560   36.1210 N   0  0  0  0  0  0  0  0  0  0  0  0
   36.8100   26.1230   32.7560 H   0  0  0  0  0  0  0  0  0  0  0  0
   37.8980   28.4800   36.0890 H   0  0  0  0  0  0  0  0  0  0  0  0
   39.2100   24.2790   36.2260 O   0  0  0  0  0  0  0  0  0  0  0  0
   37.8500   24.3820   38.5500 O   0  0  0  0  0  0  0  0  0  0  0  0
   38.4700   23.4430   37.5140 P   0  0  0  0  0  0  0  0  0  0  0  0
   37.2780   22.4520   36.8440 O   0  0  0  0  0  0  0  0  0  0  0  0
   37.7520   21.7520   36.3230 H   0  0  0  0  0  0  0  0  0  0  0  0
   39.6180   22.5170   38.3450 O   0  0  0  0  0  0  0  0  0  0  0  0
   40.1900   22.0080   37.7220 H   0  0  0  0  0  0  0  0  0  0  0  0
   37.9810   23.7830   33.6370 C   0  0  0  0  0  2  0  0  0  0  0  0
   39.2700   23.1740   33.5530 N   0  0  0  0  0  4  0  0  0  0  0  0
   39.9490   23.4090   34.2810 H   0  0  0  0  0  0  0  0  0  0  0  0
   39.0380   21.7200   33.6320 C   0  0  0  0  0  2  0  0  0  0  0  0
   37.9930   21.4640   33.3610 H   0  0  0  0  0  0  0  0  0  0  0  0
   39.8880   23.4590   32.2550 C   0  0  0  0  0  2  0  0  0  0  0  0
   40.5520   24.3300   32.3050 H   0  0  0  0  0  0  0  0  0  0  0  0
  1  6  1  0  0  0  0
  1  9  1  0  0  0  0
  2  1  2  0  0  0  0
  3  2  1  0  0  0  0
  3  4  2  0  0  0  0
  4  5  1  0  0  0  0
  5  8  1  0  0  0  0
  5  6  2  0  0  0  0
  7  3  1  0  0  0  0
  9 11  1  0  0  0  0
 11 14  1  0  0  0  0
 11 10  2  0  0  0  0
 12 11  1  0  0  0  0
 13 12  1  0  0  0  0
 15 14  1  0  0  0  0
 16  2  1  0  0  0  0
 17 19  1  0  0  0  0
 17 16  1  0  0  0  0
 17 18  1  0  0  0  0
 20 19  1  0  0  0  0
 21 22  1  0  0  0  0
 21 17  1  0  0  0  0
M  END
>  <minimizedAffinity>
-3.93772221

$$$$

 OpenBabel03272504163D

 22 22  0  0  0  0  0  0  0  0999 V2000
   40.3460   23.6960   35.7300 C   0  0  0  0  0  0  0  0  0  0  0  0
   40.6790   24.8090   34.9350 C   0  0  0  0  0  0  0  0  0  0  0  0
   42.0100   25.1700   34.8860 C   0  0  0  0  0  0  0  0  0  0  0  0
   42.9250   24.4550   35.5870 N   0  0  0  0  0  0  0  0  0  0  0  0
   42.5910   23.3860   36.3450 C   0  0  0  0  0  0  0  0  0  0  0  0
   41.2900   23.0270   36.4000 N   0  0  0  0  0  0  0  0  0  0  0  0
   42.3200   26.0060   34.3010 H   0  0  0  0  0  0  0  0  0  0  0  0
   43.3380   22.8310   36.8970 H   0  0  0  0  0  0  0  0  0  0  0  0
   39.0610   23.1790   35.9100 O   0  0  0  0  0  0  0  0  0  0  0  0
   37.8910   24.6530   37.8390 O   0  0  0  0  0  0  0  0  0  0  0  0
   38.2750   23.2320   37.4210 P   0  0  0  0  0  0  0  0  0  0  0  0
   36.8910   22.2720   37.2970 O   0  0  0  0  0  0  0  0  0  0  0  0
   37.2050   21.3340   37.2050 H   0  0  0  0  0  0  0  0  0  0  0  0
   39.3010   22.6460   38.6340 O   0  0  0  0  0  0  0  0  0  0  0  0
   39.7370   21.8050   38.3620 H   0  0  0  0  0  0  0  0  0  0  0  0
   39.6090   25.4880   34.2290 C   0  0  0  0  0  2  0  0  0  0  0  0
   38.5080   25.9470   35.0140 N   0  0  0  0  0  4  0  0  0  0  0  0
   38.2000   25.3500   35.7850 H   0  0  0  0  0  0  0  0  0  0  0  0
   38.9370   27.2290   35.6040 C   0  0  0  0  0  2  0  0  0  0  0  0
   39.7750   27.6750   35.0310 H   0  0  0  0  0  0  0  0  0  0  0  0
   37.3460   26.2130   34.1620 C   0  0  0  0  0  2  0  0  0  0  0  0
   36.6680   25.3530   34.1220 H   0  0  0  0  0  0  0  0  0  0  0  0
  1  9  1  0  0  0  0
  1  6  1  0  0  0  0
  2  1  2  0  0  0  0
  3  2  1  0  0  0  0
  3  4  2  0  0  0  0
  4  5  1  0  0  0  0
  5  6  2  0  0  0  0
  5  8  1  0  0  0  0
  7  3  1  0  0  0  0
  9 11  1  0  0  0  0
 11 10  2  0  0  0  0
 11 14  1  0  0  0  0
 12 11  1  0  0  0  0
 13 12  1  0  0  0  0
 15 14  1  0  0  0  0
 16  2  1  0  0  0  0
 16 17  1  0  0  0  0
 17 19  1  0  0  0  0
 17 18  1  0  0  0  0
 20 19  1  0  0  0  0
 21 17  1  0  0  0  0
 22 21  1  0  0  0  0
M  END
>  <minimizedAffinity>
-3.92474842

$$$$

 OpenBabel03272504163D

 22 22  0  0  0  0  0  0  0  0999 V2000
   38.3410   24.5310   36.1660 C   0  0  0  0  0  0  0  0  0  0  0  0
   39.4050   23.6200   36.0210 C   0  0  0  0  0  0  0  0  0  0  0  0
   39.8000   22.9320   37.1500 C   0  0  0  0  0  0  0  0  0  0  0  0
   39.1640   23.1520   38.3260 N   0  0  0  0  0  0  0  0  0  0  0  0
   38.1420   24.0290   38.4520 C   0  0  0  0  0  0  0  0  0  0  0  0
   37.7500   24.7080   37.3520 N   0  0  0  0  0  0  0  0  0  0  0  0
   40.6020   22.2300   37.1000 H   0  0  0  0  0  0  0  0  0  0  0  0
   37.6490   24.1900   39.4000 H   0  0  0  0  0  0  0  0  0  0  0  0
   37.8010   25.3200   35.1480 O   0  0  0  0  0  0  0  0  0  0  0  0
   39.3890   27.1700   33.9990 O   0  0  0  0  0  0  0  0  0  0  0  0
   38.2210   26.9620   34.9660 P   0  0  0  0  0  0  0  0  0  0  0  0
   36.8500   27.7670   34.3990 O   0  0  0  0  0  0  0  0  0  0  0  0
   36.1870   27.7530   35.1390 H   0  0  0  0  0  0  0  0  0  0  0  0
   38.7200   27.6060   36.4500 O   0  0  0  0  0  0  0  0  0  0  0  0
   38.1000   27.3580   37.1770 H   0  0  0  0  0  0  0  0  0  0  0  0
   40.0010   23.4700   34.7070 C   0  0  0  0  0  2  0  0  0  0  0  0
   39.1060   23.2520   33.6150 N   0  0  0  0  0  4  0  0  0  0  0  0
   38.1820   23.6890   33.6710 H   0  0  0  0  0  0  0  0  0  0  0  0
   39.7750   23.8070   32.4240 C   0  0  0  0  0  2  0  0  0  0  0  0
   40.8700   23.8880   32.5800 H   0  0  0  0  0  0  0  0  0  0  0  0
   38.9100   21.8170   33.3920 C   0  0  0  0  0  2  0  0  0  0  0  0
   38.0160   21.4460   33.9060 H   0  0  0  0  0  0  0  0  0  0  0  0
  1  6  1  0  0  0  0
  2  1  2  0  0  0  0
  2  3  1  0  0  0  0
  3  4  2  0  0  0  0
  4  5  1  0  0  0  0
  5  8  1  0  0  0  0
  6  5  2  0  0  0  0
  7  3  1  0  0  0  0
  9  1  1  0  0  0  0
 10 11  2  0  0  0  0
 11  9  1  0  0  0  0
 11 14  1  0  0  0  0
 12 11  1  0  0  0  0
 12 13  1  0  0  0  0
 14 15  1  0  0  0  0
 16  2  1  0  0  0  0
 17 18  1  0  0  0  0
 17 16  1  0  0  0  0
 19 20  1  0  0  0  0
 19 17  1  0  0  0  0
 21 17  1  0  0  0  0
 21 22  1  0  0  0  0
M  END
>  <minimizedAffinity>
-3.88115478

$$$$

 OpenBabel03272504163D

 22 22  0  0  0  0  0  0  0  0999 V2000
   36.8290   27.2660   33.5830 C   0  0  0  0  0  0  0  0  0  0  0  0
   37.1570   27.1630   32.2180 C   0  0  0  0  0  0  0  0  0  0  0  0
   36.8380   28.2380   31.4130 C   0  0  0  0  0  0  0  0  0  0  0  0
   36.2370   29.3250   31.9530 N   0  0  0  0  0  0  0  0  0  0  0  0
   35.9280   29.4120   33.2670 C   0  0  0  0  0  0  0  0  0  0  0  0
   36.2360   28.3650   34.0630 N   0  0  0  0  0  0  0  0  0  0  0  0
   37.0620   28.2140   30.3700 H   0  0  0  0  0  0  0  0  0  0  0  0
   35.4480   30.2900   33.6770 H   0  0  0  0  0  0  0  0  0  0  0  0
   37.0660   26.2900   34.5540 O   0  0  0  0  0  0  0  0  0  0  0  0
   39.7220   26.0300   34.9310 O   0  0  0  0  0  0  0  0  0  0  0  0
   38.3990   26.3830   35.6130 P   0  0  0  0  0  0  0  0  0  0  0  0
   38.4560   27.9630   36.2040 O   0  0  0  0  0  0  0  0  0  0  0  0
   37.6580   28.0770   36.7860 H   0  0  0  0  0  0  0  0  0  0  0  0
   38.2150   25.2770   36.8820 O   0  0  0  0  0  0  0  0  0  0  0  0
   37.3070   25.3170   37.2650 H   0  0  0  0  0  0  0  0  0  0  0  0
   37.8050   25.9480   31.7620 C   0  0  0  0  0  2  0  0  0  0  0  0
   37.1700   25.2410   30.6960 N   0  0  0  0  0  4  0  0  0  0  0  0
   36.9340   25.7720   29.8540 H   0  0  0  0  0  0  0  0  0  0  0  0
   38.1150   24.1840   30.2880 C   0  0  0  0  0  2  0  0  0  0  0  0
   38.8440   23.9650   31.0950 H   0  0  0  0  0  0  0  0  0  0  0  0
   35.9470   24.5880   31.1710 C   0  0  0  0  0  2  0  0  0  0  0  0
   35.0600   25.2070   30.9880 H   0  0  0  0  0  0  0  0  0  0  0  0
  1  6  1  0  0  0  0
  1  9  1  0  0  0  0
  2  1  2  0  0  0  0
  3  4  2  0  0  0  0
  3  2  1  0  0  0  0
  4  5  1  0  0  0  0
  5  8  1  0  0  0  0
  5  6  2  0  0  0  0
  7  3  1  0  0  0  0
  9 11  1  0  0  0  0
 10 11  2  0  0  0  0
 11 12  1  0  0  0  0
 11 14  1  0  0  0  0
 12 13  1  0  0  0  0
 14 15  1  0  0  0  0
 16  2  1  0  0  0  0
 17 21  1  0  0  0  0
 17 16  1  0  0  0  0
 18 17  1  0  0  0  0
 19 17  1  0  0  0  0
 19 20  1  0  0  0  0
 22 21  1  0  0  0  0
M  END
>  <minimizedAffinity>
-3.8335166

$$$$

 OpenBabel03272504163D

 22 22  0  0  0  0  0  0  0  0999 V2000
   37.7170   22.7630   33.7970 C   0  0  0  0  0  0  0  0  0  0  0  0
   38.1880   23.4160   34.9520 C   0  0  0  0  0  0  0  0  0  0  0  0
   38.2860   24.7910   34.9010 C   0  0  0  0  0  0  0  0  0  0  0  0
   37.9330   25.4470   33.7680 N   0  0  0  0  0  0  0  0  0  0  0  0
   37.4800   24.8080   32.6650 C   0  0  0  0  0  0  0  0  0  0  0  0
   37.3820   23.4620   32.7060 N   0  0  0  0  0  0  0  0  0  0  0  0
   38.6390   25.3370   35.7460 H   0  0  0  0  0  0  0  0  0  0  0  0
   37.2050   25.3520   31.7720 H   0  0  0  0  0  0  0  0  0  0  0  0
   37.5500   21.3840   33.6510 O   0  0  0  0  0  0  0  0  0  0  0  0
   36.0440   19.3440   32.7380 O   0  0  0  0  0  0  0  0  0  0  0  0
   36.0070   20.6800   33.4820 P   0  0  0  0  0  0  0  0  0  0  0  0
   35.3880   20.4590   35.0380 O   0  0  0  0  0  0  0  0  0  0  0  0
   35.2170   21.3660   35.4050 H   0  0  0  0  0  0  0  0  0  0  0  0
   34.9970   21.6940   32.5770 O   0  0  0  0  0  0  0  0  0  0  0  0
   35.0550   22.6290   32.8860 H   0  0  0  0  0  0  0  0  0  0  0  0
   38.5290   22.6020   36.1040 C   0  0  0  0  0  2  0  0  0  0  0  0
   39.3330   23.2170   37.1110 N   0  0  0  0  0  4  0  0  0  0  0  0
   39.7010   24.1510   36.9140 H   0  0  0  0  0  0  0  0  0  0  0  0
   38.4720   23.3360   38.3030 C   0  0  0  0  0  2  0  0  0  0  0  0
   37.6210   22.6250   38.2550 H   0  0  0  0  0  0  0  0  0  0  0  0
   40.4650   22.3540   37.4610 C   0  0  0  0  0  2  0  0  0  0  0  0
   41.3660   22.6210   36.8970 H   0  0  0  0  0  0  0  0  0  0  0  0
  1  2  1  0  0  0  0
  2 16  1  0  0  0  0
  3  2  2  0  0  0  0
  3  7  1  0  0  0  0
  4  3  1  0  0  0  0
  5  6  1  0  0  0  0
  5  4  2  0  0  0  0
  6  1  2  0  0  0  0
  8  5  1  0  0  0  0
  9  1  1  0  0  0  0
 10 11  2  0  0  0  0
 11  9  1  0  0  0  0
 11 12  1  0  0  0  0
 12 13  1  0  0  0  0
 14 15  1  0  0  0  0
 14 11  1  0  0  0  0
 16 17  1  0  0  0  0
 17 21  1  0  0  0  0
 17 19  1  0  0  0  0
 18 17  1  0  0  0  0
 20 19  1  0  0  0  0
 22 21  1  0  0  0  0
M  END
>  <minimizedAffinity>
-3.8075037

$$$$

 OpenBabel03272504163D

 22 22  0  0  0  0  0  0  0  0999 V2000
   39.5980   22.9900   36.5180 C   0  0  0  0  0  0  0  0  0  0  0  0
   38.8750   24.0340   35.9110 C   0  0  0  0  0  0  0  0  0  0  0  0
   38.0620   24.7940   36.7280 C   0  0  0  0  0  0  0  0  0  0  0  0
   37.9930   24.5140   38.0520 N   0  0  0  0  0  0  0  0  0  0  0  0
   38.6940   23.5080   38.6240 C   0  0  0  0  0  0  0  0  0  0  0  0
   39.4910   22.7590   37.8310 N   0  0  0  0  0  0  0  0  0  0  0  0
   37.4900   25.5970   36.3210 H   0  0  0  0  0  0  0  0  0  0  0  0
   38.6230   23.3020   39.6820 H   0  0  0  0  0  0  0  0  0  0  0  0
   40.4660   22.1130   35.8640 O   0  0  0  0  0  0  0  0  0  0  0  0
   42.6830   20.5870   35.7160 O   0  0  0  0  0  0  0  0  0  0  0  0
   41.9370   21.6160   36.5680 P   0  0  0  0  0  0  0  0  0  0  0  0
   42.8860   22.9990   36.7670 O   0  0  0  0  0  0  0  0  0  0  0  0
   42.4420   23.5490   37.4650 H   0  0  0  0  0  0  0  0  0  0  0  0
   41.6480   20.8710   38.0610 O   0  0  0  0  0  0  0  0  0  0  0  0
   41.0190   21.3960   38.6100 H   0  0  0  0  0  0  0  0  0  0  0  0
   39.0380   24.2370   34.4830 C   0  0  0  0  0  2  0  0  0  0  0  0
   37.8760   24.0640   33.6710 N   0  0  0  0  0  4  0  0  0  0  0  0
   36.9790   24.3540   34.0670 H   0  0  0  0  0  0  0  0  0  0  0  0
   38.0990   24.8800   32.4630 C   0  0  0  0  0  2  0  0  0  0  0  0
   39.1780   25.0900   32.3130 H   0  0  0  0  0  0  0  0  0  0  0  0
   37.7490   22.6660   33.2500 C   0  0  0  0  0  2  0  0  0  0  0  0
   37.0910   22.1000   33.9190 H   0  0  0  0  0  0  0  0  0  0  0  0
  1  6  1  0  0  0  0
  2  1  2  0  0  0  0
  2  3  1  0  0  0  0
  3  4  2  0  0  0  0
  4  5  1  0  0  0  0
  5  8  1  0  0  0  0
  6  5  2  0  0  0  0
  7  3  1  0  0  0  0
  9  1  1  0  0  0  0
  9 11  1  0  0  0  0
 10 11  2  0  0  0  0
 11 12  1  0  0  0  0
 11 14  1  0  0  0  0
 12 13  1  0  0  0  0
 14 15  1  0  0  0  0
 16  2  1  0  0  0  0
 17 18  1  0  0  0  0
 17 16  1  0  0  0  0
 19 17  1  0  0  0  0
 20 19  1  0  0  0  0
 21 17  1  0  0  0  0
 21 22  1  0  0  0  0
M  END
>  <minimizedAffinity>
-3.75114441

$$$$
