
 OpenBabel03272502193D

 31 32  0  0  1  0  0  0  0  0999 V2000
   38.1900   25.4030   36.1100 S   0  0  0  0  0  0  0  0  0  0  0  0
   38.0140   22.8640   37.0160 N   0  0  0  0  0  0  0  0  0  0  0  0
   38.4410   23.6060   35.8440 C   0  0  2  0  0  0  0  0  0  0  0  0
   39.9150   23.3380   35.6310 C   0  0  0  0  0  0  0  0  0  0  0  0
   40.3310   22.1800   36.3260 O   0  0  0  0  0  0  0  0  0  0  0  0
   40.2720   22.5470   37.6780 C   0  0  0  0  0  0  0  0  0  0  0  0
   38.9460   23.1240   38.0810 C   0  0  2  0  0  0  0  0  0  0  0  0
   38.1120   21.8580   36.7510 H   0  0  0  0  0  0  0  0  0  0  0  0
   37.8870   23.3210   34.9290 H   0  0  0  0  0  0  0  0  0  0  0  0
   40.4800   24.1830   36.0880 H   0  0  0  0  0  0  0  0  0  0  0  0
   40.1910   23.2870   34.5590 H   0  0  0  0  0  0  0  0  0  0  0  0
   41.0410   23.3390   37.8960 H   0  0  0  0  0  0  0  0  0  0  0  0
   40.5510   21.6800   38.3040 H   0  0  0  0  0  0  0  0  0  0  0  0
   38.9820   24.2220   38.2780 H   0  0  0  0  0  0  0  0  0  0  0  0
   38.4490   22.4750   39.2390 O   0  0  0  0  0  0  0  0  0  0  0  0
   39.1380   21.9100   39.6520 H   0  0  0  0  0  0  0  0  0  0  0  0
   37.4800   26.1560   34.6740 C   0  0  0  0  0  0  0  0  0  0  0  0
   37.0650   27.4810   34.9180 C   0  0  0  0  0  0  0  0  0  0  0  0
   36.4820   28.2000   33.8710 C   0  0  0  0  0  0  0  0  0  0  0  0
   36.3450   27.5740   32.6570 N   0  0  0  0  0  0  0  0  0  0  0  0
   36.7590   26.3040   32.4720 C   0  0  0  0  0  0  0  0  0  0  0  0
   37.3150   25.6050   33.4570 N   0  0  0  0  0  0  0  0  0  0  0  0
   37.1470   28.0160   35.8440 H   0  0  0  0  0  0  0  0  0  0  0  0
   36.1480   29.2160   34.0060 H   0  0  0  0  0  0  0  0  0  0  0  0
   36.6260   25.5980   31.1710 C   0  0  0  0  0  2  0  0  0  0  0  0
   36.9640   24.1880   31.3400 N   0  0  0  0  0  4  0  0  0  0  0  0
   37.3150   24.0930   32.3150 H   0  0  0  0  0  0  0  0  0  0  0  0
   35.7270   23.4400   31.1540 C   0  0  0  0  0  2  0  0  0  0  0  0
   35.9360   22.4010   30.8230 H   0  0  0  0  0  0  0  0  0  0  0  0
   37.9800   23.7830   30.3950 C   0  0  0  0  0  2  0  0  0  0  0  0
   38.9700   23.7870   30.8700 H   0  0  0  0  0  0  0  0  0  0  0  0
  2  7  1  0  0  0  0
  3  9  1  6  0  0  0
  3  1  1  0  0  0  0
  3  2  1  0  0  0  0
  4  3  1  0  0  0  0
  4 10  1  0  0  0  0
  4  5  1  0  0  0  0
  5  6  1  0  0  0  0
  6 12  1  0  0  0  0
  6  7  1  0  0  0  0
  6 13  1  0  0  0  0
  7 14  1  1  0  0  0
  7 15  1  0  0  0  0
  8  2  1  0  0  0  0
 11  4  1  0  0  0  0
 15 16  1  0  0  0  0
 17 18  1  0  0  0  0
 17  1  1  0  0  0  0
 18 23  1  0  0  0  0
 19 24  1  0  0  0  0
 19 18  2  0  0  0  0
 20 19  1  0  0  0  0
 21 20  2  0  0  0  0
 21 22  1  0  0  0  0
 22 17  2  0  0  0  0
 25 26  1  0  0  0  0
 25 21  1  0  0  0  0
 26 27  1  0  0  0  0
 28 26  1  0  0  0  0
 29 28  1  0  0  0  0
 30 31  1  0  0  0  0
 30 26  1  0  0  0  0
M  END
>  <minimizedAffinity>
-5.02239609

$$$$

 OpenBabel03272502193D

 31 32  0  0  1  0  0  0  0  0999 V2000
   38.6080   24.2110   34.8300 S   0  0  0  0  0  0  0  0  0  0  0  0
   38.5240   22.2830   36.7210 N   0  0  0  0  0  0  0  0  0  0  0  0
   38.9670   22.4910   35.3540 C   0  0  2  0  0  0  0  0  0  0  0  0
   40.4620   22.2610   35.3050 C   0  0  0  0  0  0  0  0  0  0  0  0
   40.9060   21.5340   36.4330 O   0  0  0  0  0  0  0  0  0  0  0  0
   40.7620   22.4300   37.5010 C   0  0  0  0  0  0  0  0  0  0  0  0
   39.3890   23.0310   37.5950 C   0  0  2  0  0  0  0  0  0  0  0  0
   38.6890   21.2680   36.9070 H   0  0  0  0  0  0  0  0  0  0  0  0
   38.4740   21.8110   34.6340 H   0  0  0  0  0  0  0  0  0  0  0  0
   40.9590   23.2560   35.3730 H   0  0  0  0  0  0  0  0  0  0  0  0
   40.7920   21.7840   34.3610 H   0  0  0  0  0  0  0  0  0  0  0  0
   41.4760   23.2910   37.3800 H   0  0  0  0  0  0  0  0  0  0  0  0
   41.0570   21.9290   38.4410 H   0  0  0  0  0  0  0  0  0  0  0  0
   39.3560   24.1090   37.3100 H   0  0  0  0  0  0  0  0  0  0  0  0
   38.8730   22.8960   38.9080 O   0  0  0  0  0  0  0  0  0  0  0  0
   39.5700   22.6050   39.5360 H   0  0  0  0  0  0  0  0  0  0  0  0
   37.7490   24.2290   33.2830 C   0  0  0  0  0  0  0  0  0  0  0  0
   37.8670   23.0040   32.5940 C   0  0  0  0  0  0  0  0  0  0  0  0
   37.2390   22.8750   31.3520 C   0  0  0  0  0  0  0  0  0  0  0  0
   36.5390   23.9520   30.8690 N   0  0  0  0  0  0  0  0  0  0  0  0
   36.4540   25.1040   31.5660 C   0  0  0  0  0  0  0  0  0  0  0  0
   37.0450   25.2440   32.7480 N   0  0  0  0  0  0  0  0  0  0  0  0
   38.4000   22.1350   32.9240 H   0  0  0  0  0  0  0  0  0  0  0  0
   37.2990   21.9590   30.7870 H   0  0  0  0  0  0  0  0  0  0  0  0
   35.7040   26.2870   31.0710 C   0  0  0  0  0  2  0  0  0  0  0  0
   36.3290   27.5080   31.5690 N   0  0  0  0  0  4  0  0  0  0  0  0
   37.0390   27.2030   32.2650 H   0  0  0  0  0  0  0  0  0  0  0  0
   36.9620   28.1470   30.4220 C   0  0  0  0  0  2  0  0  0  0  0  0
   37.0640   29.2410   30.5820 H   0  0  0  0  0  0  0  0  0  0  0  0
   35.3520   28.3740   32.1900 C   0  0  0  0  0  2  0  0  0  0  0  0
   35.3710   28.2540   33.2810 H   0  0  0  0  0  0  0  0  0  0  0  0
  1  3  1  0  0  0  0
  2  8  1  0  0  0  0
  2  7  1  0  0  0  0
  3  9  1  6  0  0  0
  3  2  1  0  0  0  0
  4  3  1  0  0  0  0
  4 10  1  0  0  0  0
  4  5  1  0  0  0  0
  5  6  1  0  0  0  0
  6  7  1  0  0  0  0
  6 13  1  0  0  0  0
  7 14  1  6  0  0  0
  7 15  1  0  0  0  0
 11  4  1  0  0  0  0
 12  6  1  0  0  0  0
 15 16  1  0  0  0  0
 17  1  1  0  0  0  0
 18 23  1  0  0  0  0
 18 17  2  0  0  0  0
 19 18  1  0  0  0  0
 20 19  2  0  0  0  0
 20 21  1  0  0  0  0
 21 22  2  0  0  0  0
 22 17  1  0  0  0  0
 24 19  1  0  0  0  0
 25 21  1  0  0  0  0
 25 26  1  0  0  0  0
 26 30  1  0  0  0  0
 26 27  1  0  0  0  0
 28 29  1  0  0  0  0
 28 26  1  0  0  0  0
 30 31  1  0  0  0  0
M  END
>  <minimizedAffinity>
-4.69870901

$$$$

 OpenBabel03272502193D

 31 32  0  0  1  0  0  0  0  0999 V2000
   38.1580   25.6750   36.0260 S   0  0  0  0  0  0  0  0  0  0  0  0
   37.8850   23.1220   36.8630 N   0  0  0  0  0  0  0  0  0  0  0  0
   38.2890   23.8770   35.6910 C   0  0  2  0  0  0  0  0  0  0  0  0
   39.7300   23.5340   35.3840 C   0  0  0  0  0  0  0  0  0  0  0  0
   40.1160   22.3310   36.0180 O   0  0  0  0  0  0  0  0  0  0  0  0
   40.1550   22.6540   37.3810 C   0  0  0  0  0  0  0  0  0  0  0  0
   38.8900   23.2920   37.8790 C   0  0  2  0  0  0  0  0  0  0  0  0
   37.9100   22.1210   36.5610 H   0  0  0  0  0  0  0  0  0  0  0  0
   37.6680   23.6560   34.8020 H   0  0  0  0  0  0  0  0  0  0  0  0
   40.3690   24.3300   35.8330 H   0  0  0  0  0  0  0  0  0  0  0  0
   39.9420   23.5040   34.2970 H   0  0  0  0  0  0  0  0  0  0  0  0
   40.9800   23.3940   37.5780 H   0  0  0  0  0  0  0  0  0  0  0  0
   40.4180   21.7530   37.9640 H   0  0  0  0  0  0  0  0  0  0  0  0
   39.0010   24.3790   38.1070 H   0  0  0  0  0  0  0  0  0  0  0  0
   38.4220   22.6330   39.0430 O   0  0  0  0  0  0  0  0  0  0  0  0
   39.0990   22.0160   39.3980 H   0  0  0  0  0  0  0  0  0  0  0  0
   37.3750   26.5090   34.6760 C   0  0  0  0  0  0  0  0  0  0  0  0
   37.4040   25.7470   33.4900 C   0  0  0  0  0  0  0  0  0  0  0  0
   36.8220   26.2850   32.3380 C   0  0  0  0  0  0  0  0  0  0  0  0
   36.2510   27.5300   32.4250 N   0  0  0  0  0  0  0  0  0  0  0  0
   36.2480   28.2210   33.5840 C   0  0  0  0  0  0  0  0  0  0  0  0
   36.7970   27.7250   34.6890 N   0  0  0  0  0  0  0  0  0  0  0  0
   37.8350   24.7740   33.3670 H   0  0  0  0  0  0  0  0  0  0  0  0
   36.8180   25.7420   31.4070 H   0  0  0  0  0  0  0  0  0  0  0  0
   35.6390   29.5700   33.7120 C   0  0  0  0  0  2  0  0  0  0  0  0
   34.2800   29.4490   34.2310 N   0  0  0  0  0  4  0  0  0  0  0  0
   34.2550   28.5530   34.7590 H   0  0  0  0  0  0  0  0  0  0  0  0
   34.0730   30.5860   35.1190 C   0  0  0  0  0  2  0  0  0  0  0  0
   32.9940   30.8340   35.2040 H   0  0  0  0  0  0  0  0  0  0  0  0
   33.3140   29.4290   33.1550 C   0  0  0  0  0  2  0  0  0  0  0  0
   33.0170   28.3970   32.9250 H   0  0  0  0  0  0  0  0  0  0  0  0
  2  7  1  0  0  0  0
  3  9  1  6  0  0  0
  3  1  1  0  0  0  0
  3  2  1  0  0  0  0
  4  3  1  0  0  0  0
  4 10  1  0  0  0  0
  4  5  1  0  0  0  0
  5  6  1  0  0  0  0
  6 12  1  0  0  0  0
  6  7  1  0  0  0  0
  6 13  1  0  0  0  0
  7 14  1  1  0  0  0
  7 15  1  0  0  0  0
  8  2  1  0  0  0  0
 11  4  1  0  0  0  0
 15 16  1  0  0  0  0
 17 22  1  0  0  0  0
 17  1  1  0  0  0  0
 18 17  2  0  0  0  0
 19 20  2  0  0  0  0
 19 18  1  0  0  0  0
 20 21  1  0  0  0  0
 21 25  1  0  0  0  0
 21 22  2  0  0  0  0
 23 18  1  0  0  0  0
 24 19  1  0  0  0  0
 25 26  1  0  0  0  0
 26 27  1  0  0  0  0
 26 28  1  0  0  0  0
 28 29  1  0  0  0  0
 30 26  1  0  0  0  0
 31 30  1  0  0  0  0
M  END
>  <minimizedAffinity>
-4.69563198

$$$$

 OpenBabel03272502193D

 31 32  0  0  1  0  0  0  0  0999 V2000
   38.0880   25.3410   36.1120 S   0  0  0  0  0  0  0  0  0  0  0  0
   37.9520   22.8140   37.0570 N   0  0  0  0  0  0  0  0  0  0  0  0
   38.3590   23.5440   35.8700 C   0  0  2  0  0  0  0  0  0  0  0  0
   39.8350   23.2910   35.6470 C   0  0  0  0  0  0  0  0  0  0  0  0
   40.2710   22.1480   36.3540 O   0  0  0  0  0  0  0  0  0  0  0  0
   40.2200   22.5340   37.7020 C   0  0  0  0  0  0  0  0  0  0  0  0
   38.8900   23.1010   38.1090 C   0  0  2  0  0  0  0  0  0  0  0  0
   38.0600   21.8050   36.8050 H   0  0  0  0  0  0  0  0  0  0  0  0
   37.8000   23.2390   34.9650 H   0  0  0  0  0  0  0  0  0  0  0  0
   40.3930   24.1490   36.0860 H   0  0  0  0  0  0  0  0  0  0  0  0
   40.1010   23.2280   34.5740 H   0  0  0  0  0  0  0  0  0  0  0  0
   40.9810   23.3380   37.9010 H   0  0  0  0  0  0  0  0  0  0  0  0
   40.5150   21.6800   38.3380 H   0  0  0  0  0  0  0  0  0  0  0  0
   38.9150   24.2020   38.2900 H   0  0  0  0  0  0  0  0  0  0  0  0
   38.4120   22.4630   39.2810 O   0  0  0  0  0  0  0  0  0  0  0  0
   39.1120   21.9120   39.6960 H   0  0  0  0  0  0  0  0  0  0  0  0
   37.5330   26.0990   34.6130 C   0  0  0  0  0  0  0  0  0  0  0  0
   36.9450   27.3610   34.8390 C   0  0  0  0  0  0  0  0  0  0  0  0
   36.4580   28.0760   33.7420 C   0  0  0  0  0  0  0  0  0  0  0  0
   36.5790   27.5090   32.4980 N   0  0  0  0  0  0  0  0  0  0  0  0
   37.1500   26.2980   32.3310 C   0  0  0  0  0  0  0  0  0  0  0  0
   37.6180   25.6040   33.3640 N   0  0  0  0  0  0  0  0  0  0  0  0
   36.8260   27.8480   35.7870 H   0  0  0  0  0  0  0  0  0  0  0  0
   36.0010   29.0440   33.8630 H   0  0  0  0  0  0  0  0  0  0  0  0
   37.2960   25.6570   30.9990 C   0  0  0  0  0  2  0  0  0  0  0  0
   38.7020   25.6490   30.6080 N   0  0  0  0  0  4  0  0  0  0  0  0
   39.2450   25.6870   31.4950 H   0  0  0  0  0  0  0  0  0  0  0  0
   38.9310   24.3910   29.9080 C   0  0  0  0  0  2  0  0  0  0  0  0
   39.7900   24.4750   29.2100 H   0  0  0  0  0  0  0  0  0  0  0  0
   39.0150   26.7880   29.7750 C   0  0  0  0  0  2  0  0  0  0  0  0
   39.4760   27.5860   30.3720 H   0  0  0  0  0  0  0  0  0  0  0  0
  2  7  1  0  0  0  0
  3  9  1  6  0  0  0
  3  1  1  0  0  0  0
  3  2  1  0  0  0  0
  4  3  1  0  0  0  0
  4 10  1  0  0  0  0
  4  5  1  0  0  0  0
  5  6  1  0  0  0  0
  6 12  1  0  0  0  0
  6  7  1  0  0  0  0
  6 13  1  0  0  0  0
  7 14  1  1  0  0  0
  7 15  1  0  0  0  0
  8  2  1  0  0  0  0
 11  4  1  0  0  0  0
 15 16  1  0  0  0  0
 17 18  1  0  0  0  0
 17  1  1  0  0  0  0
 18 23  1  0  0  0  0
 19 24  1  0  0  0  0
 19 18  2  0  0  0  0
 20 19  1  0  0  0  0
 21 20  2  0  0  0  0
 21 22  1  0  0  0  0
 22 17  2  0  0  0  0
 25 21  1  0  0  0  0
 26 25  1  0  0  0  0
 26 27  1  0  0  0  0
 28 26  1  0  0  0  0
 29 28  1  0  0  0  0
 30 31  1  0  0  0  0
 30 26  1  0  0  0  0
M  END
>  <minimizedAffinity>
-4.67199802

$$$$

 OpenBabel03272502193D

 31 32  0  0  1  0  0  0  0  0999 V2000
   39.1820   23.6950   34.0920 S   0  0  0  0  0  0  0  0  0  0  0  0
   38.5100   21.9360   36.0290 N   0  0  0  0  0  0  0  0  0  0  0  0
   39.6210   22.2660   35.1540 C   0  0  2  0  0  0  0  0  0  0  0  0
   40.8050   22.6380   36.0200 C   0  0  0  0  0  0  0  0  0  0  0  0
   40.6390   22.1700   37.3430 O   0  0  0  0  0  0  0  0  0  0  0  0
   39.6080   22.9650   37.8650 C   0  0  0  0  0  0  0  0  0  0  0  0
   38.3760   22.9830   37.0060 C   0  0  2  0  0  0  0  0  0  0  0  0
   38.8110   21.0710   36.5330 H   0  0  0  0  0  0  0  0  0  0  0  0
   39.9080   21.4290   34.4890 H   0  0  0  0  0  0  0  0  0  0  0  0
   40.8320   23.7490   36.0940 H   0  0  0  0  0  0  0  0  0  0  0  0
   41.7710   22.3040   35.5920 H   0  0  0  0  0  0  0  0  0  0  0  0
   39.9510   24.0340   37.9480 H   0  0  0  0  0  0  0  0  0  0  0  0
   39.3860   22.6430   38.8980 H   0  0  0  0  0  0  0  0  0  0  0  0
   38.2150   23.9560   36.4830 H   0  0  0  0  0  0  0  0  0  0  0  0
   37.2250   22.6900   37.7780 O   0  0  0  0  0  0  0  0  0  0  0  0
   37.4270   22.7110   38.7390 H   0  0  0  0  0  0  0  0  0  0  0  0
   37.7480   23.3360   33.1190 C   0  0  0  0  0  0  0  0  0  0  0  0
   37.4170   24.3940   32.2470 C   0  0  0  0  0  0  0  0  0  0  0  0
   36.3010   24.2490   31.4180 C   0  0  0  0  0  0  0  0  0  0  0  0
   35.5860   23.0810   31.4970 N   0  0  0  0  0  0  0  0  0  0  0  0
   35.9420   22.0960   32.3480 C   0  0  0  0  0  0  0  0  0  0  0  0
   37.0000   22.2170   33.1450 N   0  0  0  0  0  0  0  0  0  0  0  0
   37.9400   25.3240   32.1460 H   0  0  0  0  0  0  0  0  0  0  0  0
   36.0080   25.0280   30.7340 H   0  0  0  0  0  0  0  0  0  0  0  0
   35.1890   20.8200   32.4580 C   0  0  0  0  0  2  0  0  0  0  0  0
   36.0680   19.7010   32.1320 N   0  0  0  0  0  4  0  0  0  0  0  0
   36.9780   19.9090   32.5910 H   0  0  0  0  0  0  0  0  0  0  0  0
   35.4530   18.5100   32.7040 C   0  0  0  0  0  2  0  0  0  0  0  0
   35.7710   17.5970   32.1600 H   0  0  0  0  0  0  0  0  0  0  0  0
   36.2400   19.5780   30.7010 C   0  0  0  0  0  2  0  0  0  0  0  0
   37.1820   20.0450   30.3860 H   0  0  0  0  0  0  0  0  0  0  0  0
  1  3  1  0  0  0  0
  2  8  1  0  0  0  0
  2  7  1  0  0  0  0
  3  9  1  6  0  0  0
  3  4  1  0  0  0  0
  3  2  1  0  0  0  0
  4 10  1  0  0  0  0
  4  5  1  0  0  0  0
  5  6  1  0  0  0  0
  6 12  1  0  0  0  0
  6 13  1  0  0  0  0
  7 14  1  6  0  0  0
  7 15  1  0  0  0  0
  7  6  1  0  0  0  0
 11  4  1  0  0  0  0
 15 16  1  0  0  0  0
 17 22  1  0  0  0  0
 17  1  1  0  0  0  0
 18 17  2  0  0  0  0
 19 20  2  0  0  0  0
 19 18  1  0  0  0  0
 20 21  1  0  0  0  0
 21 25  1  0  0  0  0
 21 22  2  0  0  0  0
 23 18  1  0  0  0  0
 24 19  1  0  0  0  0
 26 25  1  0  0  0  0
 26 27  1  0  0  0  0
 26 28  1  0  0  0  0
 29 28  1  0  0  0  0
 30 26  1  0  0  0  0
 31 30  1  0  0  0  0
M  END
>  <minimizedAffinity>
-4.49863625

$$$$

 OpenBabel03272502193D

 31 32  0  0  1  0  0  0  0  0999 V2000
   38.1600   25.4020   36.4000 S   0  0  0  0  0  0  0  0  0  0  0  0
   38.3290   22.8290   37.2030 N   0  0  0  0  0  0  0  0  0  0  0  0
   37.7640   23.6320   36.1340 C   0  0  2  0  0  0  0  0  0  0  0  0
   38.3800   23.1770   34.8290 C   0  0  0  0  0  0  0  0  0  0  0  0
   38.9650   21.8970   34.9570 O   0  0  0  0  0  0  0  0  0  0  0  0
   40.0840   22.1070   35.7760 C   0  0  0  0  0  0  0  0  0  0  0  0
   39.7600   22.8220   37.0560 C   0  0  2  0  0  0  0  0  0  0  0  0
   37.9890   21.8570   37.0200 H   0  0  0  0  0  0  0  0  0  0  0  0
   36.6630   23.5410   36.0630 H   0  0  0  0  0  0  0  0  0  0  0  0
   39.2210   23.8710   34.5940 H   0  0  0  0  0  0  0  0  0  0  0  0
   37.6670   23.2130   33.9820 H   0  0  0  0  0  0  0  0  0  0  0  0
   40.8390   22.7460   35.2390 H   0  0  0  0  0  0  0  0  0  0  0  0
   40.5880   21.1410   35.9590 H   0  0  0  0  0  0  0  0  0  0  0  0
   40.1370   23.8720   37.0850 H   0  0  0  0  0  0  0  0  0  0  0  0
   40.2910   22.1210   38.1680 O   0  0  0  0  0  0  0  0  0  0  0  0
   40.9110   21.4160   37.8800 H   0  0  0  0  0  0  0  0  0  0  0  0
   38.7100   26.1550   34.8960 C   0  0  0  0  0  0  0  0  0  0  0  0
   40.0860   26.4650   34.9270 C   0  0  0  0  0  0  0  0  0  0  0  0
   40.6580   27.0680   33.8040 C   0  0  0  0  0  0  0  0  0  0  0  0
   39.8480   27.3260   32.7270 N   0  0  0  0  0  0  0  0  0  0  0  0
   38.5360   27.0090   32.7440 C   0  0  0  0  0  0  0  0  0  0  0  0
   37.9750   26.4360   33.8040 N   0  0  0  0  0  0  0  0  0  0  0  0
   40.7620   26.2870   35.7400 H   0  0  0  0  0  0  0  0  0  0  0  0
   41.7050   27.3240   33.7780 H   0  0  0  0  0  0  0  0  0  0  0  0
   37.6320   27.2750   31.5950 C   0  0  0  0  0  2  0  0  0  0  0  0
   36.2460   27.0720   32.0040 N   0  0  0  0  0  4  0  0  0  0  0  0
   36.2850   26.7120   32.9790 H   0  0  0  0  0  0  0  0  0  0  0  0
   35.6030   28.3790   31.9540 C   0  0  0  0  0  2  0  0  0  0  0  0
   34.5080   28.2790   31.8070 H   0  0  0  0  0  0  0  0  0  0  0  0
   35.5860   26.1190   31.1390 C   0  0  0  0  0  2  0  0  0  0  0  0
   35.5730   25.1240   31.6030 H   0  0  0  0  0  0  0  0  0  0  0  0
  3  9  1  6  0  0  0
  3  1  1  0  0  0  0
  3  2  1  0  0  0  0
  4  5  1  0  0  0  0
  4  3  1  0  0  0  0
  5  6  1  0  0  0  0
  6 13  1  0  0  0  0
  6  7  1  0  0  0  0
  7 14  1  6  0  0  0
  7  2  1  0  0  0  0
  7 15  1  0  0  0  0
  8  2  1  0  0  0  0
 10  4  1  0  0  0  0
 11  4  1  0  0  0  0
 12  6  1  0  0  0  0
 16 15  1  0  0  0  0
 17 18  1  0  0  0  0
 17  1  1  0  0  0  0
 18 23  1  0  0  0  0
 19 18  2  0  0  0  0
 20 21  2  0  0  0  0
 20 19  1  0  0  0  0
 21 22  1  0  0  0  0
 22 17  2  0  0  0  0
 24 19  1  0  0  0  0
 25 26  1  0  0  0  0
 25 21  1  0  0  0  0
 26 27  1  0  0  0  0
 28 26  1  0  0  0  0
 29 28  1  0  0  0  0
 30 31  1  0  0  0  0
 30 26  1  0  0  0  0
M  END
>  <minimizedAffinity>
-4.46167135

$$$$

 OpenBabel03272502193D

 31 32  0  0  1  0  0  0  0  0999 V2000
   38.3400   26.9110   32.3990 S   0  0  0  0  0  0  0  0  0  0  0  0
   36.4850   27.2260   30.4610 N   0  0  0  0  0  0  0  0  0  0  0  0
   36.6050   27.2460   31.9070 C   0  0  2  0  0  0  0  0  0  0  0  0
   36.2110   28.6250   32.3910 C   0  0  0  0  0  0  0  0  0  0  0  0
   35.4700   29.3200   31.4090 O   0  0  0  0  0  0  0  0  0  0  0  0
   36.4060   29.5980   30.4020 C   0  0  0  0  0  0  0  0  0  0  0  0
   37.1570   28.3840   29.9340 C   0  0  2  0  0  0  0  0  0  0  0  0
   35.4630   27.3410   30.2720 H   0  0  0  0  0  0  0  0  0  0  0  0
   35.9640   26.4930   32.4030 H   0  0  0  0  0  0  0  0  0  0  0  0
   37.1470   29.2120   32.5350 H   0  0  0  0  0  0  0  0  0  0  0  0
   35.6750   28.6020   33.3600 H   0  0  0  0  0  0  0  0  0  0  0  0
   37.1800   30.3200   30.7840 H   0  0  0  0  0  0  0  0  0  0  0  0
   35.9010   30.1170   29.5670 H   0  0  0  0  0  0  0  0  0  0  0  0
   38.2240   28.3700   30.2600 H   0  0  0  0  0  0  0  0  0  0  0  0
   37.1150   28.2850   28.5210 O   0  0  0  0  0  0  0  0  0  0  0  0
   36.7670   29.1100   28.1170 H   0  0  0  0  0  0  0  0  0  0  0  0
   38.4080   26.2310   34.0320 C   0  0  0  0  0  0  0  0  0  0  0  0
   38.1910   27.2070   35.0260 C   0  0  0  0  0  0  0  0  0  0  0  0
   38.2200   26.8120   36.3660 C   0  0  0  0  0  0  0  0  0  0  0  0
   38.4570   25.4880   36.6420 N   0  0  0  0  0  0  0  0  0  0  0  0
   38.6570   24.5900   35.6560 C   0  0  0  0  0  0  0  0  0  0  0  0
   38.6340   24.9490   34.3760 N   0  0  0  0  0  0  0  0  0  0  0  0
   38.0040   28.2500   34.8650 H   0  0  0  0  0  0  0  0  0  0  0  0
   38.0610   27.5200   37.1620 H   0  0  0  0  0  0  0  0  0  0  0  0
   38.9150   23.1510   35.9220 C   0  0  0  0  0  2  0  0  0  0  0  0
   40.3340   22.9510   36.2010 N   0  0  0  0  0  4  0  0  0  0  0  0
   40.7700   23.8940   36.1580 H   0  0  0  0  0  0  0  0  0  0  0  0
   40.4180   22.3970   37.5460 C   0  0  0  0  0  2  0  0  0  0  0  0
   41.3520   21.8120   37.6790 H   0  0  0  0  0  0  0  0  0  0  0  0
   40.9340   22.0710   35.2230 C   0  0  0  0  0  2  0  0  0  0  0  0
   41.4570   22.6530   34.4520 H   0  0  0  0  0  0  0  0  0  0  0  0
  1 17  1  0  0  0  0
  2  3  1  0  0  0  0
  3  4  1  0  0  0  0
  3  1  1  0  0  0  0
  3  9  1  1  0  0  0
  4 10  1  0  0  0  0
  4 11  1  0  0  0  0
  5  4  1  0  0  0  0
  6 12  1  0  0  0  0
  6  5  1  0  0  0  0
  7 14  1  1  0  0  0
  7  6  1  0  0  0  0
  7  2  1  0  0  0  0
  8  2  1  0  0  0  0
 13  6  1  0  0  0  0
 15  7  1  0  0  0  0
 16 15  1  0  0  0  0
 17 22  2  0  0  0  0
 17 18  1  0  0  0  0
 18 19  2  0  0  0  0
 19 20  1  0  0  0  0
 19 24  1  0  0  0  0
 21 25  1  0  0  0  0
 21 20  2  0  0  0  0
 22 21  1  0  0  0  0
 23 18  1  0  0  0  0
 25 26  1  0  0  0  0
 26 28  1  0  0  0  0
 27 26  1  0  0  0  0
 28 29  1  0  0  0  0
 30 26  1  0  0  0  0
 31 30  1  0  0  0  0
M  END
>  <minimizedAffinity>
-4.38821936

$$$$

 OpenBabel03272502193D

 31 32  0  0  1  0  0  0  0  0999 V2000
   38.0260   26.6590   32.4780 S   0  0  0  0  0  0  0  0  0  0  0  0
   36.2680   27.1570   30.4880 N   0  0  0  0  0  0  0  0  0  0  0  0
   36.3290   27.0930   31.9370 C   0  0  2  0  0  0  0  0  0  0  0  0
   35.9700   28.4590   32.4820 C   0  0  0  0  0  0  0  0  0  0  0  0
   35.2990   29.2370   31.5120 O   0  0  0  0  0  0  0  0  0  0  0  0
   36.2860   29.5300   30.5600 C   0  0  0  0  0  0  0  0  0  0  0  0
   37.0060   28.3130   30.0540 C   0  0  2  0  0  0  0  0  0  0  0  0
   35.2600   27.3250   30.2670 H   0  0  0  0  0  0  0  0  0  0  0  0
   35.6380   26.3420   32.3640 H   0  0  0  0  0  0  0  0  0  0  0  0
   36.9220   28.9970   32.6960 H   0  0  0  0  0  0  0  0  0  0  0  0
   35.3930   28.4060   33.4270 H   0  0  0  0  0  0  0  0  0  0  0  0
   37.0710   30.1970   31.0120 H   0  0  0  0  0  0  0  0  0  0  0  0
   35.8370   30.1150   29.7370 H   0  0  0  0  0  0  0  0  0  0  0  0
   38.0580   28.2360   30.4200 H   0  0  0  0  0  0  0  0  0  0  0  0
   37.0200   28.2930   28.6370 O   0  0  0  0  0  0  0  0  0  0  0  0
   36.7220   29.1520   28.2670 H   0  0  0  0  0  0  0  0  0  0  0  0
   38.0040   25.2410   33.5360 C   0  0  0  0  0  0  0  0  0  0  0  0
   38.1300   25.5900   34.8970 C   0  0  0  0  0  0  0  0  0  0  0  0
   38.1310   24.5670   35.8500 C   0  0  0  0  0  0  0  0  0  0  0  0
   38.0070   23.2740   35.4070 N   0  0  0  0  0  0  0  0  0  0  0  0
   37.8870   22.9900   34.0940 C   0  0  0  0  0  0  0  0  0  0  0  0
   37.8860   23.9500   33.1740 N   0  0  0  0  0  0  0  0  0  0  0  0
   38.2300   26.5800   35.2950 H   0  0  0  0  0  0  0  0  0  0  0  0
   38.2240   24.7830   36.9020 H   0  0  0  0  0  0  0  0  0  0  0  0
   37.7510   21.6010   33.5830 C   0  0  0  0  0  2  0  0  0  0  0  0
   36.4160   21.4110   33.0260 N   0  0  0  0  0  4  0  0  0  0  0  0
   35.9990   22.3620   32.9520 H   0  0  0  0  0  0  0  0  0  0  0  0
   36.5970   20.8150   31.7090 C   0  0  0  0  0  2  0  0  0  0  0  0
   35.6980   20.2390   31.4050 H   0  0  0  0  0  0  0  0  0  0  0  0
   35.6110   20.5720   33.8860 C   0  0  0  0  0  2  0  0  0  0  0  0
   34.9550   21.1850   34.5160 H   0  0  0  0  0  0  0  0  0  0  0  0
  1 17  1  0  0  0  0
  2  3  1  0  0  0  0
  3  9  1  1  0  0  0
  3  1  1  0  0  0  0
  3  4  1  0  0  0  0
  4 10  1  0  0  0  0
  4 11  1  0  0  0  0
  5  4  1  0  0  0  0
  6 12  1  0  0  0  0
  6  5  1  0  0  0  0
  7 14  1  1  0  0  0
  7  2  1  0  0  0  0
  7  6  1  0  0  0  0
  8  2  1  0  0  0  0
 13  6  1  0  0  0  0
 15  7  1  0  0  0  0
 16 15  1  0  0  0  0
 17 18  1  0  0  0  0
 18 23  1  0  0  0  0
 18 19  2  0  0  0  0
 19 24  1  0  0  0  0
 20 19  1  0  0  0  0
 21 20  2  0  0  0  0
 22 17  2  0  0  0  0
 22 21  1  0  0  0  0
 25 21  1  0  0  0  0
 26 25  1  0  0  0  0
 26 30  1  0  0  0  0
 27 26  1  0  0  0  0
 28 26  1  0  0  0  0
 29 28  1  0  0  0  0
 30 31  1  0  0  0  0
M  END
>  <minimizedAffinity>
-4.34462261

$$$$

 OpenBabel03272502193D

 31 32  0  0  1  0  0  0  0  0999 V2000
   38.2270   25.0670   35.6490 S   0  0  0  0  0  0  0  0  0  0  0  0
   38.1130   22.6860   36.9180 N   0  0  0  0  0  0  0  0  0  0  0  0
   38.4860   23.2520   35.6340 C   0  0  2  0  0  0  0  0  0  0  0  0
   39.9530   22.9630   35.4020 C   0  0  0  0  0  0  0  0  0  0  0  0
   40.4080   21.9190   36.2390 O   0  0  0  0  0  0  0  0  0  0  0  0
   40.3990   22.4770   37.5250 C   0  0  0  0  0  0  0  0  0  0  0  0
   39.0840   23.1010   37.8950 C   0  0  2  0  0  0  0  0  0  0  0  0
   38.2110   21.6520   36.7960 H   0  0  0  0  0  0  0  0  0  0  0  0
   37.8980   22.8360   34.7940 H   0  0  0  0  0  0  0  0  0  0  0  0
   40.5270   23.8680   35.7090 H   0  0  0  0  0  0  0  0  0  0  0  0
   40.1870   22.7600   34.3380 H   0  0  0  0  0  0  0  0  0  0  0  0
   41.1680   23.2950   37.5950 H   0  0  0  0  0  0  0  0  0  0  0  0
   40.7120   21.7110   38.2580 H   0  0  0  0  0  0  0  0  0  0  0  0
   39.1170   24.2160   37.9300 H   0  0  0  0  0  0  0  0  0  0  0  0
   38.6410   22.6230   39.1540 O   0  0  0  0  0  0  0  0  0  0  0  0
   39.3510   22.1260   39.6150 H   0  0  0  0  0  0  0  0  0  0  0  0
   38.9670   25.8180   34.2280 C   0  0  0  0  0  0  0  0  0  0  0  0
   40.0870   26.6070   34.5640 C   0  0  0  0  0  0  0  0  0  0  0  0
   40.7710   27.2640   33.5370 C   0  0  0  0  0  0  0  0  0  0  0  0
   40.3150   27.1040   32.2530 N   0  0  0  0  0  0  0  0  0  0  0  0
   39.2390   26.3370   31.9810 C   0  0  0  0  0  0  0  0  0  0  0  0
   38.5750   25.7060   32.9450 N   0  0  0  0  0  0  0  0  0  0  0  0
   40.4840   26.7650   35.5470 H   0  0  0  0  0  0  0  0  0  0  0  0
   41.6330   27.8780   33.7420 H   0  0  0  0  0  0  0  0  0  0  0  0
   38.7190   26.1440   30.6020 C   0  0  0  0  0  2  0  0  0  0  0  0
   39.5800   25.2130   29.8790 N   0  0  0  0  0  4  0  0  0  0  0  0
   40.4060   25.0530   30.4910 H   0  0  0  0  0  0  0  0  0  0  0  0
   38.8120   23.9870   29.7050 C   0  0  0  0  0  2  0  0  0  0  0  0
   39.1710   23.4130   28.8250 H   0  0  0  0  0  0  0  0  0  0  0  0
   39.9930   25.7690   28.6090 C   0  0  0  0  0  2  0  0  0  0  0  0
   41.0000   26.2000   28.6880 H   0  0  0  0  0  0  0  0  0  0  0  0
  2  7  1  0  0  0  0
  3  9  1  6  0  0  0
  3  1  1  0  0  0  0
  3  2  1  0  0  0  0
  4  3  1  0  0  0  0
  4 10  1  0  0  0  0
  4  5  1  0  0  0  0
  5  6  1  0  0  0  0
  6 12  1  0  0  0  0
  6  7  1  0  0  0  0
  6 13  1  0  0  0  0
  7 14  1  1  0  0  0
  7 15  1  0  0  0  0
  8  2  1  0  0  0  0
 11  4  1  0  0  0  0
 15 16  1  0  0  0  0
 17 18  1  0  0  0  0
 17  1  1  0  0  0  0
 18 23  1  0  0  0  0
 19 24  1  0  0  0  0
 19 18  2  0  0  0  0
 20 19  1  0  0  0  0
 21 20  2  0  0  0  0
 21 22  1  0  0  0  0
 22 17  2  0  0  0  0
 25 21  1  0  0  0  0
 26 27  1  0  0  0  0
 26 25  1  0  0  0  0
 28 26  1  0  0  0  0
 29 28  1  0  0  0  0
 30 31  1  0  0  0  0
 30 26  1  0  0  0  0
M  END
>  <minimizedAffinity>
-4.33626461

$$$$
