
 OpenBabel03272508533D

 36 38  0  0  1  0  0  0  0  0999 V2000
   38.3860   31.8720   44.5830 C   0  0  0  0  0  0  0  0  0  0  0  0
   37.2440   32.4080   44.4620 O   0  0  0  0  0  0  0  0  0  0  0  0
   38.9450   31.6460   45.8800 N   0  0  0  0  0  0  0  0  0  0  0  0
   39.9290   31.3940   46.0160 H   0  0  0  0  0  0  0  0  0  0  0  0
   39.1560   31.4730   43.3940 C   0  0  0  0  0  0  0  0  0  0  0  0
   40.1670   30.5640   43.5530 C   0  0  0  0  0  0  0  0  0  0  0  0
   40.8920   30.1860   42.4320 C   0  0  0  0  0  0  0  0  0  0  0  0
   40.5520   30.7440   41.2340 C   0  0  0  0  0  0  0  0  0  0  0  0
   39.5180   31.6780   41.0530 C   0  0  0  0  0  0  0  0  0  0  0  0
   38.8680   31.9890   42.1840 N   0  0  0  0  0  0  0  0  0  0  0  0
   40.4270   30.1300   44.5020 H   0  0  0  0  0  0  0  0  0  0  0  0
   41.7020   29.4710   42.5050 H   0  0  0  0  0  0  0  0  0  0  0  0
   41.1230   30.4420   40.3700 H   0  0  0  0  0  0  0  0  0  0  0  0
   39.2130   32.2350   39.7220 C   0  0  0  0  0  2  0  0  0  0  0  0
   37.9990   31.7470   39.1370 N   0  0  0  0  0  4  0  0  0  0  0  0
   38.0850   31.8140   38.0980 H   0  0  0  0  0  0  0  0  0  0  0  0
   37.7370   30.3520   39.4480 C   0  0  0  0  0  2  0  0  0  0  0  0
   38.6670   29.7790   39.3850 H   0  0  0  0  0  0  0  0  0  0  0  0
   36.8520   32.5760   39.5390 C   0  0  0  0  0  2  0  0  0  0  0  0
   36.4400   33.1350   38.6930 H   0  0  0  0  0  0  0  0  0  0  0  0
   38.4200   31.1460   48.2670 C   0  0  2  0  0  0  0  0  0  0  0  0
   38.7160   32.5850   48.1910 C   0  0  0  0  0  0  0  0  0  0  0  0
   38.0670   31.7870   47.0270 C   0  0  1  0  0  0  0  0  0  0  0  0
   39.3540   30.5230   48.3420 H   0  0  0  0  0  0  0  0  0  0  0  0
   38.0500   33.3070   48.7150 H   0  0  0  0  0  0  0  0  0  0  0  0
   39.7330   32.9480   48.0460 H   0  0  0  0  0  0  0  0  0  0  0  0
   37.0070   32.0520   46.8260 H   0  0  0  0  0  0  0  0  0  0  0  0
   35.0820   30.2210   49.5500 C   0  0  0  0  0  0  0  0  0  0  0  0
   35.3940   29.5830   50.7800 C   0  0  0  0  0  0  0  0  0  0  0  0
   36.7870   29.4930   51.1530 C   0  0  0  0  0  0  0  0  0  0  0  0
   37.7250   30.0140   50.3210 N   0  0  0  0  0  0  0  0  0  0  0  0
   37.3530   30.6120   49.1550 C   0  0  0  0  0  0  0  0  0  0  0  0
   36.0410   30.7320   48.7430 N   0  0  0  0  0  0  0  0  0  0  0  0
   34.0250   30.2590   49.3240 H   0  0  0  0  0  0  0  0  0  0  0  0
   34.6220   29.1880   51.4020 H   0  0  0  0  0  0  0  0  0  0  0  0
   37.0320   29.0080   52.0890 H   0  0  0  0  0  0  0  0  0  0  0  0
  1  3  1  0  0  0  0
  2  1  2  0  0  0  0
  3  4  1  0  0  0  0
  3 23  1  0  0  0  0
  5  6  1  0  0  0  0
  5  1  1  0  0  0  0
  6 11  1  0  0  0  0
  7 12  1  0  0  0  0
  7  6  2  0  0  0  0
  8  7  1  0  0  0  0
  9  8  2  0  0  0  0
  9 10  1  0  0  0  0
 10  5  2  0  0  0  0
 13  8  1  0  0  0  0
 14  9  1  0  0  0  0
 15 17  1  0  0  0  0
 15 19  1  0  0  0  0
 15 14  1  0  0  0  0
 16 15  1  0  0  0  0
 18 17  1  0  0  0  0
 20 19  1  0  0  0  0
 21 24  1  6  0  0  0
 21 32  1  0  0  0  0
 22 21  1  0  0  0  0
 22 25  1  0  0  0  0
 23 27  1  6  0  0  0
 23 22  1  0  0  0  0
 23 21  1  0  0  0  0
 26 22  1  0  0  0  0
 28 29  1  0  0  0  0
 29 30  2  0  0  0  0
 29 35  1  0  0  0  0
 30 36  1  0  0  0  0
 31 30  1  0  0  0  0
 32 31  2  0  0  0  0
 33 32  1  0  0  0  0
 33 28  2  0  0  0  0
 34 28  1  0  0  0  0
M  END
>  <minimizedAffinity>
-4.80639696

>  <minimizedRMSD>
1.01343465

$$$$
