
 OpenBabel03272508053D

 33 35  0  0  0  0  0  0  0  0999 V2000
   38.9290   30.9050   45.7740 C   0  0  0  0  0  0  0  0  0  0  0  0
   40.1300   31.5160   46.0310 C   0  0  0  0  0  0  0  0  0  0  0  0
   40.9420   31.4520   44.9140 C   0  0  0  0  0  0  0  0  0  0  0  0
   40.1780   30.7870   43.9990 N   0  0  0  0  0  0  0  0  0  0  0  0
   39.0050   30.4660   44.4920 N   0  0  0  0  0  0  0  0  0  0  0  0
   40.4270   31.9890   46.9740 H   0  0  0  0  0  0  0  0  0  0  0  0
   41.9450   31.8160   44.7380 H   0  0  0  0  0  0  0  0  0  0  0  0
   37.7900   30.7510   46.6750 C   0  0  0  0  0  0  0  0  0  0  0  0
   38.0160   30.9760   48.0580 C   0  0  0  0  0  0  0  0  0  0  0  0
   36.9360   30.8300   48.9230 C   0  0  0  0  0  0  0  0  0  0  0  0
   35.7280   30.4790   48.3890 N   0  0  0  0  0  0  0  0  0  0  0  0
   35.5440   30.2710   47.0680 C   0  0  0  0  0  0  0  0  0  0  0  0
   36.5820   30.4090   46.2210 N   0  0  0  0  0  0  0  0  0  0  0  0
   39.0120   31.2550   48.4170 H   0  0  0  0  0  0  0  0  0  0  0  0
   34.5920   29.9970   46.6660 H   0  0  0  0  0  0  0  0  0  0  0  0
   37.1510   31.0630   50.3830 C   0  0  0  0  0  0  0  0  0  0  0  0
   36.6170   32.3020   50.6370 F   0  0  0  0  0  0  0  0  0  0  0  0
   36.4820   30.1330   51.1650 F   0  0  0  0  0  0  0  0  0  0  0  0
   38.4970   31.0760   50.7110 F   0  0  0  0  0  0  0  0  0  0  0  0
   40.5290   30.4340   42.6270 C   0  0  0  0  0  0  0  0  0  0  0  0
   40.0880   31.2050   41.5430 C   0  0  0  0  0  0  0  0  0  0  0  0
   40.4370   30.8640   40.2800 C   0  0  0  0  0  0  0  0  0  0  0  0
   41.2510   29.7160   40.0840 C   0  0  0  0  0  0  0  0  0  0  0  0
   41.5070   29.1260   41.8310 S   0  0  0  0  0  0  0  0  0  0  0  0
   39.4610   32.0940   41.6430 H   0  0  0  0  0  0  0  0  0  0  0  0
   40.2170   31.3030   39.3250 H   0  0  0  0  0  0  0  0  0  0  0  0
   41.8650   28.9770   38.9740 C   0  0  0  0  0  2  0  0  0  0  0  0
   42.7310   29.7690   38.1520 N   0  0  0  0  0  4  0  0  0  0  0  0
   43.4600   29.1510   37.7490 H   0  0  0  0  0  0  0  0  0  0  0  0
   41.9300   30.4130   37.1290 C   0  0  0  0  0  2  0  0  0  0  0  0
   42.4820   30.4490   36.1810 H   0  0  0  0  0  0  0  0  0  0  0  0
   43.4040   30.7860   38.9440 C   0  0  0  0  0  2  0  0  0  0  0  0
   44.3360   31.0520   38.4380 H   0  0  0  0  0  0  0  0  0  0  0  0
  1  2  1  0  0  0  0
  1  8  1  0  0  0  0
  2  6  1  0  0  0  0
  3  2  2  0  0  0  0
  4  5  1  0  0  0  0
  4  3  1  0  0  0  0
  5  1  2  0  0  0  0
  7  3  1  0  0  0  0
  8  9  1  0  0  0  0
  9 14  1  0  0  0  0
  9 10  2  0  0  0  0
 10 16  1  0  0  0  0
 11 10  1  0  0  0  0
 12 11  2  0  0  0  0
 13  8  2  0  0  0  0
 13 12  1  0  0  0  0
 15 12  1  0  0  0  0
 16 17  1  0  0  0  0
 16 19  1  0  0  0  0
 16 18  1  0  0  0  0
 20  4  1  0  0  0  0
 21 25  1  0  0  0  0
 21 20  2  0  0  0  0
 22 21  1  0  0  0  0
 23 22  2  0  0  0  0
 23 24  1  0  0  0  0
 24 20  1  0  0  0  0
 26 22  1  0  0  0  0
 27 23  1  0  0  0  0
 28 32  1  0  0  0  0
 28 27  1  0  0  0  0
 29 28  1  0  0  0  0
 30 28  1  0  0  0  0
 31 30  1  0  0  0  0
 33 32  1  0  0  0  0
M  END
>  <minimizedAffinity>
-5.8925271

>  <minimizedRMSD>
0.395718962

$$$$
