
 OpenBabel03272502553D

 40 42  0  0  0  0  0  0  0  0999 V2000
   35.9710   30.1090   48.6350 C   0  0  0  0  0  0  0  0  0  0  0  0
   36.0140   29.2230   49.6910 C   0  0  0  0  0  0  0  0  0  0  0  0
   35.0090   28.2790   49.8550 C   0  0  0  0  0  0  0  0  0  0  0  0
   33.9970   28.2890   48.9190 C   0  0  0  0  0  0  0  0  0  0  0  0
   33.9470   29.1770   47.8540 C   0  0  0  0  0  0  0  0  0  0  0  0
   34.9530   30.0650   47.7520 N   0  0  0  0  0  0  0  0  0  0  0  0
   32.8620   29.0930   46.9590 N   0  0  0  0  0  0  0  0  0  0  0  0
   31.6960   28.3390   47.3490 C   0  0  0  0  0  0  0  0  0  0  0  0
   30.7620   28.3180   46.1650 C   0  0  0  0  0  0  0  0  0  0  0  0
   30.3930   29.7430   45.7910 C   0  0  0  0  0  0  0  0  0  0  0  0
   31.6130   30.5650   45.5380 C   0  0  0  0  0  0  0  0  0  0  0  0
   32.8470   29.7240   45.6590 C   0  0  0  0  0  0  0  0  0  0  0  0
   36.8520   29.2960   50.3710 H   0  0  0  0  0  0  0  0  0  0  0  0
   35.0660   27.6010   50.6850 H   0  0  0  0  0  0  0  0  0  0  0  0
   33.2400   27.5150   49.1140 H   0  0  0  0  0  0  0  0  0  0  0  0
   31.9150   27.2740   47.5820 H   0  0  0  0  0  0  0  0  0  0  0  0
   31.1620   28.8680   48.1590 H   0  0  0  0  0  0  0  0  0  0  0  0
   31.1710   27.7520   45.3140 H   0  0  0  0  0  0  0  0  0  0  0  0
   29.8240   27.8430   46.5240 H   0  0  0  0  0  0  0  0  0  0  0  0
   29.8920   30.1740   46.7050 H   0  0  0  0  0  0  0  0  0  0  0  0
   29.6390   29.7940   45.0080 H   0  0  0  0  0  0  0  0  0  0  0  0
   31.7280   31.4540   46.1610 H   0  0  0  0  0  0  0  0  0  0  0  0
   31.5710   30.9030   44.4630 H   0  0  0  0  0  0  0  0  0  0  0  0
   33.7750   30.3270   45.5810 H   0  0  0  0  0  0  0  0  0  0  0  0
   32.8760   28.8910   44.9210 H   0  0  0  0  0  0  0  0  0  0  0  0
   38.1220   33.0230   49.2130 C   0  0  0  0  0  0  0  0  0  0  0  0
   39.0500   32.9370   48.1780 C   0  0  0  0  0  0  0  0  0  0  0  0
   38.9360   31.8860   47.2900 C   0  0  0  0  0  0  0  0  0  0  0  0
   37.9150   30.9810   47.4720 N   0  0  0  0  0  0  0  0  0  0  0  0
   37.0360   31.0910   48.4800 C   0  0  0  0  0  0  0  0  0  0  0  0
   37.1580   32.1100   49.3310 N   0  0  0  0  0  0  0  0  0  0  0  0
   38.2440   33.8580   49.8870 H   0  0  0  0  0  0  0  0  0  0  0  0
   39.8300   33.6680   48.0770 H   0  0  0  0  0  0  0  0  0  0  0  0
   39.8960   31.7690   46.1910 C   0  0  0  0  0  2  0  0  0  0  0  0
   39.4780   32.3670   44.9590 N   0  0  0  0  0  4  0  0  0  0  0  0
   39.8660   31.7630   44.1790 H   0  0  0  0  0  0  0  0  0  0  0  0
   40.0620   33.6740   44.7360 C   0  0  0  0  0  2  0  0  0  0  0  0
   39.9620   33.9370   43.6680 H   0  0  0  0  0  0  0  0  0  0  0  0
   38.0590   32.4430   44.7760 C   0  0  0  0  0  2  0  0  0  0  0  0
   37.8400   33.2660   44.0510 H   0  0  0  0  0  0  0  0  0  0  0  0
  1  2  1  0  0  0  0
  2  3  2  0  0  0  0
  2 13  1  0  0  0  0
  3 14  1  0  0  0  0
  4 15  1  0  0  0  0
  4  3  1  0  0  0  0
  5  4  2  0  0  0  0
  6  5  1  0  0  0  0
  6  1  2  0  0  0  0
  7  8  1  0  0  0  0
  7  5  1  0  0  0  0
  8 16  1  0  0  0  0
  8 17  1  0  0  0  0
  9 19  1  0  0  0  0
  9  8  1  0  0  0  0
 10  9  1  0  0  0  0
 10 20  1  0  0  0  0
 11 12  1  0  0  0  0
 11 10  1  0  0  0  0
 11 22  1  0  0  0  0
 12  7  1  0  0  0  0
 18  9  1  0  0  0  0
 21 10  1  0  0  0  0
 23 11  1  0  0  0  0
 24 12  1  0  0  0  0
 25 12  1  0  0  0  0
 26 31  1  0  0  0  0
 26 32  1  0  0  0  0
 27 26  2  0  0  0  0
 28 29  2  0  0  0  0
 28 27  1  0  0  0  0
 29 30  1  0  0  0  0
 30  1  1  0  0  0  0
 30 31  2  0  0  0  0
 33 27  1  0  0  0  0
 34 28  1  0  0  0  0
 35 34  1  0  0  0  0
 36 35  1  0  0  0  0
 37 35  1  0  0  0  0
 38 37  1  0  0  0  0
 39 35  1  0  0  0  0
 40 39  1  0  0  0  0
M  END
>  <minimizedAffinity>
-6.16170549

>  <minimizedRMSD>
0.412461847

$$$$
