
 OpenBabel03272505233D

 33 35  0  0  0  0  0  0  0  0999 V2000
   38.5700   25.4800   34.4240 Br  0  0  0  0  0  0  0  0  0  0  0  0
   37.8730   23.8370   33.7630 C   0  0  0  0  0  0  0  0  0  0  0  0
   37.8370   22.7190   34.5570 C   0  0  0  0  0  0  0  0  0  0  0  0
   37.3080   21.5410   34.0260 C   0  0  0  0  0  0  0  0  0  0  0  0
   36.8380   21.5250   32.7300 C   0  0  0  0  0  0  0  0  0  0  0  0
   36.8710   22.6530   31.9190 C   0  0  0  0  0  0  0  0  0  0  0  0
   37.4010   23.8180   32.4650 C   0  0  0  0  0  0  0  0  0  0  0  0
   37.2960   20.6790   34.6810 H   0  0  0  0  0  0  0  0  0  0  0  0
   36.4330   20.6000   32.3430 H   0  0  0  0  0  0  0  0  0  0  0  0
   36.5080   22.6450   30.9130 H   0  0  0  0  0  0  0  0  0  0  0  0
   40.1330   22.6700   37.5530 C   0  0  0  0  0  0  0  0  0  0  0  0
   39.6560   22.5290   36.2420 C   0  0  0  0  0  0  0  0  0  0  0  0
   38.3610   22.8490   35.9160 C   0  0  0  0  0  0  0  0  0  0  0  0
   37.5650   23.3110   36.9380 N   0  0  0  0  0  0  0  0  0  0  0  0
   38.0240   23.4460   38.1990 C   0  0  0  0  0  0  0  0  0  0  0  0
   39.2900   23.1320   38.5100 N   0  0  0  0  0  0  0  0  0  0  0  0
   41.1520   22.4250   37.8330 H   0  0  0  0  0  0  0  0  0  0  0  0
   40.3730   22.1460   35.5440 H   0  0  0  0  0  0  0  0  0  0  0  0
   37.2450   23.8210   38.8510 H   0  0  0  0  0  0  0  0  0  0  0  0
   37.4590   25.0240   31.6470 C   0  0  0  0  0  0  0  0  0  0  0  0
   36.4180   25.8270   31.2840 C   0  0  0  0  0  0  0  0  0  0  0  0
   36.8440   26.8400   30.5280 N   0  0  0  0  0  0  0  0  0  0  0  0
   38.1670   26.7040   30.3950 C   0  0  0  0  0  0  0  0  0  0  0  0
   38.5740   25.5930   31.0750 N   0  0  0  0  0  0  0  0  0  0  0  0
   35.4020   25.6230   31.5930 H   0  0  0  0  0  0  0  0  0  0  0  0
   36.2040   27.5690   30.1460 H   0  0  0  0  0  0  0  0  0  0  0  0
   39.0470   27.6230   29.6260 C   0  0  0  0  0  2  0  0  0  0  0  0
   38.5180   27.9660   28.3360 N   0  0  0  0  0  4  0  0  0  0  0  0
   37.7390   27.3190   28.0790 H   0  0  0  0  0  0  0  0  0  0  0  0
   39.5980   27.7180   27.3790 C   0  0  0  0  0  2  0  0  0  0  0  0
   40.4900   28.2570   27.7780 H   0  0  0  0  0  0  0  0  0  0  0  0
   38.1370   29.3370   28.1820 C   0  0  0  0  0  2  0  0  0  0  0  0
   37.9920   29.9020   29.1100 H   0  0  0  0  0  0  0  0  0  0  0  0
  2  1  1  0  0  0  0
  2  3  1  0  0  0  0
  3 13  1  0  0  0  0
  4  3  2  0  0  0  0
  4  8  1  0  0  0  0
  5  4  1  0  0  0  0
  6  7  1  0  0  0  0
  6  5  2  0  0  0  0
  7  2  2  0  0  0  0
  9  5  1  0  0  0  0
 10  6  1  0  0  0  0
 11 17  1  0  0  0  0
 11 16  1  0  0  0  0
 12 11  2  0  0  0  0
 13 12  1  0  0  0  0
 13 14  2  0  0  0  0
 14 15  1  0  0  0  0
 15 16  2  0  0  0  0
 15 19  1  0  0  0  0
 18 12  1  0  0  0  0
 20  7  1  0  0  0  0
 21 25  1  0  0  0  0
 21 20  2  0  0  0  0
 22 21  1  0  0  0  0
 23 22  1  0  0  0  0
 23 24  2  0  0  0  0
 24 20  1  0  0  0  0
 26 22  1  0  0  0  0
 27 23  1  0  0  0  0
 28 27  1  0  0  0  0
 29 28  1  0  0  0  0
 30 31  1  0  0  0  0
 30 28  1  0  0  0  0
 32 28  1  0  0  0  0
 32 33  1  0  0  0  0
M  END
>  <minimizedAffinity>
-5.02275562

$$$$

 OpenBabel03272505233D

 33 35  0  0  0  0  0  0  0  0999 V2000
   40.6500   24.8980   34.2710 Br  0  0  0  0  0  0  0  0  0  0  0  0
   39.8220   24.2220   35.8450 C   0  0  0  0  0  0  0  0  0  0  0  0
   40.3760   23.1740   36.5350 C   0  0  0  0  0  0  0  0  0  0  0  0
   39.7320   22.7210   37.6890 C   0  0  0  0  0  0  0  0  0  0  0  0
   38.5670   23.3290   38.1050 C   0  0  0  0  0  0  0  0  0  0  0  0
   37.9980   24.3900   37.4110 C   0  0  0  0  0  0  0  0  0  0  0  0
   38.6540   24.8280   36.2640 C   0  0  0  0  0  0  0  0  0  0  0  0
   40.1980   21.8930   38.2080 H   0  0  0  0  0  0  0  0  0  0  0  0
   38.0880   22.9590   39.0020 H   0  0  0  0  0  0  0  0  0  0  0  0
   37.0950   24.8640   37.7310 H   0  0  0  0  0  0  0  0  0  0  0  0
   44.0260   22.4370   35.9200 C   0  0  0  0  0  0  0  0  0  0  0  0
   42.8550   23.0040   36.4430 C   0  0  0  0  0  0  0  0  0  0  0  0
   41.6140   22.6060   36.0050 C   0  0  0  0  0  0  0  0  0  0  0  0
   41.5870   21.6320   35.0350 N   0  0  0  0  0  0  0  0  0  0  0  0
   42.7140   21.0870   34.5330 C   0  0  0  0  0  0  0  0  0  0  0  0
   43.9220   21.4800   34.9650 N   0  0  0  0  0  0  0  0  0  0  0  0
   45.0160   22.7340   36.2510 H   0  0  0  0  0  0  0  0  0  0  0  0
   43.0160   23.7630   37.1820 H   0  0  0  0  0  0  0  0  0  0  0  0
   42.4780   20.3440   33.7830 H   0  0  0  0  0  0  0  0  0  0  0  0
   38.0900   25.9360   35.5030 C   0  0  0  0  0  0  0  0  0  0  0  0
   38.1340   27.2630   35.8180 C   0  0  0  0  0  0  0  0  0  0  0  0
   37.5080   27.9900   34.8910 N   0  0  0  0  0  0  0  0  0  0  0  0
   37.0530   27.1410   33.9650 C   0  0  0  0  0  0  0  0  0  0  0  0
   37.3970   25.8680   34.3160 N   0  0  0  0  0  0  0  0  0  0  0  0
   38.6220   27.6230   36.7130 H   0  0  0  0  0  0  0  0  0  0  0  0
   37.4290   29.0280   34.9450 H   0  0  0  0  0  0  0  0  0  0  0  0
   36.2940   27.5320   32.7480 C   0  0  0  0  0  2  0  0  0  0  0  0
   36.6280   26.7430   31.5950 N   0  0  0  0  0  4  0  0  0  0  0  0
   37.5100   26.2080   31.7630 H   0  0  0  0  0  0  0  0  0  0  0  0
   36.9170   27.6990   30.5240 C   0  0  0  0  0  2  0  0  0  0  0  0
   36.0460   28.3940   30.4900 H   0  0  0  0  0  0  0  0  0  0  0  0
   35.5800   25.8930   31.1180 C   0  0  0  0  0  2  0  0  0  0  0  0
   34.7650   25.6920   31.8240 H   0  0  0  0  0  0  0  0  0  0  0  0
  1  2  1  0  0  0  0
  2  7  2  0  0  0  0
  2  3  1  0  0  0  0
  3  4  2  0  0  0  0
  4  5  1  0  0  0  0
  4  8  1  0  0  0  0
  5  9  1  0  0  0  0
  6 10  1  0  0  0  0
  6  5  2  0  0  0  0
  7  6  1  0  0  0  0
 11 17  1  0  0  0  0
 11 12  1  0  0  0  0
 12 18  1  0  0  0  0
 13 12  2  0  0  0  0
 13  3  1  0  0  0  0
 14 13  1  0  0  0  0
 15 16  1  0  0  0  0
 15 14  2  0  0  0  0
 16 11  2  0  0  0  0
 19 15  1  0  0  0  0
 20 21  2  0  0  0  0
 20  7  1  0  0  0  0
 21 25  1  0  0  0  0
 22 26  1  0  0  0  0
 22 21  1  0  0  0  0
 23 24  2  0  0  0  0
 23 22  1  0  0  0  0
 24 20  1  0  0  0  0
 27 23  1  0  0  0  0
 28 29  1  0  0  0  0
 28 27  1  0  0  0  0
 30 28  1  0  0  0  0
 31 30  1  0  0  0  0
 32 28  1  0  0  0  0
 32 33  1  0  0  0  0
M  END
>  <minimizedAffinity>
-4.95812941

$$$$

 OpenBabel03272505233D

 33 35  0  0  0  0  0  0  0  0999 V2000
   39.2570   24.1460   33.8800 Br  0  0  0  0  0  0  0  0  0  0  0  0
   37.9340   22.7790   33.8190 C   0  0  0  0  0  0  0  0  0  0  0  0
   37.5250   22.1470   34.9670 C   0  0  0  0  0  0  0  0  0  0  0  0
   36.5450   21.1560   34.8680 C   0  0  0  0  0  0  0  0  0  0  0  0
   36.0160   20.8380   33.6360 C   0  0  0  0  0  0  0  0  0  0  0  0
   36.4250   21.4730   32.4700 C   0  0  0  0  0  0  0  0  0  0  0  0
   37.4020   22.4580   32.5870 C   0  0  0  0  0  0  0  0  0  0  0  0
   36.2470   20.6790   35.7930 H   0  0  0  0  0  0  0  0  0  0  0  0
   35.2580   20.0670   33.5870 H   0  0  0  0  0  0  0  0  0  0  0  0
   36.0170   21.2280   31.5120 H   0  0  0  0  0  0  0  0  0  0  0  0
   38.1080   23.6770   38.3670 C   0  0  0  0  0  0  0  0  0  0  0  0
   37.4830   23.2950   37.1720 C   0  0  0  0  0  0  0  0  0  0  0  0
   38.1520   22.5650   36.2190 C   0  0  0  0  0  0  0  0  0  0  0  0
   39.4570   22.2360   36.5000 N   0  0  0  0  0  0  0  0  0  0  0  0
   40.0580   22.6040   37.6500 C   0  0  0  0  0  0  0  0  0  0  0  0
   39.3990   23.3160   38.5760 N   0  0  0  0  0  0  0  0  0  0  0  0
   37.5990   24.2520   39.1340 H   0  0  0  0  0  0  0  0  0  0  0  0
   36.4700   23.6280   37.0700 H   0  0  0  0  0  0  0  0  0  0  0  0
   41.0800   22.2490   37.6780 H   0  0  0  0  0  0  0  0  0  0  0  0
   37.8640   23.1460   31.3870 C   0  0  0  0  0  0  0  0  0  0  0  0
   37.3720   24.3030   30.8580 C   0  0  0  0  0  0  0  0  0  0  0  0
   38.0380   24.6360   29.7510 N   0  0  0  0  0  0  0  0  0  0  0  0
   38.9690   23.6990   29.5530 C   0  0  0  0  0  0  0  0  0  0  0  0
   38.8850   22.7670   30.5470 N   0  0  0  0  0  0  0  0  0  0  0  0
   36.5500   24.8380   31.3130 H   0  0  0  0  0  0  0  0  0  0  0  0
   37.8180   25.4900   29.1930 H   0  0  0  0  0  0  0  0  0  0  0  0
   39.9390   23.6820   28.4260 C   0  0  0  0  0  2  0  0  0  0  0  0
   39.4420   24.3280   27.2430 N   0  0  0  0  0  4  0  0  0  0  0  0
   38.4390   24.5930   27.3670 H   0  0  0  0  0  0  0  0  0  0  0  0
   39.4790   23.3150   26.1870 C   0  0  0  0  0  2  0  0  0  0  0  0
   40.5120   22.8940   26.2010 H   0  0  0  0  0  0  0  0  0  0  0  0
   40.2260   25.4340   26.7830 C   0  0  0  0  0  2  0  0  0  0  0  0
   40.9210   25.8670   27.5110 H   0  0  0  0  0  0  0  0  0  0  0  0
  2  1  1  0  0  0  0
  2  3  1  0  0  0  0
  3 13  1  0  0  0  0
  4  3  2  0  0  0  0
  4  8  1  0  0  0  0
  5  4  1  0  0  0  0
  6  7  1  0  0  0  0
  6  5  2  0  0  0  0
  7  2  2  0  0  0  0
  9  5  1  0  0  0  0
 10  6  1  0  0  0  0
 11 16  1  0  0  0  0
 11 17  1  0  0  0  0
 12 11  2  0  0  0  0
 13 14  2  0  0  0  0
 13 12  1  0  0  0  0
 14 15  1  0  0  0  0
 15 19  1  0  0  0  0
 15 16  2  0  0  0  0
 18 12  1  0  0  0  0
 20  7  1  0  0  0  0
 21 25  1  0  0  0  0
 21 20  2  0  0  0  0
 22 21  1  0  0  0  0
 23 22  1  0  0  0  0
 23 24  2  0  0  0  0
 24 20  1  0  0  0  0
 26 22  1  0  0  0  0
 27 23  1  0  0  0  0
 28 29  1  0  0  0  0
 28 27  1  0  0  0  0
 30 31  1  0  0  0  0
 30 28  1  0  0  0  0
 32 28  1  0  0  0  0
 32 33  1  0  0  0  0
M  END
>  <minimizedAffinity>
-4.8947649

$$$$

 OpenBabel03272505233D

 33 35  0  0  0  0  0  0  0  0999 V2000
   38.2770   26.8980   33.4390 Br  0  0  0  0  0  0  0  0  0  0  0  0
   37.2480   25.5270   32.6130 C   0  0  0  0  0  0  0  0  0  0  0  0
   37.4390   24.2090   32.9450 C   0  0  0  0  0  0  0  0  0  0  0  0
   36.6510   23.2430   32.3150 C   0  0  0  0  0  0  0  0  0  0  0  0
   35.7100   23.6280   31.3840 C   0  0  0  0  0  0  0  0  0  0  0  0
   35.5110   24.9600   31.0420 C   0  0  0  0  0  0  0  0  0  0  0  0
   36.3040   25.9090   31.6810 C   0  0  0  0  0  0  0  0  0  0  0  0
   36.8290   22.2140   32.6010 H   0  0  0  0  0  0  0  0  0  0  0  0
   35.1120   22.8600   30.9110 H   0  0  0  0  0  0  0  0  0  0  0  0
   34.7820   25.2630   30.3210 H   0  0  0  0  0  0  0  0  0  0  0  0
   40.7280   23.3640   34.5910 C   0  0  0  0  0  0  0  0  0  0  0  0
   39.7650   23.6370   33.6090 C   0  0  0  0  0  0  0  0  0  0  0  0
   38.4620   23.9150   33.9450 C   0  0  0  0  0  0  0  0  0  0  0  0
   38.1590   23.9090   35.2870 N   0  0  0  0  0  0  0  0  0  0  0  0
   39.0850   23.6470   36.2310 C   0  0  0  0  0  0  0  0  0  0  0  0
   40.3550   23.3760   35.8950 N   0  0  0  0  0  0  0  0  0  0  0  0
   41.7630   23.1440   34.3490 H   0  0  0  0  0  0  0  0  0  0  0  0
   40.1290   23.5950   32.6020 H   0  0  0  0  0  0  0  0  0  0  0  0
   38.6460   23.6910   37.2190 H   0  0  0  0  0  0  0  0  0  0  0  0
   36.1320   27.3180   31.3480 C   0  0  0  0  0  0  0  0  0  0  0  0
   36.6550   27.9860   30.2800 C   0  0  0  0  0  0  0  0  0  0  0  0
   36.2890   29.2680   30.2990 N   0  0  0  0  0  0  0  0  0  0  0  0
   35.5240   29.4450   31.3800 C   0  0  0  0  0  0  0  0  0  0  0  0
   35.4090   28.2590   32.0460 N   0  0  0  0  0  0  0  0  0  0  0  0
   37.2790   27.4940   29.5460 H   0  0  0  0  0  0  0  0  0  0  0  0
   36.5850   29.9520   29.5690 H   0  0  0  0  0  0  0  0  0  0  0  0
   34.9000   30.7320   31.7840 C   0  0  0  0  0  2  0  0  0  0  0  0
   34.0000   31.2590   30.7960 N   0  0  0  0  0  4  0  0  0  0  0  0
   34.1410   30.7750   29.8810 H   0  0  0  0  0  0  0  0  0  0  0  0
   34.3960   32.6540   30.5940 C   0  0  0  0  0  2  0  0  0  0  0  0
   34.4370   33.1110   31.6120 H   0  0  0  0  0  0  0  0  0  0  0  0
   32.6210   31.2730   31.1780 C   0  0  0  0  0  2  0  0  0  0  0  0
   32.3490   30.6230   32.0180 H   0  0  0  0  0  0  0  0  0  0  0  0
  2  3  1  0  0  0  0
  2  1  1  0  0  0  0
  3 13  1  0  0  0  0
  4  8  1  0  0  0  0
  4  3  2  0  0  0  0
  5  4  1  0  0  0  0
  6  5  2  0  0  0  0
  6  7  1  0  0  0  0
  7  2  2  0  0  0  0
  9  5  1  0  0  0  0
 10  6  1  0  0  0  0
 11 16  1  0  0  0  0
 12 13  1  0  0  0  0
 12 11  2  0  0  0  0
 13 14  2  0  0  0  0
 14 15  1  0  0  0  0
 15 19  1  0  0  0  0
 16 15  2  0  0  0  0
 17 11  1  0  0  0  0
 18 12  1  0  0  0  0
 20  7  1  0  0  0  0
 20 24  1  0  0  0  0
 21 22  1  0  0  0  0
 21 20  2  0  0  0  0
 22 23  1  0  0  0  0
 23 27  1  0  0  0  0
 23 24  2  0  0  0  0
 25 21  1  0  0  0  0
 26 22  1  0  0  0  0
 28 32  1  0  0  0  0
 28 27  1  0  0  0  0
 29 28  1  0  0  0  0
 30 28  1  0  0  0  0
 30 31  1  0  0  0  0
 32 33  1  0  0  0  0
M  END
>  <minimizedAffinity>
-4.85838985

$$$$

 OpenBabel03272505233D

 33 35  0  0  0  0  0  0  0  0999 V2000
   38.1370   26.7590   33.3150 Br  0  0  0  0  0  0  0  0  0  0  0  0
   36.8420   25.8260   32.2780 C   0  0  0  0  0  0  0  0  0  0  0  0
   35.9040   26.5100   31.5450 C   0  0  0  0  0  0  0  0  0  0  0  0
   34.9820   25.7770   30.7940 C   0  0  0  0  0  0  0  0  0  0  0  0
   35.0310   24.3990   30.8060 C   0  0  0  0  0  0  0  0  0  0  0  0
   35.9770   23.7000   31.5450 C   0  0  0  0  0  0  0  0  0  0  0  0
   36.8880   24.4460   32.2870 C   0  0  0  0  0  0  0  0  0  0  0  0
   34.2570   26.3490   30.2290 H   0  0  0  0  0  0  0  0  0  0  0  0
   34.3050   23.8560   30.2150 H   0  0  0  0  0  0  0  0  0  0  0  0
   36.0180   22.6320   31.5570 H   0  0  0  0  0  0  0  0  0  0  0  0
   35.4040   30.0840   32.6480 C   0  0  0  0  0  0  0  0  0  0  0  0
   35.3430   28.6840   32.6130 C   0  0  0  0  0  0  0  0  0  0  0  0
   35.9450   27.9700   31.6050 C   0  0  0  0  0  0  0  0  0  0  0  0
   36.6040   28.6980   30.6430 N   0  0  0  0  0  0  0  0  0  0  0  0
   36.6620   30.0450   30.6780 C   0  0  0  0  0  0  0  0  0  0  0  0
   36.0720   30.7360   31.6640 N   0  0  0  0  0  0  0  0  0  0  0  0
   34.9370   30.6690   33.4340 H   0  0  0  0  0  0  0  0  0  0  0  0
   34.7860   28.2400   33.4130 H   0  0  0  0  0  0  0  0  0  0  0  0
   37.2240   30.4250   29.8340 H   0  0  0  0  0  0  0  0  0  0  0  0
   37.8950   23.7530   33.0810 C   0  0  0  0  0  0  0  0  0  0  0  0
   39.1580   23.4080   32.6970 C   0  0  0  0  0  0  0  0  0  0  0  0
   39.7970   22.7790   33.6840 N   0  0  0  0  0  0  0  0  0  0  0  0
   38.9540   22.7100   34.7190 C   0  0  0  0  0  0  0  0  0  0  0  0
   37.7740   23.3030   34.3760 N   0  0  0  0  0  0  0  0  0  0  0  0
   39.5400   23.6370   31.7120 H   0  0  0  0  0  0  0  0  0  0  0  0
   40.7760   22.4320   33.5930 H   0  0  0  0  0  0  0  0  0  0  0  0
   39.2640   22.0860   36.0320 C   0  0  0  0  0  2  0  0  0  0  0  0
   39.7730   23.0210   36.9970 N   0  0  0  0  0  4  0  0  0  0  0  0
   40.0700   23.9040   36.5260 H   0  0  0  0  0  0  0  0  0  0  0  0
   40.9870   22.4120   37.5450 C   0  0  0  0  0  2  0  0  0  0  0  0
   40.6960   21.3830   37.8640 H   0  0  0  0  0  0  0  0  0  0  0  0
   38.9050   23.2810   38.1050 C   0  0  0  0  0  2  0  0  0  0  0  0
   37.8530   23.0040   37.9670 H   0  0  0  0  0  0  0  0  0  0  0  0
  2  7  1  0  0  0  0
  2  1  1  0  0  0  0
  3 13  1  0  0  0  0
  3  2  2  0  0  0  0
  4  5  2  0  0  0  0
  4  3  1  0  0  0  0
  5  6  1  0  0  0  0
  6 10  1  0  0  0  0
  6  7  2  0  0  0  0
  7 20  1  0  0  0  0
  8  4  1  0  0  0  0
  9  5  1  0  0  0  0
 11 17  1  0  0  0  0
 12 11  1  0  0  0  0
 12 18  1  0  0  0  0
 13 12  2  0  0  0  0
 14 15  2  0  0  0  0
 14 13  1  0  0  0  0
 15 16  1  0  0  0  0
 16 11  2  0  0  0  0
 19 15  1  0  0  0  0
 20 24  1  0  0  0  0
 21 20  2  0  0  0  0
 21 22  1  0  0  0  0
 22 23  1  0  0  0  0
 23 27  1  0  0  0  0
 24 23  2  0  0  0  0
 25 21  1  0  0  0  0
 26 22  1  0  0  0  0
 27 28  1  0  0  0  0
 28 30  1  0  0  0  0
 28 32  1  0  0  0  0
 29 28  1  0  0  0  0
 30 31  1  0  0  0  0
 33 32  1  0  0  0  0
M  END
>  <minimizedAffinity>
-4.7837863

$$$$

 OpenBabel03272505233D

 33 35  0  0  0  0  0  0  0  0999 V2000
   38.7220   25.4880   34.3570 Br  0  0  0  0  0  0  0  0  0  0  0  0
   37.9180   23.8890   33.7100 C   0  0  0  0  0  0  0  0  0  0  0  0
   37.8600   22.7650   34.4960 C   0  0  0  0  0  0  0  0  0  0  0  0
   37.2510   21.6200   33.9760 C   0  0  0  0  0  0  0  0  0  0  0  0
   36.7300   21.6420   32.7000 C   0  0  0  0  0  0  0  0  0  0  0  0
   36.7860   22.7750   31.8980 C   0  0  0  0  0  0  0  0  0  0  0  0
   37.3950   23.9070   32.4330 C   0  0  0  0  0  0  0  0  0  0  0  0
   37.2230   20.7530   34.6230 H   0  0  0  0  0  0  0  0  0  0  0  0
   36.2640   20.7420   32.3210 H   0  0  0  0  0  0  0  0  0  0  0  0
   36.3830   22.7960   30.9080 H   0  0  0  0  0  0  0  0  0  0  0  0
   40.2600   22.5490   37.3990 C   0  0  0  0  0  0  0  0  0  0  0  0
   39.7250   22.4460   36.1080 C   0  0  0  0  0  0  0  0  0  0  0  0
   38.4430   22.8550   35.8330 C   0  0  0  0  0  0  0  0  0  0  0  0
   37.7210   23.3660   36.8860 N   0  0  0  0  0  0  0  0  0  0  0  0
   38.2360   23.4650   38.1280 C   0  0  0  0  0  0  0  0  0  0  0  0
   39.4890   23.0640   38.3890 N   0  0  0  0  0  0  0  0  0  0  0  0
   41.2710   22.2340   37.6400 H   0  0  0  0  0  0  0  0  0  0  0  0
   40.3860   22.0160   35.3830 H   0  0  0  0  0  0  0  0  0  0  0  0
   37.5110   23.8900   38.8100 H   0  0  0  0  0  0  0  0  0  0  0  0
   37.4800   25.1170   31.6240 C   0  0  0  0  0  0  0  0  0  0  0  0
   38.4370   25.4310   30.7040 C   0  0  0  0  0  0  0  0  0  0  0  0
   38.1950   26.6240   30.1590 N   0  0  0  0  0  0  0  0  0  0  0  0
   37.0780   27.0950   30.7190 C   0  0  0  0  0  0  0  0  0  0  0  0
   36.6140   26.1870   31.6270 N   0  0  0  0  0  0  0  0  0  0  0  0
   39.2620   24.7670   30.4850 H   0  0  0  0  0  0  0  0  0  0  0  0
   38.8110   27.0490   29.4310 H   0  0  0  0  0  0  0  0  0  0  0  0
   36.4470   28.4030   30.3980 C   0  0  0  0  0  2  0  0  0  0  0  0
   37.4020   29.4530   30.1780 N   0  0  0  0  0  4  0  0  0  0  0  0
   38.3010   29.2340   30.6630 H   0  0  0  0  0  0  0  0  0  0  0  0
   36.8520   30.6400   30.8370 C   0  0  0  0  0  2  0  0  0  0  0  0
   35.8080   30.7460   30.4550 H   0  0  0  0  0  0  0  0  0  0  0  0
   37.6140   29.8020   28.8070 C   0  0  0  0  0  2  0  0  0  0  0  0
   37.2850   29.0630   28.0670 H   0  0  0  0  0  0  0  0  0  0  0  0
  2  1  1  0  0  0  0
  2  3  1  0  0  0  0
  3 13  1  0  0  0  0
  4  3  2  0  0  0  0
  4  8  1  0  0  0  0
  5  4  1  0  0  0  0
  6  7  1  0  0  0  0
  6  5  2  0  0  0  0
  7  2  2  0  0  0  0
  9  5  1  0  0  0  0
 10  6  1  0  0  0  0
 11 17  1  0  0  0  0
 11 16  1  0  0  0  0
 12 11  2  0  0  0  0
 13 12  1  0  0  0  0
 13 14  2  0  0  0  0
 14 15  1  0  0  0  0
 15 16  2  0  0  0  0
 15 19  1  0  0  0  0
 18 12  1  0  0  0  0
 20 24  1  0  0  0  0
 20  7  1  0  0  0  0
 21 20  2  0  0  0  0
 22 21  1  0  0  0  0
 22 23  1  0  0  0  0
 23 24  2  0  0  0  0
 25 21  1  0  0  0  0
 26 22  1  0  0  0  0
 27 23  1  0  0  0  0
 28 27  1  0  0  0  0
 28 29  1  0  0  0  0
 28 30  1  0  0  0  0
 31 30  1  0  0  0  0
 32 28  1  0  0  0  0
 33 32  1  0  0  0  0
M  END
>  <minimizedAffinity>
-4.77823639

$$$$

 OpenBabel03272505233D

 33 35  0  0  0  0  0  0  0  0999 V2000
   38.3760   26.1850   35.0470 Br  0  0  0  0  0  0  0  0  0  0  0  0
   37.9450   24.6460   34.0130 C   0  0  0  0  0  0  0  0  0  0  0  0
   38.0020   23.3910   34.5660 C   0  0  0  0  0  0  0  0  0  0  0  0
   37.6670   22.2960   33.7660 C   0  0  0  0  0  0  0  0  0  0  0  0
   37.2930   22.4960   32.4540 C   0  0  0  0  0  0  0  0  0  0  0  0
   37.2330   23.7630   31.8880 C   0  0  0  0  0  0  0  0  0  0  0  0
   37.5700   24.8420   32.6990 C   0  0  0  0  0  0  0  0  0  0  0  0
   37.7220   21.3220   34.2350 H   0  0  0  0  0  0  0  0  0  0  0  0
   37.0380   21.6300   31.8570 H   0  0  0  0  0  0  0  0  0  0  0  0
   36.9440   23.9220   30.8710 H   0  0  0  0  0  0  0  0  0  0  0  0
   40.0360   22.8230   37.6930 C   0  0  0  0  0  0  0  0  0  0  0  0
   39.6700   22.8990   36.3420 C   0  0  0  0  0  0  0  0  0  0  0  0
   38.4100   23.2970   35.9660 C   0  0  0  0  0  0  0  0  0  0  0  0
   37.5360   23.6130   36.9800 N   0  0  0  0  0  0  0  0  0  0  0  0
   37.8880   23.5400   38.2800 C   0  0  0  0  0  0  0  0  0  0  0  0
   39.1200   23.1510   38.6400 N   0  0  0  0  0  0  0  0  0  0  0  0
   41.0250   22.5130   38.0140 H   0  0  0  0  0  0  0  0  0  0  0  0
   40.4390   22.6110   35.6540 H   0  0  0  0  0  0  0  0  0  0  0  0
   37.0620   23.8280   38.9160 H   0  0  0  0  0  0  0  0  0  0  0  0
   37.5260   26.1900   32.1430 C   0  0  0  0  0  0  0  0  0  0  0  0
   38.5580   26.8900   31.5910 C   0  0  0  0  0  0  0  0  0  0  0  0
   38.1510   28.0950   31.1900 N   0  0  0  0  0  0  0  0  0  0  0  0
   36.8490   28.1870   31.4780 C   0  0  0  0  0  0  0  0  0  0  0  0
   36.4360   27.0270   32.0660 N   0  0  0  0  0  0  0  0  0  0  0  0
   39.5550   26.4770   31.5150 H   0  0  0  0  0  0  0  0  0  0  0  0
   38.7880   28.7870   30.7410 H   0  0  0  0  0  0  0  0  0  0  0  0
   35.9940   29.3710   31.1960 C   0  0  0  0  0  2  0  0  0  0  0  0
   35.0410   29.6400   32.2370 N   0  0  0  0  0  4  0  0  0  0  0  0
   34.4760   28.7860   32.4430 H   0  0  0  0  0  0  0  0  0  0  0  0
   34.1140   30.6300   31.6860 C   0  0  0  0  0  2  0  0  0  0  0  0
   34.7490   31.4550   31.2840 H   0  0  0  0  0  0  0  0  0  0  0  0
   35.5910   30.2080   33.4300 C   0  0  0  0  0  2  0  0  0  0  0  0
   36.6740   30.0980   33.5590 H   0  0  0  0  0  0  0  0  0  0  0  0
  2  3  1  0  0  0  0
  2  1  1  0  0  0  0
  3 13  1  0  0  0  0
  4  8  1  0  0  0  0
  4  3  2  0  0  0  0
  5  4  1  0  0  0  0
  6  5  2  0  0  0  0
  6  7  1  0  0  0  0
  7  2  2  0  0  0  0
  9  5  1  0  0  0  0
 10  6  1  0  0  0  0
 11 17  1  0  0  0  0
 11 16  1  0  0  0  0
 12 11  2  0  0  0  0
 13 12  1  0  0  0  0
 13 14  2  0  0  0  0
 14 15  1  0  0  0  0
 15 16  2  0  0  0  0
 15 19  1  0  0  0  0
 18 12  1  0  0  0  0
 20  7  1  0  0  0  0
 21 20  2  0  0  0  0
 22 23  1  0  0  0  0
 22 21  1  0  0  0  0
 23 24  2  0  0  0  0
 24 20  1  0  0  0  0
 25 21  1  0  0  0  0
 26 22  1  0  0  0  0
 27 23  1  0  0  0  0
 27 28  1  0  0  0  0
 28 29  1  0  0  0  0
 28 32  1  0  0  0  0
 30 28  1  0  0  0  0
 31 30  1  0  0  0  0
 32 33  1  0  0  0  0
M  END
>  <minimizedAffinity>
-4.77279186

$$$$

 OpenBabel03272505233D

 33 35  0  0  0  0  0  0  0  0999 V2000
   38.6320   25.4440   33.9990 Br  0  0  0  0  0  0  0  0  0  0  0  0
   37.7520   24.0190   33.0970 C   0  0  0  0  0  0  0  0  0  0  0  0
   37.1720   24.2170   31.8690 C   0  0  0  0  0  0  0  0  0  0  0  0
   36.5460   23.1350   31.2460 C   0  0  0  0  0  0  0  0  0  0  0  0
   36.5230   21.9060   31.8700 C   0  0  0  0  0  0  0  0  0  0  0  0
   37.1060   21.6970   33.1130 C   0  0  0  0  0  0  0  0  0  0  0  0
   37.7270   22.7860   33.7190 C   0  0  0  0  0  0  0  0  0  0  0  0
   36.1000   23.3280   30.2780 H   0  0  0  0  0  0  0  0  0  0  0  0
   36.0310   21.0840   31.3650 H   0  0  0  0  0  0  0  0  0  0  0  0
   37.0910   20.7460   33.6000 H   0  0  0  0  0  0  0  0  0  0  0  0
   36.3500   27.7580   30.8550 C   0  0  0  0  0  0  0  0  0  0  0  0
   36.2370   26.4740   31.4060 C   0  0  0  0  0  0  0  0  0  0  0  0
   37.2580   25.5600   31.3000 C   0  0  0  0  0  0  0  0  0  0  0  0
   38.3850   25.9730   30.6280 N   0  0  0  0  0  0  0  0  0  0  0  0
   38.4930   27.2080   30.0980 C   0  0  0  0  0  0  0  0  0  0  0  0
   37.4930   28.0950   30.2060 N   0  0  0  0  0  0  0  0  0  0  0  0
   35.5580   28.4960   30.9280 H   0  0  0  0  0  0  0  0  0  0  0  0
   35.3020   26.2740   31.8890 H   0  0  0  0  0  0  0  0  0  0  0  0
   39.4530   27.3330   29.6140 H   0  0  0  0  0  0  0  0  0  0  0  0
   38.3480   22.6130   35.0260 C   0  0  0  0  0  0  0  0  0  0  0  0
   37.7630   22.7770   36.2480 C   0  0  0  0  0  0  0  0  0  0  0  0
   38.6370   22.5360   37.2260 N   0  0  0  0  0  0  0  0  0  0  0  0
   39.7980   22.2140   36.6480 C   0  0  0  0  0  0  0  0  0  0  0  0
   39.6500   22.2530   35.2920 N   0  0  0  0  0  0  0  0  0  0  0  0
   36.7260   23.0650   36.3530 H   0  0  0  0  0  0  0  0  0  0  0  0
   38.3890   22.6070   38.2370 H   0  0  0  0  0  0  0  0  0  0  0  0
   41.0480   21.8680   37.3760 C   0  0  0  0  0  2  0  0  0  0  0  0
   42.1370   21.5320   36.5020 N   0  0  0  0  0  4  0  0  0  0  0  0
   41.7770   21.2720   35.5560 H   0  0  0  0  0  0  0  0  0  0  0  0
   42.7440   20.3240   37.0630 C   0  0  0  0  0  2  0  0  0  0  0  0
   42.9410   20.5500   38.1380 H   0  0  0  0  0  0  0  0  0  0  0  0
   43.1740   22.5150   36.4190 C   0  0  0  0  0  2  0  0  0  0  0  0
   42.9090   23.5220   36.7630 H   0  0  0  0  0  0  0  0  0  0  0  0
  2  7  1  0  0  0  0
  2  1  1  0  0  0  0
  3  2  2  0  0  0  0
  4  3  1  0  0  0  0
  4  5  2  0  0  0  0
  5  6  1  0  0  0  0
  6 10  1  0  0  0  0
  6  7  2  0  0  0  0
  7 20  1  0  0  0  0
  8  4  1  0  0  0  0
  9  5  1  0  0  0  0
 11 17  1  0  0  0  0
 11 12  1  0  0  0  0
 12 18  1  0  0  0  0
 13 12  2  0  0  0  0
 13  3  1  0  0  0  0
 14 13  1  0  0  0  0
 15 16  1  0  0  0  0
 15 14  2  0  0  0  0
 16 11  2  0  0  0  0
 19 15  1  0  0  0  0
 20 24  1  0  0  0  0
 20 21  2  0  0  0  0
 21 25  1  0  0  0  0
 21 22  1  0  0  0  0
 22 26  1  0  0  0  0
 23 22  1  0  0  0  0
 23 27  1  0  0  0  0
 24 23  2  0  0  0  0
 28 30  1  0  0  0  0
 28 27  1  0  0  0  0
 29 28  1  0  0  0  0
 30 31  1  0  0  0  0
 32 28  1  0  0  0  0
 32 33  1  0  0  0  0
M  END
>  <minimizedAffinity>
-4.76323414

$$$$

 OpenBabel03272505233D

 33 35  0  0  0  0  0  0  0  0999 V2000
   36.2870   28.2790   34.2550 Br  0  0  0  0  0  0  0  0  0  0  0  0
   36.1390   29.4900   32.7950 C   0  0  0  0  0  0  0  0  0  0  0  0
   35.5600   30.7230   32.9610 C   0  0  0  0  0  0  0  0  0  0  0  0
   35.4840   31.5780   31.8590 C   0  0  0  0  0  0  0  0  0  0  0  0
   35.9850   31.1700   30.6410 C   0  0  0  0  0  0  0  0  0  0  0  0
   36.5720   29.9230   30.4640 C   0  0  0  0  0  0  0  0  0  0  0  0
   36.6390   29.0850   31.5740 C   0  0  0  0  0  0  0  0  0  0  0  0
   35.0220   32.5420   32.0270 H   0  0  0  0  0  0  0  0  0  0  0  0
   35.9140   31.8500   29.8030 H   0  0  0  0  0  0  0  0  0  0  0  0
   36.9610   29.6020   29.5210 H   0  0  0  0  0  0  0  0  0  0  0  0
   35.3330   32.0060   36.5030 C   0  0  0  0  0  0  0  0  0  0  0  0
   35.8370   31.6970   35.2320 C   0  0  0  0  0  0  0  0  0  0  0  0
   35.0650   31.0530   34.2960 C   0  0  0  0  0  0  0  0  0  0  0  0
   33.7820   30.7310   34.6730 N   0  0  0  0  0  0  0  0  0  0  0  0
   33.2970   31.0290   35.8960 C   0  0  0  0  0  0  0  0  0  0  0  0
   34.0570   31.6580   36.8050 N   0  0  0  0  0  0  0  0  0  0  0  0
   35.9240   32.5150   37.2580 H   0  0  0  0  0  0  0  0  0  0  0  0
   36.8550   31.9880   35.0720 H   0  0  0  0  0  0  0  0  0  0  0  0
   32.2730   30.6920   35.9930 H   0  0  0  0  0  0  0  0  0  0  0  0
   37.2430   27.7650   31.4310 C   0  0  0  0  0  0  0  0  0  0  0  0
   38.5580   27.4370   31.5820 C   0  0  0  0  0  0  0  0  0  0  0  0
   38.7480   26.1340   31.3730 N   0  0  0  0  0  0  0  0  0  0  0  0
   37.5550   25.6030   31.0840 C   0  0  0  0  0  0  0  0  0  0  0  0
   36.6090   26.5860   31.1130 N   0  0  0  0  0  0  0  0  0  0  0  0
   39.3070   28.1740   31.8370 H   0  0  0  0  0  0  0  0  0  0  0  0
   39.6840   25.6800   31.4400 H   0  0  0  0  0  0  0  0  0  0  0  0
   37.3100   24.1680   30.7820 C   0  0  0  0  0  2  0  0  0  0  0  0
   36.4530   23.5270   31.7400 N   0  0  0  0  0  4  0  0  0  0  0  0
   35.8070   24.2240   32.1740 H   0  0  0  0  0  0  0  0  0  0  0  0
   37.3330   23.0510   32.8100 C   0  0  0  0  0  2  0  0  0  0  0  0
   38.1410   22.4690   32.3060 H   0  0  0  0  0  0  0  0  0  0  0  0
   35.7440   22.3850   31.2500 C   0  0  0  0  0  2  0  0  0  0  0  0
   35.6750   22.2940   30.1600 H   0  0  0  0  0  0  0  0  0  0  0  0
  2  3  1  0  0  0  0
  2  1  1  0  0  0  0
  3 13  1  0  0  0  0
  4  8  1  0  0  0  0
  4  3  2  0  0  0  0
  5  4  1  0  0  0  0
  6  5  2  0  0  0  0
  6  7  1  0  0  0  0
  7  2  2  0  0  0  0
  9  5  1  0  0  0  0
 10  6  1  0  0  0  0
 11 16  1  0  0  0  0
 11 17  1  0  0  0  0
 12 11  2  0  0  0  0
 13 14  2  0  0  0  0
 13 12  1  0  0  0  0
 14 15  1  0  0  0  0
 15 19  1  0  0  0  0
 15 16  2  0  0  0  0
 18 12  1  0  0  0  0
 20  7  1  0  0  0  0
 20 21  2  0  0  0  0
 21 25  1  0  0  0  0
 22 26  1  0  0  0  0
 22 21  1  0  0  0  0
 23 24  2  0  0  0  0
 23 22  1  0  0  0  0
 24 20  1  0  0  0  0
 27 23  1  0  0  0  0
 27 28  1  0  0  0  0
 28 29  1  0  0  0  0
 28 30  1  0  0  0  0
 31 30  1  0  0  0  0
 32 28  1  0  0  0  0
 33 32  1  0  0  0  0
M  END
>  <minimizedAffinity>
-4.68061781

$$$$
