
 OpenBabel03272506143D

 22 22  0  0  0  0  0  0  0  0999 V2000
   35.2100   30.0540   49.3290 C   0  0  0  0  0  0  0  0  0  0  0  0
   35.2220   30.2900   47.9420 C   0  0  0  0  0  0  0  0  0  0  0  0
   34.3250   29.5620   47.1580 C   0  0  0  0  0  0  0  0  0  0  0  0
   33.4930   28.6710   47.7580 N   0  0  0  0  0  0  0  0  0  0  0  0
   33.5090   28.4700   49.0950 C   0  0  0  0  0  0  0  0  0  0  0  0
   34.3630   29.1560   49.8890 N   0  0  0  0  0  0  0  0  0  0  0  0
   35.9150   31.0090   47.5840 H   0  0  0  0  0  0  0  0  0  0  0  0
   32.8100   27.7400   49.4840 H   0  0  0  0  0  0  0  0  0  0  0  0
   36.0260   30.6830   50.2470 O   0  0  0  0  0  0  0  0  0  0  0  0
   37.7340   28.6030   50.2520 O   0  0  0  0  0  0  0  0  0  0  0  0
   37.5330   30.0150   50.7400 P   0  0  0  0  0  0  0  0  0  0  0  0
   38.7370   31.0430   50.0980 O   0  0  0  0  0  0  0  0  0  0  0  0
   38.6950   31.9070   50.5730 H   0  0  0  0  0  0  0  0  0  0  0  0
   37.6260   29.9640   52.4210 O   0  0  0  0  0  0  0  0  0  0  0  0
   38.5900   29.8910   52.6870 H   0  0  0  0  0  0  0  0  0  0  0  0
   34.3200   29.7920   45.7110 C   0  0  0  0  0  0  0  0  0  0  0  0
   33.8220   28.6970   44.9380 N   0  0  0  0  0  0  0  0  0  0  0  0
   33.5530   27.8660   45.5120 H   0  0  0  0  0  0  0  0  0  0  0  0
   32.6720   29.1100   44.1310 C   0  0  0  0  0  0  0  0  0  0  0  0
   32.4610   28.3770   43.3390 H   0  0  0  0  0  0  0  0  0  0  0  0
   34.8590   28.3000   44.0030 C   0  0  0  0  0  0  0  0  0  0  0  0
   35.5340   27.5390   44.4750 H   0  0  0  0  0  0  0  0  0  0  0  0
  1  6  1  0  0  0  0
  1  9  1  0  0  0  0
  2  1  2  0  0  0  0
  3  4  2  0  0  0  0
  3  2  1  0  0  0  0
  4  5  1  0  0  0  0
  5  8  1  0  0  0  0
  5  6  2  0  0  0  0
  7  2  1  0  0  0  0
  9 11  1  0  0  0  0
 10 11  2  0  0  0  0
 11 14  1  0  0  0  0
 12 13  1  0  0  0  0
 12 11  1  0  0  0  0
 14 15  1  0  0  0  0
 16  3  1  0  0  0  0
 17 18  1  0  0  0  0
 17 16  1  0  0  0  0
 19 17  1  0  0  0  0
 20 19  1  0  0  0  0
 21 22  1  0  0  0  0
 21 17  1  0  0  0  0
M  END
>  <minimizedAffinity>
-3.59102035

>  <minimizedRMSD>
6.38018751

$$$$
