
 OpenBabel03272508053D

 33 35  0  0  0  0  0  0  0  0999 V2000
   38.9290   30.9050   45.7760 C   0  0  0  0  0  0  0  0  0  0  0  0
   40.1300   31.5150   46.0330 C   0  0  0  0  0  0  0  0  0  0  0  0
   40.9420   31.4520   44.9160 C   0  0  0  0  0  0  0  0  0  0  0  0
   40.1770   30.7870   44.0010 N   0  0  0  0  0  0  0  0  0  0  0  0
   39.0050   30.4670   44.4940 N   0  0  0  0  0  0  0  0  0  0  0  0
   40.4270   31.9880   46.9760 H   0  0  0  0  0  0  0  0  0  0  0  0
   41.9440   31.8160   44.7400 H   0  0  0  0  0  0  0  0  0  0  0  0
   37.7900   30.7500   46.6770 C   0  0  0  0  0  0  0  0  0  0  0  0
   38.0160   30.9750   48.0610 C   0  0  0  0  0  0  0  0  0  0  0  0
   36.9350   30.8290   48.9260 C   0  0  0  0  0  0  0  0  0  0  0  0
   35.7270   30.4780   48.3910 N   0  0  0  0  0  0  0  0  0  0  0  0
   35.5440   30.2710   47.0700 C   0  0  0  0  0  0  0  0  0  0  0  0
   36.5810   30.4090   46.2230 N   0  0  0  0  0  0  0  0  0  0  0  0
   39.0120   31.2530   48.4190 H   0  0  0  0  0  0  0  0  0  0  0  0
   34.5910   29.9970   46.6680 H   0  0  0  0  0  0  0  0  0  0  0  0
   37.1510   31.0600   50.3850 C   0  0  0  0  0  0  0  0  0  0  0  0
   36.6150   32.2980   50.6410 F   0  0  0  0  0  0  0  0  0  0  0  0
   36.4840   30.1290   51.1660 F   0  0  0  0  0  0  0  0  0  0  0  0
   38.4980   31.0750   50.7130 F   0  0  0  0  0  0  0  0  0  0  0  0
   40.5290   30.4350   42.6290 C   0  0  0  0  0  0  0  0  0  0  0  0
   40.0870   31.2070   41.5450 C   0  0  0  0  0  0  0  0  0  0  0  0
   40.4360   30.8650   40.2820 C   0  0  0  0  0  0  0  0  0  0  0  0
   41.2500   29.7180   40.0850 C   0  0  0  0  0  0  0  0  0  0  0  0
   41.5060   29.1270   41.8330 S   0  0  0  0  0  0  0  0  0  0  0  0
   39.4600   32.0950   41.6450 H   0  0  0  0  0  0  0  0  0  0  0  0
   40.2160   31.3050   39.3270 H   0  0  0  0  0  0  0  0  0  0  0  0
   41.8650   28.9790   38.9760 C   0  0  0  0  0  2  0  0  0  0  0  0
   42.7290   29.7710   38.1520 N   0  0  0  0  0  4  0  0  0  0  0  0
   43.4580   29.1540   37.7480 H   0  0  0  0  0  0  0  0  0  0  0  0
   41.9270   30.4160   37.1310 C   0  0  0  0  0  2  0  0  0  0  0  0
   42.4780   30.4520   36.1820 H   0  0  0  0  0  0  0  0  0  0  0  0
   43.4030   30.7880   38.9450 C   0  0  0  0  0  2  0  0  0  0  0  0
   44.3340   31.0550   38.4380 H   0  0  0  0  0  0  0  0  0  0  0  0
  1  2  1  0  0  0  0
  1  8  1  0  0  0  0
  2  6  1  0  0  0  0
  3  2  2  0  0  0  0
  4  5  1  0  0  0  0
  4  3  1  0  0  0  0
  5  1  2  0  0  0  0
  7  3  1  0  0  0  0
  8  9  1  0  0  0  0
  9 14  1  0  0  0  0
  9 10  2  0  0  0  0
 10 16  1  0  0  0  0
 11 10  1  0  0  0  0
 12 11  2  0  0  0  0
 13  8  2  0  0  0  0
 13 12  1  0  0  0  0
 15 12  1  0  0  0  0
 16 17  1  0  0  0  0
 16 19  1  0  0  0  0
 16 18  1  0  0  0  0
 20  4  1  0  0  0  0
 21 25  1  0  0  0  0
 21 20  2  0  0  0  0
 22 21  1  0  0  0  0
 23 22  2  0  0  0  0
 23 24  1  0  0  0  0
 24 20  1  0  0  0  0
 26 22  1  0  0  0  0
 27 23  1  0  0  0  0
 28 32  1  0  0  0  0
 28 27  1  0  0  0  0
 29 28  1  0  0  0  0
 30 28  1  0  0  0  0
 31 30  1  0  0  0  0
 33 32  1  0  0  0  0
M  END
>  <minimizedAffinity>
-5.88970089

>  <minimizedRMSD>
0.227783948

$$$$
