
 OpenBabel03272506463D

 40 42  0  0  1  0  0  0  0  0999 V2000
   32.2050   28.6590   47.3830 C   0  0  2  0  0  0  0  0  0  0  0  0
   33.4540   28.3960   48.1700 C   0  0  1  0  0  0  0  0  0  0  0  0
   33.7650   27.0660   48.0250 O   0  0  0  0  0  0  0  0  0  0  0  0
   33.0180   26.5340   46.9780 C   0  0  0  0  0  0  0  0  0  0  0  0
   32.4650   27.6870   46.1800 C   0  0  1  0  0  0  0  0  0  0  0  0
   31.2830   28.3320   47.8420 H   0  0  0  0  0  0  0  0  0  0  0  0
   33.3270   28.7000   49.2300 H   0  0  0  0  0  0  0  0  0  0  0  0
   33.7930   26.0550   46.2920 H   0  0  0  0  0  0  0  0  0  0  0  0
   32.3170   25.8010   47.3330 H   0  0  0  0  0  0  0  0  0  0  0  0
   33.1920   28.2210   45.5700 H   0  0  0  0  0  0  0  0  0  0  0  0
   32.1950   29.9820   46.9080 O   0  0  0  0  0  0  0  0  0  0  0  0
   31.2460   30.2690   46.8230 H   0  0  0  0  0  0  0  0  0  0  0  0
   34.8100   29.3810   47.4320 S   0  0  0  0  0  0  0  0  0  0  0  0
   37.1330   29.3200   50.6270 C   0  0  0  0  0  0  0  0  0  0  0  0
   37.6410   30.5960   50.7390 C   0  0  0  0  0  0  0  0  0  0  0  0
   37.2530   31.5350   49.7810 C   0  0  0  0  0  0  0  0  0  0  0  0
   36.4030   31.1470   48.8030 N   0  0  0  0  0  0  0  0  0  0  0  0
   35.9250   29.8850   48.7240 C   0  0  0  0  0  0  0  0  0  0  0  0
   36.2870   28.9530   49.6420 N   0  0  0  0  0  0  0  0  0  0  0  0
   37.4780   28.6150   51.4080 H   0  0  0  0  0  0  0  0  0  0  0  0
   38.3210   30.9700   51.4880 H   0  0  0  0  0  0  0  0  0  0  0  0
   37.5430   32.5800   49.7030 H   0  0  0  0  0  0  0  0  0  0  0  0
   31.2890   27.3070   45.5960 O   0  0  0  0  0  0  0  0  0  0  0  0
   29.7350   29.5740   44.5490 Cl  0  0  0  0  0  0  0  0  0  0  0  0
   29.2690   28.3790   45.7300 C   0  0  0  0  0  0  0  0  0  0  0  0
   30.0800   27.3510   46.1500 C   0  0  0  0  0  0  0  0  0  0  0  0
   29.5750   26.4590   47.0930 C   0  0  0  0  0  0  0  0  0  0  0  0
   28.2970   26.6020   47.5920 C   0  0  0  0  0  0  0  0  0  0  0  0
   27.4720   27.6260   47.1770 C   0  0  0  0  0  0  0  0  0  0  0  0
   27.9810   28.5210   46.2280 C   0  0  0  0  0  0  0  0  0  0  0  0
   30.1530   25.6300   47.4640 H   0  0  0  0  0  0  0  0  0  0  0  0
   27.9340   25.8940   48.3220 H   0  0  0  0  0  0  0  0  0  0  0  0
   26.4980   27.6960   47.5980 H   0  0  0  0  0  0  0  0  0  0  0  0
   27.0270   29.5870   45.8300 C   0  0  0  0  0  2  0  0  0  0  0  0
   27.2770   30.8860   46.3400 N   0  0  0  0  0  4  0  0  0  0  0  0
   28.2750   31.1370   46.5170 H   0  0  0  0  0  0  0  0  0  0  0  0
   26.7180   31.9210   45.5060 C   0  0  0  0  0  2  0  0  0  0  0  0
   27.0130   32.9420   45.8480 H   0  0  0  0  0  0  0  0  0  0  0  0
   26.5100   30.9580   47.6030 C   0  0  0  0  0  2  0  0  0  0  0  0
   26.4950   31.9930   47.9150 H   0  0  0  0  0  0  0  0  0  0  0  0
  1  6  1  1  0  0  0
  1  2  1  0  0  0  0
  2  7  1  1  0  0  0
  3  2  1  0  0  0  0
  4  9  1  0  0  0  0
  4  3  1  0  0  0  0
  5 10  1  6  0  0  0
  5  4  1  0  0  0  0
  5  1  1  0  0  0  0
  8  4  1  0  0  0  0
 11  1  1  0  0  0  0
 12 11  1  0  0  0  0
 13  2  1  0  0  0  0
 13 18  1  0  0  0  0
 14 15  1  0  0  0  0
 14 20  1  0  0  0  0
 15 21  1  0  0  0  0
 16 15  2  0  0  0  0
 17 16  1  0  0  0  0
 18 17  2  0  0  0  0
 18 19  1  0  0  0  0
 19 14  2  0  0  0  0
 22 16  1  0  0  0  0
 23 26  1  0  0  0  0
 23  5  1  0  0  0  0
 24 25  1  0  0  0  0
 25 26  2  0  0  0  0
 25 30  1  0  0  0  0
 26 27  1  0  0  0  0
 27 31  1  0  0  0  0
 27 28  2  0  0  0  0
 28 32  1  0  0  0  0
 29 28  1  0  0  0  0
 29 33  1  0  0  0  0
 30 29  2  0  0  0  0
 34 30  1  0  0  0  0
 34 35  1  0  0  0  0
 35 36  1  0  0  0  0
 35 39  1  0  0  0  0
 37 38  1  0  0  0  0
 37 35  1  0  0  0  0
 39 40  1  0  0  0  0
M  END
>  <minimizedAffinity>
-4.91205835

>  <minimizedRMSD>
0.500784934

$$$$
