
 OpenBabel03272508053D

 33 35  0  0  0  0  0  0  0  0999 V2000
   38.9230   30.9160   45.7890 C   0  0  0  0  0  0  0  0  0  0  0  0
   40.1030   31.5700   46.0370 C   0  0  0  0  0  0  0  0  0  0  0  0
   40.9260   31.4970   44.9290 C   0  0  0  0  0  0  0  0  0  0  0  0
   40.1900   30.7810   44.0290 N   0  0  0  0  0  0  0  0  0  0  0  0
   39.0240   30.4400   44.5230 N   0  0  0  0  0  0  0  0  0  0  0  0
   40.3770   32.0810   46.9670 H   0  0  0  0  0  0  0  0  0  0  0  0
   41.9180   31.8860   44.7500 H   0  0  0  0  0  0  0  0  0  0  0  0
   37.7810   30.7540   46.6860 C   0  0  0  0  0  0  0  0  0  0  0  0
   38.0020   30.9720   48.0710 C   0  0  0  0  0  0  0  0  0  0  0  0
   36.9190   30.8190   48.9320 C   0  0  0  0  0  0  0  0  0  0  0  0
   35.7140   30.4690   48.3920 N   0  0  0  0  0  0  0  0  0  0  0  0
   35.5350   30.2680   47.0690 C   0  0  0  0  0  0  0  0  0  0  0  0
   36.5750   30.4120   46.2260 N   0  0  0  0  0  0  0  0  0  0  0  0
   38.9970   31.2510   48.4350 H   0  0  0  0  0  0  0  0  0  0  0  0
   34.5840   29.9940   46.6620 H   0  0  0  0  0  0  0  0  0  0  0  0
   37.1290   31.0440   50.3940 C   0  0  0  0  0  0  0  0  0  0  0  0
   36.5980   32.2840   50.6510 F   0  0  0  0  0  0  0  0  0  0  0  0
   36.4530   30.1140   51.1680 F   0  0  0  0  0  0  0  0  0  0  0  0
   38.4740   31.0510   50.7270 F   0  0  0  0  0  0  0  0  0  0  0  0
   40.5650   30.3970   42.6720 C   0  0  0  0  0  0  0  0  0  0  0  0
   40.2080   31.1860   41.5690 C   0  0  0  0  0  0  0  0  0  0  0  0
   40.5760   30.8140   40.3210 C   0  0  0  0  0  0  0  0  0  0  0  0
   41.3240   29.6180   40.1580 C   0  0  0  0  0  0  0  0  0  0  0  0
   41.4860   29.0260   41.9160 S   0  0  0  0  0  0  0  0  0  0  0  0
   39.6340   32.1120   41.6440 H   0  0  0  0  0  0  0  0  0  0  0  0
   40.4150   31.2590   39.3570 H   0  0  0  0  0  0  0  0  0  0  0  0
   41.9280   28.8340   39.0740 C   0  0  0  0  0  2  0  0  0  0  0  0
   41.0280   27.9150   38.4430 N   0  0  0  0  0  4  0  0  0  0  0  0
   41.4260   27.6390   37.5270 H   0  0  0  0  0  0  0  0  0  0  0  0
   40.8380   26.7800   39.3240 C   0  0  0  0  0  2  0  0  0  0  0  0
   40.7630   25.8530   38.7400 H   0  0  0  0  0  0  0  0  0  0  0  0
   39.7420   28.5470   38.1920 C   0  0  0  0  0  2  0  0  0  0  0  0
   39.2630   28.0300   37.3570 H   0  0  0  0  0  0  0  0  0  0  0  0
  1  2  1  0  0  0  0
  1  8  1  0  0  0  0
  2  6  1  0  0  0  0
  3  2  2  0  0  0  0
  4  5  1  0  0  0  0
  4  3  1  0  0  0  0
  5  1  2  0  0  0  0
  7  3  1  0  0  0  0
  8  9  1  0  0  0  0
  9 14  1  0  0  0  0
  9 10  2  0  0  0  0
 10 16  1  0  0  0  0
 11 10  1  0  0  0  0
 12 11  2  0  0  0  0
 13  8  2  0  0  0  0
 13 12  1  0  0  0  0
 15 12  1  0  0  0  0
 16 17  1  0  0  0  0
 16 19  1  0  0  0  0
 16 18  1  0  0  0  0
 20  4  1  0  0  0  0
 21 25  1  0  0  0  0
 21 20  2  0  0  0  0
 22 21  1  0  0  0  0
 23 22  2  0  0  0  0
 23 24  1  0  0  0  0
 24 20  1  0  0  0  0
 26 22  1  0  0  0  0
 27 23  1  0  0  0  0
 28 27  1  0  0  0  0
 28 30  1  0  0  0  0
 29 28  1  0  0  0  0
 31 30  1  0  0  0  0
 32 28  1  0  0  0  0
 33 32  1  0  0  0  0
M  END
>  <minimizedAffinity>
-5.86109829

>  <minimizedRMSD>
0.366579264

$$$$
