
 OpenBabel03272507193D

 28 29  0  0  1  0  0  0  0  0999 V2000
   37.4520   31.2080   49.3660 C   0  0  0  0  0  0  0  0  0  0  0  0
   38.3560   32.2510   49.5050 C   0  0  0  0  0  0  0  0  0  0  0  0
   38.7910   32.8040   48.2820 C   0  0  0  0  0  0  0  0  0  0  0  0
   38.3300   32.3200   47.0820 N   0  0  0  0  0  0  0  0  0  0  0  0
   37.4460   31.2980   47.0070 C   0  0  0  0  0  0  0  0  0  0  0  0
   37.0010   30.7340   48.1800 N   0  0  0  0  0  0  0  0  0  0  0  0
   38.6940   32.6040   50.4480 H   0  0  0  0  0  0  0  0  0  0  0  0
   39.4960   33.6190   48.3250 H   0  0  0  0  0  0  0  0  0  0  0  0
   36.9440   30.6100   50.6420 C   0  0  1  0  0  0  0  0  0  0  0  0
   36.1520   29.3830   50.6600 C   0  0  2  0  0  0  0  0  0  0  0  0
   37.6150   29.2610   50.9630 C   0  0  0  0  0  0  0  0  0  0  0  0
   36.9040   31.3190   51.5050 H   0  0  0  0  0  0  0  0  0  0  0  0
   35.3720   29.3850   51.4710 H   0  0  0  0  0  0  0  0  0  0  0  0
   38.2930   28.8090   50.2400 H   0  0  0  0  0  0  0  0  0  0  0  0
   37.8090   29.0910   52.0560 H   0  0  0  0  0  0  0  0  0  0  0  0
   35.6780   28.9170   49.4410 O   0  0  0  0  0  0  0  0  0  0  0  0
   34.4580   28.4260   49.1160 C   0  0  0  0  0  0  0  0  0  0  0  0
   34.3160   27.4430   48.3570 O   0  0  0  0  0  0  0  0  0  0  0  0
   33.4900   29.1990   49.7590 N   0  0  0  0  0  0  0  0  0  0  0  0
   33.2170   29.1870   50.7520 H   0  0  0  0  0  0  0  0  0  0  0  0
   32.8360   29.9460   49.4000 H   0  0  0  0  0  0  0  0  0  0  0  0
   36.9620   30.7910   45.6980 C   0  0  0  0  0  2  0  0  0  0  0  0
   37.9720   30.7060   44.7000 N   0  0  0  0  0  4  0  0  0  0  0  0
   37.6600   30.0100   43.9850 H   0  0  0  0  0  0  0  0  0  0  0  0
   38.1640   31.9380   43.9590 C   0  0  0  0  0  2  0  0  0  0  0  0
   37.4730   31.9700   43.0700 H   0  0  0  0  0  0  0  0  0  0  0  0
   39.2140   30.2050   45.2450 C   0  0  0  0  0  2  0  0  0  0  0  0
   39.9940   30.3720   44.4630 H   0  0  0  0  0  0  0  0  0  0  0  0
  1  2  1  0  0  0  0
  1  9  1  0  0  0  0
  2  7  1  0  0  0  0
  3  8  1  0  0  0  0
  3  2  2  0  0  0  0
  4  3  1  0  0  0  0
  5  4  2  0  0  0  0
  5  6  1  0  0  0  0
  6  1  2  0  0  0  0
  9 10  1  0  0  0  0
  9 11  1  0  0  0  0
  9 12  1  1  0  0  0
 10 11  1  0  0  0  0
 10 13  1  1  0  0  0
 11 15  1  0  0  0  0
 14 11  1  0  0  0  0
 16 10  1  0  0  0  0
 17 16  1  0  0  0  0
 17 19  1  0  0  0  0
 18 17  2  0  0  0  0
 19 20  1  0  0  0  0
 21 19  1  0  0  0  0
 22  5  1  0  0  0  0
 23 27  1  0  0  0  0
 23 22  1  0  0  0  0
 24 23  1  0  0  0  0
 25 23  1  0  0  0  0
 26 25  1  0  0  0  0
 28 27  1  0  0  0  0
M  END
>  <minimizedAffinity>
-4.92280674

>  <minimizedRMSD>
0.392699987

$$$$
