
 OpenBabel03272502063D

 37 39  0  0  0  0  0  0  0  0999 V2000
   34.6600   30.4980   47.4730 F   0  0  0  0  0  0  0  0  0  0  0  0
   35.0080   30.0020   46.2430 C   0  0  0  0  0  0  0  0  0  0  0  0
   34.1100   29.3070   45.4560 C   0  0  0  0  0  0  0  0  0  0  0  0
   34.5240   28.8520   44.2240 C   0  0  0  0  0  0  0  0  0  0  0  0
   35.8270   29.0890   43.7780 C   0  0  0  0  0  0  0  0  0  0  0  0
   36.6750   29.7900   44.6140 C   0  0  0  0  0  0  0  0  0  0  0  0
   36.3130   30.2510   45.8240 C   0  0  0  0  0  0  0  0  0  0  0  0
   33.8010   28.3110   43.6290 H   0  0  0  0  0  0  0  0  0  0  0  0
   36.0830   28.7110   42.8150 H   0  0  0  0  0  0  0  0  0  0  0  0
   37.6550   29.9210   44.1790 H   0  0  0  0  0  0  0  0  0  0  0  0
   38.0500   32.4830   44.4780 Br  0  0  0  0  0  0  0  0  0  0  0  0
   38.0900   31.9990   46.3200 C   0  0  0  0  0  0  0  0  0  0  0  0
   37.2530   30.9710   46.6630 C   0  0  0  0  0  0  0  0  0  0  0  0
   37.2580   30.5370   48.0000 C   0  0  0  0  0  0  0  0  0  0  0  0
   38.0660   31.1230   48.9180 C   0  0  0  0  0  0  0  0  0  0  0  0
   38.8920   32.1620   48.5070 C   0  0  0  0  0  0  0  0  0  0  0  0
   38.9100   32.6160   47.1880 C   0  0  0  0  0  0  0  0  0  0  0  0
   36.6340   29.7360   48.3570 H   0  0  0  0  0  0  0  0  0  0  0  0
   38.0870   30.8050   49.9520 H   0  0  0  0  0  0  0  0  0  0  0  0
   39.5490   32.6530   49.2140 H   0  0  0  0  0  0  0  0  0  0  0  0
   39.6860   33.6270   46.7120 O   0  0  0  0  0  0  0  0  0  0  0  0
   39.3290   34.5410   46.4350 H   0  0  0  0  0  0  0  0  0  0  0  0
   32.6370   28.1070   46.9340 C   0  0  0  0  0  0  0  0  0  0  0  0
   32.8050   29.1330   46.0300 C   0  0  0  0  0  0  0  0  0  0  0  0
   31.6970   29.9260   45.7450 C   0  0  0  0  0  0  0  0  0  0  0  0
   30.5240   29.6680   46.3520 N   0  0  0  0  0  0  0  0  0  0  0  0
   30.3790   28.6710   47.2240 C   0  0  0  0  0  0  0  0  0  0  0  0
   31.4360   27.8970   47.5100 N   0  0  0  0  0  0  0  0  0  0  0  0
   33.4260   27.4050   47.2490 H   0  0  0  0  0  0  0  0  0  0  0  0
   31.8830   30.7100   45.0340 H   0  0  0  0  0  0  0  0  0  0  0  0
   29.0550   28.4720   47.8320 C   0  0  0  0  0  0  0  0  0  0  0  0
   28.9130   28.8710   49.1820 N   0  0  0  0  0  0  0  0  0  0  0  0
   29.7580   29.4390   49.4240 H   0  0  0  0  0  0  0  0  0  0  0  0
   27.7720   29.7480   49.3820 C   0  0  0  0  0  0  0  0  0  0  0  0
   26.8100   29.2090   49.2680 H   0  0  0  0  0  0  0  0  0  0  0  0
   28.8090   27.8300   50.1560 C   0  0  0  0  0  0  0  0  0  0  0  0
   27.7770   27.4570   50.3390 H   0  0  0  0  0  0  0  0  0  0  0  0
  2  1  1  0  0  0  0
  3 24  1  0  0  0  0
  3  2  2  0  0  0  0
  4  3  1  0  0  0  0
  5  4  2  0  0  0  0
  5  6  1  0  0  0  0
  6  7  2  0  0  0  0
  7  2  1  0  0  0  0
  7 13  1  0  0  0  0
  8  4  1  0  0  0  0
  9  5  1  0  0  0  0
 10  6  1  0  0  0  0
 11 12  1  0  0  0  0
 12 13  2  0  0  0  0
 12 17  1  0  0  0  0
 13 14  1  0  0  0  0
 14 18  1  0  0  0  0
 14 15  2  0  0  0  0
 15 19  1  0  0  0  0
 16 15  1  0  0  0  0
 16 20  1  0  0  0  0
 17 16  2  0  0  0  0
 21 17  1  0  0  0  0
 22 21  1  0  0  0  0
 23 29  1  0  0  0  0
 23 28  1  0  0  0  0
 24 23  2  0  0  0  0
 25 24  1  0  0  0  0
 25 26  2  0  0  0  0
 26 27  1  0  0  0  0
 27 28  2  0  0  0  0
 27 31  1  0  0  0  0
 30 25  1  0  0  0  0
 31 32  1  0  0  0  0
 32 34  1  0  0  0  0
 32 33  1  0  0  0  0
 32 36  1  0  0  0  0
 35 34  1  0  0  0  0
 36 37  1  0  0  0  0
M  END
>  <minimizedAffinity>
-5.99513865

>  <minimizedRMSD>
0.793955326

$$$$
