
 OpenBabel03272505113D

 37 39  0  0  0  0  0  0  0  0999 V2000
   36.3800   30.8980   45.7030 Cl  0  0  0  0  0  0  0  0  0  0  0  0
   36.6720   30.7580   47.4230 C   0  0  0  0  0  0  0  0  0  0  0  0
   37.9430   31.0810   47.8760 C   0  0  0  0  0  0  0  0  0  0  0  0
   38.1900   30.9770   49.2300 C   0  0  0  0  0  0  0  0  0  0  0  0
   37.1940   30.5660   50.0790 C   0  0  0  0  0  0  0  0  0  0  0  0
   35.9370   30.2570   49.5510 C   0  0  0  0  0  0  0  0  0  0  0  0
   35.6190   30.3380   48.2130 C   0  0  0  0  0  0  0  0  0  0  0  0
   39.1810   31.2340   49.5510 H   0  0  0  0  0  0  0  0  0  0  0  0
   37.3800   30.4810   51.1380 H   0  0  0  0  0  0  0  0  0  0  0  0
   35.1740   29.9350   50.2520 H   0  0  0  0  0  0  0  0  0  0  0  0
   40.1960   33.2930   46.0560 C   0  0  0  0  0  0  0  0  0  0  0  0
   40.8980   32.4480   45.1850 C   0  0  0  0  0  0  0  0  0  0  0  0
   40.5790   31.0770   45.2330 C   0  0  0  0  0  0  0  0  0  0  0  0
   39.6230   30.6650   46.1090 N   0  0  0  0  0  0  0  0  0  0  0  0
   38.9830   31.5210   46.9200 C   0  0  0  0  0  0  0  0  0  0  0  0
   39.2740   32.8160   46.8850 N   0  0  0  0  0  0  0  0  0  0  0  0
   40.4480   34.3270   46.0050 H   0  0  0  0  0  0  0  0  0  0  0  0
   41.6640   32.7600   44.4770 H   0  0  0  0  0  0  0  0  0  0  0  0
   41.0660   30.3420   44.6000 H   0  0  0  0  0  0  0  0  0  0  0  0
   34.0380   29.9520   47.5440 S   0  0  0  0  0  0  0  0  0  0  0  0
   33.6500   29.1970   44.5050 Cl  0  0  0  0  0  0  0  0  0  0  0  0
   33.7350   27.9620   45.7530 C   0  0  0  0  0  0  0  0  0  0  0  0
   33.9020   28.2100   47.1160 C   0  0  0  0  0  0  0  0  0  0  0  0
   33.9540   27.1610   48.0030 C   0  0  0  0  0  0  0  0  0  0  0  0
   33.8400   25.8680   47.5530 C   0  0  0  0  0  0  0  0  0  0  0  0
   33.6730   25.5680   46.2160 C   0  0  0  0  0  0  0  0  0  0  0  0
   33.6270   26.6420   45.3540 C   0  0  0  0  0  0  0  0  0  0  0  0
   34.0850   27.4300   49.0560 H   0  0  0  0  0  0  0  0  0  0  0  0
   33.8940   25.1210   48.3400 H   0  0  0  0  0  0  0  0  0  0  0  0
   33.5910   24.5370   45.9170 H   0  0  0  0  0  0  0  0  0  0  0  0
   33.4500   26.3260   43.8970 C   0  0  0  0  0  2  0  0  0  0  0  0
   32.2110   25.6260   43.6330 N   0  0  0  0  0  4  0  0  0  0  0  0
   31.8730   25.0850   44.4580 H   0  0  0  0  0  0  0  0  0  0  0  0
   32.4170   24.7930   42.4650 C   0  0  0  0  0  2  0  0  0  0  0  0
   32.7370   23.7880   42.8100 H   0  0  0  0  0  0  0  0  0  0  0  0
   31.2170   26.6410   43.2630 C   0  0  0  0  0  2  0  0  0  0  0  0
   30.3440   26.2060   42.7410 H   0  0  0  0  0  0  0  0  0  0  0  0
  1  2  1  0  0  0  0
  2  3  2  0  0  0  0
  2  7  1  0  0  0  0
  3  4  1  0  0  0  0
  4  8  1  0  0  0  0
  4  5  2  0  0  0  0
  5  9  1  0  0  0  0
  6  5  1  0  0  0  0
  6 10  1  0  0  0  0
  7  6  2  0  0  0  0
 11 16  1  0  0  0  0
 12 13  1  0  0  0  0
 12 11  2  0  0  0  0
 13 14  2  0  0  0  0
 14 15  1  0  0  0  0
 15  3  1  0  0  0  0
 16 15  2  0  0  0  0
 17 11  1  0  0  0  0
 18 12  1  0  0  0  0
 19 13  1  0  0  0  0
 20  7  1  0  0  0  0
 21 22  1  0  0  0  0
 22 23  1  0  0  0  0
 23 20  1  0  0  0  0
 23 24  2  0  0  0  0
 24 28  1  0  0  0  0
 25 24  1  0  0  0  0
 25 29  1  0  0  0  0
 26 25  2  0  0  0  0
 27 22  2  0  0  0  0
 27 26  1  0  0  0  0
 30 26  1  0  0  0  0
 31 27  1  0  0  0  0
 32 31  1  0  0  0  0
 32 33  1  0  0  0  0
 34 35  1  0  0  0  0
 34 32  1  0  0  0  0
 36 32  1  0  0  0  0
 37 36  1  0  0  0  0
M  END
>  <minimizedAffinity>
-5.33187771

>  <minimizedRMSD>
0.509923041

$$$$
