
 OpenBabel03272507003D

 33 35  0  0  0  0  0  0  0  0999 V2000
   37.7720   25.3400   33.9020 C   0  0  0  0  0  0  0  0  0  0  0  0
   37.9810   24.8300   32.6410 C   0  0  0  0  0  0  0  0  0  0  0  0
   37.6650   25.4550   31.4600 C   0  0  0  0  0  0  0  0  0  0  0  0
   37.0970   26.6840   31.5700 N   0  0  0  0  0  0  0  0  0  0  0  0
   36.8790   27.2120   32.8010 C   0  0  0  0  0  0  0  0  0  0  0  0
   37.2080   26.5580   33.9410 N   0  0  0  0  0  0  0  0  0  0  0  0
   38.4330   23.8510   32.5320 H   0  0  0  0  0  0  0  0  0  0  0  0
   37.8480   25.0140   30.4890 H   0  0  0  0  0  0  0  0  0  0  0  0
   38.1680   24.4840   37.4060 C   0  0  0  0  0  0  0  0  0  0  0  0
   38.8200   23.2500   37.4180 C   0  0  0  0  0  0  0  0  0  0  0  0
   39.1190   22.7210   36.1640 C   0  0  0  0  0  0  0  0  0  0  0  0
   38.7760   23.4040   35.0480 N   0  0  0  0  0  0  0  0  0  0  0  0
   38.1490   24.5870   35.1080 C   0  0  0  0  0  0  0  0  0  0  0  0
   37.8130   25.1900   36.2970 N   0  0  0  0  0  0  0  0  0  0  0  0
   37.9030   24.9590   38.3470 H   0  0  0  0  0  0  0  0  0  0  0  0
   39.6250   21.7650   36.1350 H   0  0  0  0  0  0  0  0  0  0  0  0
   39.1470   22.5990   38.6220 N   0  0  0  0  0  0  0  0  0  0  0  0
   39.9640   21.9340   38.5830 H   0  0  0  0  0  0  0  0  0  0  0  0
   38.5570   22.8220   39.4590 H   0  0  0  0  0  0  0  0  0  0  0  0
   36.2820   28.5120   33.0580 C   0  0  0  0  0  0  0  0  0  0  0  0
   36.0670   29.3450   31.9900 C   0  0  0  0  0  0  0  0  0  0  0  0
   35.5030   30.5140   32.4240 N   0  0  0  0  0  0  0  0  0  0  0  0
   35.3740   30.3930   33.7680 C   0  0  0  0  0  0  0  0  0  0  0  0
   35.8450   29.1820   34.1540 N   0  0  0  0  0  0  0  0  0  0  0  0
   36.2630   29.2290   30.9170 H   0  0  0  0  0  0  0  0  0  0  0  0
   35.2230   31.3420   31.8560 H   0  0  0  0  0  0  0  0  0  0  0  0
   34.8030   31.4480   34.6220 C   0  0  0  0  0  2  0  0  0  0  0  0
   35.6890   31.7110   35.7420 N   0  0  0  0  0  4  0  0  0  0  0  0
   36.2830   30.8720   35.9660 H   0  0  0  0  0  0  0  0  0  0  0  0
   36.5190   32.8530   35.4380 C   0  0  0  0  0  2  0  0  0  0  0  0
   37.4110   32.4840   34.8600 H   0  0  0  0  0  0  0  0  0  0  0  0
   34.8400   32.0460   36.8810 C   0  0  0  0  0  2  0  0  0  0  0  0
   34.5730   31.1340   37.4740 H   0  0  0  0  0  0  0  0  0  0  0  0
  1  6  1  0  0  0  0
  1 13  1  0  0  0  0
  2  1  2  0  0  0  0
  3  4  2  0  0  0  0
  3  2  1  0  0  0  0
  4  5  1  0  0  0  0
  5 20  1  0  0  0  0
  5  6  2  0  0  0  0
  7  2  1  0  0  0  0
  8  3  1  0  0  0  0
  9 10  1  0  0  0  0
  9 15  1  0  0  0  0
 10 17  1  0  0  0  0
 11 10  2  0  0  0  0
 12 13  2  0  0  0  0
 12 11  1  0  0  0  0
 13 14  1  0  0  0  0
 14  9  2  0  0  0  0
 16 11  1  0  0  0  0
 17 19  1  0  0  0  0
 18 17  1  0  0  0  0
 20 24  1  0  0  0  0
 21 22  1  0  0  0  0
 21 20  2  0  0  0  0
 22 23  1  0  0  0  0
 23 24  2  0  0  0  0
 23 27  1  0  0  0  0
 25 21  1  0  0  0  0
 26 22  1  0  0  0  0
 27 28  1  0  0  0  0
 28 29  1  0  0  0  0
 28 32  1  0  0  0  0
 30 28  1  0  0  0  0
 31 30  1  0  0  0  0
 32 33  1  0  0  0  0
M  END
>  <minimizedAffinity>
-5.25106573

$$$$

 OpenBabel03272507003D

 33 35  0  0  0  0  0  0  0  0999 V2000
   35.6120   29.6060   32.8850 C   0  0  0  0  0  0  0  0  0  0  0  0
   36.0330   30.3440   31.8010 C   0  0  0  0  0  0  0  0  0  0  0  0
   36.4840   29.8330   30.6090 C   0  0  0  0  0  0  0  0  0  0  0  0
   36.5080   28.4780   30.5120 N   0  0  0  0  0  0  0  0  0  0  0  0
   36.0980   27.7250   31.5640 C   0  0  0  0  0  0  0  0  0  0  0  0
   35.6600   28.2740   32.7230 N   0  0  0  0  0  0  0  0  0  0  0  0
   36.0220   31.4260   31.8580 H   0  0  0  0  0  0  0  0  0  0  0  0
   36.8060   30.4530   29.7830 H   0  0  0  0  0  0  0  0  0  0  0  0
   33.3980   30.6570   35.5600 C   0  0  0  0  0  0  0  0  0  0  0  0
   34.1850   31.4310   36.4140 C   0  0  0  0  0  0  0  0  0  0  0  0
   35.5160   31.5770   36.0300 C   0  0  0  0  0  0  0  0  0  0  0  0
   35.9570   30.9850   34.8960 N   0  0  0  0  0  0  0  0  0  0  0  0
   35.1460   30.2530   34.1210 C   0  0  0  0  0  0  0  0  0  0  0  0
   33.8180   30.0520   34.4150 N   0  0  0  0  0  0  0  0  0  0  0  0
   32.3480   30.4990   35.7950 H   0  0  0  0  0  0  0  0  0  0  0  0
   36.1560   32.1720   36.6690 H   0  0  0  0  0  0  0  0  0  0  0  0
   33.6540   32.0180   37.5780 N   0  0  0  0  0  0  0  0  0  0  0  0
   34.1430   32.8850   37.9250 H   0  0  0  0  0  0  0  0  0  0  0  0
   32.8200   31.5510   38.0090 H   0  0  0  0  0  0  0  0  0  0  0  0
   36.0730   26.2730   31.5920 C   0  0  0  0  0  0  0  0  0  0  0  0
   35.0580   25.6340   30.9260 C   0  0  0  0  0  0  0  0  0  0  0  0
   35.1980   24.2800   31.0640 N   0  0  0  0  0  0  0  0  0  0  0  0
   36.3070   24.0910   31.8200 C   0  0  0  0  0  0  0  0  0  0  0  0
   36.8380   25.2960   32.1410 N   0  0  0  0  0  0  0  0  0  0  0  0
   34.2100   26.0120   30.3410 H   0  0  0  0  0  0  0  0  0  0  0  0
   34.5890   23.5280   30.6760 H   0  0  0  0  0  0  0  0  0  0  0  0
   36.8070   22.7600   32.2010 C   0  0  0  0  0  2  0  0  0  0  0  0
   35.8230   21.7470   31.8620 N   0  0  0  0  0  4  0  0  0  0  0  0
   34.9520   22.1770   31.4590 H   0  0  0  0  0  0  0  0  0  0  0  0
   36.4030   20.8090   30.9290 C   0  0  0  0  0  2  0  0  0  0  0  0
   36.2760   21.2320   29.8950 H   0  0  0  0  0  0  0  0  0  0  0  0
   35.5080   21.0350   33.0970 C   0  0  0  0  0  2  0  0  0  0  0  0
   34.6460   21.5090   33.6330 H   0  0  0  0  0  0  0  0  0  0  0  0
  1 13  1  0  0  0  0
  2  7  1  0  0  0  0
  2  1  2  0  0  0  0
  3  2  1  0  0  0  0
  4  3  2  0  0  0  0
  4  5  1  0  0  0  0
  5 20  1  0  0  0  0
  5  6  2  0  0  0  0
  6  1  1  0  0  0  0
  8  3  1  0  0  0  0
  9 15  1  0  0  0  0
  9 10  1  0  0  0  0
 10 17  1  0  0  0  0
 11 10  2  0  0  0  0
 11 16  1  0  0  0  0
 12 11  1  0  0  0  0
 13 14  1  0  0  0  0
 13 12  2  0  0  0  0
 14  9  2  0  0  0  0
 17 18  1  0  0  0  0
 17 19  1  0  0  0  0
 20 24  1  0  0  0  0
 21 22  1  0  0  0  0
 21 20  2  0  0  0  0
 22 23  1  0  0  0  0
 23 24  2  0  0  0  0
 23 27  1  0  0  0  0
 25 21  1  0  0  0  0
 26 22  1  0  0  0  0
 28 27  1  0  0  0  0
 28 32  1  0  0  0  0
 29 28  1  0  0  0  0
 30 28  1  0  0  0  0
 31 30  1  0  0  0  0
 32 33  1  0  0  0  0
M  END
>  <minimizedAffinity>
-5.11264801

$$$$

 OpenBabel03272507003D

 33 35  0  0  0  0  0  0  0  0999 V2000
   37.8720   24.4320   33.4180 C   0  0  0  0  0  0  0  0  0  0  0  0
   38.0770   23.5430   32.3870 C   0  0  0  0  0  0  0  0  0  0  0  0
   37.8450   23.7910   31.0560 C   0  0  0  0  0  0  0  0  0  0  0  0
   37.3710   25.0280   30.7540 N   0  0  0  0  0  0  0  0  0  0  0  0
   37.1590   25.9240   31.7500 C   0  0  0  0  0  0  0  0  0  0  0  0
   37.4030   25.6360   33.0520 N   0  0  0  0  0  0  0  0  0  0  0  0
   38.4540   22.5510   32.6070 H   0  0  0  0  0  0  0  0  0  0  0  0
   38.0200   23.0600   30.2790 H   0  0  0  0  0  0  0  0  0  0  0  0
   39.0120   22.5160   36.2800 C   0  0  0  0  0  0  0  0  0  0  0  0
   38.7130   23.2990   37.3970 C   0  0  0  0  0  0  0  0  0  0  0  0
   38.1000   24.5190   37.1230 C   0  0  0  0  0  0  0  0  0  0  0  0
   37.8380   24.8670   35.8420 N   0  0  0  0  0  0  0  0  0  0  0  0
   38.1530   24.0670   34.8150 C   0  0  0  0  0  0  0  0  0  0  0  0
   38.7580   22.8430   34.9840 N   0  0  0  0  0  0  0  0  0  0  0  0
   39.4900   21.5490   36.4170 H   0  0  0  0  0  0  0  0  0  0  0  0
   37.8540   25.1520   37.9660 H   0  0  0  0  0  0  0  0  0  0  0  0
   39.0150   22.8680   38.7020 N   0  0  0  0  0  0  0  0  0  0  0  0
   38.4180   23.2690   39.4730 H   0  0  0  0  0  0  0  0  0  0  0  0
   39.8060   22.1880   38.8090 H   0  0  0  0  0  0  0  0  0  0  0  0
   36.6590   27.2750   31.5650 C   0  0  0  0  0  0  0  0  0  0  0  0
   36.7750   27.8410   30.3200 C   0  0  0  0  0  0  0  0  0  0  0  0
   36.2530   29.1060   30.3400 N   0  0  0  0  0  0  0  0  0  0  0  0
   35.8150   29.3140   31.6050 C   0  0  0  0  0  0  0  0  0  0  0  0
   36.0590   28.2070   32.3490 N   0  0  0  0  0  0  0  0  0  0  0  0
   37.1930   27.4650   29.3790 H   0  0  0  0  0  0  0  0  0  0  0  0
   36.1950   29.7890   29.5530 H   0  0  0  0  0  0  0  0  0  0  0  0
   35.1810   30.5680   32.0430 C   0  0  0  0  0  2  0  0  0  0  0  0
   34.2080   31.0010   31.0550 N   0  0  0  0  0  4  0  0  0  0  0  0
   34.2280   30.3870   30.2020 H   0  0  0  0  0  0  0  0  0  0  0  0
   32.8910   31.0020   31.6490 C   0  0  0  0  0  2  0  0  0  0  0  0
   32.4740   29.9620   31.5570 H   0  0  0  0  0  0  0  0  0  0  0  0
   34.5540   32.3730   30.6960 C   0  0  0  0  0  2  0  0  0  0  0  0
   35.2590   32.4030   29.8250 H   0  0  0  0  0  0  0  0  0  0  0  0
  1 13  1  0  0  0  0
  2  7  1  0  0  0  0
  2  1  2  0  0  0  0
  3  2  1  0  0  0  0
  4  3  2  0  0  0  0
  4  5  1  0  0  0  0
  5  6  2  0  0  0  0
  6  1  1  0  0  0  0
  8  3  1  0  0  0  0
  9 15  1  0  0  0  0
  9 10  1  0  0  0  0
 10 17  1  0  0  0  0
 11 10  2  0  0  0  0
 11 16  1  0  0  0  0
 12 11  1  0  0  0  0
 13 14  1  0  0  0  0
 13 12  2  0  0  0  0
 14  9  2  0  0  0  0
 17 19  1  0  0  0  0
 17 18  1  0  0  0  0
 20  5  1  0  0  0  0
 20 24  1  0  0  0  0
 21 22  1  0  0  0  0
 21 20  2  0  0  0  0
 22 23  1  0  0  0  0
 23 27  1  0  0  0  0
 23 24  2  0  0  0  0
 25 21  1  0  0  0  0
 26 22  1  0  0  0  0
 28 30  1  0  0  0  0
 28 27  1  0  0  0  0
 29 28  1  0  0  0  0
 31 30  1  0  0  0  0
 32 28  1  0  0  0  0
 33 32  1  0  0  0  0
M  END
>  <minimizedAffinity>
-5.07462978

$$$$

 OpenBabel03272507003D

 33 35  0  0  0  0  0  0  0  0999 V2000
   38.3220   25.7150   34.7840 C   0  0  0  0  0  0  0  0  0  0  0  0
   37.4080   26.6200   35.2750 C   0  0  0  0  0  0  0  0  0  0  0  0
   36.8200   27.6340   34.5600 C   0  0  0  0  0  0  0  0  0  0  0  0
   37.1880   27.7350   33.2550 N   0  0  0  0  0  0  0  0  0  0  0  0
   38.0870   26.8560   32.7450 C   0  0  0  0  0  0  0  0  0  0  0  0
   38.6430   25.8690   33.4900 N   0  0  0  0  0  0  0  0  0  0  0  0
   37.1010   26.5570   36.3120 H   0  0  0  0  0  0  0  0  0  0  0  0
   36.1050   28.3230   34.9880 H   0  0  0  0  0  0  0  0  0  0  0  0
   40.5900   23.1440   35.9740 C   0  0  0  0  0  0  0  0  0  0  0  0
   40.0350   22.6800   37.1680 C   0  0  0  0  0  0  0  0  0  0  0  0
   38.8430   23.2920   37.5490 C   0  0  0  0  0  0  0  0  0  0  0  0
   38.3080   24.2630   36.7740 N   0  0  0  0  0  0  0  0  0  0  0  0
   38.8950   24.6620   35.6370 C   0  0  0  0  0  0  0  0  0  0  0  0
   40.0710   24.1180   35.1770 N   0  0  0  0  0  0  0  0  0  0  0  0
   41.5200   22.7130   35.6130 H   0  0  0  0  0  0  0  0  0  0  0  0
   38.3850   22.9560   38.4710 H   0  0  0  0  0  0  0  0  0  0  0  0
   40.6500   21.6630   37.9210 N   0  0  0  0  0  0  0  0  0  0  0  0
   40.0130   21.0910   38.5360 H   0  0  0  0  0  0  0  0  0  0  0  0
   41.6880   21.5530   37.8160 H   0  0  0  0  0  0  0  0  0  0  0  0
   38.5640   26.8520   31.3730 C   0  0  0  0  0  0  0  0  0  0  0  0
   37.8350   27.5400   30.4350 C   0  0  0  0  0  0  0  0  0  0  0  0
   38.4340   27.4220   29.2110 N   0  0  0  0  0  0  0  0  0  0  0  0
   39.5360   26.6570   29.4020 C   0  0  0  0  0  0  0  0  0  0  0  0
   39.6170   26.3100   30.7100 N   0  0  0  0  0  0  0  0  0  0  0  0
   36.9120   28.1270   30.5090 H   0  0  0  0  0  0  0  0  0  0  0  0
   38.1230   27.8280   28.3020 H   0  0  0  0  0  0  0  0  0  0  0  0
   40.4630   26.2920   28.3180 C   0  0  0  0  0  2  0  0  0  0  0  0
   39.7380   25.6220   27.2520 N   0  0  0  0  0  4  0  0  0  0  0  0
   38.7650   26.0070   27.1490 H   0  0  0  0  0  0  0  0  0  0  0  0
   40.4700   25.7590   26.0150 C   0  0  0  0  0  2  0  0  0  0  0  0
   40.1790   26.7420   25.5520 H   0  0  0  0  0  0  0  0  0  0  0  0
   39.6850   24.2060   27.6040 C   0  0  0  0  0  2  0  0  0  0  0  0
   38.7680   23.9670   28.2010 H   0  0  0  0  0  0  0  0  0  0  0  0
  1  2  1  0  0  0  0
  1 13  1  0  0  0  0
  2  7  1  0  0  0  0
  3  8  1  0  0  0  0
  3  2  2  0  0  0  0
  4  3  1  0  0  0  0
  5  4  2  0  0  0  0
  5  6  1  0  0  0  0
  6  1  2  0  0  0  0
  9 10  1  0  0  0  0
 10 11  2  0  0  0  0
 10 17  1  0  0  0  0
 11 16  1  0  0  0  0
 12 11  1  0  0  0  0
 13 12  2  0  0  0  0
 14 13  1  0  0  0  0
 14  9  2  0  0  0  0
 15  9  1  0  0  0  0
 17 18  1  0  0  0  0
 19 17  1  0  0  0  0
 20  5  1  0  0  0  0
 21 25  1  0  0  0  0
 21 20  2  0  0  0  0
 22 23  1  0  0  0  0
 22 21  1  0  0  0  0
 23 24  2  0  0  0  0
 24 20  1  0  0  0  0
 26 22  1  0  0  0  0
 27 23  1  0  0  0  0
 28 32  1  0  0  0  0
 28 27  1  0  0  0  0
 29 28  1  0  0  0  0
 30 28  1  0  0  0  0
 31 30  1  0  0  0  0
 32 33  1  0  0  0  0
M  END
>  <minimizedAffinity>
-4.98348427

$$$$

 OpenBabel03272507003D

 33 35  0  0  0  0  0  0  0  0999 V2000
   37.2050   23.2860   31.2400 C   0  0  0  0  0  0  0  0  0  0  0  0
   38.1790   23.4990   30.2900 C   0  0  0  0  0  0  0  0  0  0  0  0
   38.8450   24.6800   30.0760 C   0  0  0  0  0  0  0  0  0  0  0  0
   38.4970   25.7160   30.8830 N   0  0  0  0  0  0  0  0  0  0  0  0
   37.5400   25.5350   31.8280 C   0  0  0  0  0  0  0  0  0  0  0  0
   36.9080   24.3490   32.0040 N   0  0  0  0  0  0  0  0  0  0  0  0
   38.4710   22.6850   29.6370 H   0  0  0  0  0  0  0  0  0  0  0  0
   39.6040   24.8020   29.3150 H   0  0  0  0  0  0  0  0  0  0  0  0
   34.8950   20.7380   32.3960 C   0  0  0  0  0  0  0  0  0  0  0  0
   35.2680   19.5670   31.7350 C   0  0  0  0  0  0  0  0  0  0  0  0
   36.3530   19.6910   30.8700 C   0  0  0  0  0  0  0  0  0  0  0  0
   36.9620   20.8900   30.7230 N   0  0  0  0  0  0  0  0  0  0  0  0
   36.5500   21.9770   31.3900 C   0  0  0  0  0  0  0  0  0  0  0  0
   35.4910   21.9550   32.2660 N   0  0  0  0  0  0  0  0  0  0  0  0
   34.0560   20.7180   33.0880 H   0  0  0  0  0  0  0  0  0  0  0  0
   36.6710   18.8020   30.3400 H   0  0  0  0  0  0  0  0  0  0  0  0
   34.5860   18.3530   31.9410 N   0  0  0  0  0  0  0  0  0  0  0  0
   35.1410   17.4740   31.7660 H   0  0  0  0  0  0  0  0  0  0  0  0
   33.5860   18.4150   32.2490 H   0  0  0  0  0  0  0  0  0  0  0  0
   37.0760   26.5550   32.7530 C   0  0  0  0  0  0  0  0  0  0  0  0
   37.3050   26.3620   34.0920 C   0  0  0  0  0  0  0  0  0  0  0  0
   36.8010   27.4180   34.8010 N   0  0  0  0  0  0  0  0  0  0  0  0
   36.2600   28.2610   33.8890 C   0  0  0  0  0  0  0  0  0  0  0  0
   36.4250   27.7410   32.6470 N   0  0  0  0  0  0  0  0  0  0  0  0
   37.7940   25.5500   34.6440 H   0  0  0  0  0  0  0  0  0  0  0  0
   36.8170   27.5650   35.8330 H   0  0  0  0  0  0  0  0  0  0  0  0
   35.6070   29.5300   34.2500 C   0  0  0  0  0  2  0  0  0  0  0  0
   34.2460   29.5480   33.7440 N   0  0  0  0  0  4  0  0  0  0  0  0
   34.0400   28.6940   33.1660 H   0  0  0  0  0  0  0  0  0  0  0  0
   33.3240   29.6430   34.8530 C   0  0  0  0  0  2  0  0  0  0  0  0
   33.1370   28.6010   35.2320 H   0  0  0  0  0  0  0  0  0  0  0  0
   34.1140   30.7510   32.9290 C   0  0  0  0  0  2  0  0  0  0  0  0
   34.3720   30.5490   31.8570 H   0  0  0  0  0  0  0  0  0  0  0  0
  1 13  1  0  0  0  0
  1  6  1  0  0  0  0
  2  1  2  0  0  0  0
  3  2  1  0  0  0  0
  3  4  2  0  0  0  0
  4  5  1  0  0  0  0
  5  6  2  0  0  0  0
  5 20  1  0  0  0  0
  7  2  1  0  0  0  0
  8  3  1  0  0  0  0
  9 15  1  0  0  0  0
 10 17  1  0  0  0  0
 10  9  2  0  0  0  0
 11 10  1  0  0  0  0
 12 11  2  0  0  0  0
 12 13  1  0  0  0  0
 13 14  2  0  0  0  0
 14  9  1  0  0  0  0
 16 11  1  0  0  0  0
 17 19  1  0  0  0  0
 18 17  1  0  0  0  0
 20 21  2  0  0  0  0
 21 25  1  0  0  0  0
 21 22  1  0  0  0  0
 22 26  1  0  0  0  0
 23 27  1  0  0  0  0
 23 22  1  0  0  0  0
 24 20  1  0  0  0  0
 24 23  2  0  0  0  0
 28 27  1  0  0  0  0
 28 30  1  0  0  0  0
 29 28  1  0  0  0  0
 30 31  1  0  0  0  0
 32 28  1  0  0  0  0
 33 32  1  0  0  0  0
M  END
>  <minimizedAffinity>
-4.9502821

$$$$

 OpenBabel03272507003D

 33 35  0  0  0  0  0  0  0  0999 V2000
   38.3170   26.0590   34.0390 C   0  0  0  0  0  0  0  0  0  0  0  0
   39.0850   26.1050   32.8970 C   0  0  0  0  0  0  0  0  0  0  0  0
   38.8810   26.9410   31.8270 C   0  0  0  0  0  0  0  0  0  0  0  0
   37.8230   27.7890   31.9260 N   0  0  0  0  0  0  0  0  0  0  0  0
   37.0490   27.7650   33.0400 C   0  0  0  0  0  0  0  0  0  0  0  0
   37.2890   26.9220   34.0740 N   0  0  0  0  0  0  0  0  0  0  0  0
   39.9330   25.4380   32.7990 H   0  0  0  0  0  0  0  0  0  0  0  0
   39.5110   26.9420   30.9480 H   0  0  0  0  0  0  0  0  0  0  0  0
   38.0330   24.2850   37.1920 C   0  0  0  0  0  0  0  0  0  0  0  0
   39.1170   23.4060   37.2250 C   0  0  0  0  0  0  0  0  0  0  0  0
   39.9540   23.4500   36.1130 C   0  0  0  0  0  0  0  0  0  0  0  0
   39.6830   24.3050   35.1000 N   0  0  0  0  0  0  0  0  0  0  0  0
   38.6220   25.1230   35.1320 C   0  0  0  0  0  0  0  0  0  0  0  0
   37.7400   25.1550   36.1860 N   0  0  0  0  0  0  0  0  0  0  0  0
   37.3360   24.3080   38.0260 H   0  0  0  0  0  0  0  0  0  0  0  0
   40.8060   22.7810   36.1050 H   0  0  0  0  0  0  0  0  0  0  0  0
   39.3360   22.5450   38.3160 N   0  0  0  0  0  0  0  0  0  0  0  0
   40.3320   22.2420   38.4760 H   0  0  0  0  0  0  0  0  0  0  0  0
   38.4970   22.2710   38.8830 H   0  0  0  0  0  0  0  0  0  0  0  0
   35.8940   28.6150   33.2730 C   0  0  0  0  0  0  0  0  0  0  0  0
   35.2710   29.1680   32.1830 C   0  0  0  0  0  0  0  0  0  0  0  0
   34.2130   29.9310   32.5970 N   0  0  0  0  0  0  0  0  0  0  0  0
   34.1900   29.8430   33.9490 C   0  0  0  0  0  0  0  0  0  0  0  0
   35.2070   29.0470   34.3610 N   0  0  0  0  0  0  0  0  0  0  0  0
   35.4740   29.0990   31.1070 H   0  0  0  0  0  0  0  0  0  0  0  0
   33.5470   30.4780   32.0090 H   0  0  0  0  0  0  0  0  0  0  0  0
   33.1920   30.5290   34.7850 C   0  0  0  0  0  2  0  0  0  0  0  0
   32.6570   29.6070   35.7720 N   0  0  0  0  0  4  0  0  0  0  0  0
   33.3970   28.9470   36.1220 H   0  0  0  0  0  0  0  0  0  0  0  0
   32.0870   30.3560   36.8680 C   0  0  0  0  0  2  0  0  0  0  0  0
   32.9180   30.5950   37.5880 H   0  0  0  0  0  0  0  0  0  0  0  0
   31.5870   28.8610   35.1160 C   0  0  0  0  0  2  0  0  0  0  0  0
   31.9750   27.9240   34.6410 H   0  0  0  0  0  0  0  0  0  0  0  0
  1  6  1  0  0  0  0
  1 13  1  0  0  0  0
  2  1  2  0  0  0  0
  3  4  2  0  0  0  0
  3  2  1  0  0  0  0
  4  5  1  0  0  0  0
  5 20  1  0  0  0  0
  5  6  2  0  0  0  0
  7  2  1  0  0  0  0
  8  3  1  0  0  0  0
  9 10  1  0  0  0  0
  9 15  1  0  0  0  0
 10 17  1  0  0  0  0
 11 10  2  0  0  0  0
 12 13  2  0  0  0  0
 12 11  1  0  0  0  0
 13 14  1  0  0  0  0
 14  9  2  0  0  0  0
 16 11  1  0  0  0  0
 17 18  1  0  0  0  0
 17 19  1  0  0  0  0
 20 24  1  0  0  0  0
 21 22  1  0  0  0  0
 21 20  2  0  0  0  0
 22 23  1  0  0  0  0
 23 24  2  0  0  0  0
 23 27  1  0  0  0  0
 25 21  1  0  0  0  0
 26 22  1  0  0  0  0
 27 28  1  0  0  0  0
 28 29  1  0  0  0  0
 28 30  1  0  0  0  0
 30 31  1  0  0  0  0
 32 28  1  0  0  0  0
 33 32  1  0  0  0  0
M  END
>  <minimizedAffinity>
-4.94643354

$$$$

 OpenBabel03272507003D

 33 35  0  0  0  0  0  0  0  0999 V2000
   35.7250   29.2130   33.7840 C   0  0  0  0  0  0  0  0  0  0  0  0
   35.4950   29.4040   32.4390 C   0  0  0  0  0  0  0  0  0  0  0  0
   35.9400   28.5900   31.4270 C   0  0  0  0  0  0  0  0  0  0  0  0
   36.6690   27.5080   31.8070 N   0  0  0  0  0  0  0  0  0  0  0  0
   36.9110   27.2960   33.1260 C   0  0  0  0  0  0  0  0  0  0  0  0
   36.4510   28.1270   34.0920 N   0  0  0  0  0  0  0  0  0  0  0  0
   34.9160   30.2600   32.1150 H   0  0  0  0  0  0  0  0  0  0  0  0
   35.7350   28.7790   30.3820 H   0  0  0  0  0  0  0  0  0  0  0  0
   33.3700   30.9590   35.9220 C   0  0  0  0  0  0  0  0  0  0  0  0
   34.1350   31.8650   36.6590 C   0  0  0  0  0  0  0  0  0  0  0  0
   35.5010   31.8500   36.3880 C   0  0  0  0  0  0  0  0  0  0  0  0
   35.9950   30.9940   35.4640 N   0  0  0  0  0  0  0  0  0  0  0  0
   35.2020   30.1480   34.7920 C   0  0  0  0  0  0  0  0  0  0  0  0
   33.8420   30.0880   34.9880 N   0  0  0  0  0  0  0  0  0  0  0  0
   32.2960   30.9130   36.0790 H   0  0  0  0  0  0  0  0  0  0  0  0
   36.1250   32.5410   36.9410 H   0  0  0  0  0  0  0  0  0  0  0  0
   33.5500   32.7280   37.6040 N   0  0  0  0  0  0  0  0  0  0  0  0
   34.0690   33.6240   37.7980 H   0  0  0  0  0  0  0  0  0  0  0  0
   32.6490   32.4150   38.0410 H   0  0  0  0  0  0  0  0  0  0  0  0
   37.6720   26.1820   33.6660 C   0  0  0  0  0  0  0  0  0  0  0  0
   37.4910   24.9440   33.1030 C   0  0  0  0  0  0  0  0  0  0  0  0
   38.2850   24.0290   33.7390 N   0  0  0  0  0  0  0  0  0  0  0  0
   38.9550   24.7130   34.6970 C   0  0  0  0  0  0  0  0  0  0  0  0
   38.5860   26.0170   34.6560 N   0  0  0  0  0  0  0  0  0  0  0  0
   36.8530   24.5980   32.2800 H   0  0  0  0  0  0  0  0  0  0  0  0
   38.3720   23.0090   33.5440 H   0  0  0  0  0  0  0  0  0  0  0  0
   39.9220   24.0830   35.6120 C   0  0  0  0  0  2  0  0  0  0  0  0
   39.2800   23.0040   36.3420 N   0  0  0  0  0  4  0  0  0  0  0  0
   38.6890   22.4090   35.7070 H   0  0  0  0  0  0  0  0  0  0  0  0
   40.2880   22.2020   36.9950 C   0  0  0  0  0  2  0  0  0  0  0  0
   40.6530   21.4400   36.2520 H   0  0  0  0  0  0  0  0  0  0  0  0
   38.4480   23.6260   37.3680 C   0  0  0  0  0  2  0  0  0  0  0  0
   37.4090   23.8150   36.9920 H   0  0  0  0  0  0  0  0  0  0  0  0
  1  6  1  0  0  0  0
  1 13  1  0  0  0  0
  2  1  2  0  0  0  0
  3  4  2  0  0  0  0
  3  2  1  0  0  0  0
  4  5  1  0  0  0  0
  5 20  1  0  0  0  0
  5  6  2  0  0  0  0
  7  2  1  0  0  0  0
  8  3  1  0  0  0  0
  9 15  1  0  0  0  0
  9 10  1  0  0  0  0
 10 17  1  0  0  0  0
 11 10  2  0  0  0  0
 11 16  1  0  0  0  0
 12 11  1  0  0  0  0
 13 14  1  0  0  0  0
 13 12  2  0  0  0  0
 14  9  2  0  0  0  0
 17 18  1  0  0  0  0
 17 19  1  0  0  0  0
 20 24  1  0  0  0  0
 21 20  2  0  0  0  0
 21 22  1  0  0  0  0
 22 23  1  0  0  0  0
 23 27  1  0  0  0  0
 24 23  2  0  0  0  0
 25 21  1  0  0  0  0
 26 22  1  0  0  0  0
 27 28  1  0  0  0  0
 28 30  1  0  0  0  0
 28 32  1  0  0  0  0
 29 28  1  0  0  0  0
 31 30  1  0  0  0  0
 33 32  1  0  0  0  0
M  END
>  <minimizedAffinity>
-4.91216183

$$$$

 OpenBabel03272507003D

 33 35  0  0  0  0  0  0  0  0999 V2000
   38.3570   26.0000   33.9040 C   0  0  0  0  0  0  0  0  0  0  0  0
   39.1920   26.0180   32.8090 C   0  0  0  0  0  0  0  0  0  0  0  0
   39.0470   26.8180   31.7030 C   0  0  0  0  0  0  0  0  0  0  0  0
   37.9790   27.6580   31.7100 N   0  0  0  0  0  0  0  0  0  0  0  0
   37.1390   27.6610   32.7750 C   0  0  0  0  0  0  0  0  0  0  0  0
   37.3210   26.8530   33.8480 N   0  0  0  0  0  0  0  0  0  0  0  0
   40.0500   25.3560   32.7840 H   0  0  0  0  0  0  0  0  0  0  0  0
   39.7300   26.7980   30.8640 H   0  0  0  0  0  0  0  0  0  0  0  0
   37.9490   24.3910   37.1300 C   0  0  0  0  0  0  0  0  0  0  0  0
   38.9870   23.4620   37.2180 C   0  0  0  0  0  0  0  0  0  0  0  0
   39.8370   23.4110   36.1160 C   0  0  0  0  0  0  0  0  0  0  0  0
   39.6210   24.2310   35.0620 N   0  0  0  0  0  0  0  0  0  0  0  0
   38.6020   25.1010   35.0430 C   0  0  0  0  0  0  0  0  0  0  0  0
   37.7110   25.2270   36.0820 N   0  0  0  0  0  0  0  0  0  0  0  0
   37.2450   24.4880   37.9530 H   0  0  0  0  0  0  0  0  0  0  0  0
   40.6530   22.7010   36.1510 H   0  0  0  0  0  0  0  0  0  0  0  0
   39.1490   22.6430   38.3510 N   0  0  0  0  0  0  0  0  0  0  0  0
   40.1270   22.2970   38.5370 H   0  0  0  0  0  0  0  0  0  0  0  0
   38.2910   22.4380   38.9180 H   0  0  0  0  0  0  0  0  0  0  0  0
   35.9640   28.5050   32.9100 C   0  0  0  0  0  0  0  0  0  0  0  0
   35.6110   28.9200   34.1700 C   0  0  0  0  0  0  0  0  0  0  0  0
   34.4890   29.7010   34.0980 N   0  0  0  0  0  0  0  0  0  0  0  0
   34.1550   29.7620   32.7860 C   0  0  0  0  0  0  0  0  0  0  0  0
   35.0470   29.0400   32.0650 N   0  0  0  0  0  0  0  0  0  0  0  0
   36.0550   28.7370   35.1550 H   0  0  0  0  0  0  0  0  0  0  0  0
   33.9770   30.1630   34.8800 H   0  0  0  0  0  0  0  0  0  0  0  0
   32.9930   30.5140   32.2840 C   0  0  0  0  0  2  0  0  0  0  0  0
   33.3540   31.2290   31.0720 N   0  0  0  0  0  4  0  0  0  0  0  0
   33.8850   30.6130   30.4060 H   0  0  0  0  0  0  0  0  0  0  0  0
   32.1580   31.7420   30.4440 C   0  0  0  0  0  2  0  0  0  0  0  0
   31.7340   30.9240   29.7980 H   0  0  0  0  0  0  0  0  0  0  0  0
   34.1820   32.3600   31.4810 C   0  0  0  0  0  2  0  0  0  0  0  0
   35.2690   32.0880   31.4890 H   0  0  0  0  0  0  0  0  0  0  0  0
  1 13  1  0  0  0  0
  2  1  2  0  0  0  0
  3  4  2  0  0  0  0
  3  2  1  0  0  0  0
  4  5  1  0  0  0  0
  5 20  1  0  0  0  0
  5  6  2  0  0  0  0
  6  1  1  0  0  0  0
  7  2  1  0  0  0  0
  8  3  1  0  0  0  0
  9 10  1  0  0  0  0
  9 15  1  0  0  0  0
 10 17  1  0  0  0  0
 11 16  1  0  0  0  0
 11 10  2  0  0  0  0
 12 11  1  0  0  0  0
 13 12  2  0  0  0  0
 13 14  1  0  0  0  0
 14  9  2  0  0  0  0
 17 18  1  0  0  0  0
 17 19  1  0  0  0  0
 20 21  2  0  0  0  0
 21 25  1  0  0  0  0
 22 21  1  0  0  0  0
 22 26  1  0  0  0  0
 23 22  1  0  0  0  0
 24 23  2  0  0  0  0
 24 20  1  0  0  0  0
 27 23  1  0  0  0  0
 28 32  1  0  0  0  0
 28 27  1  0  0  0  0
 29 28  1  0  0  0  0
 30 28  1  0  0  0  0
 31 30  1  0  0  0  0
 32 33  1  0  0  0  0
M  END
>  <minimizedAffinity>
-4.89818382

$$$$

 OpenBabel03272507003D

 33 35  0  0  0  0  0  0  0  0999 V2000
   37.6380   26.4970   34.0420 C   0  0  0  0  0  0  0  0  0  0  0  0
   36.7870   27.4020   34.6370 C   0  0  0  0  0  0  0  0  0  0  0  0
   36.2280   28.4970   34.0270 C   0  0  0  0  0  0  0  0  0  0  0  0
   36.5560   28.6860   32.7210 N   0  0  0  0  0  0  0  0  0  0  0  0
   37.3920   27.8100   32.1100 C   0  0  0  0  0  0  0  0  0  0  0  0
   37.9210   26.7400   32.7520 N   0  0  0  0  0  0  0  0  0  0  0  0
   36.5130   27.2700   35.6760 H   0  0  0  0  0  0  0  0  0  0  0  0
   35.5630   29.1830   34.5350 H   0  0  0  0  0  0  0  0  0  0  0  0
   38.2730   24.1900   36.7690 C   0  0  0  0  0  0  0  0  0  0  0  0
   39.1610   23.2420   36.2570 C   0  0  0  0  0  0  0  0  0  0  0  0
   39.5340   23.4310   34.9280 C   0  0  0  0  0  0  0  0  0  0  0  0
   39.0360   24.4790   34.2330 N   0  0  0  0  0  0  0  0  0  0  0  0
   38.1840   25.3520   34.7860 C   0  0  0  0  0  0  0  0  0  0  0  0
   37.7590   25.2520   36.0900 N   0  0  0  0  0  0  0  0  0  0  0  0
   37.9370   24.1080   37.7990 H   0  0  0  0  0  0  0  0  0  0  0  0
   40.2220   22.7140   34.4990 H   0  0  0  0  0  0  0  0  0  0  0  0
   39.6380   22.1770   37.0440 N   0  0  0  0  0  0  0  0  0  0  0  0
   40.5720   21.7760   36.7650 H   0  0  0  0  0  0  0  0  0  0  0  0
   39.0330   21.8650   37.8410 H   0  0  0  0  0  0  0  0  0  0  0  0
   37.8220   27.8940   30.7240 C   0  0  0  0  0  0  0  0  0  0  0  0
   36.9410   28.4090   29.8070 C   0  0  0  0  0  0  0  0  0  0  0  0
   37.5170   28.4080   28.5660 N   0  0  0  0  0  0  0  0  0  0  0  0
   38.7580   27.8890   28.7270 C   0  0  0  0  0  0  0  0  0  0  0  0
   38.9450   27.5770   30.0330 N   0  0  0  0  0  0  0  0  0  0  0  0
   35.9180   28.7940   29.9060 H   0  0  0  0  0  0  0  0  0  0  0  0
   37.1040   28.7350   27.6660 H   0  0  0  0  0  0  0  0  0  0  0  0
   39.7100   27.7160   27.6170 C   0  0  0  0  0  2  0  0  0  0  0  0
   39.7430   28.9170   26.8020 N   0  0  0  0  0  4  0  0  0  0  0  0
   38.7730   29.2400   26.5550 H   0  0  0  0  0  0  0  0  0  0  0  0
   40.4580   29.9560   27.5080 C   0  0  0  0  0  2  0  0  0  0  0  0
   39.7260   30.4740   28.1860 H   0  0  0  0  0  0  0  0  0  0  0  0
   40.4870   28.5850   25.5910 C   0  0  0  0  0  2  0  0  0  0  0  0
   39.8070   28.2110   24.7830 H   0  0  0  0  0  0  0  0  0  0  0  0
  1  2  1  0  0  0  0
  1 13  1  0  0  0  0
  2  7  1  0  0  0  0
  3  8  1  0  0  0  0
  3  2  2  0  0  0  0
  4  3  1  0  0  0  0
  5  4  2  0  0  0  0
  5  6  1  0  0  0  0
  6  1  2  0  0  0  0
  9 15  1  0  0  0  0
 10  9  1  0  0  0  0
 10 17  1  0  0  0  0
 11 10  2  0  0  0  0
 12 13  2  0  0  0  0
 12 11  1  0  0  0  0
 13 14  1  0  0  0  0
 14  9  2  0  0  0  0
 16 11  1  0  0  0  0
 17 19  1  0  0  0  0
 18 17  1  0  0  0  0
 20  5  1  0  0  0  0
 21 25  1  0  0  0  0
 21 20  2  0  0  0  0
 22 23  1  0  0  0  0
 22 21  1  0  0  0  0
 23 24  2  0  0  0  0
 24 20  1  0  0  0  0
 26 22  1  0  0  0  0
 27 23  1  0  0  0  0
 28 30  1  0  0  0  0
 28 27  1  0  0  0  0
 29 28  1  0  0  0  0
 30 31  1  0  0  0  0
 32 28  1  0  0  0  0
 33 32  1  0  0  0  0
M  END
>  <minimizedAffinity>
-4.85137558

$$$$
