
 OpenBabel03272506473D

 40 42  0  0  1  0  0  0  0  0999 V2000
   32.1690   28.5360   47.3740 C   0  0  2  0  0  0  0  0  0  0  0  0
   33.4110   28.3760   48.1980 C   0  0  1  0  0  0  0  0  0  0  0  0
   33.8250   27.0720   48.0760 O   0  0  0  0  0  0  0  0  0  0  0  0
   33.1510   26.4760   47.0140 C   0  0  0  0  0  0  0  0  0  0  0  0
   32.5350   27.5770   46.1890 C   0  0  1  0  0  0  0  0  0  0  0  0
   31.2610   28.1450   47.8110 H   0  0  0  0  0  0  0  0  0  0  0  0
   33.2310   28.6790   49.2510 H   0  0  0  0  0  0  0  0  0  0  0  0
   33.9780   26.0510   46.3560 H   0  0  0  0  0  0  0  0  0  0  0  0
   32.4970   25.6950   47.3580 H   0  0  0  0  0  0  0  0  0  0  0  0
   33.2370   28.1590   45.5940 H   0  0  0  0  0  0  0  0  0  0  0  0
   32.0730   29.8510   46.8850 O   0  0  0  0  0  0  0  0  0  0  0  0
   31.1070   30.0640   46.7710 H   0  0  0  0  0  0  0  0  0  0  0  0
   34.7090   29.4550   47.4870 S   0  0  0  0  0  0  0  0  0  0  0  0
   37.1180   29.2750   50.6140 C   0  0  0  0  0  0  0  0  0  0  0  0
   37.5980   30.5550   50.7850 C   0  0  0  0  0  0  0  0  0  0  0  0
   37.1610   31.5350   49.8920 C   0  0  0  0  0  0  0  0  0  0  0  0
   36.2960   31.1810   48.9140 N   0  0  0  0  0  0  0  0  0  0  0  0
   35.8450   29.9140   48.7770 C   0  0  0  0  0  0  0  0  0  0  0  0
   36.2550   28.9420   49.6320 N   0  0  0  0  0  0  0  0  0  0  0  0
   37.5000   28.5360   51.3460 H   0  0  0  0  0  0  0  0  0  0  0  0
   38.2880   30.9030   51.5360 H   0  0  0  0  0  0  0  0  0  0  0  0
   37.4240   32.5900   49.8650 H   0  0  0  0  0  0  0  0  0  0  0  0
   31.4080   27.1040   45.5770 O   0  0  0  0  0  0  0  0  0  0  0  0
   29.8010   29.0930   44.1230 Cl  0  0  0  0  0  0  0  0  0  0  0  0
   29.3290   28.0570   45.4450 C   0  0  0  0  0  0  0  0  0  0  0  0
   30.1680   27.1540   46.0550 C   0  0  0  0  0  0  0  0  0  0  0  0
   29.6550   26.3800   47.0940 C   0  0  0  0  0  0  0  0  0  0  0  0
   28.3440   26.5160   47.4990 C   0  0  0  0  0  0  0  0  0  0  0  0
   27.4920   27.4150   46.8930 C   0  0  0  0  0  0  0  0  0  0  0  0
   28.0080   28.1910   45.8480 C   0  0  0  0  0  0  0  0  0  0  0  0
   30.2530   25.6530   47.6150 H   0  0  0  0  0  0  0  0  0  0  0  0
   27.9760   25.9020   48.3080 H   0  0  0  0  0  0  0  0  0  0  0  0
   26.4920   27.4860   47.2490 H   0  0  0  0  0  0  0  0  0  0  0  0
   27.0240   29.1260   45.2460 C   0  0  0  0  0  2  0  0  0  0  0  0
   26.4900   28.7600   43.9840 N   0  0  0  0  0  4  0  0  0  0  0  0
   27.1330   28.2560   43.3310 H   0  0  0  0  0  0  0  0  0  0  0  0
   25.2920   27.9670   44.1040 C   0  0  0  0  0  2  0  0  0  0  0  0
   24.9410   27.5870   43.1150 H   0  0  0  0  0  0  0  0  0  0  0  0
   26.0480   30.0310   43.3710 C   0  0  0  0  0  2  0  0  0  0  0  0
   25.4440   29.7830   42.5080 H   0  0  0  0  0  0  0  0  0  0  0  0
  1  6  1  1  0  0  0
  1  2  1  0  0  0  0
  2  7  1  1  0  0  0
  3  2  1  0  0  0  0
  4  9  1  0  0  0  0
  4  3  1  0  0  0  0
  5 10  1  6  0  0  0
  5  4  1  0  0  0  0
  5  1  1  0  0  0  0
  8  4  1  0  0  0  0
 11  1  1  0  0  0  0
 12 11  1  0  0  0  0
 13  2  1  0  0  0  0
 13 18  1  0  0  0  0
 14 15  1  0  0  0  0
 14 20  1  0  0  0  0
 15 21  1  0  0  0  0
 16 15  2  0  0  0  0
 17 16  1  0  0  0  0
 18 17  2  0  0  0  0
 18 19  1  0  0  0  0
 19 14  2  0  0  0  0
 22 16  1  0  0  0  0
 23 26  1  0  0  0  0
 23  5  1  0  0  0  0
 24 25  1  0  0  0  0
 25 30  2  0  0  0  0
 25 26  1  0  0  0  0
 26 27  2  0  0  0  0
 27 28  1  0  0  0  0
 27 31  1  0  0  0  0
 28 32  1  0  0  0  0
 29 33  1  0  0  0  0
 29 28  2  0  0  0  0
 30 29  1  0  0  0  0
 34 30  1  0  0  0  0
 35 37  1  0  0  0  0
 35 34  1  0  0  0  0
 36 35  1  0  0  0  0
 38 37  1  0  0  0  0
 39 35  1  0  0  0  0
 40 39  1  0  0  0  0
M  END
>  <minimizedAffinity>
-4.70600033

>  <minimizedRMSD>
0.70297426

$$$$
