
 OpenBabel03272507223D

 41 44  0  0  1  0  0  0  0  0999 V2000
   35.4030   30.0840   48.6690 C   0  0  0  0  0  0  0  0  0  0  0  0
   35.5590   30.8540   49.7980 C   0  0  0  0  0  0  0  0  0  0  0  0
   36.7000   31.6650   49.8140 C   0  0  0  0  0  0  0  0  0  0  0  0
   37.5700   31.6620   48.7630 N   0  0  0  0  0  0  0  0  0  0  0  0
   37.3840   30.8900   47.6660 C   0  0  0  0  0  0  0  0  0  0  0  0
   36.2820   30.0960   47.6310 N   0  0  0  0  0  0  0  0  0  0  0  0
   34.9100   30.8870   50.6380 H   0  0  0  0  0  0  0  0  0  0  0  0
   36.9040   32.3060   50.6670 H   0  0  0  0  0  0  0  0  0  0  0  0
   39.4360   31.7050   46.6490 C   0  0  0  0  0  0  0  0  0  0  0  0
   38.3270   30.8940   46.5480 C   0  0  0  0  0  0  0  0  0  0  0  0
   38.1420   30.1210   45.4100 C   0  0  0  0  0  0  0  0  0  0  0  0
   39.0250   30.1190   44.3480 C   0  0  0  0  0  0  0  0  0  0  0  0
   39.0850   29.4860   43.1650 N   0  0  0  0  0  0  0  0  0  0  0  0
   40.2160   29.9150   42.5680 C   0  0  0  0  0  0  0  0  0  0  0  0
   40.8510   30.7940   43.3540 N   0  0  0  0  0  0  0  0  0  0  0  0
   40.1360   30.9520   44.4860 C   0  0  0  0  0  0  0  0  0  0  0  0
   40.3480   31.7340   45.6090 C   0  0  0  0  0  0  0  0  0  0  0  0
   39.6320   32.3260   47.5080 H   0  0  0  0  0  0  0  0  0  0  0  0
   37.2620   29.4910   45.3530 H   0  0  0  0  0  0  0  0  0  0  0  0
   38.3480   28.8070   42.8530 H   0  0  0  0  0  0  0  0  0  0  0  0
   40.5470   29.5850   41.5950 H   0  0  0  0  0  0  0  0  0  0  0  0
   41.2400   32.3590   45.6430 H   0  0  0  0  0  0  0  0  0  0  0  0
   34.1910   29.1810   48.6150 C   0  0  1  0  0  0  0  0  0  0  0  0
   33.1750   29.3510   47.6020 C   0  0  2  0  0  0  0  0  0  0  0  0
   34.2370   28.2420   47.4130 C   0  0  2  0  0  0  0  0  0  0  0  0
   33.8950   28.8060   49.6210 H   0  0  0  0  0  0  0  0  0  0  0  0
   32.2370   28.6910   47.6190 H   0  0  0  0  0  0  0  0  0  0  0  0
   34.9400   28.4520   46.6100 H   0  0  0  0  0  0  0  0  0  0  0  0
   33.2850   30.3640   46.7120 O   0  0  0  0  0  0  0  0  0  0  0  0
   32.6590   30.8030   45.6260 C   0  0  0  0  0  0  0  0  0  0  0  0
   32.4940   29.9350   44.7120 O   0  0  0  0  0  0  0  0  0  0  0  0
   32.2830   32.1230   45.6440 N   0  0  0  0  0  0  0  0  0  0  0  0
   31.3670   32.5550   45.9110 H   0  0  0  0  0  0  0  0  0  0  0  0
   32.8950   32.9310   45.3800 H   0  0  0  0  0  0  0  0  0  0  0  0
   33.9630   26.8290   47.7790 C   0  0  0  0  0  2  0  0  0  0  0  0
   33.5440   25.9870   46.7040 N   0  0  0  0  0  4  0  0  0  0  0  0
   32.5090   25.8470   46.7490 H   0  0  0  0  0  0  0  0  0  0  0  0
   33.8600   26.4510   45.3850 C   0  0  0  0  0  2  0  0  0  0  0  0
   33.6360   25.5990   44.6940 H   0  0  0  0  0  0  0  0  0  0  0  0
   34.1170   24.6640   46.8710 C   0  0  0  0  0  2  0  0  0  0  0  0
   34.9560   24.4990   46.1370 H   0  0  0  0  0  0  0  0  0  0  0  0
  1  2  1  0  0  0  0
  2  3  2  0  0  0  0
  2  7  1  0  0  0  0
  3  8  1  0  0  0  0
  4  3  1  0  0  0  0
  5  4  2  0  0  0  0
  6  5  1  0  0  0  0
  6  1  2  0  0  0  0
  9 18  1  0  0  0  0
 10  9  1  0  0  0  0
 10  5  1  0  0  0  0
 11 10  2  0  0  0  0
 12 16  2  0  0  0  0
 12 11  1  0  0  0  0
 13 12  1  0  0  0  0
 14 13  1  0  0  0  0
 14 15  2  0  0  0  0
 15 16  1  0  0  0  0
 16 17  1  0  0  0  0
 17 22  1  0  0  0  0
 17  9  2  0  0  0  0
 19 11  1  0  0  0  0
 20 13  1  0  0  0  0
 21 14  1  0  0  0  0
 23  1  1  0  0  0  0
 23 26  1  1  0  0  0
 24 27  1  1  0  0  0
 24 23  1  0  0  0  0
 25 28  1  6  0  0  0
 25 24  1  0  0  0  0
 25 35  1  0  0  0  0
 25 23  1  0  0  0  0
 29 24  1  0  0  0  0
 30 32  1  0  0  0  0
 30 29  1  0  0  0  0
 31 30  2  0  0  0  0
 32 33  1  0  0  0  0
 34 32  1  0  0  0  0
 36 37  1  0  0  0  0
 36 40  1  0  0  0  0
 36 35  1  0  0  0  0
 38 36  1  0  0  0  0
 39 38  1  0  0  0  0
 41 40  1  0  0  0  0
M  END
>  <minimizedAffinity>
-5.24601603

>  <minimizedRMSD>
2.16522574

$$$$
