
 OpenBabel03272507493D

 44 47  0  0  0  0  0  0  0  0999 V2000
   38.9340   24.8970   34.4590 N   0  0  0  0  0  0  0  0  0  0  0  0
   39.8050   25.8970   33.9440 C   0  0  0  0  0  0  0  0  0  0  0  0
   39.1710   27.0820   33.3180 C   0  0  0  0  0  0  0  0  0  0  0  0
   37.9640   26.8410   32.5270 C   0  0  0  0  0  0  0  0  0  0  0  0
   37.1060   25.6960   33.0970 C   0  0  0  0  0  0  0  0  0  0  0  0
   38.0540   24.5220   33.3870 C   0  0  0  0  0  0  0  0  0  0  0  0
   40.5150   26.2390   34.7490 H   0  0  0  0  0  0  0  0  0  0  0  0
   40.4560   25.4090   33.1770 H   0  0  0  0  0  0  0  0  0  0  0  0
   38.8430   27.6720   34.2370 H   0  0  0  0  0  0  0  0  0  0  0  0
   39.9230   27.6420   32.7360 H   0  0  0  0  0  0  0  0  0  0  0  0
   38.1640   26.4970   31.4760 H   0  0  0  0  0  0  0  0  0  0  0  0
   36.3670   25.3860   32.3380 H   0  0  0  0  0  0  0  0  0  0  0  0
   36.6850   26.0180   34.0560 H   0  0  0  0  0  0  0  0  0  0  0  0
   37.4150   23.6590   33.7120 H   0  0  0  0  0  0  0  0  0  0  0  0
   38.5820   24.2300   32.4460 H   0  0  0  0  0  0  0  0  0  0  0  0
   36.9810   28.6610   31.2120 C   0  0  0  0  0  0  0  0  0  0  0  0
   37.0390   27.9980   32.4260 C   0  0  0  0  0  0  0  0  0  0  0  0
   36.3190   28.3610   33.5320 C   0  0  0  0  0  0  0  0  0  0  0  0
   35.4770   29.4680   33.4260 C   0  0  0  0  0  0  0  0  0  0  0  0
   35.4180   30.1300   32.2210 C   0  0  0  0  0  0  0  0  0  0  0  0
   36.1490   29.7620   31.0940 C   0  0  0  0  0  0  0  0  0  0  0  0
   34.5230   31.2110   32.3100 O   0  0  0  0  0  0  0  0  0  0  0  0
   33.7790   30.9560   33.4970 C   0  0  0  0  0  0  0  0  0  0  0  0
   34.6100   30.1370   34.2860 O   0  0  0  0  0  0  0  0  0  0  0  0
   37.4860   28.4640   30.2780 H   0  0  0  0  0  0  0  0  0  0  0  0
   36.3890   27.8290   34.4460 H   0  0  0  0  0  0  0  0  0  0  0  0
   36.0470   30.3430   30.1640 H   0  0  0  0  0  0  0  0  0  0  0  0
   32.8680   30.4050   33.1660 H   0  0  0  0  0  0  0  0  0  0  0  0
   33.5080   31.9010   33.9830 H   0  0  0  0  0  0  0  0  0  0  0  0
   38.9070   24.3410   35.7750 C   0  0  0  0  0  0  0  0  0  0  0  0
   37.9850   24.6470   36.7700 C   0  0  0  0  0  0  0  0  0  0  0  0
   38.1240   23.9950   37.9910 C   0  0  0  0  0  0  0  0  0  0  0  0
   39.1490   23.0970   38.1510 N   0  0  0  0  0  0  0  0  0  0  0  0
   40.0120   22.8360   37.1680 C   0  0  0  0  0  0  0  0  0  0  0  0
   39.8980   23.4460   35.9950 N   0  0  0  0  0  0  0  0  0  0  0  0
   37.2370   25.3620   36.5150 H   0  0  0  0  0  0  0  0  0  0  0  0
   37.3890   24.2610   38.7320 H   0  0  0  0  0  0  0  0  0  0  0  0
   41.0670   21.8410   37.4950 C   0  0  0  0  0  2  0  0  0  0  0  0
   42.0420   21.6810   36.4620 N   0  0  0  0  0  4  0  0  0  0  0  0
   41.6100   21.7070   35.5050 H   0  0  0  0  0  0  0  0  0  0  0  0
   42.6540   20.3720   36.5980 C   0  0  0  0  0  2  0  0  0  0  0  0
   41.9650   19.6650   37.1150 H   0  0  0  0  0  0  0  0  0  0  0  0
   43.1190   22.6610   36.5510 C   0  0  0  0  0  2  0  0  0  0  0  0
   42.6850   23.6150   36.1650 H   0  0  0  0  0  0  0  0  0  0  0  0
  1 30  1  0  0  0  0
  2  1  1  0  0  0  0
  2  7  1  0  0  0  0
  3  2  1  0  0  0  0
  3  9  1  0  0  0  0
  4  5  1  0  0  0  0
  4  3  1  0  0  0  0
  5  6  1  0  0  0  0
  5 13  1  0  0  0  0
  6 14  1  0  0  0  0
  6  1  1  0  0  0  0
  8  2  1  0  0  0  0
 10  3  1  0  0  0  0
 11  4  1  0  0  0  0
 12  5  1  0  0  0  0
 15  6  1  0  0  0  0
 16 17  1  0  0  0  0
 17  4  1  0  0  0  0
 17 18  2  0  0  0  0
 18 26  1  0  0  0  0
 19 18  1  0  0  0  0
 19 24  1  0  0  0  0
 20 22  1  0  0  0  0
 20 19  2  0  0  0  0
 21 16  2  0  0  0  0
 21 20  1  0  0  0  0
 22 23  1  0  0  0  0
 23 29  1  0  0  0  0
 23 24  1  0  0  0  0
 25 16  1  0  0  0  0
 27 21  1  0  0  0  0
 28 23  1  0  0  0  0
 30 35  2  0  0  0  0
 30 31  1  0  0  0  0
 31 32  2  0  0  0  0
 32 33  1  0  0  0  0
 32 37  1  0  0  0  0
 34 38  1  0  0  0  0
 34 33  2  0  0  0  0
 35 34  1  0  0  0  0
 36 31  1  0  0  0  0
 39 43  1  0  0  0  0
 39 41  1  0  0  0  0
 39 38  1  0  0  0  0
 40 39  1  0  0  0  0
 41 42  1  0  0  0  0
 44 43  1  0  0  0  0
M  END
>  <minimizedAffinity>
-5.69546604

$$$$

 OpenBabel03272507493D

 44 47  0  0  0  0  0  0  0  0999 V2000
   37.5690   25.0220   31.8970 N   0  0  0  0  0  0  0  0  0  0  0  0
   38.5790   25.9330   31.4810 C   0  0  0  0  0  0  0  0  0  0  0  0
   38.2570   27.3770   31.5660 C   0  0  0  0  0  0  0  0  0  0  0  0
   36.8890   27.7670   31.2230 C   0  0  0  0  0  0  0  0  0  0  0  0
   35.8540   26.7020   31.6340 C   0  0  0  0  0  0  0  0  0  0  0  0
   36.3860   25.3440   31.1480 C   0  0  0  0  0  0  0  0  0  0  0  0
   39.5330   25.7320   32.0470 H   0  0  0  0  0  0  0  0  0  0  0  0
   38.8230   25.6960   30.4160 H   0  0  0  0  0  0  0  0  0  0  0  0
   38.3770   27.5680   32.6840 H   0  0  0  0  0  0  0  0  0  0  0  0
   38.9930   27.9570   30.9830 H   0  0  0  0  0  0  0  0  0  0  0  0
   36.7030   27.8750   30.1200 H   0  0  0  0  0  0  0  0  0  0  0  0
   34.8950   26.9170   31.1290 H   0  0  0  0  0  0  0  0  0  0  0  0
   35.8080   26.6600   32.7280 H   0  0  0  0  0  0  0  0  0  0  0  0
   35.5880   24.5850   31.3640 H   0  0  0  0  0  0  0  0  0  0  0  0
   36.5440   25.3810   30.0420 H   0  0  0  0  0  0  0  0  0  0  0  0
   36.5320   30.1890   31.1220 C   0  0  0  0  0  0  0  0  0  0  0  0
   36.4170   29.0220   31.8580 C   0  0  0  0  0  0  0  0  0  0  0  0
   35.9220   28.9680   33.1340 C   0  0  0  0  0  0  0  0  0  0  0  0
   35.5110   30.1630   33.7240 C   0  0  0  0  0  0  0  0  0  0  0  0
   35.6250   31.3240   32.9950 C   0  0  0  0  0  0  0  0  0  0  0  0
   36.1270   31.3830   31.6980 C   0  0  0  0  0  0  0  0  0  0  0  0
   35.1640   32.4150   33.7540 O   0  0  0  0  0  0  0  0  0  0  0  0
   34.4370   31.8190   34.8230 C   0  0  0  0  0  0  0  0  0  0  0  0
   34.9710   30.5220   34.9560 O   0  0  0  0  0  0  0  0  0  0  0  0
   36.8910   30.3540   30.1170 H   0  0  0  0  0  0  0  0  0  0  0  0
   35.8490   28.0550   33.6670 H   0  0  0  0  0  0  0  0  0  0  0  0
   36.1870   32.3520   31.1790 H   0  0  0  0  0  0  0  0  0  0  0  0
   33.3770   31.7830   34.4810 H   0  0  0  0  0  0  0  0  0  0  0  0
   34.5340   32.4260   35.7300 H   0  0  0  0  0  0  0  0  0  0  0  0
   37.6680   23.9720   32.8630 C   0  0  0  0  0  0  0  0  0  0  0  0
   37.1290   22.6960   32.7370 C   0  0  0  0  0  0  0  0  0  0  0  0
   37.3360   21.8100   33.7900 C   0  0  0  0  0  0  0  0  0  0  0  0
   38.0500   22.2340   34.8830 N   0  0  0  0  0  0  0  0  0  0  0  0
   38.5470   23.4690   34.9610 C   0  0  0  0  0  0  0  0  0  0  0  0
   38.3620   24.3310   33.9680 N   0  0  0  0  0  0  0  0  0  0  0  0
   36.5970   22.4960   31.8360 H   0  0  0  0  0  0  0  0  0  0  0  0
   36.9030   20.8340   33.6520 H   0  0  0  0  0  0  0  0  0  0  0  0
   39.2950   23.7770   36.2070 C   0  0  0  0  0  2  0  0  0  0  0  0
   39.2280   22.7380   37.1870 N   0  0  0  0  0  4  0  0  0  0  0  0
   38.6100   21.9460   36.8790 H   0  0  0  0  0  0  0  0  0  0  0  0
   38.6300   23.2760   38.3960 C   0  0  0  0  0  2  0  0  0  0  0  0
   37.9780   24.1490   38.1600 H   0  0  0  0  0  0  0  0  0  0  0  0
   40.5440   22.2300   37.5570 C   0  0  0  0  0  2  0  0  0  0  0  0
   40.8610   21.5780   36.7070 H   0  0  0  0  0  0  0  0  0  0  0  0
  1 30  1  0  0  0  0
  2  3  1  0  0  0  0
  2  1  1  0  0  0  0
  2  7  1  0  0  0  0
  3  9  1  0  0  0  0
  4  3  1  0  0  0  0
  4  5  1  0  0  0  0
  4 17  1  0  0  0  0
  5 13  1  0  0  0  0
  6 14  1  0  0  0  0
  6  5  1  0  0  0  0
  6  1  1  0  0  0  0
  8  2  1  0  0  0  0
 10  3  1  0  0  0  0
 11  4  1  0  0  0  0
 12  5  1  0  0  0  0
 15  6  1  0  0  0  0
 16 21  2  0  0  0  0
 16 17  1  0  0  0  0
 17 18  2  0  0  0  0
 18 26  1  0  0  0  0
 18 19  1  0  0  0  0
 19 24  1  0  0  0  0
 20 19  2  0  0  0  0
 20 22  1  0  0  0  0
 21 20  1  0  0  0  0
 22 23  1  0  0  0  0
 23 24  1  0  0  0  0
 23 29  1  0  0  0  0
 25 16  1  0  0  0  0
 27 21  1  0  0  0  0
 28 23  1  0  0  0  0
 30 35  1  0  0  0  0
 31 30  2  0  0  0  0
 31 32  1  0  0  0  0
 32 33  2  0  0  0  0
 33 34  1  0  0  0  0
 34 38  1  0  0  0  0
 35 34  2  0  0  0  0
 36 31  1  0  0  0  0
 37 32  1  0  0  0  0
 38 39  1  0  0  0  0
 39 43  1  0  0  0  0
 39 41  1  0  0  0  0
 40 39  1  0  0  0  0
 42 41  1  0  0  0  0
 44 43  1  0  0  0  0
M  END
>  <minimizedAffinity>
-5.50764608

$$$$

 OpenBabel03272507493D

 44 47  0  0  0  0  0  0  0  0999 V2000
   34.6710   29.6190   32.8790 N   0  0  0  0  0  0  0  0  0  0  0  0
   35.4120   29.0600   31.8010 C   0  0  0  0  0  0  0  0  0  0  0  0
   36.3130   27.9270   32.1220 C   0  0  0  0  0  0  0  0  0  0  0  0
   37.0260   27.9940   33.3970 C   0  0  0  0  0  0  0  0  0  0  0  0
   36.1960   28.6780   34.5000 C   0  0  0  0  0  0  0  0  0  0  0  0
   35.6220   29.9710   33.8980 C   0  0  0  0  0  0  0  0  0  0  0  0
   34.7130   28.7530   30.9730 H   0  0  0  0  0  0  0  0  0  0  0  0
   36.0330   29.8800   31.3630 H   0  0  0  0  0  0  0  0  0  0  0  0
   35.5690   27.0680   32.2120 H   0  0  0  0  0  0  0  0  0  0  0  0
   37.0120   27.7590   31.2840 H   0  0  0  0  0  0  0  0  0  0  0  0
   37.9600   28.6200   33.3710 H   0  0  0  0  0  0  0  0  0  0  0  0
   36.8590   28.9350   35.3450 H   0  0  0  0  0  0  0  0  0  0  0  0
   35.3470   28.0320   34.7510 H   0  0  0  0  0  0  0  0  0  0  0  0
   35.0970   30.5130   34.7280 H   0  0  0  0  0  0  0  0  0  0  0  0
   36.4600   30.6150   33.5340 H   0  0  0  0  0  0  0  0  0  0  0  0
   37.5820   25.6280   33.0870 C   0  0  0  0  0  0  0  0  0  0  0  0
   37.4120   26.6810   33.9700 C   0  0  0  0  0  0  0  0  0  0  0  0
   37.5540   26.5720   35.3280 C   0  0  0  0  0  0  0  0  0  0  0  0
   37.8890   25.3220   35.8490 C   0  0  0  0  0  0  0  0  0  0  0  0
   38.0560   24.2730   34.9750 C   0  0  0  0  0  0  0  0  0  0  0  0
   37.9140   24.3810   33.5930 C   0  0  0  0  0  0  0  0  0  0  0  0
   38.3870   23.1040   35.6830 O   0  0  0  0  0  0  0  0  0  0  0  0
   38.7650   23.5700   36.9750 C   0  0  0  0  0  0  0  0  0  0  0  0
   38.1170   24.8120   37.1240 O   0  0  0  0  0  0  0  0  0  0  0  0
   37.5090   25.5940   32.0110 H   0  0  0  0  0  0  0  0  0  0  0  0
   37.4170   27.4010   35.9730 H   0  0  0  0  0  0  0  0  0  0  0  0
   38.0650   23.4940   32.9580 H   0  0  0  0  0  0  0  0  0  0  0  0
   39.8710   23.6960   36.9350 H   0  0  0  0  0  0  0  0  0  0  0  0
   38.4830   22.8360   37.7380 H   0  0  0  0  0  0  0  0  0  0  0  0
   33.2580   29.8150   32.9730 C   0  0  0  0  0  0  0  0  0  0  0  0
   32.4990   30.6610   32.1710 C   0  0  0  0  0  0  0  0  0  0  0  0
   31.1310   30.7130   32.4170 C   0  0  0  0  0  0  0  0  0  0  0  0
   30.6070   29.9410   33.4230 N   0  0  0  0  0  0  0  0  0  0  0  0
   31.3750   29.1450   34.1690 C   0  0  0  0  0  0  0  0  0  0  0  0
   32.6830   29.0790   33.9520 N   0  0  0  0  0  0  0  0  0  0  0  0
   33.0300   31.2050   31.4250 H   0  0  0  0  0  0  0  0  0  0  0  0
   30.5800   31.3790   31.7730 H   0  0  0  0  0  0  0  0  0  0  0  0
   30.6610   28.3730   35.2180 C   0  0  0  0  0  2  0  0  0  0  0  0
   31.4960   27.9860   36.3120 N   0  0  0  0  0  4  0  0  0  0  0  0
   32.4740   27.7590   36.0000 H   0  0  0  0  0  0  0  0  0  0  0  0
   30.9630   26.7700   36.8990 C   0  0  0  0  0  2  0  0  0  0  0  0
   30.3700   26.1960   36.1490 H   0  0  0  0  0  0  0  0  0  0  0  0
   31.5300   28.9870   37.3730 C   0  0  0  0  0  2  0  0  0  0  0  0
   32.1930   29.8010   36.9920 H   0  0  0  0  0  0  0  0  0  0  0  0
  1 30  1  0  0  0  0
  1  6  1  0  0  0  0
  2  3  1  0  0  0  0
  2  1  1  0  0  0  0
  3  9  1  0  0  0  0
  3  4  1  0  0  0  0
  4 17  1  0  0  0  0
  4  5  1  0  0  0  0
  5 13  1  0  0  0  0
  5 12  1  0  0  0  0
  6  5  1  0  0  0  0
  6 14  1  0  0  0  0
  7  2  1  0  0  0  0
  8  2  1  0  0  0  0
 10  3  1  0  0  0  0
 11  4  1  0  0  0  0
 15  6  1  0  0  0  0
 16 21  2  0  0  0  0
 16 17  1  0  0  0  0
 17 18  2  0  0  0  0
 18 19  1  0  0  0  0
 18 26  1  0  0  0  0
 19 24  1  0  0  0  0
 20 22  1  0  0  0  0
 20 19  2  0  0  0  0
 21 20  1  0  0  0  0
 22 23  1  0  0  0  0
 23 24  1  0  0  0  0
 23 29  1  0  0  0  0
 25 16  1  0  0  0  0
 27 21  1  0  0  0  0
 28 23  1  0  0  0  0
 30 35  1  0  0  0  0
 31 32  1  0  0  0  0
 31 30  2  0  0  0  0
 32 33  2  0  0  0  0
 33 34  1  0  0  0  0
 34 38  1  0  0  0  0
 35 34  2  0  0  0  0
 36 31  1  0  0  0  0
 37 32  1  0  0  0  0
 38 39  1  0  0  0  0
 39 41  1  0  0  0  0
 39 43  1  0  0  0  0
 40 39  1  0  0  0  0
 42 41  1  0  0  0  0
 44 43  1  0  0  0  0
M  END
>  <minimizedAffinity>
-5.48760462

$$$$

 OpenBabel03272507493D

 44 47  0  0  0  0  0  0  0  0999 V2000
   36.7980   27.1640   32.6240 N   0  0  0  0  0  0  0  0  0  0  0  0
   37.4500   27.3490   33.8750 C   0  0  0  0  0  0  0  0  0  0  0  0
   36.8620   28.3470   34.7980 C   0  0  0  0  0  0  0  0  0  0  0  0
   36.3220   29.5650   34.1930 C   0  0  0  0  0  0  0  0  0  0  0  0
   35.6970   29.3070   32.8090 C   0  0  0  0  0  0  0  0  0  0  0  0
   36.7020   28.4590   32.0110 C   0  0  0  0  0  0  0  0  0  0  0  0
   37.5430   26.3610   34.4080 H   0  0  0  0  0  0  0  0  0  0  0  0
   38.5030   27.6570   33.6580 H   0  0  0  0  0  0  0  0  0  0  0  0
   35.9700   27.7700   35.2140 H   0  0  0  0  0  0  0  0  0  0  0  0
   37.5850   28.5870   35.5970 H   0  0  0  0  0  0  0  0  0  0  0  0
   37.0950   30.3500   33.9700 H   0  0  0  0  0  0  0  0  0  0  0  0
   35.5480   30.2720   32.2940 H   0  0  0  0  0  0  0  0  0  0  0  0
   34.7940   28.7010   32.9390 H   0  0  0  0  0  0  0  0  0  0  0  0
   36.2880   28.3530   30.9740 H   0  0  0  0  0  0  0  0  0  0  0  0
   37.6760   29.0040   31.9440 H   0  0  0  0  0  0  0  0  0  0  0  0
   35.6380   31.2260   35.8590 C   0  0  0  0  0  0  0  0  0  0  0  0
   35.2520   30.2330   34.9750 C   0  0  0  0  0  0  0  0  0  0  0  0
   33.9580   29.8210   34.8040 C   0  0  0  0  0  0  0  0  0  0  0  0
   32.9700   30.4410   35.5700 C   0  0  0  0  0  0  0  0  0  0  0  0
   33.3500   31.4270   36.4500 C   0  0  0  0  0  0  0  0  0  0  0  0
   34.6650   31.8500   36.6260 C   0  0  0  0  0  0  0  0  0  0  0  0
   32.2240   31.9280   37.1270 O   0  0  0  0  0  0  0  0  0  0  0  0
   31.1170   31.4600   36.3620 C   0  0  0  0  0  0  0  0  0  0  0  0
   31.5890   30.3160   35.6890 O   0  0  0  0  0  0  0  0  0  0  0  0
   36.6120   31.6400   36.0710 H   0  0  0  0  0  0  0  0  0  0  0  0
   33.7000   29.0560   34.1160 H   0  0  0  0  0  0  0  0  0  0  0  0
   34.8900   32.6470   37.3510 H   0  0  0  0  0  0  0  0  0  0  0  0
   30.8810   32.2800   35.6450 H   0  0  0  0  0  0  0  0  0  0  0  0
   30.2630   31.2590   37.0190 H   0  0  0  0  0  0  0  0  0  0  0  0
   36.3180   25.9460   32.0480 C   0  0  0  0  0  0  0  0  0  0  0  0
   35.3090   25.8370   31.0980 C   0  0  0  0  0  0  0  0  0  0  0  0
   34.9850   24.5580   30.6560 C   0  0  0  0  0  0  0  0  0  0  0  0
   35.6660   23.4850   31.1730 N   0  0  0  0  0  0  0  0  0  0  0  0
   36.6270   23.6380   32.0850 C   0  0  0  0  0  0  0  0  0  0  0  0
   36.9530   24.8490   32.5210 N   0  0  0  0  0  0  0  0  0  0  0  0
   34.8600   26.7500   30.7810 H   0  0  0  0  0  0  0  0  0  0  0  0
   34.1990   24.5190   29.9210 H   0  0  0  0  0  0  0  0  0  0  0  0
   37.2710   22.3810   32.5480 C   0  0  0  0  0  2  0  0  0  0  0  0
   36.4460   21.2240   32.3940 N   0  0  0  0  0  4  0  0  0  0  0  0
   35.6220   21.4090   31.7690 H   0  0  0  0  0  0  0  0  0  0  0  0
   35.9030   20.8630   33.6910 C   0  0  0  0  0  2  0  0  0  0  0  0
   35.8560   21.7530   34.3610 H   0  0  0  0  0  0  0  0  0  0  0  0
   37.1890   20.0660   31.9110 C   0  0  0  0  0  2  0  0  0  0  0  0
   37.3500   20.2490   30.8210 H   0  0  0  0  0  0  0  0  0  0  0  0
  1  2  1  0  0  0  0
  2  7  1  0  0  0  0
  2  3  1  0  0  0  0
  3  9  1  0  0  0  0
  3 10  1  0  0  0  0
  4  3  1  0  0  0  0
  4 17  1  0  0  0  0
  5 13  1  0  0  0  0
  5  4  1  0  0  0  0
  6  1  1  0  0  0  0
  6  5  1  0  0  0  0
  8  2  1  0  0  0  0
 11  4  1  0  0  0  0
 12  5  1  0  0  0  0
 14  6  1  0  0  0  0
 15  6  1  0  0  0  0
 16 25  1  0  0  0  0
 16 21  1  0  0  0  0
 17 16  2  0  0  0  0
 18 17  1  0  0  0  0
 18 19  2  0  0  0  0
 19 24  1  0  0  0  0
 19 20  1  0  0  0  0
 20 21  2  0  0  0  0
 20 22  1  0  0  0  0
 21 27  1  0  0  0  0
 23 29  1  0  0  0  0
 23 22  1  0  0  0  0
 24 23  1  0  0  0  0
 26 18  1  0  0  0  0
 28 23  1  0  0  0  0
 30 35  1  0  0  0  0
 30  1  1  0  0  0  0
 31 30  2  0  0  0  0
 32 31  1  0  0  0  0
 32 33  2  0  0  0  0
 33 34  1  0  0  0  0
 34 35  2  0  0  0  0
 34 38  1  0  0  0  0
 36 31  1  0  0  0  0
 37 32  1  0  0  0  0
 39 38  1  0  0  0  0
 39 41  1  0  0  0  0
 40 39  1  0  0  0  0
 41 42  1  0  0  0  0
 43 39  1  0  0  0  0
 44 43  1  0  0  0  0
M  END
>  <minimizedAffinity>
-5.47384357

$$$$

 OpenBabel03272507493D

 44 47  0  0  0  0  0  0  0  0999 V2000
   36.8930   26.3660   32.1210 N   0  0  0  0  0  0  0  0  0  0  0  0
   37.7140   27.0530   33.0580 C   0  0  0  0  0  0  0  0  0  0  0  0
   37.0820   28.1540   33.8230 C   0  0  0  0  0  0  0  0  0  0  0  0
   36.1270   28.9940   33.1010 C   0  0  0  0  0  0  0  0  0  0  0  0
   35.3250   28.2020   32.0500 C   0  0  0  0  0  0  0  0  0  0  0  0
   36.3340   27.3630   31.2500 C   0  0  0  0  0  0  0  0  0  0  0  0
   38.1730   26.3170   33.7770 H   0  0  0  0  0  0  0  0  0  0  0  0
   38.5800   27.4790   32.4920 H   0  0  0  0  0  0  0  0  0  0  0  0
   36.4800   27.5710   34.5970 H   0  0  0  0  0  0  0  0  0  0  0  0
   37.8630   28.7660   34.3080 H   0  0  0  0  0  0  0  0  0  0  0  0
   36.6010   29.8060   32.4860 H   0  0  0  0  0  0  0  0  0  0  0  0
   34.8230   28.9120   31.3690 H   0  0  0  0  0  0  0  0  0  0  0  0
   34.6610   27.5030   32.5700 H   0  0  0  0  0  0  0  0  0  0  0  0
   35.7600   26.8620   30.4260 H   0  0  0  0  0  0  0  0  0  0  0  0
   37.0930   28.0390   30.7850 H   0  0  0  0  0  0  0  0  0  0  0  0
   33.7730   29.3850   33.6590 C   0  0  0  0  0  0  0  0  0  0  0  0
   35.1010   29.6490   33.9500 C   0  0  0  0  0  0  0  0  0  0  0  0
   35.5130   30.4900   34.9480 C   0  0  0  0  0  0  0  0  0  0  0  0
   34.5320   31.1190   35.7160 C   0  0  0  0  0  0  0  0  0  0  0  0
   33.2120   30.8600   35.4280 C   0  0  0  0  0  0  0  0  0  0  0  0
   32.7900   30.0040   34.4150 C   0  0  0  0  0  0  0  0  0  0  0  0
   32.3790   31.5810   36.3020 O   0  0  0  0  0  0  0  0  0  0  0  0
   33.2460   31.9980   37.3520 C   0  0  0  0  0  0  0  0  0  0  0  0
   34.5350   32.0120   36.7830 O   0  0  0  0  0  0  0  0  0  0  0  0
   33.3310   28.7400   32.9140 H   0  0  0  0  0  0  0  0  0  0  0  0
   36.5390   30.6680   35.1420 H   0  0  0  0  0  0  0  0  0  0  0  0
   31.7130   29.8470   34.2460 H   0  0  0  0  0  0  0  0  0  0  0  0
   33.1630   31.2130   38.1380 H   0  0  0  0  0  0  0  0  0  0  0  0
   32.9290   32.9730   37.7390 H   0  0  0  0  0  0  0  0  0  0  0  0
   36.6470   24.9610   32.0230 C   0  0  0  0  0  0  0  0  0  0  0  0
   35.7040   24.3540   31.2010 C   0  0  0  0  0  0  0  0  0  0  0  0
   35.6180   22.9670   31.2460 C   0  0  0  0  0  0  0  0  0  0  0  0
   36.4530   22.2760   32.0890 N   0  0  0  0  0  0  0  0  0  0  0  0
   37.3420   22.9020   32.8610 C   0  0  0  0  0  0  0  0  0  0  0  0
   37.4420   24.2250   32.8340 N   0  0  0  0  0  0  0  0  0  0  0  0
   35.1190   25.0060   30.5950 H   0  0  0  0  0  0  0  0  0  0  0  0
   34.8750   22.5380   30.5940 H   0  0  0  0  0  0  0  0  0  0  0  0
   38.1740   22.0180   33.7180 C   0  0  0  0  0  2  0  0  0  0  0  0
   38.7580   22.6890   34.8370 N   0  0  0  0  0  4  0  0  0  0  0  0
   38.8900   23.7150   34.6560 H   0  0  0  0  0  0  0  0  0  0  0  0
   40.0820   22.1410   35.0700 C   0  0  0  0  0  2  0  0  0  0  0  0
   40.5030   21.7110   34.1310 H   0  0  0  0  0  0  0  0  0  0  0  0
   37.9980   22.4930   36.0670 C   0  0  0  0  0  2  0  0  0  0  0  0
   37.1060   23.1580   35.9750 H   0  0  0  0  0  0  0  0  0  0  0  0
  1  2  1  0  0  0  0
  2  7  1  0  0  0  0
  2  3  1  0  0  0  0
  3 10  1  0  0  0  0
  3  9  1  0  0  0  0
  4  3  1  0  0  0  0
  4 17  1  0  0  0  0
  5 13  1  0  0  0  0
  5  4  1  0  0  0  0
  6  5  1  0  0  0  0
  6  1  1  0  0  0  0
  8  2  1  0  0  0  0
 11  4  1  0  0  0  0
 12  5  1  0  0  0  0
 14  6  1  0  0  0  0
 15  6  1  0  0  0  0
 16 17  2  0  0  0  0
 16 21  1  0  0  0  0
 17 18  1  0  0  0  0
 18 26  1  0  0  0  0
 18 19  2  0  0  0  0
 19 24  1  0  0  0  0
 20 19  1  0  0  0  0
 20 22  1  0  0  0  0
 21 20  2  0  0  0  0
 22 23  1  0  0  0  0
 23 29  1  0  0  0  0
 23 28  1  0  0  0  0
 24 23  1  0  0  0  0
 25 16  1  0  0  0  0
 27 21  1  0  0  0  0
 30  1  1  0  0  0  0
 30 35  1  0  0  0  0
 31 32  1  0  0  0  0
 31 30  2  0  0  0  0
 32 33  2  0  0  0  0
 33 34  1  0  0  0  0
 34 38  1  0  0  0  0
 35 34  2  0  0  0  0
 36 31  1  0  0  0  0
 37 32  1  0  0  0  0
 38 39  1  0  0  0  0
 39 41  1  0  0  0  0
 39 43  1  0  0  0  0
 40 39  1  0  0  0  0
 42 41  1  0  0  0  0
 44 43  1  0  0  0  0
M  END
>  <minimizedAffinity>
-5.43382263

$$$$

 OpenBabel03272507493D

 44 47  0  0  0  0  0  0  0  0999 V2000
   36.9890   27.5110   31.5670 N   0  0  0  0  0  0  0  0  0  0  0  0
   36.6570   26.1780   31.1970 C   0  0  0  0  0  0  0  0  0  0  0  0
   36.9310   25.1160   32.1930 C   0  0  0  0  0  0  0  0  0  0  0  0
   38.1540   25.2550   32.9830 C   0  0  0  0  0  0  0  0  0  0  0  0
   38.4950   26.7260   33.2860 C   0  0  0  0  0  0  0  0  0  0  0  0
   38.3700   27.5000   31.9620 C   0  0  0  0  0  0  0  0  0  0  0  0
   35.5750   26.1250   30.8860 H   0  0  0  0  0  0  0  0  0  0  0  0
   37.2330   25.9380   30.2690 H   0  0  0  0  0  0  0  0  0  0  0  0
   36.0600   25.2580   32.9170 H   0  0  0  0  0  0  0  0  0  0  0  0
   36.8820   24.1270   31.7060 H   0  0  0  0  0  0  0  0  0  0  0  0
   39.0820   24.8900   32.4640 H   0  0  0  0  0  0  0  0  0  0  0  0
   39.5370   26.7890   33.6440 H   0  0  0  0  0  0  0  0  0  0  0  0
   37.7390   27.1290   33.9690 H   0  0  0  0  0  0  0  0  0  0  0  0
   38.7100   28.5490   32.1650 H   0  0  0  0  0  0  0  0  0  0  0  0
   39.0570   27.0500   31.2030 H   0  0  0  0  0  0  0  0  0  0  0  0
   38.0990   23.2070   34.3280 C   0  0  0  0  0  0  0  0  0  0  0  0
   38.1220   24.5910   34.3100 C   0  0  0  0  0  0  0  0  0  0  0  0
   38.0910   25.3710   35.4350 C   0  0  0  0  0  0  0  0  0  0  0  0
   38.0320   24.7290   36.6720 C   0  0  0  0  0  0  0  0  0  0  0  0
   38.0080   23.3530   36.6920 C   0  0  0  0  0  0  0  0  0  0  0  0
   38.0400   22.5570   35.5510 C   0  0  0  0  0  0  0  0  0  0  0  0
   37.9470   22.8930   38.0200 O   0  0  0  0  0  0  0  0  0  0  0  0
   38.2990   24.0290   38.8030 C   0  0  0  0  0  0  0  0  0  0  0  0
   37.9870   25.1440   38.0000 O   0  0  0  0  0  0  0  0  0  0  0  0
   38.1310   22.4930   33.5190 H   0  0  0  0  0  0  0  0  0  0  0  0
   38.1100   26.4290   35.3820 H   0  0  0  0  0  0  0  0  0  0  0  0
   38.0180   21.4600   35.6490 H   0  0  0  0  0  0  0  0  0  0  0  0
   39.3980   23.9490   38.9690 H   0  0  0  0  0  0  0  0  0  0  0  0
   37.7580   24.0130   39.7560 H   0  0  0  0  0  0  0  0  0  0  0  0
   36.1470   28.6670   31.5600 C   0  0  0  0  0  0  0  0  0  0  0  0
   36.3280   29.8010   30.7760 C   0  0  0  0  0  0  0  0  0  0  0  0
   35.3950   30.8240   30.9100 C   0  0  0  0  0  0  0  0  0  0  0  0
   34.3590   30.6660   31.7970 N   0  0  0  0  0  0  0  0  0  0  0  0
   34.2270   29.5600   32.5300 C   0  0  0  0  0  0  0  0  0  0  0  0
   35.1050   28.5710   32.4180 N   0  0  0  0  0  0  0  0  0  0  0  0
   37.1740   29.7960   30.1290 H   0  0  0  0  0  0  0  0  0  0  0  0
   35.5730   31.6830   30.2850 H   0  0  0  0  0  0  0  0  0  0  0  0
   33.0550   29.5380   33.4430 C   0  0  0  0  0  2  0  0  0  0  0  0
   33.4080   29.4630   34.8260 N   0  0  0  0  0  4  0  0  0  0  0  0
   34.1560   28.7470   35.0030 H   0  0  0  0  0  0  0  0  0  0  0  0
   32.2450   29.0330   35.5810 C   0  0  0  0  0  2  0  0  0  0  0  0
   31.5490   28.4480   34.9360 H   0  0  0  0  0  0  0  0  0  0  0  0
   33.8130   30.7540   35.3720 C   0  0  0  0  0  2  0  0  0  0  0  0
   34.8470   30.9270   34.9900 H   0  0  0  0  0  0  0  0  0  0  0  0
  1  6  1  0  0  0  0
  2  1  1  0  0  0  0
  2  3  1  0  0  0  0
  3  9  1  0  0  0  0
  3  4  1  0  0  0  0
  4  5  1  0  0  0  0
  4 17  1  0  0  0  0
  5 12  1  0  0  0  0
  5 13  1  0  0  0  0
  6 14  1  0  0  0  0
  6  5  1  0  0  0  0
  7  2  1  0  0  0  0
  8  2  1  0  0  0  0
 10  3  1  0  0  0  0
 11  4  1  0  0  0  0
 15  6  1  0  0  0  0
 16 21  1  0  0  0  0
 17 16  2  0  0  0  0
 17 18  1  0  0  0  0
 18 19  2  0  0  0  0
 19 20  1  0  0  0  0
 19 24  1  0  0  0  0
 20 22  1  0  0  0  0
 21 27  1  0  0  0  0
 21 20  2  0  0  0  0
 22 23  1  0  0  0  0
 23 28  1  0  0  0  0
 23 29  1  0  0  0  0
 24 23  1  0  0  0  0
 25 16  1  0  0  0  0
 26 18  1  0  0  0  0
 30  1  1  0  0  0  0
 30 35  1  0  0  0  0
 31 32  1  0  0  0  0
 31 30  2  0  0  0  0
 32 33  2  0  0  0  0
 33 34  1  0  0  0  0
 34 38  1  0  0  0  0
 35 34  2  0  0  0  0
 36 31  1  0  0  0  0
 37 32  1  0  0  0  0
 38 39  1  0  0  0  0
 39 40  1  0  0  0  0
 39 43  1  0  0  0  0
 39 41  1  0  0  0  0
 42 41  1  0  0  0  0
 44 43  1  0  0  0  0
M  END
>  <minimizedAffinity>
-5.40475178

$$$$

 OpenBabel03272507493D

 44 47  0  0  0  0  0  0  0  0999 V2000
   37.6040   26.2850   33.3050 N   0  0  0  0  0  0  0  0  0  0  0  0
   37.9080   27.1550   34.3880 C   0  0  0  0  0  0  0  0  0  0  0  0
   36.9220   28.2190   34.6910 C   0  0  0  0  0  0  0  0  0  0  0  0
   36.2690   28.8560   33.5470 C   0  0  0  0  0  0  0  0  0  0  0  0
   36.0370   27.8750   32.3820 C   0  0  0  0  0  0  0  0  0  0  0  0
   37.3570   27.1170   32.1600 C   0  0  0  0  0  0  0  0  0  0  0  0
   38.1010   26.5530   35.3200 H   0  0  0  0  0  0  0  0  0  0  0  0
   38.8850   27.6460   34.1560 H   0  0  0  0  0  0  0  0  0  0  0  0
   36.1140   27.6280   35.2370 H   0  0  0  0  0  0  0  0  0  0  0  0
   37.3800   28.9720   35.3570 H   0  0  0  0  0  0  0  0  0  0  0  0
   36.8750   29.6700   33.0650 H   0  0  0  0  0  0  0  0  0  0  0  0
   35.7920   28.4490   31.4700 H   0  0  0  0  0  0  0  0  0  0  0  0
   35.2870   27.1380   32.6870 H   0  0  0  0  0  0  0  0  0  0  0  0
   37.2150   26.4740   31.2520 H   0  0  0  0  0  0  0  0  0  0  0  0
   38.1740   27.8500   31.9450 H   0  0  0  0  0  0  0  0  0  0  0  0
   34.8370   30.3350   34.8770 C   0  0  0  0  0  0  0  0  0  0  0  0
   34.9310   29.4330   33.8310 C   0  0  0  0  0  0  0  0  0  0  0  0
   33.8670   29.0300   33.0700 C   0  0  0  0  0  0  0  0  0  0  0  0
   32.6130   29.5620   33.3700 C   0  0  0  0  0  0  0  0  0  0  0  0
   32.5160   30.4580   34.4100 C   0  0  0  0  0  0  0  0  0  0  0  0
   33.5970   30.8700   35.1850 C   0  0  0  0  0  0  0  0  0  0  0  0
   31.1830   30.8790   34.5600 O   0  0  0  0  0  0  0  0  0  0  0  0
   30.5500   30.4820   33.3470 C   0  0  0  0  0  0  0  0  0  0  0  0
   31.3280   29.4160   32.8550 O   0  0  0  0  0  0  0  0  0  0  0  0
   35.5970   30.7330   35.5330 H   0  0  0  0  0  0  0  0  0  0  0  0
   33.9770   28.3370   32.2750 H   0  0  0  0  0  0  0  0  0  0  0  0
   33.4390   31.5920   36.0020 H   0  0  0  0  0  0  0  0  0  0  0  0
   30.6110   31.3680   32.6740 H   0  0  0  0  0  0  0  0  0  0  0  0
   29.5050   30.2090   33.5380 H   0  0  0  0  0  0  0  0  0  0  0  0
   37.5490   24.8560   33.3060 C   0  0  0  0  0  0  0  0  0  0  0  0
   37.0450   24.0590   32.2840 C   0  0  0  0  0  0  0  0  0  0  0  0
   37.0810   22.6820   32.4730 C   0  0  0  0  0  0  0  0  0  0  0  0
   37.6040   22.1850   33.6410 N   0  0  0  0  0  0  0  0  0  0  0  0
   38.0750   22.9890   34.5960 C   0  0  0  0  0  0  0  0  0  0  0  0
   38.0500   24.3060   34.4370 N   0  0  0  0  0  0  0  0  0  0  0  0
   36.6680   24.5720   31.4300 H   0  0  0  0  0  0  0  0  0  0  0  0
   36.6820   22.1020   31.6580 H   0  0  0  0  0  0  0  0  0  0  0  0
   38.6070   22.3010   35.8010 C   0  0  0  0  0  2  0  0  0  0  0  0
   39.0200   23.1970   36.8350 N   0  0  0  0  0  4  0  0  0  0  0  0
   39.3120   24.1320   36.4530 H   0  0  0  0  0  0  0  0  0  0  0  0
   40.1890   22.6420   37.4940 C   0  0  0  0  0  2  0  0  0  0  0  0
   40.7410   21.9580   36.8080 H   0  0  0  0  0  0  0  0  0  0  0  0
   38.0010   23.3750   37.8630 C   0  0  0  0  0  2  0  0  0  0  0  0
   37.2370   24.0520   37.4110 H   0  0  0  0  0  0  0  0  0  0  0  0
  1 30  1  0  0  0  0
  1  2  1  0  0  0  0
  2  3  1  0  0  0  0
  2  7  1  0  0  0  0
  3  9  1  0  0  0  0
  3 10  1  0  0  0  0
  4 17  1  0  0  0  0
  4  3  1  0  0  0  0
  5 13  1  0  0  0  0
  5  4  1  0  0  0  0
  6  5  1  0  0  0  0
  6  1  1  0  0  0  0
  8  2  1  0  0  0  0
 11  4  1  0  0  0  0
 12  5  1  0  0  0  0
 14  6  1  0  0  0  0
 15  6  1  0  0  0  0
 16 21  1  0  0  0  0
 16 25  1  0  0  0  0
 17 16  2  0  0  0  0
 18 19  2  0  0  0  0
 18 17  1  0  0  0  0
 19 20  1  0  0  0  0
 20 22  1  0  0  0  0
 20 21  2  0  0  0  0
 21 27  1  0  0  0  0
 23 29  1  0  0  0  0
 23 22  1  0  0  0  0
 24 23  1  0  0  0  0
 24 19  1  0  0  0  0
 26 18  1  0  0  0  0
 28 23  1  0  0  0  0
 30 35  1  0  0  0  0
 31 32  1  0  0  0  0
 31 30  2  0  0  0  0
 32 33  2  0  0  0  0
 33 34  1  0  0  0  0
 34 38  1  0  0  0  0
 35 34  2  0  0  0  0
 36 31  1  0  0  0  0
 37 32  1  0  0  0  0
 38 39  1  0  0  0  0
 39 41  1  0  0  0  0
 39 43  1  0  0  0  0
 40 39  1  0  0  0  0
 42 41  1  0  0  0  0
 44 43  1  0  0  0  0
M  END
>  <minimizedAffinity>
-5.32852793

$$$$

 OpenBabel03272507493D

 44 47  0  0  0  0  0  0  0  0999 V2000
   37.0700   27.5990   31.8390 N   0  0  0  0  0  0  0  0  0  0  0  0
   36.5690   26.2820   31.6470 C   0  0  0  0  0  0  0  0  0  0  0  0
   37.0410   25.2400   32.5890 C   0  0  0  0  0  0  0  0  0  0  0  0
   38.4400   25.3170   33.0100 C   0  0  0  0  0  0  0  0  0  0  0  0
   38.9390   26.7700   33.1260 C   0  0  0  0  0  0  0  0  0  0  0  0
   38.5030   27.5010   31.8460 C   0  0  0  0  0  0  0  0  0  0  0  0
   35.4430   26.2960   31.6440 H   0  0  0  0  0  0  0  0  0  0  0  0
   36.8540   25.9650   30.6130 H   0  0  0  0  0  0  0  0  0  0  0  0
   36.4120   25.4720   33.5120 H   0  0  0  0  0  0  0  0  0  0  0  0
   36.8010   24.2390   32.1890 H   0  0  0  0  0  0  0  0  0  0  0  0
   39.1660   24.8670   32.2800 H   0  0  0  0  0  0  0  0  0  0  0  0
   40.0410   26.7700   33.1850 H   0  0  0  0  0  0  0  0  0  0  0  0
   38.4250   27.2520   33.9650 H   0  0  0  0  0  0  0  0  0  0  0  0
   38.9490   28.5300   31.8900 H   0  0  0  0  0  0  0  0  0  0  0  0
   38.9270   26.9750   30.9550 H   0  0  0  0  0  0  0  0  0  0  0  0
   37.8600   24.9890   35.3680 C   0  0  0  0  0  0  0  0  0  0  0  0
   38.7320   24.7070   34.3310 C   0  0  0  0  0  0  0  0  0  0  0  0
   39.8500   23.9270   34.4610 C   0  0  0  0  0  0  0  0  0  0  0  0
   40.1240   23.3860   35.7170 C   0  0  0  0  0  0  0  0  0  0  0  0
   39.2600   23.6660   36.7510 C   0  0  0  0  0  0  0  0  0  0  0  0
   38.1220   24.4580   36.6220 C   0  0  0  0  0  0  0  0  0  0  0  0
   39.7010   23.0380   37.9300 O   0  0  0  0  0  0  0  0  0  0  0  0
   40.6560   22.0810   37.4830 C   0  0  0  0  0  0  0  0  0  0  0  0
   41.1210   22.5720   36.2470 O   0  0  0  0  0  0  0  0  0  0  0  0
   36.9530   25.5740   35.3850 H   0  0  0  0  0  0  0  0  0  0  0  0
   40.4950   23.7320   33.6430 H   0  0  0  0  0  0  0  0  0  0  0  0
   37.4780   24.6360   37.4970 H   0  0  0  0  0  0  0  0  0  0  0  0
   40.0890   21.1310   37.3510 H   0  0  0  0  0  0  0  0  0  0  0  0
   41.4480   21.9620   38.2310 H   0  0  0  0  0  0  0  0  0  0  0  0
   36.3300   28.8120   31.9960 C   0  0  0  0  0  0  0  0  0  0  0  0
   35.9370   29.6650   30.9700 C   0  0  0  0  0  0  0  0  0  0  0  0
   35.2180   30.8010   31.3260 C   0  0  0  0  0  0  0  0  0  0  0  0
   34.9360   31.0210   32.6510 N   0  0  0  0  0  0  0  0  0  0  0  0
   35.3350   30.1750   33.6020 C   0  0  0  0  0  0  0  0  0  0  0  0
   36.0220   29.0850   33.2850 N   0  0  0  0  0  0  0  0  0  0  0  0
   36.2210   29.3770   29.9840 H   0  0  0  0  0  0  0  0  0  0  0  0
   34.9340   31.4330   30.5010 H   0  0  0  0  0  0  0  0  0  0  0  0
   34.9530   30.5500   34.9880 C   0  0  0  0  0  2  0  0  0  0  0  0
   33.5440   30.6990   35.1740 N   0  0  0  0  0  4  0  0  0  0  0  0
   33.1180   31.3430   34.4620 H   0  0  0  0  0  0  0  0  0  0  0  0
   33.3060   31.3080   36.4700 C   0  0  0  0  0  2  0  0  0  0  0  0
   34.1870   31.9100   36.7910 H   0  0  0  0  0  0  0  0  0  0  0  0
   32.8410   29.4200   35.1730 C   0  0  0  0  0  2  0  0  0  0  0  0
   32.7920   29.1080   34.1020 H   0  0  0  0  0  0  0  0  0  0  0  0
  1  6  1  0  0  0  0
  1 30  1  0  0  0  0
  2  1  1  0  0  0  0
  2  3  1  0  0  0  0
  3  4  1  0  0  0  0
  3  9  1  0  0  0  0
  4  5  1  0  0  0  0
  4 17  1  0  0  0  0
  5 12  1  0  0  0  0
  5 13  1  0  0  0  0
  6 14  1  0  0  0  0
  6  5  1  0  0  0  0
  7  2  1  0  0  0  0
  8  2  1  0  0  0  0
 10  3  1  0  0  0  0
 11  4  1  0  0  0  0
 15  6  1  0  0  0  0
 16 25  1  0  0  0  0
 16 21  1  0  0  0  0
 17 18  1  0  0  0  0
 17 16  2  0  0  0  0
 18 19  2  0  0  0  0
 19 24  1  0  0  0  0
 19 20  1  0  0  0  0
 20 22  1  0  0  0  0
 21 20  2  0  0  0  0
 21 27  1  0  0  0  0
 23 22  1  0  0  0  0
 23 29  1  0  0  0  0
 24 23  1  0  0  0  0
 26 18  1  0  0  0  0
 28 23  1  0  0  0  0
 30 35  1  0  0  0  0
 31 32  1  0  0  0  0
 31 30  2  0  0  0  0
 32 33  2  0  0  0  0
 33 34  1  0  0  0  0
 34 38  1  0  0  0  0
 35 34  2  0  0  0  0
 36 31  1  0  0  0  0
 37 32  1  0  0  0  0
 38 39  1  0  0  0  0
 39 41  1  0  0  0  0
 40 39  1  0  0  0  0
 41 42  1  0  0  0  0
 43 39  1  0  0  0  0
 44 43  1  0  0  0  0
M  END
>  <minimizedAffinity>
-5.25145817

$$$$

 OpenBabel03272507493D

 44 47  0  0  0  0  0  0  0  0999 V2000
   36.6020   26.4640   31.7780 N   0  0  0  0  0  0  0  0  0  0  0  0
   35.5260   25.9280   31.0170 C   0  0  0  0  0  0  0  0  0  0  0  0
   35.4630   24.4530   30.8900 C   0  0  0  0  0  0  0  0  0  0  0  0
   36.7370   23.7500   30.7440 C   0  0  0  0  0  0  0  0  0  0  0  0
   37.8750   24.4250   31.5340 C   0  0  0  0  0  0  0  0  0  0  0  0
   37.8120   25.9290   31.2190 C   0  0  0  0  0  0  0  0  0  0  0  0
   34.5450   26.3080   31.4210 H   0  0  0  0  0  0  0  0  0  0  0  0
   35.5990   26.3600   29.9880 H   0  0  0  0  0  0  0  0  0  0  0  0
   35.0450   24.1580   31.9090 H   0  0  0  0  0  0  0  0  0  0  0  0
   34.7630   24.1790   30.0810 H   0  0  0  0  0  0  0  0  0  0  0  0
   37.1400   23.7390   29.6950 H   0  0  0  0  0  0  0  0  0  0  0  0
   38.8430   24.0220   31.1880 H   0  0  0  0  0  0  0  0  0  0  0  0
   37.6750   24.3090   32.6050 H   0  0  0  0  0  0  0  0  0  0  0  0
   38.6980   26.4030   31.7190 H   0  0  0  0  0  0  0  0  0  0  0  0
   37.9100   26.0810   30.1160 H   0  0  0  0  0  0  0  0  0  0  0  0
   37.9560   21.7710   31.5200 C   0  0  0  0  0  0  0  0  0  0  0  0
   36.7330   22.3410   31.2110 C   0  0  0  0  0  0  0  0  0  0  0  0
   35.5380   21.6770   31.2880 C   0  0  0  0  0  0  0  0  0  0  0  0
   35.5580   20.3450   31.7010 C   0  0  0  0  0  0  0  0  0  0  0  0
   36.7720   19.7750   32.0070 C   0  0  0  0  0  0  0  0  0  0  0  0
   37.9890   20.4470   31.9310 C   0  0  0  0  0  0  0  0  0  0  0  0
   36.5900   18.4370   32.3990 O   0  0  0  0  0  0  0  0  0  0  0  0
   35.1940   18.3340   32.6630 C   0  0  0  0  0  0  0  0  0  0  0  0
   34.5970   19.3580   31.9020 O   0  0  0  0  0  0  0  0  0  0  0  0
   38.9500   22.1910   31.5090 H   0  0  0  0  0  0  0  0  0  0  0  0
   34.6200   22.1480   31.0440 H   0  0  0  0  0  0  0  0  0  0  0  0
   38.9210   19.9220   32.1930 H   0  0  0  0  0  0  0  0  0  0  0  0
   35.0820   18.5270   33.7550 H   0  0  0  0  0  0  0  0  0  0  0  0
   34.8350   17.3310   32.4050 H   0  0  0  0  0  0  0  0  0  0  0  0
   36.5380   27.3640   32.8870 C   0  0  0  0  0  0  0  0  0  0  0  0
   37.2440   27.2400   34.0790 C   0  0  0  0  0  0  0  0  0  0  0  0
   37.0490   28.2250   35.0410 C   0  0  0  0  0  0  0  0  0  0  0  0
   36.1820   29.2540   34.7710 N   0  0  0  0  0  0  0  0  0  0  0  0
   35.5250   29.3320   33.6130 C   0  0  0  0  0  0  0  0  0  0  0  0
   35.6960   28.4030   32.6800 N   0  0  0  0  0  0  0  0  0  0  0  0
   37.8840   26.3920   34.1600 H   0  0  0  0  0  0  0  0  0  0  0  0
   37.6140   28.0900   35.9480 H   0  0  0  0  0  0  0  0  0  0  0  0
   34.6240   30.5050   33.4700 C   0  0  0  0  0  2  0  0  0  0  0  0
   33.2860   30.2550   33.9060 N   0  0  0  0  0  4  0  0  0  0  0  0
   33.1630   29.2720   34.2560 H   0  0  0  0  0  0  0  0  0  0  0  0
   32.3910   30.3990   32.7720 C   0  0  0  0  0  2  0  0  0  0  0  0
   32.9320   30.2100   31.8160 H   0  0  0  0  0  0  0  0  0  0  0  0
   32.8390   31.2050   34.9190 C   0  0  0  0  0  2  0  0  0  0  0  0
   33.3390   30.8880   35.8660 H   0  0  0  0  0  0  0  0  0  0  0  0
  1 30  1  0  0  0  0
  2  7  1  0  0  0  0
  2  1  1  0  0  0  0
  3  2  1  0  0  0  0
  3  9  1  0  0  0  0
  4  3  1  0  0  0  0
  4 17  1  0  0  0  0
  4  5  1  0  0  0  0
  5 13  1  0  0  0  0
  6  5  1  0  0  0  0
  6 14  1  0  0  0  0
  6  1  1  0  0  0  0
  8  2  1  0  0  0  0
 10  3  1  0  0  0  0
 11  4  1  0  0  0  0
 12  5  1  0  0  0  0
 15  6  1  0  0  0  0
 16 21  1  0  0  0  0
 17 18  1  0  0  0  0
 17 16  2  0  0  0  0
 18 19  2  0  0  0  0
 19 24  1  0  0  0  0
 19 20  1  0  0  0  0
 20 22  1  0  0  0  0
 21 20  2  0  0  0  0
 21 27  1  0  0  0  0
 22 23  1  0  0  0  0
 23 28  1  0  0  0  0
 24 23  1  0  0  0  0
 25 16  1  0  0  0  0
 26 18  1  0  0  0  0
 29 23  1  0  0  0  0
 30 31  1  0  0  0  0
 31 36  1  0  0  0  0
 31 32  2  0  0  0  0
 32 37  1  0  0  0  0
 33 32  1  0  0  0  0
 34 33  2  0  0  0  0
 35 30  2  0  0  0  0
 35 34  1  0  0  0  0
 38 34  1  0  0  0  0
 38 39  1  0  0  0  0
 39 40  1  0  0  0  0
 39 43  1  0  0  0  0
 41 39  1  0  0  0  0
 42 41  1  0  0  0  0
 43 44  1  0  0  0  0
M  END
>  <minimizedAffinity>
-5.19390583

$$$$
