
 OpenBabel03272502173D

 31 32  0  0  1  0  0  0  0  0999 V2000
   36.1700   29.4340   49.3450 S   0  0  0  0  0  0  0  0  0  0  0  0
   33.5900   28.6990   49.0330 N   0  0  0  0  0  0  0  0  0  0  0  0
   34.4370   29.8750   48.9410 C   0  0  2  0  0  0  0  0  0  0  0  0
   34.3750   30.3870   47.5180 C   0  0  0  0  0  0  0  0  0  0  0  0
   33.2490   29.8720   46.8370 O   0  0  0  0  0  0  0  0  0  0  0  0
   33.5390   28.5110   46.6660 C   0  0  0  0  0  0  0  0  0  0  0  0
   33.9180   27.8180   47.9440 C   0  0  2  0  0  0  0  0  0  0  0  0
   32.6180   29.0520   48.8710 H   0  0  0  0  0  0  0  0  0  0  0  0
   34.1260   30.6830   49.6290 H   0  0  0  0  0  0  0  0  0  0  0  0
   35.2640   29.9870   46.9770 H   0  0  0  0  0  0  0  0  0  0  0  0
   34.4130   31.4920   47.4580 H   0  0  0  0  0  0  0  0  0  0  0  0
   34.4140   28.3880   45.9690 H   0  0  0  0  0  0  0  0  0  0  0  0
   32.6880   28.0160   46.1660 H   0  0  0  0  0  0  0  0  0  0  0  0
   35.0000   27.5520   48.0000 H   0  0  0  0  0  0  0  0  0  0  0  0
   33.1540   26.6370   48.1170 O   0  0  0  0  0  0  0  0  0  0  0  0
   32.6640   26.4070   47.2970 H   0  0  0  0  0  0  0  0  0  0  0  0
   37.2800   30.7070   48.8170 C   0  0  0  0  0  0  0  0  0  0  0  0
   37.2420   31.8330   49.6660 C   0  0  0  0  0  0  0  0  0  0  0  0
   38.0680   32.9210   49.3670 C   0  0  0  0  0  0  0  0  0  0  0  0
   38.8750   32.8330   48.2600 N   0  0  0  0  0  0  0  0  0  0  0  0
   38.8760   31.7330   47.4790 C   0  0  0  0  0  0  0  0  0  0  0  0
   38.0970   30.6900   47.7470 N   0  0  0  0  0  0  0  0  0  0  0  0
   36.6330   31.9540   50.5390 H   0  0  0  0  0  0  0  0  0  0  0  0
   38.0760   33.8030   49.9840 H   0  0  0  0  0  0  0  0  0  0  0  0
   39.7370   31.6060   46.2740 C   0  0  0  0  0  2  0  0  0  0  0  0
   38.9070   31.3500   45.1010 N   0  0  0  0  0  4  0  0  0  0  0  0
   38.0810   30.8180   45.4460 H   0  0  0  0  0  0  0  0  0  0  0  0
   38.5080   32.6530   44.5830 C   0  0  0  0  0  2  0  0  0  0  0  0
   38.2740   32.5960   43.5000 H   0  0  0  0  0  0  0  0  0  0  0  0
   39.6280   30.5810   44.1130 C   0  0  0  0  0  2  0  0  0  0  0  0
   39.3630   29.5180   44.1850 H   0  0  0  0  0  0  0  0  0  0  0  0
  3  2  1  0  0  0  0
  3  1  1  0  0  0  0
  3  9  1  1  0  0  0
  4  3  1  0  0  0  0
  5  4  1  0  0  0  0
  6  5  1  0  0  0  0
  6  7  1  0  0  0  0
  7 14  1  1  0  0  0
  7 15  1  0  0  0  0
  7  2  1  0  0  0  0
  8  2  1  0  0  0  0
 10  4  1  0  0  0  0
 11  4  1  0  0  0  0
 12  6  1  0  0  0  0
 13  6  1  0  0  0  0
 16 15  1  0  0  0  0
 17  1  1  0  0  0  0
 17 18  1  0  0  0  0
 18 23  1  0  0  0  0
 19 18  2  0  0  0  0
 19 24  1  0  0  0  0
 20 19  1  0  0  0  0
 21 22  1  0  0  0  0
 21 20  2  0  0  0  0
 22 17  2  0  0  0  0
 25 21  1  0  0  0  0
 26 27  1  0  0  0  0
 26 25  1  0  0  0  0
 28 26  1  0  0  0  0
 29 28  1  0  0  0  0
 30 31  1  0  0  0  0
 30 26  1  0  0  0  0
M  END
>  <minimizedAffinity>
-4.807621

>  <minimizedRMSD>
0.263539284

$$$$
