
 OpenBabel03272500163D

 29 30  0  0  0  0  0  0  0  0999 V2000
   40.1110   25.9100   32.3910 Cl  0  0  0  0  0  0  0  0  0  0  0  0
   38.7210   26.9640   32.2070 C   0  0  0  0  0  0  0  0  0  0  0  0
   37.7610   27.0340   33.2120 C   0  0  0  0  0  0  0  0  0  0  0  0
   36.6350   27.8670   33.1000 C   0  0  0  0  0  0  0  0  0  0  0  0
   36.5210   28.6200   31.9430 C   0  0  0  0  0  0  0  0  0  0  0  0
   37.4590   28.5680   30.9300 C   0  0  0  0  0  0  0  0  0  0  0  0
   37.2310   29.5520   29.5120 Cl  0  0  0  0  0  0  0  0  0  0  0  0
   38.5670   27.7270   31.0770 C   0  0  0  0  0  0  0  0  0  0  0  0
   35.9150   27.8890   33.9070 H   0  0  0  0  0  0  0  0  0  0  0  0
   35.6450   29.2310   31.9170 H   0  0  0  0  0  0  0  0  0  0  0  0
   38.2030   26.1250   36.7540 C   0  0  0  0  0  0  0  0  0  0  0  0
   38.1610   24.7050   36.6850 C   0  0  0  0  0  0  0  0  0  0  0  0
   37.9850   24.1040   35.4420 C   0  0  0  0  0  0  0  0  0  0  0  0
   37.8610   24.9120   34.3470 N   0  0  0  0  0  0  0  0  0  0  0  0
   37.9000   26.2340   34.4230 C   0  0  0  0  0  0  0  0  0  0  0  0
   38.0700   26.8470   35.6120 N   0  0  0  0  0  0  0  0  0  0  0  0
   38.3390   26.6240   37.7060 H   0  0  0  0  0  0  0  0  0  0  0  0
   37.9530   23.0260   35.3870 H   0  0  0  0  0  0  0  0  0  0  0  0
   38.3110   23.9370   37.9590 C   0  0  0  0  0  0  0  0  0  0  0  0
   38.1620   24.8130   39.0600 F   0  0  0  0  0  0  0  0  0  0  0  0
   37.3120   23.0090   38.0280 F   0  0  0  0  0  0  0  0  0  0  0  0
   39.5440   23.3200   38.0700 F   0  0  0  0  0  0  0  0  0  0  0  0
   39.5550   27.6930   29.9800 C   0  0  0  0  0  2  0  0  0  0  0  0
   39.1570   26.9470   28.8280 N   0  0  0  0  0  4  0  0  0  0  0  0
   38.1430   26.6860   28.8220 H   0  0  0  0  0  0  0  0  0  0  0  0
   39.4980   27.6230   27.5970 C   0  0  0  0  0  2  0  0  0  0  0  0
   40.5970   27.7200   27.5320 H   0  0  0  0  0  0  0  0  0  0  0  0
   39.8770   25.6700   28.9050 C   0  0  0  0  0  2  0  0  0  0  0  0
   39.4610   25.1150   29.7800 H   0  0  0  0  0  0  0  0  0  0  0  0
  2  1  1  0  0  0  0
  2  3  1  0  0  0  0
  3 15  1  0  0  0  0
  4  3  2  0  0  0  0
  4  9  1  0  0  0  0
  5  4  1  0  0  0  0
  6  8  1  0  0  0  0
  6  5  2  0  0  0  0
  7  6  1  0  0  0  0
  8  2  2  0  0  0  0
 10  5  1  0  0  0  0
 11 17  1  0  0  0  0
 12 11  1  0  0  0  0
 12 19  1  0  0  0  0
 13 12  2  0  0  0  0
 14 15  2  0  0  0  0
 14 13  1  0  0  0  0
 15 16  1  0  0  0  0
 16 11  2  0  0  0  0
 18 13  1  0  0  0  0
 19 21  1  0  0  0  0
 19 22  1  0  0  0  0
 19 20  1  0  0  0  0
 23  8  1  0  0  0  0
 24 28  1  0  0  0  0
 24 23  1  0  0  0  0
 25 24  1  0  0  0  0
 26 24  1  0  0  0  0
 27 26  1  0  0  0  0
 28 29  1  0  0  0  0
M  END
>  <minimizedAffinity>
-5.21076679

$$$$

 OpenBabel03272500163D

 29 30  0  0  0  0  0  0  0  0999 V2000
   35.8490   28.3380   34.2100 Cl  0  0  0  0  0  0  0  0  0  0  0  0
   37.0060   28.0180   32.9310 C   0  0  0  0  0  0  0  0  0  0  0  0
   37.9790   27.0380   33.1000 C   0  0  0  0  0  0  0  0  0  0  0  0
   38.9220   26.7540   32.0990 C   0  0  0  0  0  0  0  0  0  0  0  0
   38.8430   27.4930   30.9300 C   0  0  0  0  0  0  0  0  0  0  0  0
   37.8880   28.4730   30.7380 C   0  0  0  0  0  0  0  0  0  0  0  0
   37.8660   29.3510   29.2350 Cl  0  0  0  0  0  0  0  0  0  0  0  0
   36.9660   28.7280   31.7570 C   0  0  0  0  0  0  0  0  0  0  0  0
   39.6590   25.9820   32.2750 H   0  0  0  0  0  0  0  0  0  0  0  0
   39.5870   27.2320   30.2090 H   0  0  0  0  0  0  0  0  0  0  0  0
   38.2950   26.2110   36.6760 C   0  0  0  0  0  0  0  0  0  0  0  0
   38.1640   24.7950   36.6480 C   0  0  0  0  0  0  0  0  0  0  0  0
   37.9740   24.1690   35.4190 C   0  0  0  0  0  0  0  0  0  0  0  0
   37.9220   24.9490   34.2990 N   0  0  0  0  0  0  0  0  0  0  0  0
   38.0440   26.2680   34.3370 C   0  0  0  0  0  0  0  0  0  0  0  0
   38.2300   26.9050   35.5100 N   0  0  0  0  0  0  0  0  0  0  0  0
   38.4440   26.7300   37.6160 H   0  0  0  0  0  0  0  0  0  0  0  0
   37.8750   23.0940   35.3950 H   0  0  0  0  0  0  0  0  0  0  0  0
   38.2410   24.0580   37.9460 C   0  0  0  0  0  0  0  0  0  0  0  0
   39.4870   23.3940   38.0410 F   0  0  0  0  0  0  0  0  0  0  0  0
   38.1740   24.9640   38.9660 F   0  0  0  0  0  0  0  0  0  0  0  0
   37.2430   23.1110   38.0840 F   0  0  0  0  0  0  0  0  0  0  0  0
   35.9550   29.7800   31.5240 C   0  0  0  0  0  2  0  0  0  0  0  0
   36.2430   31.0420   32.1280 N   0  0  0  0  0  4  0  0  0  0  0  0
   36.9250   30.9870   32.9200 H   0  0  0  0  0  0  0  0  0  0  0  0
   36.6890   32.0200   31.1610 C   0  0  0  0  0  2  0  0  0  0  0  0
   35.8750   32.2070   30.4370 H   0  0  0  0  0  0  0  0  0  0  0  0
   34.9860   31.4920   32.7400 C   0  0  0  0  0  2  0  0  0  0  0  0
   34.7710   30.7970   33.5880 H   0  0  0  0  0  0  0  0  0  0  0  0
  2  3  1  0  0  0  0
  2  1  1  0  0  0  0
  3 15  1  0  0  0  0
  4  9  1  0  0  0  0
  4  3  2  0  0  0  0
  5  4  1  0  0  0  0
  6  5  2  0  0  0  0
  6  8  1  0  0  0  0
  7  6  1  0  0  0  0
  8  2  2  0  0  0  0
 10  5  1  0  0  0  0
 11 17  1  0  0  0  0
 12 11  1  0  0  0  0
 12 19  1  0  0  0  0
 13 12  2  0  0  0  0
 14 15  2  0  0  0  0
 14 13  1  0  0  0  0
 15 16  1  0  0  0  0
 16 11  2  0  0  0  0
 18 13  1  0  0  0  0
 19 20  1  0  0  0  0
 19 22  1  0  0  0  0
 19 21  1  0  0  0  0
 23  8  1  0  0  0  0
 23 24  1  0  0  0  0
 24 28  1  0  0  0  0
 24 25  1  0  0  0  0
 26 24  1  0  0  0  0
 27 26  1  0  0  0  0
 28 29  1  0  0  0  0
M  END
>  <minimizedAffinity>
-5.07272005

$$$$

 OpenBabel03272500163D

 29 30  0  0  0  0  0  0  0  0999 V2000
   36.1170   27.7690   33.0680 Cl  0  0  0  0  0  0  0  0  0  0  0  0
   37.6300   27.6640   32.1880 C   0  0  0  0  0  0  0  0  0  0  0  0
   38.6880   26.9210   32.7040 C   0  0  0  0  0  0  0  0  0  0  0  0
   39.9140   26.8140   32.0270 C   0  0  0  0  0  0  0  0  0  0  0  0
   40.0270   27.4810   30.8180 C   0  0  0  0  0  0  0  0  0  0  0  0
   38.9930   28.2260   30.2850 C   0  0  0  0  0  0  0  0  0  0  0  0
   39.2280   29.0300   28.7580 Cl  0  0  0  0  0  0  0  0  0  0  0  0
   37.7870   28.3100   30.9870 C   0  0  0  0  0  0  0  0  0  0  0  0
   40.7070   26.2250   32.4670 H   0  0  0  0  0  0  0  0  0  0  0  0
   40.9820   27.3620   30.3530 H   0  0  0  0  0  0  0  0  0  0  0  0
   38.2220   24.2180   35.1630 C   0  0  0  0  0  0  0  0  0  0  0  0
   38.2870   24.9410   36.3870 C   0  0  0  0  0  0  0  0  0  0  0  0
   38.4860   26.3180   36.3370 C   0  0  0  0  0  0  0  0  0  0  0  0
   38.6090   26.9070   35.1110 N   0  0  0  0  0  0  0  0  0  0  0  0
   38.5480   26.2240   33.9770 C   0  0  0  0  0  0  0  0  0  0  0  0
   38.3560   24.8900   33.9910 N   0  0  0  0  0  0  0  0  0  0  0  0
   38.0690   23.1460   35.1670 H   0  0  0  0  0  0  0  0  0  0  0  0
   38.5360   26.8680   37.2650 H   0  0  0  0  0  0  0  0  0  0  0  0
   38.1360   24.1750   37.6620 C   0  0  0  0  0  0  0  0  0  0  0  0
   37.0980   23.2230   37.5220 F   0  0  0  0  0  0  0  0  0  0  0  0
   39.2950   23.4930   37.9000 F   0  0  0  0  0  0  0  0  0  0  0  0
   37.8280   24.9840   38.7400 F   0  0  0  0  0  0  0  0  0  0  0  0
   36.6990   29.1120   30.3920 C   0  0  0  0  0  2  0  0  0  0  0  0
   36.5500   30.4270   30.9300 N   0  0  0  0  0  4  0  0  0  0  0  0
   37.0070   30.5570   31.8620 H   0  0  0  0  0  0  0  0  0  0  0  0
   37.0060   31.4460   30.0120 C   0  0  0  0  0  2  0  0  0  0  0  0
   36.3800   31.4160   29.1020 H   0  0  0  0  0  0  0  0  0  0  0  0
   35.1140   30.5990   31.1840 C   0  0  0  0  0  2  0  0  0  0  0  0
   34.8450   29.9030   32.0150 H   0  0  0  0  0  0  0  0  0  0  0  0
  2  3  1  0  0  0  0
  2  1  1  0  0  0  0
  3 15  1  0  0  0  0
  4  9  1  0  0  0  0
  4  3  2  0  0  0  0
  5  4  1  0  0  0  0
  6  5  2  0  0  0  0
  6  8  1  0  0  0  0
  7  6  1  0  0  0  0
  8  2  2  0  0  0  0
 10  5  1  0  0  0  0
 11 17  1  0  0  0  0
 11 12  1  0  0  0  0
 12 19  1  0  0  0  0
 13 12  2  0  0  0  0
 13 18  1  0  0  0  0
 14 13  1  0  0  0  0
 15 16  1  0  0  0  0
 15 14  2  0  0  0  0
 16 11  2  0  0  0  0
 19 21  1  0  0  0  0
 19 22  1  0  0  0  0
 20 19  1  0  0  0  0
 23 24  1  0  0  0  0
 23  8  1  0  0  0  0
 24 28  1  0  0  0  0
 24 25  1  0  0  0  0
 26 24  1  0  0  0  0
 27 26  1  0  0  0  0
 28 29  1  0  0  0  0
M  END
>  <minimizedAffinity>
-4.94449139

$$$$

 OpenBabel03272500163D

 29 30  0  0  0  0  0  0  0  0999 V2000
   36.6950   27.5030   34.6300 Cl  0  0  0  0  0  0  0  0  0  0  0  0
   36.6890   28.3100   33.0730 C   0  0  0  0  0  0  0  0  0  0  0  0
   35.9210   29.4550   32.8830 C   0  0  0  0  0  0  0  0  0  0  0  0
   35.8920   30.1280   31.6510 C   0  0  0  0  0  0  0  0  0  0  0  0
   36.6630   29.6030   30.6270 C   0  0  0  0  0  0  0  0  0  0  0  0
   37.4330   28.4670   30.7890 C   0  0  0  0  0  0  0  0  0  0  0  0
   38.3710   27.8810   29.4450 Cl  0  0  0  0  0  0  0  0  0  0  0  0
   37.4380   27.8230   32.0300 C   0  0  0  0  0  0  0  0  0  0  0  0
   35.2800   31.0150   31.5510 H   0  0  0  0  0  0  0  0  0  0  0  0
   36.5980   30.1580   29.7160 H   0  0  0  0  0  0  0  0  0  0  0  0
   34.9280   31.4110   35.8430 C   0  0  0  0  0  0  0  0  0  0  0  0
   33.5810   30.9880   36.0180 C   0  0  0  0  0  0  0  0  0  0  0  0
   33.0560   30.0550   35.1280 C   0  0  0  0  0  0  0  0  0  0  0  0
   33.8640   29.5910   34.1280 N   0  0  0  0  0  0  0  0  0  0  0  0
   35.1170   29.9930   33.9740 C   0  0  0  0  0  0  0  0  0  0  0  0
   35.6560   30.8950   34.8190 N   0  0  0  0  0  0  0  0  0  0  0  0
   35.3680   32.1350   36.5180 H   0  0  0  0  0  0  0  0  0  0  0  0
   32.0340   29.7320   35.2590 H   0  0  0  0  0  0  0  0  0  0  0  0
   32.8050   31.5720   37.1540 C   0  0  0  0  0  0  0  0  0  0  0  0
   31.5590   32.0490   36.6800 F   0  0  0  0  0  0  0  0  0  0  0  0
   32.5540   30.5850   38.0630 F   0  0  0  0  0  0  0  0  0  0  0  0
   33.4600   32.6270   37.7630 F   0  0  0  0  0  0  0  0  0  0  0  0
   38.2710   26.6130   32.1750 C   0  0  0  0  0  2  0  0  0  0  0  0
   37.5600   25.3750   32.1090 N   0  0  0  0  0  4  0  0  0  0  0  0
   36.5380   25.4630   32.3180 H   0  0  0  0  0  0  0  0  0  0  0  0
   37.7480   24.7060   30.8430 C   0  0  0  0  0  2  0  0  0  0  0  0
   38.8170   24.4490   30.7260 H   0  0  0  0  0  0  0  0  0  0  0  0
   38.0990   24.5420   33.1920 C   0  0  0  0  0  2  0  0  0  0  0  0
   37.7850   25.0170   34.1540 H   0  0  0  0  0  0  0  0  0  0  0  0
  2  1  1  0  0  0  0
  3  2  1  0  0  0  0
  3 15  1  0  0  0  0
  4  3  2  0  0  0  0
  5  6  2  0  0  0  0
  5  4  1  0  0  0  0
  6  8  1  0  0  0  0
  7  6  1  0  0  0  0
  8 23  1  0  0  0  0
  8  2  2  0  0  0  0
  9  4  1  0  0  0  0
 10  5  1  0  0  0  0
 11 12  1  0  0  0  0
 11 17  1  0  0  0  0
 12 19  1  0  0  0  0
 13 18  1  0  0  0  0
 13 12  2  0  0  0  0
 14 13  1  0  0  0  0
 15 14  2  0  0  0  0
 15 16  1  0  0  0  0
 16 11  2  0  0  0  0
 19 22  1  0  0  0  0
 19 21  1  0  0  0  0
 20 19  1  0  0  0  0
 24 23  1  0  0  0  0
 24 25  1  0  0  0  0
 24 28  1  0  0  0  0
 26 24  1  0  0  0  0
 27 26  1  0  0  0  0
 28 29  1  0  0  0  0
M  END
>  <minimizedAffinity>
-4.93381548

$$$$

 OpenBabel03272500163D

 29 30  0  0  0  0  0  0  0  0999 V2000
   36.7920   27.5830   34.5750 Cl  0  0  0  0  0  0  0  0  0  0  0  0
   36.7100   28.3730   33.0110 C   0  0  0  0  0  0  0  0  0  0  0  0
   35.8660   29.4630   32.8230 C   0  0  0  0  0  0  0  0  0  0  0  0
   35.7730   30.1200   31.5850 C   0  0  0  0  0  0  0  0  0  0  0  0
   36.5620   29.6360   30.5540 C   0  0  0  0  0  0  0  0  0  0  0  0
   37.4080   28.5550   30.7140 C   0  0  0  0  0  0  0  0  0  0  0  0
   38.3620   28.0190   29.3600 Cl  0  0  0  0  0  0  0  0  0  0  0  0
   37.4730   27.9260   31.9610 C   0  0  0  0  0  0  0  0  0  0  0  0
   35.1040   30.9640   31.4870 H   0  0  0  0  0  0  0  0  0  0  0  0
   36.4470   30.1770   29.6390 H   0  0  0  0  0  0  0  0  0  0  0  0
   34.8020   31.3570   35.7980 C   0  0  0  0  0  0  0  0  0  0  0  0
   33.4770   30.8710   35.9790 C   0  0  0  0  0  0  0  0  0  0  0  0
   32.9900   29.9180   35.0880 C   0  0  0  0  0  0  0  0  0  0  0  0
   33.8120   29.4970   34.0820 N   0  0  0  0  0  0  0  0  0  0  0  0
   35.0440   29.9580   33.9210 C   0  0  0  0  0  0  0  0  0  0  0  0
   35.5460   30.8810   34.7670 N   0  0  0  0  0  0  0  0  0  0  0  0
   35.2110   32.0990   36.4730 H   0  0  0  0  0  0  0  0  0  0  0  0
   31.9850   29.5480   35.2240 H   0  0  0  0  0  0  0  0  0  0  0  0
   32.6820   31.4140   37.1230 C   0  0  0  0  0  0  0  0  0  0  0  0
   32.4440   30.3840   38.0640 F   0  0  0  0  0  0  0  0  0  0  0  0
   33.4170   32.3820   37.7440 F   0  0  0  0  0  0  0  0  0  0  0  0
   31.4570   31.9220   36.7300 F   0  0  0  0  0  0  0  0  0  0  0  0
   38.3860   26.7740   32.1040 C   0  0  0  0  0  2  0  0  0  0  0  0
   39.7630   27.1090   32.2810 N   0  0  0  0  0  4  0  0  0  0  0  0
   40.0330   28.0280   31.8570 H   0  0  0  0  0  0  0  0  0  0  0  0
   40.1590   27.0730   33.6700 C   0  0  0  0  0  2  0  0  0  0  0  0
   40.0450   26.0420   34.0500 H   0  0  0  0  0  0  0  0  0  0  0  0
   40.5230   26.1050   31.5250 C   0  0  0  0  0  2  0  0  0  0  0  0
   40.3090   26.2820   30.4430 H   0  0  0  0  0  0  0  0  0  0  0  0
  2  1  1  0  0  0  0
  3  2  1  0  0  0  0
  3 15  1  0  0  0  0
  4  3  2  0  0  0  0
  5  6  2  0  0  0  0
  5  4  1  0  0  0  0
  6  8  1  0  0  0  0
  7  6  1  0  0  0  0
  8 23  1  0  0  0  0
  8  2  2  0  0  0  0
  9  4  1  0  0  0  0
 10  5  1  0  0  0  0
 11 12  1  0  0  0  0
 11 17  1  0  0  0  0
 12 19  1  0  0  0  0
 13 18  1  0  0  0  0
 13 12  2  0  0  0  0
 14 13  1  0  0  0  0
 15 14  2  0  0  0  0
 15 16  1  0  0  0  0
 16 11  2  0  0  0  0
 19 21  1  0  0  0  0
 19 20  1  0  0  0  0
 22 19  1  0  0  0  0
 23 24  1  0  0  0  0
 24 26  1  0  0  0  0
 25 24  1  0  0  0  0
 26 27  1  0  0  0  0
 28 24  1  0  0  0  0
 29 28  1  0  0  0  0
M  END
>  <minimizedAffinity>
-4.91574574

$$$$

 OpenBabel03272500163D

 29 30  0  0  0  0  0  0  0  0999 V2000
   38.9120   24.2690   32.5990 Cl  0  0  0  0  0  0  0  0  0  0  0  0
   38.4210   25.5320   33.7140 C   0  0  0  0  0  0  0  0  0  0  0  0
   38.8770   25.5180   35.0280 C   0  0  0  0  0  0  0  0  0  0  0  0
   38.5050   26.5110   35.9490 C   0  0  0  0  0  0  0  0  0  0  0  0
   37.6640   27.5120   35.4910 C   0  0  0  0  0  0  0  0  0  0  0  0
   37.1970   27.5480   34.1910 C   0  0  0  0  0  0  0  0  0  0  0  0
   36.1420   28.8460   33.7060 Cl  0  0  0  0  0  0  0  0  0  0  0  0
   37.5870   26.5420   33.3030 C   0  0  0  0  0  0  0  0  0  0  0  0
   38.8850   26.4590   36.9600 H   0  0  0  0  0  0  0  0  0  0  0  0
   37.4170   28.2360   36.2370 H   0  0  0  0  0  0  0  0  0  0  0  0
   41.9300   23.5480   35.6370 C   0  0  0  0  0  0  0  0  0  0  0  0
   41.4090   22.4460   36.3720 C   0  0  0  0  0  0  0  0  0  0  0  0
   40.0420   22.4090   36.6360 C   0  0  0  0  0  0  0  0  0  0  0  0
   39.2680   23.4350   36.1730 N   0  0  0  0  0  0  0  0  0  0  0  0
   39.7640   24.4570   35.4910 C   0  0  0  0  0  0  0  0  0  0  0  0
   41.0820   24.5230   35.2180 N   0  0  0  0  0  0  0  0  0  0  0  0
   42.9880   23.6080   35.4150 H   0  0  0  0  0  0  0  0  0  0  0  0
   39.6450   21.5740   37.1930 H   0  0  0  0  0  0  0  0  0  0  0  0
   42.3650   21.3880   36.8190 C   0  0  0  0  0  0  0  0  0  0  0  0
   42.3670   20.3260   35.8830 F   0  0  0  0  0  0  0  0  0  0  0  0
   43.6220   21.9190   36.8470 F   0  0  0  0  0  0  0  0  0  0  0  0
   42.0410   20.8620   38.0570 F   0  0  0  0  0  0  0  0  0  0  0  0
   37.0740   26.6070   31.9200 C   0  0  0  0  0  2  0  0  0  0  0  0
   37.7760   27.5000   31.0530 N   0  0  0  0  0  4  0  0  0  0  0  0
   38.2790   28.2680   31.5550 H   0  0  0  0  0  0  0  0  0  0  0  0
   38.6900   26.8030   30.1770 C   0  0  0  0  0  2  0  0  0  0  0  0
   38.1140   26.1290   29.5180 H   0  0  0  0  0  0  0  0  0  0  0  0
   36.7480   28.1780   30.2540 C   0  0  0  0  0  2  0  0  0  0  0  0
   36.1710   28.8300   30.9530 H   0  0  0  0  0  0  0  0  0  0  0  0
  1  2  1  0  0  0  0
  2  3  1  0  0  0  0
  3 15  1  0  0  0  0
  3  4  2  0  0  0  0
  4  9  1  0  0  0  0
  5  4  1  0  0  0  0
  5 10  1  0  0  0  0
  6  5  2  0  0  0  0
  7  6  1  0  0  0  0
  8  2  2  0  0  0  0
  8  6  1  0  0  0  0
 11 12  1  0  0  0  0
 12 13  2  0  0  0  0
 12 19  1  0  0  0  0
 13 18  1  0  0  0  0
 14 13  1  0  0  0  0
 15 14  2  0  0  0  0
 16 15  1  0  0  0  0
 16 11  2  0  0  0  0
 17 11  1  0  0  0  0
 19 21  1  0  0  0  0
 19 22  1  0  0  0  0
 20 19  1  0  0  0  0
 23  8  1  0  0  0  0
 24 25  1  0  0  0  0
 24 23  1  0  0  0  0
 26 24  1  0  0  0  0
 27 26  1  0  0  0  0
 28 29  1  0  0  0  0
 28 24  1  0  0  0  0
M  END
>  <minimizedAffinity>
-4.88096237

$$$$

 OpenBabel03272500163D

 29 30  0  0  0  0  0  0  0  0999 V2000
   37.4250   25.8600   32.3450 Cl  0  0  0  0  0  0  0  0  0  0  0  0
   39.0430   26.5340   32.2750 C   0  0  0  0  0  0  0  0  0  0  0  0
   39.8930   26.4240   33.3720 C   0  0  0  0  0  0  0  0  0  0  0  0
   41.1940   26.9500   33.3530 C   0  0  0  0  0  0  0  0  0  0  0  0
   41.6010   27.5860   32.1910 C   0  0  0  0  0  0  0  0  0  0  0  0
   40.7770   27.7090   31.0890 C   0  0  0  0  0  0  0  0  0  0  0  0
   41.3750   28.5240   29.6710 Cl  0  0  0  0  0  0  0  0  0  0  0  0
   39.4870   27.1730   31.1440 C   0  0  0  0  0  0  0  0  0  0  0  0
   41.8190   26.8400   34.2290 H   0  0  0  0  0  0  0  0  0  0  0  0
   42.5990   27.9650   32.2380 H   0  0  0  0  0  0  0  0  0  0  0  0
   38.2290   25.7970   36.5990 C   0  0  0  0  0  0  0  0  0  0  0  0
   38.6250   24.4560   36.8610 C   0  0  0  0  0  0  0  0  0  0  0  0
   39.4420   23.8100   35.9360 C   0  0  0  0  0  0  0  0  0  0  0  0
   39.8230   24.5000   34.8200 N   0  0  0  0  0  0  0  0  0  0  0  0
   39.4470   25.7490   34.5860 C   0  0  0  0  0  0  0  0  0  0  0  0
   38.6570   26.4020   35.4610 N   0  0  0  0  0  0  0  0  0  0  0  0
   37.5940   26.3280   37.2980 H   0  0  0  0  0  0  0  0  0  0  0  0
   39.7440   22.7930   36.1330 H   0  0  0  0  0  0  0  0  0  0  0  0
   38.1390   23.8150   38.1210 C   0  0  0  0  0  0  0  0  0  0  0  0
   37.1440   22.8570   37.8120 F   0  0  0  0  0  0  0  0  0  0  0  0
   39.1830   23.1570   38.7050 F   0  0  0  0  0  0  0  0  0  0  0  0
   37.5930   24.7250   39.0080 F   0  0  0  0  0  0  0  0  0  0  0  0
   38.6290   27.3180   29.9510 C   0  0  0  0  0  2  0  0  0  0  0  0
   38.0670   28.6180   29.7620 N   0  0  0  0  0  4  0  0  0  0  0  0
   38.5260   29.3650   30.3340 H   0  0  0  0  0  0  0  0  0  0  0  0
   38.0500   29.0060   28.3700 C   0  0  0  0  0  2  0  0  0  0  0  0
   37.4000   28.3090   27.8100 H   0  0  0  0  0  0  0  0  0  0  0  0
   36.6920   28.5420   30.2700 C   0  0  0  0  0  2  0  0  0  0  0  0
   36.7620   28.4040   31.3760 H   0  0  0  0  0  0  0  0  0  0  0  0
  2  1  1  0  0  0  0
  2  3  1  0  0  0  0
  3 15  1  0  0  0  0
  4  3  2  0  0  0  0
  4  9  1  0  0  0  0
  5 10  1  0  0  0  0
  5  4  1  0  0  0  0
  6  8  1  0  0  0  0
  6  5  2  0  0  0  0
  7  6  1  0  0  0  0
  8  2  2  0  0  0  0
 11 12  1  0  0  0  0
 11 17  1  0  0  0  0
 12 19  1  0  0  0  0
 13 18  1  0  0  0  0
 13 12  2  0  0  0  0
 14 13  1  0  0  0  0
 15 14  2  0  0  0  0
 15 16  1  0  0  0  0
 16 11  2  0  0  0  0
 19 21  1  0  0  0  0
 19 22  1  0  0  0  0
 20 19  1  0  0  0  0
 23  8  1  0  0  0  0
 24 23  1  0  0  0  0
 24 28  1  0  0  0  0
 24 25  1  0  0  0  0
 26 24  1  0  0  0  0
 27 26  1  0  0  0  0
 28 29  1  0  0  0  0
M  END
>  <minimizedAffinity>
-4.86084318

$$$$

 OpenBabel03272500163D

 29 30  0  0  0  0  0  0  0  0999 V2000
   37.4500   28.3890   29.5940 Cl  0  0  0  0  0  0  0  0  0  0  0  0
   36.6870   29.1330   30.9870 C   0  0  0  0  0  0  0  0  0  0  0  0
   36.1040   28.3390   31.9710 C   0  0  0  0  0  0  0  0  0  0  0  0
   35.4840   28.8990   33.1000 C   0  0  0  0  0  0  0  0  0  0  0  0
   35.4780   30.2810   33.1950 C   0  0  0  0  0  0  0  0  0  0  0  0
   36.0480   31.0910   32.2320 C   0  0  0  0  0  0  0  0  0  0  0  0
   35.9910   32.8190   32.4380 Cl  0  0  0  0  0  0  0  0  0  0  0  0
   36.6560   30.4990   31.1220 C   0  0  0  0  0  0  0  0  0  0  0  0
   35.0460   28.2410   33.8380 H   0  0  0  0  0  0  0  0  0  0  0  0
   34.9920   30.6450   34.0740 H   0  0  0  0  0  0  0  0  0  0  0  0
   37.1160   24.8220   32.3960 C   0  0  0  0  0  0  0  0  0  0  0  0
   36.1360   24.1530   31.6120 C   0  0  0  0  0  0  0  0  0  0  0  0
   35.1660   24.9160   30.9660 C   0  0  0  0  0  0  0  0  0  0  0  0
   35.2060   26.2730   31.1190 N   0  0  0  0  0  0  0  0  0  0  0  0
   36.1240   26.8860   31.8530 C   0  0  0  0  0  0  0  0  0  0  0  0
   37.0760   26.1770   32.4900 N   0  0  0  0  0  0  0  0  0  0  0  0
   37.8850   24.2590   32.9110 H   0  0  0  0  0  0  0  0  0  0  0  0
   34.4210   24.4100   30.3710 H   0  0  0  0  0  0  0  0  0  0  0  0
   36.2050   22.6620   31.5260 C   0  0  0  0  0  0  0  0  0  0  0  0
   35.1910   22.1910   30.6580 F   0  0  0  0  0  0  0  0  0  0  0  0
   37.4090   22.3120   30.9870 F   0  0  0  0  0  0  0  0  0  0  0  0
   36.0340   22.0470   32.7530 F   0  0  0  0  0  0  0  0  0  0  0  0
   37.2580   31.3890   30.1100 C   0  0  0  0  0  2  0  0  0  0  0  0
   36.4400   31.6530   28.9690 N   0  0  0  0  0  4  0  0  0  0  0  0
   35.6520   30.9750   28.8470 H   0  0  0  0  0  0  0  0  0  0  0  0
   35.9300   33.0050   28.9640 C   0  0  0  0  0  2  0  0  0  0  0  0
   36.7800   33.7100   28.8990 H   0  0  0  0  0  0  0  0  0  0  0  0
   37.3010   31.4460   27.7970 C   0  0  0  0  0  2  0  0  0  0  0  0
   37.5340   30.3550   27.7540 H   0  0  0  0  0  0  0  0  0  0  0  0
  1  2  1  0  0  0  0
  2  8  2  0  0  0  0
  2  3  1  0  0  0  0
  3  4  2  0  0  0  0
  4  5  1  0  0  0  0
  4  9  1  0  0  0  0
  5 10  1  0  0  0  0
  6  7  1  0  0  0  0
  6  5  2  0  0  0  0
  8  6  1  0  0  0  0
 11 16  1  0  0  0  0
 11 17  1  0  0  0  0
 12 11  2  0  0  0  0
 13 14  2  0  0  0  0
 13 12  1  0  0  0  0
 14 15  1  0  0  0  0
 15  3  1  0  0  0  0
 15 16  2  0  0  0  0
 18 13  1  0  0  0  0
 19 12  1  0  0  0  0
 19 22  1  0  0  0  0
 20 19  1  0  0  0  0
 21 19  1  0  0  0  0
 23  8  1  0  0  0  0
 24 23  1  0  0  0  0
 25 24  1  0  0  0  0
 26 24  1  0  0  0  0
 27 26  1  0  0  0  0
 28 24  1  0  0  0  0
 29 28  1  0  0  0  0
M  END
>  <minimizedAffinity>
-4.84554291

$$$$

 OpenBabel03272500163D

 29 30  0  0  0  0  0  0  0  0999 V2000
   40.8300   25.6820   33.7480 Cl  0  0  0  0  0  0  0  0  0  0  0  0
   40.1430   24.7120   35.0380 C   0  0  0  0  0  0  0  0  0  0  0  0
   38.8390   24.9430   35.4660 C   0  0  0  0  0  0  0  0  0  0  0  0
   38.2560   24.1860   36.4960 C   0  0  0  0  0  0  0  0  0  0  0  0
   39.0360   23.1950   37.0700 C   0  0  0  0  0  0  0  0  0  0  0  0
   40.3330   22.9470   36.6630 C   0  0  0  0  0  0  0  0  0  0  0  0
   41.2370   21.6800   37.4430 Cl  0  0  0  0  0  0  0  0  0  0  0  0
   40.8800   23.7210   35.6360 C   0  0  0  0  0  0  0  0  0  0  0  0
   37.2390   24.4010   36.7950 H   0  0  0  0  0  0  0  0  0  0  0  0
   38.5380   22.6560   37.8460 H   0  0  0  0  0  0  0  0  0  0  0  0
   36.7760   26.7610   33.0150 C   0  0  0  0  0  0  0  0  0  0  0  0
   36.5230   27.9760   33.7100 C   0  0  0  0  0  0  0  0  0  0  0  0
   37.0600   28.1380   34.9850 C   0  0  0  0  0  0  0  0  0  0  0  0
   37.8060   27.1180   35.5050 N   0  0  0  0  0  0  0  0  0  0  0  0
   38.0340   25.9890   34.8480 C   0  0  0  0  0  0  0  0  0  0  0  0
   37.5280   25.8020   33.6130 N   0  0  0  0  0  0  0  0  0  0  0  0
   36.3720   26.6030   32.0220 H   0  0  0  0  0  0  0  0  0  0  0  0
   36.8700   29.0600   35.5140 H   0  0  0  0  0  0  0  0  0  0  0  0
   35.6920   29.0140   33.0280 C   0  0  0  0  0  0  0  0  0  0  0  0
   34.6280   28.3880   32.3350 F   0  0  0  0  0  0  0  0  0  0  0  0
   35.1460   29.8290   33.9770 F   0  0  0  0  0  0  0  0  0  0  0  0
   36.4120   29.7610   32.1140 F   0  0  0  0  0  0  0  0  0  0  0  0
   42.2680   23.4320   35.2210 C   0  0  0  0  0  2  0  0  0  0  0  0
   43.2430   24.3800   35.6600 N   0  0  0  0  0  4  0  0  0  0  0  0
   42.8480   25.3260   35.8710 H   0  0  0  0  0  0  0  0  0  0  0  0
   43.9980   23.8990   36.7950 C   0  0  0  0  0  2  0  0  0  0  0  0
   44.5640   22.9980   36.4940 H   0  0  0  0  0  0  0  0  0  0  0  0
   44.1440   24.5900   34.5200 C   0  0  0  0  0  2  0  0  0  0  0  0
   43.5520   25.1130   33.7300 H   0  0  0  0  0  0  0  0  0  0  0  0
  1  2  1  0  0  0  0
  2  3  2  0  0  0  0
  2  8  1  0  0  0  0
  3  4  1  0  0  0  0
  4  9  1  0  0  0  0
  4  5  2  0  0  0  0
  5 10  1  0  0  0  0
  6  5  1  0  0  0  0
  6  7  1  0  0  0  0
  8  6  2  0  0  0  0
 11 16  2  0  0  0  0
 11 12  1  0  0  0  0
 12 13  2  0  0  0  0
 13 14  1  0  0  0  0
 13 18  1  0  0  0  0
 15  3  1  0  0  0  0
 15 14  2  0  0  0  0
 16 15  1  0  0  0  0
 17 11  1  0  0  0  0
 19 12  1  0  0  0  0
 19 21  1  0  0  0  0
 20 19  1  0  0  0  0
 22 19  1  0  0  0  0
 23  8  1  0  0  0  0
 23 24  1  0  0  0  0
 24 25  1  0  0  0  0
 24 26  1  0  0  0  0
 27 26  1  0  0  0  0
 28 24  1  0  0  0  0
 29 28  1  0  0  0  0
M  END
>  <minimizedAffinity>
-4.77258158

$$$$
