
 OpenBabel03272505143D

 37 39  0  0  0  0  0  0  0  0999 V2000
   38.7810   23.6070   33.7150 Cl  0  0  0  0  0  0  0  0  0  0  0  0
   37.5340   22.3860   33.8470 C   0  0  0  0  0  0  0  0  0  0  0  0
   37.2710   21.8870   35.1140 C   0  0  0  0  0  0  0  0  0  0  0  0
   36.2890   20.9240   35.2360 C   0  0  0  0  0  0  0  0  0  0  0  0
   35.6110   20.4910   34.1250 C   0  0  0  0  0  0  0  0  0  0  0  0
   35.9300   21.0390   32.8800 C   0  0  0  0  0  0  0  0  0  0  0  0
   36.8950   22.0020   32.6820 C   0  0  0  0  0  0  0  0  0  0  0  0
   36.1070   20.5570   36.2280 H   0  0  0  0  0  0  0  0  0  0  0  0
   34.8440   19.7380   34.2120 H   0  0  0  0  0  0  0  0  0  0  0  0
   35.3730   20.6740   32.0230 H   0  0  0  0  0  0  0  0  0  0  0  0
   37.9800   23.6130   38.2450 C   0  0  0  0  0  0  0  0  0  0  0  0
   39.3390   23.3660   38.4880 C   0  0  0  0  0  0  0  0  0  0  0  0
   40.0220   22.5800   37.5390 C   0  0  0  0  0  0  0  0  0  0  0  0
   39.3310   22.1170   36.4620 N   0  0  0  0  0  0  0  0  0  0  0  0
   38.0290   22.3860   36.2820 C   0  0  0  0  0  0  0  0  0  0  0  0
   37.3720   23.1260   37.1680 N   0  0  0  0  0  0  0  0  0  0  0  0
   37.4790   24.2100   38.9700 H   0  0  0  0  0  0  0  0  0  0  0  0
   39.9080   23.7290   39.3410 H   0  0  0  0  0  0  0  0  0  0  0  0
   41.0750   22.3320   37.6370 H   0  0  0  0  0  0  0  0  0  0  0  0
   37.2990   22.6960   31.1170 S   0  0  0  0  0  0  0  0  0  0  0  0
   39.4530   24.7270   30.0250 Cl  0  0  0  0  0  0  0  0  0  0  0  0
   37.8570   25.2650   30.5270 C   0  0  0  0  0  0  0  0  0  0  0  0
   36.8500   24.4350   31.0230 C   0  0  0  0  0  0  0  0  0  0  0  0
   35.6370   24.9700   31.3870 C   0  0  0  0  0  0  0  0  0  0  0  0
   35.4110   26.3200   31.2660 C   0  0  0  0  0  0  0  0  0  0  0  0
   36.3720   27.1840   30.7820 C   0  0  0  0  0  0  0  0  0  0  0  0
   37.5770   26.6160   30.4260 C   0  0  0  0  0  0  0  0  0  0  0  0
   34.8950   24.2610   31.7680 H   0  0  0  0  0  0  0  0  0  0  0  0
   34.4200   26.6310   31.5830 H   0  0  0  0  0  0  0  0  0  0  0  0
   36.1430   28.2330   30.7070 H   0  0  0  0  0  0  0  0  0  0  0  0
   38.6280   27.5470   29.8940 C   0  0  0  0  0  2  0  0  0  0  0  0
   38.4770   27.7950   28.4770 N   0  0  0  0  0  4  0  0  0  0  0  0
   37.7390   27.1980   28.0420 H   0  0  0  0  0  0  0  0  0  0  0  0
   39.7740   27.6170   27.8580 C   0  0  0  0  0  2  0  0  0  0  0  0
   39.8520   26.5650   27.5140 H   0  0  0  0  0  0  0  0  0  0  0  0
   38.1230   29.2110   28.3260 C   0  0  0  0  0  2  0  0  0  0  0  0
   38.2940   29.5820   27.2980 H   0  0  0  0  0  0  0  0  0  0  0  0
  1  2  1  0  0  0  0
  2  3  1  0  0  0  0
  3  4  2  0  0  0  0
  3 15  1  0  0  0  0
  4  8  1  0  0  0  0
  5  9  1  0  0  0  0
  5  4  1  0  0  0  0
  6  5  2  0  0  0  0
  7  6  1  0  0  0  0
  7  2  2  0  0  0  0
 10  6  1  0  0  0  0
 11 12  1  0  0  0  0
 11 17  1  0  0  0  0
 12 18  1  0  0  0  0
 13 19  1  0  0  0  0
 13 12  2  0  0  0  0
 14 13  1  0  0  0  0
 15 14  2  0  0  0  0
 15 16  1  0  0  0  0
 16 11  2  0  0  0  0
 20  7  1  0  0  0  0
 21 22  1  0  0  0  0
 22 23  1  0  0  0  0
 23 20  1  0  0  0  0
 23 24  2  0  0  0  0
 24 28  1  0  0  0  0
 25 24  1  0  0  0  0
 25 29  1  0  0  0  0
 26 25  2  0  0  0  0
 27 22  2  0  0  0  0
 27 26  1  0  0  0  0
 30 26  1  0  0  0  0
 31 27  1  0  0  0  0
 32 31  1  0  0  0  0
 33 32  1  0  0  0  0
 34 32  1  0  0  0  0
 35 34  1  0  0  0  0
 36 32  1  0  0  0  0
 37 36  1  0  0  0  0
M  END
>  <minimizedAffinity>
-5.53397512

$$$$

 OpenBabel03272505143D

 37 39  0  0  0  0  0  0  0  0999 V2000
   36.5420   27.9530   34.9550 Cl  0  0  0  0  0  0  0  0  0  0  0  0
   36.4460   28.6890   33.3700 C   0  0  0  0  0  0  0  0  0  0  0  0
   35.7450   29.8820   33.2690 C   0  0  0  0  0  0  0  0  0  0  0  0
   35.6610   30.4760   32.0260 C   0  0  0  0  0  0  0  0  0  0  0  0
   36.2580   29.8860   30.9410 C   0  0  0  0  0  0  0  0  0  0  0  0
   36.9480   28.6830   31.1180 C   0  0  0  0  0  0  0  0  0  0  0  0
   37.0740   28.0340   32.3260 C   0  0  0  0  0  0  0  0  0  0  0  0
   35.1140   31.3980   31.9790 H   0  0  0  0  0  0  0  0  0  0  0  0
   36.1950   30.3440   29.9670 H   0  0  0  0  0  0  0  0  0  0  0  0
   37.4080   28.2460   30.2390 H   0  0  0  0  0  0  0  0  0  0  0  0
   35.3900   31.8390   36.3230 C   0  0  0  0  0  0  0  0  0  0  0  0
   34.0590   31.6420   36.7200 C   0  0  0  0  0  0  0  0  0  0  0  0
   33.2690   30.8080   35.9030 C   0  0  0  0  0  0  0  0  0  0  0  0
   33.8380   30.2540   34.7990 N   0  0  0  0  0  0  0  0  0  0  0  0
   35.1190   30.4800   34.4690 C   0  0  0  0  0  0  0  0  0  0  0  0
   35.8760   31.2630   35.2290 N   0  0  0  0  0  0  0  0  0  0  0  0
   35.9740   32.4690   36.9520 H   0  0  0  0  0  0  0  0  0  0  0  0
   33.5880   32.0740   37.6000 H   0  0  0  0  0  0  0  0  0  0  0  0
   32.2280   30.5940   36.1240 H   0  0  0  0  0  0  0  0  0  0  0  0
   37.9420   26.5210   32.5550 S   0  0  0  0  0  0  0  0  0  0  0  0
   38.5070   23.7510   33.9570 Cl  0  0  0  0  0  0  0  0  0  0  0  0
   37.2640   23.9190   32.7250 C   0  0  0  0  0  0  0  0  0  0  0  0
   36.9540   25.1030   32.0560 C   0  0  0  0  0  0  0  0  0  0  0  0
   35.9590   25.1150   31.1070 C   0  0  0  0  0  0  0  0  0  0  0  0
   35.2690   23.9630   30.8130 C   0  0  0  0  0  0  0  0  0  0  0  0
   35.5370   22.7660   31.4450 C   0  0  0  0  0  0  0  0  0  0  0  0
   36.5390   22.7890   32.3910 C   0  0  0  0  0  0  0  0  0  0  0  0
   35.7700   26.0780   30.6220 H   0  0  0  0  0  0  0  0  0  0  0  0
   34.5070   24.0880   30.0490 H   0  0  0  0  0  0  0  0  0  0  0  0
   34.9660   21.8930   31.1780 H   0  0  0  0  0  0  0  0  0  0  0  0
   36.8360   21.4930   33.0880 C   0  0  0  0  0  2  0  0  0  0  0  0
   35.6440   20.8700   33.6210 N   0  0  0  0  0  4  0  0  0  0  0  0
   34.7700   21.3560   33.3240 H   0  0  0  0  0  0  0  0  0  0  0  0
   35.7850   20.8080   35.0610 C   0  0  0  0  0  2  0  0  0  0  0  0
   35.3220   21.7180   35.4930 H   0  0  0  0  0  0  0  0  0  0  0  0
   35.6310   19.4850   33.1330 C   0  0  0  0  0  2  0  0  0  0  0  0
   34.9550   18.8370   33.7220 H   0  0  0  0  0  0  0  0  0  0  0  0
  2  1  1  0  0  0  0
  3  2  1  0  0  0  0
  3 15  1  0  0  0  0
  4  3  2  0  0  0  0
  5  6  2  0  0  0  0
  5  4  1  0  0  0  0
  6  7  1  0  0  0  0
  7 20  1  0  0  0  0
  7  2  2  0  0  0  0
  8  4  1  0  0  0  0
  9  5  1  0  0  0  0
 10  6  1  0  0  0  0
 11 12  1  0  0  0  0
 11 17  1  0  0  0  0
 12 18  1  0  0  0  0
 13 19  1  0  0  0  0
 13 12  2  0  0  0  0
 14 13  1  0  0  0  0
 15 14  2  0  0  0  0
 15 16  1  0  0  0  0
 16 11  2  0  0  0  0
 22 21  1  0  0  0  0
 23 20  1  0  0  0  0
 23 22  2  0  0  0  0
 24 23  1  0  0  0  0
 25 24  2  0  0  0  0
 25 26  1  0  0  0  0
 26 27  2  0  0  0  0
 27 22  1  0  0  0  0
 27 31  1  0  0  0  0
 28 24  1  0  0  0  0
 29 25  1  0  0  0  0
 30 26  1  0  0  0  0
 31 32  1  0  0  0  0
 32 34  1  0  0  0  0
 33 32  1  0  0  0  0
 34 35  1  0  0  0  0
 36 32  1  0  0  0  0
 36 37  1  0  0  0  0
M  END
>  <minimizedAffinity>
-5.4514513

$$$$

 OpenBabel03272505143D

 37 39  0  0  0  0  0  0  0  0999 V2000
   35.9700   27.7930   31.1130 Cl  0  0  0  0  0  0  0  0  0  0  0  0
   36.6300   27.6800   32.7300 C   0  0  0  0  0  0  0  0  0  0  0  0
   37.6340   26.7440   32.9380 C   0  0  0  0  0  0  0  0  0  0  0  0
   38.1660   26.6430   34.2070 C   0  0  0  0  0  0  0  0  0  0  0  0
   37.7020   27.4520   35.2130 C   0  0  0  0  0  0  0  0  0  0  0  0
   36.6890   28.3720   34.9290 C   0  0  0  0  0  0  0  0  0  0  0  0
   36.1110   28.5290   33.6890 C   0  0  0  0  0  0  0  0  0  0  0  0
   38.9400   25.9120   34.3380 H   0  0  0  0  0  0  0  0  0  0  0  0
   38.1120   27.3780   36.2070 H   0  0  0  0  0  0  0  0  0  0  0  0
   36.3460   28.9960   35.7490 H   0  0  0  0  0  0  0  0  0  0  0  0
   37.8330   23.9200   30.6440 C   0  0  0  0  0  0  0  0  0  0  0  0
   38.8860   24.2410   29.7740 C   0  0  0  0  0  0  0  0  0  0  0  0
   39.5390   25.4690   29.9930 C   0  0  0  0  0  0  0  0  0  0  0  0
   39.1150   26.2560   31.0190 N   0  0  0  0  0  0  0  0  0  0  0  0
   38.1010   25.8950   31.8200 C   0  0  0  0  0  0  0  0  0  0  0  0
   37.4760   24.7400   31.6260 N   0  0  0  0  0  0  0  0  0  0  0  0
   37.3510   22.9860   30.4670 H   0  0  0  0  0  0  0  0  0  0  0  0
   39.2390   23.6240   28.9510 H   0  0  0  0  0  0  0  0  0  0  0  0
   40.3640   25.8090   29.3740 H   0  0  0  0  0  0  0  0  0  0  0  0
   34.8360   29.6870   33.3270 S   0  0  0  0  0  0  0  0  0  0  0  0
   35.9770   32.1630   34.9150 Cl  0  0  0  0  0  0  0  0  0  0  0  0
   34.5360   31.3130   35.4530 C   0  0  0  0  0  0  0  0  0  0  0  0
   33.9690   30.2110   34.8120 C   0  0  0  0  0  0  0  0  0  0  0  0
   32.8360   29.6240   35.3270 C   0  0  0  0  0  0  0  0  0  0  0  0
   32.2610   30.1190   36.4730 C   0  0  0  0  0  0  0  0  0  0  0  0
   32.7820   31.2060   37.1460 C   0  0  0  0  0  0  0  0  0  0  0  0
   33.9160   31.7710   36.6030 C   0  0  0  0  0  0  0  0  0  0  0  0
   32.4470   28.7640   34.7730 H   0  0  0  0  0  0  0  0  0  0  0  0
   31.3730   29.5790   36.7890 H   0  0  0  0  0  0  0  0  0  0  0  0
   32.2910   31.5540   38.0380 H   0  0  0  0  0  0  0  0  0  0  0  0
   34.4880   32.9560   37.3240 C   0  0  0  0  0  2  0  0  0  0  0  0
   33.5110   34.0040   37.5210 N   0  0  0  0  0  4  0  0  0  0  0  0
   32.5720   33.6330   37.7850 H   0  0  0  0  0  0  0  0  0  0  0  0
   33.4730   34.8040   36.3140 C   0  0  0  0  0  2  0  0  0  0  0  0
   32.6820   34.3950   35.6530 H   0  0  0  0  0  0  0  0  0  0  0  0
   34.0220   34.8700   38.5910 C   0  0  0  0  0  2  0  0  0  0  0  0
   33.5280   35.8590   38.6050 H   0  0  0  0  0  0  0  0  0  0  0  0
  1  2  1  0  0  0  0
  2  3  2  0  0  0  0
  2  7  1  0  0  0  0
  3  4  1  0  0  0  0
  4  8  1  0  0  0  0
  4  5  2  0  0  0  0
  5  9  1  0  0  0  0
  6  5  1  0  0  0  0
  6 10  1  0  0  0  0
  7  6  2  0  0  0  0
 11 16  1  0  0  0  0
 12 13  1  0  0  0  0
 12 11  2  0  0  0  0
 13 14  2  0  0  0  0
 14 15  1  0  0  0  0
 15  3  1  0  0  0  0
 16 15  2  0  0  0  0
 17 11  1  0  0  0  0
 18 12  1  0  0  0  0
 19 13  1  0  0  0  0
 20  7  1  0  0  0  0
 20 23  1  0  0  0  0
 21 22  1  0  0  0  0
 22 27  1  0  0  0  0
 23 24  1  0  0  0  0
 23 22  2  0  0  0  0
 24 25  2  0  0  0  0
 25 29  1  0  0  0  0
 25 26  1  0  0  0  0
 26 30  1  0  0  0  0
 27 26  2  0  0  0  0
 27 31  1  0  0  0  0
 28 24  1  0  0  0  0
 31 32  1  0  0  0  0
 32 33  1  0  0  0  0
 32 36  1  0  0  0  0
 34 32  1  0  0  0  0
 35 34  1  0  0  0  0
 36 37  1  0  0  0  0
M  END
>  <minimizedAffinity>
-5.28665209

$$$$

 OpenBabel03272505143D

 37 39  0  0  0  0  0  0  0  0999 V2000
   36.1420   27.7830   34.5850 Cl  0  0  0  0  0  0  0  0  0  0  0  0
   36.2630   28.6750   33.0830 C   0  0  0  0  0  0  0  0  0  0  0  0
   35.8150   29.9890   33.0920 C   0  0  0  0  0  0  0  0  0  0  0  0
   35.9040   30.7060   31.9170 C   0  0  0  0  0  0  0  0  0  0  0  0
   36.4200   30.1180   30.7900 C   0  0  0  0  0  0  0  0  0  0  0  0
   36.8510   28.7900   30.8560 C   0  0  0  0  0  0  0  0  0  0  0  0
   36.7940   28.0130   31.9920 C   0  0  0  0  0  0  0  0  0  0  0  0
   35.5510   31.7190   31.9540 H   0  0  0  0  0  0  0  0  0  0  0  0
   36.4910   30.6720   29.8680 H   0  0  0  0  0  0  0  0  0  0  0  0
   37.2540   28.3570   29.9460 H   0  0  0  0  0  0  0  0  0  0  0  0
   33.3950   30.9330   35.6480 C   0  0  0  0  0  0  0  0  0  0  0  0
   34.1430   31.6330   36.6060 C   0  0  0  0  0  0  0  0  0  0  0  0
   35.5210   31.7780   36.3540 C   0  0  0  0  0  0  0  0  0  0  0  0
   36.0330   31.2390   35.2150 N   0  0  0  0  0  0  0  0  0  0  0  0
   35.2670   30.5790   34.3330 C   0  0  0  0  0  0  0  0  0  0  0  0
   33.9660   30.4340   34.5570 N   0  0  0  0  0  0  0  0  0  0  0  0
   32.3540   30.8340   35.8520 H   0  0  0  0  0  0  0  0  0  0  0  0
   33.7510   32.0730   37.5210 H   0  0  0  0  0  0  0  0  0  0  0  0
   36.1860   32.3030   37.0340 H   0  0  0  0  0  0  0  0  0  0  0  0
   37.3360   26.3420   32.0810 S   0  0  0  0  0  0  0  0  0  0  0  0
   37.7720   23.5460   33.4770 Cl  0  0  0  0  0  0  0  0  0  0  0  0
   38.8710   24.8900   33.7530 C   0  0  0  0  0  0  0  0  0  0  0  0
   38.7490   26.1560   33.1790 C   0  0  0  0  0  0  0  0  0  0  0  0
   39.6710   27.1340   33.4700 C   0  0  0  0  0  0  0  0  0  0  0  0
   40.7130   26.8700   34.3260 C   0  0  0  0  0  0  0  0  0  0  0  0
   40.8790   25.6350   34.9200 C   0  0  0  0  0  0  0  0  0  0  0  0
   39.9380   24.6780   34.6070 C   0  0  0  0  0  0  0  0  0  0  0  0
   39.5120   28.1020   32.9840 H   0  0  0  0  0  0  0  0  0  0  0  0
   41.3790   27.7130   34.4830 H   0  0  0  0  0  0  0  0  0  0  0  0
   41.7140   25.4810   35.5820 H   0  0  0  0  0  0  0  0  0  0  0  0
   40.1130   23.3300   35.2450 C   0  0  0  0  0  2  0  0  0  0  0  0
   39.9970   23.3850   36.6860 N   0  0  0  0  0  4  0  0  0  0  0  0
   40.2900   24.3070   37.0770 H   0  0  0  0  0  0  0  0  0  0  0  0
   40.7600   22.2820   37.2310 C   0  0  0  0  0  2  0  0  0  0  0  0
   41.7860   22.6450   37.4490 H   0  0  0  0  0  0  0  0  0  0  0  0
   38.5880   23.1320   37.0120 C   0  0  0  0  0  2  0  0  0  0  0  0
   38.4460   22.8370   38.0680 H   0  0  0  0  0  0  0  0  0  0  0  0
  2  3  1  0  0  0  0
  2  1  1  0  0  0  0
  3 15  1  0  0  0  0
  4  8  1  0  0  0  0
  4  3  2  0  0  0  0
  5  6  2  0  0  0  0
  5  4  1  0  0  0  0
  6  7  1  0  0  0  0
  7 20  1  0  0  0  0
  7  2  2  0  0  0  0
  9  5  1  0  0  0  0
 10  6  1  0  0  0  0
 11 17  1  0  0  0  0
 11 12  1  0  0  0  0
 12 18  1  0  0  0  0
 13 12  2  0  0  0  0
 13 19  1  0  0  0  0
 14 13  1  0  0  0  0
 15 16  1  0  0  0  0
 15 14  2  0  0  0  0
 16 11  2  0  0  0  0
 20 23  1  0  0  0  0
 21 22  1  0  0  0  0
 22 27  1  0  0  0  0
 23 24  1  0  0  0  0
 23 22  2  0  0  0  0
 24 25  2  0  0  0  0
 25 29  1  0  0  0  0
 25 26  1  0  0  0  0
 26 30  1  0  0  0  0
 27 26  2  0  0  0  0
 27 31  1  0  0  0  0
 28 24  1  0  0  0  0
 31 32  1  0  0  0  0
 32 36  1  0  0  0  0
 32 33  1  0  0  0  0
 32 34  1  0  0  0  0
 34 35  1  0  0  0  0
 36 37  1  0  0  0  0
M  END
>  <minimizedAffinity>
-5.23561573

$$$$

 OpenBabel03272505143D

 37 39  0  0  0  0  0  0  0  0999 V2000
   37.4630   24.7250   33.3420 Cl  0  0  0  0  0  0  0  0  0  0  0  0
   38.8800   25.7530   33.3490 C   0  0  0  0  0  0  0  0  0  0  0  0
   39.6510   25.7560   34.5020 C   0  0  0  0  0  0  0  0  0  0  0  0
   40.7730   26.5610   34.5230 C   0  0  0  0  0  0  0  0  0  0  0  0
   41.0930   27.3210   33.4280 C   0  0  0  0  0  0  0  0  0  0  0  0
   40.2690   27.2660   32.3000 C   0  0  0  0  0  0  0  0  0  0  0  0
   39.1360   26.4890   32.2070 C   0  0  0  0  0  0  0  0  0  0  0  0
   41.3500   26.5430   35.4280 H   0  0  0  0  0  0  0  0  0  0  0  0
   41.9670   27.9530   33.4380 H   0  0  0  0  0  0  0  0  0  0  0  0
   40.5530   27.8810   31.4520 H   0  0  0  0  0  0  0  0  0  0  0  0
   39.6230   22.9570   36.8350 C   0  0  0  0  0  0  0  0  0  0  0  0
   38.6290   23.2810   37.7690 C   0  0  0  0  0  0  0  0  0  0  0  0
   37.9550   24.5040   37.5810 C   0  0  0  0  0  0  0  0  0  0  0  0
   38.3040   25.2810   36.5200 N   0  0  0  0  0  0  0  0  0  0  0  0
   39.2650   24.9180   35.6570 C   0  0  0  0  0  0  0  0  0  0  0  0
   39.9090   23.7680   35.8220 N   0  0  0  0  0  0  0  0  0  0  0  0
   40.1220   22.0280   36.9900 H   0  0  0  0  0  0  0  0  0  0  0  0
   38.3350   22.6720   38.6210 H   0  0  0  0  0  0  0  0  0  0  0  0
   37.1700   24.8450   38.2500 H   0  0  0  0  0  0  0  0  0  0  0  0
   38.0960   26.4150   30.7900 S   0  0  0  0  0  0  0  0  0  0  0  0
   36.3160   28.4060   32.4690 Cl  0  0  0  0  0  0  0  0  0  0  0  0
   36.9890   28.8680   30.9120 C   0  0  0  0  0  0  0  0  0  0  0  0
   37.7810   28.0490   30.1070 C   0  0  0  0  0  0  0  0  0  0  0  0
   38.2530   28.5190   28.9040 C   0  0  0  0  0  0  0  0  0  0  0  0
   37.9450   29.7920   28.4900 C   0  0  0  0  0  0  0  0  0  0  0  0
   37.1650   30.6420   29.2480 C   0  0  0  0  0  0  0  0  0  0  0  0
   36.7100   30.1410   30.4480 C   0  0  0  0  0  0  0  0  0  0  0  0
   38.8670   27.8220   28.3250 H   0  0  0  0  0  0  0  0  0  0  0  0
   38.3700   30.0570   27.5260 H   0  0  0  0  0  0  0  0  0  0  0  0
   36.9560   31.6310   28.8770 H   0  0  0  0  0  0  0  0  0  0  0  0
   35.8640   31.0590   31.2820 C   0  0  0  0  0  2  0  0  0  0  0  0
   34.5370   31.2330   30.7340 N   0  0  0  0  0  4  0  0  0  0  0  0
   34.3900   30.6860   29.8570 H   0  0  0  0  0  0  0  0  0  0  0  0
   34.3190   32.6530   30.5480 C   0  0  0  0  0  2  0  0  0  0  0  0
   34.6190   32.9160   29.5130 H   0  0  0  0  0  0  0  0  0  0  0  0
   33.5880   30.7870   31.7620 C   0  0  0  0  0  2  0  0  0  0  0  0
   32.5640   31.1650   31.5840 H   0  0  0  0  0  0  0  0  0  0  0  0
  1  2  1  0  0  0  0
  2  3  1  0  0  0  0
  3  4  2  0  0  0  0
  3 15  1  0  0  0  0
  4  8  1  0  0  0  0
  5  9  1  0  0  0  0
  5  4  1  0  0  0  0
  6  5  2  0  0  0  0
  7  6  1  0  0  0  0
  7  2  2  0  0  0  0
 10  6  1  0  0  0  0
 11 17  1  0  0  0  0
 11 12  1  0  0  0  0
 12 18  1  0  0  0  0
 13 12  2  0  0  0  0
 13 19  1  0  0  0  0
 14 13  1  0  0  0  0
 15 16  1  0  0  0  0
 15 14  2  0  0  0  0
 16 11  2  0  0  0  0
 20  7  1  0  0  0  0
 22 21  1  0  0  0  0
 23 20  1  0  0  0  0
 23 22  2  0  0  0  0
 24 23  1  0  0  0  0
 25 24  2  0  0  0  0
 25 26  1  0  0  0  0
 26 27  2  0  0  0  0
 27 22  1  0  0  0  0
 27 31  1  0  0  0  0
 28 24  1  0  0  0  0
 29 25  1  0  0  0  0
 30 26  1  0  0  0  0
 32 31  1  0  0  0  0
 32 36  1  0  0  0  0
 33 32  1  0  0  0  0
 34 32  1  0  0  0  0
 35 34  1  0  0  0  0
 37 36  1  0  0  0  0
M  END
>  <minimizedAffinity>
-5.20613766

$$$$

 OpenBabel03272505143D

 37 39  0  0  0  0  0  0  0  0999 V2000
   38.1160   24.2670   32.9090 Cl  0  0  0  0  0  0  0  0  0  0  0  0
   38.0230   25.6490   33.9790 C   0  0  0  0  0  0  0  0  0  0  0  0
   38.7260   25.5710   35.1730 C   0  0  0  0  0  0  0  0  0  0  0  0
   38.6640   26.6530   36.0280 C   0  0  0  0  0  0  0  0  0  0  0  0
   37.9250   27.7570   35.6850 C   0  0  0  0  0  0  0  0  0  0  0  0
   37.2440   27.7650   34.4650 C   0  0  0  0  0  0  0  0  0  0  0  0
   37.2600   26.7230   33.5630 C   0  0  0  0  0  0  0  0  0  0  0  0
   39.2170   26.5640   36.9430 H   0  0  0  0  0  0  0  0  0  0  0  0
   37.8710   28.6050   36.3490 H   0  0  0  0  0  0  0  0  0  0  0  0
   36.6700   28.6540   34.2270 H   0  0  0  0  0  0  0  0  0  0  0  0
   39.5250   22.2740   36.5040 C   0  0  0  0  0  0  0  0  0  0  0  0
   40.8660   22.0630   36.1510 C   0  0  0  0  0  0  0  0  0  0  0  0
   41.5050   23.0930   35.4340 C   0  0  0  0  0  0  0  0  0  0  0  0
   40.7910   24.2120   35.1320 N   0  0  0  0  0  0  0  0  0  0  0  0
   39.5080   24.3580   35.4970 C   0  0  0  0  0  0  0  0  0  0  0  0
   38.8930   23.3960   36.1740 N   0  0  0  0  0  0  0  0  0  0  0  0
   39.0580   21.4860   37.0480 H   0  0  0  0  0  0  0  0  0  0  0  0
   41.4520   21.1760   36.3850 H   0  0  0  0  0  0  0  0  0  0  0  0
   42.5400   23.0260   35.1140 H   0  0  0  0  0  0  0  0  0  0  0  0
   36.4040   26.7290   32.0260 S   0  0  0  0  0  0  0  0  0  0  0  0
   34.3560   28.9990   32.8030 Cl  0  0  0  0  0  0  0  0  0  0  0  0
   35.6030   29.2640   31.5930 C   0  0  0  0  0  0  0  0  0  0  0  0
   36.5440   28.3160   31.1900 C   0  0  0  0  0  0  0  0  0  0  0  0
   37.4750   28.6360   30.2300 C   0  0  0  0  0  0  0  0  0  0  0  0
   37.4820   29.8880   29.6650 C   0  0  0  0  0  0  0  0  0  0  0  0
   36.5750   30.8630   30.0270 C   0  0  0  0  0  0  0  0  0  0  0  0
   35.6560   30.5090   30.9920 C   0  0  0  0  0  0  0  0  0  0  0  0
   38.1810   27.8430   29.9630 H   0  0  0  0  0  0  0  0  0  0  0  0
   38.2590   30.0310   28.9190 H   0  0  0  0  0  0  0  0  0  0  0  0
   36.6250   31.8280   29.5540 H   0  0  0  0  0  0  0  0  0  0  0  0
   34.6660   31.5630   31.3970 C   0  0  0  0  0  2  0  0  0  0  0  0
   33.6220   31.7440   30.4120 N   0  0  0  0  0  4  0  0  0  0  0  0
   33.7380   31.1180   29.5850 H   0  0  0  0  0  0  0  0  0  0  0  0
   33.5950   33.1460   30.0500 C   0  0  0  0  0  2  0  0  0  0  0  0
   34.2480   33.2870   29.1650 H   0  0  0  0  0  0  0  0  0  0  0  0
   32.3490   31.4510   31.0820 C   0  0  0  0  0  2  0  0  0  0  0  0
   31.4800   31.8580   30.5310 H   0  0  0  0  0  0  0  0  0  0  0  0
  1  2  1  0  0  0  0
  2  3  1  0  0  0  0
  3 15  1  0  0  0  0
  3  4  2  0  0  0  0
  4  8  1  0  0  0  0
  5  4  1  0  0  0  0
  5  9  1  0  0  0  0
  6  5  2  0  0  0  0
  7  2  2  0  0  0  0
  7  6  1  0  0  0  0
 10  6  1  0  0  0  0
 11 17  1  0  0  0  0
 12 18  1  0  0  0  0
 12 11  2  0  0  0  0
 13 12  1  0  0  0  0
 14 13  2  0  0  0  0
 14 15  1  0  0  0  0
 15 16  2  0  0  0  0
 16 11  1  0  0  0  0
 19 13  1  0  0  0  0
 20  7  1  0  0  0  0
 22 21  1  0  0  0  0
 23 22  1  0  0  0  0
 23 20  1  0  0  0  0
 24 23  2  0  0  0  0
 25 26  2  0  0  0  0
 25 24  1  0  0  0  0
 26 27  1  0  0  0  0
 27 31  1  0  0  0  0
 27 22  2  0  0  0  0
 28 24  1  0  0  0  0
 29 25  1  0  0  0  0
 30 26  1  0  0  0  0
 32 36  1  0  0  0  0
 32 31  1  0  0  0  0
 33 32  1  0  0  0  0
 34 32  1  0  0  0  0
 35 34  1  0  0  0  0
 37 36  1  0  0  0  0
M  END
>  <minimizedAffinity>
-5.18210745

$$$$

 OpenBabel03272505143D

 37 39  0  0  0  0  0  0  0  0999 V2000
   36.1140   29.3920   34.7580 Cl  0  0  0  0  0  0  0  0  0  0  0  0
   36.3680   28.1170   33.5870 C   0  0  0  0  0  0  0  0  0  0  0  0
   35.6620   28.2040   32.3950 C   0  0  0  0  0  0  0  0  0  0  0  0
   35.8510   27.2060   31.4600 C   0  0  0  0  0  0  0  0  0  0  0  0
   36.7140   26.1730   31.7240 C   0  0  0  0  0  0  0  0  0  0  0  0
   37.3920   26.1510   32.9470 C   0  0  0  0  0  0  0  0  0  0  0  0
   37.2530   27.1100   33.9250 C   0  0  0  0  0  0  0  0  0  0  0  0
   35.2920   27.3000   30.5490 H   0  0  0  0  0  0  0  0  0  0  0  0
   36.8660   25.3900   31.0000 H   0  0  0  0  0  0  0  0  0  0  0  0
   38.0660   25.3190   33.1210 H   0  0  0  0  0  0  0  0  0  0  0  0
   34.4400   31.4150   31.1800 C   0  0  0  0  0  0  0  0  0  0  0  0
   33.1230   31.4980   31.6540 C   0  0  0  0  0  0  0  0  0  0  0  0
   32.6510   30.4090   32.4130 C   0  0  0  0  0  0  0  0  0  0  0  0
   33.4900   29.3620   32.6370 N   0  0  0  0  0  0  0  0  0  0  0  0
   34.7430   29.3390   32.1570 C   0  0  0  0  0  0  0  0  0  0  0  0
   35.2020   30.3570   31.4400 N   0  0  0  0  0  0  0  0  0  0  0  0
   34.7830   32.2470   30.6100 H   0  0  0  0  0  0  0  0  0  0  0  0
   32.4390   32.3270   31.4870 H   0  0  0  0  0  0  0  0  0  0  0  0
   31.6460   30.3770   32.8240 H   0  0  0  0  0  0  0  0  0  0  0  0
   38.1050   27.0880   35.4650 S   0  0  0  0  0  0  0  0  0  0  0  0
   40.8950   25.9170   34.5700 Cl  0  0  0  0  0  0  0  0  0  0  0  0
   39.7720   24.9730   35.5390 C   0  0  0  0  0  0  0  0  0  0  0  0
   38.5210   25.4140   35.9730 C   0  0  0  0  0  0  0  0  0  0  0  0
   37.7250   24.5840   36.7270 C   0  0  0  0  0  0  0  0  0  0  0  0
   38.1560   23.3210   37.0550 C   0  0  0  0  0  0  0  0  0  0  0  0
   39.3830   22.8370   36.6510 C   0  0  0  0  0  0  0  0  0  0  0  0
   40.1570   23.6940   35.8970 C   0  0  0  0  0  0  0  0  0  0  0  0
   36.7570   24.9950   37.0320 H   0  0  0  0  0  0  0  0  0  0  0  0
   37.4470   22.7550   37.6520 H   0  0  0  0  0  0  0  0  0  0  0  0
   39.6730   21.8400   36.9360 H   0  0  0  0  0  0  0  0  0  0  0  0
   41.4960   23.1780   35.4560 C   0  0  0  0  0  2  0  0  0  0  0  0
   42.3990   22.9720   36.5670 N   0  0  0  0  0  4  0  0  0  0  0  0
   41.9160   23.0230   37.4910 H   0  0  0  0  0  0  0  0  0  0  0  0
   43.4730   23.9360   36.4470 C   0  0  0  0  0  2  0  0  0  0  0  0
   43.1970   24.8370   37.0320 H   0  0  0  0  0  0  0  0  0  0  0  0
   42.9970   21.6430   36.3920 C   0  0  0  0  0  2  0  0  0  0  0  0
   43.9180   21.5130   36.9890 H   0  0  0  0  0  0  0  0  0  0  0  0
  2  7  1  0  0  0  0
  2  1  1  0  0  0  0
  3  2  2  0  0  0  0
  4  5  2  0  0  0  0
  4  3  1  0  0  0  0
  5  6  1  0  0  0  0
  6 10  1  0  0  0  0
  6  7  2  0  0  0  0
  7 20  1  0  0  0  0
  8  4  1  0  0  0  0
  9  5  1  0  0  0  0
 11 16  2  0  0  0  0
 11 12  1  0  0  0  0
 12 13  2  0  0  0  0
 13 14  1  0  0  0  0
 13 19  1  0  0  0  0
 15  3  1  0  0  0  0
 15 14  2  0  0  0  0
 16 15  1  0  0  0  0
 17 11  1  0  0  0  0
 18 12  1  0  0  0  0
 20 23  1  0  0  0  0
 21 22  1  0  0  0  0
 22 27  2  0  0  0  0
 22 23  1  0  0  0  0
 23 24  2  0  0  0  0
 24 28  1  0  0  0  0
 24 25  1  0  0  0  0
 25 29  1  0  0  0  0
 26 30  1  0  0  0  0
 26 25  2  0  0  0  0
 27 26  1  0  0  0  0
 31 27  1  0  0  0  0
 31 32  1  0  0  0  0
 32 33  1  0  0  0  0
 34 32  1  0  0  0  0
 34 35  1  0  0  0  0
 36 32  1  0  0  0  0
 36 37  1  0  0  0  0
M  END
>  <minimizedAffinity>
-5.17038822

$$$$

 OpenBabel03272505143D

 37 39  0  0  0  0  0  0  0  0999 V2000
   38.8650   23.3850   33.7780 Cl  0  0  0  0  0  0  0  0  0  0  0  0
   39.8890   24.8020   33.8550 C   0  0  0  0  0  0  0  0  0  0  0  0
   40.9700   24.7530   34.7240 C   0  0  0  0  0  0  0  0  0  0  0  0
   41.7880   25.8630   34.7960 C   0  0  0  0  0  0  0  0  0  0  0  0
   41.5200   26.9650   34.0250 C   0  0  0  0  0  0  0  0  0  0  0  0
   40.4130   26.9420   33.1720 C   0  0  0  0  0  0  0  0  0  0  0  0
   39.5540   25.8730   33.0480 C   0  0  0  0  0  0  0  0  0  0  0  0
   42.6160   25.7960   35.4760 H   0  0  0  0  0  0  0  0  0  0  0  0
   42.1530   27.8350   34.0780 H   0  0  0  0  0  0  0  0  0  0  0  0
   40.2310   27.8310   32.5770 H   0  0  0  0  0  0  0  0  0  0  0  0
   42.4080   21.5680   35.7570 C   0  0  0  0  0  0  0  0  0  0  0  0
   41.7580   21.2570   36.9600 C   0  0  0  0  0  0  0  0  0  0  0  0
   40.7980   22.1790   37.4210 C   0  0  0  0  0  0  0  0  0  0  0  0
   40.5630   23.2960   36.6800 N   0  0  0  0  0  0  0  0  0  0  0  0
   41.2170   23.5410   35.5340 C   0  0  0  0  0  0  0  0  0  0  0  0
   42.1250   22.6810   35.0880 N   0  0  0  0  0  0  0  0  0  0  0  0
   43.1290   20.8600   35.4210 H   0  0  0  0  0  0  0  0  0  0  0  0
   41.9300   20.3680   37.5630 H   0  0  0  0  0  0  0  0  0  0  0  0
   40.2410   22.0290   38.3410 H   0  0  0  0  0  0  0  0  0  0  0  0
   38.1600   25.8390   31.9740 S   0  0  0  0  0  0  0  0  0  0  0  0
   36.8340   26.8090   34.6680 Cl  0  0  0  0  0  0  0  0  0  0  0  0
   36.7300   27.7670   33.1980 C   0  0  0  0  0  0  0  0  0  0  0  0
   37.2840   27.4100   31.9680 C   0  0  0  0  0  0  0  0  0  0  0  0
   37.1380   28.2410   30.8820 C   0  0  0  0  0  0  0  0  0  0  0  0
   36.4470   29.4220   31.0020 C   0  0  0  0  0  0  0  0  0  0  0  0
   35.8790   29.8220   32.1950 C   0  0  0  0  0  0  0  0  0  0  0  0
   36.0450   28.9670   33.2640 C   0  0  0  0  0  0  0  0  0  0  0  0
   37.5980   27.8970   29.9500 H   0  0  0  0  0  0  0  0  0  0  0  0
   36.3940   29.9980   30.0830 H   0  0  0  0  0  0  0  0  0  0  0  0
   35.3490   30.7580   32.2350 H   0  0  0  0  0  0  0  0  0  0  0  0
   35.4350   29.3940   34.5670 C   0  0  0  0  0  2  0  0  0  0  0  0
   35.2500   30.8270   34.6440 N   0  0  0  0  0  4  0  0  0  0  0  0
   35.4590   31.3080   33.7420 H   0  0  0  0  0  0  0  0  0  0  0  0
   36.0640   31.3180   35.7380 C   0  0  0  0  0  2  0  0  0  0  0  0
   37.0500   31.6170   35.3280 H   0  0  0  0  0  0  0  0  0  0  0  0
   33.8490   31.0580   35.0170 C   0  0  0  0  0  2  0  0  0  0  0  0
   33.6800   32.0780   35.4100 H   0  0  0  0  0  0  0  0  0  0  0  0
  1  2  1  0  0  0  0
  2  3  1  0  0  0  0
  3  4  2  0  0  0  0
  3 15  1  0  0  0  0
  4  8  1  0  0  0  0
  5  9  1  0  0  0  0
  5  4  1  0  0  0  0
  6  5  2  0  0  0  0
  7  6  1  0  0  0  0
  7  2  2  0  0  0  0
 10  6  1  0  0  0  0
 11 12  1  0  0  0  0
 12 13  2  0  0  0  0
 12 18  1  0  0  0  0
 13 19  1  0  0  0  0
 14 13  1  0  0  0  0
 15 14  2  0  0  0  0
 16 15  1  0  0  0  0
 16 11  2  0  0  0  0
 17 11  1  0  0  0  0
 20  7  1  0  0  0  0
 22 27  1  0  0  0  0
 22 21  1  0  0  0  0
 23 20  1  0  0  0  0
 23 22  2  0  0  0  0
 24 25  2  0  0  0  0
 24 23  1  0  0  0  0
 25 26  1  0  0  0  0
 26 30  1  0  0  0  0
 26 27  2  0  0  0  0
 27 31  1  0  0  0  0
 28 24  1  0  0  0  0
 29 25  1  0  0  0  0
 31 32  1  0  0  0  0
 32 36  1  0  0  0  0
 32 34  1  0  0  0  0
 33 32  1  0  0  0  0
 35 34  1  0  0  0  0
 36 37  1  0  0  0  0
M  END
>  <minimizedAffinity>
-5.14806652

$$$$

 OpenBabel03272505143D

 37 39  0  0  0  0  0  0  0  0999 V2000
   38.1630   23.6890   33.6520 Cl  0  0  0  0  0  0  0  0  0  0  0  0
   37.9990   25.2800   34.3620 C   0  0  0  0  0  0  0  0  0  0  0  0
   38.5650   25.4740   35.6140 C   0  0  0  0  0  0  0  0  0  0  0  0
   38.4460   26.7240   36.1870 C   0  0  0  0  0  0  0  0  0  0  0  0
   37.7840   27.7250   35.5210 C   0  0  0  0  0  0  0  0  0  0  0  0
   37.2400   27.4560   34.2620 C   0  0  0  0  0  0  0  0  0  0  0  0
   37.3190   26.2350   33.6290 C   0  0  0  0  0  0  0  0  0  0  0  0
   38.8930   26.8450   37.1550 H   0  0  0  0  0  0  0  0  0  0  0  0
   37.6860   28.7030   35.9630 H   0  0  0  0  0  0  0  0  0  0  0  0
   36.7240   28.2710   33.7650 H   0  0  0  0  0  0  0  0  0  0  0  0
   39.2320   22.8000   37.9970 C   0  0  0  0  0  0  0  0  0  0  0  0
   40.4850   22.2940   37.6240 C   0  0  0  0  0  0  0  0  0  0  0  0
   41.1110   22.8990   36.5160 C   0  0  0  0  0  0  0  0  0  0  0  0
   40.4700   23.9220   35.8880 N   0  0  0  0  0  0  0  0  0  0  0  0
   39.2690   24.3640   36.2910 C   0  0  0  0  0  0  0  0  0  0  0  0
   38.6670   23.8030   37.3340 N   0  0  0  0  0  0  0  0  0  0  0  0
   38.7730   22.3330   38.8380 H   0  0  0  0  0  0  0  0  0  0  0  0
   41.0130   21.4790   38.1150 H   0  0  0  0  0  0  0  0  0  0  0  0
   42.0810   22.5790   36.1490 H   0  0  0  0  0  0  0  0  0  0  0  0
   36.6360   25.8930   32.0440 S   0  0  0  0  0  0  0  0  0  0  0  0
   37.6370   28.6260   30.8280 Cl  0  0  0  0  0  0  0  0  0  0  0  0
   38.2920   27.0870   30.2870 C   0  0  0  0  0  0  0  0  0  0  0  0
   37.9040   25.8370   30.7690 C   0  0  0  0  0  0  0  0  0  0  0  0
   38.4870   24.6960   30.2690 C   0  0  0  0  0  0  0  0  0  0  0  0
   39.4510   24.7830   29.2930 C   0  0  0  0  0  0  0  0  0  0  0  0
   39.8700   25.9940   28.7820 C   0  0  0  0  0  0  0  0  0  0  0  0
   39.2670   27.1180   29.3050 C   0  0  0  0  0  0  0  0  0  0  0  0
   38.1330   23.7510   30.6930 H   0  0  0  0  0  0  0  0  0  0  0  0
   39.8410   23.8220   28.9730 H   0  0  0  0  0  0  0  0  0  0  0  0
   40.6300   26.0060   28.0190 H   0  0  0  0  0  0  0  0  0  0  0  0
   39.7190   28.4400   28.7580 C   0  0  0  0  0  2  0  0  0  0  0  0
   39.1530   28.7200   27.4570 N   0  0  0  0  0  4  0  0  0  0  0  0
   38.4280   28.0230   27.1760 H   0  0  0  0  0  0  0  0  0  0  0  0
   40.2450   28.7990   26.5090 C   0  0  0  0  0  2  0  0  0  0  0  0
   40.3910   27.7940   26.0650 H   0  0  0  0  0  0  0  0  0  0  0  0
   38.5530   30.0580   27.5300 C   0  0  0  0  0  2  0  0  0  0  0  0
   38.3790   30.4970   26.5300 H   0  0  0  0  0  0  0  0  0  0  0  0
  1  2  1  0  0  0  0
  2  3  1  0  0  0  0
  3  4  2  0  0  0  0
  3 15  1  0  0  0  0
  4  8  1  0  0  0  0
  5  9  1  0  0  0  0
  5  4  1  0  0  0  0
  6  5  2  0  0  0  0
  7  6  1  0  0  0  0
  7  2  2  0  0  0  0
 10  6  1  0  0  0  0
 11 17  1  0  0  0  0
 12 11  1  0  0  0  0
 12 18  1  0  0  0  0
 13 12  2  0  0  0  0
 14 15  2  0  0  0  0
 14 13  1  0  0  0  0
 15 16  1  0  0  0  0
 16 11  2  0  0  0  0
 19 13  1  0  0  0  0
 20  7  1  0  0  0  0
 22 23  1  0  0  0  0
 22 21  1  0  0  0  0
 23 20  1  0  0  0  0
 24 28  1  0  0  0  0
 24 23  2  0  0  0  0
 25 24  1  0  0  0  0
 26 25  2  0  0  0  0
 26 27  1  0  0  0  0
 27 22  2  0  0  0  0
 29 25  1  0  0  0  0
 30 26  1  0  0  0  0
 31 27  1  0  0  0  0
 32 36  1  0  0  0  0
 32 31  1  0  0  0  0
 33 32  1  0  0  0  0
 34 32  1  0  0  0  0
 35 34  1  0  0  0  0
 37 36  1  0  0  0  0
M  END
>  <minimizedAffinity>
-5.11018515

$$$$
