
 OpenBabel03262521003D

 33 34  0  0  1  0  0  0  0  0999 V2000
   39.7730   33.0890   45.8440 N   0  0  0  0  0  0  0  0  0  0  0  0
   38.4750   32.4860   45.9120 C   0  0  1  0  0  0  0  0  0  0  0  0
   37.8770   32.3560   44.5370 C   0  0  0  0  0  0  0  0  0  0  0  0
   38.7790   31.5340   43.7420 N   0  0  0  0  0  0  0  0  0  0  0  0
   39.9860   32.3640   43.5420 C   0  0  0  0  0  0  0  0  0  0  0  0
   40.6560   32.4430   44.9010 C   0  0  2  0  0  0  0  0  0  0  0  0
   39.6580   34.0590   45.5340 H   0  0  0  0  0  0  0  0  0  0  0  0
   37.8480   33.0920   46.5750 H   0  0  0  0  0  0  0  0  0  0  0  0
   37.8470   33.3720   44.1060 H   0  0  0  0  0  0  0  0  0  0  0  0
   36.8560   31.9260   44.5850 H   0  0  0  0  0  0  0  0  0  0  0  0
   38.3670   31.2710   42.8240 H   0  0  0  0  0  0  0  0  0  0  0  0
   39.7180   33.4050   43.2510 H   0  0  0  0  0  0  0  0  0  0  0  0
   40.6510   31.9260   42.7940 H   0  0  0  0  0  0  0  0  0  0  0  0
   41.5290   33.1320   44.7520 H   0  0  0  0  0  0  0  0  0  0  0  0
   41.0610   31.1280   45.3090 N   0  0  0  0  0  0  0  0  0  0  0  0
   42.0980   31.1510   45.4410 H   0  0  0  0  0  0  0  0  0  0  0  0
   40.8540   30.4210   44.5700 H   0  0  0  0  0  0  0  0  0  0  0  0
   38.5640   30.7790   46.5790 S   0  0  0  0  0  0  0  0  0  0  0  0
   37.7500   30.7190   50.5670 C   0  0  0  0  0  0  0  0  0  0  0  0
   38.4560   30.7720   49.3650 C   0  0  0  0  0  0  0  0  0  0  0  0
   37.7830   30.7200   48.1740 C   0  0  0  0  0  0  0  0  0  0  0  0
   36.4150   30.6180   48.2420 N   0  0  0  0  0  0  0  0  0  0  0  0
   35.7610   30.5690   49.3860 C   0  0  0  0  0  0  0  0  0  0  0  0
   36.4280   30.6200   50.5640 N   0  0  0  0  0  0  0  0  0  0  0  0
   38.4000   30.7690   51.4260 H   0  0  0  0  0  0  0  0  0  0  0  0
   39.5420   30.8530   49.2720 H   0  0  0  0  0  0  0  0  0  0  0  0
   34.2680   30.4570   49.3840 C   0  0  0  0  0  0  0  0  0  0  0  0
   33.7730   29.2020   48.9470 N   0  0  0  0  0  0  0  0  0  0  0  0
   32.8030   29.0460   49.3390 H   0  0  0  0  0  0  0  0  0  0  0  0
   33.5900   29.2410   47.5090 C   0  0  0  0  0  0  0  0  0  0  0  0
   34.5630   28.9680   47.0070 H   0  0  0  0  0  0  0  0  0  0  0  0
   34.5640   28.0680   49.3600 C   0  0  0  0  0  0  0  0  0  0  0  0
   34.6500   28.0790   50.4660 H   0  0  0  0  0  0  0  0  0  0  0  0
  1  2  1  0  0  0  0
  2  8  1  1  0  0  0
  2 18  1  0  0  0  0
  3 10  1  0  0  0  0
  3  2  1  0  0  0  0
  4  3  1  0  0  0  0
  5  4  1  0  0  0  0
  5  6  1  0  0  0  0
  6 14  1  6  0  0  0
  6 15  1  0  0  0  0
  6  1  1  0  0  0  0
  7  1  1  0  0  0  0
  9  3  1  0  0  0  0
 11  4  1  0  0  0  0
 12  5  1  0  0  0  0
 13  5  1  0  0  0  0
 15 16  1  0  0  0  0
 17 15  1  0  0  0  0
 18 21  1  0  0  0  0
 19 25  1  0  0  0  0
 20 19  2  0  0  0  0
 21 22  2  0  0  0  0
 21 20  1  0  0  0  0
 22 23  1  0  0  0  0
 23 24  2  0  0  0  0
 24 19  1  0  0  0  0
 26 20  1  0  0  0  0
 27 23  1  0  0  0  0
 28 29  1  0  0  0  0
 28 32  1  0  0  0  0
 28 27  1  0  0  0  0
 30 28  1  0  0  0  0
 31 30  1  0  0  0  0
 32 33  1  0  0  0  0
M  END
>  <minimizedAffinity>
-5.18860245

>  <minimizedRMSD>
1.42588747

$$$$
