
 OpenBabel03272508533D

 36 38  0  0  1  0  0  0  0  0999 V2000
   38.4120   31.8510   44.5410 C   0  0  0  0  0  0  0  0  0  0  0  0
   37.3020   32.4500   44.4200 O   0  0  0  0  0  0  0  0  0  0  0  0
   38.9390   31.5590   45.8380 N   0  0  0  0  0  0  0  0  0  0  0  0
   39.9060   31.2510   45.9800 H   0  0  0  0  0  0  0  0  0  0  0  0
   39.1780   31.4460   43.3510 C   0  0  0  0  0  0  0  0  0  0  0  0
   40.1850   30.5330   43.5100 C   0  0  0  0  0  0  0  0  0  0  0  0
   40.9060   30.1490   42.3880 C   0  0  0  0  0  0  0  0  0  0  0  0
   40.5660   30.7060   41.1900 C   0  0  0  0  0  0  0  0  0  0  0  0
   39.5350   31.6440   41.0090 C   0  0  0  0  0  0  0  0  0  0  0  0
   38.8900   31.9610   42.1410 N   0  0  0  0  0  0  0  0  0  0  0  0
   40.4460   30.1010   44.4590 H   0  0  0  0  0  0  0  0  0  0  0  0
   41.7130   29.4310   42.4610 H   0  0  0  0  0  0  0  0  0  0  0  0
   41.1330   30.4000   40.3260 H   0  0  0  0  0  0  0  0  0  0  0  0
   39.2300   32.1990   39.6780 C   0  0  0  0  0  2  0  0  0  0  0  0
   38.0180   31.7060   39.0910 N   0  0  0  0  0  4  0  0  0  0  0  0
   38.1210   31.7350   38.0520 H   0  0  0  0  0  0  0  0  0  0  0  0
   37.7330   30.3270   39.4480 C   0  0  0  0  0  2  0  0  0  0  0  0
   38.6570   29.7400   39.4200 H   0  0  0  0  0  0  0  0  0  0  0  0
   36.8770   32.5640   39.4430 C   0  0  0  0  0  2  0  0  0  0  0  0
   36.4860   33.0960   38.5730 H   0  0  0  0  0  0  0  0  0  0  0  0
   38.4100   31.1100   48.2350 C   0  0  2  0  0  0  0  0  0  0  0  0
   38.6810   32.5530   48.1230 C   0  0  0  0  0  0  0  0  0  0  0  0
   38.0520   31.7130   46.9770 C   0  0  1  0  0  0  0  0  0  0  0  0
   39.3540   30.5060   48.3300 H   0  0  0  0  0  0  0  0  0  0  0  0
   37.9990   33.2760   48.6250 H   0  0  0  0  0  0  0  0  0  0  0  0
   39.6920   32.9300   47.9740 H   0  0  0  0  0  0  0  0  0  0  0  0
   36.9890   31.9540   46.7640 H   0  0  0  0  0  0  0  0  0  0  0  0
   35.0790   30.1990   49.5430 C   0  0  0  0  0  0  0  0  0  0  0  0
   35.3980   29.5590   50.7700 C   0  0  0  0  0  0  0  0  0  0  0  0
   36.7930   29.4630   51.1330 C   0  0  0  0  0  0  0  0  0  0  0  0
   37.7270   29.9810   50.2940 N   0  0  0  0  0  0  0  0  0  0  0  0
   37.3480   30.5810   49.1310 C   0  0  0  0  0  0  0  0  0  0  0  0
   36.0330   30.7050   48.7290 N   0  0  0  0  0  0  0  0  0  0  0  0
   34.0200   30.2410   49.3250 H   0  0  0  0  0  0  0  0  0  0  0  0
   34.6290   29.1670   51.3990 H   0  0  0  0  0  0  0  0  0  0  0  0
   37.0430   28.9780   52.0670 H   0  0  0  0  0  0  0  0  0  0  0  0
  1  3  1  0  0  0  0
  2  1  2  0  0  0  0
  3  4  1  0  0  0  0
  3 23  1  0  0  0  0
  5  6  1  0  0  0  0
  5  1  1  0  0  0  0
  6 11  1  0  0  0  0
  7 12  1  0  0  0  0
  7  6  2  0  0  0  0
  8  7  1  0  0  0  0
  9  8  2  0  0  0  0
  9 10  1  0  0  0  0
 10  5  2  0  0  0  0
 13  8  1  0  0  0  0
 14  9  1  0  0  0  0
 15 19  1  0  0  0  0
 15 17  1  0  0  0  0
 15 14  1  0  0  0  0
 16 15  1  0  0  0  0
 18 17  1  0  0  0  0
 20 19  1  0  0  0  0
 21 24  1  6  0  0  0
 21 32  1  0  0  0  0
 22 21  1  0  0  0  0
 22 25  1  0  0  0  0
 23 27  1  6  0  0  0
 23 22  1  0  0  0  0
 23 21  1  0  0  0  0
 26 22  1  0  0  0  0
 28 29  1  0  0  0  0
 29 30  2  0  0  0  0
 29 35  1  0  0  0  0
 30 36  1  0  0  0  0
 31 30  1  0  0  0  0
 32 31  2  0  0  0  0
 33 32  1  0  0  0  0
 33 28  2  0  0  0  0
 34 28  1  0  0  0  0
M  END
>  <minimizedAffinity>
-4.80729485

>  <minimizedRMSD>
0.356745631

$$$$
