
 OpenBabel03272508043D

 33 35  0  0  0  0  0  0  0  0999 V2000
   38.9120   31.0530   45.7490 C   0  0  0  0  0  0  0  0  0  0  0  0
   39.9280   31.9700   45.8470 C   0  0  0  0  0  0  0  0  0  0  0  0
   40.7100   31.9330   44.7080 C   0  0  0  0  0  0  0  0  0  0  0  0
   40.1190   30.9690   43.9440 N   0  0  0  0  0  0  0  0  0  0  0  0
   39.0730   30.4520   44.5430 N   0  0  0  0  0  0  0  0  0  0  0  0
   40.1140   32.6420   46.6920 H   0  0  0  0  0  0  0  0  0  0  0  0
   41.5870   32.4990   44.4250 H   0  0  0  0  0  0  0  0  0  0  0  0
   37.8640   30.7680   46.7250 C   0  0  0  0  0  0  0  0  0  0  0  0
   38.2380   30.7370   48.0950 C   0  0  0  0  0  0  0  0  0  0  0  0
   37.2440   30.4650   49.0310 C   0  0  0  0  0  0  0  0  0  0  0  0
   35.9750   30.2440   48.5760 N   0  0  0  0  0  0  0  0  0  0  0  0
   35.6500   30.2800   47.2650 C   0  0  0  0  0  0  0  0  0  0  0  0
   36.6030   30.5420   46.3500 N   0  0  0  0  0  0  0  0  0  0  0  0
   39.2760   30.9230   48.3890 H   0  0  0  0  0  0  0  0  0  0  0  0
   34.6520   30.1060   46.9250 H   0  0  0  0  0  0  0  0  0  0  0  0
   37.6150   30.4270   50.4780 C   0  0  0  0  0  0  0  0  0  0  0  0
   36.5870   31.0590   51.1330 F   0  0  0  0  0  0  0  0  0  0  0  0
   37.7060   29.1310   50.9600 F   0  0  0  0  0  0  0  0  0  0  0  0
   38.7960   31.1090   50.7260 F   0  0  0  0  0  0  0  0  0  0  0  0
   40.5230   30.5030   42.6210 C   0  0  0  0  0  0  0  0  0  0  0  0
   40.1910   31.2230   41.4650 C   0  0  0  0  0  0  0  0  0  0  0  0
   40.5870   30.7770   40.2490 C   0  0  0  0  0  0  0  0  0  0  0  0
   41.3380   29.5730   40.1760 C   0  0  0  0  0  0  0  0  0  0  0  0
   41.4600   29.0890   41.9700 S   0  0  0  0  0  0  0  0  0  0  0  0
   39.6160   32.1510   41.4700 H   0  0  0  0  0  0  0  0  0  0  0  0
   40.4480   31.1620   39.2570 H   0  0  0  0  0  0  0  0  0  0  0  0
   41.9650   28.7250   39.1550 C   0  0  0  0  0  2  0  0  0  0  0  0
   41.0440   27.8980   38.4320 N   0  0  0  0  0  4  0  0  0  0  0  0
   40.1080   28.3420   38.4600 H   0  0  0  0  0  0  0  0  0  0  0  0
   41.5360   27.7390   37.0780 C   0  0  0  0  0  2  0  0  0  0  0  0
   40.7000   27.7360   36.3680 H   0  0  0  0  0  0  0  0  0  0  0  0
   40.9310   26.5900   39.0560 C   0  0  0  0  0  2  0  0  0  0  0  0
   39.9570   26.1690   38.7940 H   0  0  0  0  0  0  0  0  0  0  0  0
  1  2  1  0  0  0  0
  1  8  1  0  0  0  0
  2  6  1  0  0  0  0
  3  2  2  0  0  0  0
  4  5  1  0  0  0  0
  4  3  1  0  0  0  0
  5  1  2  0  0  0  0
  7  3  1  0  0  0  0
  8  9  1  0  0  0  0
  9 14  1  0  0  0  0
  9 10  2  0  0  0  0
 10 16  1  0  0  0  0
 11 10  1  0  0  0  0
 12 11  2  0  0  0  0
 13  8  2  0  0  0  0
 13 12  1  0  0  0  0
 15 12  1  0  0  0  0
 16 19  1  0  0  0  0
 16 18  1  0  0  0  0
 16 17  1  0  0  0  0
 20  4  1  0  0  0  0
 21 25  1  0  0  0  0
 21 20  2  0  0  0  0
 22 21  1  0  0  0  0
 23 22  2  0  0  0  0
 23 24  1  0  0  0  0
 24 20  1  0  0  0  0
 26 22  1  0  0  0  0
 27 23  1  0  0  0  0
 28 29  1  0  0  0  0
 28 32  1  0  0  0  0
 28 27  1  0  0  0  0
 30 28  1  0  0  0  0
 31 30  1  0  0  0  0
 33 32  1  0  0  0  0
M  END
>  <minimizedAffinity>
-5.75550985

>  <minimizedRMSD>
0.997550249

$$$$
