
 OpenBabel03272506463D

 40 42  0  0  1  0  0  0  0  0999 V2000
   32.2370   28.4080   47.4270 C   0  0  2  0  0  0  0  0  0  0  0  0
   33.4420   28.3760   48.3180 C   0  0  1  0  0  0  0  0  0  0  0  0
   33.9200   27.0880   48.3260 O   0  0  0  0  0  0  0  0  0  0  0  0
   33.3260   26.3750   47.2890 C   0  0  0  0  0  0  0  0  0  0  0  0
   32.7040   27.3730   46.3460 C   0  0  1  0  0  0  0  0  0  0  0  0
   31.3260   28.0110   47.8540 H   0  0  0  0  0  0  0  0  0  0  0  0
   33.1970   28.7550   49.3320 H   0  0  0  0  0  0  0  0  0  0  0  0
   34.2030   25.9370   46.7080 H   0  0  0  0  0  0  0  0  0  0  0  0
   32.6900   25.5950   47.6670 H   0  0  0  0  0  0  0  0  0  0  0  0
   33.4080   27.9370   45.7370 H   0  0  0  0  0  0  0  0  0  0  0  0
   32.1080   29.6720   46.8250 O   0  0  0  0  0  0  0  0  0  0  0  0
   31.1410   29.8290   46.6490 H   0  0  0  0  0  0  0  0  0  0  0  0
   34.7260   29.4530   47.5790 S   0  0  0  0  0  0  0  0  0  0  0  0
   37.2700   29.2770   50.5970 C   0  0  0  0  0  0  0  0  0  0  0  0
   37.6740   30.5760   50.8160 C   0  0  0  0  0  0  0  0  0  0  0  0
   37.1390   31.5690   49.9930 C   0  0  0  0  0  0  0  0  0  0  0  0
   36.2580   31.2070   49.0330 N   0  0  0  0  0  0  0  0  0  0  0  0
   35.8840   29.9220   48.8460 C   0  0  0  0  0  0  0  0  0  0  0  0
   36.3900   28.9370   49.6330 N   0  0  0  0  0  0  0  0  0  0  0  0
   37.7290   28.5300   51.2740 H   0  0  0  0  0  0  0  0  0  0  0  0
   38.3720   30.9310   51.5570 H   0  0  0  0  0  0  0  0  0  0  0  0
   37.3330   32.6390   50.0110 H   0  0  0  0  0  0  0  0  0  0  0  0
   31.6300   26.7980   45.7250 O   0  0  0  0  0  0  0  0  0  0  0  0
   30.4450   28.5950   43.7210 Cl  0  0  0  0  0  0  0  0  0  0  0  0
   29.6950   27.8580   45.1130 C   0  0  0  0  0  0  0  0  0  0  0  0
   30.3470   27.0250   45.9910 C   0  0  0  0  0  0  0  0  0  0  0  0
   29.6210   26.4960   47.0560 C   0  0  0  0  0  0  0  0  0  0  0  0
   28.2870   26.7980   47.2250 C   0  0  0  0  0  0  0  0  0  0  0  0
   27.6210   27.6300   46.3500 C   0  0  0  0  0  0  0  0  0  0  0  0
   28.3500   28.1600   45.2790 C   0  0  0  0  0  0  0  0  0  0  0  0
   30.0670   25.8350   47.7800 H   0  0  0  0  0  0  0  0  0  0  0  0
   27.7520   26.3730   48.0610 H   0  0  0  0  0  0  0  0  0  0  0  0
   26.5930   27.8380   46.5300 H   0  0  0  0  0  0  0  0  0  0  0  0
   27.5560   29.0370   44.3820 C   0  0  0  0  0  2  0  0  0  0  0  0
   27.1050   30.2650   44.9300 N   0  0  0  0  0  4  0  0  0  0  0  0
   26.5870   30.2130   45.8360 H   0  0  0  0  0  0  0  0  0  0  0  0
   28.1750   31.2150   45.1000 C   0  0  0  0  0  2  0  0  0  0  0  0
   27.8370   32.1360   45.6340 H   0  0  0  0  0  0  0  0  0  0  0  0
   26.2340   30.8520   43.8880 C   0  0  0  0  0  2  0  0  0  0  0  0
   26.0420   31.8790   44.1670 H   0  0  0  0  0  0  0  0  0  0  0  0
  1  6  1  1  0  0  0
  1  2  1  0  0  0  0
  2  3  1  0  0  0  0
  2  7  1  1  0  0  0
  4  9  1  0  0  0  0
  4  3  1  0  0  0  0
  5 10  1  6  0  0  0
  5  4  1  0  0  0  0
  5  1  1  0  0  0  0
  8  4  1  0  0  0  0
 11  1  1  0  0  0  0
 12 11  1  0  0  0  0
 13  2  1  0  0  0  0
 13 18  1  0  0  0  0
 14 15  1  0  0  0  0
 14 20  1  0  0  0  0
 15 21  1  0  0  0  0
 16 22  1  0  0  0  0
 16 15  2  0  0  0  0
 17 16  1  0  0  0  0
 18 17  2  0  0  0  0
 18 19  1  0  0  0  0
 19 14  2  0  0  0  0
 23 26  1  0  0  0  0
 23  5  1  0  0  0  0
 24 25  1  0  0  0  0
 25 30  2  0  0  0  0
 25 26  1  0  0  0  0
 26 27  2  0  0  0  0
 27 28  1  0  0  0  0
 27 31  1  0  0  0  0
 28 32  1  0  0  0  0
 29 33  1  0  0  0  0
 29 28  2  0  0  0  0
 30 29  1  0  0  0  0
 34 35  1  0  0  0  0
 34 30  1  0  0  0  0
 35 37  1  0  0  0  0
 35 36  1  0  0  0  0
 37 38  1  0  0  0  0
 39 40  1  0  0  0  0
 39 35  1  0  0  0  0
M  END
>  <minimizedAffinity>
-4.60560799

>  <minimizedRMSD>
0.803831637

$$$$
