
 OpenBabel03272508053D

 33 35  0  0  0  0  0  0  0  0999 V2000
   38.9190   30.9100   45.7920 C   0  0  0  0  0  0  0  0  0  0  0  0
   40.1010   31.5580   46.0470 C   0  0  0  0  0  0  0  0  0  0  0  0
   40.9270   31.4880   44.9420 C   0  0  0  0  0  0  0  0  0  0  0  0
   40.1920   30.7790   44.0360 N   0  0  0  0  0  0  0  0  0  0  0  0
   39.0220   30.4400   44.5230 N   0  0  0  0  0  0  0  0  0  0  0  0
   40.3730   32.0640   46.9800 H   0  0  0  0  0  0  0  0  0  0  0  0
   41.9220   31.8740   44.7670 H   0  0  0  0  0  0  0  0  0  0  0  0
   37.7740   30.7480   46.6840 C   0  0  0  0  0  0  0  0  0  0  0  0
   37.9900   30.9650   48.0710 C   0  0  0  0  0  0  0  0  0  0  0  0
   36.9030   30.8120   48.9270 C   0  0  0  0  0  0  0  0  0  0  0  0
   35.6990   30.4630   48.3820 N   0  0  0  0  0  0  0  0  0  0  0  0
   35.5250   30.2650   47.0580 C   0  0  0  0  0  0  0  0  0  0  0  0
   36.5690   30.4090   46.2190 N   0  0  0  0  0  0  0  0  0  0  0  0
   38.9830   31.2420   48.4390 H   0  0  0  0  0  0  0  0  0  0  0  0
   34.5760   29.9920   46.6470 H   0  0  0  0  0  0  0  0  0  0  0  0
   37.1080   31.0350   50.3900 C   0  0  0  0  0  0  0  0  0  0  0  0
   36.5830   32.2770   50.6460 F   0  0  0  0  0  0  0  0  0  0  0  0
   36.4240   30.1070   51.1600 F   0  0  0  0  0  0  0  0  0  0  0  0
   38.4510   31.0350   50.7300 F   0  0  0  0  0  0  0  0  0  0  0  0
   40.5690   30.4010   42.6770 C   0  0  0  0  0  0  0  0  0  0  0  0
   40.2090   31.1910   41.5770 C   0  0  0  0  0  0  0  0  0  0  0  0
   40.5800   30.8240   40.3270 C   0  0  0  0  0  0  0  0  0  0  0  0
   41.3340   29.6310   40.1620 C   0  0  0  0  0  0  0  0  0  0  0  0
   41.4960   29.0350   41.9190 S   0  0  0  0  0  0  0  0  0  0  0  0
   39.6310   32.1130   41.6530 H   0  0  0  0  0  0  0  0  0  0  0  0
   40.4180   31.2700   39.3650 H   0  0  0  0  0  0  0  0  0  0  0  0
   41.9420   28.8530   39.0770 C   0  0  0  0  0  2  0  0  0  0  0  0
   40.9960   28.2480   38.1870 N   0  0  0  0  0  4  0  0  0  0  0  0
   41.4870   27.5310   37.6190 H   0  0  0  0  0  0  0  0  0  0  0  0
   39.9220   27.6800   38.9780 C   0  0  0  0  0  2  0  0  0  0  0  0
   39.5830   26.7340   38.5340 H   0  0  0  0  0  0  0  0  0  0  0  0
   40.4480   29.2370   37.2720 C   0  0  0  0  0  2  0  0  0  0  0  0
   40.1120   28.7180   36.3710 H   0  0  0  0  0  0  0  0  0  0  0  0
  1  2  1  0  0  0  0
  1  8  1  0  0  0  0
  2  6  1  0  0  0  0
  3  2  2  0  0  0  0
  4  5  1  0  0  0  0
  4  3  1  0  0  0  0
  5  1  2  0  0  0  0
  7  3  1  0  0  0  0
  8  9  1  0  0  0  0
  9 14  1  0  0  0  0
  9 10  2  0  0  0  0
 10 16  1  0  0  0  0
 11 10  1  0  0  0  0
 12 11  2  0  0  0  0
 13  8  2  0  0  0  0
 13 12  1  0  0  0  0
 15 12  1  0  0  0  0
 16 17  1  0  0  0  0
 16 19  1  0  0  0  0
 16 18  1  0  0  0  0
 20  4  1  0  0  0  0
 21 25  1  0  0  0  0
 21 20  2  0  0  0  0
 22 21  1  0  0  0  0
 23 22  2  0  0  0  0
 23 24  1  0  0  0  0
 24 20  1  0  0  0  0
 26 22  1  0  0  0  0
 27 23  1  0  0  0  0
 28 30  1  0  0  0  0
 28 27  1  0  0  0  0
 29 28  1  0  0  0  0
 31 30  1  0  0  0  0
 32 28  1  0  0  0  0
 33 32  1  0  0  0  0
M  END
>  <minimizedAffinity>
-5.76811171

>  <minimizedRMSD>
0.25633648

$$$$
