
 OpenBabel03272507193D

 28 29  0  0  1  0  0  0  0  0999 V2000
   37.2080   31.3680   49.2580 C   0  0  0  0  0  0  0  0  0  0  0  0
   37.3740   32.6310   49.8080 C   0  0  0  0  0  0  0  0  0  0  0  0
   38.3320   33.4270   49.1470 C   0  0  0  0  0  0  0  0  0  0  0  0
   39.0170   32.9520   48.0560 N   0  0  0  0  0  0  0  0  0  0  0  0
   38.8140   31.7080   47.5600 C   0  0  0  0  0  0  0  0  0  0  0  0
   37.8870   30.9040   48.1810 N   0  0  0  0  0  0  0  0  0  0  0  0
   36.8280   32.9700   50.6540 H   0  0  0  0  0  0  0  0  0  0  0  0
   38.5060   34.4210   49.5300 H   0  0  0  0  0  0  0  0  0  0  0  0
   36.1790   30.5000   49.9140 C   0  0  1  0  0  0  0  0  0  0  0  0
   35.0130   30.0010   49.1900 C   0  0  2  0  0  0  0  0  0  0  0  0
   36.1760   29.0670   49.3460 C   0  0  0  0  0  0  0  0  0  0  0  0
   36.1700   30.5510   51.0300 H   0  0  0  0  0  0  0  0  0  0  0  0
   34.0990   29.9300   49.8420 H   0  0  0  0  0  0  0  0  0  0  0  0
   36.8060   28.8230   48.4920 H   0  0  0  0  0  0  0  0  0  0  0  0
   35.9790   28.2690   50.1100 H   0  0  0  0  0  0  0  0  0  0  0  0
   34.7580   30.5520   47.9410 O   0  0  0  0  0  0  0  0  0  0  0  0
   33.9940   30.0810   46.9260 C   0  0  0  0  0  0  0  0  0  0  0  0
   34.2310   28.9900   46.3650 O   0  0  0  0  0  0  0  0  0  0  0  0
   32.9810   31.0090   46.6740 N   0  0  0  0  0  0  0  0  0  0  0  0
   32.1260   31.1860   47.2210 H   0  0  0  0  0  0  0  0  0  0  0  0
   32.8540   31.7170   45.9020 H   0  0  0  0  0  0  0  0  0  0  0  0
   39.5660   31.2160   46.3790 C   0  0  0  0  0  0  0  0  0  0  0  0
   39.2650   31.9060   45.1730 N   0  0  0  0  0  0  0  0  0  0  0  0
   39.4560   31.2580   44.3750 H   0  0  0  0  0  0  0  0  0  0  0  0
   37.8650   32.2580   45.0360 C   0  0  0  0  0  0  0  0  0  0  0  0
   37.2970   31.4180   44.5440 H   0  0  0  0  0  0  0  0  0  0  0  0
   40.1290   33.0510   44.9850 C   0  0  0  0  0  0  0  0  0  0  0  0
   39.6920   33.6440   44.1480 H   0  0  0  0  0  0  0  0  0  0  0  0
  1  2  1  0  0  0  0
  1  9  1  0  0  0  0
  2  7  1  0  0  0  0
  3  8  1  0  0  0  0
  3  2  2  0  0  0  0
  4  3  1  0  0  0  0
  5  4  2  0  0  0  0
  5  6  1  0  0  0  0
  6  1  2  0  0  0  0
  9 12  1  1  0  0  0
 10 11  1  0  0  0  0
 10 13  1  1  0  0  0
 10  9  1  0  0  0  0
 11  9  1  0  0  0  0
 11 15  1  0  0  0  0
 14 11  1  0  0  0  0
 16 10  1  0  0  0  0
 17 16  1  0  0  0  0
 18 17  2  0  0  0  0
 19 17  1  0  0  0  0
 19 20  1  0  0  0  0
 21 19  1  0  0  0  0
 22  5  1  0  0  0  0
 23 22  1  0  0  0  0
 24 23  1  0  0  0  0
 25 23  1  0  0  0  0
 26 25  1  0  0  0  0
 27 23  1  0  0  0  0
 28 27  1  0  0  0  0
M  END
>  <minimizedAffinity>
-5.27374983

>  <minimizedRMSD>
2.46827984

$$$$
