
 OpenBabel03272508053D

 33 35  0  0  0  0  0  0  0  0999 V2000
   38.9190   30.9110   45.7920 C   0  0  0  0  0  0  0  0  0  0  0  0
   40.1010   31.5590   46.0460 C   0  0  0  0  0  0  0  0  0  0  0  0
   40.9270   31.4890   44.9400 C   0  0  0  0  0  0  0  0  0  0  0  0
   40.1920   30.7790   44.0350 N   0  0  0  0  0  0  0  0  0  0  0  0
   39.0220   30.4400   44.5230 N   0  0  0  0  0  0  0  0  0  0  0  0
   40.3730   32.0650   46.9790 H   0  0  0  0  0  0  0  0  0  0  0  0
   41.9210   31.8750   44.7660 H   0  0  0  0  0  0  0  0  0  0  0  0
   37.7740   30.7490   46.6840 C   0  0  0  0  0  0  0  0  0  0  0  0
   37.9910   30.9650   48.0710 C   0  0  0  0  0  0  0  0  0  0  0  0
   36.9040   30.8130   48.9270 C   0  0  0  0  0  0  0  0  0  0  0  0
   35.7000   30.4640   48.3820 N   0  0  0  0  0  0  0  0  0  0  0  0
   35.5260   30.2640   47.0580 C   0  0  0  0  0  0  0  0  0  0  0  0
   36.5690   30.4090   46.2190 N   0  0  0  0  0  0  0  0  0  0  0  0
   38.9840   31.2430   48.4380 H   0  0  0  0  0  0  0  0  0  0  0  0
   34.5770   29.9920   46.6480 H   0  0  0  0  0  0  0  0  0  0  0  0
   37.1090   31.0350   50.3900 C   0  0  0  0  0  0  0  0  0  0  0  0
   36.5840   32.2780   50.6460 F   0  0  0  0  0  0  0  0  0  0  0  0
   36.4260   30.1080   51.1610 F   0  0  0  0  0  0  0  0  0  0  0  0
   38.4530   31.0360   50.7290 F   0  0  0  0  0  0  0  0  0  0  0  0
   40.5680   30.4000   42.6770 C   0  0  0  0  0  0  0  0  0  0  0  0
   40.2100   31.1900   41.5760 C   0  0  0  0  0  0  0  0  0  0  0  0
   40.5800   30.8230   40.3260 C   0  0  0  0  0  0  0  0  0  0  0  0
   41.3340   29.6300   40.1620 C   0  0  0  0  0  0  0  0  0  0  0  0
   41.4960   29.0340   41.9190 S   0  0  0  0  0  0  0  0  0  0  0  0
   39.6320   32.1130   41.6520 H   0  0  0  0  0  0  0  0  0  0  0  0
   40.4190   31.2690   39.3640 H   0  0  0  0  0  0  0  0  0  0  0  0
   41.9420   28.8510   39.0760 C   0  0  0  0  0  2  0  0  0  0  0  0
   40.9950   28.2470   38.1870 N   0  0  0  0  0  4  0  0  0  0  0  0
   41.4850   27.5290   37.6200 H   0  0  0  0  0  0  0  0  0  0  0  0
   39.9190   27.6810   38.9770 C   0  0  0  0  0  2  0  0  0  0  0  0
   39.5800   26.7350   38.5340 H   0  0  0  0  0  0  0  0  0  0  0  0
   40.4480   29.2360   37.2710 C   0  0  0  0  0  2  0  0  0  0  0  0
   40.1120   28.7170   36.3690 H   0  0  0  0  0  0  0  0  0  0  0  0
  1  2  1  0  0  0  0
  1  8  1  0  0  0  0
  2  6  1  0  0  0  0
  3  2  2  0  0  0  0
  4  5  1  0  0  0  0
  4  3  1  0  0  0  0
  5  1  2  0  0  0  0
  7  3  1  0  0  0  0
  8  9  1  0  0  0  0
  9 14  1  0  0  0  0
  9 10  2  0  0  0  0
 10 16  1  0  0  0  0
 11 10  1  0  0  0  0
 12 11  2  0  0  0  0
 13  8  2  0  0  0  0
 13 12  1  0  0  0  0
 15 12  1  0  0  0  0
 16 17  1  0  0  0  0
 16 19  1  0  0  0  0
 16 18  1  0  0  0  0
 20  4  1  0  0  0  0
 21 25  1  0  0  0  0
 21 20  2  0  0  0  0
 22 21  1  0  0  0  0
 23 22  2  0  0  0  0
 23 24  1  0  0  0  0
 24 20  1  0  0  0  0
 26 22  1  0  0  0  0
 27 23  1  0  0  0  0
 28 30  1  0  0  0  0
 28 27  1  0  0  0  0
 29 28  1  0  0  0  0
 31 30  1  0  0  0  0
 32 28  1  0  0  0  0
 33 32  1  0  0  0  0
M  END
>  <minimizedAffinity>
-5.76813889

>  <minimizedRMSD>
0.590351641

$$$$
