
 OpenBabel03272501263D

 37 39  0  0  1  0  0  0  0  0999 V2000
   34.8880   29.8350   47.3730 C   0  0  0  0  0  0  0  0  0  0  0  0
   35.5020   30.0210   46.1230 C   0  0  0  0  0  0  0  0  0  0  0  0
   36.6820   30.7410   46.3400 C   0  0  0  0  0  0  0  0  0  0  0  0
   36.7390   30.9590   47.6750 N   0  0  0  0  0  0  0  0  0  0  0  0
   35.6770   30.4180   48.2530 N   0  0  0  0  0  0  0  0  0  0  0  0
   35.2470   29.7300   45.1000 H   0  0  0  0  0  0  0  0  0  0  0  0
   37.4120   31.0650   45.5950 H   0  0  0  0  0  0  0  0  0  0  0  0
   38.4510   32.6500   47.6370 N   0  0  0  0  0  0  0  0  0  0  0  0
   39.0960   33.4870   48.6360 C   0  0  0  0  0  0  0  0  0  0  0  0
   38.3950   33.2460   49.9530 C   0  0  0  0  0  0  0  0  0  0  0  0
   37.1490   32.4700   49.5220 C   0  0  0  0  0  0  0  0  0  0  0  0
   37.7370   31.6470   48.4200 C   0  0  1  0  0  0  0  0  0  0  0  0
   39.2050   32.1480   47.1060 H   0  0  0  0  0  0  0  0  0  0  0  0
   38.9260   34.5500   48.3660 H   0  0  0  0  0  0  0  0  0  0  0  0
   40.1830   33.2540   48.7000 H   0  0  0  0  0  0  0  0  0  0  0  0
   38.9840   32.5480   50.5560 H   0  0  0  0  0  0  0  0  0  0  0  0
   38.1340   34.1890   50.4720 H   0  0  0  0  0  0  0  0  0  0  0  0
   36.7460   31.8430   50.3330 H   0  0  0  0  0  0  0  0  0  0  0  0
   36.3750   33.1580   49.1190 H   0  0  0  0  0  0  0  0  0  0  0  0
   38.6510   30.6730   48.9790 N   0  0  0  0  0  0  0  0  0  0  0  0
   38.3140   30.4330   49.9530 H   0  0  0  0  0  0  0  0  0  0  0  0
   38.6410   29.8010   48.4020 H   0  0  0  0  0  0  0  0  0  0  0  0
   33.3850   28.2410   48.5660 C   0  0  0  0  0  0  0  0  0  0  0  0
   33.6360   29.1190   47.4920 C   0  0  0  0  0  0  0  0  0  0  0  0
   32.6360   29.2800   46.5400 C   0  0  0  0  0  0  0  0  0  0  0  0
   31.4830   28.5820   46.7060 N   0  0  0  0  0  0  0  0  0  0  0  0
   31.2650   27.7490   47.7390 C   0  0  0  0  0  0  0  0  0  0  0  0
   32.2390   27.5680   48.6990 N   0  0  0  0  0  0  0  0  0  0  0  0
   34.1560   28.1010   49.3230 H   0  0  0  0  0  0  0  0  0  0  0  0
   32.7620   29.9410   45.6860 H   0  0  0  0  0  0  0  0  0  0  0  0
   30.0250   26.9790   47.9430 C   0  0  0  0  0  0  0  0  0  0  0  0
   29.0860   27.7210   48.7540 N   0  0  0  0  0  0  0  0  0  0  0  0
   28.2130   27.1440   48.8770 H   0  0  0  0  0  0  0  0  0  0  0  0
   29.5890   27.9800   50.0730 C   0  0  0  0  0  0  0  0  0  0  0  0
   30.2920   28.8330   50.1420 H   0  0  0  0  0  0  0  0  0  0  0  0
   28.7230   28.9270   48.0570 C   0  0  0  0  0  0  0  0  0  0  0  0
   28.0160   28.6340   47.2370 H   0  0  0  0  0  0  0  0  0  0  0  0
  1 24  1  0  0  0  0
  1  5  2  0  0  0  0
  2  3  2  0  0  0  0
  2  1  1  0  0  0  0
  3  4  1  0  0  0  0
  4  5  1  0  0  0  0
  4 12  1  0  0  0  0
  6  2  1  0  0  0  0
  7  3  1  0  0  0  0
  8 12  1  0  0  0  0
  8  9  1  0  0  0  0
  9 15  1  0  0  0  0
  9 10  1  0  0  0  0
 10 17  1  0  0  0  0
 10 16  1  0  0  0  0
 11 10  1  0  0  0  0
 11 18  1  0  0  0  0
 12 20  1  1  0  0  0
 12 11  1  0  0  0  0
 13  8  1  0  0  0  0
 14  9  1  0  0  0  0
 19 11  1  0  0  0  0
 20 21  1  0  0  0  0
 22 20  1  0  0  0  0
 23 28  1  0  0  0  0
 23 29  1  0  0  0  0
 24 23  2  0  0  0  0
 25 26  2  0  0  0  0
 25 24  1  0  0  0  0
 26 27  1  0  0  0  0
 27 31  1  0  0  0  0
 27 28  2  0  0  0  0
 30 25  1  0  0  0  0
 31 32  1  0  0  0  0
 32 33  1  0  0  0  0
 32 34  1  0  0  0  0
 34 35  1  0  0  0  0
 36 32  1  0  0  0  0
 37 36  1  0  0  0  0
M  END
>  <minimizedAffinity>
-5.38533497

>  <minimizedRMSD>
0.543906987

$$$$
