
 OpenBabel03272503213D

 33 35  0  0  0  0  0  0  0  0999 V2000
   37.3500   27.5060   34.1290 C   0  0  0  0  0  0  0  0  0  0  0  0
   37.7720   27.7730   35.3660 C   0  0  0  0  0  0  0  0  0  0  0  0
   38.5190   26.8890   36.0350 C   0  0  0  0  0  0  0  0  0  0  0  0
   38.8310   25.7040   35.3970 C   0  0  0  0  0  0  0  0  0  0  0  0
   37.9960   25.9120   33.7740 S   0  0  0  0  0  0  0  0  0  0  0  0
   37.4850   28.7360   35.8110 H   0  0  0  0  0  0  0  0  0  0  0  0
   38.9260   26.9730   37.0340 H   0  0  0  0  0  0  0  0  0  0  0  0
   37.3710   23.7830   37.2680 Cl  0  0  0  0  0  0  0  0  0  0  0  0
   38.9920   23.6220   36.6080 C   0  0  0  0  0  0  0  0  0  0  0  0
   39.5850   24.5370   35.7640 C   0  0  0  0  0  0  0  0  0  0  0  0
   40.8180   24.4540   35.2390 C   0  0  0  0  0  0  0  0  0  0  0  0
   41.5990   23.3380   35.5610 C   0  0  0  0  0  0  0  0  0  0  0  0
   41.0790   22.3810   36.3960 C   0  0  0  0  0  0  0  0  0  0  0  0
   41.9970   20.9560   36.8450 Cl  0  0  0  0  0  0  0  0  0  0  0  0
   39.7890   22.5140   36.9180 C   0  0  0  0  0  0  0  0  0  0  0  0
   41.2550   25.1940   34.5760 H   0  0  0  0  0  0  0  0  0  0  0  0
   42.5900   23.1810   35.1940 H   0  0  0  0  0  0  0  0  0  0  0  0
   39.3820   21.7540   37.5790 H   0  0  0  0  0  0  0  0  0  0  0  0
   36.0750   29.2660   31.0600 C   0  0  0  0  0  0  0  0  0  0  0  0
   36.9400   28.5030   31.8740 C   0  0  0  0  0  0  0  0  0  0  0  0
   36.5360   28.2860   33.1900 C   0  0  0  0  0  0  0  0  0  0  0  0
   35.3650   28.8010   33.6220 N   0  0  0  0  0  0  0  0  0  0  0  0
   34.5710   29.5240   32.8090 C   0  0  0  0  0  0  0  0  0  0  0  0
   34.9270   29.7510   31.5430 N   0  0  0  0  0  0  0  0  0  0  0  0
   36.3800   29.4430   30.0310 H   0  0  0  0  0  0  0  0  0  0  0  0
   37.8770   28.0930   31.5200 H   0  0  0  0  0  0  0  0  0  0  0  0
   33.2960   30.0430   33.4020 C   0  0  0  0  0  2  0  0  0  0  0  0
   32.1380   29.6960   32.6430 N   0  0  0  0  0  4  0  0  0  0  0  0
   32.3710   29.2930   31.7150 H   0  0  0  0  0  0  0  0  0  0  0  0
   31.1950   30.8100   32.5050 C   0  0  0  0  0  2  0  0  0  0  0  0
   31.6390   31.6950   32.0540 H   0  0  0  0  0  0  0  0  0  0  0  0
   31.4110   28.6700   33.3700 C   0  0  0  0  0  2  0  0  0  0  0  0
   31.7470   27.6490   33.0780 H   0  0  0  0  0  0  0  0  0  0  0  0
  1  2  2  0  0  0  0
  2  6  1  0  0  0  0
  2  3  1  0  0  0  0
  3  7  1  0  0  0  0
  4 10  1  0  0  0  0
  4  3  2  0  0  0  0
  5  1  1  0  0  0  0
  5  4  1  0  0  0  0
  9 15  1  0  0  0  0
  9  8  1  0  0  0  0
 10  9  2  0  0  0  0
 11 12  2  0  0  0  0
 11 10  1  0  0  0  0
 12 13  1  0  0  0  0
 13 14  1  0  0  0  0
 13 15  2  0  0  0  0
 15 18  1  0  0  0  0
 16 11  1  0  0  0  0
 17 12  1  0  0  0  0
 19 24  2  0  0  0  0
 19 20  1  0  0  0  0
 20 21  2  0  0  0  0
 21 22  1  0  0  0  0
 21  1  1  0  0  0  0
 23 27  1  0  0  0  0
 23 22  2  0  0  0  0
 24 23  1  0  0  0  0
 25 19  1  0  0  0  0
 26 20  1  0  0  0  0
 28 32  1  0  0  0  0
 28 27  1  0  0  0  0
 29 28  1  0  0  0  0
 30 28  1  0  0  0  0
 31 30  1  0  0  0  0
 33 32  1  0  0  0  0
M  END
>  <minimizedAffinity>
-5.50809908

$$$$

 OpenBabel03272503213D

 33 35  0  0  0  0  0  0  0  0999 V2000
   37.5610   27.3250   34.0530 C   0  0  0  0  0  0  0  0  0  0  0  0
   37.8340   27.5560   35.3380 C   0  0  0  0  0  0  0  0  0  0  0  0
   38.5420   26.6750   36.0520 C   0  0  0  0  0  0  0  0  0  0  0  0
   38.9720   25.5300   35.4090 C   0  0  0  0  0  0  0  0  0  0  0  0
   38.3100   25.7730   33.7120 S   0  0  0  0  0  0  0  0  0  0  0  0
   37.4600   28.4870   35.7850 H   0  0  0  0  0  0  0  0  0  0  0  0
   38.8350   26.7320   37.0920 H   0  0  0  0  0  0  0  0  0  0  0  0
   37.5090   23.6470   37.3150 Cl  0  0  0  0  0  0  0  0  0  0  0  0
   39.1370   23.4810   36.6740 C   0  0  0  0  0  0  0  0  0  0  0  0
   39.7320   24.3790   35.8130 C   0  0  0  0  0  0  0  0  0  0  0  0
   40.9690   24.2920   35.3010 C   0  0  0  0  0  0  0  0  0  0  0  0
   41.7560   23.1910   35.6590 C   0  0  0  0  0  0  0  0  0  0  0  0
   41.2350   22.2510   36.5140 C   0  0  0  0  0  0  0  0  0  0  0  0
   42.1600   20.8450   37.0070 Cl  0  0  0  0  0  0  0  0  0  0  0  0
   39.9400   22.3880   37.0200 C   0  0  0  0  0  0  0  0  0  0  0  0
   41.4080   25.0180   34.6230 H   0  0  0  0  0  0  0  0  0  0  0  0
   42.7520   23.0320   35.3040 H   0  0  0  0  0  0  0  0  0  0  0  0
   39.5330   21.6420   37.6970 H   0  0  0  0  0  0  0  0  0  0  0  0
   35.0920   29.6120   32.3750 C   0  0  0  0  0  0  0  0  0  0  0  0
   35.7260   28.8970   33.4140 C   0  0  0  0  0  0  0  0  0  0  0  0
   36.8210   28.1110   33.0600 C   0  0  0  0  0  0  0  0  0  0  0  0
   37.2210   28.0650   31.7700 N   0  0  0  0  0  0  0  0  0  0  0  0
   36.5850   28.7650   30.8110 C   0  0  0  0  0  0  0  0  0  0  0  0
   35.5330   29.5270   31.1150 N   0  0  0  0  0  0  0  0  0  0  0  0
   34.2360   30.2280   32.6390 H   0  0  0  0  0  0  0  0  0  0  0  0
   35.4000   28.9390   34.4460 H   0  0  0  0  0  0  0  0  0  0  0  0
   37.1190   28.6340   29.4180 C   0  0  0  0  0  2  0  0  0  0  0  0
   38.0940   29.6250   29.0920 N   0  0  0  0  0  4  0  0  0  0  0  0
   38.6300   29.9500   29.9190 H   0  0  0  0  0  0  0  0  0  0  0  0
   37.5240   30.7620   28.3620 C   0  0  0  0  0  2  0  0  0  0  0  0
   36.7120   31.2520   28.8970 H   0  0  0  0  0  0  0  0  0  0  0  0
   39.0560   29.0320   28.1790 C   0  0  0  0  0  2  0  0  0  0  0  0
   39.9050   28.5670   28.7300 H   0  0  0  0  0  0  0  0  0  0  0  0
  1  2  2  0  0  0  0
  2  6  1  0  0  0  0
  2  3  1  0  0  0  0
  3  7  1  0  0  0  0
  4 10  1  0  0  0  0
  4  3  2  0  0  0  0
  5  1  1  0  0  0  0
  5  4  1  0  0  0  0
  9 15  1  0  0  0  0
  9  8  1  0  0  0  0
 10  9  2  0  0  0  0
 11 12  2  0  0  0  0
 11 10  1  0  0  0  0
 12 13  1  0  0  0  0
 13 14  1  0  0  0  0
 13 15  2  0  0  0  0
 15 18  1  0  0  0  0
 16 11  1  0  0  0  0
 17 12  1  0  0  0  0
 19 25  1  0  0  0  0
 19 20  1  0  0  0  0
 20 26  1  0  0  0  0
 21 20  2  0  0  0  0
 21  1  1  0  0  0  0
 22 21  1  0  0  0  0
 23 24  1  0  0  0  0
 23 22  2  0  0  0  0
 24 19  2  0  0  0  0
 27 23  1  0  0  0  0
 28 27  1  0  0  0  0
 28 29  1  0  0  0  0
 30 31  1  0  0  0  0
 30 28  1  0  0  0  0
 32 33  1  0  0  0  0
 32 28  1  0  0  0  0
M  END
>  <minimizedAffinity>
-5.32593584

$$$$

 OpenBabel03272503213D

 33 35  0  0  0  0  0  0  0  0999 V2000
   37.3060   27.5690   34.1060 C   0  0  0  0  0  0  0  0  0  0  0  0
   37.7150   27.8210   35.3510 C   0  0  0  0  0  0  0  0  0  0  0  0
   38.4730   26.9400   36.0090 C   0  0  0  0  0  0  0  0  0  0  0  0
   38.8100   25.7710   35.3540 C   0  0  0  0  0  0  0  0  0  0  0  0
   37.9810   25.9920   33.7290 S   0  0  0  0  0  0  0  0  0  0  0  0
   37.4090   28.7720   35.8100 H   0  0  0  0  0  0  0  0  0  0  0  0
   38.8720   27.0130   37.0130 H   0  0  0  0  0  0  0  0  0  0  0  0
   41.6600   25.7590   34.2600 Cl  0  0  0  0  0  0  0  0  0  0  0  0
   40.8790   24.5330   35.2480 C   0  0  0  0  0  0  0  0  0  0  0  0
   39.5810   24.6110   35.7070 C   0  0  0  0  0  0  0  0  0  0  0  0
   38.9470   23.7000   36.4610 C   0  0  0  0  0  0  0  0  0  0  0  0
   39.6480   22.5480   36.8360 C   0  0  0  0  0  0  0  0  0  0  0  0
   40.9480   22.3960   36.4190 C   0  0  0  0  0  0  0  0  0  0  0  0
   41.8910   20.9820   36.8480 Cl  0  0  0  0  0  0  0  0  0  0  0  0
   41.5640   23.3740   35.6330 C   0  0  0  0  0  0  0  0  0  0  0  0
   37.9210   23.7920   36.8050 H   0  0  0  0  0  0  0  0  0  0  0  0
   39.2320   21.7670   37.4340 H   0  0  0  0  0  0  0  0  0  0  0  0
   42.5920   23.2500   35.3060 H   0  0  0  0  0  0  0  0  0  0  0  0
   36.0160   29.3480   31.0550 C   0  0  0  0  0  0  0  0  0  0  0  0
   36.8870   28.5850   31.8620 C   0  0  0  0  0  0  0  0  0  0  0  0
   36.4850   28.3500   33.1750 C   0  0  0  0  0  0  0  0  0  0  0  0
   35.3080   28.8490   33.6120 N   0  0  0  0  0  0  0  0  0  0  0  0
   34.5080   29.5730   32.8060 C   0  0  0  0  0  0  0  0  0  0  0  0
   34.8630   29.8170   31.5430 N   0  0  0  0  0  0  0  0  0  0  0  0
   36.3190   29.5390   30.0290 H   0  0  0  0  0  0  0  0  0  0  0  0
   37.8290   28.1880   31.5040 H   0  0  0  0  0  0  0  0  0  0  0  0
   33.2280   30.0740   33.4040 C   0  0  0  0  0  2  0  0  0  0  0  0
   32.0730   29.7120   32.6480 N   0  0  0  0  0  4  0  0  0  0  0  0
   32.3050   29.3790   31.6930 H   0  0  0  0  0  0  0  0  0  0  0  0
   31.0700   30.7810   32.5970 C   0  0  0  0  0  2  0  0  0  0  0  0
   31.4580   31.7140   32.1920 H   0  0  0  0  0  0  0  0  0  0  0  0
   31.4160   28.6070   33.3250 C   0  0  0  0  0  2  0  0  0  0  0  0
   31.7970   27.6250   32.9650 H   0  0  0  0  0  0  0  0  0  0  0  0
  1  2  2  0  0  0  0
  2  6  1  0  0  0  0
  2  3  1  0  0  0  0
  3  7  1  0  0  0  0
  4 10  1  0  0  0  0
  4  3  2  0  0  0  0
  5  1  1  0  0  0  0
  5  4  1  0  0  0  0
  8  9  1  0  0  0  0
  9 15  2  0  0  0  0
  9 10  1  0  0  0  0
 10 11  2  0  0  0  0
 11 16  1  0  0  0  0
 11 12  1  0  0  0  0
 12 17  1  0  0  0  0
 13 12  2  0  0  0  0
 13 14  1  0  0  0  0
 15 13  1  0  0  0  0
 18 15  1  0  0  0  0
 19 24  2  0  0  0  0
 19 20  1  0  0  0  0
 20 21  2  0  0  0  0
 21 22  1  0  0  0  0
 21  1  1  0  0  0  0
 23 27  1  0  0  0  0
 23 22  2  0  0  0  0
 24 23  1  0  0  0  0
 25 19  1  0  0  0  0
 26 20  1  0  0  0  0
 28 32  1  0  0  0  0
 28 27  1  0  0  0  0
 29 28  1  0  0  0  0
 30 28  1  0  0  0  0
 31 30  1  0  0  0  0
 33 32  1  0  0  0  0
M  END
>  <minimizedAffinity>
-5.30177879

$$$$

 OpenBabel03272503213D

 33 35  0  0  0  0  0  0  0  0999 V2000
   36.5860   27.5000   32.8660 C   0  0  0  0  0  0  0  0  0  0  0  0
   35.9880   28.4190   32.1050 C   0  0  0  0  0  0  0  0  0  0  0  0
   35.4550   29.5140   32.6550 C   0  0  0  0  0  0  0  0  0  0  0  0
   35.5490   29.6510   34.0270 C   0  0  0  0  0  0  0  0  0  0  0  0
   36.4480   28.1210   34.5030 S   0  0  0  0  0  0  0  0  0  0  0  0
   35.9490   28.2440   31.0210 H   0  0  0  0  0  0  0  0  0  0  0  0
   34.9450   30.3330   32.1640 H   0  0  0  0  0  0  0  0  0  0  0  0
   32.6560   29.3560   34.9560 Cl  0  0  0  0  0  0  0  0  0  0  0  0
   33.8210   30.5820   35.4320 C   0  0  0  0  0  0  0  0  0  0  0  0
   35.1170   30.6490   34.9660 C   0  0  0  0  0  0  0  0  0  0  0  0
   36.0380   31.5670   35.3020 C   0  0  0  0  0  0  0  0  0  0  0  0
   35.6750   32.5640   36.2140 C   0  0  0  0  0  0  0  0  0  0  0  0
   34.4000   32.5660   36.7250 C   0  0  0  0  0  0  0  0  0  0  0  0
   33.8710   33.7820   37.8720 Cl  0  0  0  0  0  0  0  0  0  0  0  0
   33.4770   31.5880   36.3430 C   0  0  0  0  0  0  0  0  0  0  0  0
   37.0520   31.5910   34.9160 H   0  0  0  0  0  0  0  0  0  0  0  0
   36.3350   33.3370   36.5440 H   0  0  0  0  0  0  0  0  0  0  0  0
   32.4700   31.5940   36.7490 H   0  0  0  0  0  0  0  0  0  0  0  0
   39.1380   24.7960   32.3020 C   0  0  0  0  0  0  0  0  0  0  0  0
   38.6170   26.0590   32.6570 C   0  0  0  0  0  0  0  0  0  0  0  0
   37.2410   26.2320   32.5250 C   0  0  0  0  0  0  0  0  0  0  0  0
   36.4800   25.2120   32.0730 N   0  0  0  0  0  0  0  0  0  0  0  0
   37.0210   24.0230   31.7450 C   0  0  0  0  0  0  0  0  0  0  0  0
   38.3350   23.8220   31.8600 N   0  0  0  0  0  0  0  0  0  0  0  0
   40.2100   24.6490   32.4000 H   0  0  0  0  0  0  0  0  0  0  0  0
   39.2340   26.8720   33.0200 H   0  0  0  0  0  0  0  0  0  0  0  0
   36.0760   22.9670   31.2550 C   0  0  0  0  0  2  0  0  0  0  0  0
   36.3220   21.6820   31.8250 N   0  0  0  0  0  4  0  0  0  0  0  0
   37.1060   21.6860   32.5050 H   0  0  0  0  0  0  0  0  0  0  0  0
   36.5170   20.6400   30.8120 C   0  0  0  0  0  2  0  0  0  0  0  0
   37.3280   20.8600   30.1200 H   0  0  0  0  0  0  0  0  0  0  0  0
   35.1360   21.2780   32.5620 C   0  0  0  0  0  2  0  0  0  0  0  0
   35.1830   21.6120   33.6230 H   0  0  0  0  0  0  0  0  0  0  0  0
  1  5  1  0  0  0  0
  2  3  1  0  0  0  0
  2  1  2  0  0  0  0
  3  4  2  0  0  0  0
  4  5  1  0  0  0  0
  4 10  1  0  0  0  0
  6  2  1  0  0  0  0
  7  3  1  0  0  0  0
  8  9  1  0  0  0  0
  9 15  1  0  0  0  0
 10 11  1  0  0  0  0
 10  9  2  0  0  0  0
 11 12  2  0  0  0  0
 12 17  1  0  0  0  0
 12 13  1  0  0  0  0
 13 14  1  0  0  0  0
 15 13  2  0  0  0  0
 15 18  1  0  0  0  0
 16 11  1  0  0  0  0
 19 25  1  0  0  0  0
 19 20  1  0  0  0  0
 20 26  1  0  0  0  0
 21 20  2  0  0  0  0
 21  1  1  0  0  0  0
 22 21  1  0  0  0  0
 23 24  1  0  0  0  0
 23 22  2  0  0  0  0
 24 19  2  0  0  0  0
 27 23  1  0  0  0  0
 27 28  1  0  0  0  0
 28 29  1  0  0  0  0
 28 32  1  0  0  0  0
 30 28  1  0  0  0  0
 31 30  1  0  0  0  0
 32 33  1  0  0  0  0
M  END
>  <minimizedAffinity>
-5.25264835

$$$$

 OpenBabel03272503213D

 33 35  0  0  0  0  0  0  0  0999 V2000
   36.5820   27.6940   32.8780 C   0  0  0  0  0  0  0  0  0  0  0  0
   36.0960   28.6770   32.1190 C   0  0  0  0  0  0  0  0  0  0  0  0
   35.5840   29.7780   32.6780 C   0  0  0  0  0  0  0  0  0  0  0  0
   35.5800   29.8510   34.0570 C   0  0  0  0  0  0  0  0  0  0  0  0
   36.3540   28.2520   34.5270 S   0  0  0  0  0  0  0  0  0  0  0  0
   36.1310   28.5510   31.0280 H   0  0  0  0  0  0  0  0  0  0  0  0
   35.1600   30.6450   32.1890 H   0  0  0  0  0  0  0  0  0  0  0  0
   32.7280   29.4380   35.0660 Cl  0  0  0  0  0  0  0  0  0  0  0  0
   33.8540   30.7120   35.5090 C   0  0  0  0  0  0  0  0  0  0  0  0
   35.1330   30.8320   35.0080 C   0  0  0  0  0  0  0  0  0  0  0  0
   36.0240   31.7870   35.3170 C   0  0  0  0  0  0  0  0  0  0  0  0
   35.6440   32.7700   36.2380 C   0  0  0  0  0  0  0  0  0  0  0  0
   34.3850   32.7200   36.7840 C   0  0  0  0  0  0  0  0  0  0  0  0
   33.8380   33.9160   37.9440 Cl  0  0  0  0  0  0  0  0  0  0  0  0
   33.4940   31.7050   36.4280 C   0  0  0  0  0  0  0  0  0  0  0  0
   37.0250   31.8530   34.9040 H   0  0  0  0  0  0  0  0  0  0  0  0
   36.2810   33.5710   36.5500 H   0  0  0  0  0  0  0  0  0  0  0  0
   32.4980   31.6690   36.8620 H   0  0  0  0  0  0  0  0  0  0  0  0
   38.1260   24.8250   30.9990 C   0  0  0  0  0  0  0  0  0  0  0  0
   37.5460   26.0930   31.2170 C   0  0  0  0  0  0  0  0  0  0  0  0
   37.1910   26.4050   32.5280 C   0  0  0  0  0  0  0  0  0  0  0  0
   37.4100   25.5050   33.5110 N   0  0  0  0  0  0  0  0  0  0  0  0
   37.9660   24.3060   33.2560 C   0  0  0  0  0  0  0  0  0  0  0  0
   38.3180   23.9740   32.0120 N   0  0  0  0  0  0  0  0  0  0  0  0
   38.4070   24.5700   29.9800 H   0  0  0  0  0  0  0  0  0  0  0  0
   37.3740   26.8100   30.4240 H   0  0  0  0  0  0  0  0  0  0  0  0
   38.1590   23.3910   34.4270 C   0  0  0  0  0  2  0  0  0  0  0  0
   38.6560   24.0570   35.5880 N   0  0  0  0  0  4  0  0  0  0  0  0
   38.5910   25.0910   35.5170 H   0  0  0  0  0  0  0  0  0  0  0  0
   40.0180   23.6440   35.9390 C   0  0  0  0  0  2  0  0  0  0  0  0
   40.7340   23.7950   35.1330 H   0  0  0  0  0  0  0  0  0  0  0  0
   37.8360   23.6660   36.7220 C   0  0  0  0  0  2  0  0  0  0  0  0
   36.9730   24.3570   36.8560 H   0  0  0  0  0  0  0  0  0  0  0  0
  1  5  1  0  0  0  0
  2  3  1  0  0  0  0
  2  1  2  0  0  0  0
  3  4  2  0  0  0  0
  4  5  1  0  0  0  0
  4 10  1  0  0  0  0
  6  2  1  0  0  0  0
  7  3  1  0  0  0  0
  8  9  1  0  0  0  0
  9 15  1  0  0  0  0
 10 11  1  0  0  0  0
 10  9  2  0  0  0  0
 11 12  2  0  0  0  0
 12 17  1  0  0  0  0
 12 13  1  0  0  0  0
 13 14  1  0  0  0  0
 15 13  2  0  0  0  0
 15 18  1  0  0  0  0
 16 11  1  0  0  0  0
 19 20  2  0  0  0  0
 19 24  1  0  0  0  0
 20 21  1  0  0  0  0
 21  1  1  0  0  0  0
 21 22  2  0  0  0  0
 23 22  1  0  0  0  0
 23 27  1  0  0  0  0
 24 23  2  0  0  0  0
 25 19  1  0  0  0  0
 26 20  1  0  0  0  0
 27 28  1  0  0  0  0
 28 30  1  0  0  0  0
 28 32  1  0  0  0  0
 29 28  1  0  0  0  0
 31 30  1  0  0  0  0
 32 33  1  0  0  0  0
M  END
>  <minimizedAffinity>
-5.20223475

$$$$

 OpenBabel03272503213D

 33 35  0  0  0  0  0  0  0  0999 V2000
   37.0300   27.1050   33.9390 C   0  0  0  0  0  0  0  0  0  0  0  0
   37.0380   26.0130   33.1730 C   0  0  0  0  0  0  0  0  0  0  0  0
   37.7720   24.9500   33.5140 C   0  0  0  0  0  0  0  0  0  0  0  0
   38.5120   25.0300   34.6770 C   0  0  0  0  0  0  0  0  0  0  0  0
   38.1050   26.7200   35.2730 S   0  0  0  0  0  0  0  0  0  0  0  0
   36.4250   26.0200   32.2610 H   0  0  0  0  0  0  0  0  0  0  0  0
   37.8720   24.0070   32.9910 H   0  0  0  0  0  0  0  0  0  0  0  0
   37.3440   23.7700   37.2010 Cl  0  0  0  0  0  0  0  0  0  0  0  0
   38.9430   23.5240   36.5140 C   0  0  0  0  0  0  0  0  0  0  0  0
   39.4000   24.1320   35.3640 C   0  0  0  0  0  0  0  0  0  0  0  0
   40.6110   23.9750   34.8070 C   0  0  0  0  0  0  0  0  0  0  0  0
   41.5180   23.1120   35.4320 C   0  0  0  0  0  0  0  0  0  0  0  0
   41.1380   22.4670   36.5830 C   0  0  0  0  0  0  0  0  0  0  0  0
   42.2200   21.3720   37.4220 Cl  0  0  0  0  0  0  0  0  0  0  0  0
   39.8650   22.6660   37.1250 C   0  0  0  0  0  0  0  0  0  0  0  0
   40.9390   24.4700   33.8980 H   0  0  0  0  0  0  0  0  0  0  0  0
   42.5040   22.9200   35.0660 H   0  0  0  0  0  0  0  0  0  0  0  0
   39.5690   22.1540   38.0360 H   0  0  0  0  0  0  0  0  0  0  0  0
   34.9770   29.9690   32.6270 C   0  0  0  0  0  0  0  0  0  0  0  0
   35.6170   28.7120   32.6470 C   0  0  0  0  0  0  0  0  0  0  0  0
   36.3250   28.3850   33.8010 C   0  0  0  0  0  0  0  0  0  0  0  0
   36.3690   29.2610   34.8280 N   0  0  0  0  0  0  0  0  0  0  0  0
   35.7420   30.4510   34.7650 C   0  0  0  0  0  0  0  0  0  0  0  0
   35.0550   30.7970   33.6740 N   0  0  0  0  0  0  0  0  0  0  0  0
   34.4220   30.2360   31.7300 H   0  0  0  0  0  0  0  0  0  0  0  0
   35.5770   28.0140   31.8190 H   0  0  0  0  0  0  0  0  0  0  0  0
   35.8620   31.3390   35.9660 C   0  0  0  0  0  2  0  0  0  0  0  0
   35.0380   32.5030   35.8920 N   0  0  0  0  0  4  0  0  0  0  0  0
   34.3120   32.4360   35.1530 H   0  0  0  0  0  0  0  0  0  0  0  0
   35.8140   33.7390   35.7490 C   0  0  0  0  0  2  0  0  0  0  0  0
   36.4690   33.7360   34.8800 H   0  0  0  0  0  0  0  0  0  0  0  0
   34.3340   32.6410   37.1550 C   0  0  0  0  0  2  0  0  0  0  0  0
   33.3560   32.1080   37.1360 H   0  0  0  0  0  0  0  0  0  0  0  0
  1  5  1  0  0  0  0
  2  3  1  0  0  0  0
  2  1  2  0  0  0  0
  3  4  2  0  0  0  0
  4  5  1  0  0  0  0
  4 10  1  0  0  0  0
  6  2  1  0  0  0  0
  7  3  1  0  0  0  0
  9 15  1  0  0  0  0
  9  8  1  0  0  0  0
 10  9  2  0  0  0  0
 11 10  1  0  0  0  0
 11 12  2  0  0  0  0
 12 13  1  0  0  0  0
 13 15  2  0  0  0  0
 13 14  1  0  0  0  0
 15 18  1  0  0  0  0
 16 11  1  0  0  0  0
 17 12  1  0  0  0  0
 19 20  2  0  0  0  0
 19 24  1  0  0  0  0
 20 21  1  0  0  0  0
 21  1  1  0  0  0  0
 21 22  2  0  0  0  0
 23 22  1  0  0  0  0
 23 27  1  0  0  0  0
 24 23  2  0  0  0  0
 25 19  1  0  0  0  0
 26 20  1  0  0  0  0
 28 27  1  0  0  0  0
 28 32  1  0  0  0  0
 29 28  1  0  0  0  0
 30 28  1  0  0  0  0
 31 30  1  0  0  0  0
 33 32  1  0  0  0  0
M  END
>  <minimizedAffinity>
-5.0392518

$$$$

 OpenBabel03272503213D

 33 35  0  0  0  0  0  0  0  0999 V2000
   37.4630   27.4520   34.0630 C   0  0  0  0  0  0  0  0  0  0  0  0
   37.7650   27.6500   35.3470 C   0  0  0  0  0  0  0  0  0  0  0  0
   38.5150   26.7660   36.0130 C   0  0  0  0  0  0  0  0  0  0  0  0
   38.9570   25.6540   35.3230 C   0  0  0  0  0  0  0  0  0  0  0  0
   38.2420   25.9330   33.6530 S   0  0  0  0  0  0  0  0  0  0  0  0
   37.3790   28.5570   35.8330 H   0  0  0  0  0  0  0  0  0  0  0  0
   38.8340   26.7990   37.0470 H   0  0  0  0  0  0  0  0  0  0  0  0
   41.8540   25.7930   34.3710 Cl  0  0  0  0  0  0  0  0  0  0  0  0
   41.0770   24.5010   35.2730 C   0  0  0  0  0  0  0  0  0  0  0  0
   39.7560   24.5110   35.6700 C   0  0  0  0  0  0  0  0  0  0  0  0
   39.1230   23.5480   36.3580 C   0  0  0  0  0  0  0  0  0  0  0  0
   39.8520   22.4110   36.7240 C   0  0  0  0  0  0  0  0  0  0  0  0
   41.1750   22.3250   36.3660 C   0  0  0  0  0  0  0  0  0  0  0  0
   42.1520   20.9320   36.7890 Cl  0  0  0  0  0  0  0  0  0  0  0  0
   41.7880   23.3550   35.6480 C   0  0  0  0  0  0  0  0  0  0  0  0
   38.0800   23.5880   36.6550 H   0  0  0  0  0  0  0  0  0  0  0  0
   39.4390   21.5920   37.2720 H   0  0  0  0  0  0  0  0  0  0  0  0
   42.8350   23.2830   35.3680 H   0  0  0  0  0  0  0  0  0  0  0  0
   34.8230   29.6260   32.4990 C   0  0  0  0  0  0  0  0  0  0  0  0
   35.4960   28.8850   33.4940 C   0  0  0  0  0  0  0  0  0  0  0  0
   36.6760   28.2490   33.1150 C   0  0  0  0  0  0  0  0  0  0  0  0
   37.1180   28.3630   31.8440 N   0  0  0  0  0  0  0  0  0  0  0  0
   36.4420   29.0820   30.9260 C   0  0  0  0  0  0  0  0  0  0  0  0
   35.3080   29.7040   31.2550 N   0  0  0  0  0  0  0  0  0  0  0  0
   33.9010   30.1270   32.7830 H   0  0  0  0  0  0  0  0  0  0  0  0
   35.1360   28.7990   34.5120 H   0  0  0  0  0  0  0  0  0  0  0  0
   37.0300   29.1350   29.5490 C   0  0  0  0  0  2  0  0  0  0  0  0
   38.4180   29.4680   29.5400 N   0  0  0  0  0  4  0  0  0  0  0  0
   38.8970   29.2190   30.4270 H   0  0  0  0  0  0  0  0  0  0  0  0
   38.6630   30.8710   29.1910 C   0  0  0  0  0  2  0  0  0  0  0  0
   38.1540   31.5720   29.8500 H   0  0  0  0  0  0  0  0  0  0  0  0
   39.0620   28.6970   28.4900 C   0  0  0  0  0  2  0  0  0  0  0  0
   39.4340   27.7190   28.8730 H   0  0  0  0  0  0  0  0  0  0  0  0
  1  2  2  0  0  0  0
  2  6  1  0  0  0  0
  2  3  1  0  0  0  0
  3  7  1  0  0  0  0
  4 10  1  0  0  0  0
  4  3  2  0  0  0  0
  5  1  1  0  0  0  0
  5  4  1  0  0  0  0
  8  9  1  0  0  0  0
  9 15  2  0  0  0  0
  9 10  1  0  0  0  0
 10 11  2  0  0  0  0
 11 16  1  0  0  0  0
 11 12  1  0  0  0  0
 12 17  1  0  0  0  0
 13 12  2  0  0  0  0
 13 14  1  0  0  0  0
 15 13  1  0  0  0  0
 18 15  1  0  0  0  0
 19 25  1  0  0  0  0
 19 20  1  0  0  0  0
 20 26  1  0  0  0  0
 21 20  2  0  0  0  0
 21  1  1  0  0  0  0
 22 21  1  0  0  0  0
 23 24  1  0  0  0  0
 23 22  2  0  0  0  0
 24 19  2  0  0  0  0
 27 23  1  0  0  0  0
 28 27  1  0  0  0  0
 28 29  1  0  0  0  0
 30 28  1  0  0  0  0
 30 31  1  0  0  0  0
 32 33  1  0  0  0  0
 32 28  1  0  0  0  0
M  END
>  <minimizedAffinity>
-5.01952171

$$$$

 OpenBabel03272503213D

 33 35  0  0  0  0  0  0  0  0999 V2000
   36.1400   26.9710   31.9780 C   0  0  0  0  0  0  0  0  0  0  0  0
   37.0200   26.4330   32.8240 C   0  0  0  0  0  0  0  0  0  0  0  0
   37.2650   25.1190   32.8050 C   0  0  0  0  0  0  0  0  0  0  0  0
   36.5750   24.3530   31.8860 C   0  0  0  0  0  0  0  0  0  0  0  0
   35.5460   25.6150   31.0340 S   0  0  0  0  0  0  0  0  0  0  0  0
   37.5320   27.1020   33.5290 H   0  0  0  0  0  0  0  0  0  0  0  0
   37.9460   24.5530   33.4280 H   0  0  0  0  0  0  0  0  0  0  0  0
   39.0590   23.3510   30.4210 Cl  0  0  0  0  0  0  0  0  0  0  0  0
   37.6430   22.4270   30.8980 C   0  0  0  0  0  0  0  0  0  0  0  0
   36.5550   22.9530   31.5610 C   0  0  0  0  0  0  0  0  0  0  0  0
   35.4540   22.2850   31.9420 C   0  0  0  0  0  0  0  0  0  0  0  0
   35.3780   20.9180   31.6530 C   0  0  0  0  0  0  0  0  0  0  0  0
   36.4230   20.3190   30.9940 C   0  0  0  0  0  0  0  0  0  0  0  0
   36.4010   18.6110   30.5970 Cl  0  0  0  0  0  0  0  0  0  0  0  0
   37.5480   21.0590   30.6170 C   0  0  0  0  0  0  0  0  0  0  0  0
   34.6140   22.7320   32.4640 H   0  0  0  0  0  0  0  0  0  0  0  0
   34.5460   20.3010   31.9150 H   0  0  0  0  0  0  0  0  0  0  0  0
   38.3720   20.5800   30.0960 H   0  0  0  0  0  0  0  0  0  0  0  0
   35.8270   30.5310   30.8090 C   0  0  0  0  0  0  0  0  0  0  0  0
   36.3440   29.2220   30.9110 C   0  0  0  0  0  0  0  0  0  0  0  0
   35.6950   28.3560   31.7890 C   0  0  0  0  0  0  0  0  0  0  0  0
   34.6250   28.7920   32.4880 N   0  0  0  0  0  0  0  0  0  0  0  0
   34.1660   30.0520   32.3580 C   0  0  0  0  0  0  0  0  0  0  0  0
   34.7640   30.9080   31.5270 N   0  0  0  0  0  0  0  0  0  0  0  0
   36.3250   31.2160   30.1270 H   0  0  0  0  0  0  0  0  0  0  0  0
   37.2020   28.8790   30.3470 H   0  0  0  0  0  0  0  0  0  0  0  0
   32.9730   30.4210   33.1860 C   0  0  0  0  0  2  0  0  0  0  0  0
   32.8040   29.5910   34.3360 N   0  0  0  0  0  4  0  0  0  0  0  0
   33.4850   28.8080   34.3700 H   0  0  0  0  0  0  0  0  0  0  0  0
   31.4330   29.0940   34.4800 C   0  0  0  0  0  2  0  0  0  0  0  0
   31.0830   28.5390   33.6110 H   0  0  0  0  0  0  0  0  0  0  0  0
   33.0420   30.4000   35.5180 C   0  0  0  0  0  2  0  0  0  0  0  0
   34.1130   30.3750   35.8200 H   0  0  0  0  0  0  0  0  0  0  0  0
  1  2  2  0  0  0  0
  2  6  1  0  0  0  0
  3  2  1  0  0  0  0
  3  7  1  0  0  0  0
  4  3  2  0  0  0  0
  5  4  1  0  0  0  0
  5  1  1  0  0  0  0
  8  9  1  0  0  0  0
  9 10  1  0  0  0  0
 10  4  1  0  0  0  0
 10 11  2  0  0  0  0
 11 16  1  0  0  0  0
 12 17  1  0  0  0  0
 12 11  1  0  0  0  0
 13 12  2  0  0  0  0
 14 13  1  0  0  0  0
 15  9  2  0  0  0  0
 15 13  1  0  0  0  0
 18 15  1  0  0  0  0
 19 20  2  0  0  0  0
 19 24  1  0  0  0  0
 20 21  1  0  0  0  0
 21  1  1  0  0  0  0
 21 22  2  0  0  0  0
 23 22  1  0  0  0  0
 23 27  1  0  0  0  0
 24 23  2  0  0  0  0
 25 19  1  0  0  0  0
 26 20  1  0  0  0  0
 27 28  1  0  0  0  0
 28 29  1  0  0  0  0
 28 30  1  0  0  0  0
 28 32  1  0  0  0  0
 31 30  1  0  0  0  0
 32 33  1  0  0  0  0
M  END
>  <minimizedAffinity>
-4.99077368

$$$$

 OpenBabel03272503213D

 33 35  0  0  0  0  0  0  0  0999 V2000
   35.7450   26.4320   31.4660 C   0  0  0  0  0  0  0  0  0  0  0  0
   34.8060   25.7560   30.8030 C   0  0  0  0  0  0  0  0  0  0  0  0
   34.8470   24.4220   30.7370 C   0  0  0  0  0  0  0  0  0  0  0  0
   35.8920   23.7820   31.3760 C   0  0  0  0  0  0  0  0  0  0  0  0
   36.8270   25.1960   32.0870 S   0  0  0  0  0  0  0  0  0  0  0  0
   34.0030   26.3300   30.3190 H   0  0  0  0  0  0  0  0  0  0  0  0
   34.1580   23.7510   30.2390 H   0  0  0  0  0  0  0  0  0  0  0  0
   38.5110   23.0360   29.9940 Cl  0  0  0  0  0  0  0  0  0  0  0  0
   37.4530   21.9940   30.9360 C   0  0  0  0  0  0  0  0  0  0  0  0
   36.2810   22.4070   31.5320 C   0  0  0  0  0  0  0  0  0  0  0  0
   35.4450   21.6480   32.2570 C   0  0  0  0  0  0  0  0  0  0  0  0
   35.7720   20.3000   32.4440 C   0  0  0  0  0  0  0  0  0  0  0  0
   36.9250   19.8110   31.8810 C   0  0  0  0  0  0  0  0  0  0  0  0
   37.4010   18.1340   32.0720 Cl  0  0  0  0  0  0  0  0  0  0  0  0
   37.7620   20.6440   31.1340 C   0  0  0  0  0  0  0  0  0  0  0  0
   34.5280   22.0060   32.7140 H   0  0  0  0  0  0  0  0  0  0  0  0
   35.1730   19.6150   33.0050 H   0  0  0  0  0  0  0  0  0  0  0  0
   38.6740   20.2520   30.6900 H   0  0  0  0  0  0  0  0  0  0  0  0
   36.5570   30.0770   31.0240 C   0  0  0  0  0  0  0  0  0  0  0  0
   36.4210   28.7120   30.6950 C   0  0  0  0  0  0  0  0  0  0  0  0
   35.9320   27.8700   31.6920 C   0  0  0  0  0  0  0  0  0  0  0  0
   35.6170   28.3810   32.9020 N   0  0  0  0  0  0  0  0  0  0  0  0
   35.7640   29.6920   33.1720 C   0  0  0  0  0  0  0  0  0  0  0  0
   36.2300   30.5260   32.2400 N   0  0  0  0  0  0  0  0  0  0  0  0
   36.9380   30.7440   30.2540 H   0  0  0  0  0  0  0  0  0  0  0  0
   36.6750   28.3090   29.7220 H   0  0  0  0  0  0  0  0  0  0  0  0
   35.3830   30.1410   34.5490 C   0  0  0  0  0  2  0  0  0  0  0  0
   35.3070   31.5610   34.6790 N   0  0  0  0  0  4  0  0  0  0  0  0
   35.6240   32.0600   33.8260 H   0  0  0  0  0  0  0  0  0  0  0  0
   36.0100   32.0600   35.8650 C   0  0  0  0  0  2  0  0  0  0  0  0
   37.0600   31.7760   35.8930 H   0  0  0  0  0  0  0  0  0  0  0  0
   33.9150   31.9250   34.8810 C   0  0  0  0  0  2  0  0  0  0  0  0
   33.4010   32.1180   33.9130 H   0  0  0  0  0  0  0  0  0  0  0  0
  1 21  1  0  0  0  0
  1  5  1  0  0  0  0
  2  1  2  0  0  0  0
  3  2  1  0  0  0  0
  3  4  2  0  0  0  0
  4 10  1  0  0  0  0
  4  5  1  0  0  0  0
  6  2  1  0  0  0  0
  7  3  1  0  0  0  0
  8  9  1  0  0  0  0
  9 15  2  0  0  0  0
  9 10  1  0  0  0  0
 10 11  2  0  0  0  0
 11 12  1  0  0  0  0
 11 16  1  0  0  0  0
 12 17  1  0  0  0  0
 13 14  1  0  0  0  0
 13 12  2  0  0  0  0
 15 13  1  0  0  0  0
 18 15  1  0  0  0  0
 19 24  1  0  0  0  0
 20 19  2  0  0  0  0
 20 21  1  0  0  0  0
 21 22  2  0  0  0  0
 22 23  1  0  0  0  0
 23 27  1  0  0  0  0
 24 23  2  0  0  0  0
 25 19  1  0  0  0  0
 26 20  1  0  0  0  0
 27 28  1  0  0  0  0
 28 32  1  0  0  0  0
 28 30  1  0  0  0  0
 29 28  1  0  0  0  0
 30 31  1  0  0  0  0
 33 32  1  0  0  0  0
M  END
>  <minimizedAffinity>
-4.93809938

$$$$
