
 OpenBabel03272507203D

 28 29  0  0  1  0  0  0  0  0999 V2000
   36.5290   21.2500   33.3820 C   0  0  0  0  0  0  0  0  0  0  0  0
   35.5500   20.5960   34.1150 C   0  0  0  0  0  0  0  0  0  0  0  0
   35.6770   20.7470   35.5120 C   0  0  0  0  0  0  0  0  0  0  0  0
   36.6980   21.4880   36.0540 N   0  0  0  0  0  0  0  0  0  0  0  0
   37.6280   22.1060   35.2890 C   0  0  0  0  0  0  0  0  0  0  0  0
   37.5340   21.9800   33.9220 N   0  0  0  0  0  0  0  0  0  0  0  0
   34.7710   20.0290   33.6660 H   0  0  0  0  0  0  0  0  0  0  0  0
   34.9440   20.2600   36.1360 H   0  0  0  0  0  0  0  0  0  0  0  0
   36.4150   21.1380   31.8930 C   0  0  1  0  0  0  0  0  0  0  0  0
   35.9940   22.2630   31.0620 C   0  0  2  0  0  0  0  0  0  0  0  0
   37.4660   21.9940   31.1600 C   0  0  0  0  0  0  0  0  0  0  0  0
   36.3270   20.0920   31.5100 H   0  0  0  0  0  0  0  0  0  0  0  0
   35.3850   21.9390   30.1740 H   0  0  0  0  0  0  0  0  0  0  0  0
   38.1120   22.6600   31.7290 H   0  0  0  0  0  0  0  0  0  0  0  0
   37.8730   21.5230   30.2260 H   0  0  0  0  0  0  0  0  0  0  0  0
   35.4710   23.3720   31.7140 O   0  0  0  0  0  0  0  0  0  0  0  0
   35.8170   24.6780   31.6170 C   0  0  0  0  0  0  0  0  0  0  0  0
   36.6280   25.2120   32.4050 O   0  0  0  0  0  0  0  0  0  0  0  0
   35.1250   25.2360   30.5410 N   0  0  0  0  0  0  0  0  0  0  0  0
   35.3100   25.1230   29.5340 H   0  0  0  0  0  0  0  0  0  0  0  0
   34.2860   25.8750   30.5020 H   0  0  0  0  0  0  0  0  0  0  0  0
   38.7230   22.9030   35.8970 C   0  0  0  0  0  2  0  0  0  0  0  0
   39.1720   22.4050   37.1510 N   0  0  0  0  0  4  0  0  0  0  0  0
   38.6610   21.5140   37.3450 H   0  0  0  0  0  0  0  0  0  0  0  0
   40.5750   22.0360   37.1630 C   0  0  0  0  0  2  0  0  0  0  0  0
   40.7000   20.9630   36.8400 H   0  0  0  0  0  0  0  0  0  0  0  0
   38.8440   23.3080   38.2320 C   0  0  0  0  0  2  0  0  0  0  0  0
   39.4100   22.9540   39.1250 H   0  0  0  0  0  0  0  0  0  0  0  0
  1  6  2  0  0  0  0
  1  2  1  0  0  0  0
  2  3  2  0  0  0  0
  3  4  1  0  0  0  0
  3  8  1  0  0  0  0
  5 22  1  0  0  0  0
  5  4  2  0  0  0  0
  6  5  1  0  0  0  0
  7  2  1  0  0  0  0
  9 12  1  6  0  0  0
  9  1  1  0  0  0  0
 10 13  1  6  0  0  0
 10 11  1  0  0  0  0
 10 16  1  0  0  0  0
 10  9  1  0  0  0  0
 11 14  1  0  0  0  0
 11  9  1  0  0  0  0
 15 11  1  0  0  0  0
 17 16  1  0  0  0  0
 17 18  2  0  0  0  0
 19 17  1  0  0  0  0
 20 19  1  0  0  0  0
 21 19  1  0  0  0  0
 22 23  1  0  0  0  0
 23 25  1  0  0  0  0
 23 24  1  0  0  0  0
 23 27  1  0  0  0  0
 26 25  1  0  0  0  0
 27 28  1  0  0  0  0
M  END
>  <minimizedAffinity>
-4.61580706

$$$$

 OpenBabel03272507203D

 28 29  0  0  1  0  0  0  0  0999 V2000
   37.9170   25.1660   35.9240 C   0  0  0  0  0  0  0  0  0  0  0  0
   38.2350   26.3920   36.4890 C   0  0  0  0  0  0  0  0  0  0  0  0
   38.4680   27.4180   35.5490 C   0  0  0  0  0  0  0  0  0  0  0  0
   38.3740   27.1760   34.2000 N   0  0  0  0  0  0  0  0  0  0  0  0
   38.0590   25.9570   33.7040 C   0  0  0  0  0  0  0  0  0  0  0  0
   37.8270   24.9330   34.5930 N   0  0  0  0  0  0  0  0  0  0  0  0
   38.3000   26.5480   37.5380 H   0  0  0  0  0  0  0  0  0  0  0  0
   38.7200   28.3960   35.9280 H   0  0  0  0  0  0  0  0  0  0  0  0
   37.6360   24.0560   36.8890 C   0  0  1  0  0  0  0  0  0  0  0  0
   38.7000   23.2180   37.4370 C   0  0  2  0  0  0  0  0  0  0  0  0
   38.2020   24.3440   38.2940 C   0  0  0  0  0  0  0  0  0  0  0  0
   36.5790   23.6930   36.8870 H   0  0  0  0  0  0  0  0  0  0  0  0
   38.3720   22.1550   37.5990 H   0  0  0  0  0  0  0  0  0  0  0  0
   38.8170   25.2280   38.4560 H   0  0  0  0  0  0  0  0  0  0  0  0
   37.5540   23.9810   39.1350 H   0  0  0  0  0  0  0  0  0  0  0  0
   39.9550   23.3250   36.8520 O   0  0  0  0  0  0  0  0  0  0  0  0
   41.0900   22.6290   37.1030 C   0  0  0  0  0  0  0  0  0  0  0  0
   42.2050   22.9950   36.6710 O   0  0  0  0  0  0  0  0  0  0  0  0
   40.7580   21.5140   37.8760 N   0  0  0  0  0  0  0  0  0  0  0  0
   40.5270   21.4780   38.8790 H   0  0  0  0  0  0  0  0  0  0  0  0
   40.6670   20.4920   37.6300 H   0  0  0  0  0  0  0  0  0  0  0  0
   37.9640   25.7190   32.2410 C   0  0  0  0  0  2  0  0  0  0  0  0
   36.6600   25.3670   31.7970 N   0  0  0  0  0  4  0  0  0  0  0  0
   36.0980   25.0930   32.6340 H   0  0  0  0  0  0  0  0  0  0  0  0
   35.9280   26.4720   31.2060 C   0  0  0  0  0  2  0  0  0  0  0  0
   35.3630   27.0360   32.0010 H   0  0  0  0  0  0  0  0  0  0  0  0
   36.6870   24.2120   30.9270 C   0  0  0  0  0  2  0  0  0  0  0  0
   35.6760   24.1410   30.4620 H   0  0  0  0  0  0  0  0  0  0  0  0
  1  2  1  0  0  0  0
  1  9  1  0  0  0  0
  2  7  1  0  0  0  0
  3  8  1  0  0  0  0
  3  2  2  0  0  0  0
  4  3  1  0  0  0  0
  5  4  2  0  0  0  0
  5  6  1  0  0  0  0
  6  1  2  0  0  0  0
  9 12  1  6  0  0  0
  9 10  1  0  0  0  0
  9 11  1  0  0  0  0
 10 13  1  1  0  0  0
 10 11  1  0  0  0  0
 11 14  1  0  0  0  0
 11 15  1  0  0  0  0
 16 17  1  0  0  0  0
 16 10  1  0  0  0  0
 17 19  1  0  0  0  0
 18 17  2  0  0  0  0
 19 20  1  0  0  0  0
 21 19  1  0  0  0  0
 22  5  1  0  0  0  0
 23 22  1  0  0  0  0
 23 24  1  0  0  0  0
 25 23  1  0  0  0  0
 25 26  1  0  0  0  0
 27 23  1  0  0  0  0
 28 27  1  0  0  0  0
M  END
>  <minimizedAffinity>
-4.52551365

$$$$

 OpenBabel03272507203D

 28 29  0  0  1  0  0  0  0  0999 V2000
   38.1690   25.1320   36.0700 C   0  0  0  0  0  0  0  0  0  0  0  0
   38.2600   26.4480   36.5010 C   0  0  0  0  0  0  0  0  0  0  0  0
   38.7660   27.3390   35.5320 C   0  0  0  0  0  0  0  0  0  0  0  0
   39.1240   26.8960   34.2820 N   0  0  0  0  0  0  0  0  0  0  0  0
   39.0140   25.5980   33.9150 C   0  0  0  0  0  0  0  0  0  0  0  0
   38.5240   24.7010   34.8360 N   0  0  0  0  0  0  0  0  0  0  0  0
   37.9740   26.7590   37.4750 H   0  0  0  0  0  0  0  0  0  0  0  0
   38.8610   28.3770   35.8080 H   0  0  0  0  0  0  0  0  0  0  0  0
   37.6100   24.1580   37.0610 C   0  0  1  0  0  0  0  0  0  0  0  0
   38.4660   23.2530   37.8240 C   0  0  2  0  0  0  0  0  0  0  0  0
   38.0060   24.5050   38.5090 C   0  0  0  0  0  0  0  0  0  0  0  0
   36.5250   23.9260   36.9250 H   0  0  0  0  0  0  0  0  0  0  0  0
   37.9800   22.2560   38.0120 H   0  0  0  0  0  0  0  0  0  0  0  0
   38.7030   25.3190   38.6980 H   0  0  0  0  0  0  0  0  0  0  0  0
   37.2030   24.3020   39.2670 H   0  0  0  0  0  0  0  0  0  0  0  0
   39.7940   23.1540   37.4300 O   0  0  0  0  0  0  0  0  0  0  0  0
   40.4470   22.1250   36.8370 C   0  0  0  0  0  0  0  0  0  0  0  0
   40.4900   21.9910   35.5950 O   0  0  0  0  0  0  0  0  0  0  0  0
   41.0040   21.3260   37.8370 N   0  0  0  0  0  0  0  0  0  0  0  0
   41.8390   21.5100   38.4130 H   0  0  0  0  0  0  0  0  0  0  0  0
   40.7180   20.3870   38.2260 H   0  0  0  0  0  0  0  0  0  0  0  0
   39.4070   25.1420   32.5580 C   0  0  0  0  0  2  0  0  0  0  0  0
   39.5030   26.1900   31.6010 N   0  0  0  0  0  4  0  0  0  0  0  0
   39.4570   27.1000   32.1150 H   0  0  0  0  0  0  0  0  0  0  0  0
   40.7720   26.2260   30.9000 C   0  0  0  0  0  2  0  0  0  0  0  0
   41.5150   26.8530   31.4690 H   0  0  0  0  0  0  0  0  0  0  0  0
   38.3820   26.1810   30.6870 C   0  0  0  0  0  2  0  0  0  0  0  0
   38.6420   26.8810   29.8590 H   0  0  0  0  0  0  0  0  0  0  0  0
  1  2  1  0  0  0  0
  1  9  1  0  0  0  0
  2  7  1  0  0  0  0
  3  8  1  0  0  0  0
  3  2  2  0  0  0  0
  4  3  1  0  0  0  0
  5  4  2  0  0  0  0
  5  6  1  0  0  0  0
  6  1  2  0  0  0  0
  9 12  1  6  0  0  0
  9 10  1  0  0  0  0
  9 11  1  0  0  0  0
 10 13  1  1  0  0  0
 10 11  1  0  0  0  0
 11 14  1  0  0  0  0
 11 15  1  0  0  0  0
 16 10  1  0  0  0  0
 17 16  1  0  0  0  0
 17 19  1  0  0  0  0
 18 17  2  0  0  0  0
 19 21  1  0  0  0  0
 19 20  1  0  0  0  0
 22  5  1  0  0  0  0
 23 24  1  0  0  0  0
 23 22  1  0  0  0  0
 25 26  1  0  0  0  0
 25 23  1  0  0  0  0
 27 23  1  0  0  0  0
 28 27  1  0  0  0  0
M  END
>  <minimizedAffinity>
-4.27978754

$$$$

 OpenBabel03272507203D

 28 29  0  0  1  0  0  0  0  0999 V2000
   37.4550   23.6480   32.8260 C   0  0  0  0  0  0  0  0  0  0  0  0
   37.5660   25.0310   32.8480 C   0  0  0  0  0  0  0  0  0  0  0  0
   38.0210   25.5540   34.0760 C   0  0  0  0  0  0  0  0  0  0  0  0
   38.3170   24.7270   35.1320 N   0  0  0  0  0  0  0  0  0  0  0  0
   38.1900   23.3820   35.0540 C   0  0  0  0  0  0  0  0  0  0  0  0
   37.7480   22.8370   33.8710 N   0  0  0  0  0  0  0  0  0  0  0  0
   37.3300   25.6440   32.0130 H   0  0  0  0  0  0  0  0  0  0  0  0
   38.1280   26.6250   34.1550 H   0  0  0  0  0  0  0  0  0  0  0  0
   37.0010   23.0500   31.5300 C   0  0  1  0  0  0  0  0  0  0  0  0
   35.8540   22.1490   31.4540 C   0  0  2  0  0  0  0  0  0  0  0  0
   35.6250   23.5860   31.0890 C   0  0  0  0  0  0  0  0  0  0  0  0
   37.7740   23.0480   30.7220 H   0  0  0  0  0  0  0  0  0  0  0  0
   35.9840   21.3490   30.6750 H   0  0  0  0  0  0  0  0  0  0  0  0
   35.0630   24.2420   31.7520 H   0  0  0  0  0  0  0  0  0  0  0  0
   35.5210   23.7300   29.9810 H   0  0  0  0  0  0  0  0  0  0  0  0
   35.3410   21.6730   32.6530 O   0  0  0  0  0  0  0  0  0  0  0  0
   35.2310   20.4000   33.1040 C   0  0  0  0  0  0  0  0  0  0  0  0
   34.8970   19.4560   32.3560 O   0  0  0  0  0  0  0  0  0  0  0  0
   35.5440   20.3890   34.4650 N   0  0  0  0  0  0  0  0  0  0  0  0
   36.4710   20.4540   34.9080 H   0  0  0  0  0  0  0  0  0  0  0  0
   34.9350   20.3150   35.3240 H   0  0  0  0  0  0  0  0  0  0  0  0
   38.5170   22.5070   36.2090 C   0  0  0  0  0  2  0  0  0  0  0  0
   39.2120   23.1700   37.2570 N   0  0  0  0  0  4  0  0  0  0  0  0
   39.4980   24.1130   36.9080 H   0  0  0  0  0  0  0  0  0  0  0  0
   38.3910   23.4400   38.4220 C   0  0  0  0  0  2  0  0  0  0  0  0
   37.8740   24.4350   38.3130 H   0  0  0  0  0  0  0  0  0  0  0  0
   40.4330   22.4780   37.6070 C   0  0  0  0  0  2  0  0  0  0  0  0
   40.7940   22.9320   38.5590 H   0  0  0  0  0  0  0  0  0  0  0  0
  1  2  2  0  0  0  0
  1  6  1  0  0  0  0
  2  3  1  0  0  0  0
  3  8  1  0  0  0  0
  3  4  2  0  0  0  0
  5  4  1  0  0  0  0
  5 22  1  0  0  0  0
  6  5  2  0  0  0  0
  7  2  1  0  0  0  0
  9 12  1  6  0  0  0
  9  1  1  0  0  0  0
 10 13  1  6  0  0  0
 10  9  1  0  0  0  0
 10 16  1  0  0  0  0
 11 10  1  0  0  0  0
 11  9  1  0  0  0  0
 11 14  1  0  0  0  0
 15 11  1  0  0  0  0
 16 17  1  0  0  0  0
 17 19  1  0  0  0  0
 18 17  2  0  0  0  0
 19 20  1  0  0  0  0
 19 21  1  0  0  0  0
 22 23  1  0  0  0  0
 23 27  1  0  0  0  0
 23 25  1  0  0  0  0
 24 23  1  0  0  0  0
 26 25  1  0  0  0  0
 27 28  1  0  0  0  0
M  END
>  <minimizedAffinity>
-4.27518797

$$$$

 OpenBabel03272507203D

 28 29  0  0  1  0  0  0  0  0999 V2000
   39.2610   25.5580   34.4970 C   0  0  0  0  0  0  0  0  0  0  0  0
   38.6810   26.5090   35.3240 C   0  0  0  0  0  0  0  0  0  0  0  0
   37.4820   27.0560   34.8220 C   0  0  0  0  0  0  0  0  0  0  0  0
   36.9700   26.6520   33.6140 N   0  0  0  0  0  0  0  0  0  0  0  0
   37.5800   25.7180   32.8460 C   0  0  0  0  0  0  0  0  0  0  0  0
   38.7520   25.1630   33.3050 N   0  0  0  0  0  0  0  0  0  0  0  0
   39.1010   26.8010   36.2550 H   0  0  0  0  0  0  0  0  0  0  0  0
   36.9830   27.8020   35.4210 H   0  0  0  0  0  0  0  0  0  0  0  0
   40.5220   24.9320   35.0060 C   0  0  1  0  0  0  0  0  0  0  0  0
   40.5140   23.6880   35.7730 C   0  0  2  0  0  0  0  0  0  0  0  0
   40.8310   23.5910   34.3100 C   0  0  0  0  0  0  0  0  0  0  0  0
   41.3950   25.6270   35.0710 H   0  0  0  0  0  0  0  0  0  0  0  0
   41.3160   23.6620   36.5610 H   0  0  0  0  0  0  0  0  0  0  0  0
   40.1100   23.1640   33.6160 H   0  0  0  0  0  0  0  0  0  0  0  0
   41.9240   23.4100   34.1260 H   0  0  0  0  0  0  0  0  0  0  0  0
   39.2830   23.2300   36.2230 O   0  0  0  0  0  0  0  0  0  0  0  0
   38.7110   23.3420   37.4460 C   0  0  0  0  0  0  0  0  0  0  0  0
   37.6690   24.0060   37.6350 O   0  0  0  0  0  0  0  0  0  0  0  0
   39.4810   22.6190   38.3580 N   0  0  0  0  0  0  0  0  0  0  0  0
   39.5290   21.5980   38.4870 H   0  0  0  0  0  0  0  0  0  0  0  0
   40.1670   22.9280   39.0990 H   0  0  0  0  0  0  0  0  0  0  0  0
   37.0080   25.2960   31.5430 C   0  0  0  0  0  2  0  0  0  0  0  0
   35.7230   24.6950   31.6420 N   0  0  0  0  0  4  0  0  0  0  0  0
   35.3720   24.8470   32.6150 H   0  0  0  0  0  0  0  0  0  0  0  0
   34.7240   25.3090   30.7880 C   0  0  0  0  0  2  0  0  0  0  0  0
   34.2230   26.1630   31.3250 H   0  0  0  0  0  0  0  0  0  0  0  0
   35.7890   23.2630   31.4520 C   0  0  0  0  0  2  0  0  0  0  0  0
   34.7380   22.9100   31.3320 H   0  0  0  0  0  0  0  0  0  0  0  0
  1  9  1  0  0  0  0
  1  2  1  0  0  0  0
  2  7  1  0  0  0  0
  3  2  2  0  0  0  0
  3  8  1  0  0  0  0
  4  3  1  0  0  0  0
  5  6  1  0  0  0  0
  5  4  2  0  0  0  0
  6  1  2  0  0  0  0
  9 12  1  1  0  0  0
  9 10  1  0  0  0  0
 10 16  1  0  0  0  0
 10 13  1  1  0  0  0
 11  9  1  0  0  0  0
 11 10  1  0  0  0  0
 14 11  1  0  0  0  0
 15 11  1  0  0  0  0
 16 17  1  0  0  0  0
 17 18  2  0  0  0  0
 17 19  1  0  0  0  0
 19 20  1  0  0  0  0
 19 21  1  0  0  0  0
 22 23  1  0  0  0  0
 22  5  1  0  0  0  0
 23 24  1  0  0  0  0
 25 26  1  0  0  0  0
 25 23  1  0  0  0  0
 27 23  1  0  0  0  0
 28 27  1  0  0  0  0
M  END
>  <minimizedAffinity>
-4.2448411

$$$$

 OpenBabel03272507203D

 28 29  0  0  1  0  0  0  0  0999 V2000
   37.1370   27.1350   33.9860 C   0  0  0  0  0  0  0  0  0  0  0  0
   36.4820   28.1910   33.3700 C   0  0  0  0  0  0  0  0  0  0  0  0
   35.8690   27.8550   32.1460 C   0  0  0  0  0  0  0  0  0  0  0  0
   35.9400   26.5780   31.6450 N   0  0  0  0  0  0  0  0  0  0  0  0
   36.5950   25.5840   32.2900 C   0  0  0  0  0  0  0  0  0  0  0  0
   37.2060   25.8780   33.4880 N   0  0  0  0  0  0  0  0  0  0  0  0
   36.4440   29.1690   33.7830 H   0  0  0  0  0  0  0  0  0  0  0  0
   35.3430   28.6360   31.6180 H   0  0  0  0  0  0  0  0  0  0  0  0
   37.7790   27.4440   35.3030 C   0  0  1  0  0  0  0  0  0  0  0  0
   38.2830   26.3930   36.1840 C   0  0  2  0  0  0  0  0  0  0  0  0
   39.2820   27.1000   35.3170 C   0  0  0  0  0  0  0  0  0  0  0  0
   37.5360   28.4550   35.7140 H   0  0  0  0  0  0  0  0  0  0  0  0
   38.1540   26.6440   37.2730 H   0  0  0  0  0  0  0  0  0  0  0  0
   39.7270   26.5930   34.4630 H   0  0  0  0  0  0  0  0  0  0  0  0
   39.9140   27.8200   35.9010 H   0  0  0  0  0  0  0  0  0  0  0  0
   37.9330   25.0850   35.8750 O   0  0  0  0  0  0  0  0  0  0  0  0
   37.8480   23.9970   36.6780 C   0  0  0  0  0  0  0  0  0  0  0  0
   37.6620   22.8480   36.2250 O   0  0  0  0  0  0  0  0  0  0  0  0
   37.9990   24.4180   38.0010 N   0  0  0  0  0  0  0  0  0  0  0  0
   38.8620   24.6970   38.4890 H   0  0  0  0  0  0  0  0  0  0  0  0
   37.2990   24.5450   38.7810 H   0  0  0  0  0  0  0  0  0  0  0  0
   36.6590   24.2110   31.7300 C   0  0  0  0  0  2  0  0  0  0  0  0
   37.9820   23.7170   31.5600 N   0  0  0  0  0  4  0  0  0  0  0  0
   38.6340   24.3660   32.0560 H   0  0  0  0  0  0  0  0  0  0  0  0
   38.2060   22.4240   32.1800 C   0  0  0  0  0  2  0  0  0  0  0  0
   38.5320   22.5560   33.2500 H   0  0  0  0  0  0  0  0  0  0  0  0
   38.3780   23.7230   30.1700 C   0  0  0  0  0  2  0  0  0  0  0  0
   39.3220   23.1320   30.1050 H   0  0  0  0  0  0  0  0  0  0  0  0
  1  9  1  0  0  0  0
  2  7  1  0  0  0  0
  2  1  2  0  0  0  0
  3  2  1  0  0  0  0
  4  3  2  0  0  0  0
  4  5  1  0  0  0  0
  5  6  2  0  0  0  0
  6  1  1  0  0  0  0
  8  3  1  0  0  0  0
  9 11  1  0  0  0  0
  9 12  1  1  0  0  0
  9 10  1  0  0  0  0
 10 13  1  1  0  0  0
 11 15  1  0  0  0  0
 11 10  1  0  0  0  0
 14 11  1  0  0  0  0
 16 10  1  0  0  0  0
 16 17  1  0  0  0  0
 17 19  1  0  0  0  0
 18 17  2  0  0  0  0
 19 20  1  0  0  0  0
 19 21  1  0  0  0  0
 22  5  1  0  0  0  0
 23 22  1  0  0  0  0
 23 24  1  0  0  0  0
 23 25  1  0  0  0  0
 25 26  1  0  0  0  0
 27 23  1  0  0  0  0
 28 27  1  0  0  0  0
M  END
>  <minimizedAffinity>
-4.15797567

$$$$

 OpenBabel03272507203D

 28 29  0  0  1  0  0  0  0  0999 V2000
   37.6860   25.4700   34.2790 C   0  0  0  0  0  0  0  0  0  0  0  0
   38.1320   24.1620   34.1510 C   0  0  0  0  0  0  0  0  0  0  0  0
   37.7930   23.5550   32.9240 C   0  0  0  0  0  0  0  0  0  0  0  0
   37.0830   24.2380   31.9670 N   0  0  0  0  0  0  0  0  0  0  0  0
   36.6730   25.5160   32.1460 C   0  0  0  0  0  0  0  0  0  0  0  0
   36.9850   26.1390   33.3320 N   0  0  0  0  0  0  0  0  0  0  0  0
   38.6800   23.6600   34.9090 H   0  0  0  0  0  0  0  0  0  0  0  0
   38.1120   22.5360   32.7650 H   0  0  0  0  0  0  0  0  0  0  0  0
   38.0490   26.1610   35.5570 C   0  0  1  0  0  0  0  0  0  0  0  0
   39.2190   27.0290   35.6620 C   0  0  2  0  0  0  0  0  0  0  0  0
   37.8890   27.6910   35.4600 C   0  0  0  0  0  0  0  0  0  0  0  0
   37.5980   25.7100   36.4740 H   0  0  0  0  0  0  0  0  0  0  0  0
   39.7100   26.9700   36.6730 H   0  0  0  0  0  0  0  0  0  0  0  0
   37.6400   28.1480   34.5040 H   0  0  0  0  0  0  0  0  0  0  0  0
   37.5100   28.1750   36.3990 H   0  0  0  0  0  0  0  0  0  0  0  0
   40.1230   27.0050   34.6090 O   0  0  0  0  0  0  0  0  0  0  0  0
   41.3380   26.4100   34.5220 C   0  0  0  0  0  0  0  0  0  0  0  0
   41.5030   25.1950   34.7640 O   0  0  0  0  0  0  0  0  0  0  0  0
   42.2710   27.3760   34.1410 N   0  0  0  0  0  0  0  0  0  0  0  0
   42.4200   27.7890   33.2090 H   0  0  0  0  0  0  0  0  0  0  0  0
   43.0130   27.8900   34.6880 H   0  0  0  0  0  0  0  0  0  0  0  0
   35.9060   26.2350   31.0980 C   0  0  0  0  0  2  0  0  0  0  0  0
   36.6680   27.2020   30.3860 N   0  0  0  0  0  4  0  0  0  0  0  0
   36.3970   27.1450   29.3770 H   0  0  0  0  0  0  0  0  0  0  0  0
   36.3770   28.5710   30.7690 C   0  0  0  0  0  2  0  0  0  0  0  0
   35.5270   28.9770   30.1520 H   0  0  0  0  0  0  0  0  0  0  0  0
   38.0840   26.9140   30.4460 C   0  0  0  0  0  2  0  0  0  0  0  0
   38.6080   27.8180   30.0560 H   0  0  0  0  0  0  0  0  0  0  0  0
  1  9  1  0  0  0  0
  2  1  1  0  0  0  0
  2  7  1  0  0  0  0
  3  2  2  0  0  0  0
  4  5  2  0  0  0  0
  4  3  1  0  0  0  0
  5  6  1  0  0  0  0
  6  1  2  0  0  0  0
  8  3  1  0  0  0  0
  9 10  1  0  0  0  0
  9 12  1  1  0  0  0
 10 13  1  1  0  0  0
 11  9  1  0  0  0  0
 11 10  1  0  0  0  0
 11 15  1  0  0  0  0
 14 11  1  0  0  0  0
 16 10  1  0  0  0  0
 17 16  1  0  0  0  0
 17 18  2  0  0  0  0
 19 17  1  0  0  0  0
 19 21  1  0  0  0  0
 20 19  1  0  0  0  0
 22  5  1  0  0  0  0
 23 27  1  0  0  0  0
 23 25  1  0  0  0  0
 23 22  1  0  0  0  0
 24 23  1  0  0  0  0
 26 25  1  0  0  0  0
 28 27  1  0  0  0  0
M  END
>  <minimizedAffinity>
-4.13188219

$$$$

 OpenBabel03272507203D

 28 29  0  0  1  0  0  0  0  0999 V2000
   38.3780   25.2350   35.8790 C   0  0  0  0  0  0  0  0  0  0  0  0
   37.5460   26.2850   35.5210 C   0  0  0  0  0  0  0  0  0  0  0  0
   38.1760   27.2850   34.7530 C   0  0  0  0  0  0  0  0  0  0  0  0
   39.5030   27.1850   34.4110 N   0  0  0  0  0  0  0  0  0  0  0  0
   40.2700   26.1350   34.7890 C   0  0  0  0  0  0  0  0  0  0  0  0
   39.6860   25.1410   35.5400 N   0  0  0  0  0  0  0  0  0  0  0  0
   36.5220   26.3340   35.8000 H   0  0  0  0  0  0  0  0  0  0  0  0
   37.5790   28.1290   34.4440 H   0  0  0  0  0  0  0  0  0  0  0  0
   37.7400   24.1370   36.6730 C   0  0  1  0  0  0  0  0  0  0  0  0
   38.5310   23.1610   37.4200 C   0  0  2  0  0  0  0  0  0  0  0  0
   37.9540   24.3120   38.1890 C   0  0  0  0  0  0  0  0  0  0  0  0
   36.6870   23.9030   36.3820 H   0  0  0  0  0  0  0  0  0  0  0  0
   38.0600   22.1400   37.4290 H   0  0  0  0  0  0  0  0  0  0  0  0
   38.5970   25.1100   38.5550 H   0  0  0  0  0  0  0  0  0  0  0  0
   37.0750   24.0030   38.8170 H   0  0  0  0  0  0  0  0  0  0  0  0
   39.8980   23.1360   37.1780 O   0  0  0  0  0  0  0  0  0  0  0  0
   40.6870   22.1120   36.7710 C   0  0  0  0  0  0  0  0  0  0  0  0
   41.0280   21.9690   35.5770 O   0  0  0  0  0  0  0  0  0  0  0  0
   40.9970   21.3280   37.8840 N   0  0  0  0  0  0  0  0  0  0  0  0
   41.6670   21.5290   38.6410 H   0  0  0  0  0  0  0  0  0  0  0  0
   40.6370   20.3890   38.2040 H   0  0  0  0  0  0  0  0  0  0  0  0
   41.7020   26.0480   34.4080 C   0  0  0  0  0  2  0  0  0  0  0  0
   42.2790   24.7650   34.6160 N   0  0  0  0  0  4  0  0  0  0  0  0
   41.5310   24.1320   34.9800 H   0  0  0  0  0  0  0  0  0  0  0  0
   42.7410   24.1300   33.3970 C   0  0  0  0  0  2  0  0  0  0  0  0
   41.9080   23.5350   32.9260 H   0  0  0  0  0  0  0  0  0  0  0  0
   43.3100   24.8030   35.6290 C   0  0  0  0  0  2  0  0  0  0  0  0
   43.8450   23.8250   35.5740 H   0  0  0  0  0  0  0  0  0  0  0  0
  1  9  1  0  0  0  0
  2  7  1  0  0  0  0
  2  1  2  0  0  0  0
  3  2  1  0  0  0  0
  4  3  2  0  0  0  0
  4  5  1  0  0  0  0
  5  6  2  0  0  0  0
  6  1  1  0  0  0  0
  8  3  1  0  0  0  0
  9 12  1  6  0  0  0
  9 10  1  0  0  0  0
  9 11  1  0  0  0  0
 10 13  1  1  0  0  0
 10 11  1  0  0  0  0
 11 14  1  0  0  0  0
 11 15  1  0  0  0  0
 16 10  1  0  0  0  0
 17 16  1  0  0  0  0
 17 19  1  0  0  0  0
 18 17  2  0  0  0  0
 19 21  1  0  0  0  0
 19 20  1  0  0  0  0
 22 23  1  0  0  0  0
 22  5  1  0  0  0  0
 23 24  1  0  0  0  0
 23 27  1  0  0  0  0
 25 23  1  0  0  0  0
 26 25  1  0  0  0  0
 28 27  1  0  0  0  0
M  END
>  <minimizedAffinity>
-4.1100359

$$$$

 OpenBabel03272507203D

 28 29  0  0  1  0  0  0  0  0999 V2000
   38.3440   24.5340   34.9880 C   0  0  0  0  0  0  0  0  0  0  0  0
   37.7840   25.5500   35.7480 C   0  0  0  0  0  0  0  0  0  0  0  0
   37.2100   26.5900   34.9870 C   0  0  0  0  0  0  0  0  0  0  0  0
   37.2280   26.5560   33.6140 N   0  0  0  0  0  0  0  0  0  0  0  0
   37.7900   25.5360   32.9230 C   0  0  0  0  0  0  0  0  0  0  0  0
   38.3590   24.5050   33.6340 N   0  0  0  0  0  0  0  0  0  0  0  0
   37.7850   25.5490   36.8100 H   0  0  0  0  0  0  0  0  0  0  0  0
   36.7580   27.4110   35.5220 H   0  0  0  0  0  0  0  0  0  0  0  0
   38.9400   23.3960   35.7590 C   0  0  1  0  0  0  0  0  0  0  0  0
   38.3600   22.0550   35.7320 C   0  0  2  0  0  0  0  0  0  0  0  0
   39.5350   22.3140   34.8360 C   0  0  0  0  0  0  0  0  0  0  0  0
   39.6100   23.7030   36.5980 H   0  0  0  0  0  0  0  0  0  0  0  0
   38.4650   21.5200   36.7150 H   0  0  0  0  0  0  0  0  0  0  0  0
   39.4020   22.3900   33.7590 H   0  0  0  0  0  0  0  0  0  0  0  0
   40.4760   21.8430   35.2270 H   0  0  0  0  0  0  0  0  0  0  0  0
   37.1010   21.9210   35.1620 O   0  0  0  0  0  0  0  0  0  0  0  0
   36.1070   21.0470   35.4540 C   0  0  0  0  0  0  0  0  0  0  0  0
   35.5020   20.4070   34.5670 O   0  0  0  0  0  0  0  0  0  0  0  0
   35.9300   21.0310   36.8390 N   0  0  0  0  0  0  0  0  0  0  0  0
   36.5200   20.5810   37.5540 H   0  0  0  0  0  0  0  0  0  0  0  0
   35.1870   21.4560   37.4560 H   0  0  0  0  0  0  0  0  0  0  0  0
   37.7970   25.5200   31.4390 C   0  0  0  0  0  2  0  0  0  0  0  0
   36.5510   25.1570   30.8580 N   0  0  0  0  0  4  0  0  0  0  0  0
   36.7150   24.9530   29.8460 H   0  0  0  0  0  0  0  0  0  0  0  0
   35.9910   23.9320   31.3970 C   0  0  0  0  0  2  0  0  0  0  0  0
   36.3710   23.0420   30.8190 H   0  0  0  0  0  0  0  0  0  0  0  0
   35.6030   26.2490   30.9060 C   0  0  0  0  0  2  0  0  0  0  0  0
   34.6100   25.8190   30.6350 H   0  0  0  0  0  0  0  0  0  0  0  0
  1  2  1  0  0  0  0
  1  9  1  0  0  0  0
  2  7  1  0  0  0  0
  3  8  1  0  0  0  0
  3  2  2  0  0  0  0
  4  3  1  0  0  0  0
  5  4  2  0  0  0  0
  5  6  1  0  0  0  0
  6  1  2  0  0  0  0
  9 12  1  1  0  0  0
 10  9  1  0  0  0  0
 10 13  1  1  0  0  0
 11 15  1  0  0  0  0
 11 10  1  0  0  0  0
 11  9  1  0  0  0  0
 14 11  1  0  0  0  0
 16 17  1  0  0  0  0
 16 10  1  0  0  0  0
 17 19  1  0  0  0  0
 18 17  2  0  0  0  0
 19 21  1  0  0  0  0
 19 20  1  0  0  0  0
 22  5  1  0  0  0  0
 23 27  1  0  0  0  0
 23 25  1  0  0  0  0
 23 22  1  0  0  0  0
 24 23  1  0  0  0  0
 26 25  1  0  0  0  0
 28 27  1  0  0  0  0
M  END
>  <minimizedAffinity>
-4.07761192

$$$$
