
 OpenBabel03272505233D

 33 35  0  0  0  0  0  0  0  0999 V2000
   38.1700   30.7810   46.7750 Br  0  0  0  0  0  0  0  0  0  0  0  0
   36.3240   30.3450   46.6240 C   0  0  0  0  0  0  0  0  0  0  0  0
   35.5680   30.0970   47.7420 C   0  0  0  0  0  0  0  0  0  0  0  0
   34.2150   29.7900   47.5770 C   0  0  0  0  0  0  0  0  0  0  0  0
   33.6740   29.7420   46.3100 C   0  0  0  0  0  0  0  0  0  0  0  0
   34.4330   29.9910   45.1730 C   0  0  0  0  0  0  0  0  0  0  0  0
   35.7790   30.2970   45.3570 C   0  0  0  0  0  0  0  0  0  0  0  0
   33.6500   29.6000   48.4810 H   0  0  0  0  0  0  0  0  0  0  0  0
   32.6240   29.5020   46.2100 H   0  0  0  0  0  0  0  0  0  0  0  0
   34.0170   29.9550   44.1890 H   0  0  0  0  0  0  0  0  0  0  0  0
   37.1400   31.4180   50.9080 C   0  0  0  0  0  0  0  0  0  0  0  0
   36.4960   31.3720   49.6650 C   0  0  0  0  0  0  0  0  0  0  0  0
   36.2440   30.1770   49.0360 C   0  0  0  0  0  0  0  0  0  0  0  0
   36.6560   29.0390   49.6890 N   0  0  0  0  0  0  0  0  0  0  0  0
   37.2760   29.0840   50.8860 C   0  0  0  0  0  0  0  0  0  0  0  0
   37.5190   30.2540   51.4940 N   0  0  0  0  0  0  0  0  0  0  0  0
   37.3490   32.3500   51.4240 H   0  0  0  0  0  0  0  0  0  0  0  0
   36.2400   32.3300   49.2570 H   0  0  0  0  0  0  0  0  0  0  0  0
   37.5180   28.0860   51.2280 H   0  0  0  0  0  0  0  0  0  0  0  0
   36.6130   30.5610   44.1900 C   0  0  0  0  0  0  0  0  0  0  0  0
   36.6250   31.6870   43.4210 C   0  0  0  0  0  0  0  0  0  0  0  0
   37.5150   31.5750   42.4340 N   0  0  0  0  0  0  0  0  0  0  0  0
   38.0890   30.3750   42.5540 C   0  0  0  0  0  0  0  0  0  0  0  0
   37.5530   29.7270   43.6290 N   0  0  0  0  0  0  0  0  0  0  0  0
   35.9780   32.5290   43.6270 H   0  0  0  0  0  0  0  0  0  0  0  0
   37.6790   32.3290   41.7320 H   0  0  0  0  0  0  0  0  0  0  0  0
   39.1450   29.8390   41.6550 C   0  0  0  0  0  0  0  0  0  0  0  0
   40.3020   29.3630   42.3620 N   0  0  0  0  0  0  0  0  0  0  0  0
   40.0280   28.6290   43.0540 H   0  0  0  0  0  0  0  0  0  0  0  0
   40.7970   30.5030   43.1350 C   0  0  0  0  0  0  0  0  0  0  0  0
   40.8940   31.3460   42.4110 H   0  0  0  0  0  0  0  0  0  0  0  0
   41.3820   28.9260   41.5310 C   0  0  0  0  0  0  0  0  0  0  0  0
   41.1270   28.7070   40.4870 H   0  0  0  0  0  0  0  0  0  0  0  0
  2  1  1  0  0  0  0
  2  3  1  0  0  0  0
  3 13  1  0  0  0  0
  4  3  2  0  0  0  0
  4  8  1  0  0  0  0
  5  4  1  0  0  0  0
  6  7  1  0  0  0  0
  6  5  2  0  0  0  0
  7  2  2  0  0  0  0
  9  5  1  0  0  0  0
 10  6  1  0  0  0  0
 11 17  1  0  0  0  0
 11 16  1  0  0  0  0
 12 11  2  0  0  0  0
 13 12  1  0  0  0  0
 13 14  2  0  0  0  0
 14 15  1  0  0  0  0
 15 19  1  0  0  0  0
 15 16  2  0  0  0  0
 18 12  1  0  0  0  0
 20  7  1  0  0  0  0
 21 25  1  0  0  0  0
 21 20  2  0  0  0  0
 22 23  1  0  0  0  0
 22 21  1  0  0  0  0
 23 24  2  0  0  0  0
 24 20  1  0  0  0  0
 26 22  1  0  0  0  0
 27 28  1  0  0  0  0
 27 23  1  0  0  0  0
 28 29  1  0  0  0  0
 28 30  1  0  0  0  0
 31 30  1  0  0  0  0
 32 28  1  0  0  0  0
 33 32  1  0  0  0  0
M  END
>  <minimizedAffinity>
-4.94309473

>  <minimizedRMSD>
3.27254391

$$$$
