
 OpenBabel03272508533D

 36 38  0  0  1  0  0  0  0  0999 V2000
   38.4140   31.8510   44.5400 C   0  0  0  0  0  0  0  0  0  0  0  0
   37.3050   32.4530   44.4200 O   0  0  0  0  0  0  0  0  0  0  0  0
   38.9400   31.5560   45.8380 N   0  0  0  0  0  0  0  0  0  0  0  0
   39.9060   31.2450   45.9790 H   0  0  0  0  0  0  0  0  0  0  0  0
   39.1790   31.4460   43.3500 C   0  0  0  0  0  0  0  0  0  0  0  0
   40.1870   30.5330   43.5090 C   0  0  0  0  0  0  0  0  0  0  0  0
   40.9070   30.1490   42.3870 C   0  0  0  0  0  0  0  0  0  0  0  0
   40.5660   30.7060   41.1890 C   0  0  0  0  0  0  0  0  0  0  0  0
   39.5360   31.6440   41.0080 C   0  0  0  0  0  0  0  0  0  0  0  0
   38.8900   31.9600   42.1400 N   0  0  0  0  0  0  0  0  0  0  0  0
   40.4470   30.1000   44.4580 H   0  0  0  0  0  0  0  0  0  0  0  0
   41.7140   29.4310   42.4590 H   0  0  0  0  0  0  0  0  0  0  0  0
   41.1330   30.4000   40.3240 H   0  0  0  0  0  0  0  0  0  0  0  0
   39.2300   32.1990   39.6770 C   0  0  0  0  0  2  0  0  0  0  0  0
   38.0180   31.7060   39.0910 N   0  0  0  0  0  4  0  0  0  0  0  0
   38.1200   31.7340   38.0510 H   0  0  0  0  0  0  0  0  0  0  0  0
   37.7330   30.3260   39.4480 C   0  0  0  0  0  2  0  0  0  0  0  0
   38.6570   29.7400   39.4200 H   0  0  0  0  0  0  0  0  0  0  0  0
   36.8760   32.5630   39.4430 C   0  0  0  0  0  2  0  0  0  0  0  0
   36.4850   33.0950   38.5720 H   0  0  0  0  0  0  0  0  0  0  0  0
   38.4110   31.1090   48.2350 C   0  0  2  0  0  0  0  0  0  0  0  0
   38.6800   32.5520   48.1210 C   0  0  0  0  0  0  0  0  0  0  0  0
   38.0520   31.7100   46.9760 C   0  0  1  0  0  0  0  0  0  0  0  0
   39.3560   30.5070   48.3300 H   0  0  0  0  0  0  0  0  0  0  0  0
   37.9980   33.2750   48.6220 H   0  0  0  0  0  0  0  0  0  0  0  0
   39.6910   32.9300   47.9710 H   0  0  0  0  0  0  0  0  0  0  0  0
   36.9890   31.9490   46.7630 H   0  0  0  0  0  0  0  0  0  0  0  0
   35.0810   30.1980   49.5460 C   0  0  0  0  0  0  0  0  0  0  0  0
   35.4010   29.5580   50.7720 C   0  0  0  0  0  0  0  0  0  0  0  0
   36.7960   29.4600   51.1330 C   0  0  0  0  0  0  0  0  0  0  0  0
   37.7300   29.9780   50.2930 N   0  0  0  0  0  0  0  0  0  0  0  0
   37.3500   30.5800   49.1310 C   0  0  0  0  0  0  0  0  0  0  0  0
   36.0350   30.7050   48.7320 N   0  0  0  0  0  0  0  0  0  0  0  0
   34.0220   30.2410   49.3300 H   0  0  0  0  0  0  0  0  0  0  0  0
   34.6330   29.1650   51.4010 H   0  0  0  0  0  0  0  0  0  0  0  0
   37.0470   28.9740   52.0660 H   0  0  0  0  0  0  0  0  0  0  0  0
  1  3  1  0  0  0  0
  2  1  2  0  0  0  0
  3  4  1  0  0  0  0
  3 23  1  0  0  0  0
  5  6  1  0  0  0  0
  5  1  1  0  0  0  0
  6 11  1  0  0  0  0
  7 12  1  0  0  0  0
  7  6  2  0  0  0  0
  8  7  1  0  0  0  0
  9  8  2  0  0  0  0
  9 10  1  0  0  0  0
 10  5  2  0  0  0  0
 13  8  1  0  0  0  0
 14  9  1  0  0  0  0
 15 19  1  0  0  0  0
 15 17  1  0  0  0  0
 15 14  1  0  0  0  0
 16 15  1  0  0  0  0
 18 17  1  0  0  0  0
 20 19  1  0  0  0  0
 21 24  1  6  0  0  0
 21 32  1  0  0  0  0
 22 21  1  0  0  0  0
 22 25  1  0  0  0  0
 23 27  1  6  0  0  0
 23 22  1  0  0  0  0
 23 21  1  0  0  0  0
 26 22  1  0  0  0  0
 28 29  1  0  0  0  0
 29 30  2  0  0  0  0
 29 35  1  0  0  0  0
 30 36  1  0  0  0  0
 31 30  1  0  0  0  0
 32 31  2  0  0  0  0
 33 32  1  0  0  0  0
 33 28  2  0  0  0  0
 34 28  1  0  0  0  0
M  END
>  <minimizedAffinity>
-4.80753231

>  <minimizedRMSD>
0.217420682

$$$$
