
 OpenBabel03272507193D

 28 29  0  0  1  0  0  0  0  0999 V2000
   37.7430   31.3640   49.4900 C   0  0  0  0  0  0  0  0  0  0  0  0
   38.1450   32.6580   49.7880 C   0  0  0  0  0  0  0  0  0  0  0  0
   38.8390   33.3020   48.7420 C   0  0  0  0  0  0  0  0  0  0  0  0
   39.0730   32.6630   47.5490 N   0  0  0  0  0  0  0  0  0  0  0  0
   38.6570   31.3970   47.3130 C   0  0  0  0  0  0  0  0  0  0  0  0
   37.9780   30.7380   48.3120 N   0  0  0  0  0  0  0  0  0  0  0  0
   37.9490   33.1260   50.7210 H   0  0  0  0  0  0  0  0  0  0  0  0
   39.1780   34.3120   48.9140 H   0  0  0  0  0  0  0  0  0  0  0  0
   36.9790   30.6540   50.5640 C   0  0  1  0  0  0  0  0  0  0  0  0
   36.1470   29.4880   50.2800 C   0  0  2  0  0  0  0  0  0  0  0  0
   37.5200   29.2350   50.8270 C   0  0  0  0  0  0  0  0  0  0  0  0
   36.8060   31.2580   51.4890 H   0  0  0  0  0  0  0  0  0  0  0  0
   35.2290   29.4450   50.9280 H   0  0  0  0  0  0  0  0  0  0  0  0
   38.3030   28.8290   50.1890 H   0  0  0  0  0  0  0  0  0  0  0  0
   37.4960   28.9260   51.9060 H   0  0  0  0  0  0  0  0  0  0  0  0
   35.8940   29.2000   48.9460 O   0  0  0  0  0  0  0  0  0  0  0  0
   34.7110   29.0500   48.3010 C   0  0  0  0  0  0  0  0  0  0  0  0
   34.3160   27.9390   47.8860 O   0  0  0  0  0  0  0  0  0  0  0  0
   34.0990   30.3010   48.2120 N   0  0  0  0  0  0  0  0  0  0  0  0
   33.6150   30.8310   48.9520 H   0  0  0  0  0  0  0  0  0  0  0  0
   33.9900   30.9740   47.4060 H   0  0  0  0  0  0  0  0  0  0  0  0
   38.9220   30.7260   46.0150 C   0  0  0  0  0  2  0  0  0  0  0  0
   37.9370   30.9800   45.0210 N   0  0  0  0  0  4  0  0  0  0  0  0
   38.1840   30.4210   44.1730 H   0  0  0  0  0  0  0  0  0  0  0  0
   36.6080   30.5280   45.3880 C   0  0  0  0  0  2  0  0  0  0  0  0
   36.4600   29.4560   45.0740 H   0  0  0  0  0  0  0  0  0  0  0  0
   37.9400   32.3670   44.6120 C   0  0  0  0  0  2  0  0  0  0  0  0
   37.0170   32.5220   44.0060 H   0  0  0  0  0  0  0  0  0  0  0  0
  1  2  1  0  0  0  0
  1  9  1  0  0  0  0
  2  7  1  0  0  0  0
  3  8  1  0  0  0  0
  3  2  2  0  0  0  0
  4  3  1  0  0  0  0
  5  4  2  0  0  0  0
  5  6  1  0  0  0  0
  6  1  2  0  0  0  0
  9 11  1  0  0  0  0
  9 12  1  1  0  0  0
 10  9  1  0  0  0  0
 10 11  1  0  0  0  0
 10 13  1  1  0  0  0
 11 15  1  0  0  0  0
 14 11  1  0  0  0  0
 16 10  1  0  0  0  0
 17 16  1  0  0  0  0
 18 17  2  0  0  0  0
 19 17  1  0  0  0  0
 19 20  1  0  0  0  0
 21 19  1  0  0  0  0
 22  5  1  0  0  0  0
 23 25  1  0  0  0  0
 23 22  1  0  0  0  0
 24 23  1  0  0  0  0
 26 25  1  0  0  0  0
 27 23  1  0  0  0  0
 28 27  1  0  0  0  0
M  END
>  <minimizedAffinity>
-5.02573109

>  <minimizedRMSD>
1.2389636

$$$$
