
 OpenBabel03272502173D

 31 32  0  0  1  0  0  0  0  0999 V2000
   36.1160   29.3340   49.3500 S   0  0  0  0  0  0  0  0  0  0  0  0
   33.5190   28.6560   49.0420 N   0  0  0  0  0  0  0  0  0  0  0  0
   34.3910   29.8140   48.9540 C   0  0  2  0  0  0  0  0  0  0  0  0
   34.3360   30.3360   47.5340 C   0  0  0  0  0  0  0  0  0  0  0  0
   33.1970   29.8500   46.8540 O   0  0  0  0  0  0  0  0  0  0  0  0
   33.4570   28.4830   46.6740 C   0  0  0  0  0  0  0  0  0  0  0  0
   33.8250   27.7750   47.9460 C   0  0  2  0  0  0  0  0  0  0  0  0
   32.5560   29.0310   48.8850 H   0  0  0  0  0  0  0  0  0  0  0  0
   34.1000   30.6250   49.6480 H   0  0  0  0  0  0  0  0  0  0  0  0
   35.2140   29.9200   46.9880 H   0  0  0  0  0  0  0  0  0  0  0  0
   34.3970   31.4400   47.4810 H   0  0  0  0  0  0  0  0  0  0  0  0
   34.3260   28.3460   45.9730 H   0  0  0  0  0  0  0  0  0  0  0  0
   32.5930   28.0090   46.1740 H   0  0  0  0  0  0  0  0  0  0  0  0
   34.9020   27.4850   47.9970 H   0  0  0  0  0  0  0  0  0  0  0  0
   33.0360   26.6090   48.1150 O   0  0  0  0  0  0  0  0  0  0  0  0
   32.5390   26.3950   47.2960 H   0  0  0  0  0  0  0  0  0  0  0  0
   37.2510   30.5850   48.8250 C   0  0  0  0  0  0  0  0  0  0  0  0
   37.2460   31.7040   49.6840 C   0  0  0  0  0  0  0  0  0  0  0  0
   38.0950   32.7740   49.3900 C   0  0  0  0  0  0  0  0  0  0  0  0
   38.8910   32.6780   48.2760 N   0  0  0  0  0  0  0  0  0  0  0  0
   38.8610   31.5860   47.4840 C   0  0  0  0  0  0  0  0  0  0  0  0
   38.0590   30.5590   47.7490 N   0  0  0  0  0  0  0  0  0  0  0  0
   36.6460   31.8300   50.5640 H   0  0  0  0  0  0  0  0  0  0  0  0
   38.1280   33.6510   50.0150 H   0  0  0  0  0  0  0  0  0  0  0  0
   39.7100   31.4510   46.2720 C   0  0  0  0  0  2  0  0  0  0  0  0
   38.8770   31.5410   45.0770 N   0  0  0  0  0  4  0  0  0  0  0  0
   37.8930   31.4650   45.4070 H   0  0  0  0  0  0  0  0  0  0  0  0
   39.1330   32.8510   44.4900 C   0  0  0  0  0  2  0  0  0  0  0  0
   38.9180   32.8490   43.4020 H   0  0  0  0  0  0  0  0  0  0  0  0
   39.1830   30.4740   44.1510 C   0  0  0  0  0  2  0  0  0  0  0  0
   38.4570   29.6570   44.2530 H   0  0  0  0  0  0  0  0  0  0  0  0
  3  2  1  0  0  0  0
  3  1  1  0  0  0  0
  3  9  1  1  0  0  0
  4  3  1  0  0  0  0
  5  4  1  0  0  0  0
  6  5  1  0  0  0  0
  6  7  1  0  0  0  0
  7 14  1  1  0  0  0
  7 15  1  0  0  0  0
  7  2  1  0  0  0  0
  8  2  1  0  0  0  0
 10  4  1  0  0  0  0
 11  4  1  0  0  0  0
 12  6  1  0  0  0  0
 13  6  1  0  0  0  0
 16 15  1  0  0  0  0
 17  1  1  0  0  0  0
 17 18  1  0  0  0  0
 18 23  1  0  0  0  0
 19 18  2  0  0  0  0
 19 24  1  0  0  0  0
 20 19  1  0  0  0  0
 21 22  1  0  0  0  0
 21 20  2  0  0  0  0
 22 17  2  0  0  0  0
 25 21  1  0  0  0  0
 26 27  1  0  0  0  0
 26 25  1  0  0  0  0
 28 26  1  0  0  0  0
 29 28  1  0  0  0  0
 30 31  1  0  0  0  0
 30 26  1  0  0  0  0
M  END
>  <minimizedAffinity>
-4.79995775

>  <minimizedRMSD>
0.444406539

$$$$
