
 OpenBabel03272501283D

 37 39  0  0  1  0  0  0  0  0999 V2000
   38.4580   24.8380   35.6200 C   0  0  0  0  0  0  0  0  0  0  0  0
   37.9190   24.4680   36.8630 C   0  0  0  0  0  0  0  0  0  0  0  0
   38.7690   23.5030   37.4170 C   0  0  0  0  0  0  0  0  0  0  0  0
   39.7630   23.3290   36.5130 N   0  0  0  0  0  0  0  0  0  0  0  0
   39.5550   24.1220   35.4740 N   0  0  0  0  0  0  0  0  0  0  0  0
   37.0340   24.7710   37.4290 H   0  0  0  0  0  0  0  0  0  0  0  0
   38.6610   22.9910   38.3750 H   0  0  0  0  0  0  0  0  0  0  0  0
   41.0710   21.6560   35.3820 N   0  0  0  0  0  0  0  0  0  0  0  0
   42.4400   21.1730   35.4850 C   0  0  0  0  0  0  0  0  0  0  0  0
   43.1580   22.0500   36.4850 C   0  0  0  0  0  0  0  0  0  0  0  0
   42.1760   23.2090   36.6660 C   0  0  0  0  0  0  0  0  0  0  0  0
   40.8850   22.4570   36.5870 C   0  0  1  0  0  0  0  0  0  0  0  0
   40.4340   20.8270   35.4610 H   0  0  0  0  0  0  0  0  0  0  0  0
   42.9390   21.3210   34.5050 H   0  0  0  0  0  0  0  0  0  0  0  0
   42.4550   20.1020   35.7910 H   0  0  0  0  0  0  0  0  0  0  0  0
   43.1960   21.5420   37.4530 H   0  0  0  0  0  0  0  0  0  0  0  0
   44.1420   22.3980   36.1130 H   0  0  0  0  0  0  0  0  0  0  0  0
   42.2990   23.7130   37.6370 H   0  0  0  0  0  0  0  0  0  0  0  0
   42.2560   23.9290   35.8230 H   0  0  0  0  0  0  0  0  0  0  0  0
   40.7430   21.6160   37.7570 N   0  0  0  0  0  0  0  0  0  0  0  0
   41.2540   22.0850   38.5570 H   0  0  0  0  0  0  0  0  0  0  0  0
   39.7340   21.5310   38.0150 H   0  0  0  0  0  0  0  0  0  0  0  0
   37.4580   25.5570   33.4500 C   0  0  0  0  0  0  0  0  0  0  0  0
   37.8080   25.8290   34.7880 C   0  0  0  0  0  0  0  0  0  0  0  0
   37.5090   27.0900   35.2930 C   0  0  0  0  0  0  0  0  0  0  0  0
   36.8990   27.9760   34.4650 N   0  0  0  0  0  0  0  0  0  0  0  0
   36.5730   27.6950   33.1900 C   0  0  0  0  0  0  0  0  0  0  0  0
   36.8580   26.4530   32.6610 N   0  0  0  0  0  0  0  0  0  0  0  0
   37.6840   24.5750   33.0360 H   0  0  0  0  0  0  0  0  0  0  0  0
   37.7510   27.3670   36.3150 H   0  0  0  0  0  0  0  0  0  0  0  0
   35.9130   28.6370   32.2700 C   0  0  0  0  0  2  0  0  0  0  0  0
   35.2600   29.6990   33.0040 N   0  0  0  0  0  4  0  0  0  0  0  0
   35.5260   29.6230   34.0210 H   0  0  0  0  0  0  0  0  0  0  0  0
   35.6840   31.0010   32.5720 C   0  0  0  0  0  2  0  0  0  0  0  0
   35.1920   31.3650   31.6480 H   0  0  0  0  0  0  0  0  0  0  0  0
   33.8350   29.5230   32.9050 C   0  0  0  0  0  2  0  0  0  0  0  0
   33.5590   28.6770   33.5880 H   0  0  0  0  0  0  0  0  0  0  0  0
  1  2  1  0  0  0  0
  2  3  2  0  0  0  0
  2  6  1  0  0  0  0
  3  7  1  0  0  0  0
  4 12  1  0  0  0  0
  4  3  1  0  0  0  0
  5  1  2  0  0  0  0
  5  4  1  0  0  0  0
  8 13  1  0  0  0  0
  8  9  1  0  0  0  0
  8 12  1  0  0  0  0
  9 15  1  0  0  0  0
  9 10  1  0  0  0  0
 10 11  1  0  0  0  0
 10 16  1  0  0  0  0
 11 18  1  0  0  0  0
 12 11  1  0  0  0  0
 12 20  1  1  0  0  0
 14  9  1  0  0  0  0
 17 10  1  0  0  0  0
 19 11  1  0  0  0  0
 20 22  1  0  0  0  0
 20 21  1  0  0  0  0
 23 24  1  0  0  0  0
 24 25  2  0  0  0  0
 24  1  1  0  0  0  0
 25 30  1  0  0  0  0
 26 25  1  0  0  0  0
 27 26  2  0  0  0  0
 28 27  1  0  0  0  0
 28 23  2  0  0  0  0
 29 23  1  0  0  0  0
 31 32  1  0  0  0  0
 31 27  1  0  0  0  0
 32 33  1  0  0  0  0
 34 32  1  0  0  0  0
 35 34  1  0  0  0  0
 36 32  1  0  0  0  0
 36 37  1  0  0  0  0
M  END
>  <minimizedAffinity>
-5.04813766

$$$$

 OpenBabel03272501283D

 37 39  0  0  1  0  0  0  0  0999 V2000
   37.4050   26.0480   34.0660 C   0  0  0  0  0  0  0  0  0  0  0  0
   37.8200   25.0810   33.1360 C   0  0  0  0  0  0  0  0  0  0  0  0
   38.2720   23.9710   33.8590 C   0  0  0  0  0  0  0  0  0  0  0  0
   38.1180   24.2970   35.1640 N   0  0  0  0  0  0  0  0  0  0  0  0
   37.6100   25.5170   35.2550 N   0  0  0  0  0  0  0  0  0  0  0  0
   37.8520   25.0400   32.0430 H   0  0  0  0  0  0  0  0  0  0  0  0
   38.6680   23.0330   33.4640 H   0  0  0  0  0  0  0  0  0  0  0  0
   39.8520   23.2410   36.4570 N   0  0  0  0  0  0  0  0  0  0  0  0
   39.9960   22.8230   37.8430 C   0  0  0  0  0  0  0  0  0  0  0  0
   38.7690   23.2940   38.5900 C   0  0  0  0  0  0  0  0  0  0  0  0
   38.1220   24.2500   37.5850 C   0  0  0  0  0  0  0  0  0  0  0  0
   38.4260   23.5190   36.3160 C   0  0  1  0  0  0  0  0  0  0  0  0
   40.0660   22.4120   35.8500 H   0  0  0  0  0  0  0  0  0  0  0  0
   40.8670   23.3540   38.2800 H   0  0  0  0  0  0  0  0  0  0  0  0
   40.1190   21.7190   37.9080 H   0  0  0  0  0  0  0  0  0  0  0  0
   38.0680   22.4620   38.6990 H   0  0  0  0  0  0  0  0  0  0  0  0
   39.0220   23.8050   39.5400 H   0  0  0  0  0  0  0  0  0  0  0  0
   37.0390   24.3570   37.7480 H   0  0  0  0  0  0  0  0  0  0  0  0
   38.6330   25.2370   37.5940 H   0  0  0  0  0  0  0  0  0  0  0  0
   37.6570   22.2940   36.2660 N   0  0  0  0  0  0  0  0  0  0  0  0
   36.7610   22.4520   36.8080 H   0  0  0  0  0  0  0  0  0  0  0  0
   37.4090   22.0680   35.2770 H   0  0  0  0  0  0  0  0  0  0  0  0
   36.3310   28.2480   34.5460 C   0  0  0  0  0  0  0  0  0  0  0  0
   36.8800   27.3250   33.6330 C   0  0  0  0  0  0  0  0  0  0  0  0
   36.9010   27.6790   32.2880 C   0  0  0  0  0  0  0  0  0  0  0  0
   36.3940   28.8910   31.9430 N   0  0  0  0  0  0  0  0  0  0  0  0
   35.8760   29.7570   32.8330 C   0  0  0  0  0  0  0  0  0  0  0  0
   35.8400   29.4330   34.1730 N   0  0  0  0  0  0  0  0  0  0  0  0
   36.3060   27.9890   35.6050 H   0  0  0  0  0  0  0  0  0  0  0  0
   37.3090   27.0160   31.5300 H   0  0  0  0  0  0  0  0  0  0  0  0
   35.3180   31.0760   32.4860 C   0  0  0  0  0  2  0  0  0  0  0  0
   34.2150   30.9400   31.5610 N   0  0  0  0  0  4  0  0  0  0  0  0
   34.4500   30.1890   30.8600 H   0  0  0  0  0  0  0  0  0  0  0  0
   33.0060   30.5220   32.2110 C   0  0  0  0  0  2  0  0  0  0  0  0
   32.4500   31.3320   32.7220 H   0  0  0  0  0  0  0  0  0  0  0  0
   34.0550   32.1780   30.8450 C   0  0  0  0  0  2  0  0  0  0  0  0
   34.8810   32.2310   30.0880 H   0  0  0  0  0  0  0  0  0  0  0  0
  1  5  2  0  0  0  0
  2  3  2  0  0  0  0
  2  1  1  0  0  0  0
  3  4  1  0  0  0  0
  4  5  1  0  0  0  0
  4 12  1  0  0  0  0
  6  2  1  0  0  0  0
  7  3  1  0  0  0  0
  8  9  1  0  0  0  0
  9 15  1  0  0  0  0
  9 14  1  0  0  0  0
  9 10  1  0  0  0  0
 10 16  1  0  0  0  0
 10 17  1  0  0  0  0
 11 19  1  0  0  0  0
 11 18  1  0  0  0  0
 11 10  1  0  0  0  0
 12 20  1  6  0  0  0
 12  8  1  0  0  0  0
 12 11  1  0  0  0  0
 13  8  1  0  0  0  0
 20 21  1  0  0  0  0
 22 20  1  0  0  0  0
 23 29  1  0  0  0  0
 24  1  1  0  0  0  0
 24 23  2  0  0  0  0
 25 24  1  0  0  0  0
 26 25  2  0  0  0  0
 26 27  1  0  0  0  0
 27 28  2  0  0  0  0
 28 23  1  0  0  0  0
 30 25  1  0  0  0  0
 31 27  1  0  0  0  0
 32 34  1  0  0  0  0
 32 31  1  0  0  0  0
 33 32  1  0  0  0  0
 34 35  1  0  0  0  0
 36 32  1  0  0  0  0
 37 36  1  0  0  0  0
M  END
>  <minimizedAffinity>
-4.97992134

$$$$

 OpenBabel03272501283D

 37 39  0  0  1  0  0  0  0  0999 V2000
   37.4830   25.3220   33.4470 C   0  0  0  0  0  0  0  0  0  0  0  0
   37.7630   24.1520   32.7230 C   0  0  0  0  0  0  0  0  0  0  0  0
   38.1600   23.1750   33.6430 C   0  0  0  0  0  0  0  0  0  0  0  0
   38.1080   23.7730   34.8570 N   0  0  0  0  0  0  0  0  0  0  0  0
   37.7090   25.0270   34.7120 N   0  0  0  0  0  0  0  0  0  0  0  0
   37.7300   23.8870   31.6620 H   0  0  0  0  0  0  0  0  0  0  0  0
   38.4540   22.1440   33.4370 H   0  0  0  0  0  0  0  0  0  0  0  0
   39.8290   22.9030   36.2970 N   0  0  0  0  0  0  0  0  0  0  0  0
   39.9950   22.7580   37.7350 C   0  0  0  0  0  0  0  0  0  0  0  0
   38.8130   23.4260   38.3990 C   0  0  0  0  0  0  0  0  0  0  0  0
   38.1810   24.1990   37.2390 C   0  0  0  0  0  0  0  0  0  0  0  0
   38.4140   23.2200   36.1320 C   0  0  1  0  0  0  0  0  0  0  0  0
   39.9870   21.9620   35.8610 H   0  0  0  0  0  0  0  0  0  0  0  0
   40.9020   23.3190   38.0420 H   0  0  0  0  0  0  0  0  0  0  0  0
   40.0690   21.6820   38.0130 H   0  0  0  0  0  0  0  0  0  0  0  0
   38.0790   22.6670   38.6840 H   0  0  0  0  0  0  0  0  0  0  0  0
   39.1180   24.0990   39.2250 H   0  0  0  0  0  0  0  0  0  0  0  0
   37.1090   24.3900   37.4000 H   0  0  0  0  0  0  0  0  0  0  0  0
   38.7360   25.1420   37.0440 H   0  0  0  0  0  0  0  0  0  0  0  0
   37.5890   22.0490   36.3400 N   0  0  0  0  0  0  0  0  0  0  0  0
   36.7170   22.3540   36.8580 H   0  0  0  0  0  0  0  0  0  0  0  0
   37.3020   21.6470   35.4200 H   0  0  0  0  0  0  0  0  0  0  0  0
   36.8030   27.7230   33.4880 C   0  0  0  0  0  0  0  0  0  0  0  0
   37.0420   26.5280   32.7790 C   0  0  0  0  0  0  0  0  0  0  0  0
   36.8400   26.5400   31.4030 C   0  0  0  0  0  0  0  0  0  0  0  0
   36.4260   27.7010   30.8330 N   0  0  0  0  0  0  0  0  0  0  0  0
   36.2040   28.8300   31.5290 C   0  0  0  0  0  0  0  0  0  0  0  0
   36.3960   28.8480   32.8950 N   0  0  0  0  0  0  0  0  0  0  0  0
   36.9570   27.7340   34.5670 H   0  0  0  0  0  0  0  0  0  0  0  0
   37.0040   25.6550   30.7940 H   0  0  0  0  0  0  0  0  0  0  0  0
   35.7550   30.1020   30.9370 C   0  0  0  0  0  2  0  0  0  0  0  0
   36.8790   30.9730   30.6750 N   0  0  0  0  0  4  0  0  0  0  0  0
   37.7550   30.5190   31.0480 H   0  0  0  0  0  0  0  0  0  0  0  0
   37.0960   31.1770   29.2710 C   0  0  0  0  0  2  0  0  0  0  0  0
   36.4310   31.9290   28.8040 H   0  0  0  0  0  0  0  0  0  0  0  0
   36.6850   32.2080   31.3870 C   0  0  0  0  0  2  0  0  0  0  0  0
   36.9010   32.0040   32.4680 H   0  0  0  0  0  0  0  0  0  0  0  0
  1  5  2  0  0  0  0
  2  1  1  0  0  0  0
  2  3  2  0  0  0  0
  3  4  1  0  0  0  0
  4 12  1  0  0  0  0
  5  4  1  0  0  0  0
  6  2  1  0  0  0  0
  7  3  1  0  0  0  0
  8  9  1  0  0  0  0
  9 15  1  0  0  0  0
  9 14  1  0  0  0  0
  9 10  1  0  0  0  0
 10 16  1  0  0  0  0
 10 17  1  0  0  0  0
 11 18  1  0  0  0  0
 11 10  1  0  0  0  0
 12  8  1  0  0  0  0
 12 20  1  1  0  0  0
 12 11  1  0  0  0  0
 13  8  1  0  0  0  0
 19 11  1  0  0  0  0
 20 21  1  0  0  0  0
 22 20  1  0  0  0  0
 23 29  1  0  0  0  0
 24  1  1  0  0  0  0
 24 23  2  0  0  0  0
 25 24  1  0  0  0  0
 26 25  2  0  0  0  0
 26 27  1  0  0  0  0
 27 28  2  0  0  0  0
 28 23  1  0  0  0  0
 30 25  1  0  0  0  0
 31 27  1  0  0  0  0
 32 31  1  0  0  0  0
 32 33  1  0  0  0  0
 32 36  1  0  0  0  0
 34 32  1  0  0  0  0
 35 34  1  0  0  0  0
 36 37  1  0  0  0  0
M  END
>  <minimizedAffinity>
-4.89656639

$$$$

 OpenBabel03272501283D

 37 39  0  0  1  0  0  0  0  0999 V2000
   36.8790   27.3450   34.0540 C   0  0  0  0  0  0  0  0  0  0  0  0
   36.7120   27.6990   32.7060 C   0  0  0  0  0  0  0  0  0  0  0  0
   36.1230   28.9680   32.6760 C   0  0  0  0  0  0  0  0  0  0  0  0
   35.9580   29.3260   33.9720 N   0  0  0  0  0  0  0  0  0  0  0  0
   36.4100   28.3580   34.7550 N   0  0  0  0  0  0  0  0  0  0  0  0
   36.9410   27.2070   31.7560 H   0  0  0  0  0  0  0  0  0  0  0  0
   35.8470   29.5560   31.7980 H   0  0  0  0  0  0  0  0  0  0  0  0
   34.0480   30.3510   35.0170 N   0  0  0  0  0  0  0  0  0  0  0  0
   33.8340   31.5250   35.8480 C   0  0  0  0  0  0  0  0  0  0  0  0
   35.1900   32.1150   36.1610 C   0  0  0  0  0  0  0  0  0  0  0  0
   36.1410   31.0070   35.7050 C   0  0  0  0  0  0  0  0  0  0  0  0
   35.4010   30.5250   34.4970 C   0  0  1  0  0  0  0  0  0  0  0  0
   33.3930   30.4150   34.2000 H   0  0  0  0  0  0  0  0  0  0  0  0
   33.3910   31.1970   36.8120 H   0  0  0  0  0  0  0  0  0  0  0  0
   33.1760   32.2580   35.3280 H   0  0  0  0  0  0  0  0  0  0  0  0
   35.3810   32.9610   35.4940 H   0  0  0  0  0  0  0  0  0  0  0  0
   35.3130   32.3460   37.2370 H   0  0  0  0  0  0  0  0  0  0  0  0
   37.1390   31.3920   35.4480 H   0  0  0  0  0  0  0  0  0  0  0  0
   36.2020   30.2000   36.4670 H   0  0  0  0  0  0  0  0  0  0  0  0
   35.4380   31.5430   33.4690 N   0  0  0  0  0  0  0  0  0  0  0  0
   36.3340   32.0940   33.5900 H   0  0  0  0  0  0  0  0  0  0  0  0
   35.4510   31.0960   32.5250 H   0  0  0  0  0  0  0  0  0  0  0  0
   37.7900   25.7740   35.7660 C   0  0  0  0  0  0  0  0  0  0  0  0
   37.4700   26.0770   34.4270 C   0  0  0  0  0  0  0  0  0  0  0  0
   37.7420   25.1130   33.4630 C   0  0  0  0  0  0  0  0  0  0  0  0
   38.2960   23.9430   33.8730 N   0  0  0  0  0  0  0  0  0  0  0  0
   38.5930   23.6750   35.1580 C   0  0  0  0  0  0  0  0  0  0  0  0
   38.3350   24.6130   36.1370 N   0  0  0  0  0  0  0  0  0  0  0  0
   37.5840   26.5170   36.5370 H   0  0  0  0  0  0  0  0  0  0  0  0
   37.5210   25.2790   32.4120 H   0  0  0  0  0  0  0  0  0  0  0  0
   39.1950   22.4170   35.6300 C   0  0  0  0  0  2  0  0  0  0  0  0
   40.5380   22.6400   36.1170 N   0  0  0  0  0  4  0  0  0  0  0  0
   40.7170   23.6780   36.1580 H   0  0  0  0  0  0  0  0  0  0  0  0
   40.7230   22.1470   37.4530 C   0  0  0  0  0  2  0  0  0  0  0  0
   40.9020   21.0560   37.5220 H   0  0  0  0  0  0  0  0  0  0  0  0
   41.4710   22.0680   35.1840 C   0  0  0  0  0  2  0  0  0  0  0  0
   41.5160   22.7540   34.2990 H   0  0  0  0  0  0  0  0  0  0  0  0
  1 24  1  0  0  0  0
  1  5  2  0  0  0  0
  2  1  1  0  0  0  0
  3  2  2  0  0  0  0
  3  4  1  0  0  0  0
  4 12  1  0  0  0  0
  4  5  1  0  0  0  0
  6  2  1  0  0  0  0
  7  3  1  0  0  0  0
  8  9  1  0  0  0  0
  9 10  1  0  0  0  0
  9 14  1  0  0  0  0
 10 17  1  0  0  0  0
 11 10  1  0  0  0  0
 11 19  1  0  0  0  0
 12 20  1  6  0  0  0
 12  8  1  0  0  0  0
 12 11  1  0  0  0  0
 13  8  1  0  0  0  0
 15  9  1  0  0  0  0
 16 10  1  0  0  0  0
 18 11  1  0  0  0  0
 20 21  1  0  0  0  0
 22 20  1  0  0  0  0
 23 28  1  0  0  0  0
 23 29  1  0  0  0  0
 24 23  2  0  0  0  0
 25 26  2  0  0  0  0
 25 24  1  0  0  0  0
 26 27  1  0  0  0  0
 27 31  1  0  0  0  0
 27 28  2  0  0  0  0
 30 25  1  0  0  0  0
 31 32  1  0  0  0  0
 32 33  1  0  0  0  0
 32 34  1  0  0  0  0
 34 35  1  0  0  0  0
 36 32  1  0  0  0  0
 37 36  1  0  0  0  0
M  END
>  <minimizedAffinity>
-4.83909416

$$$$

 OpenBabel03272501283D

 37 39  0  0  1  0  0  0  0  0999 V2000
   37.1360   27.3490   33.0020 C   0  0  0  0  0  0  0  0  0  0  0  0
   37.8360   27.5890   31.8090 C   0  0  0  0  0  0  0  0  0  0  0  0
   37.2740   28.7250   31.2150 C   0  0  0  0  0  0  0  0  0  0  0  0
   36.2820   29.1200   32.0470 N   0  0  0  0  0  0  0  0  0  0  0  0
   36.2240   28.2970   33.0830 N   0  0  0  0  0  0  0  0  0  0  0  0
   38.6700   27.0930   31.3030 H   0  0  0  0  0  0  0  0  0  0  0  0
   37.5660   29.2010   30.2760 H   0  0  0  0  0  0  0  0  0  0  0  0
   34.0330   29.9260   32.3360 N   0  0  0  0  0  0  0  0  0  0  0  0
   33.4200   31.2350   32.5080 C   0  0  0  0  0  0  0  0  0  0  0  0
   34.5360   32.2480   32.6240 C   0  0  0  0  0  0  0  0  0  0  0  0
   35.7660   31.3580   32.8140 C   0  0  0  0  0  0  0  0  0  0  0  0
   35.3960   30.2260   31.9100 C   0  0  1  0  0  0  0  0  0  0  0  0
   33.5540   29.4540   31.5300 H   0  0  0  0  0  0  0  0  0  0  0  0
   32.8720   31.2410   33.4740 H   0  0  0  0  0  0  0  0  0  0  0  0
   32.7420   31.4650   31.6550 H   0  0  0  0  0  0  0  0  0  0  0  0
   34.6770   32.7450   31.6600 H   0  0  0  0  0  0  0  0  0  0  0  0
   34.3920   32.9390   33.4780 H   0  0  0  0  0  0  0  0  0  0  0  0
   36.6940   31.8550   32.4920 H   0  0  0  0  0  0  0  0  0  0  0  0
   35.8390   31.0040   33.8660 H   0  0  0  0  0  0  0  0  0  0  0  0
   35.4260   30.6760   30.5340 N   0  0  0  0  0  0  0  0  0  0  0  0
   36.1470   31.4470   30.4610 H   0  0  0  0  0  0  0  0  0  0  0  0
   35.7180   29.8910   29.9080 H   0  0  0  0  0  0  0  0  0  0  0  0
   37.8760   24.9890   33.3310 C   0  0  0  0  0  0  0  0  0  0  0  0
   37.4790   26.2340   33.8590 C   0  0  0  0  0  0  0  0  0  0  0  0
   37.4240   26.3630   35.2430 C   0  0  0  0  0  0  0  0  0  0  0  0
   37.7580   25.2820   35.9940 N   0  0  0  0  0  0  0  0  0  0  0  0
   38.1350   24.1020   35.4680 C   0  0  0  0  0  0  0  0  0  0  0  0
   38.1980   23.9450   34.0990 N   0  0  0  0  0  0  0  0  0  0  0  0
   37.9260   24.8690   32.2490 H   0  0  0  0  0  0  0  0  0  0  0  0
   37.1260   27.2930   35.7180 H   0  0  0  0  0  0  0  0  0  0  0  0
   38.5010   22.9150   36.2580 C   0  0  0  0  0  2  0  0  0  0  0  0
   39.3810   23.2730   37.3480 N   0  0  0  0  0  4  0  0  0  0  0  0
   39.7620   24.2400   37.1730 H   0  0  0  0  0  0  0  0  0  0  0  0
   38.6940   23.3320   38.6080 C   0  0  0  0  0  2  0  0  0  0  0  0
   38.5300   22.3500   39.0910 H   0  0  0  0  0  0  0  0  0  0  0  0
   40.4910   22.3580   37.3680 C   0  0  0  0  0  2  0  0  0  0  0  0
   41.1710   22.6450   36.5250 H   0  0  0  0  0  0  0  0  0  0  0  0
  1  5  2  0  0  0  0
  1 24  1  0  0  0  0
  2  1  1  0  0  0  0
  3  2  2  0  0  0  0
  3  4  1  0  0  0  0
  4  5  1  0  0  0  0
  6  2  1  0  0  0  0
  7  3  1  0  0  0  0
  8  9  1  0  0  0  0
  9 10  1  0  0  0  0
  9 14  1  0  0  0  0
 10 11  1  0  0  0  0
 10 17  1  0  0  0  0
 11 19  1  0  0  0  0
 12 20  1  6  0  0  0
 12  4  1  0  0  0  0
 12  8  1  0  0  0  0
 12 11  1  0  0  0  0
 13  8  1  0  0  0  0
 15  9  1  0  0  0  0
 16 10  1  0  0  0  0
 18 11  1  0  0  0  0
 21 20  1  0  0  0  0
 22 20  1  0  0  0  0
 23 24  2  0  0  0  0
 23 28  1  0  0  0  0
 24 25  1  0  0  0  0
 25 30  1  0  0  0  0
 25 26  2  0  0  0  0
 27 26  1  0  0  0  0
 27 31  1  0  0  0  0
 28 27  2  0  0  0  0
 29 23  1  0  0  0  0
 31 32  1  0  0  0  0
 32 36  1  0  0  0  0
 32 34  1  0  0  0  0
 33 32  1  0  0  0  0
 34 35  1  0  0  0  0
 37 36  1  0  0  0  0
M  END
>  <minimizedAffinity>
-4.78199911

$$$$

 OpenBabel03272501283D

 37 39  0  0  1  0  0  0  0  0999 V2000
   35.9900   28.3810   32.6190 C   0  0  0  0  0  0  0  0  0  0  0  0
   36.2570   29.3940   31.6840 C   0  0  0  0  0  0  0  0  0  0  0  0
   35.9330   30.6150   32.2850 C   0  0  0  0  0  0  0  0  0  0  0  0
   35.4930   30.3060   33.5280 N   0  0  0  0  0  0  0  0  0  0  0  0
   35.5380   28.9930   33.6950 N   0  0  0  0  0  0  0  0  0  0  0  0
   36.6400   29.4010   30.6590 H   0  0  0  0  0  0  0  0  0  0  0  0
   36.0130   31.6140   31.8510 H   0  0  0  0  0  0  0  0  0  0  0  0
   33.8070   30.7310   35.1910 N   0  0  0  0  0  0  0  0  0  0  0  0
   33.7460   31.4990   36.4260 C   0  0  0  0  0  0  0  0  0  0  0  0
   35.1340   32.0300   36.7000 C   0  0  0  0  0  0  0  0  0  0  0  0
   35.9880   31.2390   35.7060 C   0  0  0  0  0  0  0  0  0  0  0  0
   35.0390   31.1830   34.5520 C   0  0  1  0  0  0  0  0  0  0  0  0
   33.0110   31.0430   34.5820 H   0  0  0  0  0  0  0  0  0  0  0  0
   33.4910   30.8070   37.2560 H   0  0  0  0  0  0  0  0  0  0  0  0
   33.0000   32.3210   36.3390 H   0  0  0  0  0  0  0  0  0  0  0  0
   35.1950   33.0730   36.3770 H   0  0  0  0  0  0  0  0  0  0  0  0
   35.4540   31.8570   37.7470 H   0  0  0  0  0  0  0  0  0  0  0  0
   36.9200   31.7650   35.4470 H   0  0  0  0  0  0  0  0  0  0  0  0
   36.1930   30.2160   36.0880 H   0  0  0  0  0  0  0  0  0  0  0  0
   34.8800   32.5080   33.9900 N   0  0  0  0  0  0  0  0  0  0  0  0
   35.7810   33.0390   34.1550 H   0  0  0  0  0  0  0  0  0  0  0  0
   34.7190   32.4420   32.9600 H   0  0  0  0  0  0  0  0  0  0  0  0
   37.0850   26.1850   33.0760 C   0  0  0  0  0  0  0  0  0  0  0  0
   36.2230   26.9880   32.3010 C   0  0  0  0  0  0  0  0  0  0  0  0
   35.5970   26.3980   31.2090 C   0  0  0  0  0  0  0  0  0  0  0  0
   35.8550   25.0880   30.9610 N   0  0  0  0  0  0  0  0  0  0  0  0
   36.6810   24.3400   31.7150 C   0  0  0  0  0  0  0  0  0  0  0  0
   37.3170   24.8990   32.8050 N   0  0  0  0  0  0  0  0  0  0  0  0
   37.5850   26.6290   33.9370 H   0  0  0  0  0  0  0  0  0  0  0  0
   34.9210   26.9570   30.5680 H   0  0  0  0  0  0  0  0  0  0  0  0
   36.9790   22.9190   31.4680 C   0  0  0  0  0  2  0  0  0  0  0  0
   36.5410   22.1010   32.5780 N   0  0  0  0  0  4  0  0  0  0  0  0
   36.4280   22.7150   33.4280 H   0  0  0  0  0  0  0  0  0  0  0  0
   35.2600   21.5000   32.3400 C   0  0  0  0  0  2  0  0  0  0  0  0
   35.2860   20.5910   31.7070 H   0  0  0  0  0  0  0  0  0  0  0  0
   37.5610   21.1290   32.8690 C   0  0  0  0  0  2  0  0  0  0  0  0
   38.3900   21.6680   33.3970 H   0  0  0  0  0  0  0  0  0  0  0  0
  1  5  2  0  0  0  0
  2  3  2  0  0  0  0
  2  1  1  0  0  0  0
  3  4  1  0  0  0  0
  4  5  1  0  0  0  0
  4 12  1  0  0  0  0
  6  2  1  0  0  0  0
  7  3  1  0  0  0  0
  8  9  1  0  0  0  0
  9 10  1  0  0  0  0
  9 14  1  0  0  0  0
 10 17  1  0  0  0  0
 11 19  1  0  0  0  0
 11 10  1  0  0  0  0
 12 20  1  6  0  0  0
 12  8  1  0  0  0  0
 12 11  1  0  0  0  0
 13  8  1  0  0  0  0
 15  9  1  0  0  0  0
 16 10  1  0  0  0  0
 18 11  1  0  0  0  0
 20 21  1  0  0  0  0
 22 20  1  0  0  0  0
 23 29  1  0  0  0  0
 24  1  1  0  0  0  0
 24 23  2  0  0  0  0
 25 24  1  0  0  0  0
 26 25  2  0  0  0  0
 26 27  1  0  0  0  0
 27 28  2  0  0  0  0
 28 23  1  0  0  0  0
 30 25  1  0  0  0  0
 31 27  1  0  0  0  0
 31 32  1  0  0  0  0
 32 36  1  0  0  0  0
 32 33  1  0  0  0  0
 34 32  1  0  0  0  0
 35 34  1  0  0  0  0
 36 37  1  0  0  0  0
M  END
>  <minimizedAffinity>
-4.78075266

$$$$

 OpenBabel03272501283D

 37 39  0  0  1  0  0  0  0  0999 V2000
   36.3310   28.3420   34.0430 C   0  0  0  0  0  0  0  0  0  0  0  0
   35.8710   28.8040   32.7990 C   0  0  0  0  0  0  0  0  0  0  0  0
   35.2020   30.0130   33.0230 C   0  0  0  0  0  0  0  0  0  0  0  0
   35.2790   30.2320   34.3570 N   0  0  0  0  0  0  0  0  0  0  0  0
   35.9440   29.2390   34.9270 N   0  0  0  0  0  0  0  0  0  0  0  0
   35.9360   28.4240   31.7750 H   0  0  0  0  0  0  0  0  0  0  0  0
   34.7150   30.6530   32.2840 H   0  0  0  0  0  0  0  0  0  0  0  0
   33.5890   30.9660   35.9060 N   0  0  0  0  0  0  0  0  0  0  0  0
   33.4750   32.0480   36.8720 C   0  0  0  0  0  0  0  0  0  0  0  0
   34.8090   32.7570   36.9190 C   0  0  0  0  0  0  0  0  0  0  0  0
   35.7180   31.7940   36.1540 C   0  0  0  0  0  0  0  0  0  0  0  0
   34.7580   31.3230   35.1090 C   0  0  1  0  0  0  0  0  0  0  0  0
   32.7550   31.0170   35.2710 H   0  0  0  0  0  0  0  0  0  0  0  0
   33.3050   31.6040   37.8750 H   0  0  0  0  0  0  0  0  0  0  0  0
   32.6500   32.7400   36.5890 H   0  0  0  0  0  0  0  0  0  0  0  0
   34.7600   33.6640   36.3100 H   0  0  0  0  0  0  0  0  0  0  0  0
   35.1630   32.9220   37.9560 H   0  0  0  0  0  0  0  0  0  0  0  0
   36.5890   32.3030   35.7130 H   0  0  0  0  0  0  0  0  0  0  0  0
   36.0300   30.9460   36.8020 H   0  0  0  0  0  0  0  0  0  0  0  0
   34.4590   32.4100   34.2000 N   0  0  0  0  0  0  0  0  0  0  0  0
   35.3060   33.0440   34.1650 H   0  0  0  0  0  0  0  0  0  0  0  0
   34.2870   32.0360   33.2400 H   0  0  0  0  0  0  0  0  0  0  0  0
   37.7730   26.7610   35.3270 C   0  0  0  0  0  0  0  0  0  0  0  0
   37.0710   27.1020   34.1530 C   0  0  0  0  0  0  0  0  0  0  0  0
   37.1100   26.2050   33.0920 C   0  0  0  0  0  0  0  0  0  0  0  0
   37.8200   25.0590   33.2550 N   0  0  0  0  0  0  0  0  0  0  0  0
   38.4820   24.7530   34.3860 C   0  0  0  0  0  0  0  0  0  0  0  0
   38.4620   25.6240   35.4550 N   0  0  0  0  0  0  0  0  0  0  0  0
   37.7540   27.4510   36.1710 H   0  0  0  0  0  0  0  0  0  0  0  0
   36.5920   26.4050   32.1570 H   0  0  0  0  0  0  0  0  0  0  0  0
   39.2600   23.5190   34.5890 C   0  0  0  0  0  2  0  0  0  0  0  0
   38.8670   22.8600   35.8140 N   0  0  0  0  0  4  0  0  0  0  0  0
   38.6010   23.5920   36.5250 H   0  0  0  0  0  0  0  0  0  0  0  0
   37.7100   22.0280   35.6390 C   0  0  0  0  0  2  0  0  0  0  0  0
   37.9160   21.0350   35.1950 H   0  0  0  0  0  0  0  0  0  0  0  0
   39.9950   22.1320   36.3320 C   0  0  0  0  0  2  0  0  0  0  0  0
   40.6940   22.8830   36.7830 H   0  0  0  0  0  0  0  0  0  0  0  0
  1 24  1  0  0  0  0
  1  5  2  0  0  0  0
  2  3  2  0  0  0  0
  2  1  1  0  0  0  0
  3  4  1  0  0  0  0
  4  5  1  0  0  0  0
  4 12  1  0  0  0  0
  6  2  1  0  0  0  0
  7  3  1  0  0  0  0
  8  9  1  0  0  0  0
  9 10  1  0  0  0  0
  9 14  1  0  0  0  0
 10 17  1  0  0  0  0
 11 19  1  0  0  0  0
 11 10  1  0  0  0  0
 12 20  1  6  0  0  0
 12  8  1  0  0  0  0
 12 11  1  0  0  0  0
 13  8  1  0  0  0  0
 15  9  1  0  0  0  0
 16 10  1  0  0  0  0
 18 11  1  0  0  0  0
 21 20  1  0  0  0  0
 22 20  1  0  0  0  0
 23 28  1  0  0  0  0
 23 29  1  0  0  0  0
 24 23  2  0  0  0  0
 25 26  2  0  0  0  0
 25 24  1  0  0  0  0
 26 27  1  0  0  0  0
 27 31  1  0  0  0  0
 27 28  2  0  0  0  0
 30 25  1  0  0  0  0
 31 32  1  0  0  0  0
 32 36  1  0  0  0  0
 32 33  1  0  0  0  0
 34 32  1  0  0  0  0
 35 34  1  0  0  0  0
 36 37  1  0  0  0  0
M  END
>  <minimizedAffinity>
-4.7238884

$$$$

 OpenBabel03272501283D

 37 39  0  0  1  0  0  0  0  0999 V2000
   36.3670   26.8790   31.6360 C   0  0  0  0  0  0  0  0  0  0  0  0
   37.4810   27.5850   31.1530 C   0  0  0  0  0  0  0  0  0  0  0  0
   37.1550   28.9460   31.1770 C   0  0  0  0  0  0  0  0  0  0  0  0
   35.8920   29.0120   31.6600 N   0  0  0  0  0  0  0  0  0  0  0  0
   35.4570   27.7890   31.9200 N   0  0  0  0  0  0  0  0  0  0  0  0
   38.4710   27.2910   30.7920 H   0  0  0  0  0  0  0  0  0  0  0  0
   37.7810   29.7880   30.8710 H   0  0  0  0  0  0  0  0  0  0  0  0
   33.7950   29.8540   32.4890 N   0  0  0  0  0  0  0  0  0  0  0  0
   33.3270   31.1330   33.0010 C   0  0  0  0  0  0  0  0  0  0  0  0
   34.5240   32.0520   33.0940 C   0  0  0  0  0  0  0  0  0  0  0  0
   35.6930   31.0840   32.8970 C   0  0  0  0  0  0  0  0  0  0  0  0
   35.0870   30.1640   31.8850 C   0  0  1  0  0  0  0  0  0  0  0  0
   33.1520   29.5670   31.7110 H   0  0  0  0  0  0  0  0  0  0  0  0
   32.9520   30.9810   34.0340 H   0  0  0  0  0  0  0  0  0  0  0  0
   32.5360   31.5540   32.3390 H   0  0  0  0  0  0  0  0  0  0  0  0
   34.5410   32.7160   32.2250 H   0  0  0  0  0  0  0  0  0  0  0  0
   34.5810   32.5730   34.0690 H   0  0  0  0  0  0  0  0  0  0  0  0
   36.5910   31.5890   32.5070 H   0  0  0  0  0  0  0  0  0  0  0  0
   35.9130   30.5340   33.8370 H   0  0  0  0  0  0  0  0  0  0  0  0
   34.9220   30.8660   30.6300 N   0  0  0  0  0  0  0  0  0  0  0  0
   35.6800   31.6030   30.5680 H   0  0  0  0  0  0  0  0  0  0  0  0
   35.0410   30.2030   29.8310 H   0  0  0  0  0  0  0  0  0  0  0  0
   37.3570   24.7580   32.5010 C   0  0  0  0  0  0  0  0  0  0  0  0
   36.3840   25.4350   31.7380 C   0  0  0  0  0  0  0  0  0  0  0  0
   35.4310   24.6680   31.0770 C   0  0  0  0  0  0  0  0  0  0  0  0
   35.4980   23.3180   31.2100 N   0  0  0  0  0  0  0  0  0  0  0  0
   36.4360   22.6930   31.9450 C   0  0  0  0  0  0  0  0  0  0  0  0
   37.3950   23.4270   32.6120 N   0  0  0  0  0  0  0  0  0  0  0  0
   38.1120   25.3410   33.0280 H   0  0  0  0  0  0  0  0  0  0  0  0
   34.6520   25.1240   30.4710 H   0  0  0  0  0  0  0  0  0  0  0  0
   36.5320   21.2320   32.1060 C   0  0  0  0  0  2  0  0  0  0  0  0
   35.3330   20.7010   32.7170 N   0  0  0  0  0  4  0  0  0  0  0  0
   34.5540   21.4010   32.5990 H   0  0  0  0  0  0  0  0  0  0  0  0
   34.8890   19.4920   32.0840 C   0  0  0  0  0  2  0  0  0  0  0  0
   35.4290   18.5780   32.4000 H   0  0  0  0  0  0  0  0  0  0  0  0
   35.5660   20.5320   34.1260 C   0  0  0  0  0  2  0  0  0  0  0  0
   35.5330   21.5520   34.5910 H   0  0  0  0  0  0  0  0  0  0  0  0
  1 24  1  0  0  0  0
  1  5  2  0  0  0  0
  2  3  2  0  0  0  0
  2  1  1  0  0  0  0
  3  4  1  0  0  0  0
  4 12  1  0  0  0  0
  4  5  1  0  0  0  0
  6  2  1  0  0  0  0
  7  3  1  0  0  0  0
  8  9  1  0  0  0  0
  9 10  1  0  0  0  0
  9 14  1  0  0  0  0
 10 17  1  0  0  0  0
 11 10  1  0  0  0  0
 11 19  1  0  0  0  0
 12 20  1  6  0  0  0
 12  8  1  0  0  0  0
 12 11  1  0  0  0  0
 13  8  1  0  0  0  0
 15  9  1  0  0  0  0
 16 10  1  0  0  0  0
 18 11  1  0  0  0  0
 21 20  1  0  0  0  0
 22 20  1  0  0  0  0
 23 28  1  0  0  0  0
 23 29  1  0  0  0  0
 24 23  2  0  0  0  0
 25 26  2  0  0  0  0
 25 24  1  0  0  0  0
 26 27  1  0  0  0  0
 27 31  1  0  0  0  0
 27 28  2  0  0  0  0
 30 25  1  0  0  0  0
 31 32  1  0  0  0  0
 32 36  1  0  0  0  0
 33 32  1  0  0  0  0
 34 35  1  0  0  0  0
 34 32  1  0  0  0  0
 36 37  1  0  0  0  0
M  END
>  <minimizedAffinity>
-4.66419363

$$$$

 OpenBabel03272501283D

 37 39  0  0  1  0  0  0  0  0999 V2000
   36.1480   28.3670   32.8710 C   0  0  0  0  0  0  0  0  0  0  0  0
   36.6020   28.7700   31.6040 C   0  0  0  0  0  0  0  0  0  0  0  0
   35.6800   29.6950   31.1030 C   0  0  0  0  0  0  0  0  0  0  0  0
   34.7270   29.8160   32.0570 N   0  0  0  0  0  0  0  0  0  0  0  0
   35.0260   29.0280   33.0790 N   0  0  0  0  0  0  0  0  0  0  0  0
   37.4720   28.5140   30.9920 H   0  0  0  0  0  0  0  0  0  0  0  0
   35.7120   30.2160   30.1440 H   0  0  0  0  0  0  0  0  0  0  0  0
   32.3340   29.8830   32.3090 N   0  0  0  0  0  0  0  0  0  0  0  0
   31.3620   30.9070   32.6600 C   0  0  0  0  0  0  0  0  0  0  0  0
   32.1310   32.1530   33.0370 C   0  0  0  0  0  0  0  0  0  0  0  0
   33.5630   31.6280   33.1620 C   0  0  0  0  0  0  0  0  0  0  0  0
   33.5600   30.6310   32.0480 C   0  0  1  0  0  0  0  0  0  0  0  0
   32.0330   29.4570   31.3990 H   0  0  0  0  0  0  0  0  0  0  0  0
   30.8150   30.5750   33.5670 H   0  0  0  0  0  0  0  0  0  0  0  0
   30.6670   31.0940   31.8110 H   0  0  0  0  0  0  0  0  0  0  0  0
   32.1430   32.8440   32.1890 H   0  0  0  0  0  0  0  0  0  0  0  0
   31.7720   32.6000   33.9850 H   0  0  0  0  0  0  0  0  0  0  0  0
   34.3120   32.4190   33.0050 H   0  0  0  0  0  0  0  0  0  0  0  0
   33.7120   31.1160   34.1380 H   0  0  0  0  0  0  0  0  0  0  0  0
   33.4890   31.3240   30.7790 N   0  0  0  0  0  0  0  0  0  0  0  0
   33.9550   32.2670   30.8980 H   0  0  0  0  0  0  0  0  0  0  0  0
   34.0120   30.7880   30.0500 H   0  0  0  0  0  0  0  0  0  0  0  0
   37.2280   26.1360   33.1530 C   0  0  0  0  0  0  0  0  0  0  0  0
   36.8880   27.4060   33.6610 C   0  0  0  0  0  0  0  0  0  0  0  0
   37.2870   27.7130   34.9570 C   0  0  0  0  0  0  0  0  0  0  0  0
   37.9780   26.7710   35.6480 N   0  0  0  0  0  0  0  0  0  0  0  0
   38.2930   25.5640   35.1420 C   0  0  0  0  0  0  0  0  0  0  0  0
   37.9100   25.2310   33.8600 N   0  0  0  0  0  0  0  0  0  0  0  0
   36.9250   25.8760   32.1380 H   0  0  0  0  0  0  0  0  0  0  0  0
   37.0580   28.6730   35.4110 H   0  0  0  0  0  0  0  0  0  0  0  0
   39.0400   24.5240   35.8700 C   0  0  0  0  0  2  0  0  0  0  0  0
   38.2900   23.2890   35.9160 N   0  0  0  0  0  4  0  0  0  0  0  0
   37.6670   23.2370   35.0670 H   0  0  0  0  0  0  0  0  0  0  0  0
   39.1390   22.1330   35.8650 C   0  0  0  0  0  2  0  0  0  0  0  0
   39.6080   21.8600   36.8310 H   0  0  0  0  0  0  0  0  0  0  0  0
   37.4460   23.3020   37.0810 C   0  0  0  0  0  2  0  0  0  0  0  0
   36.5890   23.9910   36.8610 H   0  0  0  0  0  0  0  0  0  0  0  0
  1  5  2  0  0  0  0
  1 24  1  0  0  0  0
  2  1  1  0  0  0  0
  3  2  2  0  0  0  0
  3  4  1  0  0  0  0
  4  5  1  0  0  0  0
  6  2  1  0  0  0  0
  7  3  1  0  0  0  0
  8  9  1  0  0  0  0
  9 10  1  0  0  0  0
  9 14  1  0  0  0  0
 10 11  1  0  0  0  0
 10 17  1  0  0  0  0
 11 19  1  0  0  0  0
 12 20  1  6  0  0  0
 12  4  1  0  0  0  0
 12  8  1  0  0  0  0
 12 11  1  0  0  0  0
 13  8  1  0  0  0  0
 15  9  1  0  0  0  0
 16 10  1  0  0  0  0
 18 11  1  0  0  0  0
 20 21  1  0  0  0  0
 22 20  1  0  0  0  0
 23 24  2  0  0  0  0
 23 28  1  0  0  0  0
 24 25  1  0  0  0  0
 25 30  1  0  0  0  0
 25 26  2  0  0  0  0
 27 26  1  0  0  0  0
 27 31  1  0  0  0  0
 28 27  2  0  0  0  0
 29 23  1  0  0  0  0
 31 32  1  0  0  0  0
 32 36  1  0  0  0  0
 33 32  1  0  0  0  0
 34 32  1  0  0  0  0
 34 35  1  0  0  0  0
 37 36  1  0  0  0  0
M  END
>  <minimizedAffinity>
-4.61412859

$$$$
