
 OpenBabel03272509373D

 28 29  0  0  0  0  0  0  0  0999 V2000
   36.1900   29.8510   48.7780 C   0  0  0  0  0  0  0  0  0  0  0  0
   36.2580   29.8760   50.1720 C   0  0  0  0  0  0  0  0  0  0  0  0
   37.2480   30.5850   50.8570 C   0  0  0  0  0  0  0  0  0  0  0  0
   38.1970   31.2870   50.0930 C   0  0  0  0  0  0  0  0  0  0  0  0
   38.1100   31.2480   48.7220 C   0  0  0  0  0  0  0  0  0  0  0  0
   37.1280   30.5480   48.0380 C   0  0  0  0  0  0  0  0  0  0  0  0
   35.5070   29.3180   50.7440 H   0  0  0  0  0  0  0  0  0  0  0  0
   37.2270   30.5480   51.9190 H   0  0  0  0  0  0  0  0  0  0  0  0
   38.9110   31.7930   50.7240 H   0  0  0  0  0  0  0  0  0  0  0  0
   38.9280   31.8330   48.3270 H   0  0  0  0  0  0  0  0  0  0  0  0
   35.1270   29.0590   48.1760 C   0  0  0  0  0  0  0  0  0  0  0  0
   34.8910   27.9460   48.7710 O   0  0  0  0  0  0  0  0  0  0  0  0
   32.7920   30.9870   46.1920 C   0  0  0  0  0  0  0  0  0  0  0  0
   32.8250   30.3640   44.9310 C   0  0  0  0  0  0  0  0  0  0  0  0
   33.6570   29.2570   44.7620 C   0  0  0  0  0  0  0  0  0  0  0  0
   34.4110   28.8060   45.8100 N   0  0  0  0  0  0  0  0  0  0  0  0
   34.3510   29.4300   46.9990 C   0  0  0  0  0  0  0  0  0  0  0  0
   33.5550   30.4830   47.1450 N   0  0  0  0  0  0  0  0  0  0  0  0
   32.1360   31.8320   46.2580 H   0  0  0  0  0  0  0  0  0  0  0  0
   32.2700   30.6470   44.0470 H   0  0  0  0  0  0  0  0  0  0  0  0
   33.7680   28.6910   43.8400 H   0  0  0  0  0  0  0  0  0  0  0  0
   37.1250   30.6070   46.5890 C   0  0  0  0  0  2  0  0  0  0  0  0
   38.2970   31.3010   46.0220 N   0  0  0  0  0  4  0  0  0  0  0  0
   38.9890   31.5740   46.7220 H   0  0  0  0  0  0  0  0  0  0  0  0
   38.9480   30.2340   45.2280 C   0  0  0  0  0  2  0  0  0  0  0  0
   38.4180   30.2130   44.2290 H   0  0  0  0  0  0  0  0  0  0  0  0
   37.9470   32.3060   45.0600 C   0  0  0  0  0  2  0  0  0  0  0  0
   38.6650   33.1720   45.1920 H   0  0  0  0  0  0  0  0  0  0  0  0
  1  2  1  0  0  0  0
  2  7  1  0  0  0  0
  2  3  2  0  0  0  0
  3  8  1  0  0  0  0
  4  9  1  0  0  0  0
  4  3  1  0  0  0  0
  5  4  2  0  0  0  0
  6  5  1  0  0  0  0
  6  1  2  0  0  0  0
 10  5  1  0  0  0  0
 11 12  2  0  0  0  0
 11  1  1  0  0  0  0
 13 19  1  0  0  0  0
 13 18  1  0  0  0  0
 14 13  2  0  0  0  0
 15 14  1  0  0  0  0
 15 16  2  0  0  0  0
 16 17  1  0  0  0  0
 17 18  2  0  0  0  0
 17 11  1  0  0  0  0
 20 14  1  0  0  0  0
 21 15  1  0  0  0  0
 22  6  1  0  0  0  0
 23 22  1  0  0  0  0
 23 24  1  0  0  0  0
 25 23  1  0  0  0  0
 26 25  1  0  0  0  0
 27 28  1  0  0  0  0
 27 23  1  0  0  0  0
M  END
>  <minimizedAffinity>
-4.85056067

>  <minimizedRMSD>
0.770971954

$$$$
