
 OpenBabel03262521543D

 37 38  0  0  1  0  0  0  0  0999 V2000
   33.2580   27.2110   48.4630 C   0  0  1  0  0  0  0  0  0  0  0  0
   33.7430   28.6180   48.7730 C   0  0  2  0  0  0  0  0  0  0  0  0
   33.4770   29.4660   47.5810 C   0  0  0  0  0  0  0  0  0  0  0  0
   32.8810   28.7930   46.5370 O   0  0  0  0  0  0  0  0  0  0  0  0
   31.6650   28.2190   46.9170 C   0  0  0  0  0  0  0  0  0  0  0  0
   31.7970   27.3300   48.1270 C   0  0  2  0  0  0  0  0  0  0  0  0
   33.4720   26.6160   49.3630 H   0  0  0  0  0  0  0  0  0  0  0  0
   33.1040   28.9940   49.6110 H   0  0  0  0  0  0  0  0  0  0  0  0
   34.4090   29.9340   47.1750 H   0  0  0  0  0  0  0  0  0  0  0  0
   32.8010   30.3390   47.8200 H   0  0  0  0  0  0  0  0  0  0  0  0
   31.3450   27.6210   46.0370 H   0  0  0  0  0  0  0  0  0  0  0  0
   30.8640   28.9900   47.0350 H   0  0  0  0  0  0  0  0  0  0  0  0
   31.2880   26.3850   47.9230 H   0  0  0  0  0  0  0  0  0  0  0  0
   33.8950   26.7100   47.3360 O   0  0  0  0  0  0  0  0  0  0  0  0
   34.8640   26.6430   47.5630 H   0  0  0  0  0  0  0  0  0  0  0  0
   35.4880   28.6500   49.2260 S   0  0  0  0  0  0  0  0  0  0  0  0
   35.7660   29.7370   50.6330 C   0  0  0  0  0  0  0  0  0  0  0  0
   35.3490   29.2420   51.5330 H   0  0  0  0  0  0  0  0  0  0  0  0
   35.1210   30.6490   50.4750 H   0  0  0  0  0  0  0  0  0  0  0  0
   37.4690   30.2100   50.8780 S   0  0  0  0  0  0  0  0  0  0  0  0
   38.0480   31.0870   49.4480 C   0  0  0  0  0  0  0  0  0  0  0  0
   38.4000   32.4050   49.6850 C   0  0  0  0  0  0  0  0  0  0  0  0
   38.8700   33.1670   48.5880 C   0  0  0  0  0  0  0  0  0  0  0  0
   38.9490   32.5600   47.3690 N   0  0  0  0  0  0  0  0  0  0  0  0
   38.5880   31.2710   47.2170 C   0  0  0  0  0  0  0  0  0  0  0  0
   38.1470   30.5440   48.2250 N   0  0  0  0  0  0  0  0  0  0  0  0
   38.3550   32.9290   50.6360 H   0  0  0  0  0  0  0  0  0  0  0  0
   39.1550   34.1920   48.7210 H   0  0  0  0  0  0  0  0  0  0  0  0
   38.6710   30.8380   46.2200 H   0  0  0  0  0  0  0  0  0  0  0  0
   31.2020   27.9620   49.2350 O   0  0  0  0  0  0  0  0  0  0  0  0
   29.9670   27.4230   49.5330 C   0  0  0  0  0  0  0  0  0  0  0  0
   29.1780   28.1480   50.4710 N   0  0  0  0  0  0  0  0  0  0  0  0
   29.6960   28.6680   51.1970 H   0  0  0  0  0  0  0  0  0  0  0  0
   28.2770   29.1160   49.8590 C   0  0  0  0  0  0  0  0  0  0  0  0
   28.7400   29.6080   48.9990 H   0  0  0  0  0  0  0  0  0  0  0  0
   28.3420   27.1680   51.1680 C   0  0  0  0  0  0  0  0  0  0  0  0
   27.2490   27.3890   51.0350 H   0  0  0  0  0  0  0  0  0  0  0  0
  1  2  1  0  0  0  0
  1  7  1  1  0  0  0
  2 16  1  0  0  0  0
  2  8  1  1  0  0  0
  3 10  1  0  0  0  0
  3  2  1  0  0  0  0
  4  5  1  0  0  0  0
  4  3  1  0  0  0  0
  5 12  1  0  0  0  0
  5  6  1  0  0  0  0
  6 13  1  6  0  0  0
  6  1  1  0  0  0  0
  6 30  1  0  0  0  0
  9  3  1  0  0  0  0
 11  5  1  0  0  0  0
 14 15  1  0  0  0  0
 14  1  1  0  0  0  0
 16 17  1  0  0  0  0
 17 20  1  0  0  0  0
 17 18  1  0  0  0  0
 19 17  1  0  0  0  0
 21 22  1  0  0  0  0
 21 20  1  0  0  0  0
 22 27  1  0  0  0  0
 23 28  1  0  0  0  0
 23 22  2  0  0  0  0
 24 23  1  0  0  0  0
 25 24  2  0  0  0  0
 25 26  1  0  0  0  0
 26 21  2  0  0  0  0
 29 25  1  0  0  0  0
 30 31  1  0  0  0  0
 31 32  1  0  0  0  0
 32 36  1  0  0  0  0
 32 33  1  0  0  0  0
 34 32  1  0  0  0  0
 35 34  1  0  0  0  0
 37 36  1  0  0  0  0
M  END
>  <minimizedAffinity>
-4.95040989

>  <minimizedRMSD>
0.585019112

$$$$
