
 OpenBabel03262521543D

 37 38  0  0  1  0  0  0  0  0999 V2000
   33.2640   27.1720   48.3800 C   0  0  1  0  0  0  0  0  0  0  0  0
   33.7250   28.5710   48.7560 C   0  0  2  0  0  0  0  0  0  0  0  0
   33.4930   29.4580   47.5850 C   0  0  0  0  0  0  0  0  0  0  0  0
   32.9400   28.8170   46.4980 O   0  0  0  0  0  0  0  0  0  0  0  0
   31.7160   28.2210   46.8150 C   0  0  0  0  0  0  0  0  0  0  0  0
   31.8140   27.2920   47.9970 C   0  0  2  0  0  0  0  0  0  0  0  0
   33.4520   26.5480   49.2660 H   0  0  0  0  0  0  0  0  0  0  0  0
   33.0540   28.9130   49.5830 H   0  0  0  0  0  0  0  0  0  0  0  0
   34.4340   29.9460   47.2280 H   0  0  0  0  0  0  0  0  0  0  0  0
   32.8020   30.3170   47.8300 H   0  0  0  0  0  0  0  0  0  0  0  0
   31.4320   27.6510   45.9050 H   0  0  0  0  0  0  0  0  0  0  0  0
   30.9050   28.9810   46.9310 H   0  0  0  0  0  0  0  0  0  0  0  0
   31.3210   26.3500   47.7430 H   0  0  0  0  0  0  0  0  0  0  0  0
   33.9440   26.7150   47.2600 O   0  0  0  0  0  0  0  0  0  0  0  0
   34.9050   26.6480   47.5170 H   0  0  0  0  0  0  0  0  0  0  0  0
   35.4530   28.6000   49.2690 S   0  0  0  0  0  0  0  0  0  0  0  0
   35.7060   29.7840   50.6020 C   0  0  0  0  0  0  0  0  0  0  0  0
   35.2490   29.3640   51.5210 H   0  0  0  0  0  0  0  0  0  0  0  0
   35.0850   30.6930   50.3560 H   0  0  0  0  0  0  0  0  0  0  0  0
   37.4090   30.2430   50.8720 S   0  0  0  0  0  0  0  0  0  0  0  0
   38.0200   31.1010   49.4430 C   0  0  0  0  0  0  0  0  0  0  0  0
   38.3870   32.4160   49.6760 C   0  0  0  0  0  0  0  0  0  0  0  0
   38.8830   33.1630   48.5800 C   0  0  0  0  0  0  0  0  0  0  0  0
   38.9700   32.5460   47.3670 N   0  0  0  0  0  0  0  0  0  0  0  0
   38.5930   31.2610   47.2190 C   0  0  0  0  0  0  0  0  0  0  0  0
   38.1280   30.5480   48.2250 N   0  0  0  0  0  0  0  0  0  0  0  0
   38.3350   32.9470   50.6220 H   0  0  0  0  0  0  0  0  0  0  0  0
   39.1800   34.1850   48.7100 H   0  0  0  0  0  0  0  0  0  0  0  0
   38.6840   30.8190   46.2260 H   0  0  0  0  0  0  0  0  0  0  0  0
   31.1750   27.8790   49.1050 O   0  0  0  0  0  0  0  0  0  0  0  0
   29.8070   27.7140   49.0580 C   0  0  0  0  0  2  0  0  0  0  0  0
   29.0280   28.8940   49.2280 N   0  0  0  0  0  4  0  0  0  0  0  0
   29.5330   29.7300   49.5620 H   0  0  0  0  0  0  0  0  0  0  0  0
   28.3230   29.3150   48.0240 C   0  0  0  0  0  2  0  0  0  0  0  0
   28.9280   29.1540   47.1290 H   0  0  0  0  0  0  0  0  0  0  0  0
   28.0080   28.5860   50.2340 C   0  0  0  0  0  2  0  0  0  0  0  0
   26.9720   28.7220   49.8260 H   0  0  0  0  0  0  0  0  0  0  0  0
  1  2  1  0  0  0  0
  1  7  1  1  0  0  0
  2 16  1  0  0  0  0
  2  8  1  1  0  0  0
  3 10  1  0  0  0  0
  3  2  1  0  0  0  0
  4  5  1  0  0  0  0
  4  3  1  0  0  0  0
  5 12  1  0  0  0  0
  5  6  1  0  0  0  0
  6 13  1  6  0  0  0
  6  1  1  0  0  0  0
  6 30  1  0  0  0  0
  9  3  1  0  0  0  0
 11  5  1  0  0  0  0
 14 15  1  0  0  0  0
 14  1  1  0  0  0  0
 16 17  1  0  0  0  0
 17 20  1  0  0  0  0
 17 18  1  0  0  0  0
 19 17  1  0  0  0  0
 21 22  1  0  0  0  0
 21 20  1  0  0  0  0
 22 27  1  0  0  0  0
 23 28  1  0  0  0  0
 23 22  2  0  0  0  0
 24 23  1  0  0  0  0
 25 24  2  0  0  0  0
 25 26  1  0  0  0  0
 26 21  2  0  0  0  0
 29 25  1  0  0  0  0
 31 30  1  0  0  0  0
 31 32  1  0  0  0  0
 32 33  1  0  0  0  0
 32 36  1  0  0  0  0
 34 32  1  0  0  0  0
 35 34  1  0  0  0  0
 37 36  1  0  0  0  0
M  END
>  <minimizedAffinity>
-4.71535778

>  <minimizedRMSD>
0.518466949

$$$$
