
 OpenBabel03262521543D

 37 38  0  0  1  0  0  0  0  0999 V2000
   33.0300   27.1270   48.2210 C   0  0  1  0  0  0  0  0  0  0  0  0
   33.5410   28.4980   48.6380 C   0  0  2  0  0  0  0  0  0  0  0  0
   33.4850   29.3870   47.4480 C   0  0  0  0  0  0  0  0  0  0  0  0
   33.0040   28.7740   46.3120 O   0  0  0  0  0  0  0  0  0  0  0  0
   31.7180   28.2600   46.5050 C   0  0  0  0  0  0  0  0  0  0  0  0
   31.6370   27.3360   47.6930 C   0  0  2  0  0  0  0  0  0  0  0  0
   33.0870   26.5010   49.1220 H   0  0  0  0  0  0  0  0  0  0  0  0
   32.8140   28.8890   49.3930 H   0  0  0  0  0  0  0  0  0  0  0  0
   34.4870   29.8110   47.1860 H   0  0  0  0  0  0  0  0  0  0  0  0
   32.8300   30.2910   47.6200 H   0  0  0  0  0  0  0  0  0  0  0  0
   31.4910   27.7020   45.5720 H   0  0  0  0  0  0  0  0  0  0  0  0
   30.9500   29.0710   46.5370 H   0  0  0  0  0  0  0  0  0  0  0  0
   31.1120   26.4270   47.3930 H   0  0  0  0  0  0  0  0  0  0  0  0
   33.7880   26.6180   47.1760 O   0  0  0  0  0  0  0  0  0  0  0  0
   34.7120   26.4920   47.5290 H   0  0  0  0  0  0  0  0  0  0  0  0
   35.2070   28.4200   49.3230 S   0  0  0  0  0  0  0  0  0  0  0  0
   35.5120   29.8110   50.4250 C   0  0  0  0  0  0  0  0  0  0  0  0
   34.9690   29.6200   51.3730 H   0  0  0  0  0  0  0  0  0  0  0  0
   34.9990   30.7080   49.9710 H   0  0  0  0  0  0  0  0  0  0  0  0
   37.2370   30.1580   50.7190 S   0  0  0  0  0  0  0  0  0  0  0  0
   37.9130   31.0120   49.3170 C   0  0  0  0  0  0  0  0  0  0  0  0
   38.3320   32.3050   49.5800 C   0  0  0  0  0  0  0  0  0  0  0  0
   38.8810   33.0480   48.5070 C   0  0  0  0  0  0  0  0  0  0  0  0
   38.9660   32.4480   47.2850 N   0  0  0  0  0  0  0  0  0  0  0  0
   38.5360   31.1840   47.1080 C   0  0  0  0  0  0  0  0  0  0  0  0
   38.0210   30.4750   48.0930 N   0  0  0  0  0  0  0  0  0  0  0  0
   38.2850   32.8230   50.5340 H   0  0  0  0  0  0  0  0  0  0  0  0
   39.2200   34.0540   48.6600 H   0  0  0  0  0  0  0  0  0  0  0  0
   38.6280   30.7540   46.1090 H   0  0  0  0  0  0  0  0  0  0  0  0
   30.9300   27.9740   48.7300 O   0  0  0  0  0  0  0  0  0  0  0  0
   30.0880   27.1020   49.3900 C   0  0  0  0  0  2  0  0  0  0  0  0
   28.8130   27.6200   49.7550 N   0  0  0  0  0  4  0  0  0  0  0  0
   28.7300   28.6480   49.7870 H   0  0  0  0  0  0  0  0  0  0  0  0
   27.7250   27.1630   48.9000 C   0  0  0  0  0  2  0  0  0  0  0  0
   28.0360   27.0980   47.8540 H   0  0  0  0  0  0  0  0  0  0  0  0
   28.5270   27.1300   51.1060 C   0  0  0  0  0  2  0  0  0  0  0  0
   27.5850   26.5200   51.1340 H   0  0  0  0  0  0  0  0  0  0  0  0
  1  2  1  0  0  0  0
  1  7  1  1  0  0  0
  2 16  1  0  0  0  0
  2  8  1  1  0  0  0
  3 10  1  0  0  0  0
  3  2  1  0  0  0  0
  4  5  1  0  0  0  0
  4  3  1  0  0  0  0
  5 12  1  0  0  0  0
  5  6  1  0  0  0  0
  6 13  1  6  0  0  0
  6  1  1  0  0  0  0
  6 30  1  0  0  0  0
  9  3  1  0  0  0  0
 11  5  1  0  0  0  0
 14 15  1  0  0  0  0
 14  1  1  0  0  0  0
 16 17  1  0  0  0  0
 17 20  1  0  0  0  0
 17 18  1  0  0  0  0
 19 17  1  0  0  0  0
 21 22  1  0  0  0  0
 21 20  1  0  0  0  0
 22 27  1  0  0  0  0
 23 28  1  0  0  0  0
 23 22  2  0  0  0  0
 24 23  1  0  0  0  0
 25 24  2  0  0  0  0
 25 26  1  0  0  0  0
 26 21  2  0  0  0  0
 29 25  1  0  0  0  0
 30 31  1  0  0  0  0
 31 32  1  0  0  0  0
 32 33  1  0  0  0  0
 32 36  1  0  0  0  0
 34 32  1  0  0  0  0
 35 34  1  0  0  0  0
 36 37  1  0  0  0  0
M  END
>  <minimizedAffinity>
-4.61917019

>  <minimizedRMSD>
0.934945166

$$$$
