
 OpenBabel03272506253D

 30 31  0  0  0  0  0  0  0  0999 V2000
   37.5830   30.3210   47.2510 C   0  0  0  0  0  0  0  0  0  0  0  0
   37.6240   29.7420   45.9990 C   0  0  0  0  0  0  0  0  0  0  0  0
   38.5370   30.0190   45.0060 C   0  0  0  0  0  0  0  0  0  0  0  0
   39.5200   30.9780   45.2840 C   0  0  0  0  0  0  0  0  0  0  0  0
   39.5070   31.5760   46.5260 C   0  0  0  0  0  0  0  0  0  0  0  0
   38.5740   31.2680   47.4900 C   0  0  0  0  0  0  0  0  0  0  0  0
   36.8780   28.9810   45.7200 H   0  0  0  0  0  0  0  0  0  0  0  0
   38.5160   29.5320   44.0480 H   0  0  0  0  0  0  0  0  0  0  0  0
   40.2730   31.2510   44.5560 H   0  0  0  0  0  0  0  0  0  0  0  0
   40.2660   32.3180   46.7460 H   0  0  0  0  0  0  0  0  0  0  0  0
   36.9700   29.5530   49.4700 C   0  0  0  0  0  0  0  0  0  0  0  0
   36.5540   29.9020   48.1520 C   0  0  0  0  0  0  0  0  0  0  0  0
   35.2070   29.8050   47.8590 C   0  0  0  0  0  0  0  0  0  0  0  0
   34.3480   29.3880   48.8250 N   0  0  0  0  0  0  0  0  0  0  0  0
   34.7710   29.0610   50.0800 C   0  0  0  0  0  0  0  0  0  0  0  0
   36.0930   29.1480   50.3930 N   0  0  0  0  0  0  0  0  0  0  0  0
   38.0280   29.6210   49.7300 H   0  0  0  0  0  0  0  0  0  0  0  0
   34.0850   28.7320   50.8380 H   0  0  0  0  0  0  0  0  0  0  0  0
   34.6360   30.1370   46.5240 C   0  0  0  0  0  0  0  0  0  0  0  0
   33.3260   30.6320   46.6910 F   0  0  0  0  0  0  0  0  0  0  0  0
   35.3360   31.0080   45.7620 F   0  0  0  0  0  0  0  0  0  0  0  0
   34.4440   28.9590   45.7920 F   0  0  0  0  0  0  0  0  0  0  0  0
   38.5410   32.0310   49.1060 S   0  0  0  0  0  0  0  0  0  0  0  0
   38.0730   33.7760   49.0010 C   0  0  0  0  0  2  0  0  0  0  0  0
   39.2210   34.6440   49.1940 N   0  0  0  0  0  4  0  0  0  0  0  0
   38.9210   35.6240   49.3190 H   0  0  0  0  0  0  0  0  0  0  0  0
   40.0820   34.5530   48.0300 C   0  0  0  0  0  2  0  0  0  0  0  0
   41.0760   34.1250   48.2980 H   0  0  0  0  0  0  0  0  0  0  0  0
   39.9780   34.2730   50.3790 C   0  0  0  0  0  2  0  0  0  0  0  0
   40.2470   33.2090   50.3980 H   0  0  0  0  0  0  0  0  0  0  0  0
  1  6  1  0  0  0  0
  1 12  1  0  0  0  0
  2  1  2  0  0  0  0
  3  4  2  0  0  0  0
  3  2  1  0  0  0  0
  4  5  1  0  0  0  0
  5 10  1  0  0  0  0
  5  6  2  0  0  0  0
  6 23  1  0  0  0  0
  7  2  1  0  0  0  0
  8  3  1  0  0  0  0
  9  4  1  0  0  0  0
 11 17  1  0  0  0  0
 11 16  1  0  0  0  0
 12 11  2  0  0  0  0
 13 12  1  0  0  0  0
 13 14  2  0  0  0  0
 14 15  1  0  0  0  0
 15 16  2  0  0  0  0
 15 18  1  0  0  0  0
 19 20  1  0  0  0  0
 19 13  1  0  0  0  0
 21 19  1  0  0  0  0
 22 19  1  0  0  0  0
 24 23  1  0  0  0  0
 24 25  1  0  0  0  0
 25 26  1  0  0  0  0
 25 29  1  0  0  0  0
 27 28  1  0  0  0  0
 27 25  1  0  0  0  0
 29 30  1  0  0  0  0
M  END
>  <minimizedAffinity>
-3.29637933

>  <minimizedRMSD>
1.31658876

$$$$
