
 OpenBabel03262522143D

 43 45  0  0  1  0  0  0  0  0999 V2000
   39.5580   32.9600   43.7900 C   0  0  0  0  0  0  0  0  0  0  0  0
   38.4950   32.8390   44.0430 H   0  0  0  0  0  0  0  0  0  0  0  0
   39.7370   33.8610   43.1920 H   0  0  0  0  0  0  0  0  0  0  0  0
   38.8020   29.7990   42.3590 C   0  0  1  0  0  0  0  0  0  0  0  0
   38.7950   31.2990   42.1010 C   0  0  0  0  0  0  0  0  0  0  0  0
   39.9530   31.7520   42.9550 C   0  0  2  0  0  0  0  0  0  0  0  0
   40.3680   30.6970   43.7190 O   0  0  0  0  0  0  0  0  0  0  0  0
   39.3330   29.7710   43.7840 C   0  0  0  0  0  0  0  0  0  0  0  0
   39.5100   29.2920   41.6870 H   0  0  0  0  0  0  0  0  0  0  0  0
   39.0520   31.4300   41.0500 H   0  0  0  0  0  0  0  0  0  0  0  0
   37.8540   31.7560   42.4130 H   0  0  0  0  0  0  0  0  0  0  0  0
   40.8110   32.0770   42.3310 H   0  0  0  0  0  0  0  0  0  0  0  0
   38.5360   30.0710   44.4670 H   0  0  0  0  0  0  0  0  0  0  0  0
   39.7410   28.7590   44.0190 H   0  0  0  0  0  0  0  0  0  0  0  0
   37.5340   29.2650   42.2760 O   0  0  0  0  0  0  0  0  0  0  0  0
   37.4300   27.9190   42.4850 C   0  0  0  0  0  2  0  0  0  0  0  0
   36.1320   27.7210   43.1500 N   0  0  0  0  0  4  0  0  0  0  0  0
   36.3970   27.3730   44.1170 H   0  0  0  0  0  0  0  0  0  0  0  0
   35.3190   26.7480   42.4900 C   0  0  0  0  0  2  0  0  0  0  0  0
   35.9760   26.0020   42.0010 H   0  0  0  0  0  0  0  0  0  0  0  0
   35.4540   28.9910   43.3560 C   0  0  0  0  0  2  0  0  0  0  0  0
   35.0660   29.0620   44.4120 H   0  0  0  0  0  0  0  0  0  0  0  0
   40.6620   32.9890   45.2260 S   0  0  0  0  0  0  0  0  0  0  0  0
   37.7720   31.7540   47.6500 C   0  0  0  0  0  0  0  0  0  0  0  0
   37.9300   32.5360   48.8050 C   0  0  0  0  0  0  0  0  0  0  0  0
   38.9340   33.4790   48.8880 C   0  0  0  0  0  0  0  0  0  0  0  0
   39.7520   33.5980   47.7850 C   0  0  0  0  0  0  0  0  0  0  0  0
   39.5750   32.8280   46.6830 C   0  0  0  0  0  0  0  0  0  0  0  0
   38.5970   31.9020   46.5880 N   0  0  0  0  0  0  0  0  0  0  0  0
   37.2580   32.3980   49.6350 H   0  0  0  0  0  0  0  0  0  0  0  0
   39.0640   34.0910   49.7810 H   0  0  0  0  0  0  0  0  0  0  0  0
   40.5480   34.3320   47.8300 H   0  0  0  0  0  0  0  0  0  0  0  0
   36.6950   30.7900   47.6430 C   0  0  0  0  0  0  0  0  0  0  0  0
   36.2080   30.3920   46.5820 O   0  0  0  0  0  0  0  0  0  0  0  0
   37.0090   29.6250   49.7960 C   0  0  0  0  0  0  0  0  0  0  0  0
   36.1250   30.2330   48.8770 C   0  0  0  0  0  0  0  0  0  0  0  0
   34.7680   30.2780   49.1830 C   0  0  0  0  0  0  0  0  0  0  0  0
   34.3300   29.7330   50.3560 N   0  0  0  0  0  0  0  0  0  0  0  0
   35.2060   29.1540   51.2190 C   0  0  0  0  0  0  0  0  0  0  0  0
   36.5200   29.1020   50.9410 N   0  0  0  0  0  0  0  0  0  0  0  0
   38.0820   29.5520   49.6270 H   0  0  0  0  0  0  0  0  0  0  0  0
   34.1550   30.7500   48.4500 H   0  0  0  0  0  0  0  0  0  0  0  0
   34.6880   28.7790   52.0890 H   0  0  0  0  0  0  0  0  0  0  0  0
  1  2  1  0  0  0  0
  1 23  1  0  0  0  0
  3  1  1  0  0  0  0
  4  9  1  6  0  0  0
  4  8  1  0  0  0  0
  5  4  1  0  0  0  0
  5 11  1  0  0  0  0
  5  6  1  0  0  0  0
  6 12  1  6  0  0  0
  6  7  1  0  0  0  0
  6  1  1  0  0  0  0
  7  8  1  0  0  0  0
  8 14  1  0  0  0  0
  8 13  1  0  0  0  0
 10  5  1  0  0  0  0
 15  4  1  0  0  0  0
 15 16  1  0  0  0  0
 16 17  1  0  0  0  0
 17 21  1  0  0  0  0
 17 18  1  0  0  0  0
 19 17  1  0  0  0  0
 20 19  1  0  0  0  0
 21 22  1  0  0  0  0
 23 28  1  0  0  0  0
 24 25  1  0  0  0  0
 25 26  2  0  0  0  0
 25 30  1  0  0  0  0
 26 31  1  0  0  0  0
 27 32  1  0  0  0  0
 27 26  1  0  0  0  0
 28 27  2  0  0  0  0
 29 28  1  0  0  0  0
 29 24  2  0  0  0  0
 33 24  1  0  0  0  0
 33 36  1  0  0  0  0
 34 33  2  0  0  0  0
 35 40  1  0  0  0  0
 36 37  1  0  0  0  0
 36 35  2  0  0  0  0
 37 38  2  0  0  0  0
 38 39  1  0  0  0  0
 39 43  1  0  0  0  0
 40 39  2  0  0  0  0
 41 35  1  0  0  0  0
 42 37  1  0  0  0  0
M  END
>  <minimizedAffinity>
-4.89886618

>  <minimizedRMSD>
0.847366929

$$$$
