
 OpenBabel03262522143D

 43 45  0  0  1  0  0  0  0  0999 V2000
   39.5700   32.8690   43.8040 C   0  0  0  0  0  0  0  0  0  0  0  0
   38.5180   32.6680   44.0550 H   0  0  0  0  0  0  0  0  0  0  0  0
   39.6800   33.7700   43.1900 H   0  0  0  0  0  0  0  0  0  0  0  0
   38.9990   29.7440   42.2180 C   0  0  1  0  0  0  0  0  0  0  0  0
   39.0210   31.2490   41.9970 C   0  0  0  0  0  0  0  0  0  0  0  0
   40.0650   31.6810   42.9960 C   0  0  2  0  0  0  0  0  0  0  0  0
   40.3860   30.6070   43.7800 O   0  0  0  0  0  0  0  0  0  0  0  0
   39.3520   29.6810   43.6960 C   0  0  0  0  0  0  0  0  0  0  0  0
   39.7840   29.2510   41.6250 H   0  0  0  0  0  0  0  0  0  0  0  0
   39.4050   31.4040   40.9880 H   0  0  0  0  0  0  0  0  0  0  0  0
   38.0490   31.7010   42.2020 H   0  0  0  0  0  0  0  0  0  0  0  0
   40.9930   32.0190   42.4890 H   0  0  0  0  0  0  0  0  0  0  0  0
   38.4770   29.9670   44.2840 H   0  0  0  0  0  0  0  0  0  0  0  0
   39.7300   28.6640   43.9550 H   0  0  0  0  0  0  0  0  0  0  0  0
   37.7520   29.2130   41.9680 O   0  0  0  0  0  0  0  0  0  0  0  0
   37.3380   28.2180   42.8070 C   0  0  0  0  0  2  0  0  0  0  0  0
   35.8680   28.2550   42.7740 N   0  0  0  0  0  4  0  0  0  0  0  0
   35.6380   28.1830   41.7400 H   0  0  0  0  0  0  0  0  0  0  0  0
   35.3360   29.4710   43.3050 C   0  0  0  0  0  2  0  0  0  0  0  0
   36.0600   30.2890   43.1250 H   0  0  0  0  0  0  0  0  0  0  0  0
   35.3040   27.0640   43.3900 C   0  0  0  0  0  2  0  0  0  0  0  0
   34.4980   26.6270   42.7360 H   0  0  0  0  0  0  0  0  0  0  0  0
   40.6590   33.0140   45.2440 S   0  0  0  0  0  0  0  0  0  0  0  0
   37.7730   31.7580   47.6620 C   0  0  0  0  0  0  0  0  0  0  0  0
   37.9270   32.5360   48.8200 C   0  0  0  0  0  0  0  0  0  0  0  0
   38.9270   33.4830   48.9080 C   0  0  0  0  0  0  0  0  0  0  0  0
   39.7450   33.6100   47.8060 C   0  0  0  0  0  0  0  0  0  0  0  0
   39.5720   32.8430   46.7000 C   0  0  0  0  0  0  0  0  0  0  0  0
   38.5970   31.9140   46.6010 N   0  0  0  0  0  0  0  0  0  0  0  0
   37.2550   32.3920   49.6490 H   0  0  0  0  0  0  0  0  0  0  0  0
   39.0540   34.0920   49.8030 H   0  0  0  0  0  0  0  0  0  0  0  0
   40.5380   34.3470   47.8540 H   0  0  0  0  0  0  0  0  0  0  0  0
   36.7000   30.7900   47.6510 C   0  0  0  0  0  0  0  0  0  0  0  0
   36.2200   30.3880   46.5880 O   0  0  0  0  0  0  0  0  0  0  0  0
   37.0050   29.6160   49.8000 C   0  0  0  0  0  0  0  0  0  0  0  0
   36.1260   30.2320   48.8820 C   0  0  0  0  0  0  0  0  0  0  0  0
   34.7680   30.2820   49.1860 C   0  0  0  0  0  0  0  0  0  0  0  0
   34.3260   29.7370   50.3570 N   0  0  0  0  0  0  0  0  0  0  0  0
   35.1980   29.1500   51.2200 C   0  0  0  0  0  0  0  0  0  0  0  0
   36.5120   29.0930   50.9430 N   0  0  0  0  0  0  0  0  0  0  0  0
   38.0780   29.5390   49.6320 H   0  0  0  0  0  0  0  0  0  0  0  0
   34.1590   30.7590   48.4530 H   0  0  0  0  0  0  0  0  0  0  0  0
   34.6770   28.7750   52.0870 H   0  0  0  0  0  0  0  0  0  0  0  0
  1  2  1  0  0  0  0
  1 23  1  0  0  0  0
  3  1  1  0  0  0  0
  4  9  1  6  0  0  0
  4  8  1  0  0  0  0
  5 11  1  0  0  0  0
  5  4  1  0  0  0  0
  5  6  1  0  0  0  0
  6 12  1  6  0  0  0
  6  7  1  0  0  0  0
  6  1  1  0  0  0  0
  8  7  1  0  0  0  0
  8 14  1  0  0  0  0
  8 13  1  0  0  0  0
 10  5  1  0  0  0  0
 15  4  1  0  0  0  0
 15 16  1  0  0  0  0
 17 16  1  0  0  0  0
 17 19  1  0  0  0  0
 17 21  1  0  0  0  0
 18 17  1  0  0  0  0
 20 19  1  0  0  0  0
 22 21  1  0  0  0  0
 23 28  1  0  0  0  0
 24 25  1  0  0  0  0
 25 26  2  0  0  0  0
 25 30  1  0  0  0  0
 26 31  1  0  0  0  0
 27 32  1  0  0  0  0
 27 26  1  0  0  0  0
 28 27  2  0  0  0  0
 29 28  1  0  0  0  0
 29 24  2  0  0  0  0
 33 24  1  0  0  0  0
 33 36  1  0  0  0  0
 34 33  2  0  0  0  0
 35 40  1  0  0  0  0
 36 37  1  0  0  0  0
 36 35  2  0  0  0  0
 37 38  2  0  0  0  0
 38 39  1  0  0  0  0
 39 43  1  0  0  0  0
 40 39  2  0  0  0  0
 41 35  1  0  0  0  0
 42 37  1  0  0  0  0
M  END
>  <minimizedAffinity>
-4.89604425

>  <minimizedRMSD>
1.55922091

$$$$
