
 OpenBabel03262521213D

 31 31  0  0  0  0  0  0  0  0999 V2000
   37.8820   31.6380   48.7050 C   0  0  0  0  0  0  0  0  0  0  0  0
   37.2530   30.8460   48.2280 H   0  0  0  0  0  0  0  0  0  0  0  0
   37.2460   32.5660   48.6100 H   0  0  0  0  0  0  0  0  0  0  0  0
   38.3680   31.4080   49.9340 C   0  0  0  0  0  0  0  0  0  0  0  0
   39.3570   30.8520   49.8790 H   0  0  0  0  0  0  0  0  0  0  0  0
   38.6600   32.2580   50.5960 H   0  0  0  0  0  0  0  0  0  0  0  0
   37.4920   30.5280   50.7970 C   0  0  0  0  0  0  0  0  0  0  0  0
   38.1000   29.9730   51.5410 H   0  0  0  0  0  0  0  0  0  0  0  0
   36.8430   31.1950   51.4030 H   0  0  0  0  0  0  0  0  0  0  0  0
   36.5030   29.3870   49.8840 S   0  0  0  0  0  0  0  0  0  0  0  0
   34.7680   29.3850   50.3180 C   0  0  0  0  0  0  0  0  0  0  0  0
   33.9260   29.5220   49.1730 N   0  0  0  0  0  0  0  0  0  0  0  0
   33.0450   30.0400   49.4640 H   0  0  0  0  0  0  0  0  0  0  0  0
   33.4790   28.1850   48.7770 C   0  0  0  0  0  0  0  0  0  0  0  0
   33.5660   27.5040   49.6470 H   0  0  0  0  0  0  0  0  0  0  0  0
   34.4990   30.1880   48.0480 C   0  0  0  0  0  0  0  0  0  0  0  0
   35.4740   30.6590   48.2110 H   0  0  0  0  0  0  0  0  0  0  0  0
   39.0560   31.9020   48.0360 O   0  0  0  0  0  0  0  0  0  0  0  0
   38.9800   32.2330   46.7160 C   0  0  0  0  0  0  0  0  0  0  0  0
   40.2030   32.6290   46.1940 C   0  0  0  0  0  0  0  0  0  0  0  0
   40.2940   33.0030   44.8380 C   0  0  0  0  0  0  0  0  0  0  0  0
   39.1150   32.9440   44.1120 N   0  0  0  0  0  0  0  0  0  0  0  0
   37.9330   32.5510   44.6570 C   0  0  0  0  0  0  0  0  0  0  0  0
   37.8770   32.2020   45.9440 N   0  0  0  0  0  0  0  0  0  0  0  0
   37.0460   32.8740   42.4540 C   0  0  0  0  0  0  0  0  0  0  0  0
   38.1750   33.1820   41.9630 O   0  0  0  0  0  0  0  0  0  0  0  0
   36.8010   32.5350   43.8090 N   0  0  0  0  0  0  0  0  0  0  0  0
   41.1380   32.6900   46.7130 H   0  0  0  0  0  0  0  0  0  0  0  0
   41.2080   33.3130   44.3950 H   0  0  0  0  0  0  0  0  0  0  0  0
   36.2740   32.9010   41.6970 H   0  0  0  0  0  0  0  0  0  0  0  0
   35.8370   32.2920   44.1350 H   0  0  0  0  0  0  0  0  0  0  0  0
  1  4  1  0  0  0  0
  2  1  1  0  0  0  0
  3  1  1  0  0  0  0
  4  6  1  0  0  0  0
  4  7  1  0  0  0  0
  5  4  1  0  0  0  0
  7  9  1  0  0  0  0
  7  8  1  0  0  0  0
 10 11  1  0  0  0  0
 10  7  1  0  0  0  0
 12 13  1  0  0  0  0
 12 11  1  0  0  0  0
 14 12  1  0  0  0  0
 14 15  1  0  0  0  0
 16 17  1  0  0  0  0
 16 12  1  0  0  0  0
 18  1  1  0  0  0  0
 19 18  1  0  0  0  0
 20 28  1  0  0  0  0
 20 19  1  0  0  0  0
 21 20  2  0  0  0  0
 22 23  2  0  0  0  0
 22 21  1  0  0  0  0
 23 24  1  0  0  0  0
 24 19  2  0  0  0  0
 25 27  1  0  0  0  0
 26 25  2  0  0  0  0
 27 31  1  0  0  0  0
 27 23  1  0  0  0  0
 29 21  1  0  0  0  0
 30 25  1  0  0  0  0
M  END
>  <minimizedAffinity>
-4.94165897

>  <minimizedRMSD>
1.38883579

$$$$
