
 OpenBabel03262522143D

 43 45  0  0  1  0  0  0  0  0999 V2000
   39.5800   32.9500   43.7940 C   0  0  0  0  0  0  0  0  0  0  0  0
   38.5140   32.8370   44.0430 H   0  0  0  0  0  0  0  0  0  0  0  0
   39.7660   33.8460   43.1900 H   0  0  0  0  0  0  0  0  0  0  0  0
   38.7890   29.8180   42.3200 C   0  0  1  0  0  0  0  0  0  0  0  0
   38.8360   31.3180   42.0690 C   0  0  0  0  0  0  0  0  0  0  0  0
   39.9710   31.7340   42.9700 C   0  0  2  0  0  0  0  0  0  0  0  0
   40.3250   30.6640   43.7460 O   0  0  0  0  0  0  0  0  0  0  0  0
   39.2610   29.7690   43.7650 C   0  0  0  0  0  0  0  0  0  0  0  0
   39.5070   29.2920   41.6750 H   0  0  0  0  0  0  0  0  0  0  0  0
   39.1390   31.4440   41.0290 H   0  0  0  0  0  0  0  0  0  0  0  0
   37.8980   31.8020   42.3450 H   0  0  0  0  0  0  0  0  0  0  0  0
   40.8630   32.0350   42.3820 H   0  0  0  0  0  0  0  0  0  0  0  0
   38.4460   30.0910   44.4170 H   0  0  0  0  0  0  0  0  0  0  0  0
   39.6290   28.7450   44.0120 H   0  0  0  0  0  0  0  0  0  0  0  0
   37.5100   29.3210   42.1840 O   0  0  0  0  0  0  0  0  0  0  0  0
   37.4050   27.9950   41.8750 C   0  0  0  0  0  2  0  0  0  0  0  0
   36.5880   27.4010   42.9450 N   0  0  0  0  0  4  0  0  0  0  0  0
   37.2640   27.3200   43.7590 H   0  0  0  0  0  0  0  0  0  0  0  0
   36.0850   26.1070   42.6010 C   0  0  0  0  0  2  0  0  0  0  0  0
   36.8000   25.6170   41.9110 H   0  0  0  0  0  0  0  0  0  0  0  0
   35.5510   28.3230   43.3800 C   0  0  0  0  0  2  0  0  0  0  0  0
   35.5230   28.3810   44.5050 H   0  0  0  0  0  0  0  0  0  0  0  0
   40.6770   32.9840   45.2340 S   0  0  0  0  0  0  0  0  0  0  0  0
   37.7770   31.7530   47.6490 C   0  0  0  0  0  0  0  0  0  0  0  0
   37.9290   32.5380   48.8020 C   0  0  0  0  0  0  0  0  0  0  0  0
   38.9320   33.4820   48.8880 C   0  0  0  0  0  0  0  0  0  0  0  0
   39.7550   33.5990   47.7880 C   0  0  0  0  0  0  0  0  0  0  0  0
   39.5840   32.8260   46.6870 C   0  0  0  0  0  0  0  0  0  0  0  0
   38.6070   31.8990   46.5910 N   0  0  0  0  0  0  0  0  0  0  0  0
   37.2530   32.4020   49.6300 H   0  0  0  0  0  0  0  0  0  0  0  0
   39.0570   34.0970   49.7790 H   0  0  0  0  0  0  0  0  0  0  0  0
   40.5500   34.3340   47.8350 H   0  0  0  0  0  0  0  0  0  0  0  0
   36.7020   30.7880   47.6400 C   0  0  0  0  0  0  0  0  0  0  0  0
   36.2180   30.3880   46.5780 O   0  0  0  0  0  0  0  0  0  0  0  0
   37.0100   29.6320   49.7980 C   0  0  0  0  0  0  0  0  0  0  0  0
   36.1280   30.2320   48.8720 C   0  0  0  0  0  0  0  0  0  0  0  0
   34.7690   30.2700   49.1710 C   0  0  0  0  0  0  0  0  0  0  0  0
   34.3270   29.7280   50.3440 N   0  0  0  0  0  0  0  0  0  0  0  0
   35.2020   29.1560   51.2140 C   0  0  0  0  0  0  0  0  0  0  0  0
   36.5180   29.1100   50.9430 N   0  0  0  0  0  0  0  0  0  0  0  0
   38.0840   29.5650   49.6360 H   0  0  0  0  0  0  0  0  0  0  0  0
   34.1570   30.7360   48.4320 H   0  0  0  0  0  0  0  0  0  0  0  0
   34.6810   28.7820   52.0820 H   0  0  0  0  0  0  0  0  0  0  0  0
  1  2  1  0  0  0  0
  1 23  1  0  0  0  0
  3  1  1  0  0  0  0
  4  9  1  6  0  0  0
  4  8  1  0  0  0  0
  5  4  1  0  0  0  0
  5 11  1  0  0  0  0
  5  6  1  0  0  0  0
  6 12  1  6  0  0  0
  6  7  1  0  0  0  0
  6  1  1  0  0  0  0
  7  8  1  0  0  0  0
  8 14  1  0  0  0  0
  8 13  1  0  0  0  0
 10  5  1  0  0  0  0
 15  4  1  0  0  0  0
 16 15  1  0  0  0  0
 16 17  1  0  0  0  0
 17 21  1  0  0  0  0
 17 18  1  0  0  0  0
 19 17  1  0  0  0  0
 20 19  1  0  0  0  0
 21 22  1  0  0  0  0
 23 28  1  0  0  0  0
 24 25  1  0  0  0  0
 25 26  2  0  0  0  0
 25 30  1  0  0  0  0
 26 31  1  0  0  0  0
 27 32  1  0  0  0  0
 27 26  1  0  0  0  0
 28 27  2  0  0  0  0
 29 28  1  0  0  0  0
 29 24  2  0  0  0  0
 33 24  1  0  0  0  0
 33 36  1  0  0  0  0
 34 33  2  0  0  0  0
 35 40  1  0  0  0  0
 36 37  1  0  0  0  0
 36 35  2  0  0  0  0
 37 38  2  0  0  0  0
 38 39  1  0  0  0  0
 39 43  1  0  0  0  0
 40 39  2  0  0  0  0
 41 35  1  0  0  0  0
 42 37  1  0  0  0  0
M  END
>  <minimizedAffinity>
-4.89845705

>  <minimizedRMSD>
0.607378244

$$$$
