
 OpenBabel03262522143D

 43 45  0  0  1  0  0  0  0  0999 V2000
   39.5120   32.9230   43.8070 C   0  0  0  0  0  0  0  0  0  0  0  0
   38.4690   32.6950   44.0720 H   0  0  0  0  0  0  0  0  0  0  0  0
   39.5880   33.8080   43.1660 H   0  0  0  0  0  0  0  0  0  0  0  0
   39.0140   29.7670   42.2570 C   0  0  1  0  0  0  0  0  0  0  0  0
   39.0250   31.2690   42.0120 C   0  0  0  0  0  0  0  0  0  0  0  0
   40.0400   31.7270   43.0300 C   0  0  2  0  0  0  0  0  0  0  0  0
   40.3530   30.6700   43.8380 O   0  0  0  0  0  0  0  0  0  0  0  0
   39.3320   29.7310   43.7440 C   0  0  0  0  0  0  0  0  0  0  0  0
   39.8190   29.2750   41.6910 H   0  0  0  0  0  0  0  0  0  0  0  0
   39.4320   31.4130   41.0110 H   0  0  0  0  0  0  0  0  0  0  0  0
   38.0430   31.7120   42.1870 H   0  0  0  0  0  0  0  0  0  0  0  0
   40.9750   32.0690   42.5400 H   0  0  0  0  0  0  0  0  0  0  0  0
   38.4390   30.0160   44.3050 H   0  0  0  0  0  0  0  0  0  0  0  0
   39.7130   28.7220   44.0280 H   0  0  0  0  0  0  0  0  0  0  0  0
   37.7790   29.2190   41.9850 O   0  0  0  0  0  0  0  0  0  0  0  0
   37.7370   27.8610   41.8440 C   0  0  0  0  0  2  0  0  0  0  0  0
   38.7110   27.5410   40.7880 N   0  0  0  0  0  4  0  0  0  0  0  0
   39.4120   28.3360   40.8440 H   0  0  0  0  0  0  0  0  0  0  0  0
   38.1210   27.5070   39.4860 C   0  0  0  0  0  2  0  0  0  0  0  0
   37.2670   28.2130   39.4600 H   0  0  0  0  0  0  0  0  0  0  0  0
   39.4520   26.3320   41.1140 C   0  0  0  0  0  2  0  0  0  0  0  0
   40.5560   26.4940   40.9560 H   0  0  0  0  0  0  0  0  0  0  0  0
   40.6070   33.1450   45.2340 S   0  0  0  0  0  0  0  0  0  0  0  0
   37.7830   31.7820   47.6680 C   0  0  0  0  0  0  0  0  0  0  0  0
   37.9460   32.5320   48.8420 C   0  0  0  0  0  0  0  0  0  0  0  0
   38.9320   33.4920   48.9380 C   0  0  0  0  0  0  0  0  0  0  0  0
   39.7290   33.6600   47.8250 C   0  0  0  0  0  0  0  0  0  0  0  0
   39.5480   32.9190   46.7030 C   0  0  0  0  0  0  0  0  0  0  0  0
   38.5860   31.9780   46.5970 N   0  0  0  0  0  0  0  0  0  0  0  0
   37.2910   32.3560   49.6800 H   0  0  0  0  0  0  0  0  0  0  0  0
   39.0660   34.0790   49.8460 H   0  0  0  0  0  0  0  0  0  0  0  0
   40.5110   34.4080   47.8790 H   0  0  0  0  0  0  0  0  0  0  0  0
   36.7250   30.7980   47.6500 C   0  0  0  0  0  0  0  0  0  0  0  0
   36.2630   30.3830   46.5840 O   0  0  0  0  0  0  0  0  0  0  0  0
   37.0200   29.6250   49.8010 C   0  0  0  0  0  0  0  0  0  0  0  0
   36.1440   30.2390   48.8770 C   0  0  0  0  0  0  0  0  0  0  0  0
   34.7850   30.2860   49.1740 C   0  0  0  0  0  0  0  0  0  0  0  0
   34.3370   29.7400   50.3420 N   0  0  0  0  0  0  0  0  0  0  0  0
   35.2050   29.1550   51.2100 C   0  0  0  0  0  0  0  0  0  0  0  0
   36.5210   29.1000   50.9410 N   0  0  0  0  0  0  0  0  0  0  0  0
   38.0930   29.5500   49.6390 H   0  0  0  0  0  0  0  0  0  0  0  0
   34.1790   30.7620   48.4380 H   0  0  0  0  0  0  0  0  0  0  0  0
   34.6800   28.7790   52.0750 H   0  0  0  0  0  0  0  0  0  0  0  0
  1  2  1  0  0  0  0
  1 23  1  0  0  0  0
  3  1  1  0  0  0  0
  4  9  1  6  0  0  0
  4  8  1  0  0  0  0
  5 11  1  0  0  0  0
  5  4  1  0  0  0  0
  5  6  1  0  0  0  0
  6 12  1  6  0  0  0
  6  1  1  0  0  0  0
  6  7  1  0  0  0  0
  8  7  1  0  0  0  0
  8 14  1  0  0  0  0
  8 13  1  0  0  0  0
 10  5  1  0  0  0  0
 15  4  1  0  0  0  0
 16 15  1  0  0  0  0
 17 18  1  0  0  0  0
 17 21  1  0  0  0  0
 17 16  1  0  0  0  0
 19 17  1  0  0  0  0
 20 19  1  0  0  0  0
 22 21  1  0  0  0  0
 23 28  1  0  0  0  0
 24 25  1  0  0  0  0
 25 26  2  0  0  0  0
 25 30  1  0  0  0  0
 26 31  1  0  0  0  0
 27 32  1  0  0  0  0
 27 26  1  0  0  0  0
 28 27  2  0  0  0  0
 29 28  1  0  0  0  0
 29 24  2  0  0  0  0
 33 24  1  0  0  0  0
 33 36  1  0  0  0  0
 34 33  2  0  0  0  0
 35 40  1  0  0  0  0
 36 37  1  0  0  0  0
 36 35  2  0  0  0  0
 37 38  2  0  0  0  0
 38 39  1  0  0  0  0
 39 43  1  0  0  0  0
 40 39  2  0  0  0  0
 41 35  1  0  0  0  0
 42 37  1  0  0  0  0
M  END
>  <minimizedAffinity>
-4.92429686

>  <minimizedRMSD>
0.510903955

$$$$
