
 OpenBabel03272508263D

 36 38  0  0  1  0  0  0  0  0999 V2000
   33.8000   28.8320   47.1890 C   0  0  2  0  0  0  0  0  0  0  0  0
   34.4820   28.0920   48.3160 C   0  0  2  0  0  0  0  0  0  0  0  0
   33.5440   27.9780   49.2940 O   0  0  0  0  0  0  0  0  0  0  0  0
   32.2760   28.0920   48.7860 C   0  0  0  0  0  0  0  0  0  0  0  0
   32.4010   28.2420   47.2690 C   0  0  1  0  0  0  0  0  0  0  0  0
   33.6660   29.9140   47.4270 H   0  0  0  0  0  0  0  0  0  0  0  0
   34.7610   27.0980   47.9460 H   0  0  0  0  0  0  0  0  0  0  0  0
   31.6060   27.2800   49.0730 H   0  0  0  0  0  0  0  0  0  0  0  0
   31.8370   29.0500   49.1510 H   0  0  0  0  0  0  0  0  0  0  0  0
   32.4170   27.1860   46.9000 H   0  0  0  0  0  0  0  0  0  0  0  0
   35.5690   30.3490   49.0080 C   0  0  1  0  0  0  0  0  0  0  0  0
   35.6440   28.9270   48.7620 C   0  0  1  0  0  0  0  0  0  0  0  0
   35.8040   29.3770   50.1760 C   0  0  0  0  0  0  0  0  0  0  0  0
   34.6620   30.9600   49.1980 H   0  0  0  0  0  0  0  0  0  0  0  0
   36.6020   28.5790   48.2730 H   0  0  0  0  0  0  0  0  0  0  0  0
   34.9790   29.2020   50.8950 H   0  0  0  0  0  0  0  0  0  0  0  0
   36.8070   29.3310   50.6340 H   0  0  0  0  0  0  0  0  0  0  0  0
   36.7680   31.2460   48.7740 C   0  0  0  0  0  0  0  0  0  0  0  0
   37.0260   32.2390   49.7220 C   0  0  0  0  0  0  0  0  0  0  0  0
   38.1180   33.0490   49.4480 C   0  0  0  0  0  0  0  0  0  0  0  0
   38.8730   32.8650   48.3180 N   0  0  0  0  0  0  0  0  0  0  0  0
   38.5830   31.8840   47.4240 C   0  0  0  0  0  0  0  0  0  0  0  0
   37.5230   31.0710   47.6580 N   0  0  0  0  0  0  0  0  0  0  0  0
   36.4320   32.3730   50.5970 H   0  0  0  0  0  0  0  0  0  0  0  0
   38.4130   33.8500   50.1090 H   0  0  0  0  0  0  0  0  0  0  0  0
   39.1580   31.7180   46.5310 H   0  0  0  0  0  0  0  0  0  0  0  0
   34.3630   28.6360   45.9570 O   0  0  0  0  0  0  0  0  0  0  0  0
   34.2970   29.4860   45.4500 H   0  0  0  0  0  0  0  0  0  0  0  0
   31.4270   29.0290   46.7370 O   0  0  0  0  0  0  0  0  0  0  0  0
   30.1490   28.6160   47.0200 C   0  0  0  0  0  2  0  0  0  0  0  0
   29.7160   27.3940   46.4140 N   0  0  0  0  0  4  0  0  0  0  0  0
   30.5710   26.8410   46.1410 H   0  0  0  0  0  0  0  0  0  0  0  0
   28.9570   27.6640   45.1750 C   0  0  0  0  0  2  0  0  0  0  0  0
   28.1110   28.3140   45.4240 H   0  0  0  0  0  0  0  0  0  0  0  0
   28.8350   26.6000   47.2330 C   0  0  0  0  0  2  0  0  0  0  0  0
   27.9130   26.2590   46.6750 H   0  0  0  0  0  0  0  0  0  0  0  0
  1  5  1  0  0  0  0
  1  6  1  1  0  0  0
  1  2  1  0  0  0  0
  2  7  1  6  0  0  0
  2 12  1  0  0  0  0
  2  3  1  0  0  0  0
  4  8  1  0  0  0  0
  4  9  1  0  0  0  0
  4  3  1  0  0  0  0
  5 10  1  6  0  0  0
  5  4  1  0  0  0  0
 11 14  1  6  0  0  0
 11 13  1  0  0  0  0
 12 15  1  6  0  0  0
 12 11  1  0  0  0  0
 12 13  1  0  0  0  0
 13 17  1  0  0  0  0
 13 16  1  0  0  0  0
 18 11  1  0  0  0  0
 18 19  1  0  0  0  0
 19 24  1  0  0  0  0
 20 19  2  0  0  0  0
 20 25  1  0  0  0  0
 21 20  1  0  0  0  0
 22 23  1  0  0  0  0
 22 21  2  0  0  0  0
 23 18  2  0  0  0  0
 26 22  1  0  0  0  0
 27  1  1  0  0  0  0
 28 27  1  0  0  0  0
 29 30  1  0  0  0  0
 29  5  1  0  0  0  0
 31 30  1  0  0  0  0
 31 35  1  0  0  0  0
 32 31  1  0  0  0  0
 33 34  1  0  0  0  0
 33 31  1  0  0  0  0
 36 35  1  0  0  0  0
M  END
>  <minimizedAffinity>
-4.64408255

>  <minimizedRMSD>
0.8652668

$$$$
