
 OpenBabel03272508263D

 36 38  0  0  1  0  0  0  0  0999 V2000
   33.9260   28.8910   47.3170 C   0  0  2  0  0  0  0  0  0  0  0  0
   34.6470   28.1660   48.4290 C   0  0  2  0  0  0  0  0  0  0  0  0
   33.7250   28.0070   49.4150 O   0  0  0  0  0  0  0  0  0  0  0  0
   32.4480   28.0780   48.9220 C   0  0  0  0  0  0  0  0  0  0  0  0
   32.5500   28.2480   47.4060 C   0  0  1  0  0  0  0  0  0  0  0  0
   33.7540   29.9650   47.5680 H   0  0  0  0  0  0  0  0  0  0  0  0
   34.9590   27.1860   48.0440 H   0  0  0  0  0  0  0  0  0  0  0  0
   31.8120   27.2380   49.2080 H   0  0  0  0  0  0  0  0  0  0  0  0
   31.9780   29.0150   49.3020 H   0  0  0  0  0  0  0  0  0  0  0  0
   32.6010   27.1980   47.0250 H   0  0  0  0  0  0  0  0  0  0  0  0
   35.6850   30.4720   49.0230 C   0  0  1  0  0  0  0  0  0  0  0  0
   35.7820   29.0380   48.8700 C   0  0  1  0  0  0  0  0  0  0  0  0
   35.8770   29.5770   50.2590 C   0  0  0  0  0  0  0  0  0  0  0  0
   34.7670   31.0840   49.1350 H   0  0  0  0  0  0  0  0  0  0  0  0
   36.7640   28.6710   48.4470 H   0  0  0  0  0  0  0  0  0  0  0  0
   35.0230   29.4400   50.9520 H   0  0  0  0  0  0  0  0  0  0  0  0
   36.8590   29.5710   50.7620 H   0  0  0  0  0  0  0  0  0  0  0  0
   36.8870   31.3650   48.7860 C   0  0  0  0  0  0  0  0  0  0  0  0
   37.1060   32.4070   49.6900 C   0  0  0  0  0  0  0  0  0  0  0  0
   38.2020   33.2100   49.4130 C   0  0  0  0  0  0  0  0  0  0  0  0
   38.9970   32.9740   48.3200 N   0  0  0  0  0  0  0  0  0  0  0  0
   38.7430   31.9480   47.4670 C   0  0  0  0  0  0  0  0  0  0  0  0
   37.6810   31.1400   47.7060 N   0  0  0  0  0  0  0  0  0  0  0  0
   36.4820   32.5800   50.5360 H   0  0  0  0  0  0  0  0  0  0  0  0
   38.4700   34.0460   50.0420 H   0  0  0  0  0  0  0  0  0  0  0  0
   39.3500   31.7410   46.6040 H   0  0  0  0  0  0  0  0  0  0  0  0
   34.4820   28.7290   46.0760 O   0  0  0  0  0  0  0  0  0  0  0  0
   34.3780   29.5820   45.5790 H   0  0  0  0  0  0  0  0  0  0  0  0
   31.5420   29.0040   46.8930 O   0  0  0  0  0  0  0  0  0  0  0  0
   30.7510   28.3480   45.9810 C   0  0  0  0  0  2  0  0  0  0  0  0
   30.3880   27.0010   46.2930 N   0  0  0  0  0  4  0  0  0  0  0  0
   31.1270   26.5990   46.9300 H   0  0  0  0  0  0  0  0  0  0  0  0
   30.3620   26.1670   45.0720 C   0  0  0  0  0  2  0  0  0  0  0  0
   29.6640   26.6210   44.3610 H   0  0  0  0  0  0  0  0  0  0  0  0
   29.0780   26.8540   46.8780 C   0  0  0  0  0  2  0  0  0  0  0  0
   28.4670   26.0470   46.3760 H   0  0  0  0  0  0  0  0  0  0  0  0
  1  5  1  0  0  0  0
  1  6  1  1  0  0  0
  1  2  1  0  0  0  0
  2  7  1  6  0  0  0
  2 12  1  0  0  0  0
  2  3  1  0  0  0  0
  4  8  1  0  0  0  0
  4  9  1  0  0  0  0
  4  3  1  0  0  0  0
  5 10  1  6  0  0  0
  5  4  1  0  0  0  0
 11 14  1  6  0  0  0
 11 13  1  0  0  0  0
 12 15  1  6  0  0  0
 12 11  1  0  0  0  0
 12 13  1  0  0  0  0
 13 17  1  0  0  0  0
 13 16  1  0  0  0  0
 18 11  1  0  0  0  0
 18 19  1  0  0  0  0
 19 24  1  0  0  0  0
 20 19  2  0  0  0  0
 20 25  1  0  0  0  0
 21 20  1  0  0  0  0
 22 23  1  0  0  0  0
 22 21  2  0  0  0  0
 23 18  2  0  0  0  0
 26 22  1  0  0  0  0
 27  1  1  0  0  0  0
 28 27  1  0  0  0  0
 29  5  1  0  0  0  0
 30 31  1  0  0  0  0
 30 29  1  0  0  0  0
 31 35  1  0  0  0  0
 31 32  1  0  0  0  0
 33 31  1  0  0  0  0
 34 33  1  0  0  0  0
 36 35  1  0  0  0  0
M  END
>  <minimizedAffinity>
-4.5411334

>  <minimizedRMSD>
0.213953122

$$$$
