
 OpenBabel03272508263D

 36 38  0  0  1  0  0  0  0  0999 V2000
   34.0210   28.9390   47.3640 C   0  0  2  0  0  0  0  0  0  0  0  0
   34.7610   28.2250   48.4720 C   0  0  2  0  0  0  0  0  0  0  0  0
   33.8520   28.0690   49.4710 O   0  0  0  0  0  0  0  0  0  0  0  0
   32.5690   28.1310   48.9940 C   0  0  0  0  0  0  0  0  0  0  0  0
   32.6500   28.2910   47.4760 C   0  0  1  0  0  0  0  0  0  0  0  0
   33.8480   30.0140   47.6100 H   0  0  0  0  0  0  0  0  0  0  0  0
   35.0720   27.2440   48.0900 H   0  0  0  0  0  0  0  0  0  0  0  0
   31.9400   27.2900   49.2940 H   0  0  0  0  0  0  0  0  0  0  0  0
   32.0990   29.0680   49.3740 H   0  0  0  0  0  0  0  0  0  0  0  0
   32.7010   27.2380   47.1010 H   0  0  0  0  0  0  0  0  0  0  0  0
   35.7930   30.5390   49.0470 C   0  0  1  0  0  0  0  0  0  0  0  0
   35.8970   29.1060   48.8930 C   0  0  1  0  0  0  0  0  0  0  0  0
   36.0130   29.6470   50.2790 C   0  0  0  0  0  0  0  0  0  0  0  0
   34.8720   31.1450   49.1750 H   0  0  0  0  0  0  0  0  0  0  0  0
   36.8730   28.7450   48.4520 H   0  0  0  0  0  0  0  0  0  0  0  0
   35.1730   29.5040   50.9870 H   0  0  0  0  0  0  0  0  0  0  0  0
   37.0040   29.6480   50.7640 H   0  0  0  0  0  0  0  0  0  0  0  0
   36.9830   31.4410   48.7870 C   0  0  0  0  0  0  0  0  0  0  0  0
   37.2000   32.4970   49.6750 C   0  0  0  0  0  0  0  0  0  0  0  0
   38.2850   33.3070   49.3780 C   0  0  0  0  0  0  0  0  0  0  0  0
   39.0740   33.0640   48.2820 N   0  0  0  0  0  0  0  0  0  0  0  0
   38.8240   32.0230   47.4460 C   0  0  0  0  0  0  0  0  0  0  0  0
   37.7710   31.2080   47.7040 N   0  0  0  0  0  0  0  0  0  0  0  0
   36.5800   32.6760   50.5240 H   0  0  0  0  0  0  0  0  0  0  0  0
   38.5490   34.1540   49.9930 H   0  0  0  0  0  0  0  0  0  0  0  0
   39.4260   31.8100   46.5810 H   0  0  0  0  0  0  0  0  0  0  0  0
   34.5620   28.7710   46.1180 O   0  0  0  0  0  0  0  0  0  0  0  0
   34.4480   29.6200   45.6160 H   0  0  0  0  0  0  0  0  0  0  0  0
   31.6320   29.0380   46.9710 O   0  0  0  0  0  0  0  0  0  0  0  0
   30.8180   28.3650   46.0940 C   0  0  0  0  0  2  0  0  0  0  0  0
   30.7550   26.9440   46.2340 N   0  0  0  0  0  4  0  0  0  0  0  0
   31.6090   26.6250   46.7650 H   0  0  0  0  0  0  0  0  0  0  0  0
   30.7940   26.2840   44.9090 C   0  0  0  0  0  2  0  0  0  0  0  0
   29.9630   26.6680   44.3090 H   0  0  0  0  0  0  0  0  0  0  0  0
   29.5520   26.4560   46.8620 C   0  0  0  0  0  2  0  0  0  0  0  0
   29.0730   25.6100   46.2870 H   0  0  0  0  0  0  0  0  0  0  0  0
  1  5  1  0  0  0  0
  1  6  1  1  0  0  0
  1  2  1  0  0  0  0
  2  7  1  6  0  0  0
  2 12  1  0  0  0  0
  2  3  1  0  0  0  0
  4  8  1  0  0  0  0
  4  9  1  0  0  0  0
  4  3  1  0  0  0  0
  5 10  1  6  0  0  0
  5  4  1  0  0  0  0
 11 14  1  6  0  0  0
 11 13  1  0  0  0  0
 12 15  1  6  0  0  0
 12 11  1  0  0  0  0
 12 13  1  0  0  0  0
 13 17  1  0  0  0  0
 13 16  1  0  0  0  0
 18 11  1  0  0  0  0
 18 19  1  0  0  0  0
 19 24  1  0  0  0  0
 20 19  2  0  0  0  0
 20 25  1  0  0  0  0
 21 20  1  0  0  0  0
 22 23  1  0  0  0  0
 22 21  2  0  0  0  0
 23 18  2  0  0  0  0
 26 22  1  0  0  0  0
 27  1  1  0  0  0  0
 28 27  1  0  0  0  0
 29  5  1  0  0  0  0
 30 31  1  0  0  0  0
 30 29  1  0  0  0  0
 31 32  1  0  0  0  0
 31 35  1  0  0  0  0
 33 31  1  0  0  0  0
 34 33  1  0  0  0  0
 36 35  1  0  0  0  0
M  END
>  <minimizedAffinity>
-4.51545715

>  <minimizedRMSD>
0.171418473

$$$$
