
 OpenBabel03272508263D

 36 38  0  0  1  0  0  0  0  0999 V2000
   33.7990   28.8730   47.2540 C   0  0  2  0  0  0  0  0  0  0  0  0
   34.5510   28.0990   48.3130 C   0  0  2  0  0  0  0  0  0  0  0  0
   33.6570   27.8980   49.3170 O   0  0  0  0  0  0  0  0  0  0  0  0
   32.3670   27.9920   48.8640 C   0  0  0  0  0  0  0  0  0  0  0  0
   32.4260   28.2280   47.3550 C   0  0  1  0  0  0  0  0  0  0  0  0
   33.6370   29.9350   47.5560 H   0  0  0  0  0  0  0  0  0  0  0  0
   34.8490   27.1370   47.8770 H   0  0  0  0  0  0  0  0  0  0  0  0
   31.7370   27.1410   49.1310 H   0  0  0  0  0  0  0  0  0  0  0  0
   31.9090   28.9120   49.2980 H   0  0  0  0  0  0  0  0  0  0  0  0
   32.4640   27.1950   46.9270 H   0  0  0  0  0  0  0  0  0  0  0  0
   35.6020   30.3710   49.0080 C   0  0  1  0  0  0  0  0  0  0  0  0
   35.7000   28.9510   48.7590 C   0  0  1  0  0  0  0  0  0  0  0  0
   35.8530   29.4010   50.1740 C   0  0  0  0  0  0  0  0  0  0  0  0
   34.6860   30.9680   49.1990 H   0  0  0  0  0  0  0  0  0  0  0  0
   36.6630   28.6190   48.2700 H   0  0  0  0  0  0  0  0  0  0  0  0
   35.0310   29.2130   50.8930 H   0  0  0  0  0  0  0  0  0  0  0  0
   36.8570   29.3710   50.6320 H   0  0  0  0  0  0  0  0  0  0  0  0
   36.7870   31.2870   48.7750 C   0  0  0  0  0  0  0  0  0  0  0  0
   37.0350   32.2780   49.7290 C   0  0  0  0  0  0  0  0  0  0  0  0
   38.1140   33.1050   49.4560 C   0  0  0  0  0  0  0  0  0  0  0  0
   38.8670   32.9390   48.3210 N   0  0  0  0  0  0  0  0  0  0  0  0
   38.5870   31.9610   47.4220 C   0  0  0  0  0  0  0  0  0  0  0  0
   37.5400   31.1310   47.6550 N   0  0  0  0  0  0  0  0  0  0  0  0
   36.4430   32.3970   50.6070 H   0  0  0  0  0  0  0  0  0  0  0  0
   38.4000   33.9060   50.1210 H   0  0  0  0  0  0  0  0  0  0  0  0
   39.1620   31.8090   46.5260 H   0  0  0  0  0  0  0  0  0  0  0  0
   34.3200   28.7650   45.9930 O   0  0  0  0  0  0  0  0  0  0  0  0
   34.2030   29.6380   45.5360 H   0  0  0  0  0  0  0  0  0  0  0  0
   31.4050   29.0060   46.9040 O   0  0  0  0  0  0  0  0  0  0  0  0
   30.1580   28.4540   47.0680 C   0  0  0  0  0  2  0  0  0  0  0  0
   29.1930   29.2380   47.7740 N   0  0  0  0  0  4  0  0  0  0  0  0
   29.6710   30.1100   48.1270 H   0  0  0  0  0  0  0  0  0  0  0  0
   28.6880   28.5080   48.9580 C   0  0  0  0  0  2  0  0  0  0  0  0
   28.2680   27.5550   48.6200 H   0  0  0  0  0  0  0  0  0  0  0  0
   28.0190   29.5740   47.0080 C   0  0  0  0  0  2  0  0  0  0  0  0
   27.0600   29.3610   47.5670 H   0  0  0  0  0  0  0  0  0  0  0  0
  1  5  1  0  0  0  0
  1  6  1  1  0  0  0
  1  2  1  0  0  0  0
  2  7  1  6  0  0  0
  2 12  1  0  0  0  0
  2  3  1  0  0  0  0
  4  8  1  0  0  0  0
  4  9  1  0  0  0  0
  4  3  1  0  0  0  0
  5 10  1  6  0  0  0
  5  4  1  0  0  0  0
 11 14  1  6  0  0  0
 11 13  1  0  0  0  0
 12 15  1  6  0  0  0
 12 11  1  0  0  0  0
 12 13  1  0  0  0  0
 13 17  1  0  0  0  0
 13 16  1  0  0  0  0
 18 11  1  0  0  0  0
 18 19  1  0  0  0  0
 19 24  1  0  0  0  0
 20 19  2  0  0  0  0
 20 25  1  0  0  0  0
 21 20  1  0  0  0  0
 22 23  1  0  0  0  0
 22 21  2  0  0  0  0
 23 18  2  0  0  0  0
 26 22  1  0  0  0  0
 27  1  1  0  0  0  0
 28 27  1  0  0  0  0
 29 30  1  0  0  0  0
 29  5  1  0  0  0  0
 30 31  1  0  0  0  0
 31 32  1  0  0  0  0
 31 33  1  0  0  0  0
 34 33  1  0  0  0  0
 35 36  1  0  0  0  0
 35 31  1  0  0  0  0
M  END
>  <minimizedAffinity>
-5.09493017

>  <minimizedRMSD>
1.30179274

$$$$
