
 OpenBabel03272508263D

 36 38  0  0  1  0  0  0  0  0999 V2000
   33.8330   28.8570   47.2220 C   0  0  2  0  0  0  0  0  0  0  0  0
   34.5330   28.1140   48.3360 C   0  0  2  0  0  0  0  0  0  0  0  0
   33.6040   27.9770   49.3190 O   0  0  0  0  0  0  0  0  0  0  0  0
   32.3310   28.0810   48.8220 C   0  0  0  0  0  0  0  0  0  0  0  0
   32.4420   28.2490   47.3070 C   0  0  1  0  0  0  0  0  0  0  0  0
   33.6870   29.9350   47.4730 H   0  0  0  0  0  0  0  0  0  0  0  0
   34.8210   27.1270   47.9510 H   0  0  0  0  0  0  0  0  0  0  0  0
   31.6730   27.2570   49.1060 H   0  0  0  0  0  0  0  0  0  0  0  0
   31.8830   29.0290   49.2020 H   0  0  0  0  0  0  0  0  0  0  0  0
   32.4680   27.1980   46.9250 H   0  0  0  0  0  0  0  0  0  0  0  0
   35.6020   30.3800   49.0230 C   0  0  1  0  0  0  0  0  0  0  0  0
   35.6880   28.9570   48.7810 C   0  0  1  0  0  0  0  0  0  0  0  0
   35.8420   29.4130   50.1940 C   0  0  0  0  0  0  0  0  0  0  0  0
   34.6910   30.9850   49.2090 H   0  0  0  0  0  0  0  0  0  0  0  0
   36.6500   28.6150   48.2960 H   0  0  0  0  0  0  0  0  0  0  0  0
   35.0160   29.2350   50.9120 H   0  0  0  0  0  0  0  0  0  0  0  0
   36.8440   29.3760   50.6550 H   0  0  0  0  0  0  0  0  0  0  0  0
   36.7950   31.2840   48.7900 C   0  0  0  0  0  0  0  0  0  0  0  0
   37.0450   32.2810   49.7360 C   0  0  0  0  0  0  0  0  0  0  0  0
   38.1320   33.0980   49.4620 C   0  0  0  0  0  0  0  0  0  0  0  0
   38.8910   32.9160   48.3330 N   0  0  0  0  0  0  0  0  0  0  0  0
   38.6080   31.9320   47.4410 C   0  0  0  0  0  0  0  0  0  0  0  0
   37.5540   31.1120   47.6750 N   0  0  0  0  0  0  0  0  0  0  0  0
   36.4490   32.4130   50.6090 H   0  0  0  0  0  0  0  0  0  0  0  0
   38.4210   33.9030   50.1220 H   0  0  0  0  0  0  0  0  0  0  0  0
   39.1870   31.7670   46.5500 H   0  0  0  0  0  0  0  0  0  0  0  0
   34.3890   28.6830   45.9830 O   0  0  0  0  0  0  0  0  0  0  0  0
   34.3070   29.5380   45.4860 H   0  0  0  0  0  0  0  0  0  0  0  0
   31.4540   29.0300   46.7920 O   0  0  0  0  0  0  0  0  0  0  0  0
   30.8990   28.5470   45.6320 C   0  0  0  0  0  2  0  0  0  0  0  0
   31.7040   28.6190   44.4520 N   0  0  0  0  0  4  0  0  0  0  0  0
   32.6630   28.9600   44.7280 H   0  0  0  0  0  0  0  0  0  0  0  0
   31.1490   29.6030   43.4970 C   0  0  0  0  0  2  0  0  0  0  0  0
   30.1170   29.3160   43.2670 H   0  0  0  0  0  0  0  0  0  0  0  0
   31.7940   27.3850   43.7130 C   0  0  0  0  0  2  0  0  0  0  0  0
   31.5960   27.5250   42.6100 H   0  0  0  0  0  0  0  0  0  0  0  0
  1  5  1  0  0  0  0
  1  6  1  1  0  0  0
  1  2  1  0  0  0  0
  2  7  1  6  0  0  0
  2 12  1  0  0  0  0
  2  3  1  0  0  0  0
  4  8  1  0  0  0  0
  4  9  1  0  0  0  0
  4  3  1  0  0  0  0
  5 10  1  6  0  0  0
  5  4  1  0  0  0  0
 11 14  1  6  0  0  0
 11 13  1  0  0  0  0
 12 15  1  6  0  0  0
 12 11  1  0  0  0  0
 12 13  1  0  0  0  0
 13 17  1  0  0  0  0
 13 16  1  0  0  0  0
 18 11  1  0  0  0  0
 18 19  1  0  0  0  0
 19 24  1  0  0  0  0
 20 19  2  0  0  0  0
 20 25  1  0  0  0  0
 21 20  1  0  0  0  0
 22 23  1  0  0  0  0
 22 21  2  0  0  0  0
 23 18  2  0  0  0  0
 26 22  1  0  0  0  0
 27  1  1  0  0  0  0
 28 27  1  0  0  0  0
 29  5  1  0  0  0  0
 30 29  1  0  0  0  0
 31 32  1  0  0  0  0
 31 30  1  0  0  0  0
 33 31  1  0  0  0  0
 34 33  1  0  0  0  0
 35 31  1  0  0  0  0
 36 35  1  0  0  0  0
M  END
>  <minimizedAffinity>
-4.38193083

>  <minimizedRMSD>
0.581147552

$$$$
