
 OpenBabel03272508263D

 36 38  0  0  1  0  0  0  0  0999 V2000
   33.8820   28.8890   47.2490 C   0  0  2  0  0  0  0  0  0  0  0  0
   34.5850   28.1400   48.3560 C   0  0  2  0  0  0  0  0  0  0  0  0
   33.6560   27.9890   49.3380 O   0  0  0  0  0  0  0  0  0  0  0  0
   32.3830   28.0900   48.8400 C   0  0  0  0  0  0  0  0  0  0  0  0
   32.4940   28.2730   47.3270 C   0  0  1  0  0  0  0  0  0  0  0  0
   33.7300   29.9640   47.5100 H   0  0  0  0  0  0  0  0  0  0  0  0
   34.8790   27.1580   47.9630 H   0  0  0  0  0  0  0  0  0  0  0  0
   31.7300   27.2600   49.1160 H   0  0  0  0  0  0  0  0  0  0  0  0
   31.9290   29.0320   49.2280 H   0  0  0  0  0  0  0  0  0  0  0  0
   32.5260   27.2250   46.9350 H   0  0  0  0  0  0  0  0  0  0  0  0
   35.6420   30.4050   49.0630 C   0  0  1  0  0  0  0  0  0  0  0  0
   35.7350   28.9860   48.8110 C   0  0  1  0  0  0  0  0  0  0  0  0
   35.8840   29.4310   50.2270 C   0  0  0  0  0  0  0  0  0  0  0  0
   34.7270   31.0050   49.2520 H   0  0  0  0  0  0  0  0  0  0  0  0
   36.7000   28.6520   48.3250 H   0  0  0  0  0  0  0  0  0  0  0  0
   35.0580   29.2430   50.9420 H   0  0  0  0  0  0  0  0  0  0  0  0
   36.8850   29.3950   50.6900 H   0  0  0  0  0  0  0  0  0  0  0  0
   36.8310   31.3180   48.8390 C   0  0  0  0  0  0  0  0  0  0  0  0
   37.0360   32.3500   49.7580 C   0  0  0  0  0  0  0  0  0  0  0  0
   38.1210   33.1720   49.4930 C   0  0  0  0  0  0  0  0  0  0  0  0
   38.9200   32.9620   48.3980 N   0  0  0  0  0  0  0  0  0  0  0  0
   38.6810   31.9430   47.5310 C   0  0  0  0  0  0  0  0  0  0  0  0
   37.6290   31.1180   47.7570 N   0  0  0  0  0  0  0  0  0  0  0  0
   36.4080   32.5040   50.6060 H   0  0  0  0  0  0  0  0  0  0  0  0
   38.3770   34.0030   50.1340 H   0  0  0  0  0  0  0  0  0  0  0  0
   39.2920   31.7570   46.6660 H   0  0  0  0  0  0  0  0  0  0  0  0
   34.4400   28.7290   46.0090 O   0  0  0  0  0  0  0  0  0  0  0  0
   34.3540   29.5880   45.5200 H   0  0  0  0  0  0  0  0  0  0  0  0
   31.5030   29.0530   46.8180 O   0  0  0  0  0  0  0  0  0  0  0  0
   30.8650   28.5160   45.7260 C   0  0  0  0  0  2  0  0  0  0  0  0
   31.6940   28.0650   44.6530 N   0  0  0  0  0  4  0  0  0  0  0  0
   32.6710   27.9260   45.0260 H   0  0  0  0  0  0  0  0  0  0  0  0
   31.7770   29.0880   43.5860 C   0  0  0  0  0  2  0  0  0  0  0  0
   30.7610   29.3120   43.2460 H   0  0  0  0  0  0  0  0  0  0  0  0
   31.2250   26.8700   43.9950 C   0  0  0  0  0  2  0  0  0  0  0  0
   31.2120   26.9710   42.8690 H   0  0  0  0  0  0  0  0  0  0  0  0
  1  5  1  0  0  0  0
  1  6  1  1  0  0  0
  1  2  1  0  0  0  0
  2  7  1  6  0  0  0
  2 12  1  0  0  0  0
  2  3  1  0  0  0  0
  4  8  1  0  0  0  0
  4  9  1  0  0  0  0
  4  3  1  0  0  0  0
  5 10  1  6  0  0  0
  5  4  1  0  0  0  0
 11 14  1  6  0  0  0
 11 13  1  0  0  0  0
 12 15  1  6  0  0  0
 12 11  1  0  0  0  0
 12 13  1  0  0  0  0
 13 17  1  0  0  0  0
 13 16  1  0  0  0  0
 18 11  1  0  0  0  0
 18 19  1  0  0  0  0
 19 24  1  0  0  0  0
 20 19  2  0  0  0  0
 20 25  1  0  0  0  0
 21 20  1  0  0  0  0
 22 23  1  0  0  0  0
 22 21  2  0  0  0  0
 23 18  2  0  0  0  0
 26 22  1  0  0  0  0
 27  1  1  0  0  0  0
 28 27  1  0  0  0  0
 29  5  1  0  0  0  0
 30 29  1  0  0  0  0
 31 32  1  0  0  0  0
 31 30  1  0  0  0  0
 33 31  1  0  0  0  0
 34 33  1  0  0  0  0
 35 31  1  0  0  0  0
 36 35  1  0  0  0  0
M  END
>  <minimizedAffinity>
-4.37471867

>  <minimizedRMSD>
0.563118041

$$$$
