
 OpenBabel03272503403D

 39 41  0  0  1  0  0  0  0  0999 V2000
   38.5260   31.0680   45.9670 C   0  0  0  0  0  0  0  0  0  0  0  0
   39.8240   31.2810   46.3410 C   0  0  0  0  0  0  0  0  0  0  0  0
   40.5020   31.4970   45.1340 C   0  0  0  0  0  0  0  0  0  0  0  0
   39.6390   31.4110   44.1190 N   0  0  0  0  0  0  0  0  0  0  0  0
   38.4340   31.1510   44.6240 N   0  0  0  0  0  0  0  0  0  0  0  0
   40.2630   31.2880   47.3450 H   0  0  0  0  0  0  0  0  0  0  0  0
   41.5840   31.6960   45.1450 H   0  0  0  0  0  0  0  0  0  0  0  0
   40.7650   30.3480   42.2170 C   0  0  2  0  0  0  0  0  0  0  0  0
   40.0170   31.5850   42.7360 C   0  0  1  0  0  0  0  0  0  0  0  0
   38.8470   31.5590   41.7960 C   0  0  0  0  0  0  0  0  0  0  0  0
   39.3280   31.1080   40.5780 O   0  0  0  0  0  0  0  0  0  0  0  0
   40.5910   30.6070   40.7210 C   0  0  0  0  0  0  0  0  0  0  0  0
   41.8150   30.3450   42.5190 H   0  0  0  0  0  0  0  0  0  0  0  0
   40.6040   32.5000   42.5980 H   0  0  0  0  0  0  0  0  0  0  0  0
   38.2880   32.4950   41.7390 H   0  0  0  0  0  0  0  0  0  0  0  0
   38.1380   30.7770   42.1710 H   0  0  0  0  0  0  0  0  0  0  0  0
   40.6780   29.6310   40.1950 H   0  0  0  0  0  0  0  0  0  0  0  0
   41.3960   31.2990   40.4090 H   0  0  0  0  0  0  0  0  0  0  0  0
   40.0250   29.2540   42.6030 O   0  0  0  0  0  0  0  0  0  0  0  0
   40.4590   28.0560   42.0670 C   0  0  0  0  0  0  0  0  0  0  0  0
   39.3640   27.1210   41.8550 N   0  0  0  0  0  0  0  0  0  0  0  0
   38.4820   27.6800   41.7130 H   0  0  0  0  0  0  0  0  0  0  0  0
   39.1490   26.3200   43.0460 C   0  0  0  0  0  0  0  0  0  0  0  0
   39.1780   26.9830   43.9210 H   0  0  0  0  0  0  0  0  0  0  0  0
   39.5760   26.2950   40.6930 C   0  0  0  0  0  0  0  0  0  0  0  0
   40.5340   26.4730   40.1750 H   0  0  0  0  0  0  0  0  0  0  0  0
   36.4430   30.6250   49.0560 C   0  0  0  0  0  0  0  0  0  0  0  0
   37.5250   30.8950   48.2370 C   0  0  0  0  0  0  0  0  0  0  0  0
   37.4190   30.7950   46.8720 C   0  0  0  0  0  0  0  0  0  0  0  0
   36.2270   30.4260   46.3640 N   0  0  0  0  0  0  0  0  0  0  0  0
   35.1680   30.1630   47.1820 C   0  0  0  0  0  0  0  0  0  0  0  0
   35.2610   30.2560   48.4930 N   0  0  0  0  0  0  0  0  0  0  0  0
   38.5150   31.1990   48.5870 H   0  0  0  0  0  0  0  0  0  0  0  0
   34.2360   29.8710   46.7150 H   0  0  0  0  0  0  0  0  0  0  0  0
   36.7290   30.7760   50.4130 O   0  0  0  0  0  0  0  0  0  0  0  0
   36.7970   29.7000   51.3120 C   0  0  0  0  0  0  0  0  0  0  0  0
   35.5330   29.1950   51.6240 F   0  0  0  0  0  0  0  0  0  0  0  0
   37.4510   30.1010   52.4360 F   0  0  0  0  0  0  0  0  0  0  0  0
   37.5400   28.6810   50.7220 F   0  0  0  0  0  0  0  0  0  0  0  0
  1  2  1  0  0  0  0
  1 29  1  0  0  0  0
  2  6  1  0  0  0  0
  3  7  1  0  0  0  0
  3  2  2  0  0  0  0
  4  5  1  0  0  0  0
  4  3  1  0  0  0  0
  5  1  2  0  0  0  0
  8 13  1  1  0  0  0
  8 19  1  0  0  0  0
  8  9  1  0  0  0  0
  9 14  1  6  0  0  0
  9  4  1  0  0  0  0
 10 16  1  0  0  0  0
 10  9  1  0  0  0  0
 11 12  1  0  0  0  0
 11 10  1  0  0  0  0
 12  8  1  0  0  0  0
 15 10  1  0  0  0  0
 17 12  1  0  0  0  0
 18 12  1  0  0  0  0
 20 19  1  0  0  0  0
 21 20  1  0  0  0  0
 21 23  1  0  0  0  0
 22 21  1  0  0  0  0
 23 24  1  0  0  0  0
 25 21  1  0  0  0  0
 26 25  1  0  0  0  0
 27 35  1  0  0  0  0
 28 33  1  0  0  0  0
 28 27  2  0  0  0  0
 29 28  1  0  0  0  0
 30 29  2  0  0  0  0
 30 31  1  0  0  0  0
 31 32  2  0  0  0  0
 32 27  1  0  0  0  0
 34 31  1  0  0  0  0
 35 36  1  0  0  0  0
 36 37  1  0  0  0  0
 36 38  1  0  0  0  0
 39 36  1  0  0  0  0
M  END
>  <minimizedAffinity>
-5.95843983

>  <minimizedRMSD>
0.870097339

$$$$
