
 OpenBabel03272508263D

 36 38  0  0  1  0  0  0  0  0999 V2000
   33.8020   28.8660   47.2070 C   0  0  2  0  0  0  0  0  0  0  0  0
   34.5080   28.1070   48.3070 C   0  0  2  0  0  0  0  0  0  0  0  0
   33.5860   27.9610   49.2950 O   0  0  0  0  0  0  0  0  0  0  0  0
   32.3100   28.0740   48.8090 C   0  0  0  0  0  0  0  0  0  0  0  0
   32.4100   28.2610   47.2950 C   0  0  1  0  0  0  0  0  0  0  0  0
   33.6610   29.9420   47.4730 H   0  0  0  0  0  0  0  0  0  0  0  0
   34.7910   27.1240   47.9080 H   0  0  0  0  0  0  0  0  0  0  0  0
   31.6520   27.2480   49.0860 H   0  0  0  0  0  0  0  0  0  0  0  0
   31.8670   29.0180   49.2030 H   0  0  0  0  0  0  0  0  0  0  0  0
   32.4300   27.2140   46.8990 H   0  0  0  0  0  0  0  0  0  0  0  0
   35.5900   30.3620   49.0110 C   0  0  1  0  0  0  0  0  0  0  0  0
   35.6690   28.9420   48.7540 C   0  0  1  0  0  0  0  0  0  0  0  0
   35.8320   29.3830   50.1710 C   0  0  0  0  0  0  0  0  0  0  0  0
   34.6820   30.9690   49.2070 H   0  0  0  0  0  0  0  0  0  0  0  0
   36.6270   28.6010   48.2610 H   0  0  0  0  0  0  0  0  0  0  0  0
   35.0090   29.2020   50.8910 H   0  0  0  0  0  0  0  0  0  0  0  0
   36.8360   29.3380   50.6260 H   0  0  0  0  0  0  0  0  0  0  0  0
   36.7850   31.2650   48.7790 C   0  0  0  0  0  0  0  0  0  0  0  0
   37.0370   32.2590   49.7280 C   0  0  0  0  0  0  0  0  0  0  0  0
   38.1260   33.0740   49.4560 C   0  0  0  0  0  0  0  0  0  0  0  0
   38.8840   32.8930   48.3280 N   0  0  0  0  0  0  0  0  0  0  0  0
   38.6010   31.9100   47.4330 C   0  0  0  0  0  0  0  0  0  0  0  0
   37.5440   31.0930   47.6650 N   0  0  0  0  0  0  0  0  0  0  0  0
   36.4400   32.3910   50.6010 H   0  0  0  0  0  0  0  0  0  0  0  0
   38.4150   33.8770   50.1180 H   0  0  0  0  0  0  0  0  0  0  0  0
   39.1790   31.7470   46.5420 H   0  0  0  0  0  0  0  0  0  0  0  0
   34.3490   28.7060   45.9630 O   0  0  0  0  0  0  0  0  0  0  0  0
   34.2660   29.5670   45.4770 H   0  0  0  0  0  0  0  0  0  0  0  0
   31.4210   29.0510   46.7960 O   0  0  0  0  0  0  0  0  0  0  0  0
   30.7540   28.5130   45.7230 C   0  0  0  0  0  2  0  0  0  0  0  0
   31.0420   29.0720   44.4400 N   0  0  0  0  0  4  0  0  0  0  0  0
   31.5730   29.9730   44.5830 H   0  0  0  0  0  0  0  0  0  0  0  0
   29.7930   29.4120   43.7220 C   0  0  0  0  0  2  0  0  0  0  0  0
   29.1850   28.5040   43.6420 H   0  0  0  0  0  0  0  0  0  0  0  0
   31.7610   28.1930   43.5510 C   0  0  0  0  0  2  0  0  0  0  0  0
   31.2920   28.1370   42.5230 H   0  0  0  0  0  0  0  0  0  0  0  0
  1  5  1  0  0  0  0
  1  6  1  1  0  0  0
  1  2  1  0  0  0  0
  2  7  1  6  0  0  0
  2 12  1  0  0  0  0
  2  3  1  0  0  0  0
  4  8  1  0  0  0  0
  4  9  1  0  0  0  0
  4  3  1  0  0  0  0
  5 10  1  6  0  0  0
  5  4  1  0  0  0  0
 11 14  1  6  0  0  0
 11 13  1  0  0  0  0
 12 15  1  6  0  0  0
 12 11  1  0  0  0  0
 12 13  1  0  0  0  0
 13 17  1  0  0  0  0
 13 16  1  0  0  0  0
 18 11  1  0  0  0  0
 18 19  1  0  0  0  0
 19 24  1  0  0  0  0
 20 19  2  0  0  0  0
 20 25  1  0  0  0  0
 21 20  1  0  0  0  0
 22 23  1  0  0  0  0
 22 21  2  0  0  0  0
 23 18  2  0  0  0  0
 26 22  1  0  0  0  0
 27  1  1  0  0  0  0
 28 27  1  0  0  0  0
 29  5  1  0  0  0  0
 30 29  1  0  0  0  0
 31 32  1  0  0  0  0
 31 30  1  0  0  0  0
 33 31  1  0  0  0  0
 34 33  1  0  0  0  0
 35 31  1  0  0  0  0
 36 35  1  0  0  0  0
M  END
>  <minimizedAffinity>
-4.38178778

>  <minimizedRMSD>
0.373549014

$$$$
