
 OpenBabel03272508263D

 36 38  0  0  1  0  0  0  0  0999 V2000
   33.8270   28.8630   47.2370 C   0  0  2  0  0  0  0  0  0  0  0  0
   34.5410   28.1140   48.3380 C   0  0  2  0  0  0  0  0  0  0  0  0
   33.6260   27.9740   49.3330 O   0  0  0  0  0  0  0  0  0  0  0  0
   32.3460   28.0810   48.8540 C   0  0  0  0  0  0  0  0  0  0  0  0
   32.4360   28.2560   47.3380 C   0  0  1  0  0  0  0  0  0  0  0  0
   33.6850   29.9400   47.4940 H   0  0  0  0  0  0  0  0  0  0  0  0
   34.8230   27.1280   47.9460 H   0  0  0  0  0  0  0  0  0  0  0  0
   31.6910   27.2570   49.1430 H   0  0  0  0  0  0  0  0  0  0  0  0
   31.9040   29.0280   49.2430 H   0  0  0  0  0  0  0  0  0  0  0  0
   32.4560   27.2060   46.9510 H   0  0  0  0  0  0  0  0  0  0  0  0
   35.6170   30.3720   49.0390 C   0  0  1  0  0  0  0  0  0  0  0  0
   35.7030   28.9550   48.7710 C   0  0  1  0  0  0  0  0  0  0  0  0
   35.8870   29.3870   50.1880 C   0  0  0  0  0  0  0  0  0  0  0  0
   34.7080   30.9710   49.2560 H   0  0  0  0  0  0  0  0  0  0  0  0
   36.6550   28.6250   48.2580 H   0  0  0  0  0  0  0  0  0  0  0  0
   35.0790   29.1940   50.9210 H   0  0  0  0  0  0  0  0  0  0  0  0
   36.9000   29.3460   50.6250 H   0  0  0  0  0  0  0  0  0  0  0  0
   36.8020   31.2860   48.7940 C   0  0  0  0  0  0  0  0  0  0  0  0
   37.0500   32.2880   49.7350 C   0  0  0  0  0  0  0  0  0  0  0  0
   38.1290   33.1130   49.4500 C   0  0  0  0  0  0  0  0  0  0  0  0
   38.8800   32.9330   48.3160 N   0  0  0  0  0  0  0  0  0  0  0  0
   38.6000   31.9430   47.4300 C   0  0  0  0  0  0  0  0  0  0  0  0
   37.5530   31.1160   47.6740 N   0  0  0  0  0  0  0  0  0  0  0  0
   36.4590   32.4180   50.6120 H   0  0  0  0  0  0  0  0  0  0  0  0
   38.4150   33.9220   50.1050 H   0  0  0  0  0  0  0  0  0  0  0  0
   39.1730   31.7800   46.5350 H   0  0  0  0  0  0  0  0  0  0  0  0
   34.3660   28.6920   45.9900 O   0  0  0  0  0  0  0  0  0  0  0  0
   34.2790   29.5490   45.4970 H   0  0  0  0  0  0  0  0  0  0  0  0
   31.4430   29.0390   46.8390 O   0  0  0  0  0  0  0  0  0  0  0  0
   30.6570   28.4240   45.8950 C   0  0  0  0  0  2  0  0  0  0  0  0
   31.0210   28.6200   44.5260 N   0  0  0  0  0  4  0  0  0  0  0  0
   31.7890   29.3420   44.4890 H   0  0  0  0  0  0  0  0  0  0  0  0
   29.8800   29.1560   43.7510 C   0  0  0  0  0  2  0  0  0  0  0  0
   29.0400   28.4620   43.8520 H   0  0  0  0  0  0  0  0  0  0  0  0
   31.4150   27.4180   43.8340 C   0  0  0  0  0  2  0  0  0  0  0  0
   30.8960   27.3010   42.8380 H   0  0  0  0  0  0  0  0  0  0  0  0
  1  5  1  0  0  0  0
  1  6  1  1  0  0  0
  1  2  1  0  0  0  0
  2  7  1  6  0  0  0
  2 12  1  0  0  0  0
  2  3  1  0  0  0  0
  4  8  1  0  0  0  0
  4  9  1  0  0  0  0
  4  3  1  0  0  0  0
  5 10  1  6  0  0  0
  5  4  1  0  0  0  0
 11 14  1  6  0  0  0
 11 13  1  0  0  0  0
 12 15  1  6  0  0  0
 12 11  1  0  0  0  0
 12 13  1  0  0  0  0
 13 17  1  0  0  0  0
 13 16  1  0  0  0  0
 18 11  1  0  0  0  0
 18 19  1  0  0  0  0
 19 24  1  0  0  0  0
 20 19  2  0  0  0  0
 20 25  1  0  0  0  0
 21 20  1  0  0  0  0
 22 23  1  0  0  0  0
 22 21  2  0  0  0  0
 23 18  2  0  0  0  0
 26 22  1  0  0  0  0
 27  1  1  0  0  0  0
 28 27  1  0  0  0  0
 29  5  1  0  0  0  0
 30 29  1  0  0  0  0
 31 30  1  0  0  0  0
 32 31  1  0  0  0  0
 33 34  1  0  0  0  0
 33 31  1  0  0  0  0
 35 31  1  0  0  0  0
 36 35  1  0  0  0  0
M  END
>  <minimizedAffinity>
-4.38815641

>  <minimizedRMSD>
0.35446313

$$$$
