
 OpenBabel03272503483D

 35 36  0  0  1  0  0  0  0  0999 V2000
   33.1260   27.3100   45.8620 C   0  0  1  0  0  0  0  0  0  0  0  0
   33.9230   27.4650   47.1770 C   0  0  2  0  0  0  0  0  0  0  0  0
   33.8130   26.2370   47.7510 O   0  0  0  0  0  0  0  0  0  0  0  0
   34.0670   25.3490   46.7240 C   0  0  0  0  0  0  0  0  0  0  0  0
   33.5110   25.9180   45.4630 C   0  0  2  0  0  0  0  0  0  0  0  0
   33.4920   28.0490   45.1300 H   0  0  0  0  0  0  0  0  0  0  0  0
   34.9500   27.7080   46.8180 H   0  0  0  0  0  0  0  0  0  0  0  0
   35.1570   25.1790   46.7170 H   0  0  0  0  0  0  0  0  0  0  0  0
   33.5600   24.3970   46.9780 H   0  0  0  0  0  0  0  0  0  0  0  0
   32.6070   25.3530   45.1540 H   0  0  0  0  0  0  0  0  0  0  0  0
   31.7790   27.5010   46.0890 O   0  0  0  0  0  0  0  0  0  0  0  0
   31.4230   26.8810   46.7510 H   0  0  0  0  0  0  0  0  0  0  0  0
   33.3230   28.5060   47.8230 O   0  0  0  0  0  0  0  0  0  0  0  0
   35.3550   29.8160   46.7670 O   0  0  0  0  0  0  0  0  0  0  0  0
   34.0960   29.9850   47.6070 P   0  0  1  0  0  0  0  0  0  0  0  0
   33.1050   31.0300   46.7140 O   0  0  0  0  0  0  0  0  0  0  0  0
   33.3440   31.0800   45.7740 H   0  0  0  0  0  0  0  0  0  0  0  0
   34.4060   30.6260   49.1560 O   0  0  0  0  0  0  0  0  0  0  0  0
   35.6310   30.5000   49.7750 C   0  0  0  0  0  0  0  0  0  0  0  0
   35.9690   29.4820   50.6950 C   0  0  0  0  0  0  0  0  0  0  0  0
   37.2490   29.4920   51.2350 C   0  0  0  0  0  0  0  0  0  0  0  0
   38.1140   30.4810   50.8500 N   0  0  0  0  0  0  0  0  0  0  0  0
   37.7580   31.4500   49.9620 C   0  0  0  0  0  0  0  0  0  0  0  0
   36.5090   31.4550   49.4230 N   0  0  0  0  0  0  0  0  0  0  0  0
   35.2050   28.7640   50.9150 H   0  0  0  0  0  0  0  0  0  0  0  0
   37.5090   28.7270   51.9280 H   0  0  0  0  0  0  0  0  0  0  0  0
   38.5080   32.1890   49.7190 H   0  0  0  0  0  0  0  0  0  0  0  0
   34.4550   25.9630   44.4510 O   0  0  0  0  0  0  0  0  0  0  0  0
   34.6220   24.7580   43.7930 C   0  0  0  0  0  0  0  0  0  0  0  0
   36.0010   24.5980   43.3660 N   0  0  0  0  0  0  0  0  0  0  0  0
   36.0700   23.9530   42.5480 H   0  0  0  0  0  0  0  0  0  0  0  0
   36.6080   25.8490   43.0000 C   0  0  0  0  0  0  0  0  0  0  0  0
   37.0910   26.3760   43.8600 H   0  0  0  0  0  0  0  0  0  0  0  0
   36.7960   24.0080   44.4350 C   0  0  0  0  0  0  0  0  0  0  0  0
   36.5260   22.9520   44.5460 H   0  0  0  0  0  0  0  0  0  0  0  0
  1  6  1  6  0  0  0
  1 11  1  0  0  0  0
  1  2  1  0  0  0  0
  2  7  1  6  0  0  0
  2  3  1  0  0  0  0
  2 13  1  0  0  0  0
  4  9  1  0  0  0  0
  4  3  1  0  0  0  0
  5 10  1  6  0  0  0
  5  1  1  0  0  0  0
  5  4  1  0  0  0  0
  8  4  1  0  0  0  0
 11 12  1  0  0  0  0
 15 14  2  6  0  0  0
 15 13  1  0  0  0  0
 15 18  1  0  0  0  0
 16 15  1  0  0  0  0
 17 16  1  0  0  0  0
 18 19  1  0  0  0  0
 19 20  1  0  0  0  0
 20 25  1  0  0  0  0
 20 21  2  0  0  0  0
 21 26  1  0  0  0  0
 22 21  1  0  0  0  0
 23 22  2  0  0  0  0
 24 19  2  0  0  0  0
 24 23  1  0  0  0  0
 27 23  1  0  0  0  0
 28  5  1  0  0  0  0
 29 28  1  0  0  0  0
 30 29  1  0  0  0  0
 30 34  1  0  0  0  0
 31 30  1  0  0  0  0
 32 30  1  0  0  0  0
 32 33  1  0  0  0  0
 34 35  1  0  0  0  0
M  END
>  <minimizedAffinity>
-3.88960719

>  <minimizedRMSD>
0.801190197

$$$$
