
 OpenBabel03272508083D

 22 22  0  0  0  0  0  0  0  0999 V2000
   38.3040   32.8400   48.0880 O   0  0  0  0  0  0  0  0  0  0  0  0
   38.3030   31.6650   47.1750 P   0  0  2  0  0  0  0  0  0  0  0  0
   37.2790   31.9380   45.8470 O   0  0  0  0  0  0  0  0  0  0  0  0
   36.7650   32.7810   45.9620 H   0  0  0  0  0  0  0  0  0  0  0  0
   37.9350   30.1890   47.9190 O   0  0  0  0  0  0  0  0  0  0  0  0
   37.1130   29.9680   51.5150 C   0  0  0  0  0  0  0  0  0  0  0  0
   37.8850   30.2810   50.3960 C   0  0  0  0  0  0  0  0  0  0  0  0
   37.3840   29.9850   49.1360 C   0  0  0  0  0  0  0  0  0  0  0  0
   36.1490   29.3960   49.0800 N   0  0  0  0  0  0  0  0  0  0  0  0
   35.4340   29.1090   50.1770 C   0  0  0  0  0  0  0  0  0  0  0  0
   35.9150   29.3940   51.3970 N   0  0  0  0  0  0  0  0  0  0  0  0
   37.5680   30.2270   52.4770 H   0  0  0  0  0  0  0  0  0  0  0  0
   38.8620   30.7430   50.3770 H   0  0  0  0  0  0  0  0  0  0  0  0
   34.4550   28.6420   50.1120 H   0  0  0  0  0  0  0  0  0  0  0  0
   39.8880   31.5240   46.5290 O   0  0  0  0  0  0  0  0  0  0  0  0
   39.8920   31.0380   45.2460 C   0  0  0  0  0  2  0  0  0  0  0  0
   40.5400   31.9250   44.2860 N   0  0  0  0  0  4  0  0  0  0  0  0
   41.5930   31.8150   44.3500 H   0  0  0  0  0  0  0  0  0  0  0  0
   40.0790   31.5140   42.9720 C   0  0  0  0  0  2  0  0  0  0  0  0
   40.8750   31.6290   42.2090 H   0  0  0  0  0  0  0  0  0  0  0  0
   40.1960   33.3050   44.4730 C   0  0  0  0  0  2  0  0  0  0  0  0
   40.0850   33.6170   45.5310 H   0  0  0  0  0  0  0  0  0  0  0  0
  2  5  1  0  0  0  0
  2  1  2  1  0  0  0
  3  4  1  0  0  0  0
  3  2  1  0  0  0  0
  5  8  1  0  0  0  0
  6 12  1  0  0  0  0
  7  6  2  0  0  0  0
  8  7  1  0  0  0  0
  9  8  2  0  0  0  0
  9 10  1  0  0  0  0
 10 11  2  0  0  0  0
 11  6  1  0  0  0  0
 13  7  1  0  0  0  0
 14 10  1  0  0  0  0
 15  2  1  0  0  0  0
 16 15  1  0  0  0  0
 17 18  1  0  0  0  0
 17 21  1  0  0  0  0
 17 16  1  0  0  0  0
 19 17  1  0  0  0  0
 20 19  1  0  0  0  0
 21 22  1  0  0  0  0
M  END
>  <minimizedAffinity>
-4.60101223

>  <minimizedRMSD>
0.853876472

$$$$
