
 OpenBabel03272502303D

 22 22  0  0  0  0  0  0  0  0999 V2000
   38.3690   31.0920   47.9350 C   0  0  0  0  0  0  0  0  0  0  0  0
   38.7850   32.3200   47.9460 C   0  0  0  0  0  0  0  0  0  0  0  0
   37.3030   30.2180   51.3930 C   0  0  0  0  0  0  0  0  0  0  0  0
   38.0060   30.8070   50.3400 C   0  0  0  0  0  0  0  0  0  0  0  0
   37.6550   30.5050   49.0360 C   0  0  0  0  0  0  0  0  0  0  0  0
   36.6310   29.6420   48.7920 N   0  0  0  0  0  0  0  0  0  0  0  0
   35.9830   29.0980   49.8570 C   0  0  0  0  0  0  0  0  0  0  0  0
   36.3070   29.3770   51.1400 N   0  0  0  0  0  0  0  0  0  0  0  0
   37.6390   30.5110   52.3750 H   0  0  0  0  0  0  0  0  0  0  0  0
   38.8340   31.5090   50.5100 H   0  0  0  0  0  0  0  0  0  0  0  0
   35.1500   28.3850   49.7360 H   0  0  0  0  0  0  0  0  0  0  0  0
   39.5430   32.8920   46.7950 C   0  0  0  0  0  0  0  0  0  0  0  0
   39.5370   33.9780   46.7520 H   0  0  0  0  0  0  0  0  0  0  0  0
   40.5850   32.4870   46.9440 H   0  0  0  0  0  0  0  0  0  0  0  0
   38.8310   32.2540   45.2540 S   0  0  0  0  0  0  0  0  0  0  0  0
   40.1120   31.8250   44.0520 C   0  0  0  0  0  0  0  0  0  0  0  0
   40.3020   30.3870   43.9630 N   0  0  0  0  0  0  0  0  0  0  0  0
   41.0500   30.0500   44.6090 H   0  0  0  0  0  0  0  0  0  0  0  0
   40.7390   30.0100   42.6300 C   0  0  0  0  0  0  0  0  0  0  0  0
   41.0530   28.9320   42.6730 H   0  0  0  0  0  0  0  0  0  0  0  0
   39.0930   29.6640   44.3070 C   0  0  0  0  0  0  0  0  0  0  0  0
   39.1010   28.6560   43.8040 H   0  0  0  0  0  0  0  0  0  0  0  0
  1  2  2  0  0  0  0
  1  5  1  0  0  0  0
  3  9  1  0  0  0  0
  4 10  1  0  0  0  0
  4  3  2  0  0  0  0
  5  4  1  0  0  0  0
  6  5  2  0  0  0  0
  6  7  1  0  0  0  0
  7  8  2  0  0  0  0
  8  3  1  0  0  0  0
 11  7  1  0  0  0  0
 12 14  1  0  0  0  0
 12  2  1  0  0  0  0
 13 12  1  0  0  0  0
 15 12  1  0  0  0  0
 16 15  1  0  0  0  0
 17 16  1  0  0  0  0
 17 21  1  0  0  0  0
 17 18  1  0  0  0  0
 19 20  1  0  0  0  0
 19 17  1  0  0  0  0
 22 21  1  0  0  0  0
M  END
>  <minimizedAffinity>
-4.48309422

>  <minimizedRMSD>
0.918418705

$$$$
