
 OpenBabel03272506363D

 21 21  0  0  0  0  0  0  0  0999 V2000
   38.0770   32.1510   48.4660 C   0  0  0  0  0  0  0  0  0  0  0  0
   38.4660   32.9760   49.5330 C   0  0  0  0  0  0  0  0  0  0  0  0
   39.3720   33.9800   49.2810 C   0  0  0  0  0  0  0  0  0  0  0  0
   39.8470   34.1220   48.0100 N   0  0  0  0  0  0  0  0  0  0  0  0
   39.4570   33.3160   47.0050 C   0  0  0  0  0  0  0  0  0  0  0  0
   38.5730   32.3290   47.2250 N   0  0  0  0  0  0  0  0  0  0  0  0
   40.6720   32.3300   45.2070 C   0  0  0  0  0  0  0  0  0  0  0  0
   40.8580   31.2270   45.7920 O   0  0  0  0  0  0  0  0  0  0  0  0
   39.9780   33.4990   45.6860 N   0  0  0  0  0  0  0  0  0  0  0  0
   38.1350   32.9190   50.5410 H   0  0  0  0  0  0  0  0  0  0  0  0
   39.7240   34.6600   50.0490 H   0  0  0  0  0  0  0  0  0  0  0  0
   41.0990   32.4010   44.1930 H   0  0  0  0  0  0  0  0  0  0  0  0
   39.8450   34.3810   45.1830 H   0  0  0  0  0  0  0  0  0  0  0  0
   37.1570   31.1720   48.8400 O   0  0  0  0  0  0  0  0  0  0  0  0
   37.6150   29.9380   49.3560 C   0  0  0  0  0  0  0  0  0  0  0  0
   36.8160   29.4530   50.4360 N   0  0  0  0  0  0  0  0  0  0  0  0
   36.9690   28.4160   50.4790 H   0  0  0  0  0  0  0  0  0  0  0  0
   35.4150   29.6970   50.2160 C   0  0  0  0  0  0  0  0  0  0  0  0
   35.2590   30.6990   49.7370 H   0  0  0  0  0  0  0  0  0  0  0  0
   37.2820   30.0220   51.6740 C   0  0  0  0  0  0  0  0  0  0  0  0
   36.5200   30.6900   52.0980 H   0  0  0  0  0  0  0  0  0  0  0  0
  1 14  1  0  0  0  0
  1  2  1  0  0  0  0
  2 10  1  0  0  0  0
  3  2  2  0  0  0  0
  3 11  1  0  0  0  0
  4  3  1  0  0  0  0
  5  6  1  0  0  0  0
  5  4  2  0  0  0  0
  6  1  2  0  0  0  0
  7  9  1  0  0  0  0
  7  8  2  0  0  0  0
  9  5  1  0  0  0  0
 12  7  1  0  0  0  0
 13  9  1  0  0  0  0
 14 15  1  0  0  0  0
 15 16  1  0  0  0  0
 16 17  1  0  0  0  0
 16 20  1  0  0  0  0
 18 16  1  0  0  0  0
 19 18  1  0  0  0  0
 20 21  1  0  0  0  0
M  END
>  <minimizedAffinity>
-4.57897329

>  <minimizedRMSD>
4.9459343

$$$$
