
 OpenBabel03272503463D

 22 22  0  0  0  0  0  0  0  0999 V2000
   35.4750   30.1460   46.6540 O   0  0  0  0  0  0  0  0  0  0  0  0
   34.2040   30.0070   47.4690 P   0  0  2  0  0  0  0  0  0  0  0  0
   33.0380   30.9480   46.7020 O   0  0  0  0  0  0  0  0  0  0  0  0
   33.0850   30.8000   45.7210 H   0  0  0  0  0  0  0  0  0  0  0  0
   34.4270   30.5670   49.0800 O   0  0  0  0  0  0  0  0  0  0  0  0
   35.6390   30.4630   49.7490 C   0  0  0  0  0  0  0  0  0  0  0  0
   35.9680   29.4730   50.6720 C   0  0  0  0  0  0  0  0  0  0  0  0
   37.2340   29.5010   51.2640 C   0  0  0  0  0  0  0  0  0  0  0  0
   38.0780   30.5060   50.9000 N   0  0  0  0  0  0  0  0  0  0  0  0
   37.7370   31.4580   50.0010 C   0  0  0  0  0  0  0  0  0  0  0  0
   36.5090   31.4310   49.4260 N   0  0  0  0  0  0  0  0  0  0  0  0
   35.2360   28.7420   50.8800 H   0  0  0  0  0  0  0  0  0  0  0  0
   37.5030   28.7400   51.9820 H   0  0  0  0  0  0  0  0  0  0  0  0
   38.4510   32.2490   49.7380 H   0  0  0  0  0  0  0  0  0  0  0  0
   33.7410   28.3890   47.5950 O   0  0  0  0  0  0  0  0  0  0  0  0
   32.5050   28.1320   47.0560 C   0  0  0  0  0  0  0  0  0  0  0  0
   31.3840   28.5750   47.8310 N   0  0  0  0  0  0  0  0  0  0  0  0
   31.5200   29.5440   48.2200 H   0  0  0  0  0  0  0  0  0  0  0  0
   31.0480   27.6090   48.8530 C   0  0  0  0  0  0  0  0  0  0  0  0
   30.2450   26.9040   48.4900 H   0  0  0  0  0  0  0  0  0  0  0  0
   30.2350   28.6620   46.9240 C   0  0  0  0  0  0  0  0  0  0  0  0
   29.3930   29.2160   47.3680 H   0  0  0  0  0  0  0  0  0  0  0  0
  2  1  2  6  0  0  0
  2 15  1  0  0  0  0
  2  5  1  0  0  0  0
  3  2  1  0  0  0  0
  4  3  1  0  0  0  0
  5  6  1  0  0  0  0
  6  7  1  0  0  0  0
  7 12  1  0  0  0  0
  7  8  2  0  0  0  0
  8 13  1  0  0  0  0
  9  8  1  0  0  0  0
 10  9  2  0  0  0  0
 11  6  2  0  0  0  0
 11 10  1  0  0  0  0
 14 10  1  0  0  0  0
 16 15  1  0  0  0  0
 16 17  1  0  0  0  0
 17 18  1  0  0  0  0
 17 19  1  0  0  0  0
 20 19  1  0  0  0  0
 21 22  1  0  0  0  0
 21 17  1  0  0  0  0
M  END
>  <minimizedAffinity>
-4.166471

>  <minimizedRMSD>
1.17529726

$$$$
