
 OpenBabel03272506363D

 21 21  0  0  0  0  0  0  0  0999 V2000
   37.3760   30.6380   48.0430 C   0  0  0  0  0  0  0  0  0  0  0  0
   38.3900   30.7030   47.0740 C   0  0  0  0  0  0  0  0  0  0  0  0
   38.0260   30.6570   45.7490 C   0  0  0  0  0  0  0  0  0  0  0  0
   36.7000   30.5490   45.4420 N   0  0  0  0  0  0  0  0  0  0  0  0
   35.7480   30.4880   46.3920 C   0  0  0  0  0  0  0  0  0  0  0  0
   36.0780   30.5320   47.6930 N   0  0  0  0  0  0  0  0  0  0  0  0
   33.7630   29.1800   46.5580 C   0  0  0  0  0  0  0  0  0  0  0  0
   34.2860   28.2750   47.2650 O   0  0  0  0  0  0  0  0  0  0  0  0
   34.3700   30.3760   46.0300 N   0  0  0  0  0  0  0  0  0  0  0  0
   39.4350   30.7880   47.2450 H   0  0  0  0  0  0  0  0  0  0  0  0
   38.7460   30.7010   44.9390 H   0  0  0  0  0  0  0  0  0  0  0  0
   32.6970   29.0300   46.3170 H   0  0  0  0  0  0  0  0  0  0  0  0
   33.9140   31.0920   45.4570 H   0  0  0  0  0  0  0  0  0  0  0  0
   37.8630   30.6940   49.3470 O   0  0  0  0  0  0  0  0  0  0  0  0
   36.9860   31.0000   50.4130 C   0  0  0  0  0  2  0  0  0  0  0  0
   36.7410   29.8840   51.2730 N   0  0  0  0  0  4  0  0  0  0  0  0
   36.7260   30.2610   52.2530 H   0  0  0  0  0  0  0  0  0  0  0  0
   37.7860   28.9000   51.1810 C   0  0  0  0  0  2  0  0  0  0  0  0
   38.1360   28.7940   50.1190 H   0  0  0  0  0  0  0  0  0  0  0  0
   35.4420   29.3330   50.9890 C   0  0  0  0  0  2  0  0  0  0  0  0
   35.5400   28.3220   50.5710 H   0  0  0  0  0  0  0  0  0  0  0  0
  1 14  1  0  0  0  0
  2 10  1  0  0  0  0
  2  1  2  0  0  0  0
  3  2  1  0  0  0  0
  4  3  2  0  0  0  0
  4  5  1  0  0  0  0
  5  6  2  0  0  0  0
  6  1  1  0  0  0  0
  7  8  2  0  0  0  0
  9  5  1  0  0  0  0
  9  7  1  0  0  0  0
 11  3  1  0  0  0  0
 12  7  1  0  0  0  0
 13  9  1  0  0  0  0
 14 15  1  0  0  0  0
 15 16  1  0  0  0  0
 16 17  1  0  0  0  0
 18 16  1  0  0  0  0
 19 18  1  0  0  0  0
 20 16  1  0  0  0  0
 21 20  1  0  0  0  0
M  END
>  <minimizedAffinity>
-3.5073204

>  <minimizedRMSD>
2.91713166

$$$$
