
 OpenBabel03272501043D

 28 29  0  0  1  0  0  0  0  0999 V2000
   38.7930   31.9140   47.7860 C   0  0  2  0  0  0  0  0  0  0  0  0
   37.8250   32.4600   48.8630 C   0  0  2  0  0  0  0  0  0  0  0  0
   38.7440   33.3430   49.6030 C   0  0  0  0  0  0  0  0  0  0  0  0
   39.5480   33.9660   48.6530 O   0  0  0  0  0  0  0  0  0  0  0  0
   39.4930   33.2490   47.4890 C   0  0  0  0  0  0  0  0  0  0  0  0
   39.4710   31.2100   48.2620 H   0  0  0  0  0  0  0  0  0  0  0  0
   37.0880   33.0690   48.2620 H   0  0  0  0  0  0  0  0  0  0  0  0
   39.4500   32.6750   50.1750 H   0  0  0  0  0  0  0  0  0  0  0  0
   38.2670   34.0430   50.3140 H   0  0  0  0  0  0  0  0  0  0  0  0
   38.9760   33.7860   46.6600 H   0  0  0  0  0  0  0  0  0  0  0  0
   40.5240   32.9800   47.1780 H   0  0  0  0  0  0  0  0  0  0  0  0
   37.1660   29.7150   51.3760 C   0  0  0  0  0  0  0  0  0  0  0  0
   37.8490   30.7560   50.6930 C   0  0  0  0  0  0  0  0  0  0  0  0
   37.1880   31.4050   49.6180 C   0  0  0  0  0  0  0  0  0  0  0  0
   35.9160   30.9820   49.2980 N   0  0  0  0  0  0  0  0  0  0  0  0
   35.3090   30.0000   49.9640 C   0  0  0  0  0  0  0  0  0  0  0  0
   35.9170   29.3570   51.0040 N   0  0  0  0  0  0  0  0  0  0  0  0
   37.7560   29.2910   52.1760 H   0  0  0  0  0  0  0  0  0  0  0  0
   38.8580   31.0570   50.9800 H   0  0  0  0  0  0  0  0  0  0  0  0
   34.3030   29.6970   49.6810 H   0  0  0  0  0  0  0  0  0  0  0  0
   38.1160   31.4690   46.6760 O   0  0  0  0  0  0  0  0  0  0  0  0
   38.1900   32.2500   45.5580 C   0  0  0  0  0  0  0  0  0  0  0  0
   36.9900   31.9770   44.7670 N   0  0  0  0  0  0  0  0  0  0  0  0
   36.2260   32.5490   45.1540 H   0  0  0  0  0  0  0  0  0  0  0  0
   37.2840   32.4540   43.4160 C   0  0  0  0  0  0  0  0  0  0  0  0
   37.7940   31.5900   42.9080 H   0  0  0  0  0  0  0  0  0  0  0  0
   36.6440   30.5880   44.7540 C   0  0  0  0  0  0  0  0  0  0  0  0
   36.3250   30.3390   43.7080 H   0  0  0  0  0  0  0  0  0  0  0  0
  1  6  1  1  0  0  0
  1  2  1  0  0  0  0
  2  7  1  6  0  0  0
  2  3  1  0  0  0  0
  2 14  1  0  0  0  0
  3  8  1  0  0  0  0
  3  9  1  0  0  0  0
  4  3  1  0  0  0  0
  5  1  1  0  0  0  0
  5  4  1  0  0  0  0
 10  5  1  0  0  0  0
 11  5  1  0  0  0  0
 12 18  1  0  0  0  0
 13 19  1  0  0  0  0
 13 12  2  0  0  0  0
 14 13  1  0  0  0  0
 15 14  2  0  0  0  0
 15 16  1  0  0  0  0
 16 17  2  0  0  0  0
 17 12  1  0  0  0  0
 20 16  1  0  0  0  0
 21  1  1  0  0  0  0
 22 21  1  0  0  0  0
 23 24  1  0  0  0  0
 23 22  1  0  0  0  0
 25 23  1  0  0  0  0
 26 25  1  0  0  0  0
 27 23  1  0  0  0  0
 28 27  1  0  0  0  0
M  END
>  <minimizedAffinity>
-4.9344902

>  <minimizedRMSD>
2.10997152

$$$$
