
 OpenBabel03262521093D

 22 22  0  0  0  0  0  0  0  0999 V2000
   35.2340   29.7590   46.4330 O   0  0  0  0  0  0  0  0  0  0  0  0
   34.2480   29.3730   47.5070 P   0  0  1  0  0  0  0  0  0  0  0  0
   34.4440   27.7700   48.0080 O   0  0  0  0  0  0  0  0  0  0  0  0
   35.3590   27.4920   47.7510 H   0  0  0  0  0  0  0  0  0  0  0  0
   34.4220   30.3350   48.9240 O   0  0  0  0  0  0  0  0  0  0  0  0
   35.5970   30.3400   49.6700 C   0  0  0  0  0  0  0  0  0  0  0  0
   35.8900   29.4900   50.7350 C   0  0  0  0  0  0  0  0  0  0  0  0
   37.1260   29.6390   51.3730 C   0  0  0  0  0  0  0  0  0  0  0  0
   37.9750   30.5990   50.9240 N   0  0  0  0  0  0  0  0  0  0  0  0
   37.6550   31.4060   49.8860 C   0  0  0  0  0  0  0  0  0  0  0  0
   36.4680   31.2780   49.2580 N   0  0  0  0  0  0  0  0  0  0  0  0
   35.1440   28.7800   50.9920 H   0  0  0  0  0  0  0  0  0  0  0  0
   37.3490   28.9770   52.1990 H   0  0  0  0  0  0  0  0  0  0  0  0
   38.3730   32.1710   49.5540 H   0  0  0  0  0  0  0  0  0  0  0  0
   32.7000   29.6090   46.8610 O   0  0  0  0  0  0  0  0  0  0  0  0
   32.6420   30.6570   45.9810 C   0  0  0  0  0  0  0  0  0  0  0  0
   31.2750   30.6760   45.4360 N   0  0  0  0  0  0  0  0  0  0  0  0
   30.8460   31.6020   45.7290 H   0  0  0  0  0  0  0  0  0  0  0  0
   31.2650   30.5260   44.0110 C   0  0  0  0  0  0  0  0  0  0  0  0
   30.9610   29.4890   43.7570 H   0  0  0  0  0  0  0  0  0  0  0  0
   30.5120   29.6170   46.0380 C   0  0  0  0  0  0  0  0  0  0  0  0
   31.1120   28.7360   46.3420 H   0  0  0  0  0  0  0  0  0  0  0  0
  2  1  2  6  0  0  0
  2  3  1  0  0  0  0
  2  5  1  0  0  0  0
  4  3  1  0  0  0  0
  5  6  1  0  0  0  0
  6  7  1  0  0  0  0
  7 12  1  0  0  0  0
  7  8  2  0  0  0  0
  8 13  1  0  0  0  0
  9  8  1  0  0  0  0
 10  9  2  0  0  0  0
 11  6  2  0  0  0  0
 11 10  1  0  0  0  0
 14 10  1  0  0  0  0
 15  2  1  0  0  0  0
 16 15  1  0  0  0  0
 17 18  1  0  0  0  0
 17 16  1  0  0  0  0
 17 21  1  0  0  0  0
 19 17  1  0  0  0  0
 20 19  1  0  0  0  0
 21 22  1  0  0  0  0
M  END
>  <minimizedAffinity>
-3.52789879

>  <minimizedRMSD>
1.63803971

$$$$
