
 OpenBabel03272508093D

 22 22  0  0  0  0  0  0  0  0999 V2000
   39.8010   27.2270   34.0620 O   0  0  0  0  0  0  0  0  0  0  0  0
   38.5900   26.9340   34.8760 P   0  0  2  0  0  0  0  0  0  0  0  0
   38.6580   27.7450   36.3660 O   0  0  0  0  0  0  0  0  0  0  0  0
   39.5430   28.1810   36.4940 H   0  0  0  0  0  0  0  0  0  0  0  0
   38.2720   25.2870   35.1050 O   0  0  0  0  0  0  0  0  0  0  0  0
   39.7090   22.8260   37.4590 C   0  0  0  0  0  0  0  0  0  0  0  0
   39.5380   23.4810   36.2400 C   0  0  0  0  0  0  0  0  0  0  0  0
   38.6130   24.5130   36.1600 C   0  0  0  0  0  0  0  0  0  0  0  0
   37.9220   24.8180   37.3020 N   0  0  0  0  0  0  0  0  0  0  0  0
   38.1120   24.1670   38.4580 C   0  0  0  0  0  0  0  0  0  0  0  0
   39.0060   23.1690   38.5390 N   0  0  0  0  0  0  0  0  0  0  0  0
   40.4530   22.0230   37.4520 H   0  0  0  0  0  0  0  0  0  0  0  0
   40.0510   23.2850   35.3080 H   0  0  0  0  0  0  0  0  0  0  0  0
   37.5530   24.4240   39.3550 H   0  0  0  0  0  0  0  0  0  0  0  0
   37.2450   27.5960   34.0380 O   0  0  0  0  0  0  0  0  0  0  0  0
   37.3740   27.5000   32.6750 C   0  0  0  0  0  2  0  0  0  0  0  0
   37.6450   26.1450   32.2080 N   0  0  0  0  0  4  0  0  0  0  0  0
   38.1200   25.5890   32.9780 H   0  0  0  0  0  0  0  0  0  0  0  0
   36.3570   25.5530   31.8950 C   0  0  0  0  0  2  0  0  0  0  0  0
   36.3380   24.4710   32.1350 H   0  0  0  0  0  0  0  0  0  0  0  0
   38.4590   26.1060   31.0290 C   0  0  0  0  0  2  0  0  0  0  0  0
   39.2540   26.8770   30.9860 H   0  0  0  0  0  0  0  0  0  0  0  0
  2  1  2  6  0  0  0
  2  5  1  0  0  0  0
  2  3  1  0  0  0  0
  3  4  1  0  0  0  0
  5  8  1  0  0  0  0
  6 11  1  0  0  0  0
  7  6  2  0  0  0  0
  8  7  1  0  0  0  0
  8  9  2  0  0  0  0
  9 10  1  0  0  0  0
 10 11  2  0  0  0  0
 10 14  1  0  0  0  0
 12  6  1  0  0  0  0
 13  7  1  0  0  0  0
 15  2  1  0  0  0  0
 16 15  1  0  0  0  0
 17 16  1  0  0  0  0
 17 18  1  0  0  0  0
 19 20  1  0  0  0  0
 19 17  1  0  0  0  0
 21 17  1  0  0  0  0
 22 21  1  0  0  0  0
M  END
>  <minimizedAffinity>
-3.97543311

$$$$

 OpenBabel03272508093D

 22 22  0  0  0  0  0  0  0  0999 V2000
   36.8970   26.5250   34.9210 O   0  0  0  0  0  0  0  0  0  0  0  0
   38.2180   26.2250   35.5380 P   0  0  2  0  0  0  0  0  0  0  0  0
   38.8270   27.5900   36.3430 O   0  0  0  0  0  0  0  0  0  0  0  0
   38.2600   28.3890   36.1690 H   0  0  0  0  0  0  0  0  0  0  0  0
   39.3720   25.5970   34.4710 O   0  0  0  0  0  0  0  0  0  0  0  0
   42.6100   27.1930   33.6790 C   0  0  0  0  0  0  0  0  0  0  0  0
   41.2250   27.0360   33.6660 C   0  0  0  0  0  0  0  0  0  0  0  0
   40.6690   25.9570   34.3400 C   0  0  0  0  0  0  0  0  0  0  0  0
   41.5340   25.1100   34.9790 N   0  0  0  0  0  0  0  0  0  0  0  0
   42.8620   25.2910   34.9700 C   0  0  0  0  0  0  0  0  0  0  0  0
   43.4020   26.3340   34.3200 N   0  0  0  0  0  0  0  0  0  0  0  0
   42.9810   28.0640   33.1280 H   0  0  0  0  0  0  0  0  0  0  0  0
   40.4930   27.6690   33.1820 H   0  0  0  0  0  0  0  0  0  0  0  0
   43.5330   24.6070   35.4840 H   0  0  0  0  0  0  0  0  0  0  0  0
   37.9530   25.0390   36.7510 O   0  0  0  0  0  0  0  0  0  0  0  0
   38.2050   23.7660   36.3070 C   0  0  0  0  0  2  0  0  0  0  0  0
   38.6620   22.8620   37.3560 N   0  0  0  0  0  4  0  0  0  0  0  0
   38.0540   21.9920   37.3690 H   0  0  0  0  0  0  0  0  0  0  0  0
   40.0280   22.5020   37.0210 C   0  0  0  0  0  2  0  0  0  0  0  0
   40.2550   21.4550   37.3050 H   0  0  0  0  0  0  0  0  0  0  0  0
   38.6600   23.4600   38.6590 C   0  0  0  0  0  2  0  0  0  0  0  0
   37.8150   24.1510   38.8520 H   0  0  0  0  0  0  0  0  0  0  0  0
  2  1  2  6  0  0  0
  2  3  1  0  0  0  0
  2 15  1  0  0  0  0
  4  3  1  0  0  0  0
  5  2  1  0  0  0  0
  6 11  1  0  0  0  0
  7  6  2  0  0  0  0
  7  8  1  0  0  0  0
  8  5  1  0  0  0  0
  8  9  2  0  0  0  0
 10  9  1  0  0  0  0
 10 14  1  0  0  0  0
 11 10  2  0  0  0  0
 12  6  1  0  0  0  0
 13  7  1  0  0  0  0
 16 15  1  0  0  0  0
 16 17  1  0  0  0  0
 17 18  1  0  0  0  0
 17 21  1  0  0  0  0
 19 20  1  0  0  0  0
 19 17  1  0  0  0  0
 21 22  1  0  0  0  0
M  END
>  <minimizedAffinity>
-3.90760732

$$$$

 OpenBabel03272508093D

 22 22  0  0  0  0  0  0  0  0999 V2000
   39.8010   26.9520   35.0020 O   0  0  0  0  0  0  0  0  0  0  0  0
   38.3180   26.9590   35.1230 P   0  0  2  0  0  0  0  0  0  0  0  0
   37.7920   28.3320   35.9710 O   0  0  0  0  0  0  0  0  0  0  0  0
   38.5630   28.8370   36.3450 H   0  0  0  0  0  0  0  0  0  0  0  0
   37.6550   25.5520   35.7930 O   0  0  0  0  0  0  0  0  0  0  0  0
   38.7750   23.3840   38.5690 C   0  0  0  0  0  0  0  0  0  0  0  0
   38.0090   24.3670   37.9430 C   0  0  0  0  0  0  0  0  0  0  0  0
   38.2550   24.6550   36.6070 C   0  0  0  0  0  0  0  0  0  0  0  0
   39.2500   23.9450   35.9900 N   0  0  0  0  0  0  0  0  0  0  0  0
   39.9680   23.0060   36.6240 C   0  0  0  0  0  0  0  0  0  0  0  0
   39.7310   22.7250   37.9150 N   0  0  0  0  0  0  0  0  0  0  0  0
   38.5290   23.2080   39.6210 H   0  0  0  0  0  0  0  0  0  0  0  0
   37.2140   24.9590   38.3750 H   0  0  0  0  0  0  0  0  0  0  0  0
   40.7540   22.4520   36.1170 H   0  0  0  0  0  0  0  0  0  0  0  0
   37.6810   27.1100   33.5350 O   0  0  0  0  0  0  0  0  0  0  0  0
   37.2820   25.9070   33.0110 C   0  0  0  0  0  2  0  0  0  0  0  0
   38.3410   24.9060   32.9720 N   0  0  0  0  0  4  0  0  0  0  0  0
   38.8700   24.9080   33.8920 H   0  0  0  0  0  0  0  0  0  0  0  0
   37.6870   23.6240   32.7830 C   0  0  0  0  0  2  0  0  0  0  0  0
   38.2150   22.8140   33.3250 H   0  0  0  0  0  0  0  0  0  0  0  0
   39.2660   25.1040   31.8950 C   0  0  0  0  0  2  0  0  0  0  0  0
   39.4970   26.1650   31.6680 H   0  0  0  0  0  0  0  0  0  0  0  0
  2  1  2  6  0  0  0
  2  5  1  0  0  0  0
  2  3  1  0  0  0  0
  3  4  1  0  0  0  0
  5  8  1  0  0  0  0
  6 12  1  0  0  0  0
  7 13  1  0  0  0  0
  7  6  1  0  0  0  0
  8  7  2  0  0  0  0
  9  8  1  0  0  0  0
  9 10  2  0  0  0  0
 10 11  1  0  0  0  0
 11  6  2  0  0  0  0
 14 10  1  0  0  0  0
 15  2  1  0  0  0  0
 16 15  1  0  0  0  0
 17 16  1  0  0  0  0
 17 18  1  0  0  0  0
 19 17  1  0  0  0  0
 19 20  1  0  0  0  0
 21 17  1  0  0  0  0
 22 21  1  0  0  0  0
M  END
>  <minimizedAffinity>
-3.76746702

$$$$

 OpenBabel03272508093D

 22 22  0  0  0  0  0  0  0  0999 V2000
   38.8840   27.4390   35.9410 O   0  0  0  0  0  0  0  0  0  0  0  0
   39.5250   26.6010   34.8910 P   0  0  2  0  0  0  0  0  0  0  0  0
   41.2150   26.7510   34.9530 O   0  0  0  0  0  0  0  0  0  0  0  0
   41.4860   27.4590   35.5980 H   0  0  0  0  0  0  0  0  0  0  0  0
   38.9580   26.8770   33.3200 O   0  0  0  0  0  0  0  0  0  0  0  0
   36.2840   24.8750   31.7380 C   0  0  0  0  0  0  0  0  0  0  0  0
   36.8460   25.7560   32.6620 C   0  0  0  0  0  0  0  0  0  0  0  0
   38.1960   26.0630   32.5550 C   0  0  0  0  0  0  0  0  0  0  0  0
   38.8900   25.4700   31.5350 N   0  0  0  0  0  0  0  0  0  0  0  0
   38.3170   24.6280   30.6640 C   0  0  0  0  0  0  0  0  0  0  0  0
   37.0130   24.3290   30.7650 N   0  0  0  0  0  0  0  0  0  0  0  0
   35.2170   24.6770   31.8800 H   0  0  0  0  0  0  0  0  0  0  0  0
   36.3520   26.2530   33.4850 H   0  0  0  0  0  0  0  0  0  0  0  0
   38.8850   24.1670   29.8610 H   0  0  0  0  0  0  0  0  0  0  0  0
   39.1810   24.9620   35.2720 O   0  0  0  0  0  0  0  0  0  0  0  0
   38.1320   24.8340   36.1470 C   0  0  0  0  0  2  0  0  0  0  0  0
   38.1980   23.6270   36.9640 N   0  0  0  0  0  4  0  0  0  0  0  0
   37.4980   22.9140   36.6070 H   0  0  0  0  0  0  0  0  0  0  0  0
   39.5460   23.1090   36.8220 C   0  0  0  0  0  2  0  0  0  0  0  0
   39.5600   22.0000   36.8360 H   0  0  0  0  0  0  0  0  0  0  0  0
   37.9530   23.8740   38.3550 C   0  0  0  0  0  2  0  0  0  0  0  0
   37.1820   24.6440   38.5630 H   0  0  0  0  0  0  0  0  0  0  0  0
  2  3  1  0  0  0  0
  2 15  1  0  0  0  0
  2  1  2  1  0  0  0
  3  4  1  0  0  0  0
  5  2  1  0  0  0  0
  6 12  1  0  0  0  0
  6  7  1  0  0  0  0
  7 13  1  0  0  0  0
  8  7  2  0  0  0  0
  8  5  1  0  0  0  0
  9  8  1  0  0  0  0
 10 11  1  0  0  0  0
 10  9  2  0  0  0  0
 11  6  2  0  0  0  0
 14 10  1  0  0  0  0
 15 16  1  0  0  0  0
 16 17  1  0  0  0  0
 17 21  1  0  0  0  0
 18 17  1  0  0  0  0
 19 20  1  0  0  0  0
 19 17  1  0  0  0  0
 21 22  1  0  0  0  0
M  END
>  <minimizedAffinity>
-3.61263466

$$$$

 OpenBabel03272508093D

 22 22  0  0  0  0  0  0  0  0999 V2000
   34.8830   24.9950   30.5440 O   0  0  0  0  0  0  0  0  0  0  0  0
   36.1290   24.5950   31.2530 P   0  0  2  0  0  0  0  0  0  0  0  0
   37.3980   24.3610   30.1490 O   0  0  0  0  0  0  0  0  0  0  0  0
   37.0690   24.4140   29.2120 H   0  0  0  0  0  0  0  0  0  0  0  0
   35.9660   23.2510   32.2690 O   0  0  0  0  0  0  0  0  0  0  0  0
   35.0620   19.6940   31.8330 C   0  0  0  0  0  0  0  0  0  0  0  0
   34.9630   20.9840   32.3530 C   0  0  0  0  0  0  0  0  0  0  0  0
   35.8610   21.9490   31.9180 C   0  0  0  0  0  0  0  0  0  0  0  0
   36.7970   21.5600   30.9980 N   0  0  0  0  0  0  0  0  0  0  0  0
   36.8630   20.3090   30.5190 C   0  0  0  0  0  0  0  0  0  0  0  0
   35.9960   19.3740   30.9370 N   0  0  0  0  0  0  0  0  0  0  0  0
   34.3240   18.9830   32.2180 H   0  0  0  0  0  0  0  0  0  0  0  0
   34.2500   21.3510   33.0780 H   0  0  0  0  0  0  0  0  0  0  0  0
   37.6130   20.0180   29.7880 H   0  0  0  0  0  0  0  0  0  0  0  0
   36.5970   25.9210   32.2390 O   0  0  0  0  0  0  0  0  0  0  0  0
   36.0440   27.1060   31.8260 C   0  0  0  0  0  2  0  0  0  0  0  0
   36.6470   28.2800   32.4460 N   0  0  0  0  0  4  0  0  0  0  0  0
   37.6840   28.1120   32.5970 H   0  0  0  0  0  0  0  0  0  0  0  0
   36.4560   29.3790   31.5170 C   0  0  0  0  0  2  0  0  0  0  0  0
   37.3160   30.0780   31.5310 H   0  0  0  0  0  0  0  0  0  0  0  0
   36.0400   28.6340   33.6950 C   0  0  0  0  0  2  0  0  0  0  0  0
   35.7280   27.7740   34.3220 H   0  0  0  0  0  0  0  0  0  0  0  0
  2  1  2  6  0  0  0
  2 15  1  0  0  0  0
  2  5  1  0  0  0  0
  3  2  1  0  0  0  0
  4  3  1  0  0  0  0
  6 12  1  0  0  0  0
  6  7  1  0  0  0  0
  7 13  1  0  0  0  0
  8  5  1  0  0  0  0
  8  7  2  0  0  0  0
  9  8  1  0  0  0  0
 10 11  1  0  0  0  0
 10  9  2  0  0  0  0
 11  6  2  0  0  0  0
 14 10  1  0  0  0  0
 16 15  1  0  0  0  0
 16 17  1  0  0  0  0
 17 18  1  0  0  0  0
 17 21  1  0  0  0  0
 19 20  1  0  0  0  0
 19 17  1  0  0  0  0
 21 22  1  0  0  0  0
M  END
>  <minimizedAffinity>
-3.60319781

$$$$

 OpenBabel03272508093D

 22 22  0  0  0  0  0  0  0  0999 V2000
   38.2620   26.7770   36.9330 O   0  0  0  0  0  0  0  0  0  0  0  0
   38.2970   26.2530   35.5410 P   0  0  2  0  0  0  0  0  0  0  0  0
   39.7510   26.6810   34.7740 O   0  0  0  0  0  0  0  0  0  0  0  0
   40.2800   27.3060   35.3390 H   0  0  0  0  0  0  0  0  0  0  0  0
   36.9680   26.6870   34.5850 O   0  0  0  0  0  0  0  0  0  0  0  0
   36.3110   29.3050   32.0610 C   0  0  0  0  0  0  0  0  0  0  0  0
   36.1350   28.6070   33.2560 C   0  0  0  0  0  0  0  0  0  0  0  0
   36.9470   27.5120   33.5140 C   0  0  0  0  0  0  0  0  0  0  0  0
   37.8770   27.1880   32.5630 N   0  0  0  0  0  0  0  0  0  0  0  0
   38.0180   27.8820   31.4240 C   0  0  0  0  0  0  0  0  0  0  0  0
   37.2350   28.9420   31.1720 N   0  0  0  0  0  0  0  0  0  0  0  0
   35.6370   30.1570   31.9210 H   0  0  0  0  0  0  0  0  0  0  0  0
   35.4210   28.8130   34.0420 H   0  0  0  0  0  0  0  0  0  0  0  0
   38.7630   27.6100   30.6810 H   0  0  0  0  0  0  0  0  0  0  0  0
   38.3050   24.5380   35.6450 O   0  0  0  0  0  0  0  0  0  0  0  0
   38.3100   24.0900   36.9420 C   0  0  0  0  0  2  0  0  0  0  0  0
   38.8050   22.7250   37.0860 N   0  0  0  0  0  4  0  0  0  0  0  0
   38.1590   22.1760   37.7250 H   0  0  0  0  0  0  0  0  0  0  0  0
   38.7950   22.1420   35.7570 C   0  0  0  0  0  2  0  0  0  0  0  0
   38.5390   21.0640   35.7870 H   0  0  0  0  0  0  0  0  0  0  0  0
   40.1420   22.6610   37.5980 C   0  0  0  0  0  2  0  0  0  0  0  0
   40.3850   23.4230   38.3660 H   0  0  0  0  0  0  0  0  0  0  0  0
  2 15  1  0  0  0  0
  2  1  2  1  0  0  0
  3  4  1  0  0  0  0
  3  2  1  0  0  0  0
  5  2  1  0  0  0  0
  6  7  1  0  0  0  0
  7  8  2  0  0  0  0
  7 13  1  0  0  0  0
  8  5  1  0  0  0  0
  9  8  1  0  0  0  0
 10  9  2  0  0  0  0
 11 10  1  0  0  0  0
 11  6  2  0  0  0  0
 12  6  1  0  0  0  0
 14 10  1  0  0  0  0
 15 16  1  0  0  0  0
 16 17  1  0  0  0  0
 17 21  1  0  0  0  0
 17 18  1  0  0  0  0
 19 20  1  0  0  0  0
 19 17  1  0  0  0  0
 21 22  1  0  0  0  0
M  END
>  <minimizedAffinity>
-3.57354164

$$$$

 OpenBabel03272508093D

 22 22  0  0  0  0  0  0  0  0999 V2000
   37.6300   25.2650   36.4280 O   0  0  0  0  0  0  0  0  0  0  0  0
   38.4650   26.0950   35.5190 P   0  0  2  0  0  0  0  0  0  0  0  0
   38.8490   27.5810   36.2450 O   0  0  0  0  0  0  0  0  0  0  0  0
   38.3570   27.6960   37.1020 H   0  0  0  0  0  0  0  0  0  0  0  0
   37.8090   26.3370   33.9760 O   0  0  0  0  0  0  0  0  0  0  0  0
   36.2690   29.0570   32.0050 C   0  0  0  0  0  0  0  0  0  0  0  0
   37.0320   27.9110   32.2240 C   0  0  0  0  0  0  0  0  0  0  0  0
   37.1370   27.4160   33.5170 C   0  0  0  0  0  0  0  0  0  0  0  0
   36.4760   28.1010   34.5010 N   0  0  0  0  0  0  0  0  0  0  0  0
   35.7510   29.2020   34.2540 C   0  0  0  0  0  0  0  0  0  0  0  0
   35.6470   29.6810   33.0050 N   0  0  0  0  0  0  0  0  0  0  0  0
   36.2290   29.3920   30.9630 H   0  0  0  0  0  0  0  0  0  0  0  0
   37.5760   27.3290   31.4920 H   0  0  0  0  0  0  0  0  0  0  0  0
   35.2320   29.7320   35.0480 H   0  0  0  0  0  0  0  0  0  0  0  0
   39.9580   25.2720   35.3090 O   0  0  0  0  0  0  0  0  0  0  0  0
   39.8040   24.0460   34.7130 C   0  0  0  0  0  2  0  0  0  0  0  0
   39.1610   23.0560   35.5710 N   0  0  0  0  0  4  0  0  0  0  0  0
   38.5020   23.5420   36.2470 H   0  0  0  0  0  0  0  0  0  0  0  0
   38.4070   22.1800   34.6930 C   0  0  0  0  0  2  0  0  0  0  0  0
   37.4650   21.8400   35.1670 H   0  0  0  0  0  0  0  0  0  0  0  0
   40.0940   22.2590   36.3120 C   0  0  0  0  0  2  0  0  0  0  0  0
   40.9910   22.8040   36.6690 H   0  0  0  0  0  0  0  0  0  0  0  0
  2  3  1  0  0  0  0
  2  1  2  1  0  0  0
  3  4  1  0  0  0  0
  5  2  1  0  0  0  0
  6  7  2  0  0  0  0
  6 11  1  0  0  0  0
  7  8  1  0  0  0  0
  8  5  1  0  0  0  0
  8  9  2  0  0  0  0
 10  9  1  0  0  0  0
 10 14  1  0  0  0  0
 11 10  2  0  0  0  0
 12  6  1  0  0  0  0
 13  7  1  0  0  0  0
 15  2  1  0  0  0  0
 16 15  1  0  0  0  0
 16 17  1  0  0  0  0
 17 18  1  0  0  0  0
 17 21  1  0  0  0  0
 19 20  1  0  0  0  0
 19 17  1  0  0  0  0
 21 22  1  0  0  0  0
M  END
>  <minimizedAffinity>
-3.48996687

$$$$

 OpenBabel03272508093D

 22 22  0  0  0  0  0  0  0  0999 V2000
   37.0560   22.6660   36.8120 O   0  0  0  0  0  0  0  0  0  0  0  0
   38.3470   23.3510   37.0890 P   0  0  2  0  0  0  0  0  0  0  0  0
   38.9470   22.9080   38.6150 O   0  0  0  0  0  0  0  0  0  0  0  0
   38.2820   22.3610   39.1130 H   0  0  0  0  0  0  0  0  0  0  0  0
   38.3040   25.0360   36.9310 O   0  0  0  0  0  0  0  0  0  0  0  0
   39.4830   27.1500   34.1370 C   0  0  0  0  0  0  0  0  0  0  0  0
   39.5760   26.4550   35.3440 C   0  0  0  0  0  0  0  0  0  0  0  0
   38.4600   25.7710   35.8070 C   0  0  0  0  0  0  0  0  0  0  0  0
   37.3300   25.8280   35.0360 N   0  0  0  0  0  0  0  0  0  0  0  0
   37.2770   26.5060   33.8800 C   0  0  0  0  0  0  0  0  0  0  0  0
   38.3540   27.1680   33.4300 N   0  0  0  0  0  0  0  0  0  0  0  0
   40.3980   27.6670   33.8320 H   0  0  0  0  0  0  0  0  0  0  0  0
   40.4360   26.3740   35.9940 H   0  0  0  0  0  0  0  0  0  0  0  0
   36.3710   26.5400   33.2810 H   0  0  0  0  0  0  0  0  0  0  0  0
   39.4860   22.7650   35.9450 O   0  0  0  0  0  0  0  0  0  0  0  0
   38.8940   22.0710   34.9200 C   0  0  0  0  0  2  0  0  0  0  0  0
   38.2270   22.9250   33.9450 N   0  0  0  0  0  4  0  0  0  0  0  0
   37.7770   23.7500   34.4390 H   0  0  0  0  0  0  0  0  0  0  0  0
   39.2580   23.3960   33.0380 C   0  0  0  0  0  2  0  0  0  0  0  0
   39.0590   24.4320   32.6980 H   0  0  0  0  0  0  0  0  0  0  0  0
   37.2320   22.2350   33.1780 C   0  0  0  0  0  2  0  0  0  0  0  0
   36.6500   21.4780   33.7420 H   0  0  0  0  0  0  0  0  0  0  0  0
  2  1  2  6  0  0  0
  2  3  1  0  0  0  0
  3  4  1  0  0  0  0
  5  2  1  0  0  0  0
  6  7  1  0  0  0  0
  7  8  2  0  0  0  0
  7 13  1  0  0  0  0
  8  5  1  0  0  0  0
  9  8  1  0  0  0  0
 10  9  2  0  0  0  0
 11 10  1  0  0  0  0
 11  6  2  0  0  0  0
 12  6  1  0  0  0  0
 14 10  1  0  0  0  0
 15  2  1  0  0  0  0
 16 15  1  0  0  0  0
 17 18  1  0  0  0  0
 17 16  1  0  0  0  0
 19 17  1  0  0  0  0
 20 19  1  0  0  0  0
 21 22  1  0  0  0  0
 21 17  1  0  0  0  0
M  END
>  <minimizedAffinity>
-3.4598155

$$$$

 OpenBabel03272508093D

 22 22  0  0  0  0  0  0  0  0999 V2000
   38.6990   21.9580   35.9700 O   0  0  0  0  0  0  0  0  0  0  0  0
   39.0010   23.1150   36.8550 P   0  0  2  0  0  0  0  0  0  0  0  0
   37.7070   23.4140   37.9140 O   0  0  0  0  0  0  0  0  0  0  0  0
   36.9230   22.8460   37.6870 H   0  0  0  0  0  0  0  0  0  0  0  0
   39.4480   24.5320   36.0430 O   0  0  0  0  0  0  0  0  0  0  0  0
   37.2070   26.1880   33.6160 C   0  0  0  0  0  0  0  0  0  0  0  0
   37.9640   25.1480   34.1540 C   0  0  0  0  0  0  0  0  0  0  0  0
   38.6570   25.3700   35.3360 C   0  0  0  0  0  0  0  0  0  0  0  0
   38.5490   26.6150   35.8970 N   0  0  0  0  0  0  0  0  0  0  0  0
   37.8120   27.5920   35.3510 C   0  0  0  0  0  0  0  0  0  0  0  0
   37.1390   27.3800   34.2090 N   0  0  0  0  0  0  0  0  0  0  0  0
   36.6860   25.9460   32.6830 H   0  0  0  0  0  0  0  0  0  0  0  0
   38.0880   24.1490   33.7590 H   0  0  0  0  0  0  0  0  0  0  0  0
   37.7380   28.5740   35.8110 H   0  0  0  0  0  0  0  0  0  0  0  0
   40.3280   22.6610   37.8470 O   0  0  0  0  0  0  0  0  0  0  0  0
   41.2190   21.8470   37.1940 C   0  0  0  0  0  2  0  0  0  0  0  0
   41.8100   22.4590   36.0090 N   0  0  0  0  0  4  0  0  0  0  0  0
   41.1390   23.1740   35.6030 H   0  0  0  0  0  0  0  0  0  0  0  0
   43.0250   23.1190   36.4520 C   0  0  0  0  0  2  0  0  0  0  0  0
   43.2080   24.0560   35.8890 H   0  0  0  0  0  0  0  0  0  0  0  0
   42.1570   21.5080   34.9950 C   0  0  0  0  0  2  0  0  0  0  0  0
   41.4480   20.6620   34.8870 H   0  0  0  0  0  0  0  0  0  0  0  0
  2  1  2  6  0  0  0
  2 15  1  0  0  0  0
  2  3  1  0  0  0  0
  4  3  1  0  0  0  0
  5  2  1  0  0  0  0
  6  7  2  0  0  0  0
  6 11  1  0  0  0  0
  7  8  1  0  0  0  0
  8  9  2  0  0  0  0
  8  5  1  0  0  0  0
 10 14  1  0  0  0  0
 10  9  1  0  0  0  0
 11 10  2  0  0  0  0
 12  6  1  0  0  0  0
 13  7  1  0  0  0  0
 16 15  1  0  0  0  0
 17 19  1  0  0  0  0
 17 16  1  0  0  0  0
 18 17  1  0  0  0  0
 20 19  1  0  0  0  0
 21 17  1  0  0  0  0
 22 21  1  0  0  0  0
M  END
>  <minimizedAffinity>
-3.40068436

$$$$
