
 OpenBabel03262522123D

 28 29  0  0  0  0  0  0  0  0999 V2000
   37.1390   26.6250   33.5680 C   0  0  0  0  0  0  0  0  0  0  0  0
   37.3010   27.6870   34.4450 C   0  0  0  0  0  0  0  0  0  0  0  0
   38.0100   27.5040   35.6130 C   0  0  0  0  0  0  0  0  0  0  0  0
   38.5190   26.2380   35.8260 C   0  0  0  0  0  0  0  0  0  0  0  0
   38.3490   25.2050   34.9560 C   0  0  0  0  0  0  0  0  0  0  0  0
   37.6540   25.3920   33.8120 N   0  0  0  0  0  0  0  0  0  0  0  0
   36.9020   28.6720   34.2700 H   0  0  0  0  0  0  0  0  0  0  0  0
   38.1680   28.3080   36.3360 H   0  0  0  0  0  0  0  0  0  0  0  0
   39.0780   26.0820   36.7420 H   0  0  0  0  0  0  0  0  0  0  0  0
   36.3810   26.8800   32.3520 C   0  0  0  0  0  0  0  0  0  0  0  0
   35.9770   25.9500   31.6410 O   0  0  0  0  0  0  0  0  0  0  0  0
   34.8780   28.8290   32.3700 C   0  0  0  0  0  0  0  0  0  0  0  0
   36.0560   28.2250   31.9000 C   0  0  0  0  0  0  0  0  0  0  0  0
   36.8390   28.9590   31.0290 C   0  0  0  0  0  0  0  0  0  0  0  0
   36.4670   30.2210   30.6490 N   0  0  0  0  0  0  0  0  0  0  0  0
   35.3150   30.7560   31.1340 C   0  0  0  0  0  0  0  0  0  0  0  0
   34.5360   30.0830   31.9730 N   0  0  0  0  0  0  0  0  0  0  0  0
   34.2530   28.2740   33.0500 H   0  0  0  0  0  0  0  0  0  0  0  0
   37.7290   28.4510   30.7000 H   0  0  0  0  0  0  0  0  0  0  0  0
   35.1840   31.7500   30.7290 H   0  0  0  0  0  0  0  0  0  0  0  0
   39.0220   23.5640   35.2590 S   0  0  0  0  0  0  0  0  0  0  0  0
   37.9280   22.8180   36.5160 C   0  0  0  0  0  2  0  0  0  0  0  0
   38.6550   22.6530   37.7670 N   0  0  0  0  0  4  0  0  0  0  0  0
   38.3970   21.7690   38.2240 H   0  0  0  0  0  0  0  0  0  0  0  0
   38.2930   23.7960   38.5900 C   0  0  0  0  0  2  0  0  0  0  0  0
   38.9570   23.8130   39.4530 H   0  0  0  0  0  0  0  0  0  0  0  0
   40.0710   22.7470   37.4310 C   0  0  0  0  0  2  0  0  0  0  0  0
   40.2470   22.2000   36.4680 H   0  0  0  0  0  0  0  0  0  0  0  0
  1  6  2  0  0  0  0
  1  2  1  0  0  0  0
  2  3  2  0  0  0  0
  3  4  1  0  0  0  0
  3  8  1  0  0  0  0
  4  9  1  0  0  0  0
  5 21  1  0  0  0  0
  5  4  2  0  0  0  0
  6  5  1  0  0  0  0
  7  2  1  0  0  0  0
 10  1  1  0  0  0  0
 11 10  2  0  0  0  0
 12 18  1  0  0  0  0
 13 10  1  0  0  0  0
 13 12  2  0  0  0  0
 14 13  1  0  0  0  0
 15 14  2  0  0  0  0
 15 16  1  0  0  0  0
 16 17  2  0  0  0  0
 17 12  1  0  0  0  0
 19 14  1  0  0  0  0
 20 16  1  0  0  0  0
 21 22  1  0  0  0  0
 22 23  1  0  0  0  0
 23 24  1  0  0  0  0
 23 25  1  0  0  0  0
 25 26  1  0  0  0  0
 27 23  1  0  0  0  0
 28 27  1  0  0  0  0
M  END
>  <minimizedAffinity>
-4.69543409

$$$$

 OpenBabel03262522123D

 28 29  0  0  0  0  0  0  0  0999 V2000
   37.1750   26.4250   33.1840 C   0  0  0  0  0  0  0  0  0  0  0  0
   37.1600   27.5690   33.9670 C   0  0  0  0  0  0  0  0  0  0  0  0
   37.6900   27.5310   35.2400 C   0  0  0  0  0  0  0  0  0  0  0  0
   38.2090   26.3190   35.6480 C   0  0  0  0  0  0  0  0  0  0  0  0
   38.2150   25.2040   34.8670 C   0  0  0  0  0  0  0  0  0  0  0  0
   37.6950   25.2490   33.6200 N   0  0  0  0  0  0  0  0  0  0  0  0
   36.7530   28.5120   33.6400 H   0  0  0  0  0  0  0  0  0  0  0  0
   37.7040   28.4040   35.8950 H   0  0  0  0  0  0  0  0  0  0  0  0
   38.6290   26.2770   36.6470 H   0  0  0  0  0  0  0  0  0  0  0  0
   36.6010   26.5290   31.8500 C   0  0  0  0  0  0  0  0  0  0  0  0
   35.5020   26.0240   31.5840 O   0  0  0  0  0  0  0  0  0  0  0  0
   38.5550   26.7870   30.3750 C   0  0  0  0  0  0  0  0  0  0  0  0
   37.2740   27.2200   30.7610 C   0  0  0  0  0  0  0  0  0  0  0  0
   36.7330   28.2880   30.0700 C   0  0  0  0  0  0  0  0  0  0  0  0
   37.4300   28.8880   29.0540 N   0  0  0  0  0  0  0  0  0  0  0  0
   38.6650   28.4270   28.7240 C   0  0  0  0  0  0  0  0  0  0  0  0
   39.2190   27.4040   29.3640 N   0  0  0  0  0  0  0  0  0  0  0  0
   38.9940   25.9560   30.9010 H   0  0  0  0  0  0  0  0  0  0  0  0
   35.7530   28.5790   30.4040 H   0  0  0  0  0  0  0  0  0  0  0  0
   39.0600   29.0170   27.9080 H   0  0  0  0  0  0  0  0  0  0  0  0
   38.8990   23.6350   35.4240 S   0  0  0  0  0  0  0  0  0  0  0  0
   37.7020   22.9940   36.6450 C   0  0  0  0  0  2  0  0  0  0  0  0
   38.3360   22.8990   37.9530 N   0  0  0  0  0  4  0  0  0  0  0  0
   37.9730   22.0920   38.4750 H   0  0  0  0  0  0  0  0  0  0  0  0
   38.0280   24.1470   38.6340 C   0  0  0  0  0  2  0  0  0  0  0  0
   38.6380   24.1970   39.5350 H   0  0  0  0  0  0  0  0  0  0  0  0
   39.7720   22.8410   37.7080 C   0  0  0  0  0  2  0  0  0  0  0  0
   39.9550   22.1850   36.8170 H   0  0  0  0  0  0  0  0  0  0  0  0
  1  6  2  0  0  0  0
  1  2  1  0  0  0  0
  2  3  2  0  0  0  0
  3  4  1  0  0  0  0
  3  8  1  0  0  0  0
  4  9  1  0  0  0  0
  5 21  1  0  0  0  0
  5  4  2  0  0  0  0
  6  5  1  0  0  0  0
  7  2  1  0  0  0  0
 10  1  1  0  0  0  0
 11 10  2  0  0  0  0
 12 13  1  0  0  0  0
 12 18  1  0  0  0  0
 13 10  1  0  0  0  0
 14 19  1  0  0  0  0
 14 13  2  0  0  0  0
 15 14  1  0  0  0  0
 16 15  2  0  0  0  0
 16 17  1  0  0  0  0
 17 12  2  0  0  0  0
 20 16  1  0  0  0  0
 21 22  1  0  0  0  0
 22 23  1  0  0  0  0
 23 24  1  0  0  0  0
 23 25  1  0  0  0  0
 25 26  1  0  0  0  0
 27 23  1  0  0  0  0
 28 27  1  0  0  0  0
M  END
>  <minimizedAffinity>
-4.64153528

$$$$

 OpenBabel03262522123D

 28 29  0  0  0  0  0  0  0  0999 V2000
   37.6350   22.1580   35.1370 C   0  0  0  0  0  0  0  0  0  0  0  0
   36.7200   21.4200   35.8720 C   0  0  0  0  0  0  0  0  0  0  0  0
   35.7240   20.7240   35.2200 C   0  0  0  0  0  0  0  0  0  0  0  0
   35.7150   20.8180   33.8430 C   0  0  0  0  0  0  0  0  0  0  0  0
   36.6210   21.5480   33.1350 C   0  0  0  0  0  0  0  0  0  0  0  0
   37.5950   22.2270   33.7810 N   0  0  0  0  0  0  0  0  0  0  0  0
   36.7350   21.3510   36.9480 H   0  0  0  0  0  0  0  0  0  0  0  0
   34.9800   20.1280   35.7520 H   0  0  0  0  0  0  0  0  0  0  0  0
   34.9370   20.2750   33.3190 H   0  0  0  0  0  0  0  0  0  0  0  0
   38.6620   22.8700   35.8820 C   0  0  0  0  0  0  0  0  0  0  0  0
   39.3720   22.2880   36.7140 O   0  0  0  0  0  0  0  0  0  0  0  0
   37.9980   25.2140   36.2330 C   0  0  0  0  0  0  0  0  0  0  0  0
   38.9160   24.2920   35.7010 C   0  0  0  0  0  0  0  0  0  0  0  0
   40.0120   24.8040   35.0320 C   0  0  0  0  0  0  0  0  0  0  0  0
   40.1810   26.1570   34.9020 N   0  0  0  0  0  0  0  0  0  0  0  0
   39.2620   27.0030   35.4370 C   0  0  0  0  0  0  0  0  0  0  0  0
   38.1960   26.5510   36.0860 N   0  0  0  0  0  0  0  0  0  0  0  0
   37.1370   24.8360   36.7580 H   0  0  0  0  0  0  0  0  0  0  0  0
   40.6820   24.0560   34.6450 H   0  0  0  0  0  0  0  0  0  0  0  0
   39.5570   28.0240   35.2380 H   0  0  0  0  0  0  0  0  0  0  0  0
   36.5870   21.6550   31.3390 S   0  0  0  0  0  0  0  0  0  0  0  0
   36.9510   23.4020   30.9520 C   0  0  0  0  0  2  0  0  0  0  0  0
   36.2240   24.2710   31.8660 N   0  0  0  0  0  4  0  0  0  0  0  0
   35.8410   23.7330   32.6540 H   0  0  0  0  0  0  0  0  0  0  0  0
   35.1620   24.8760   31.0770 C   0  0  0  0  0  2  0  0  0  0  0  0
   34.7150   25.6730   31.6690 H   0  0  0  0  0  0  0  0  0  0  0  0
   37.1590   25.3150   32.2680 C   0  0  0  0  0  2  0  0  0  0  0  0
   38.1650   24.8470   32.4340 H   0  0  0  0  0  0  0  0  0  0  0  0
  1  2  1  0  0  0  0
  1 10  1  0  0  0  0
  2  7  1  0  0  0  0
  3  8  1  0  0  0  0
  3  2  2  0  0  0  0
  4  3  1  0  0  0  0
  5  6  1  0  0  0  0
  5  4  2  0  0  0  0
  6  1  2  0  0  0  0
  9  4  1  0  0  0  0
 10 11  2  0  0  0  0
 12 18  1  0  0  0  0
 13 10  1  0  0  0  0
 13 12  2  0  0  0  0
 14 13  1  0  0  0  0
 15 14  2  0  0  0  0
 15 16  1  0  0  0  0
 16 17  2  0  0  0  0
 17 12  1  0  0  0  0
 19 14  1  0  0  0  0
 20 16  1  0  0  0  0
 21  5  1  0  0  0  0
 22 21  1  0  0  0  0
 22 23  1  0  0  0  0
 23 27  1  0  0  0  0
 23 24  1  0  0  0  0
 25 26  1  0  0  0  0
 25 23  1  0  0  0  0
 27 28  1  0  0  0  0
M  END
>  <minimizedAffinity>
-4.6039362

$$$$

 OpenBabel03262522123D

 28 29  0  0  0  0  0  0  0  0999 V2000
   38.0820   25.2080   35.6370 C   0  0  0  0  0  0  0  0  0  0  0  0
   38.2970   26.4700   36.1700 C   0  0  0  0  0  0  0  0  0  0  0  0
   38.0020   27.5880   35.4180 C   0  0  0  0  0  0  0  0  0  0  0  0
   37.4980   27.3550   34.1530 C   0  0  0  0  0  0  0  0  0  0  0  0
   37.2930   26.1090   33.6440 C   0  0  0  0  0  0  0  0  0  0  0  0
   37.5850   25.0190   34.3880 N   0  0  0  0  0  0  0  0  0  0  0  0
   38.6900   26.6420   37.1590 H   0  0  0  0  0  0  0  0  0  0  0  0
   38.1520   28.6030   35.7910 H   0  0  0  0  0  0  0  0  0  0  0  0
   37.2620   28.2270   33.5520 H   0  0  0  0  0  0  0  0  0  0  0  0
   38.4140   24.0690   36.4800 C   0  0  0  0  0  0  0  0  0  0  0  0
   37.5790   23.5790   37.2530 O   0  0  0  0  0  0  0  0  0  0  0  0
   40.0340   22.4980   37.4620 C   0  0  0  0  0  0  0  0  0  0  0  0
   39.7280   23.4440   36.4690 C   0  0  0  0  0  0  0  0  0  0  0  0
   40.7090   23.7220   35.5360 C   0  0  0  0  0  0  0  0  0  0  0  0
   41.9240   23.0920   35.5920 N   0  0  0  0  0  0  0  0  0  0  0  0
   42.1650   22.1840   36.5750 C   0  0  0  0  0  0  0  0  0  0  0  0
   41.2490   21.8900   37.4890 N   0  0  0  0  0  0  0  0  0  0  0  0
   39.2820   22.2660   38.1980 H   0  0  0  0  0  0  0  0  0  0  0  0
   40.4250   24.4520   34.7990 H   0  0  0  0  0  0  0  0  0  0  0  0
   43.1670   21.7930   36.4620 H   0  0  0  0  0  0  0  0  0  0  0  0
   36.6370   25.8350   31.9910 S   0  0  0  0  0  0  0  0  0  0  0  0
   36.4780   27.4970   31.2520 C   0  0  0  0  0  2  0  0  0  0  0  0
   37.1610   27.5320   29.9670 N   0  0  0  0  0  4  0  0  0  0  0  0
   36.7150   26.8900   29.3000 H   0  0  0  0  0  0  0  0  0  0  0  0
   38.5350   27.1390   30.2370 C   0  0  0  0  0  2  0  0  0  0  0  0
   39.1230   27.3360   29.3410 H   0  0  0  0  0  0  0  0  0  0  0  0
   37.1480   28.9250   29.5360 C   0  0  0  0  0  2  0  0  0  0  0  0
   36.1470   29.3660   29.7840 H   0  0  0  0  0  0  0  0  0  0  0  0
  1  2  1  0  0  0  0
  1 10  1  0  0  0  0
  2  7  1  0  0  0  0
  3  8  1  0  0  0  0
  3  2  2  0  0  0  0
  4  3  1  0  0  0  0
  5  4  2  0  0  0  0
  5  6  1  0  0  0  0
  6  1  2  0  0  0  0
  9  4  1  0  0  0  0
 10 11  2  0  0  0  0
 12 17  1  0  0  0  0
 12 18  1  0  0  0  0
 13 10  1  0  0  0  0
 13 12  2  0  0  0  0
 14 15  2  0  0  0  0
 14 13  1  0  0  0  0
 15 16  1  0  0  0  0
 16 17  2  0  0  0  0
 19 14  1  0  0  0  0
 20 16  1  0  0  0  0
 21  5  1  0  0  0  0
 22 21  1  0  0  0  0
 23 25  1  0  0  0  0
 23 22  1  0  0  0  0
 24 23  1  0  0  0  0
 26 25  1  0  0  0  0
 27 28  1  0  0  0  0
 27 23  1  0  0  0  0
M  END
>  <minimizedAffinity>
-4.59368277

$$$$

 OpenBabel03262522123D

 28 29  0  0  0  0  0  0  0  0999 V2000
   38.4480   24.3870   35.2220 C   0  0  0  0  0  0  0  0  0  0  0  0
   38.4630   25.1420   36.3840 C   0  0  0  0  0  0  0  0  0  0  0  0
   38.3970   26.5180   36.3040 C   0  0  0  0  0  0  0  0  0  0  0  0
   38.3200   27.0510   35.0330 C   0  0  0  0  0  0  0  0  0  0  0  0
   38.3070   26.2950   33.9010 C   0  0  0  0  0  0  0  0  0  0  0  0
   38.3710   24.9480   33.9870 N   0  0  0  0  0  0  0  0  0  0  0  0
   38.5230   24.7170   37.3730 H   0  0  0  0  0  0  0  0  0  0  0  0
   38.4050   27.1580   37.1880 H   0  0  0  0  0  0  0  0  0  0  0  0
   38.2680   28.1320   34.9570 H   0  0  0  0  0  0  0  0  0  0  0  0
   38.5190   22.9410   35.3720 C   0  0  0  0  0  0  0  0  0  0  0  0
   39.4280   22.4080   36.0240 O   0  0  0  0  0  0  0  0  0  0  0  0
   36.5440   21.4890   35.5900 C   0  0  0  0  0  0  0  0  0  0  0  0
   37.5440   22.0430   34.7720 C   0  0  0  0  0  0  0  0  0  0  0  0
   37.5340   21.6920   33.4350 C   0  0  0  0  0  0  0  0  0  0  0  0
   36.5810   20.8390   32.9440 N   0  0  0  0  0  0  0  0  0  0  0  0
   35.6370   20.3330   33.7810 C   0  0  0  0  0  0  0  0  0  0  0  0
   35.6130   20.6450   35.0720 N   0  0  0  0  0  0  0  0  0  0  0  0
   36.5340   21.7490   36.6350 H   0  0  0  0  0  0  0  0  0  0  0  0
   38.3190   22.1430   32.8540 H   0  0  0  0  0  0  0  0  0  0  0  0
   34.9750   19.6840   33.2240 H   0  0  0  0  0  0  0  0  0  0  0  0
   38.2060   27.0170   32.2560 S   0  0  0  0  0  0  0  0  0  0  0  0
   37.4080   25.7430   31.2180 C   0  0  0  0  0  2  0  0  0  0  0  0
   36.2270   26.3010   30.5740 N   0  0  0  0  0  4  0  0  0  0  0  0
   36.3720   26.3860   29.5600 H   0  0  0  0  0  0  0  0  0  0  0  0
   36.0190   27.6030   31.1870 C   0  0  0  0  0  2  0  0  0  0  0  0
   35.0430   27.9700   30.8740 H   0  0  0  0  0  0  0  0  0  0  0  0
   35.1160   25.4290   30.9360 C   0  0  0  0  0  2  0  0  0  0  0  0
   35.4690   24.3660   30.8990 H   0  0  0  0  0  0  0  0  0  0  0  0
  1 10  1  0  0  0  0
  1  2  1  0  0  0  0
  2  7  1  0  0  0  0
  3  2  2  0  0  0  0
  3  8  1  0  0  0  0
  4  3  1  0  0  0  0
  5  6  1  0  0  0  0
  5  4  2  0  0  0  0
  6  1  2  0  0  0  0
  9  4  1  0  0  0  0
 10 11  2  0  0  0  0
 12 18  1  0  0  0  0
 13 10  1  0  0  0  0
 13 12  2  0  0  0  0
 14 13  1  0  0  0  0
 15 14  2  0  0  0  0
 15 16  1  0  0  0  0
 16 17  2  0  0  0  0
 17 12  1  0  0  0  0
 19 14  1  0  0  0  0
 20 16  1  0  0  0  0
 21  5  1  0  0  0  0
 22 21  1  0  0  0  0
 23 27  1  0  0  0  0
 23 25  1  0  0  0  0
 23 22  1  0  0  0  0
 24 23  1  0  0  0  0
 26 25  1  0  0  0  0
 28 27  1  0  0  0  0
M  END
>  <minimizedAffinity>
-4.50584841

$$$$

 OpenBabel03262522123D

 28 29  0  0  0  0  0  0  0  0999 V2000
   38.1440   25.1760   35.4380 C   0  0  0  0  0  0  0  0  0  0  0  0
   38.2480   26.3710   36.1320 C   0  0  0  0  0  0  0  0  0  0  0  0
   37.9750   27.5600   35.4880 C   0  0  0  0  0  0  0  0  0  0  0  0
   37.6070   27.4630   34.1610 C   0  0  0  0  0  0  0  0  0  0  0  0
   37.5100   26.2810   33.4920 C   0  0  0  0  0  0  0  0  0  0  0  0
   37.7790   25.1200   34.1310 N   0  0  0  0  0  0  0  0  0  0  0  0
   38.5350   26.4380   37.1690 H   0  0  0  0  0  0  0  0  0  0  0  0
   38.0410   28.5270   35.9890 H   0  0  0  0  0  0  0  0  0  0  0  0
   37.3900   28.3920   33.6430 H   0  0  0  0  0  0  0  0  0  0  0  0
   38.4460   23.9560   36.1720 C   0  0  0  0  0  0  0  0  0  0  0  0
   37.5530   23.3140   36.7430 O   0  0  0  0  0  0  0  0  0  0  0  0
   40.0510   22.4250   37.2390 C   0  0  0  0  0  0  0  0  0  0  0  0
   39.7950   23.4220   36.2820 C   0  0  0  0  0  0  0  0  0  0  0  0
   40.8570   23.8360   35.5000 C   0  0  0  0  0  0  0  0  0  0  0  0
   42.1010   23.2850   35.6640 N   0  0  0  0  0  0  0  0  0  0  0  0
   42.2910   22.3230   36.6050 C   0  0  0  0  0  0  0  0  0  0  0  0
   41.2960   21.8990   37.3760 N   0  0  0  0  0  0  0  0  0  0  0  0
   39.2360   22.0880   37.8590 H   0  0  0  0  0  0  0  0  0  0  0  0
   40.6080   24.6000   34.7850 H   0  0  0  0  0  0  0  0  0  0  0  0
   43.3250   22.0080   36.5920 H   0  0  0  0  0  0  0  0  0  0  0  0
   37.0300   26.1830   31.7610 S   0  0  0  0  0  0  0  0  0  0  0  0
   35.9030   24.7500   31.6530 C   0  0  0  0  0  2  0  0  0  0  0  0
   36.6720   23.5150   31.6940 N   0  0  0  0  0  4  0  0  0  0  0  0
   37.0980   23.3810   32.6200 H   0  0  0  0  0  0  0  0  0  0  0  0
   37.6890   23.6460   30.6620 C   0  0  0  0  0  2  0  0  0  0  0  0
   38.1610   22.6740   30.5300 H   0  0  0  0  0  0  0  0  0  0  0  0
   35.7530   22.4490   31.3120 C   0  0  0  0  0  2  0  0  0  0  0  0
   34.7590   22.6450   31.7940 H   0  0  0  0  0  0  0  0  0  0  0  0
  1  2  1  0  0  0  0
  1 10  1  0  0  0  0
  2  7  1  0  0  0  0
  3  8  1  0  0  0  0
  3  2  2  0  0  0  0
  4  3  1  0  0  0  0
  5  6  1  0  0  0  0
  5  4  2  0  0  0  0
  6  1  2  0  0  0  0
  9  4  1  0  0  0  0
 10 13  1  0  0  0  0
 10 11  2  0  0  0  0
 12 17  1  0  0  0  0
 12 18  1  0  0  0  0
 13 12  2  0  0  0  0
 14 15  2  0  0  0  0
 14 13  1  0  0  0  0
 15 16  1  0  0  0  0
 16 17  2  0  0  0  0
 19 14  1  0  0  0  0
 20 16  1  0  0  0  0
 21  5  1  0  0  0  0
 22 23  1  0  0  0  0
 22 21  1  0  0  0  0
 23 24  1  0  0  0  0
 25 23  1  0  0  0  0
 26 25  1  0  0  0  0
 27 23  1  0  0  0  0
 27 28  1  0  0  0  0
M  END
>  <minimizedAffinity>
-4.49529314

$$$$

 OpenBabel03262522123D

 28 29  0  0  0  0  0  0  0  0999 V2000
   37.6340   25.5150   32.8400 C   0  0  0  0  0  0  0  0  0  0  0  0
   37.1790   26.8240   32.8110 C   0  0  0  0  0  0  0  0  0  0  0  0
   37.0270   27.5190   33.9930 C   0  0  0  0  0  0  0  0  0  0  0  0
   37.3500   26.8350   35.1480 C   0  0  0  0  0  0  0  0  0  0  0  0
   37.7950   25.5480   35.1590 C   0  0  0  0  0  0  0  0  0  0  0  0
   37.9420   24.8740   33.9970 N   0  0  0  0  0  0  0  0  0  0  0  0
   36.9300   27.3510   31.9050 H   0  0  0  0  0  0  0  0  0  0  0  0
   36.6740   28.5510   34.0250 H   0  0  0  0  0  0  0  0  0  0  0  0
   37.2350   27.3710   36.0840 H   0  0  0  0  0  0  0  0  0  0  0  0
   37.7730   24.8350   31.5600 C   0  0  0  0  0  0  0  0  0  0  0  0
   38.3430   25.3780   30.6040 O   0  0  0  0  0  0  0  0  0  0  0  0
   38.1690   22.4530   31.0820 C   0  0  0  0  0  0  0  0  0  0  0  0
   37.2570   23.4940   31.3260 C   0  0  0  0  0  0  0  0  0  0  0  0
   35.9130   23.1710   31.3280 C   0  0  0  0  0  0  0  0  0  0  0  0
   35.5040   21.8840   31.0990 N   0  0  0  0  0  0  0  0  0  0  0  0
   36.4310   20.9160   30.8680 C   0  0  0  0  0  0  0  0  0  0  0  0
   37.7300   21.1870   30.8570 N   0  0  0  0  0  0  0  0  0  0  0  0
   39.2210   22.6840   31.0760 H   0  0  0  0  0  0  0  0  0  0  0  0
   35.2590   24.0030   31.5190 H   0  0  0  0  0  0  0  0  0  0  0  0
   35.9290   19.9710   30.7090 H   0  0  0  0  0  0  0  0  0  0  0  0
   38.2080   24.6790   36.6800 S   0  0  0  0  0  0  0  0  0  0  0  0
   37.9190   22.9130   36.3200 C   0  0  0  0  0  2  0  0  0  0  0  0
   39.1180   22.1450   36.6240 N   0  0  0  0  0  4  0  0  0  0  0  0
   38.8760   21.1830   36.8940 H   0  0  0  0  0  0  0  0  0  0  0  0
   39.7730   22.8470   37.7170 C   0  0  0  0  0  2  0  0  0  0  0  0
   40.7640   22.4170   37.8470 H   0  0  0  0  0  0  0  0  0  0  0  0
   39.9660   22.2260   35.4410 C   0  0  0  0  0  2  0  0  0  0  0  0
   39.3170   22.1370   34.5300 H   0  0  0  0  0  0  0  0  0  0  0  0
  1  6  1  0  0  0  0
  2  1  2  0  0  0  0
  2  3  1  0  0  0  0
  3  8  1  0  0  0  0
  3  4  2  0  0  0  0
  4  5  1  0  0  0  0
  4  9  1  0  0  0  0
  5 21  1  0  0  0  0
  6  5  2  0  0  0  0
  7  2  1  0  0  0  0
 10  1  1  0  0  0  0
 11 10  2  0  0  0  0
 12 13  1  0  0  0  0
 13 14  2  0  0  0  0
 13 10  1  0  0  0  0
 14 19  1  0  0  0  0
 15 14  1  0  0  0  0
 16 15  2  0  0  0  0
 17 16  1  0  0  0  0
 17 12  2  0  0  0  0
 18 12  1  0  0  0  0
 20 16  1  0  0  0  0
 22 23  1  0  0  0  0
 22 21  1  0  0  0  0
 23 24  1  0  0  0  0
 23 25  1  0  0  0  0
 25 26  1  0  0  0  0
 27 23  1  0  0  0  0
 28 27  1  0  0  0  0
M  END
>  <minimizedAffinity>
-4.38069773

$$$$

 OpenBabel03262522123D

 28 29  0  0  0  0  0  0  0  0999 V2000
   38.4720   24.7090   35.3770 C   0  0  0  0  0  0  0  0  0  0  0  0
   38.2560   25.7360   36.2840 C   0  0  0  0  0  0  0  0  0  0  0  0
   38.1960   27.0390   35.8370 C   0  0  0  0  0  0  0  0  0  0  0  0
   38.3610   27.2260   34.4790 C   0  0  0  0  0  0  0  0  0  0  0  0
   38.5730   26.2060   33.6010 C   0  0  0  0  0  0  0  0  0  0  0  0
   38.6290   24.9310   34.0470 N   0  0  0  0  0  0  0  0  0  0  0  0
   38.1270   25.5810   37.3420 H   0  0  0  0  0  0  0  0  0  0  0  0
   38.0280   27.8830   36.5080 H   0  0  0  0  0  0  0  0  0  0  0  0
   38.3160   28.2460   34.1150 H   0  0  0  0  0  0  0  0  0  0  0  0
   38.5240   23.3560   35.9100 C   0  0  0  0  0  0  0  0  0  0  0  0
   37.4920   22.7540   36.2370 O   0  0  0  0  0  0  0  0  0  0  0  0
   40.2100   22.3580   37.4000 C   0  0  0  0  0  0  0  0  0  0  0  0
   39.7750   22.6350   36.0930 C   0  0  0  0  0  0  0  0  0  0  0  0
   40.5760   22.1990   35.0540 C   0  0  0  0  0  0  0  0  0  0  0  0
   41.7420   21.5260   35.3060 N   0  0  0  0  0  0  0  0  0  0  0  0
   42.1140   21.2850   36.5920 C   0  0  0  0  0  0  0  0  0  0  0  0
   41.3730   21.6880   37.6170 N   0  0  0  0  0  0  0  0  0  0  0  0
   39.6000   22.6890   38.2240 H   0  0  0  0  0  0  0  0  0  0  0  0
   40.1980   22.4370   34.0750 H   0  0  0  0  0  0  0  0  0  0  0  0
   43.0520   20.7480   36.5980 H   0  0  0  0  0  0  0  0  0  0  0  0
   38.7860   26.4770   31.8350 S   0  0  0  0  0  0  0  0  0  0  0  0
   37.6610   25.2890   31.0250 C   0  0  0  0  0  2  0  0  0  0  0  0
   36.4250   25.1810   31.7870 N   0  0  0  0  0  4  0  0  0  0  0  0
   36.6050   25.3060   32.7910 H   0  0  0  0  0  0  0  0  0  0  0  0
   35.9020   23.8540   31.5080 C   0  0  0  0  0  2  0  0  0  0  0  0
   34.8880   23.8020   31.9030 H   0  0  0  0  0  0  0  0  0  0  0  0
   35.5130   26.1720   31.2280 C   0  0  0  0  0  2  0  0  0  0  0  0
   36.0930   27.1060   31.0060 H   0  0  0  0  0  0  0  0  0  0  0  0
  1 10  1  0  0  0  0
  1  2  1  0  0  0  0
  2  7  1  0  0  0  0
  3  2  2  0  0  0  0
  3  8  1  0  0  0  0
  4  3  1  0  0  0  0
  5  6  1  0  0  0  0
  5  4  2  0  0  0  0
  6  1  2  0  0  0  0
  9  4  1  0  0  0  0
 10 13  1  0  0  0  0
 10 11  2  0  0  0  0
 12 17  1  0  0  0  0
 12 18  1  0  0  0  0
 13 12  2  0  0  0  0
 14 15  2  0  0  0  0
 14 13  1  0  0  0  0
 15 16  1  0  0  0  0
 16 20  1  0  0  0  0
 16 17  2  0  0  0  0
 19 14  1  0  0  0  0
 21  5  1  0  0  0  0
 22 23  1  0  0  0  0
 22 21  1  0  0  0  0
 23 24  1  0  0  0  0
 25 23  1  0  0  0  0
 25 26  1  0  0  0  0
 27 23  1  0  0  0  0
 28 27  1  0  0  0  0
M  END
>  <minimizedAffinity>
-4.32326746

$$$$

 OpenBabel03262522123D

 28 29  0  0  0  0  0  0  0  0999 V2000
   37.9270   25.1190   33.3550 C   0  0  0  0  0  0  0  0  0  0  0  0
   37.2770   26.2530   32.8930 C   0  0  0  0  0  0  0  0  0  0  0  0
   36.3090   26.1350   31.9180 C   0  0  0  0  0  0  0  0  0  0  0  0
   36.0550   24.8570   31.4630 C   0  0  0  0  0  0  0  0  0  0  0  0
   36.7020   23.7520   31.9260 C   0  0  0  0  0  0  0  0  0  0  0  0
   37.6490   23.8760   32.8830 N   0  0  0  0  0  0  0  0  0  0  0  0
   37.4820   27.2480   33.2540 H   0  0  0  0  0  0  0  0  0  0  0  0
   35.7680   26.9970   31.5210 H   0  0  0  0  0  0  0  0  0  0  0  0
   35.2960   24.7510   30.6960 H   0  0  0  0  0  0  0  0  0  0  0  0
   38.9380   25.3080   34.3850 C   0  0  0  0  0  0  0  0  0  0  0  0
   39.8760   26.1010   34.2240 O   0  0  0  0  0  0  0  0  0  0  0  0
   37.9410   24.9310   36.6030 C   0  0  0  0  0  0  0  0  0  0  0  0
   38.9130   24.5870   35.6480 C   0  0  0  0  0  0  0  0  0  0  0  0
   39.7930   23.5730   35.9780 C   0  0  0  0  0  0  0  0  0  0  0  0
   39.7060   22.9400   37.1900 N   0  0  0  0  0  0  0  0  0  0  0  0
   38.7450   23.3140   38.0760 C   0  0  0  0  0  0  0  0  0  0  0  0
   37.8820   24.2840   37.7960 N   0  0  0  0  0  0  0  0  0  0  0  0
   37.2450   25.7190   36.3650 H   0  0  0  0  0  0  0  0  0  0  0  0
   40.5160   23.3490   35.2140 H   0  0  0  0  0  0  0  0  0  0  0  0
   38.8280   22.7110   38.9690 H   0  0  0  0  0  0  0  0  0  0  0  0
   36.3520   22.0970   31.3160 S   0  0  0  0  0  0  0  0  0  0  0  0
   34.9800   21.4800   32.3510 C   0  0  0  0  0  2  0  0  0  0  0  0
   35.3670   20.2310   32.9910 N   0  0  0  0  0  4  0  0  0  0  0  0
   34.6040   19.5450   32.9400 H   0  0  0  0  0  0  0  0  0  0  0  0
   35.6770   20.5710   34.3700 C   0  0  0  0  0  2  0  0  0  0  0  0
   36.1520   19.7060   34.8310 H   0  0  0  0  0  0  0  0  0  0  0  0
   36.5910   19.7960   32.3290 C   0  0  0  0  0  2  0  0  0  0  0  0
   36.4920   19.9920   31.2290 H   0  0  0  0  0  0  0  0  0  0  0  0
  1 10  1  0  0  0  0
  2  7  1  0  0  0  0
  2  1  1  0  0  0  0
  3  2  2  0  0  0  0
  4  3  1  0  0  0  0
  4  5  2  0  0  0  0
  5  6  1  0  0  0  0
  6  1  2  0  0  0  0
  8  3  1  0  0  0  0
  9  4  1  0  0  0  0
 10 13  1  0  0  0  0
 11 10  2  0  0  0  0
 12 17  1  0  0  0  0
 13 14  1  0  0  0  0
 13 12  2  0  0  0  0
 14 15  2  0  0  0  0
 15 16  1  0  0  0  0
 16 20  1  0  0  0  0
 17 16  2  0  0  0  0
 18 12  1  0  0  0  0
 19 14  1  0  0  0  0
 21  5  1  0  0  0  0
 21 22  1  0  0  0  0
 22 23  1  0  0  0  0
 23 25  1  0  0  0  0
 24 23  1  0  0  0  0
 25 26  1  0  0  0  0
 27 23  1  0  0  0  0
 28 27  1  0  0  0  0
M  END
>  <minimizedAffinity>
-4.30826569

$$$$
