
 OpenBabel03272503493D

 35 36  0  0  1  0  0  0  0  0999 V2000
   32.8040   27.3650   46.1360 C   0  0  1  0  0  0  0  0  0  0  0  0
   33.8540   27.5140   47.2600 C   0  0  2  0  0  0  0  0  0  0  0  0
   33.8580   26.2870   47.8440 O   0  0  0  0  0  0  0  0  0  0  0  0
   33.8930   25.3990   46.7870 C   0  0  0  0  0  0  0  0  0  0  0  0
   33.0930   25.9710   45.6660 C   0  0  2  0  0  0  0  0  0  0  0  0
   33.0170   28.1020   45.3440 H   0  0  0  0  0  0  0  0  0  0  0  0
   34.7870   27.7530   46.6980 H   0  0  0  0  0  0  0  0  0  0  0  0
   34.9570   25.2240   46.5580 H   0  0  0  0  0  0  0  0  0  0  0  0
   33.4430   24.4490   47.1400 H   0  0  0  0  0  0  0  0  0  0  0  0
   32.1430   25.4100   45.5480 H   0  0  0  0  0  0  0  0  0  0  0  0
   31.5330   27.5610   46.6330 O   0  0  0  0  0  0  0  0  0  0  0  0
   31.3170   26.9420   47.3530 H   0  0  0  0  0  0  0  0  0  0  0  0
   33.4030   28.5580   48.0150 O   0  0  0  0  0  0  0  0  0  0  0  0
   35.3450   29.8250   46.7560 O   0  0  0  0  0  0  0  0  0  0  0  0
   34.1340   30.0310   47.6560 P   0  0  1  0  0  0  0  0  0  0  0  0
   33.0740   30.9980   46.7570 O   0  0  0  0  0  0  0  0  0  0  0  0
   33.2560   30.9890   45.8040 H   0  0  0  0  0  0  0  0  0  0  0  0
   34.5220   30.7780   49.1390 O   0  0  0  0  0  0  0  0  0  0  0  0
   35.7320   30.5820   49.7700 C   0  0  0  0  0  0  0  0  0  0  0  0
   35.9960   29.5550   50.7050 C   0  0  0  0  0  0  0  0  0  0  0  0
   37.2690   29.4900   51.2560 C   0  0  0  0  0  0  0  0  0  0  0  0
   38.1990   30.4160   50.8680 N   0  0  0  0  0  0  0  0  0  0  0  0
   37.9140   31.3950   49.9640 C   0  0  0  0  0  0  0  0  0  0  0  0
   36.6710   31.4740   49.4150 N   0  0  0  0  0  0  0  0  0  0  0  0
   35.1860   28.8900   50.9270 H   0  0  0  0  0  0  0  0  0  0  0  0
   37.4740   28.7180   51.9600 H   0  0  0  0  0  0  0  0  0  0  0  0
   38.7120   32.0820   49.7200 H   0  0  0  0  0  0  0  0  0  0  0  0
   33.8110   26.0120   44.4820 O   0  0  0  0  0  0  0  0  0  0  0  0
   34.9040   25.1660   44.4660 C   0  0  0  0  0  2  0  0  0  0  0  0
   34.8960   24.3460   43.2650 N   0  0  0  0  0  4  0  0  0  0  0  0
   35.8660   24.0830   42.9830 H   0  0  0  0  0  0  0  0  0  0  0  0
   34.1350   23.1380   43.4350 C   0  0  0  0  0  2  0  0  0  0  0  0
   33.0520   23.2560   43.1830 H   0  0  0  0  0  0  0  0  0  0  0  0
   34.3210   25.0890   42.1500 C   0  0  0  0  0  2  0  0  0  0  0  0
   35.0270   25.8610   41.8280 H   0  0  0  0  0  0  0  0  0  0  0  0
  1  6  1  6  0  0  0
  1 11  1  0  0  0  0
  1  2  1  0  0  0  0
  2  7  1  6  0  0  0
  2  3  1  0  0  0  0
  2 13  1  0  0  0  0
  4  9  1  0  0  0  0
  4  3  1  0  0  0  0
  5 10  1  6  0  0  0
  5  1  1  0  0  0  0
  5  4  1  0  0  0  0
  8  4  1  0  0  0  0
 11 12  1  0  0  0  0
 15 14  2  6  0  0  0
 15 13  1  0  0  0  0
 15 18  1  0  0  0  0
 16 15  1  0  0  0  0
 17 16  1  0  0  0  0
 18 19  1  0  0  0  0
 19 20  1  0  0  0  0
 20 25  1  0  0  0  0
 20 21  2  0  0  0  0
 21 26  1  0  0  0  0
 22 21  1  0  0  0  0
 23 22  2  0  0  0  0
 24 19  2  0  0  0  0
 24 23  1  0  0  0  0
 27 23  1  0  0  0  0
 28  5  1  0  0  0  0
 29 28  1  0  0  0  0
 30 32  1  0  0  0  0
 30 29  1  0  0  0  0
 31 30  1  0  0  0  0
 33 32  1  0  0  0  0
 34 30  1  0  0  0  0
 35 34  1  0  0  0  0
M  END
>  <minimizedAffinity>
-3.73018408

>  <minimizedRMSD>
1.01266229

$$$$
