
 OpenBabel03262520343D

 27 27  0  0  0  0  0  0  0  0999 V2000
   33.7900   27.7900   48.4360 C   0  0  0  0  0  0  0  0  0  0  0  0
   34.2680   26.8930   48.9270 H   0  0  0  0  0  0  0  0  0  0  0  0
   33.4280   27.5230   47.4450 H   0  0  0  0  0  0  0  0  0  0  0  0
   35.0030   29.8560   49.1240 C   0  0  0  0  0  0  0  0  0  0  0  0
   34.8610   28.8170   48.3560 C   0  0  0  0  0  0  0  0  0  0  0  0
   37.6300   32.3730   49.5490 C   0  0  0  0  0  0  0  0  0  0  0  0
   38.2500   32.3610   48.2990 C   0  0  0  0  0  0  0  0  0  0  0  0
   37.7550   31.4820   47.3160 C   0  0  0  0  0  0  0  0  0  0  0  0
   36.6880   30.6890   47.6570 N   0  0  0  0  0  0  0  0  0  0  0  0
   36.1310   30.7400   48.8700 C   0  0  0  0  0  0  0  0  0  0  0  0
   36.5930   31.5660   49.8010 N   0  0  0  0  0  0  0  0  0  0  0  0
   38.0730   33.0750   50.2420 H   0  0  0  0  0  0  0  0  0  0  0  0
   39.0820   32.9350   47.9390 H   0  0  0  0  0  0  0  0  0  0  0  0
   38.1330   31.3660   46.3130 H   0  0  0  0  0  0  0  0  0  0  0  0
   32.7840   28.2030   49.3280 O   0  0  0  0  0  0  0  0  0  0  0  0
   31.5670   26.2590   48.2150 O   0  0  0  0  0  0  0  0  0  0  0  0
   31.2890   27.6740   48.7280 P   0  0  2  0  0  0  0  0  0  0  0  0
   30.8420   28.6990   47.4510 O   0  0  0  0  0  0  0  0  0  0  0  0
   31.3800   28.5170   46.6500 H   0  0  0  0  0  0  0  0  0  0  0  0
   30.1020   27.6580   49.9220 O   0  0  0  0  0  0  0  0  0  0  0  0
   28.9580   28.2430   49.4040 C   0  0  0  0  0  0  0  0  0  0  0  0
   27.8330   27.5220   50.0190 N   0  0  0  0  0  0  0  0  0  0  0  0
   27.6910   26.6910   49.3940 H   0  0  0  0  0  0  0  0  0  0  0  0
   26.6350   28.3380   49.9870 C   0  0  0  0  0  0  0  0  0  0  0  0
   26.5500   28.7700   48.9730 H   0  0  0  0  0  0  0  0  0  0  0  0
   28.1710   27.1290   51.3750 C   0  0  0  0  0  0  0  0  0  0  0  0
   27.2980   27.4110   52.0330 H   0  0  0  0  0  0  0  0  0  0  0  0
  1  2  1  0  0  0  0
  1 15  1  0  0  0  0
  3  1  1  0  0  0  0
  5  1  1  0  0  0  0
  5  4  2  0  0  0  0
  6 11  1  0  0  0  0
  6 12  1  0  0  0  0
  7  6  2  0  0  0  0
  8  9  2  0  0  0  0
  8  7  1  0  0  0  0
  9 10  1  0  0  0  0
 10  4  1  0  0  0  0
 10 11  2  0  0  0  0
 13  7  1  0  0  0  0
 14  8  1  0  0  0  0
 17 16  2  6  0  0  0
 17 15  1  0  0  0  0
 17 20  1  0  0  0  0
 18 17  1  0  0  0  0
 19 18  1  0  0  0  0
 21 20  1  0  0  0  0
 21 22  1  0  0  0  0
 22 26  1  0  0  0  0
 23 22  1  0  0  0  0
 24 22  1  0  0  0  0
 25 24  1  0  0  0  0
 26 27  1  0  0  0  0
M  END
>  <minimizedAffinity>
-4.66948318

>  <minimizedRMSD>
2.81852722

$$$$
