
 OpenBabel03272506433D

 30 31  0  0  1  0  0  0  0  0999 V2000
   32.2070   28.1620   47.6110 C   0  0  2  0  0  0  0  0  0  0  0  0
   33.4890   28.1400   48.4120 C   0  0  1  0  0  0  0  0  0  0  0  0
   34.0560   26.8990   48.2610 O   0  0  0  0  0  0  0  0  0  0  0  0
   33.3840   26.2040   47.2700 C   0  0  0  0  0  0  0  0  0  0  0  0
   32.6070   27.2400   46.4680 C   0  0  1  0  0  0  0  0  0  0  0  0
   31.3980   27.7280   48.2000 H   0  0  0  0  0  0  0  0  0  0  0  0
   33.3590   28.3780   49.4790 H   0  0  0  0  0  0  0  0  0  0  0  0
   34.1600   25.7010   46.6700 H   0  0  0  0  0  0  0  0  0  0  0  0
   32.6920   25.5100   47.8020 H   0  0  0  0  0  0  0  0  0  0  0  0
   33.3020   27.7570   45.8060 H   0  0  0  0  0  0  0  0  0  0  0  0
   31.9350   29.4490   47.1360 O   0  0  0  0  0  0  0  0  0  0  0  0
   32.4640   29.5410   46.2990 H   0  0  0  0  0  0  0  0  0  0  0  0
   34.6250   29.3480   47.6190 S   0  0  0  0  0  0  0  0  0  0  0  0
   37.2330   29.3000   50.6110 C   0  0  0  0  0  0  0  0  0  0  0  0
   37.6680   30.6180   50.7440 C   0  0  0  0  0  0  0  0  0  0  0  0
   37.1270   31.5740   49.8620 C   0  0  0  0  0  0  0  0  0  0  0  0
   36.2210   31.1580   48.9420 N   0  0  0  0  0  0  0  0  0  0  0  0
   35.8260   29.8720   48.8460 C   0  0  0  0  0  0  0  0  0  0  0  0
   36.3250   28.9240   49.6780 N   0  0  0  0  0  0  0  0  0  0  0  0
   37.6080   28.5110   51.2570 H   0  0  0  0  0  0  0  0  0  0  0  0
   38.3890   30.8920   51.4910 H   0  0  0  0  0  0  0  0  0  0  0  0
   37.4340   32.6100   49.9260 H   0  0  0  0  0  0  0  0  0  0  0  0
   31.5410   26.6860   45.8270 O   0  0  0  0  0  0  0  0  0  0  0  0
   31.0690   27.2880   44.7000 C   0  0  0  0  0  2  0  0  0  0  0  0
   32.2560   27.6770   43.9260 N   0  0  0  0  0  4  0  0  0  0  0  0
   33.1080   27.6230   44.4940 H   0  0  0  0  0  0  0  0  0  0  0  0
   32.4410   26.7270   42.8170 C   0  0  0  0  0  2  0  0  0  0  0  0
   32.6220   25.7020   43.1550 H   0  0  0  0  0  0  0  0  0  0  0  0
   32.0240   28.9700   43.3080 C   0  0  0  0  0  2  0  0  0  0  0  0
   32.7740   29.1400   42.5150 H   0  0  0  0  0  0  0  0  0  0  0  0
  1  6  1  1  0  0  0
  1  2  1  0  0  0  0
  2  7  1  1  0  0  0
  3  2  1  0  0  0  0
  4  9  1  0  0  0  0
  4  3  1  0  0  0  0
  5 10  1  6  0  0  0
  5  4  1  0  0  0  0
  5  1  1  0  0  0  0
  8  4  1  0  0  0  0
 11  1  1  0  0  0  0
 12 11  1  0  0  0  0
 13  2  1  0  0  0  0
 13 18  1  0  0  0  0
 14 15  1  0  0  0  0
 14 20  1  0  0  0  0
 15 21  1  0  0  0  0
 16 22  1  0  0  0  0
 16 15  2  0  0  0  0
 17 16  1  0  0  0  0
 18 17  2  0  0  0  0
 18 19  1  0  0  0  0
 19 14  2  0  0  0  0
 23  5  1  0  0  0  0
 24 23  1  0  0  0  0
 25 26  1  0  0  0  0
 25 24  1  0  0  0  0
 27 28  1  0  0  0  0
 27 25  1  0  0  0  0
 29 25  1  0  0  0  0
 30 29  1  0  0  0  0
M  END
>  <minimizedAffinity>
-3.50511622

>  <minimizedRMSD>
1.10816121

$$$$
