
 OpenBabel03272506423D

 30 31  0  0  1  0  0  0  0  0999 V2000
   32.2160   28.1610   47.6250 C   0  0  2  0  0  0  0  0  0  0  0  0
   33.5110   28.1390   48.4050 C   0  0  1  0  0  0  0  0  0  0  0  0
   34.0750   26.8980   48.2460 O   0  0  0  0  0  0  0  0  0  0  0  0
   33.3870   26.2020   47.2670 C   0  0  0  0  0  0  0  0  0  0  0  0
   32.5970   27.2370   46.4760 C   0  0  1  0  0  0  0  0  0  0  0  0
   31.4170   27.7270   48.2280 H   0  0  0  0  0  0  0  0  0  0  0  0
   33.3980   28.3780   49.4730 H   0  0  0  0  0  0  0  0  0  0  0  0
   34.1530   25.6980   46.6550 H   0  0  0  0  0  0  0  0  0  0  0  0
   32.7030   25.5090   47.8110 H   0  0  0  0  0  0  0  0  0  0  0  0
   33.2810   27.7530   45.8030 H   0  0  0  0  0  0  0  0  0  0  0  0
   31.9360   29.4470   47.1530 O   0  0  0  0  0  0  0  0  0  0  0  0
   32.4520   29.5380   46.3070 H   0  0  0  0  0  0  0  0  0  0  0  0
   34.6340   29.3460   47.5920 S   0  0  0  0  0  0  0  0  0  0  0  0
   37.2500   29.3110   50.5780 C   0  0  0  0  0  0  0  0  0  0  0  0
   37.7280   30.6180   50.6660 C   0  0  0  0  0  0  0  0  0  0  0  0
   37.2150   31.5620   49.7540 C   0  0  0  0  0  0  0  0  0  0  0  0
   36.2920   31.1460   48.8510 N   0  0  0  0  0  0  0  0  0  0  0  0
   35.8560   29.8710   48.7980 C   0  0  0  0  0  0  0  0  0  0  0  0
   36.3260   28.9340   49.6590 N   0  0  0  0  0  0  0  0  0  0  0  0
   37.6000   28.5320   51.2480 H   0  0  0  0  0  0  0  0  0  0  0  0
   38.4590   30.8920   51.4020 H   0  0  0  0  0  0  0  0  0  0  0  0
   37.5550   32.5890   49.7840 H   0  0  0  0  0  0  0  0  0  0  0  0
   31.5210   26.6820   45.8530 O   0  0  0  0  0  0  0  0  0  0  0  0
   31.0880   27.2290   44.6830 C   0  0  0  0  0  2  0  0  0  0  0  0
   29.6260   27.0810   44.6890 N   0  0  0  0  0  4  0  0  0  0  0  0
   29.3410   26.1880   45.1070 H   0  0  0  0  0  0  0  0  0  0  0  0
   29.0390   28.1350   45.5320 C   0  0  0  0  0  2  0  0  0  0  0  0
   29.3540   28.0740   46.5780 H   0  0  0  0  0  0  0  0  0  0  0  0
   29.1150   27.3110   43.3490 C   0  0  0  0  0  2  0  0  0  0  0  0
   28.0240   27.4810   43.3950 H   0  0  0  0  0  0  0  0  0  0  0  0
  1  6  1  1  0  0  0
  1  2  1  0  0  0  0
  2  7  1  1  0  0  0
  3  2  1  0  0  0  0
  4  9  1  0  0  0  0
  4  3  1  0  0  0  0
  5 10  1  6  0  0  0
  5  4  1  0  0  0  0
  5  1  1  0  0  0  0
  8  4  1  0  0  0  0
 11  1  1  0  0  0  0
 12 11  1  0  0  0  0
 13  2  1  0  0  0  0
 13 18  1  0  0  0  0
 14 15  1  0  0  0  0
 14 20  1  0  0  0  0
 15 21  1  0  0  0  0
 16 22  1  0  0  0  0
 16 15  2  0  0  0  0
 17 16  1  0  0  0  0
 18 17  2  0  0  0  0
 18 19  1  0  0  0  0
 19 14  2  0  0  0  0
 23  5  1  0  0  0  0
 24 25  1  0  0  0  0
 24 23  1  0  0  0  0
 25 26  1  0  0  0  0
 25 27  1  0  0  0  0
 27 28  1  0  0  0  0
 29 30  1  0  0  0  0
 29 25  1  0  0  0  0
M  END
>  <minimizedAffinity>
-3.59336996

>  <minimizedRMSD>
0.548315048

$$$$
