
 OpenBabel03272507333D

 34 36  0  0  1  0  0  0  0  0999 V2000
   35.8560   29.1450   49.8020 C   0  0  0  0  0  0  0  0  0  0  0  0
   34.8090   29.6220   50.5610 C   0  0  0  0  0  0  0  0  0  0  0  0
   33.6320   29.0560   50.0500 C   0  0  0  0  0  0  0  0  0  0  0  0
   34.0410   28.2630   49.0030 C   0  0  0  0  0  0  0  0  0  0  0  0
   35.3490   28.3480   48.8950 O   0  0  0  0  0  0  0  0  0  0  0  0
   34.7950   30.2950   51.3990 H   0  0  0  0  0  0  0  0  0  0  0  0
   32.6220   29.1990   50.3890 H   0  0  0  0  0  0  0  0  0  0  0  0
   37.2330   29.5290   50.0560 C   0  0  0  0  0  0  0  0  0  0  0  0
   37.8660   28.9580   50.9560 O   0  0  0  0  0  0  0  0  0  0  0  0
   37.7850   30.5670   49.2310 C   0  0  0  0  0  0  0  0  0  0  0  0
   38.1170   31.7590   49.8550 C   0  0  0  0  0  0  0  0  0  0  0  0
   38.6530   32.7910   49.0770 C   0  0  0  0  0  0  0  0  0  0  0  0
   38.8240   32.5660   47.7320 N   0  0  0  0  0  0  0  0  0  0  0  0
   38.4920   31.4030   47.1650 C   0  0  0  0  0  0  0  0  0  0  0  0
   37.9760   30.4080   47.9010 N   0  0  0  0  0  0  0  0  0  0  0  0
   37.9970   31.9680   50.9070 H   0  0  0  0  0  0  0  0  0  0  0  0
   38.9290   33.7280   49.4980 H   0  0  0  0  0  0  0  0  0  0  0  0
   38.6270   31.2310   46.1010 H   0  0  0  0  0  0  0  0  0  0  0  0
   33.1730   27.4530   48.1470 C   0  0  0  0  0  0  0  0  0  0  0  0
   31.9250   27.4210   48.4150 O   0  0  0  0  0  0  0  0  0  0  0  0
   33.7450   26.6810   46.9940 C   0  0  1  0  0  0  0  0  0  0  0  0
   33.7930   25.1460   47.3500 C   0  0  0  0  0  0  0  0  0  0  0  0
   32.9310   25.7000   46.2750 C   0  0  2  0  0  0  0  0  0  0  0  0
   34.7870   26.9870   46.7550 H   0  0  0  0  0  0  0  0  0  0  0  0
   34.7110   24.6030   47.1310 H   0  0  0  0  0  0  0  0  0  0  0  0
   33.2890   24.8260   48.2610 H   0  0  0  0  0  0  0  0  0  0  0  0
   31.8400   25.7580   46.4480 H   0  0  0  0  0  0  0  0  0  0  0  0
   33.3000   25.3020   44.8690 C   0  0  0  0  0  2  0  0  0  0  0  0
   34.7060   25.0510   44.6820 N   0  0  0  0  0  4  0  0  0  0  0  0
   35.2720   25.2420   45.5380 H   0  0  0  0  0  0  0  0  0  0  0  0
   35.1640   25.9500   43.6250 C   0  0  0  0  0  2  0  0  0  0  0  0
   35.6150   25.4160   42.7660 H   0  0  0  0  0  0  0  0  0  0  0  0
   34.9210   23.6900   44.1680 C   0  0  0  0  0  2  0  0  0  0  0  0
   33.9590   23.3190   43.7490 H   0  0  0  0  0  0  0  0  0  0  0  0
  1  8  1  0  0  0  0
  1  2  2  0  0  0  0
  2  6  1  0  0  0  0
  3  7  1  0  0  0  0
  3  2  1  0  0  0  0
  4  3  2  0  0  0  0
  5  4  1  0  0  0  0
  5  1  1  0  0  0  0
  8  9  2  0  0  0  0
 10 11  1  0  0  0  0
 10  8  1  0  0  0  0
 11 16  1  0  0  0  0
 12 17  1  0  0  0  0
 12 11  2  0  0  0  0
 13 12  1  0  0  0  0
 14 13  2  0  0  0  0
 14 15  1  0  0  0  0
 15 10  2  0  0  0  0
 18 14  1  0  0  0  0
 19 20  2  0  0  0  0
 19  4  1  0  0  0  0
 21 24  1  6  0  0  0
 21 22  1  0  0  0  0
 21 19  1  0  0  0  0
 22 26  1  0  0  0  0
 23 27  1  1  0  0  0
 23 21  1  0  0  0  0
 23 22  1  0  0  0  0
 25 22  1  0  0  0  0
 28 23  1  0  0  0  0
 29 28  1  0  0  0  0
 29 30  1  0  0  0  0
 31 29  1  0  0  0  0
 32 31  1  0  0  0  0
 33 29  1  0  0  0  0
 34 33  1  0  0  0  0
M  END
>  <minimizedAffinity>
-4.69939899

>  <minimizedRMSD>
0.322971135

$$$$
