
 OpenBabel03272507323D

 34 36  0  0  1  0  0  0  0  0999 V2000
   35.8540   29.1420   49.8030 C   0  0  0  0  0  0  0  0  0  0  0  0
   34.8030   29.6200   50.5550 C   0  0  0  0  0  0  0  0  0  0  0  0
   33.6290   29.0490   50.0430 C   0  0  0  0  0  0  0  0  0  0  0  0
   34.0440   28.2520   49.0020 C   0  0  0  0  0  0  0  0  0  0  0  0
   35.3520   28.3390   48.8980 O   0  0  0  0  0  0  0  0  0  0  0  0
   34.7850   30.2980   51.3900 H   0  0  0  0  0  0  0  0  0  0  0  0
   32.6180   29.1920   50.3780 H   0  0  0  0  0  0  0  0  0  0  0  0
   37.2290   29.5300   50.0610 C   0  0  0  0  0  0  0  0  0  0  0  0
   37.8610   28.9630   50.9650 O   0  0  0  0  0  0  0  0  0  0  0  0
   37.7820   30.5660   49.2330 C   0  0  0  0  0  0  0  0  0  0  0  0
   38.1160   31.7580   49.8550 C   0  0  0  0  0  0  0  0  0  0  0  0
   38.6530   32.7880   49.0760 C   0  0  0  0  0  0  0  0  0  0  0  0
   38.8220   32.5610   47.7300 N   0  0  0  0  0  0  0  0  0  0  0  0
   38.4880   31.3970   47.1650 C   0  0  0  0  0  0  0  0  0  0  0  0
   37.9720   30.4050   47.9030 N   0  0  0  0  0  0  0  0  0  0  0  0
   37.9980   31.9690   50.9070 H   0  0  0  0  0  0  0  0  0  0  0  0
   38.9310   33.7250   49.4950 H   0  0  0  0  0  0  0  0  0  0  0  0
   38.6220   31.2240   46.1020 H   0  0  0  0  0  0  0  0  0  0  0  0
   33.1800   27.4360   48.1460 C   0  0  0  0  0  0  0  0  0  0  0  0
   31.9300   27.4140   48.4020 O   0  0  0  0  0  0  0  0  0  0  0  0
   33.7610   26.6470   47.0090 C   0  0  1  0  0  0  0  0  0  0  0  0
   33.7560   25.1120   47.3650 C   0  0  0  0  0  0  0  0  0  0  0  0
   32.9380   25.6890   46.2690 C   0  0  2  0  0  0  0  0  0  0  0  0
   34.8170   26.9240   46.7970 H   0  0  0  0  0  0  0  0  0  0  0  0
   34.6640   24.5430   47.1710 H   0  0  0  0  0  0  0  0  0  0  0  0
   33.2200   24.8070   48.2640 H   0  0  0  0  0  0  0  0  0  0  0  0
   31.8450   25.7780   46.4130 H   0  0  0  0  0  0  0  0  0  0  0  0
   33.3320   25.2810   44.8730 C   0  0  0  0  0  2  0  0  0  0  0  0
   34.7150   25.5340   44.5570 N   0  0  0  0  0  4  0  0  0  0  0  0
   35.2300   26.0100   45.3320 H   0  0  0  0  0  0  0  0  0  0  0  0
   34.7340   26.4160   43.3940 C   0  0  0  0  0  2  0  0  0  0  0  0
   35.2870   25.9900   42.5350 H   0  0  0  0  0  0  0  0  0  0  0  0
   35.3810   24.2950   44.1280 C   0  0  0  0  0  2  0  0  0  0  0  0
   34.5960   23.5580   43.8440 H   0  0  0  0  0  0  0  0  0  0  0  0
  1  8  1  0  0  0  0
  1  2  2  0  0  0  0
  2  6  1  0  0  0  0
  3  7  1  0  0  0  0
  3  2  1  0  0  0  0
  4  3  2  0  0  0  0
  5  4  1  0  0  0  0
  5  1  1  0  0  0  0
  8  9  2  0  0  0  0
 10 11  1  0  0  0  0
 10  8  1  0  0  0  0
 11 16  1  0  0  0  0
 12 17  1  0  0  0  0
 12 11  2  0  0  0  0
 13 12  1  0  0  0  0
 14 13  2  0  0  0  0
 14 15  1  0  0  0  0
 15 10  2  0  0  0  0
 18 14  1  0  0  0  0
 19 20  2  0  0  0  0
 19  4  1  0  0  0  0
 21 24  1  6  0  0  0
 21 22  1  0  0  0  0
 21 19  1  0  0  0  0
 22 26  1  0  0  0  0
 23 27  1  1  0  0  0
 23 21  1  0  0  0  0
 23 22  1  0  0  0  0
 25 22  1  0  0  0  0
 28 23  1  0  0  0  0
 29 28  1  0  0  0  0
 29 30  1  0  0  0  0
 31 29  1  0  0  0  0
 32 31  1  0  0  0  0
 33 29  1  0  0  0  0
 34 33  1  0  0  0  0
M  END
>  <minimizedAffinity>
-4.70038509

>  <minimizedRMSD>
0.276980102

$$$$
