
 OpenBabel03272507353D

 34 36  0  0  1  0  0  0  0  0999 V2000
   35.7590   28.8230   33.7730 C   0  0  0  0  0  0  0  0  0  0  0  0
   36.4590   28.4690   32.6410 C   0  0  0  0  0  0  0  0  0  0  0  0
   37.4590   27.5680   33.0320 C   0  0  0  0  0  0  0  0  0  0  0  0
   37.3030   27.4290   34.3910 C   0  0  0  0  0  0  0  0  0  0  0  0
   36.2980   28.1820   34.7810 O   0  0  0  0  0  0  0  0  0  0  0  0
   36.3370   28.7690   31.6150 H   0  0  0  0  0  0  0  0  0  0  0  0
   38.1950   27.0820   32.4180 H   0  0  0  0  0  0  0  0  0  0  0  0
   34.6420   29.7500   33.7360 C   0  0  0  0  0  0  0  0  0  0  0  0
   33.9960   29.8790   32.6850 O   0  0  0  0  0  0  0  0  0  0  0  0
   34.3510   30.4720   34.9430 C   0  0  0  0  0  0  0  0  0  0  0  0
   35.3590   31.2720   35.4570 C   0  0  0  0  0  0  0  0  0  0  0  0
   35.1080   31.9860   36.6340 C   0  0  0  0  0  0  0  0  0  0  0  0
   33.8710   31.8550   37.2190 N   0  0  0  0  0  0  0  0  0  0  0  0
   32.9230   31.0730   36.6930 C   0  0  0  0  0  0  0  0  0  0  0  0
   33.1540   30.3850   35.5670 N   0  0  0  0  0  0  0  0  0  0  0  0
   36.3400   31.3980   35.0240 H   0  0  0  0  0  0  0  0  0  0  0  0
   35.8400   32.6170   37.0770 H   0  0  0  0  0  0  0  0  0  0  0  0
   31.9480   30.9730   37.1600 H   0  0  0  0  0  0  0  0  0  0  0  0
   38.1150   26.5830   35.2680 C   0  0  0  0  0  0  0  0  0  0  0  0
   38.9770   27.1490   36.0200 O   0  0  0  0  0  0  0  0  0  0  0  0
   37.9340   25.0930   35.2680 C   0  0  1  0  0  0  0  0  0  0  0  0
   39.0840   24.4140   34.4310 C   0  0  0  0  0  0  0  0  0  0  0  0
   38.9290   24.2210   35.8950 C   0  0  2  0  0  0  0  0  0  0  0  0
   36.9730   24.7820   34.8030 H   0  0  0  0  0  0  0  0  0  0  0  0
   38.8030   23.6440   33.7140 H   0  0  0  0  0  0  0  0  0  0  0  0
   39.9110   25.0460   34.1090 H   0  0  0  0  0  0  0  0  0  0  0  0
   39.6470   24.7160   36.5740 H   0  0  0  0  0  0  0  0  0  0  0  0
   38.5410   22.8320   36.3350 C   0  0  0  0  0  2  0  0  0  0  0  0
   39.0970   22.4450   37.6070 N   0  0  0  0  0  4  0  0  0  0  0  0
   38.7700   21.5060   37.9270 H   0  0  0  0  0  0  0  0  0  0  0  0
   38.6580   23.4360   38.5850 C   0  0  0  0  0  2  0  0  0  0  0  0
   39.4980   23.9390   39.1010 H   0  0  0  0  0  0  0  0  0  0  0  0
   40.5640   22.5400   37.5760 C   0  0  0  0  0  2  0  0  0  0  0  0
   40.8540   23.1820   36.7150 H   0  0  0  0  0  0  0  0  0  0  0  0
  1  5  1  0  0  0  0
  2  3  1  0  0  0  0
  2  1  2  0  0  0  0
  3  4  2  0  0  0  0
  4  5  1  0  0  0  0
  4 19  1  0  0  0  0
  6  2  1  0  0  0  0
  7  3  1  0  0  0  0
  8  1  1  0  0  0  0
  8 10  1  0  0  0  0
  9  8  2  0  0  0  0
 10 11  2  0  0  0  0
 10 15  1  0  0  0  0
 11 12  1  0  0  0  0
 12 17  1  0  0  0  0
 12 13  2  0  0  0  0
 14 18  1  0  0  0  0
 14 13  1  0  0  0  0
 15 14  2  0  0  0  0
 16 11  1  0  0  0  0
 19 21  1  0  0  0  0
 19 20  2  0  0  0  0
 21 24  1  6  0  0  0
 21 23  1  0  0  0  0
 22 21  1  0  0  0  0
 22 23  1  0  0  0  0
 23 28  1  0  0  0  0
 23 27  1  1  0  0  0
 25 22  1  0  0  0  0
 26 22  1  0  0  0  0
 28 29  1  0  0  0  0
 29 30  1  0  0  0  0
 29 31  1  0  0  0  0
 31 32  1  0  0  0  0
 33 29  1  0  0  0  0
 34 33  1  0  0  0  0
M  END
>  <minimizedAffinity>
-5.30582571

$$$$

 OpenBabel03272507353D

 34 36  0  0  1  0  0  0  0  0999 V2000
   35.5840   28.9910   33.8230 C   0  0  0  0  0  0  0  0  0  0  0  0
   36.2290   28.6020   32.6700 C   0  0  0  0  0  0  0  0  0  0  0  0
   37.2370   27.7000   33.0380 C   0  0  0  0  0  0  0  0  0  0  0  0
   37.1410   27.5970   34.4060 C   0  0  0  0  0  0  0  0  0  0  0  0
   36.1620   28.3700   34.8210 O   0  0  0  0  0  0  0  0  0  0  0  0
   36.0640   28.8780   31.6430 H   0  0  0  0  0  0  0  0  0  0  0  0
   37.9400   27.1910   32.4050 H   0  0  0  0  0  0  0  0  0  0  0  0
   34.4760   29.9290   33.8120 C   0  0  0  0  0  0  0  0  0  0  0  0
   33.8700   30.1400   32.7510 O   0  0  0  0  0  0  0  0  0  0  0  0
   34.1450   30.5650   35.0570 C   0  0  0  0  0  0  0  0  0  0  0  0
   32.9190   30.2480   35.6200 C   0  0  0  0  0  0  0  0  0  0  0  0
   32.5670   30.8530   36.8310 C   0  0  0  0  0  0  0  0  0  0  0  0
   33.4580   31.7310   37.4000 N   0  0  0  0  0  0  0  0  0  0  0  0
   34.6330   32.0120   36.8270 C   0  0  0  0  0  0  0  0  0  0  0  0
   34.9790   31.4380   35.6670 N   0  0  0  0  0  0  0  0  0  0  0  0
   32.1970   29.5640   35.2010 H   0  0  0  0  0  0  0  0  0  0  0  0
   31.6400   30.6500   37.3130 H   0  0  0  0  0  0  0  0  0  0  0  0
   35.3330   32.7070   37.2810 H   0  0  0  0  0  0  0  0  0  0  0  0
   37.9830   26.7640   35.2670 C   0  0  0  0  0  0  0  0  0  0  0  0
   38.8130   27.3460   36.0420 O   0  0  0  0  0  0  0  0  0  0  0  0
   37.8700   25.2670   35.2250 C   0  0  1  0  0  0  0  0  0  0  0  0
   39.1410   24.6550   34.5220 C   0  0  0  0  0  0  0  0  0  0  0  0
   38.8210   24.4270   35.9540 C   0  0  2  0  0  0  0  0  0  0  0  0
   36.9870   24.9250   34.6430 H   0  0  0  0  0  0  0  0  0  0  0  0
   38.9820   23.8880   33.7650 H   0  0  0  0  0  0  0  0  0  0  0  0
   39.9710   25.3280   34.3100 H   0  0  0  0  0  0  0  0  0  0  0  0
   39.4300   24.9390   36.7210 H   0  0  0  0  0  0  0  0  0  0  0  0
   38.4460   23.0140   36.3240 C   0  0  0  0  0  2  0  0  0  0  0  0
   38.9540   22.5910   37.6050 N   0  0  0  0  0  4  0  0  0  0  0  0
   38.5590   21.6760   37.9190 H   0  0  0  0  0  0  0  0  0  0  0  0
   38.5650   23.6090   38.5760 C   0  0  0  0  0  2  0  0  0  0  0  0
   39.4280   24.0550   39.1070 H   0  0  0  0  0  0  0  0  0  0  0  0
   40.4240   22.5890   37.5980 C   0  0  0  0  0  2  0  0  0  0  0  0
   40.7710   23.2100   36.7440 H   0  0  0  0  0  0  0  0  0  0  0  0
  1  5  1  0  0  0  0
  2  3  1  0  0  0  0
  2  1  2  0  0  0  0
  3  4  2  0  0  0  0
  4  5  1  0  0  0  0
  4 19  1  0  0  0  0
  6  2  1  0  0  0  0
  7  3  1  0  0  0  0
  8  1  1  0  0  0  0
  8 10  1  0  0  0  0
  9  8  2  0  0  0  0
 10 11  2  0  0  0  0
 10 15  1  0  0  0  0
 11 12  1  0  0  0  0
 12 17  1  0  0  0  0
 12 13  2  0  0  0  0
 14 18  1  0  0  0  0
 14 13  1  0  0  0  0
 15 14  2  0  0  0  0
 16 11  1  0  0  0  0
 19 20  2  0  0  0  0
 21 24  1  6  0  0  0
 21 19  1  0  0  0  0
 21 23  1  0  0  0  0
 22 21  1  0  0  0  0
 22 23  1  0  0  0  0
 23 28  1  0  0  0  0
 23 27  1  1  0  0  0
 25 22  1  0  0  0  0
 26 22  1  0  0  0  0
 28 29  1  0  0  0  0
 29 30  1  0  0  0  0
 29 31  1  0  0  0  0
 31 32  1  0  0  0  0
 33 29  1  0  0  0  0
 34 33  1  0  0  0  0
M  END
>  <minimizedAffinity>
-5.22908926

$$$$

 OpenBabel03272507353D

 34 36  0  0  1  0  0  0  0  0999 V2000
   35.9340   28.9870   33.5870 C   0  0  0  0  0  0  0  0  0  0  0  0
   36.5780   28.4960   32.4720 C   0  0  0  0  0  0  0  0  0  0  0  0
   37.5090   27.5450   32.9120 C   0  0  0  0  0  0  0  0  0  0  0  0
   37.3720   27.5170   34.2810 C   0  0  0  0  0  0  0  0  0  0  0  0
   36.4400   28.3770   34.6300 O   0  0  0  0  0  0  0  0  0  0  0  0
   36.4590   28.7310   31.4290 H   0  0  0  0  0  0  0  0  0  0  0  0
   38.1890   26.9570   32.3250 H   0  0  0  0  0  0  0  0  0  0  0  0
   34.8970   29.9990   33.4990 C   0  0  0  0  0  0  0  0  0  0  0  0
   35.1980   31.1480   33.1420 O   0  0  0  0  0  0  0  0  0  0  0  0
   33.5600   29.5950   33.8370 C   0  0  0  0  0  0  0  0  0  0  0  0
   33.1750   29.7380   35.1610 C   0  0  0  0  0  0  0  0  0  0  0  0
   31.8800   29.3500   35.5220 C   0  0  0  0  0  0  0  0  0  0  0  0
   31.0570   28.8480   34.5430 N   0  0  0  0  0  0  0  0  0  0  0  0
   31.4640   28.7260   33.2760 C   0  0  0  0  0  0  0  0  0  0  0  0
   32.7020   29.0940   32.9190 N   0  0  0  0  0  0  0  0  0  0  0  0
   33.7950   30.1280   35.9540 H   0  0  0  0  0  0  0  0  0  0  0  0
   31.5250   29.4360   36.5210 H   0  0  0  0  0  0  0  0  0  0  0  0
   30.8090   28.3280   32.5060 H   0  0  0  0  0  0  0  0  0  0  0  0
   38.1290   26.6710   35.2040 C   0  0  0  0  0  0  0  0  0  0  0  0
   38.9970   27.2280   35.9560 O   0  0  0  0  0  0  0  0  0  0  0  0
   37.8900   25.1890   35.2500 C   0  0  1  0  0  0  0  0  0  0  0  0
   39.0240   24.4390   34.4550 C   0  0  0  0  0  0  0  0  0  0  0  0
   38.8400   24.3010   35.9210 C   0  0  2  0  0  0  0  0  0  0  0  0
   36.9240   24.9010   34.7800 H   0  0  0  0  0  0  0  0  0  0  0  0
   38.7230   23.6570   33.7590 H   0  0  0  0  0  0  0  0  0  0  0  0
   39.8800   25.0270   34.1250 H   0  0  0  0  0  0  0  0  0  0  0  0
   39.5670   24.7900   36.5950 H   0  0  0  0  0  0  0  0  0  0  0  0
   38.3910   22.9440   36.4000 C   0  0  0  0  0  2  0  0  0  0  0  0
   39.0070   22.5260   37.6340 N   0  0  0  0  0  4  0  0  0  0  0  0
   38.6910   21.5810   37.9500 H   0  0  0  0  0  0  0  0  0  0  0  0
   38.6220   23.4960   38.6550 C   0  0  0  0  0  2  0  0  0  0  0  0
   39.4880   23.9840   39.1400 H   0  0  0  0  0  0  0  0  0  0  0  0
   40.4710   22.6160   37.5330 C   0  0  0  0  0  2  0  0  0  0  0  0
   40.7220   23.2760   36.6740 H   0  0  0  0  0  0  0  0  0  0  0  0
  1  5  1  0  0  0  0
  2  3  1  0  0  0  0
  2  1  2  0  0  0  0
  3  4  2  0  0  0  0
  4  5  1  0  0  0  0
  4 19  1  0  0  0  0
  6  2  1  0  0  0  0
  7  3  1  0  0  0  0
  8  1  1  0  0  0  0
  8 10  1  0  0  0  0
  9  8  2  0  0  0  0
 10 11  1  0  0  0  0
 11 12  2  0  0  0  0
 11 16  1  0  0  0  0
 12 17  1  0  0  0  0
 13 12  1  0  0  0  0
 14 13  2  0  0  0  0
 15 14  1  0  0  0  0
 15 10  2  0  0  0  0
 18 14  1  0  0  0  0
 19 21  1  0  0  0  0
 19 20  2  0  0  0  0
 21 24  1  6  0  0  0
 21 23  1  0  0  0  0
 22 21  1  0  0  0  0
 22 23  1  0  0  0  0
 23 28  1  0  0  0  0
 23 27  1  1  0  0  0
 25 22  1  0  0  0  0
 26 22  1  0  0  0  0
 28 29  1  0  0  0  0
 29 30  1  0  0  0  0
 29 31  1  0  0  0  0
 31 32  1  0  0  0  0
 33 29  1  0  0  0  0
 34 33  1  0  0  0  0
M  END
>  <minimizedAffinity>
-5.06395626

$$$$

 OpenBabel03272507353D

 34 36  0  0  1  0  0  0  0  0999 V2000
   38.0300   25.4400   36.0860 C   0  0  0  0  0  0  0  0  0  0  0  0
   38.4980   26.7120   36.3300 C   0  0  0  0  0  0  0  0  0  0  0  0
   38.1100   27.5160   35.2490 C   0  0  0  0  0  0  0  0  0  0  0  0
   37.4230   26.6720   34.4060 C   0  0  0  0  0  0  0  0  0  0  0  0
   37.4030   25.4690   34.9360 O   0  0  0  0  0  0  0  0  0  0  0  0
   39.0590   27.1090   37.1580 H   0  0  0  0  0  0  0  0  0  0  0  0
   38.2990   28.5620   35.0940 H   0  0  0  0  0  0  0  0  0  0  0  0
   38.2530   24.3420   37.0090 C   0  0  0  0  0  0  0  0  0  0  0  0
   37.5080   24.2140   37.9920 O   0  0  0  0  0  0  0  0  0  0  0  0
   39.3460   23.4550   36.7190 C   0  0  0  0  0  0  0  0  0  0  0  0
   39.7430   23.3590   35.3950 C   0  0  0  0  0  0  0  0  0  0  0  0
   40.8020   22.5010   35.0790 C   0  0  0  0  0  0  0  0  0  0  0  0
   41.3950   21.7990   36.1020 N   0  0  0  0  0  0  0  0  0  0  0  0
   40.9840   21.9190   37.3680 C   0  0  0  0  0  0  0  0  0  0  0  0
   39.9690   22.7370   37.6800 N   0  0  0  0  0  0  0  0  0  0  0  0
   39.3020   23.8950   34.5680 H   0  0  0  0  0  0  0  0  0  0  0  0
   41.1540   22.3840   34.0820 H   0  0  0  0  0  0  0  0  0  0  0  0
   41.4540   21.3610   38.1710 H   0  0  0  0  0  0  0  0  0  0  0  0
   36.8100   27.0450   33.1300 C   0  0  0  0  0  0  0  0  0  0  0  0
   36.5160   26.1120   32.3100 O   0  0  0  0  0  0  0  0  0  0  0  0
   36.5450   28.4860   32.8040 C   0  0  1  0  0  0  0  0  0  0  0  0
   35.0680   28.6540   32.2800 C   0  0  0  0  0  0  0  0  0  0  0  0
   35.5460   29.2490   33.5530 C   0  0  2  0  0  0  0  0  0  0  0  0
   37.2150   28.8690   32.0030 H   0  0  0  0  0  0  0  0  0  0  0  0
   34.9130   29.2530   31.3840 H   0  0  0  0  0  0  0  0  0  0  0  0
   34.4050   27.7930   32.3640 H   0  0  0  0  0  0  0  0  0  0  0  0
   35.2100   28.8010   34.5060 H   0  0  0  0  0  0  0  0  0  0  0  0
   35.6190   30.7550   33.5850 C   0  0  0  0  0  2  0  0  0  0  0  0
   34.9870   31.3460   34.7370 N   0  0  0  0  0  4  0  0  0  0  0  0
   34.7150   32.3440   34.5880 H   0  0  0  0  0  0  0  0  0  0  0  0
   35.9570   31.3010   35.8280 C   0  0  0  0  0  2  0  0  0  0  0  0
   35.5890   30.7500   36.7140 H   0  0  0  0  0  0  0  0  0  0  0  0
   33.8530   30.5220   35.1810 C   0  0  0  0  0  2  0  0  0  0  0  0
   33.9620   29.5090   34.7360 H   0  0  0  0  0  0  0  0  0  0  0  0
  1  2  2  0  0  0  0
  1  8  1  0  0  0  0
  2  6  1  0  0  0  0
  3  2  1  0  0  0  0
  4  5  1  0  0  0  0
  4  3  2  0  0  0  0
  5  1  1  0  0  0  0
  7  3  1  0  0  0  0
  8  9  2  0  0  0  0
 10  8  1  0  0  0  0
 10 15  1  0  0  0  0
 11 10  2  0  0  0  0
 12 11  1  0  0  0  0
 12 13  2  0  0  0  0
 13 14  1  0  0  0  0
 14 15  2  0  0  0  0
 14 18  1  0  0  0  0
 16 11  1  0  0  0  0
 17 12  1  0  0  0  0
 19  4  1  0  0  0  0
 20 19  2  0  0  0  0
 21 24  1  6  0  0  0
 21 19  1  0  0  0  0
 21 23  1  0  0  0  0
 22 26  1  0  0  0  0
 22 21  1  0  0  0  0
 22 23  1  0  0  0  0
 23 28  1  0  0  0  0
 23 27  1  1  0  0  0
 25 22  1  0  0  0  0
 28 29  1  0  0  0  0
 29 33  1  0  0  0  0
 29 31  1  0  0  0  0
 30 29  1  0  0  0  0
 31 32  1  0  0  0  0
 34 33  1  0  0  0  0
M  END
>  <minimizedAffinity>
-5.03540659

$$$$

 OpenBabel03272507353D

 34 36  0  0  1  0  0  0  0  0999 V2000
   38.1870   27.0180   34.3370 C   0  0  0  0  0  0  0  0  0  0  0  0
   37.8730   26.9940   32.9960 C   0  0  0  0  0  0  0  0  0  0  0  0
   36.8160   27.8930   32.7980 C   0  0  0  0  0  0  0  0  0  0  0  0
   36.5510   28.4140   34.0430 C   0  0  0  0  0  0  0  0  0  0  0  0
   37.3770   27.8720   34.9120 O   0  0  0  0  0  0  0  0  0  0  0  0
   38.2970   26.4310   32.1840 H   0  0  0  0  0  0  0  0  0  0  0  0
   36.3100   28.1360   31.8810 H   0  0  0  0  0  0  0  0  0  0  0  0
   39.2470   26.2010   34.8990 C   0  0  0  0  0  0  0  0  0  0  0  0
   40.3970   26.6590   34.9650 O   0  0  0  0  0  0  0  0  0  0  0  0
   38.8870   24.8860   35.3520 C   0  0  0  0  0  0  0  0  0  0  0  0
   39.4370   23.8120   34.6700 C   0  0  0  0  0  0  0  0  0  0  0  0
   39.1030   22.5180   35.0850 C   0  0  0  0  0  0  0  0  0  0  0  0
   38.2450   22.3810   36.1510 N   0  0  0  0  0  0  0  0  0  0  0  0
   37.7350   23.4410   36.7850 C   0  0  0  0  0  0  0  0  0  0  0  0
   38.0480   24.6850   36.3940 N   0  0  0  0  0  0  0  0  0  0  0  0
   40.1120   23.8830   33.8310 H   0  0  0  0  0  0  0  0  0  0  0  0
   39.4930   21.6540   34.6040 H   0  0  0  0  0  0  0  0  0  0  0  0
   37.0570   23.3270   37.6250 H   0  0  0  0  0  0  0  0  0  0  0  0
   35.5250   29.4090   34.3590 C   0  0  0  0  0  0  0  0  0  0  0  0
   34.3700   29.2680   33.8350 O   0  0  0  0  0  0  0  0  0  0  0  0
   35.8360   30.5610   35.2690 C   0  0  1  0  0  0  0  0  0  0  0  0
   35.6770   31.9190   34.4860 C   0  0  0  0  0  0  0  0  0  0  0  0
   34.8000   31.5350   35.6200 C   0  0  2  0  0  0  0  0  0  0  0  0
   36.8800   30.5310   35.6490 H   0  0  0  0  0  0  0  0  0  0  0  0
   36.4670   32.6620   34.5920 H   0  0  0  0  0  0  0  0  0  0  0  0
   35.2330   31.8760   33.4910 H   0  0  0  0  0  0  0  0  0  0  0  0
   33.7590   31.2310   35.4060 H   0  0  0  0  0  0  0  0  0  0  0  0
   34.9430   32.3660   36.8690 C   0  0  0  0  0  2  0  0  0  0  0  0
   33.7280   32.4850   37.6350 N   0  0  0  0  0  4  0  0  0  0  0  0
   33.8910   32.4690   38.6670 H   0  0  0  0  0  0  0  0  0  0  0  0
   32.8920   31.3380   37.2910 C   0  0  0  0  0  2  0  0  0  0  0  0
   31.9030   31.6260   36.8890 H   0  0  0  0  0  0  0  0  0  0  0  0
   32.9680   33.6710   37.2110 C   0  0  0  0  0  2  0  0  0  0  0  0
   33.3430   33.9870   36.2130 H   0  0  0  0  0  0  0  0  0  0  0  0
  1  8  1  0  0  0  0
  1  5  1  0  0  0  0
  2  1  2  0  0  0  0
  3  2  1  0  0  0  0
  3  4  2  0  0  0  0
  4 19  1  0  0  0  0
  4  5  1  0  0  0  0
  6  2  1  0  0  0  0
  7  3  1  0  0  0  0
  8  9  2  0  0  0  0
  8 10  1  0  0  0  0
 10 15  1  0  0  0  0
 11 12  1  0  0  0  0
 11 10  2  0  0  0  0
 12 13  2  0  0  0  0
 13 14  1  0  0  0  0
 14 18  1  0  0  0  0
 15 14  2  0  0  0  0
 16 11  1  0  0  0  0
 17 12  1  0  0  0  0
 19 21  1  0  0  0  0
 20 19  2  0  0  0  0
 21 23  1  0  0  0  0
 21 24  1  1  0  0  0
 22 25  1  0  0  0  0
 22 21  1  0  0  0  0
 22 23  1  0  0  0  0
 23 27  1  6  0  0  0
 23 28  1  0  0  0  0
 26 22  1  0  0  0  0
 28 29  1  0  0  0  0
 29 30  1  0  0  0  0
 31 29  1  0  0  0  0
 32 31  1  0  0  0  0
 33 29  1  0  0  0  0
 34 33  1  0  0  0  0
M  END
>  <minimizedAffinity>
-4.99375105

$$$$

 OpenBabel03272507353D

 34 36  0  0  1  0  0  0  0  0999 V2000
   37.8620   25.9240   34.8120 C   0  0  0  0  0  0  0  0  0  0  0  0
   38.3980   26.9130   35.6070 C   0  0  0  0  0  0  0  0  0  0  0  0
   37.7090   28.1000   35.3200 C   0  0  0  0  0  0  0  0  0  0  0  0
   36.7880   27.7540   34.3590 C   0  0  0  0  0  0  0  0  0  0  0  0
   36.9150   26.4730   34.0920 O   0  0  0  0  0  0  0  0  0  0  0  0
   39.1890   26.8800   36.3360 H   0  0  0  0  0  0  0  0  0  0  0  0
   37.8550   29.0750   35.7470 H   0  0  0  0  0  0  0  0  0  0  0  0
   38.3420   24.5540   34.8510 C   0  0  0  0  0  0  0  0  0  0  0  0
   38.4860   23.9310   33.7880 O   0  0  0  0  0  0  0  0  0  0  0  0
   38.6250   23.9980   36.1440 C   0  0  0  0  0  0  0  0  0  0  0  0
   37.6330   24.1040   37.1070 C   0  0  0  0  0  0  0  0  0  0  0  0
   37.8800   23.5750   38.3780 C   0  0  0  0  0  0  0  0  0  0  0  0
   39.0960   22.9750   38.6050 N   0  0  0  0  0  0  0  0  0  0  0  0
   40.0280   22.8900   37.6510 C   0  0  0  0  0  0  0  0  0  0  0  0
   39.8020   23.3950   36.4300 N   0  0  0  0  0  0  0  0  0  0  0  0
   36.6690   24.5670   36.9620 H   0  0  0  0  0  0  0  0  0  0  0  0
   37.1590   23.6240   39.1580 H   0  0  0  0  0  0  0  0  0  0  0  0
   40.9870   22.4160   37.8360 H   0  0  0  0  0  0  0  0  0  0  0  0
   35.8190   28.6560   33.7320 C   0  0  0  0  0  0  0  0  0  0  0  0
   35.0640   29.3490   34.4930 O   0  0  0  0  0  0  0  0  0  0  0  0
   35.7220   28.7500   32.2370 C   0  0  1  0  0  0  0  0  0  0  0  0
   36.3080   30.1290   31.7490 C   0  0  0  0  0  0  0  0  0  0  0  0
   36.9300   28.8230   31.4140 C   0  0  2  0  0  0  0  0  0  0  0  0
   34.6710   28.7030   31.8770 H   0  0  0  0  0  0  0  0  0  0  0  0
   35.7300   30.6970   31.0210 H   0  0  0  0  0  0  0  0  0  0  0  0
   36.8290   30.7420   32.4840 H   0  0  0  0  0  0  0  0  0  0  0  0
   37.8750   28.5420   31.9160 H   0  0  0  0  0  0  0  0  0  0  0  0
   36.8760   28.4240   29.9620 C   0  0  0  0  0  2  0  0  0  0  0  0
   37.9740   27.5920   29.5420 N   0  0  0  0  0  4  0  0  0  0  0  0
   37.7650   27.0430   28.6780 H   0  0  0  0  0  0  0  0  0  0  0  0
   38.2350   26.6490   30.6260 C   0  0  0  0  0  2  0  0  0  0  0  0
   39.2700   26.7060   31.0120 H   0  0  0  0  0  0  0  0  0  0  0  0
   39.2020   28.3910   29.4070 C   0  0  0  0  0  2  0  0  0  0  0  0
   39.0600   29.3440   29.9630 H   0  0  0  0  0  0  0  0  0  0  0  0
  1  8  1  0  0  0  0
  1  2  2  0  0  0  0
  2  6  1  0  0  0  0
  3  2  1  0  0  0  0
  3  7  1  0  0  0  0
  4  3  2  0  0  0  0
  5  4  1  0  0  0  0
  5  1  1  0  0  0  0
  8 10  1  0  0  0  0
  9  8  2  0  0  0  0
 10 15  2  0  0  0  0
 10 11  1  0  0  0  0
 11 12  2  0  0  0  0
 12 13  1  0  0  0  0
 12 17  1  0  0  0  0
 14 18  1  0  0  0  0
 14 13  2  0  0  0  0
 15 14  1  0  0  0  0
 16 11  1  0  0  0  0
 19  4  1  0  0  0  0
 19 20  2  0  0  0  0
 21 24  1  6  0  0  0
 21 19  1  0  0  0  0
 22 21  1  0  0  0  0
 22 26  1  0  0  0  0
 23 22  1  0  0  0  0
 23 27  1  1  0  0  0
 23 21  1  0  0  0  0
 25 22  1  0  0  0  0
 28 23  1  0  0  0  0
 29 28  1  0  0  0  0
 29 31  1  0  0  0  0
 30 29  1  0  0  0  0
 31 32  1  0  0  0  0
 33 29  1  0  0  0  0
 33 34  1  0  0  0  0
M  END
>  <minimizedAffinity>
-4.99262714

$$$$

 OpenBabel03272507353D

 34 36  0  0  1  0  0  0  0  0999 V2000
   37.9600   25.4660   36.0010 C   0  0  0  0  0  0  0  0  0  0  0  0
   38.4620   26.6690   36.4450 C   0  0  0  0  0  0  0  0  0  0  0  0
   38.0620   27.6540   35.5300 C   0  0  0  0  0  0  0  0  0  0  0  0
   37.3340   26.9800   34.5770 C   0  0  0  0  0  0  0  0  0  0  0  0
   37.3020   25.7040   34.8930 O   0  0  0  0  0  0  0  0  0  0  0  0
   39.0540   26.9090   37.3110 H   0  0  0  0  0  0  0  0  0  0  0  0
   38.2690   28.7070   35.5520 H   0  0  0  0  0  0  0  0  0  0  0  0
   38.1850   24.2220   36.7150 C   0  0  0  0  0  0  0  0  0  0  0  0
   37.3420   23.8340   37.5380 O   0  0  0  0  0  0  0  0  0  0  0  0
   39.3940   23.5060   36.4160 C   0  0  0  0  0  0  0  0  0  0  0  0
   39.9530   22.7580   37.4400 C   0  0  0  0  0  0  0  0  0  0  0  0
   41.1320   22.0520   37.1800 C   0  0  0  0  0  0  0  0  0  0  0  0
   41.6750   22.1380   35.9200 N   0  0  0  0  0  0  0  0  0  0  0  0
   41.1060   22.8690   34.9570 C   0  0  0  0  0  0  0  0  0  0  0  0
   39.9760   23.5500   35.1960 N   0  0  0  0  0  0  0  0  0  0  0  0
   39.5540   22.6690   38.4390 H   0  0  0  0  0  0  0  0  0  0  0  0
   41.6090   21.4600   37.9240 H   0  0  0  0  0  0  0  0  0  0  0  0
   41.5390   22.9340   33.9630 H   0  0  0  0  0  0  0  0  0  0  0  0
   36.6930   27.5760   33.4040 C   0  0  0  0  0  0  0  0  0  0  0  0
   36.8710   27.0150   32.2720 O   0  0  0  0  0  0  0  0  0  0  0  0
   35.8590   28.8170   33.5400 C   0  0  1  0  0  0  0  0  0  0  0  0
   36.0070   29.7060   32.2470 C   0  0  0  0  0  0  0  0  0  0  0  0
   34.7300   29.0590   32.6400 C   0  0  2  0  0  0  0  0  0  0  0  0
   36.1740   29.4470   34.4000 H   0  0  0  0  0  0  0  0  0  0  0  0
   36.1800   30.7730   32.3820 H   0  0  0  0  0  0  0  0  0  0  0  0
   36.5310   29.2710   31.3960 H   0  0  0  0  0  0  0  0  0  0  0  0
   34.3780   28.1860   32.0610 H   0  0  0  0  0  0  0  0  0  0  0  0
   33.6230   29.9940   33.0570 C   0  0  0  0  0  2  0  0  0  0  0  0
   32.3560   29.7160   32.4300 N   0  0  0  0  0  4  0  0  0  0  0  0
   32.4520   29.2240   31.5130 H   0  0  0  0  0  0  0  0  0  0  0  0
   31.7070   31.0010   32.1880 C   0  0  0  0  0  2  0  0  0  0  0  0
   30.7160   31.0860   32.6730 H   0  0  0  0  0  0  0  0  0  0  0  0
   31.4720   28.9930   33.3580 C   0  0  0  0  0  2  0  0  0  0  0  0
   31.8650   29.1270   34.3890 H   0  0  0  0  0  0  0  0  0  0  0  0
  1  2  2  0  0  0  0
  1  8  1  0  0  0  0
  2  6  1  0  0  0  0
  3  7  1  0  0  0  0
  3  2  1  0  0  0  0
  4  5  1  0  0  0  0
  4  3  2  0  0  0  0
  5  1  1  0  0  0  0
  8  9  2  0  0  0  0
 10  8  1  0  0  0  0
 10 11  1  0  0  0  0
 11 16  1  0  0  0  0
 12 11  2  0  0  0  0
 12 17  1  0  0  0  0
 13 12  1  0  0  0  0
 14 15  1  0  0  0  0
 14 13  2  0  0  0  0
 15 10  2  0  0  0  0
 18 14  1  0  0  0  0
 19 21  1  0  0  0  0
 19  4  1  0  0  0  0
 20 19  2  0  0  0  0
 21 24  1  1  0  0  0
 22 25  1  0  0  0  0
 22 23  1  0  0  0  0
 22 21  1  0  0  0  0
 23 27  1  6  0  0  0
 23 28  1  0  0  0  0
 23 21  1  0  0  0  0
 26 22  1  0  0  0  0
 29 28  1  0  0  0  0
 29 33  1  0  0  0  0
 30 29  1  0  0  0  0
 31 29  1  0  0  0  0
 31 32  1  0  0  0  0
 33 34  1  0  0  0  0
M  END
>  <minimizedAffinity>
-4.97973442

$$$$

 OpenBabel03272507353D

 34 36  0  0  1  0  0  0  0  0999 V2000
   37.8810   25.5050   35.9150 C   0  0  0  0  0  0  0  0  0  0  0  0
   38.5110   26.6270   36.4070 C   0  0  0  0  0  0  0  0  0  0  0  0
   38.1460   27.7050   35.5870 C   0  0  0  0  0  0  0  0  0  0  0  0
   37.3090   27.1640   34.6380 C   0  0  0  0  0  0  0  0  0  0  0  0
   37.1840   25.8760   34.8690 O   0  0  0  0  0  0  0  0  0  0  0  0
   39.1700   26.7540   37.2470 H   0  0  0  0  0  0  0  0  0  0  0  0
   38.4450   28.7340   35.6660 H   0  0  0  0  0  0  0  0  0  0  0  0
   38.0360   24.1990   36.5290 C   0  0  0  0  0  0  0  0  0  0  0  0
   37.0910   23.7100   37.1650 O   0  0  0  0  0  0  0  0  0  0  0  0
   39.3020   23.5420   36.3550 C   0  0  0  0  0  0  0  0  0  0  0  0
   39.7950   22.8280   37.4350 C   0  0  0  0  0  0  0  0  0  0  0  0
   41.0280   22.1800   37.2980 C   0  0  0  0  0  0  0  0  0  0  0  0
   41.6850   22.2850   36.0950 N   0  0  0  0  0  0  0  0  0  0  0  0
   41.1770   22.9830   35.0750 C   0  0  0  0  0  0  0  0  0  0  0  0
   39.9980   23.6080   35.1960 N   0  0  0  0  0  0  0  0  0  0  0  0
   39.3060   22.7240   38.3920 H   0  0  0  0  0  0  0  0  0  0  0  0
   41.4580   21.6160   38.0900 H   0  0  0  0  0  0  0  0  0  0  0  0
   41.7010   23.0640   34.1270 H   0  0  0  0  0  0  0  0  0  0  0  0
   36.6570   27.8950   33.5500 C   0  0  0  0  0  0  0  0  0  0  0  0
   35.6880   28.6730   33.8450 O   0  0  0  0  0  0  0  0  0  0  0  0
   37.1170   27.7210   32.1320 C   0  0  1  0  0  0  0  0  0  0  0  0
   36.0370   26.9180   31.3130 C   0  0  0  0  0  0  0  0  0  0  0  0
   36.3790   28.3340   31.0270 C   0  0  2  0  0  0  0  0  0  0  0  0
   38.0660   27.1450   32.0630 H   0  0  0  0  0  0  0  0  0  0  0  0
   36.3830   26.1010   30.6820 H   0  0  0  0  0  0  0  0  0  0  0  0
   35.0750   26.7370   31.7940 H   0  0  0  0  0  0  0  0  0  0  0  0
   35.6540   29.1210   31.3080 H   0  0  0  0  0  0  0  0  0  0  0  0
   37.0680   28.5890   29.7110 C   0  0  0  0  0  2  0  0  0  0  0  0
   37.6230   29.9130   29.5890 N   0  0  0  0  0  4  0  0  0  0  0  0
   38.5300   30.0250   30.0950 H   0  0  0  0  0  0  0  0  0  0  0  0
   36.6580   30.8370   30.1770 C   0  0  0  0  0  2  0  0  0  0  0  0
   36.3150   31.6160   29.4700 H   0  0  0  0  0  0  0  0  0  0  0  0
   37.7280   30.2960   28.1730 C   0  0  0  0  0  2  0  0  0  0  0  0
   37.0680   29.6260   27.5800 H   0  0  0  0  0  0  0  0  0  0  0  0
  1  2  2  0  0  0  0
  1  8  1  0  0  0  0
  2  6  1  0  0  0  0
  3  7  1  0  0  0  0
  3  2  1  0  0  0  0
  4  5  1  0  0  0  0
  4  3  2  0  0  0  0
  5  1  1  0  0  0  0
  8  9  2  0  0  0  0
 10  8  1  0  0  0  0
 10 11  1  0  0  0  0
 11 16  1  0  0  0  0
 12 11  2  0  0  0  0
 12 17  1  0  0  0  0
 13 12  1  0  0  0  0
 14 15  1  0  0  0  0
 14 13  2  0  0  0  0
 15 10  2  0  0  0  0
 18 14  1  0  0  0  0
 19 20  2  0  0  0  0
 19  4  1  0  0  0  0
 21 24  1  6  0  0  0
 21 19  1  0  0  0  0
 22 26  1  0  0  0  0
 22 21  1  0  0  0  0
 23 27  1  1  0  0  0
 23 22  1  0  0  0  0
 23 21  1  0  0  0  0
 25 22  1  0  0  0  0
 28 23  1  0  0  0  0
 29 28  1  0  0  0  0
 29 30  1  0  0  0  0
 29 31  1  0  0  0  0
 32 31  1  0  0  0  0
 33 29  1  0  0  0  0
 34 33  1  0  0  0  0
M  END
>  <minimizedAffinity>
-4.86182308

$$$$

 OpenBabel03272507353D

 34 36  0  0  1  0  0  0  0  0999 V2000
   37.0600   23.6990   31.3570 C   0  0  0  0  0  0  0  0  0  0  0  0
   35.8680   24.2870   30.9940 C   0  0  0  0  0  0  0  0  0  0  0  0
   35.9160   25.6230   31.4160 C   0  0  0  0  0  0  0  0  0  0  0  0
   37.1460   25.7650   32.0150 C   0  0  0  0  0  0  0  0  0  0  0  0
   37.7800   24.6140   31.9580 O   0  0  0  0  0  0  0  0  0  0  0  0
   35.0110   23.8850   30.4850 H   0  0  0  0  0  0  0  0  0  0  0  0
   35.1660   26.3840   31.3050 H   0  0  0  0  0  0  0  0  0  0  0  0
   37.3550   22.3060   31.0730 C   0  0  0  0  0  0  0  0  0  0  0  0
   38.2160   22.0280   30.2250 O   0  0  0  0  0  0  0  0  0  0  0  0
   36.6130   21.3180   31.8070 C   0  0  0  0  0  0  0  0  0  0  0  0
   36.1530   20.2200   31.0970 C   0  0  0  0  0  0  0  0  0  0  0  0
   35.4240   19.2420   31.7830 C   0  0  0  0  0  0  0  0  0  0  0  0
   35.2040   19.4230   33.1280 N   0  0  0  0  0  0  0  0  0  0  0  0
   35.6650   20.4960   33.7790 C   0  0  0  0  0  0  0  0  0  0  0  0
   36.3630   21.4380   33.1300 N   0  0  0  0  0  0  0  0  0  0  0  0
   36.3070   20.0470   30.0430 H   0  0  0  0  0  0  0  0  0  0  0  0
   35.0450   18.3770   31.2950 H   0  0  0  0  0  0  0  0  0  0  0  0
   35.4870   20.6340   34.8410 H   0  0  0  0  0  0  0  0  0  0  0  0
   37.6740   26.9910   32.6160 C   0  0  0  0  0  0  0  0  0  0  0  0
   37.6930   28.0500   31.9030 O   0  0  0  0  0  0  0  0  0  0  0  0
   38.1820   26.9900   34.0280 C   0  0  1  0  0  0  0  0  0  0  0  0
   37.1310   27.6830   34.9760 C   0  0  0  0  0  0  0  0  0  0  0  0
   37.4800   26.2440   35.0730 C   0  0  2  0  0  0  0  0  0  0  0  0
   39.1330   27.5560   34.1370 H   0  0  0  0  0  0  0  0  0  0  0  0
   37.4990   28.4170   35.6920 H   0  0  0  0  0  0  0  0  0  0  0  0
   36.1540   27.9200   34.5540 H   0  0  0  0  0  0  0  0  0  0  0  0
   36.7460   25.4950   34.7220 H   0  0  0  0  0  0  0  0  0  0  0  0
   38.2130   25.8310   36.3240 C   0  0  0  0  0  2  0  0  0  0  0  0
   38.0720   24.4340   36.6500 N   0  0  0  0  0  4  0  0  0  0  0  0
   37.2090   24.0050   36.2470 H   0  0  0  0  0  0  0  0  0  0  0  0
   37.9850   24.3420   38.1050 C   0  0  0  0  0  2  0  0  0  0  0  0
   38.7710   23.7010   38.5470 H   0  0  0  0  0  0  0  0  0  0  0  0
   39.2860   23.6940   36.2760 C   0  0  0  0  0  2  0  0  0  0  0  0
   40.1130   24.4250   36.1430 H   0  0  0  0  0  0  0  0  0  0  0  0
  1  5  1  0  0  0  0
  2  1  2  0  0  0  0
  2  3  1  0  0  0  0
  3  4  2  0  0  0  0
  4 19  1  0  0  0  0
  5  4  1  0  0  0  0
  6  2  1  0  0  0  0
  7  3  1  0  0  0  0
  8  1  1  0  0  0  0
  8 10  1  0  0  0  0
  9  8  2  0  0  0  0
 10 15  1  0  0  0  0
 11 12  1  0  0  0  0
 11 10  2  0  0  0  0
 12 13  2  0  0  0  0
 13 14  1  0  0  0  0
 14 18  1  0  0  0  0
 15 14  2  0  0  0  0
 16 11  1  0  0  0  0
 17 12  1  0  0  0  0
 19 21  1  0  0  0  0
 20 19  2  0  0  0  0
 21 24  1  1  0  0  0
 21 22  1  0  0  0  0
 21 23  1  0  0  0  0
 22 23  1  0  0  0  0
 22 25  1  0  0  0  0
 23 27  1  6  0  0  0
 23 28  1  0  0  0  0
 26 22  1  0  0  0  0
 28 29  1  0  0  0  0
 29 31  1  0  0  0  0
 30 29  1  0  0  0  0
 31 32  1  0  0  0  0
 33 29  1  0  0  0  0
 34 33  1  0  0  0  0
M  END
>  <minimizedAffinity>
-4.83357477

$$$$
