
 OpenBabel03272507333D

 34 36  0  0  1  0  0  0  0  0999 V2000
   35.8180   29.1420   49.8080 C   0  0  0  0  0  0  0  0  0  0  0  0
   34.8110   29.6600   50.5920 C   0  0  0  0  0  0  0  0  0  0  0  0
   33.6000   29.1330   50.1190 C   0  0  0  0  0  0  0  0  0  0  0  0
   33.9520   28.3200   49.0670 C   0  0  0  0  0  0  0  0  0  0  0  0
   35.2580   28.3570   48.9210 O   0  0  0  0  0  0  0  0  0  0  0  0
   34.8450   30.3390   51.4250 H   0  0  0  0  0  0  0  0  0  0  0  0
   32.6070   29.3130   50.4860 H   0  0  0  0  0  0  0  0  0  0  0  0
   37.2150   29.4790   50.0200 C   0  0  0  0  0  0  0  0  0  0  0  0
   37.8640   28.8630   50.8790 O   0  0  0  0  0  0  0  0  0  0  0  0
   37.7660   30.5250   49.2050 C   0  0  0  0  0  0  0  0  0  0  0  0
   38.1140   31.7040   49.8440 C   0  0  0  0  0  0  0  0  0  0  0  0
   38.6510   32.7440   49.0760 C   0  0  0  0  0  0  0  0  0  0  0  0
   38.8040   32.5390   47.7250 N   0  0  0  0  0  0  0  0  0  0  0  0
   38.4560   31.3870   47.1440 C   0  0  0  0  0  0  0  0  0  0  0  0
   37.9410   30.3850   47.8710 N   0  0  0  0  0  0  0  0  0  0  0  0
   38.0080   31.8980   50.9000 H   0  0  0  0  0  0  0  0  0  0  0  0
   38.9390   33.6720   49.5080 H   0  0  0  0  0  0  0  0  0  0  0  0
   38.5790   31.2310   46.0770 H   0  0  0  0  0  0  0  0  0  0  0  0
   33.0310   27.5350   48.2420 C   0  0  0  0  0  0  0  0  0  0  0  0
   31.8130   27.4540   48.6120 O   0  0  0  0  0  0  0  0  0  0  0  0
   33.5200   26.8450   47.0020 C   0  0  1  0  0  0  0  0  0  0  0  0
   33.7990   25.3250   47.3100 C   0  0  0  0  0  0  0  0  0  0  0  0
   32.7320   25.7780   46.3820 C   0  0  2  0  0  0  0  0  0  0  0  0
   34.4730   27.2750   46.6250 H   0  0  0  0  0  0  0  0  0  0  0  0
   34.7340   24.8980   46.9510 H   0  0  0  0  0  0  0  0  0  0  0  0
   33.4720   24.9410   48.2760 H   0  0  0  0  0  0  0  0  0  0  0  0
   31.6790   25.7030   46.7090 H   0  0  0  0  0  0  0  0  0  0  0  0
   32.9400   25.4370   44.9290 C   0  0  0  0  0  2  0  0  0  0  0  0
   31.7580   25.5900   44.1190 N   0  0  0  0  0  4  0  0  0  0  0  0
   30.8980   25.2070   44.5730 H   0  0  0  0  0  0  0  0  0  0  0  0
   31.9870   24.8460   42.8840 C   0  0  0  0  0  2  0  0  0  0  0  0
   31.9030   25.4750   41.9760 H   0  0  0  0  0  0  0  0  0  0  0  0
   31.5900   26.9930   43.7120 C   0  0  0  0  0  2  0  0  0  0  0  0
   32.5630   27.5150   43.8490 H   0  0  0  0  0  0  0  0  0  0  0  0
  1  8  1  0  0  0  0
  1  2  2  0  0  0  0
  2  6  1  0  0  0  0
  3  7  1  0  0  0  0
  3  2  1  0  0  0  0
  4  3  2  0  0  0  0
  5  4  1  0  0  0  0
  5  1  1  0  0  0  0
  8  9  2  0  0  0  0
 10 11  1  0  0  0  0
 10  8  1  0  0  0  0
 11 16  1  0  0  0  0
 12 17  1  0  0  0  0
 12 11  2  0  0  0  0
 13 12  1  0  0  0  0
 14 13  2  0  0  0  0
 14 15  1  0  0  0  0
 15 10  2  0  0  0  0
 18 14  1  0  0  0  0
 19 20  2  0  0  0  0
 19  4  1  0  0  0  0
 21 24  1  6  0  0  0
 21 22  1  0  0  0  0
 21 19  1  0  0  0  0
 22 26  1  0  0  0  0
 23 27  1  1  0  0  0
 23 21  1  0  0  0  0
 23 22  1  0  0  0  0
 25 22  1  0  0  0  0
 28 23  1  0  0  0  0
 29 30  1  0  0  0  0
 29 28  1  0  0  0  0
 31 29  1  0  0  0  0
 32 31  1  0  0  0  0
 33 34  1  0  0  0  0
 33 29  1  0  0  0  0
M  END
>  <minimizedAffinity>
-4.60040474

>  <minimizedRMSD>
0.0700138956

$$$$
