
 OpenBabel03272503303D

 37 40  0  0  1  0  0  0  0  0999 V2000
   34.8380   29.3650   47.9890 C   0  0  0  0  0  0  0  0  0  0  0  0
   34.6850   30.0100   46.7480 C   0  0  0  0  0  0  0  0  0  0  0  0
   33.5170   29.7450   46.0390 C   0  0  0  0  0  0  0  0  0  0  0  0
   32.6070   28.8800   46.5990 N   0  0  0  0  0  0  0  0  0  0  0  0
   32.7920   28.2920   47.7770 C   0  0  0  0  0  0  0  0  0  0  0  0
   33.9110   28.5350   48.4760 N   0  0  0  0  0  0  0  0  0  0  0  0
   35.4360   30.6830   46.3560 H   0  0  0  0  0  0  0  0  0  0  0  0
   33.3290   30.2020   45.0820 H   0  0  0  0  0  0  0  0  0  0  0  0
   36.0430   29.6410   48.7150 N   0  0  0  0  0  0  0  0  0  0  0  0
   37.1990   30.3460   48.2460 C   0  0  0  0  0  0  0  0  0  0  0  0
   37.7720   30.9360   49.5260 C   0  0  2  0  0  0  0  0  0  0  0  0
   36.7960   30.5840   50.6230 C   0  0  0  0  0  0  0  0  0  0  0  0
   36.3100   29.2500   50.0830 C   0  0  0  0  0  0  0  0  0  0  0  0
   36.9520   31.1570   47.5370 H   0  0  0  0  0  0  0  0  0  0  0  0
   37.9020   29.6510   47.7530 H   0  0  0  0  0  0  0  0  0  0  0  0
   38.7280   30.4270   49.7310 H   0  0  0  0  0  0  0  0  0  0  0  0
   35.9760   31.2930   50.7500 H   0  0  0  0  0  0  0  0  0  0  0  0
   37.3740   30.3600   51.5390 H   0  0  0  0  0  0  0  0  0  0  0  0
   35.3700   29.0030   50.6230 H   0  0  0  0  0  0  0  0  0  0  0  0
   37.0960   28.4840   50.1860 H   0  0  0  0  0  0  0  0  0  0  0  0
   38.0130   32.4160   49.4200 C   0  0  0  0  0  0  0  0  0  0  0  0
   36.9030   33.0370   49.9790 F   0  0  0  0  0  0  0  0  0  0  0  0
   37.9960   32.7410   48.0800 F   0  0  0  0  0  0  0  0  0  0  0  0
   39.1820   32.8160   49.9970 F   0  0  0  0  0  0  0  0  0  0  0  0
   31.5700   27.1770   48.4440 S   0  0  0  0  0  0  0  0  0  0  0  0
   29.9790   27.9850   48.3820 C   0  0  0  0  0  0  0  0  0  0  0  0
   29.7920   28.7200   47.2570 N   0  0  0  0  0  0  0  0  0  0  0  0
   28.6400   29.3960   47.0540 C   0  0  0  0  0  3  0  0  0  0  0  0
   27.6630   29.3440   47.9720 N   0  0  0  0  0  0  0  0  0  0  0  0
   27.8110   28.6160   49.1150 C   0  0  0  0  0  0  0  0  0  0  0  0
   26.8390   28.5230   50.1020 C   0  0  0  0  0  3  0  0  0  0  0  0
   27.0920   27.7530   51.2300 C   0  0  0  0  0  0  0  0  0  0  0  0
   26.2620   27.7600   51.9210 H   0  0  0  0  0  0  0  0  0  0  0  0
   28.2780   27.0750   51.4090 C   0  0  0  0  0  0  0  0  0  0  0  0
   28.4110   26.4990   52.3010 H   0  0  0  0  0  0  0  0  0  0  0  0
   29.2720   27.1500   50.4360 C   0  0  0  0  0  3  0  0  0  0  0  0
   28.9840   27.9230   49.3310 C   0  0  0  0  0  0  0  0  0  0  0  0
  1  6  1  0  0  0  0
  1  9  1  0  0  0  0
  2  1  2  0  0  0  0
  3  4  2  0  0  0  0
  3  2  1  0  0  0  0
  4  5  1  0  0  0  0
  5 25  1  0  0  0  0
  5  6  2  0  0  0  0
  7  2  1  0  0  0  0
  8  3  1  0  0  0  0
  9 13  1  0  0  0  0
 10  9  1  0  0  0  0
 10 11  1  0  0  0  0
 11 16  1  1  0  0  0
 11 12  1  0  0  0  0
 12 17  1  0  0  0  0
 12 18  1  0  0  0  0
 13 20  1  0  0  0  0
 13 19  1  0  0  0  0
 13 12  1  0  0  0  0
 14 10  1  0  0  0  0
 15 10  1  0  0  0  0
 21 11  1  0  0  0  0
 21 22  1  0  0  0  0
 21 24  1  0  0  0  0
 23 21  1  0  0  0  0
 26 25  1  0  0  0  0
 26 37  1  0  0  0  0
 27 26  2  0  0  0  0
 28 27  1  0  0  0  0
 28 29  2  0  0  0  0
 29 30  1  0  0  0  0
 30 37  2  0  0  0  0
 30 31  1  0  0  0  0
 31 32  2  0  0  0  0
 32 34  1  0  0  0  0
 32 33  1  0  0  0  0
 34 35  1  0  0  0  0
 36 34  2  0  0  0  0
 37 36  1  0  0  0  0
M  END
>  <minimizedAffinity>
-7.85898876

>  <minimizedRMSD>
1.85001314

$$$$
