
 OpenBabel03262522283D

 49 53  0  0  0  0  0  0  0  0999 V2000
   34.5840   30.1140   50.1550 C   0  0  0  0  0  0  0  0  0  0  0  0
   33.9730   29.4690   50.8230 H   0  0  0  0  0  0  0  0  0  0  0  0
   34.3340   31.1880   50.2780 H   0  0  0  0  0  0  0  0  0  0  0  0
   34.4070   27.4110   49.6720 F   0  0  0  0  0  0  0  0  0  0  0  0
   34.3210   28.2750   48.6210 C   0  0  0  0  0  0  0  0  0  0  0  0
   34.3960   29.6620   48.7370 C   0  0  0  0  0  0  0  0  0  0  0  0
   34.3050   30.4830   47.6480 C   0  0  0  0  0  0  0  0  0  0  0  0
   34.1290   29.9420   46.3570 C   0  0  0  0  0  0  0  0  0  0  0  0
   34.0510   28.5690   46.2250 C   0  0  0  0  0  0  0  0  0  0  0  0
   34.1480   27.7590   47.3510 C   0  0  0  0  0  0  0  0  0  0  0  0
   34.3780   31.5310   47.8810 H   0  0  0  0  0  0  0  0  0  0  0  0
   34.0630   30.6480   45.5410 H   0  0  0  0  0  0  0  0  0  0  0  0
   33.9160   28.1660   45.2300 H   0  0  0  0  0  0  0  0  0  0  0  0
   34.0600   26.4030   47.1120 O   0  0  0  0  0  0  0  0  0  0  0  0
   32.7970   25.8880   46.8490 C   0  0  0  0  0  0  0  0  0  0  0  0
   31.6690   26.6240   46.7660 N   0  0  0  0  0  0  0  0  0  0  0  0
   30.4670   26.0580   46.5050 C   0  0  0  0  0  3  0  0  0  0  0  0
   30.4020   24.7110   46.3240 N   0  0  0  0  0  0  0  0  0  0  0  0
   31.4770   23.9070   46.3900 C   0  0  0  0  0  0  0  0  0  0  0  0
   31.3580   22.5450   46.1980 C   0  0  0  0  0  3  0  0  0  0  0  0
   32.4760   21.7390   46.2710 C   0  0  0  0  0  0  0  0  0  0  0  0
   32.4870   20.6650   46.1370 H   0  0  0  0  0  0  0  0  0  0  0  0
   33.6970   22.3250   46.5370 C   0  0  0  0  0  0  0  0  0  0  0  0
   34.6210   21.7810   46.6130 H   0  0  0  0  0  0  0  0  0  0  0  0
   33.8160   23.6850   46.7280 C   0  0  0  0  0  3  0  0  0  0  0  0
   32.6990   24.5250   46.6600 C   0  0  0  0  0  0  0  0  0  0  0  0
   36.3160   29.7850   50.5910 S   0  0  0  0  0  0  0  0  0  0  0  0
   38.2590   32.7850   48.7310 C   0  0  0  0  0  0  0  0  0  0  0  0
   38.7510   32.1390   47.6050 C   0  0  0  0  0  0  0  0  0  0  0  0
   38.4630   30.8100   47.4670 C   0  0  0  0  0  0  0  0  0  0  0  0
   37.7220   30.1980   48.4260 N   0  0  0  0  0  0  0  0  0  0  0  0
   37.2730   30.8390   49.4770 C   0  0  0  0  0  0  0  0  0  0  0  0
   37.5250   32.1780   49.6780 N   0  0  0  0  0  0  0  0  0  0  0  0
   38.4510   33.8470   48.9040 H   0  0  0  0  0  0  0  0  0  0  0  0
   38.8370   30.2820   46.5940 H   0  0  0  0  0  0  0  0  0  0  0  0
   39.4820   32.8600   46.7150 O   0  0  0  0  0  0  0  0  0  0  0  0
   39.6290   32.4050   45.4130 C   0  0  0  0  0  0  0  0  0  0  0  0
   40.6540   31.6190   44.9140 C   0  0  0  0  0  0  0  0  0  0  0  0
   40.6380   31.2660   43.6120 C   0  0  0  0  0  0  0  0  0  0  0  0
   39.6050   31.6970   42.8240 C   0  0  0  0  0  0  0  0  0  0  0  0
   38.5860   32.4840   43.3430 C   0  0  0  0  0  0  0  0  0  0  0  0
   38.6220   32.8270   44.6530 N   0  0  0  0  0  0  0  0  0  0  0  0
   41.4110   31.3440   45.6360 H   0  0  0  0  0  0  0  0  0  0  0  0
   41.4150   30.6640   43.2080 H   0  0  0  0  0  0  0  0  0  0  0  0
   39.5870   31.4160   41.7790 H   0  0  0  0  0  0  0  0  0  0  0  0
   37.4500   32.9480   42.4390 C   0  0  0  0  0  0  0  0  0  0  0  0
   36.8830   32.0390   42.1900 H   0  0  0  0  0  0  0  0  0  0  0  0
   37.8500   33.3690   41.4960 H   0  0  0  0  0  0  0  0  0  0  0  0
   36.8410   33.6390   43.0200 H   0  0  0  0  0  0  0  0  0  0  0  0
  1  3  1  0  0  0  0
  1 27  1  0  0  0  0
  1  2  1  0  0  0  0
  5  6  1  0  0  0  0
  5  4  1  0  0  0  0
  6  1  1  0  0  0  0
  7 11  1  0  0  0  0
  7  6  2  0  0  0  0
  8  7  1  0  0  0  0
  9  8  2  0  0  0  0
  9 10  1  0  0  0  0
 10  5  2  0  0  0  0
 12  8  1  0  0  0  0
 13  9  1  0  0  0  0
 14 10  1  0  0  0  0
 15 14  1  0  0  0  0
 16 15  1  0  0  0  0
 17 16  2  0  0  0  0
 18 19  2  0  0  0  0
 18 17  1  0  0  0  0
 19 26  1  0  0  0  0
 20 21  2  0  0  0  0
 20 19  1  0  0  0  0
 21 23  1  0  0  0  0
 22 21  1  0  0  0  0
 23 24  1  0  0  0  0
 23 25  2  0  0  0  0
 26 25  1  0  0  0  0
 26 15  2  0  0  0  0
 28 34  1  0  0  0  0
 28 33  1  0  0  0  0
 29 28  2  0  0  0  0
 30 29  1  0  0  0  0
 30 31  2  0  0  0  0
 31 32  1  0  0  0  0
 32 33  2  0  0  0  0
 32 27  1  0  0  0  0
 35 30  1  0  0  0  0
 36 29  1  0  0  0  0
 37 36  1  0  0  0  0
 38 37  1  0  0  0  0
 38 43  1  0  0  0  0
 39 38  2  0  0  0  0
 40 41  2  0  0  0  0
 40 39  1  0  0  0  0
 41 42  1  0  0  0  0
 42 37  2  0  0  0  0
 44 39  1  0  0  0  0
 45 40  1  0  0  0  0
 46 49  1  0  0  0  0
 46 41  1  0  0  0  0
 47 46  1  0  0  0  0
 48 46  1  0  0  0  0
M  END
>  <minimizedAffinity>
-6.07276821

>  <minimizedRMSD>
1.99884903

$$$$
