
 OpenBabel03272509473D

 28 30  0  0  0  0  0  0  0  0999 V2000
   31.6320   27.0890   48.4850 C   0  0  0  0  0  0  0  0  0  0  0  0
   31.6190   26.7170   49.5430 H   0  0  0  0  0  0  0  0  0  0  0  0
   31.6580   26.1610   47.8770 H   0  0  0  0  0  0  0  0  0  0  0  0
   30.3940   27.8660   48.2860 C   0  0  0  0  0  0  0  0  0  0  0  0
   30.2120   28.6180   47.1740 N   0  0  0  0  0  0  0  0  0  0  0  0
   29.1150   29.3180   46.9250 C   0  0  0  0  0  3  0  0  0  0  0  0
   28.0950   29.3080   47.8020 N   0  0  0  0  0  0  0  0  0  0  0  0
   28.1680   28.6010   48.9310 C   0  0  0  0  0  0  0  0  0  0  0  0
   27.1090   28.6200   49.8090 C   0  0  0  0  0  3  0  0  0  0  0  0
   27.2530   27.8740   50.9600 C   0  0  0  0  0  0  0  0  0  0  0  0
   26.4160   27.8920   51.6460 H   0  0  0  0  0  0  0  0  0  0  0  0
   28.3910   27.1320   51.2510 C   0  0  0  0  0  0  0  0  0  0  0  0
   28.4040   26.5770   52.1900 H   0  0  0  0  0  0  0  0  0  0  0  0
   29.4140   27.1610   50.3220 C   0  0  0  0  0  3  0  0  0  0  0  0
   29.3230   27.8890   49.1530 C   0  0  0  0  0  0  0  0  0  0  0  0
   32.8690   27.9120   48.3520 C   0  0  0  0  0  0  0  0  0  0  0  0
   32.7140   28.6710   47.5500 H   0  0  0  0  0  0  0  0  0  0  0  0
   33.7000   27.2840   48.0000 H   0  0  0  0  0  0  0  0  0  0  0  0
   33.1750   28.5500   49.5830 O   0  0  0  0  0  0  0  0  0  0  0  0
   36.3300   29.5300   51.0460 C   0  0  0  0  0  0  0  0  0  0  0  0
   37.0600   29.8120   49.8920 C   0  0  0  0  0  0  0  0  0  0  0  0
   36.4270   29.6490   48.6530 C   0  0  0  0  0  0  0  0  0  0  0  0
   35.1270   29.2230   48.6760 N   0  0  0  0  0  0  0  0  0  0  0  0
   34.4630   28.9640   49.8070 C   0  0  0  0  0  0  0  0  0  0  0  0
   35.0810   29.1230   50.9950 N   0  0  0  0  0  0  0  0  0  0  0  0
   36.8000   29.6480   52.0230 H   0  0  0  0  0  0  0  0  0  0  0  0
   38.0830   30.1450   49.9340 H   0  0  0  0  0  0  0  0  0  0  0  0
   36.9400   29.8510   47.7190 H   0  0  0  0  0  0  0  0  0  0  0  0
  1  2  1  0  0  0  0
  3  1  1  0  0  0  0
  4  1  1  0  0  0  0
  4 15  1  0  0  0  0
  5  4  2  0  0  0  0
  6  5  1  0  0  0  0
  6  7  2  0  0  0  0
  7  8  1  0  0  0  0
  8 15  2  0  0  0  0
  8  9  1  0  0  0  0
  9 10  2  0  0  0  0
 10 12  1  0  0  0  0
 10 11  1  0  0  0  0
 12 13  1  0  0  0  0
 14 12  2  0  0  0  0
 15 14  1  0  0  0  0
 16  1  1  0  0  0  0
 16 19  1  0  0  0  0
 17 16  1  0  0  0  0
 18 16  1  0  0  0  0
 19 24  1  0  0  0  0
 20 26  1  0  0  0  0
 21 27  1  0  0  0  0
 21 20  2  0  0  0  0
 22 23  2  0  0  0  0
 22 21  1  0  0  0  0
 23 24  1  0  0  0  0
 24 25  2  0  0  0  0
 25 20  1  0  0  0  0
 28 22  1  0  0  0  0
M  END
>  <minimizedAffinity>
-5.5356226

>  <minimizedRMSD>
4.33174992

$$$$
