
 OpenBabel03272504173D

 29 31  0  0  0  0  0  0  0  0999 V2000
   35.8300   29.9560   46.0920 O   0  0  0  0  0  0  0  0  0  0  0  0
   34.6370   29.8230   47.0190 P   0  0  1  0  0  0  0  0  0  0  0  0
   34.4500   28.2350   47.5470 O   0  0  0  0  0  0  0  0  0  0  0  0
   33.6710   28.2200   48.1510 H   0  0  0  0  0  0  0  0  0  0  0  0
   34.8320   30.8020   48.4260 O   0  0  0  0  0  0  0  0  0  0  0  0
   35.9510   30.7220   49.2300 C   0  0  0  0  0  0  0  0  0  0  0  0
   36.1300   29.9030   50.3450 C   0  0  0  0  0  0  0  0  0  0  0  0
   37.3290   29.9680   51.0240 C   0  0  0  0  0  0  0  0  0  0  0  0
   38.3050   30.8240   50.5950 N   0  0  0  0  0  0  0  0  0  0  0  0
   38.0990   31.6060   49.5100 C   0  0  0  0  0  0  0  0  0  0  0  0
   36.9220   31.5520   48.8310 N   0  0  0  0  0  0  0  0  0  0  0  0
   37.4100   29.3100   51.8790 H   0  0  0  0  0  0  0  0  0  0  0  0
   38.8990   32.2830   49.1870 H   0  0  0  0  0  0  0  0  0  0  0  0
   35.0250   29.0810   50.6490 N   0  0  0  0  0  0  0  0  0  0  0  0
   34.2050   29.6460   50.9920 H   0  0  0  0  0  0  0  0  0  0  0  0
   35.4320   28.1470   50.4140 H   0  0  0  0  0  0  0  0  0  0  0  0
   33.3130   30.3700   46.1280 O   0  0  0  0  0  0  0  0  0  0  0  0
   32.0590   29.7870   46.2290 C   0  0  0  0  0  0  0  0  0  0  0  0
   31.7280   28.6530   46.8600 N   0  0  0  0  0  0  0  0  0  0  0  0
   30.4610   28.2000   46.8760 C   0  0  0  0  0  3  0  0  0  0  0  0
   29.4560   28.8790   46.2500 N   0  0  0  0  0  0  0  0  0  0  0  0
   29.7340   30.0370   45.5930 C   0  0  0  0  0  0  0  0  0  0  0  0
   28.7160   30.7350   44.9520 C   0  0  0  0  0  3  0  0  0  0  0  0
   29.0050   31.9170   44.2830 C   0  0  0  0  0  0  0  0  0  0  0  0
   28.1580   32.3850   43.8180 H   0  0  0  0  0  0  0  0  0  0  0  0
   30.3070   32.3940   44.2580 C   0  0  0  0  0  0  0  0  0  0  0  0
   30.4980   33.3030   43.7370 H   0  0  0  0  0  0  0  0  0  0  0  0
   31.2670   31.6540   44.9130 C   0  0  0  0  0  3  0  0  0  0  0  0
   31.0470   30.4770   45.5930 C   0  0  0  0  0  0  0  0  0  0  0  0
  2  1  2  6  0  0  0
  2  3  1  0  0  0  0
  2  5  1  0  0  0  0
  3  4  1  0  0  0  0
  5  6  1  0  0  0  0
  6  7  1  0  0  0  0
  7 14  1  0  0  0  0
  7  8  2  0  0  0  0
  8 12  1  0  0  0  0
  9  8  1  0  0  0  0
 10  9  2  0  0  0  0
 11  6  2  0  0  0  0
 11 10  1  0  0  0  0
 13 10  1  0  0  0  0
 14 15  1  0  0  0  0
 16 14  1  0  0  0  0
 17 18  1  0  0  0  0
 17  2  1  0  0  0  0
 18 19  1  0  0  0  0
 19 20  2  0  0  0  0
 21 20  1  0  0  0  0
 22 21  2  0  0  0  0
 23 22  1  0  0  0  0
 24 23  2  0  0  0  0
 25 24  1  0  0  0  0
 26 24  1  0  0  0  0
 26 28  2  0  0  0  0
 27 26  1  0  0  0  0
 28 29  1  0  0  0  0
 29 22  1  0  0  0  0
 29 18  2  0  0  0  0
M  END
>  <minimizedAffinity>
-4.50839376

>  <minimizedRMSD>
1.13313818

$$$$
