
 OpenBabel03272509583D

 49 53  0  0  0  0  0  0  0  0999 V2000
   33.5880   27.5130   47.7130 C   0  0  0  0  0  0  0  0  0  0  0  0
   33.8430   27.3160   46.6380 H   0  0  0  0  0  0  0  0  0  0  0  0
   33.7310   26.5740   48.2490 H   0  0  0  0  0  0  0  0  0  0  0  0
   32.1420   27.8740   47.7400 C   0  0  0  0  0  0  0  0  0  0  0  0
   31.3870   27.4200   48.8040 C   0  0  0  0  0  0  0  0  0  0  0  0
   30.0510   27.7110   48.8950 C   0  0  0  0  0  0  0  0  0  0  0  0
   29.4650   28.4420   47.9470 N   0  0  0  0  0  0  0  0  0  0  0  0
   30.2170   28.8870   46.8960 C   0  0  0  0  0  0  0  0  0  0  0  0
   31.5160   28.6020   46.8130 N   0  0  0  0  0  0  0  0  0  0  0  0
   31.7980   26.8290   49.5990 H   0  0  0  0  0  0  0  0  0  0  0  0
   29.4060   27.3820   49.7100 H   0  0  0  0  0  0  0  0  0  0  0  0
   29.5020   29.7050   45.8850 C   0  0  0  0  0  0  0  0  0  0  0  0
   30.1970   30.1750   45.1580 H   0  0  0  0  0  0  0  0  0  0  0  0
   29.0090   30.5510   46.3970 H   0  0  0  0  0  0  0  0  0  0  0  0
   28.4510   28.9000   45.2180 C   0  0  0  0  0  0  0  0  0  0  0  0
   27.1930   28.9600   45.7540 N   0  0  0  0  0  0  0  0  0  0  0  0
   26.1550   28.2570   45.2890 C   0  0  0  0  0  3  0  0  0  0  0  0
   26.2710   27.4240   44.2410 N   0  0  0  0  0  0  0  0  0  0  0  0
   27.5070   27.3320   43.6720 C   0  0  0  0  0  0  0  0  0  0  0  0
   27.7090   26.5070   42.5810 C   0  0  0  0  0  3  0  0  0  0  0  0
   28.9470   26.4130   41.9870 C   0  0  0  0  0  0  0  0  0  0  0  0
   28.9960   25.7390   41.1410 H   0  0  0  0  0  0  0  0  0  0  0  0
   30.0100   27.1620   42.4950 C   0  0  0  0  0  0  0  0  0  0  0  0
   30.9590   27.0500   41.9870 H   0  0  0  0  0  0  0  0  0  0  0  0
   29.8220   27.9820   43.5770 C   0  0  0  0  0  3  0  0  0  0  0  0
   28.5750   28.0480   44.1420 C   0  0  0  0  0  0  0  0  0  0  0  0
   34.4750   28.6280   48.1720 C   0  0  0  0  0  0  0  0  0  0  0  0
   35.3410   28.8170   47.5060 H   0  0  0  0  0  0  0  0  0  0  0  0
   33.8730   29.5440   48.2150 H   0  0  0  0  0  0  0  0  0  0  0  0
   35.0060   28.3440   49.4680 O   0  0  0  0  0  0  0  0  0  0  0  0
   37.3430   30.1810   51.5350 C   0  0  0  0  0  0  0  0  0  0  0  0
   38.0730   30.8710   50.5340 C   0  0  0  0  0  0  0  0  0  0  0  0
   37.7090   30.6570   49.2150 C   0  0  0  0  0  0  0  0  0  0  0  0
   36.6720   29.7910   48.9930 N   0  0  0  0  0  0  0  0  0  0  0  0
   35.9930   29.1470   49.9470 C   0  0  0  0  0  0  0  0  0  0  0  0
   36.3460   29.3550   51.2440 N   0  0  0  0  0  0  0  0  0  0  0  0
   37.6520   30.3720   52.5580 H   0  0  0  0  0  0  0  0  0  0  0  0
   38.8760   31.5400   50.7200 H   0  0  0  0  0  0  0  0  0  0  0  0
   38.9440   33.2690   49.0220 F   0  0  0  0  0  0  0  0  0  0  0  0
   38.9110   32.4810   47.9570 C   0  0  0  0  0  0  0  0  0  0  0  0
   38.3310   31.2690   48.0710 C   0  0  0  0  0  0  0  0  0  0  0  0
   38.3560   30.5250   46.8800 C   0  0  0  0  0  0  0  0  0  0  0  0
   38.9140   30.9930   45.7230 C   0  0  0  0  0  0  0  0  0  0  0  0
   39.4910   32.2410   45.6690 C   0  0  0  0  0  0  0  0  0  0  0  0
   39.4820   32.9850   46.8110 C   0  0  0  0  0  0  0  0  0  0  0  0
   37.9150   29.5280   46.8560 H   0  0  0  0  0  0  0  0  0  0  0  0
   38.9010   30.3650   44.8260 H   0  0  0  0  0  0  0  0  0  0  0  0
   39.9260   32.5830   44.7320 H   0  0  0  0  0  0  0  0  0  0  0  0
   39.9330   33.9690   46.7770 H   0  0  0  0  0  0  0  0  0  0  0  0
  1  4  1  0  0  0  0
  1 27  1  0  0  0  0
  1  3  1  0  0  0  0
  2  1  1  0  0  0  0
  4  5  1  0  0  0  0
  5  6  2  0  0  0  0
  5 10  1  0  0  0  0
  6 11  1  0  0  0  0
  7  6  1  0  0  0  0
  8  7  2  0  0  0  0
  9  8  1  0  0  0  0
  9  4  2  0  0  0  0
 12 14  1  0  0  0  0
 12  8  1  0  0  0  0
 13 12  1  0  0  0  0
 15 16  1  0  0  0  0
 15 12  1  0  0  0  0
 17 16  2  0  0  0  0
 18 17  1  0  0  0  0
 19 26  1  0  0  0  0
 19 18  2  0  0  0  0
 20 19  1  0  0  0  0
 21 23  1  0  0  0  0
 21 20  2  0  0  0  0
 22 21  1  0  0  0  0
 23 25  2  0  0  0  0
 24 23  1  0  0  0  0
 25 26  1  0  0  0  0
 26 15  2  0  0  0  0
 27 29  1  0  0  0  0
 27 30  1  0  0  0  0
 28 27  1  0  0  0  0
 30 35  1  0  0  0  0
 31 37  1  0  0  0  0
 32 38  1  0  0  0  0
 32 31  2  0  0  0  0
 33 32  1  0  0  0  0
 34 33  2  0  0  0  0
 34 35  1  0  0  0  0
 35 36  2  0  0  0  0
 36 31  1  0  0  0  0
 40 41  1  0  0  0  0
 40 39  1  0  0  0  0
 41 33  1  0  0  0  0
 42 41  2  0  0  0  0
 43 42  1  0  0  0  0
 44 43  2  0  0  0  0
 44 45  1  0  0  0  0
 45 40  2  0  0  0  0
 46 42  1  0  0  0  0
 47 43  1  0  0  0  0
 48 44  1  0  0  0  0
 49 45  1  0  0  0  0
M  END
>  <minimizedAffinity>
-6.68199778

>  <minimizedRMSD>
0.674357533

$$$$
