
 OpenBabel03272509573D

 49 53  0  0  0  0  0  0  0  0999 V2000
   33.4950   27.5220   47.7020 C   0  0  0  0  0  0  0  0  0  0  0  0
   33.7230   27.3400   46.6190 H   0  0  0  0  0  0  0  0  0  0  0  0
   33.6470   26.5750   48.2210 H   0  0  0  0  0  0  0  0  0  0  0  0
   32.0510   27.8880   47.7690 C   0  0  0  0  0  0  0  0  0  0  0  0
   31.3460   27.5170   48.8970 C   0  0  0  0  0  0  0  0  0  0  0  0
   30.0170   27.8170   49.0280 C   0  0  0  0  0  0  0  0  0  0  0  0
   29.3860   28.4780   48.0570 N   0  0  0  0  0  0  0  0  0  0  0  0
   30.0900   28.8420   46.9420 C   0  0  0  0  0  0  0  0  0  0  0  0
   31.3830   28.5480   46.8200 N   0  0  0  0  0  0  0  0  0  0  0  0
   31.7940   26.9850   49.7130 H   0  0  0  0  0  0  0  0  0  0  0  0
   29.4100   27.5510   49.8930 H   0  0  0  0  0  0  0  0  0  0  0  0
   29.3280   29.5850   45.9070 C   0  0  0  0  0  0  0  0  0  0  0  0
   29.9950   30.1250   45.2020 H   0  0  0  0  0  0  0  0  0  0  0  0
   28.7360   30.3760   46.4020 H   0  0  0  0  0  0  0  0  0  0  0  0
   28.3850   28.6800   45.2080 C   0  0  0  0  0  0  0  0  0  0  0  0
   28.6220   27.3370   45.3140 N   0  0  0  0  0  0  0  0  0  0  0  0
   27.8840   26.4040   44.7040 C   0  0  0  0  0  3  0  0  0  0  0  0
   26.8360   26.7210   43.9260 N   0  0  0  0  0  0  0  0  0  0  0  0
   26.5590   28.0480   43.7900 C   0  0  0  0  0  0  0  0  0  0  0  0
   25.4900   28.4600   43.0170 C   0  0  0  0  0  3  0  0  0  0  0  0
   25.1910   29.7960   42.8800 C   0  0  0  0  0  0  0  0  0  0  0  0
   24.3330   30.0090   42.2540 H   0  0  0  0  0  0  0  0  0  0  0  0
   25.9780   30.7460   43.5330 C   0  0  0  0  0  0  0  0  0  0  0  0
   25.6930   31.7810   43.3910 H   0  0  0  0  0  0  0  0  0  0  0  0
   27.0420   30.3510   44.3010 C   0  0  0  0  0  3  0  0  0  0  0  0
   27.3090   29.0110   44.4110 C   0  0  0  0  0  0  0  0  0  0  0  0
   34.3980   28.6270   48.1560 C   0  0  0  0  0  0  0  0  0  0  0  0
   35.2390   28.8340   47.4640 H   0  0  0  0  0  0  0  0  0  0  0  0
   33.7970   29.5400   48.2440 H   0  0  0  0  0  0  0  0  0  0  0  0
   34.9760   28.3110   49.4250 O   0  0  0  0  0  0  0  0  0  0  0  0
   37.3040   30.1690   51.4830 C   0  0  0  0  0  0  0  0  0  0  0  0
   38.0380   30.8490   50.4780 C   0  0  0  0  0  0  0  0  0  0  0  0
   37.6800   30.6210   49.1600 C   0  0  0  0  0  0  0  0  0  0  0  0
   36.6430   29.7530   48.9430 N   0  0  0  0  0  0  0  0  0  0  0  0
   35.9600   29.1190   49.9000 C   0  0  0  0  0  0  0  0  0  0  0  0
   36.3080   29.3400   51.1960 N   0  0  0  0  0  0  0  0  0  0  0  0
   37.6090   30.3700   52.5050 H   0  0  0  0  0  0  0  0  0  0  0  0
   38.8400   31.5200   50.6610 H   0  0  0  0  0  0  0  0  0  0  0  0
   38.9780   33.2020   48.9650 F   0  0  0  0  0  0  0  0  0  0  0  0
   38.9160   32.4190   47.8970 C   0  0  0  0  0  0  0  0  0  0  0  0
   38.3070   31.2220   48.0130 C   0  0  0  0  0  0  0  0  0  0  0  0
   38.3020   30.4820   46.8180 C   0  0  0  0  0  0  0  0  0  0  0  0
   38.8610   30.9400   45.6580 C   0  0  0  0  0  0  0  0  0  0  0  0
   39.4690   32.1740   45.6030 C   0  0  0  0  0  0  0  0  0  0  0  0
   39.4890   32.9130   46.7480 C   0  0  0  0  0  0  0  0  0  0  0  0
   37.8360   29.4970   46.7950 H   0  0  0  0  0  0  0  0  0  0  0  0
   38.8240   30.3160   44.7590 H   0  0  0  0  0  0  0  0  0  0  0  0
   39.9040   32.5070   44.6630 H   0  0  0  0  0  0  0  0  0  0  0  0
   39.9640   33.8850   46.7140 H   0  0  0  0  0  0  0  0  0  0  0  0
  1  4  1  0  0  0  0
  1 27  1  0  0  0  0
  1  3  1  0  0  0  0
  2  1  1  0  0  0  0
  4  5  1  0  0  0  0
  5  6  2  0  0  0  0
  5 10  1  0  0  0  0
  6 11  1  0  0  0  0
  7  6  1  0  0  0  0
  8  7  2  0  0  0  0
  9  8  1  0  0  0  0
  9  4  2  0  0  0  0
 12 14  1  0  0  0  0
 12  8  1  0  0  0  0
 13 12  1  0  0  0  0
 15 16  1  0  0  0  0
 15 12  1  0  0  0  0
 17 16  2  0  0  0  0
 18 17  1  0  0  0  0
 19 18  2  0  0  0  0
 19 26  1  0  0  0  0
 20 19  1  0  0  0  0
 21 20  2  0  0  0  0
 21 23  1  0  0  0  0
 22 21  1  0  0  0  0
 23 25  2  0  0  0  0
 24 23  1  0  0  0  0
 25 26  1  0  0  0  0
 26 15  2  0  0  0  0
 27 29  1  0  0  0  0
 27 30  1  0  0  0  0
 28 27  1  0  0  0  0
 30 35  1  0  0  0  0
 31 37  1  0  0  0  0
 32 38  1  0  0  0  0
 32 31  2  0  0  0  0
 33 32  1  0  0  0  0
 34 33  2  0  0  0  0
 34 35  1  0  0  0  0
 35 36  2  0  0  0  0
 36 31  1  0  0  0  0
 40 41  1  0  0  0  0
 40 39  1  0  0  0  0
 41 33  1  0  0  0  0
 42 41  2  0  0  0  0
 43 42  1  0  0  0  0
 44 43  2  0  0  0  0
 44 45  1  0  0  0  0
 45 40  2  0  0  0  0
 46 42  1  0  0  0  0
 47 43  1  0  0  0  0
 48 44  1  0  0  0  0
 49 45  1  0  0  0  0
M  END
>  <minimizedAffinity>
-7.05074549

>  <minimizedRMSD>
0.49995774

$$$$
