
 OpenBabel03272504183D

 29 31  0  0  0  0  0  0  0  0999 V2000
   35.8290   29.9560   46.0920 O   0  0  0  0  0  0  0  0  0  0  0  0
   34.6360   29.8230   47.0190 P   0  0  1  0  0  0  0  0  0  0  0  0
   34.4490   28.2360   47.5470 O   0  0  0  0  0  0  0  0  0  0  0  0
   33.6700   28.2210   48.1510 H   0  0  0  0  0  0  0  0  0  0  0  0
   34.8310   30.8020   48.4260 O   0  0  0  0  0  0  0  0  0  0  0  0
   35.9500   30.7220   49.2300 C   0  0  0  0  0  0  0  0  0  0  0  0
   36.1300   29.9030   50.3440 C   0  0  0  0  0  0  0  0  0  0  0  0
   37.3280   29.9670   51.0230 C   0  0  0  0  0  0  0  0  0  0  0  0
   38.3050   30.8240   50.5950 N   0  0  0  0  0  0  0  0  0  0  0  0
   38.0980   31.6050   49.5090 C   0  0  0  0  0  0  0  0  0  0  0  0
   36.9210   31.5520   48.8310 N   0  0  0  0  0  0  0  0  0  0  0  0
   37.4090   29.3090   51.8780 H   0  0  0  0  0  0  0  0  0  0  0  0
   38.8980   32.2830   49.1870 H   0  0  0  0  0  0  0  0  0  0  0  0
   35.0240   29.0800   50.6480 N   0  0  0  0  0  0  0  0  0  0  0  0
   34.2040   29.6450   50.9920 H   0  0  0  0  0  0  0  0  0  0  0  0
   35.4320   28.1460   50.4120 H   0  0  0  0  0  0  0  0  0  0  0  0
   33.3110   30.3710   46.1290 O   0  0  0  0  0  0  0  0  0  0  0  0
   32.0570   29.7880   46.2290 C   0  0  0  0  0  0  0  0  0  0  0  0
   31.7260   28.6540   46.8610 N   0  0  0  0  0  0  0  0  0  0  0  0
   30.4600   28.2020   46.8770 C   0  0  0  0  0  3  0  0  0  0  0  0
   29.4540   28.8800   46.2500 N   0  0  0  0  0  0  0  0  0  0  0  0
   29.7330   30.0380   45.5930 C   0  0  0  0  0  0  0  0  0  0  0  0
   28.7160   30.7360   44.9510 C   0  0  0  0  0  3  0  0  0  0  0  0
   29.0050   31.9170   44.2810 C   0  0  0  0  0  0  0  0  0  0  0  0
   28.1580   32.3850   43.8170 H   0  0  0  0  0  0  0  0  0  0  0  0
   30.3060   32.3940   44.2570 C   0  0  0  0  0  0  0  0  0  0  0  0
   30.4980   33.3030   43.7350 H   0  0  0  0  0  0  0  0  0  0  0  0
   31.2660   31.6540   44.9120 C   0  0  0  0  0  3  0  0  0  0  0  0
   31.0460   30.4770   45.5930 C   0  0  0  0  0  0  0  0  0  0  0  0
  2  1  2  6  0  0  0
  2  3  1  0  0  0  0
  2  5  1  0  0  0  0
  3  4  1  0  0  0  0
  5  6  1  0  0  0  0
  6  7  1  0  0  0  0
  7 14  1  0  0  0  0
  7  8  2  0  0  0  0
  8 12  1  0  0  0  0
  9  8  1  0  0  0  0
 10  9  2  0  0  0  0
 11  6  2  0  0  0  0
 11 10  1  0  0  0  0
 13 10  1  0  0  0  0
 14 15  1  0  0  0  0
 16 14  1  0  0  0  0
 17 18  1  0  0  0  0
 17  2  1  0  0  0  0
 18 19  1  0  0  0  0
 19 20  2  0  0  0  0
 21 20  1  0  0  0  0
 22 21  2  0  0  0  0
 23 22  1  0  0  0  0
 24 23  2  0  0  0  0
 25 24  1  0  0  0  0
 26 24  1  0  0  0  0
 26 28  2  0  0  0  0
 27 26  1  0  0  0  0
 28 29  1  0  0  0  0
 29 22  1  0  0  0  0
 29 18  2  0  0  0  0
M  END
>  <minimizedAffinity>
-4.50829554

>  <minimizedRMSD>
2.24597168

$$$$
