
 OpenBabel03262522283D

 49 53  0  0  0  0  0  0  0  0999 V2000
   35.3360   30.6170   48.7630 C   0  0  0  0  0  0  0  0  0  0  0  0
   35.2860   30.7480   49.8660 H   0  0  0  0  0  0  0  0  0  0  0  0
   34.9440   31.5050   48.2250 H   0  0  0  0  0  0  0  0  0  0  0  0
   33.4900   30.7780   46.7300 F   0  0  0  0  0  0  0  0  0  0  0  0
   33.6880   29.5790   47.3470 C   0  0  0  0  0  0  0  0  0  0  0  0
   34.5920   29.3700   48.3870 C   0  0  0  0  0  0  0  0  0  0  0  0
   34.7510   28.1450   48.9710 C   0  0  0  0  0  0  0  0  0  0  0  0
   33.9930   27.0400   48.5310 C   0  0  0  0  0  0  0  0  0  0  0  0
   33.0920   27.2290   47.5000 C   0  0  0  0  0  0  0  0  0  0  0  0
   32.9520   28.4870   46.9270 C   0  0  0  0  0  0  0  0  0  0  0  0
   35.4820   28.1260   49.7600 H   0  0  0  0  0  0  0  0  0  0  0  0
   34.1690   26.1000   49.0360 H   0  0  0  0  0  0  0  0  0  0  0  0
   32.5160   26.3740   47.1720 H   0  0  0  0  0  0  0  0  0  0  0  0
   32.0270   28.5710   45.9070 O   0  0  0  0  0  0  0  0  0  0  0  0
   30.7270   28.9140   46.2570 C   0  0  0  0  0  0  0  0  0  0  0  0
   30.0140   28.3220   47.2380 N   0  0  0  0  0  0  0  0  0  0  0  0
   28.7500   28.7040   47.5280 C   0  0  0  0  0  3  0  0  0  0  0  0
   28.1870   29.7130   46.8090 N   0  0  0  0  0  0  0  0  0  0  0  0
   28.8280   30.3540   45.8170 C   0  0  0  0  0  0  0  0  0  0  0  0
   28.2130   31.3730   45.1150 C   0  0  0  0  0  3  0  0  0  0  0  0
   28.8900   32.0160   44.1010 C   0  0  0  0  0  0  0  0  0  0  0  0
   28.4980   32.8230   43.4950 H   0  0  0  0  0  0  0  0  0  0  0  0
   30.1800   31.6200   43.8100 C   0  0  0  0  0  0  0  0  0  0  0  0
   30.7850   32.0600   43.0400 H   0  0  0  0  0  0  0  0  0  0  0  0
   30.7940   30.6020   44.5110 C   0  0  0  0  0  3  0  0  0  0  0  0
   30.1300   29.9330   45.5440 C   0  0  0  0  0  0  0  0  0  0  0  0
   37.0860   30.3300   48.3730 S   0  0  0  0  0  0  0  0  0  0  0  0
   38.1560   32.4980   45.1500 C   0  0  0  0  0  0  0  0  0  0  0  0
   37.4200   31.8810   44.1460 C   0  0  0  0  0  0  0  0  0  0  0  0
   36.6280   30.8270   44.5050 C   0  0  0  0  0  0  0  0  0  0  0  0
   36.6010   30.4410   45.8060 N   0  0  0  0  0  0  0  0  0  0  0  0
   37.3090   31.0460   46.7290 C   0  0  0  0  0  0  0  0  0  0  0  0
   38.1270   32.1150   46.4370 N   0  0  0  0  0  0  0  0  0  0  0  0
   38.8090   33.3470   44.9330 H   0  0  0  0  0  0  0  0  0  0  0  0
   36.0430   30.3280   43.7380 H   0  0  0  0  0  0  0  0  0  0  0  0
   37.5310   32.3600   42.8790 O   0  0  0  0  0  0  0  0  0  0  0  0
   36.3920   32.5400   42.1080 C   0  0  0  0  0  0  0  0  0  0  0  0
   36.1040   31.9440   40.8910 C   0  0  0  0  0  0  0  0  0  0  0  0
   34.9400   32.2360   40.2760 C   0  0  0  0  0  0  0  0  0  0  0  0
   34.0770   33.1140   40.8750 C   0  0  0  0  0  0  0  0  0  0  0  0
   34.3840   33.7000   42.0950 C   0  0  0  0  0  0  0  0  0  0  0  0
   35.5590   33.3940   42.6970 N   0  0  0  0  0  0  0  0  0  0  0  0
   36.8650   31.2700   40.5220 H   0  0  0  0  0  0  0  0  0  0  0  0
   34.6990   31.7910   39.3410 H   0  0  0  0  0  0  0  0  0  0  0  0
   33.1420   33.3510   40.3850 H   0  0  0  0  0  0  0  0  0  0  0  0
   33.4020   34.6740   42.7370 C   0  0  0  0  0  0  0  0  0  0  0  0
   32.5340   34.0650   43.0290 H   0  0  0  0  0  0  0  0  0  0  0  0
   33.0600   35.4250   41.9990 H   0  0  0  0  0  0  0  0  0  0  0  0
   33.8950   35.0930   43.6130 H   0  0  0  0  0  0  0  0  0  0  0  0
  1  2  1  0  0  0  0
  3  1  1  0  0  0  0
  4  5  1  0  0  0  0
  5  6  1  0  0  0  0
  6  1  1  0  0  0  0
  6  7  2  0  0  0  0
  7 11  1  0  0  0  0
  8  7  1  0  0  0  0
  8 12  1  0  0  0  0
  9  8  2  0  0  0  0
 10  5  2  0  0  0  0
 10  9  1  0  0  0  0
 13  9  1  0  0  0  0
 14 15  1  0  0  0  0
 14 10  1  0  0  0  0
 15 16  1  0  0  0  0
 16 17  2  0  0  0  0
 18 17  1  0  0  0  0
 19 18  2  0  0  0  0
 20 19  1  0  0  0  0
 21 20  2  0  0  0  0
 22 21  1  0  0  0  0
 23 21  1  0  0  0  0
 23 25  2  0  0  0  0
 24 23  1  0  0  0  0
 25 26  1  0  0  0  0
 26 19  1  0  0  0  0
 26 15  2  0  0  0  0
 27  1  1  0  0  0  0
 28 33  1  0  0  0  0
 29 30  1  0  0  0  0
 29 28  2  0  0  0  0
 30 31  2  0  0  0  0
 31 32  1  0  0  0  0
 32 27  1  0  0  0  0
 33 32  2  0  0  0  0
 34 28  1  0  0  0  0
 35 30  1  0  0  0  0
 36 29  1  0  0  0  0
 37 42  1  0  0  0  0
 37 36  1  0  0  0  0
 38 37  2  0  0  0  0
 39 40  2  0  0  0  0
 39 38  1  0  0  0  0
 40 41  1  0  0  0  0
 41 42  2  0  0  0  0
 41 46  1  0  0  0  0
 43 38  1  0  0  0  0
 44 39  1  0  0  0  0
 45 40  1  0  0  0  0
 46 47  1  0  0  0  0
 46 49  1  0  0  0  0
 48 46  1  0  0  0  0
M  END
>  <minimizedAffinity>
-5.32417345

>  <minimizedRMSD>
4.38777256

$$$$
