
 OpenBabel03272507303D

 32 35  0  0  0  0  0  0  0  0999 V2000
   35.8670   29.2630   49.8210 C   0  0  0  0  0  0  0  0  0  0  0  0
   34.7440   29.7040   50.4230 C   0  0  0  0  0  0  0  0  0  0  0  0
   33.6480   29.0220   49.8960 C   0  0  0  0  0  0  0  0  0  0  0  0
   34.2110   28.1490   48.9410 C   0  0  0  0  0  0  0  0  0  0  0  0
   35.4710   28.3750   48.9880 O   0  0  0  0  0  0  0  0  0  0  0  0
   34.5080   30.4310   51.1860 H   0  0  0  0  0  0  0  0  0  0  0  0
   32.5870   29.0810   50.1050 H   0  0  0  0  0  0  0  0  0  0  0  0
   37.1850   29.7610   50.1300 C   0  0  0  0  0  0  0  0  0  0  0  0
   37.7400   29.3860   51.1710 O   0  0  0  0  0  0  0  0  0  0  0  0
   37.7790   30.6890   49.1730 C   0  0  0  0  0  0  0  0  0  0  0  0
   38.1430   31.9400   49.6950 C   0  0  0  0  0  0  0  0  0  0  0  0
   38.7180   32.8470   48.8000 C   0  0  0  0  0  0  0  0  0  0  0  0
   38.8930   32.4890   47.5010 N   0  0  0  0  0  0  0  0  0  0  0  0
   38.5200   31.2650   47.0530 C   0  0  0  0  0  0  0  0  0  0  0  0
   37.9720   30.3800   47.8800 N   0  0  0  0  0  0  0  0  0  0  0  0
   38.0050   32.2280   50.7260 H   0  0  0  0  0  0  0  0  0  0  0  0
   39.0300   33.8430   49.1200 H   0  0  0  0  0  0  0  0  0  0  0  0
   38.6460   30.9530   46.0320 H   0  0  0  0  0  0  0  0  0  0  0  0
   33.4320   27.2150   48.1200 C   0  0  0  0  0  0  0  0  0  0  0  0
   32.2130   27.0510   48.3680 O   0  0  0  0  0  0  0  0  0  0  0  0
   33.7280   26.3510   47.0040 C   0  0  0  0  0  0  0  0  0  0  0  0
   33.7310   25.0240   47.2730 N   0  0  0  0  0  0  0  0  0  0  0  0
   33.9930   24.0710   46.3330 C   0  0  0  0  0  3  0  0  0  0  0  0
   34.2630   24.4410   45.0770 N   0  0  0  0  0  0  0  0  0  0  0  0
   34.2830   25.7290   44.7040 C   0  0  0  0  0  0  0  0  0  0  0  0
   34.5280   26.1230   43.4070 C   0  0  0  0  0  3  0  0  0  0  0  0
   34.5090   27.4420   43.0420 C   0  0  0  0  0  0  0  0  0  0  0  0
   34.7020   27.7510   42.0260 H   0  0  0  0  0  0  0  0  0  0  0  0
   34.2280   28.3620   44.0480 C   0  0  0  0  0  0  0  0  0  0  0  0
   34.2170   29.4010   43.7360 H   0  0  0  0  0  0  0  0  0  0  0  0
   33.9890   27.9370   45.3330 C   0  0  0  0  0  3  0  0  0  0  0  0
   34.0080   26.6220   45.7090 C   0  0  0  0  0  0  0  0  0  0  0  0
  1  8  1  0  0  0  0
  1  2  2  0  0  0  0
  2  6  1  0  0  0  0
  3  7  1  0  0  0  0
  3  2  1  0  0  0  0
  4  5  1  0  0  0  0
  4  3  2  0  0  0  0
  5  1  1  0  0  0  0
  8  9  2  0  0  0  0
 10 11  1  0  0  0  0
 10  8  1  0  0  0  0
 11 16  1  0  0  0  0
 12 17  1  0  0  0  0
 12 11  2  0  0  0  0
 13 12  1  0  0  0  0
 14 13  2  0  0  0  0
 14 15  1  0  0  0  0
 15 10  2  0  0  0  0
 18 14  1  0  0  0  0
 19 20  2  0  0  0  0
 19  4  1  0  0  0  0
 21 22  1  0  0  0  0
 21 19  1  0  0  0  0
 23 22  2  0  0  0  0
 24 23  1  0  0  0  0
 25 24  2  0  0  0  0
 25 32  1  0  0  0  0
 26 25  1  0  0  0  0
 27 26  2  0  0  0  0
 27 29  1  0  0  0  0
 28 27  1  0  0  0  0
 29 31  2  0  0  0  0
 30 29  1  0  0  0  0
 31 32  1  0  0  0  0
 32 21  2  0  0  0  0
M  END
>  <minimizedAffinity>
-5.33466721

>  <minimizedRMSD>
1.43954742

$$$$
