
 OpenBabel03272509583D

 49 53  0  0  0  0  0  0  0  0999 V2000
   33.4730   27.5620   47.6180 C   0  0  0  0  0  0  0  0  0  0  0  0
   33.6840   27.4540   46.5220 H   0  0  0  0  0  0  0  0  0  0  0  0
   33.6410   26.5830   48.0700 H   0  0  0  0  0  0  0  0  0  0  0  0
   32.0280   27.9100   47.7330 C   0  0  0  0  0  0  0  0  0  0  0  0
   31.3600   27.5120   48.8740 C   0  0  0  0  0  0  0  0  0  0  0  0
   30.0320   27.7940   49.0490 C   0  0  0  0  0  0  0  0  0  0  0  0
   29.3660   28.4640   48.1070 N   0  0  0  0  0  0  0  0  0  0  0  0
   30.0330   28.8540   46.9790 C   0  0  0  0  0  0  0  0  0  0  0  0
   31.3250   28.5770   46.8150 N   0  0  0  0  0  0  0  0  0  0  0  0
   31.8370   26.9720   49.6690 H   0  0  0  0  0  0  0  0  0  0  0  0
   29.4530   27.5070   49.9270 H   0  0  0  0  0  0  0  0  0  0  0  0
   29.2330   29.6050   45.9790 C   0  0  0  0  0  0  0  0  0  0  0  0
   29.8710   30.2030   45.2950 H   0  0  0  0  0  0  0  0  0  0  0  0
   28.6080   30.3470   46.5090 H   0  0  0  0  0  0  0  0  0  0  0  0
   28.3280   28.6880   45.2460 C   0  0  0  0  0  0  0  0  0  0  0  0
   28.5820   27.3490   45.3540 N   0  0  0  0  0  0  0  0  0  0  0  0
   27.8790   26.4060   44.7170 C   0  0  0  0  0  3  0  0  0  0  0  0
   26.8520   26.7100   43.9060 N   0  0  0  0  0  0  0  0  0  0  0  0
   26.5580   28.0340   43.7670 C   0  0  0  0  0  0  0  0  0  0  0  0
   25.5090   28.4330   42.9610 C   0  0  0  0  0  3  0  0  0  0  0  0
   25.1920   29.7640   42.8200 C   0  0  0  0  0  0  0  0  0  0  0  0
   24.3530   29.9650   42.1660 H   0  0  0  0  0  0  0  0  0  0  0  0
   25.9430   30.7240   43.5010 C   0  0  0  0  0  0  0  0  0  0  0  0
   25.6470   31.7540   43.3550 H   0  0  0  0  0  0  0  0  0  0  0  0
   26.9880   30.3420   44.3010 C   0  0  0  0  0  3  0  0  0  0  0  0
   27.2730   29.0050   44.4160 C   0  0  0  0  0  0  0  0  0  0  0  0
   34.3750   28.6420   48.1290 C   0  0  0  0  0  0  0  0  0  0  0  0
   35.2430   28.8520   47.4730 H   0  0  0  0  0  0  0  0  0  0  0  0
   33.7850   29.5620   48.2170 H   0  0  0  0  0  0  0  0  0  0  0  0
   34.9020   28.2890   49.4100 O   0  0  0  0  0  0  0  0  0  0  0  0
   37.1670   30.0660   51.6050 C   0  0  0  0  0  0  0  0  0  0  0  0
   37.9270   30.7870   50.6490 C   0  0  0  0  0  0  0  0  0  0  0  0
   37.6070   30.6120   49.3130 C   0  0  0  0  0  0  0  0  0  0  0  0
   36.5790   29.7520   49.0330 N   0  0  0  0  0  0  0  0  0  0  0  0
   35.8710   29.0790   49.9440 C   0  0  0  0  0  0  0  0  0  0  0  0
   36.1820   29.2480   51.2580 N   0  0  0  0  0  0  0  0  0  0  0  0
   37.4430   30.2260   52.6430 H   0  0  0  0  0  0  0  0  0  0  0  0
   38.7230   31.4510   50.8810 H   0  0  0  0  0  0  0  0  0  0  0  0
   38.8170   33.2410   49.2310 F   0  0  0  0  0  0  0  0  0  0  0  0
   38.8330   32.4790   48.1460 C   0  0  0  0  0  0  0  0  0  0  0  0
   38.2640   31.2590   48.2090 C   0  0  0  0  0  0  0  0  0  0  0  0
   38.3420   30.5450   47.0020 C   0  0  0  0  0  0  0  0  0  0  0  0
   38.9370   31.0470   45.8790 C   0  0  0  0  0  0  0  0  0  0  0  0
   39.5010   32.3030   45.8770 C   0  0  0  0  0  0  0  0  0  0  0  0
   39.4400   33.0180   47.0360 C   0  0  0  0  0  0  0  0  0  0  0  0
   37.9140   29.5440   46.9380 H   0  0  0  0  0  0  0  0  0  0  0  0
   38.9650   30.4410   44.9670 H   0  0  0  0  0  0  0  0  0  0  0  0
   39.9670   32.6720   44.9650 H   0  0  0  0  0  0  0  0  0  0  0  0
   39.8810   34.0070   47.0430 H   0  0  0  0  0  0  0  0  0  0  0  0
  1  4  1  0  0  0  0
  1  3  1  0  0  0  0
  1 27  1  0  0  0  0
  2  1  1  0  0  0  0
  4  5  1  0  0  0  0
  5  6  2  0  0  0  0
  5 10  1  0  0  0  0
  6 11  1  0  0  0  0
  7  6  1  0  0  0  0
  8  7  2  0  0  0  0
  9  8  1  0  0  0  0
  9  4  2  0  0  0  0
 12 14  1  0  0  0  0
 12  8  1  0  0  0  0
 13 12  1  0  0  0  0
 15 16  1  0  0  0  0
 15 12  1  0  0  0  0
 17 16  2  0  0  0  0
 18 17  1  0  0  0  0
 19 18  2  0  0  0  0
 19 26  1  0  0  0  0
 20 19  1  0  0  0  0
 21 20  2  0  0  0  0
 21 23  1  0  0  0  0
 22 21  1  0  0  0  0
 23 25  2  0  0  0  0
 24 23  1  0  0  0  0
 25 26  1  0  0  0  0
 26 15  2  0  0  0  0
 27 29  1  0  0  0  0
 27 30  1  0  0  0  0
 28 27  1  0  0  0  0
 30 35  1  0  0  0  0
 31 37  1  0  0  0  0
 32 38  1  0  0  0  0
 32 31  2  0  0  0  0
 33 32  1  0  0  0  0
 34 33  2  0  0  0  0
 34 35  1  0  0  0  0
 35 36  2  0  0  0  0
 36 31  1  0  0  0  0
 40 41  1  0  0  0  0
 40 39  1  0  0  0  0
 41 33  1  0  0  0  0
 42 41  2  0  0  0  0
 43 42  1  0  0  0  0
 44 43  2  0  0  0  0
 44 45  1  0  0  0  0
 45 49  1  0  0  0  0
 45 40  2  0  0  0  0
 46 42  1  0  0  0  0
 47 43  1  0  0  0  0
 48 44  1  0  0  0  0
M  END
>  <minimizedAffinity>
-7.05691099

>  <minimizedRMSD>
0.769072056

$$$$
