
 OpenBabel03262521393D

 32 35  0  0  0  0  0  0  0  0999 V2000
   37.6500   30.8860   48.4890 F   0  0  0  0  0  0  0  0  0  0  0  0
   36.8100   30.5830   47.4490 C   0  0  0  0  0  0  0  0  0  0  0  0
   35.5650   30.0250   47.6810 C   0  0  0  0  0  0  0  0  0  0  0  0
   34.7430   29.7330   46.5890 C   0  0  0  0  0  0  0  0  0  0  0  0
   35.1650   30.0000   45.2900 C   0  0  0  0  0  0  0  0  0  0  0  0
   36.4100   30.5550   45.1240 C   0  0  0  0  0  0  0  0  0  0  0  0
   37.2520   30.8560   46.1810 C   0  0  0  0  0  0  0  0  0  0  0  0
   33.7680   29.2940   46.8020 H   0  0  0  0  0  0  0  0  0  0  0  0
   34.5180   29.7690   44.4690 H   0  0  0  0  0  0  0  0  0  0  0  0
   36.7550   30.7690   44.1190 H   0  0  0  0  0  0  0  0  0  0  0  0
   36.2450   29.3790   49.8590 C   0  0  0  0  0  0  0  0  0  0  0  0
   35.1980   29.7780   49.0320 C   0  0  0  0  0  0  0  0  0  0  0  0
   33.9320   29.8880   49.6100 C   0  0  0  0  0  0  0  0  0  0  0  0
   33.7980   29.5990   50.9410 N   0  0  0  0  0  0  0  0  0  0  0  0
   34.8290   29.2220   51.6900 C   0  0  0  0  0  0  0  0  0  0  0  0
   36.0660   29.1030   51.1740 N   0  0  0  0  0  0  0  0  0  0  0  0
   37.2770   29.2610   49.5090 H   0  0  0  0  0  0  0  0  0  0  0  0
   33.1570   30.1980   48.9310 H   0  0  0  0  0  0  0  0  0  0  0  0
   34.6950   29.0020   52.7370 H   0  0  0  0  0  0  0  0  0  0  0  0
   38.8760   31.5800   45.9310 S   0  0  0  0  0  0  0  0  0  0  0  0
   39.1600   31.9370   44.2140 C   0  0  0  0  0  0  0  0  0  0  0  0
   39.1610   33.1650   43.6200 N   0  0  0  0  0  0  0  0  0  0  0  0
   39.3930   33.2640   42.3010 C   0  0  0  0  0  3  0  0  0  0  0  0
   39.6300   32.2150   41.5050 N   0  0  0  0  0  0  0  0  0  0  0  0
   39.6420   30.9770   42.0340 C   0  0  0  0  0  0  0  0  0  0  0  0
   39.8850   29.9020   41.2200 C   0  0  0  0  0  3  0  0  0  0  0  0
   39.8980   28.6190   41.7540 C   0  0  0  0  0  0  0  0  0  0  0  0
   40.0830   27.7130   41.1790 H   0  0  0  0  0  0  0  0  0  0  0  0
   39.6650   28.4360   43.1200 C   0  0  0  0  0  0  0  0  0  0  0  0
   39.6690   27.4400   43.5720 H   0  0  0  0  0  0  0  0  0  0  0  0
   39.4280   29.5610   43.8790 C   0  0  0  0  0  3  0  0  0  0  0  0
   39.4060   30.8410   43.3900 C   0  0  0  0  0  0  0  0  0  0  0  0
  2  3  1  0  0  0  0
  2  1  1  0  0  0  0
  3 12  1  0  0  0  0
  4  8  1  0  0  0  0
  4  3  2  0  0  0  0
  5  4  1  0  0  0  0
  6  5  2  0  0  0  0
  6  7  1  0  0  0  0
  7  2  2  0  0  0  0
  9  5  1  0  0  0  0
 10  6  1  0  0  0  0
 11 16  1  0  0  0  0
 12 13  1  0  0  0  0
 12 11  2  0  0  0  0
 13 14  2  0  0  0  0
 14 15  1  0  0  0  0
 15 19  1  0  0  0  0
 16 15  2  0  0  0  0
 17 11  1  0  0  0  0
 18 13  1  0  0  0  0
 20  7  1  0  0  0  0
 21 20  1  0  0  0  0
 22 21  1  0  0  0  0
 23 22  2  0  0  0  0
 24 25  2  0  0  0  0
 24 23  1  0  0  0  0
 25 32  1  0  0  0  0
 26 27  2  0  0  0  0
 26 25  1  0  0  0  0
 27 29  1  0  0  0  0
 28 27  1  0  0  0  0
 29 30  1  0  0  0  0
 29 31  2  0  0  0  0
 32 31  1  0  0  0  0
 32 21  2  0  0  0  0
M  END
>  <minimizedAffinity>
-4.33698702

>  <minimizedRMSD>
4.82380581

$$$$
