
 OpenBabel03272507303D

 32 35  0  0  0  0  0  0  0  0999 V2000
   35.9420   29.4270   49.8220 C   0  0  0  0  0  0  0  0  0  0  0  0
   34.8350   29.8640   50.4560 C   0  0  0  0  0  0  0  0  0  0  0  0
   33.7270   29.1730   49.9650 C   0  0  0  0  0  0  0  0  0  0  0  0
   34.2670   28.3000   48.9970 C   0  0  0  0  0  0  0  0  0  0  0  0
   35.5260   28.5340   49.0060 O   0  0  0  0  0  0  0  0  0  0  0  0
   34.6170   30.5930   51.2230 H   0  0  0  0  0  0  0  0  0  0  0  0
   32.6730   29.2260   50.2060 H   0  0  0  0  0  0  0  0  0  0  0  0
   37.2650   29.9340   50.0890 C   0  0  0  0  0  0  0  0  0  0  0  0
   37.8280   29.6190   51.1450 O   0  0  0  0  0  0  0  0  0  0  0  0
   37.8560   30.8000   49.0730 C   0  0  0  0  0  0  0  0  0  0  0  0
   38.2610   32.0660   49.5240 C   0  0  0  0  0  0  0  0  0  0  0  0
   38.8330   32.9150   48.5710 C   0  0  0  0  0  0  0  0  0  0  0  0
   38.9670   32.4890   47.2880 N   0  0  0  0  0  0  0  0  0  0  0  0
   38.5550   31.2540   46.9100 C   0  0  0  0  0  0  0  0  0  0  0  0
   38.0090   30.4240   47.7930 N   0  0  0  0  0  0  0  0  0  0  0  0
   38.1560   32.4070   50.5420 H   0  0  0  0  0  0  0  0  0  0  0  0
   39.1760   33.9170   48.8330 H   0  0  0  0  0  0  0  0  0  0  0  0
   38.6480   30.8890   45.9030 H   0  0  0  0  0  0  0  0  0  0  0  0
   33.4690   27.3570   48.2040 C   0  0  0  0  0  0  0  0  0  0  0  0
   32.2510   27.2120   48.4680 O   0  0  0  0  0  0  0  0  0  0  0  0
   33.7440   26.4670   47.1030 C   0  0  0  0  0  0  0  0  0  0  0  0
   33.7460   25.1470   47.4030 N   0  0  0  0  0  0  0  0  0  0  0  0
   33.9900   24.1720   46.4810 C   0  0  0  0  0  3  0  0  0  0  0  0
   34.2410   24.5110   45.2120 N   0  0  0  0  0  0  0  0  0  0  0  0
   34.2600   25.7910   44.8090 C   0  0  0  0  0  0  0  0  0  0  0  0
   34.4850   26.1540   43.5010 C   0  0  0  0  0  3  0  0  0  0  0  0
   34.4650   27.4640   43.1050 C   0  0  0  0  0  0  0  0  0  0  0  0
   34.6420   27.7490   42.0800 H   0  0  0  0  0  0  0  0  0  0  0  0
   34.2030   28.4080   44.0940 C   0  0  0  0  0  0  0  0  0  0  0  0
   34.1900   29.4400   43.7590 H   0  0  0  0  0  0  0  0  0  0  0  0
   33.9830   28.0130   45.3930 C   0  0  0  0  0  3  0  0  0  0  0  0
   34.0050   26.7070   45.7980 C   0  0  0  0  0  0  0  0  0  0  0  0
  1  8  1  0  0  0  0
  1  2  2  0  0  0  0
  2  6  1  0  0  0  0
  3  7  1  0  0  0  0
  3  2  1  0  0  0  0
  4  5  1  0  0  0  0
  4  3  2  0  0  0  0
  5  1  1  0  0  0  0
  8  9  2  0  0  0  0
 10 11  1  0  0  0  0
 10  8  1  0  0  0  0
 11 16  1  0  0  0  0
 12 17  1  0  0  0  0
 12 11  2  0  0  0  0
 13 12  1  0  0  0  0
 14 13  2  0  0  0  0
 14 15  1  0  0  0  0
 15 10  2  0  0  0  0
 18 14  1  0  0  0  0
 19 20  2  0  0  0  0
 19  4  1  0  0  0  0
 21 22  1  0  0  0  0
 21 19  1  0  0  0  0
 23 22  2  0  0  0  0
 24 23  1  0  0  0  0
 25 24  2  0  0  0  0
 25 32  1  0  0  0  0
 26 25  1  0  0  0  0
 27 26  2  0  0  0  0
 27 29  1  0  0  0  0
 28 27  1  0  0  0  0
 29 31  2  0  0  0  0
 30 29  1  0  0  0  0
 31 32  1  0  0  0  0
 32 21  2  0  0  0  0
M  END
>  <minimizedAffinity>
-5.35038376

>  <minimizedRMSD>
1.11273372

$$$$
