
 OpenBabel03272507303D

 32 35  0  0  0  0  0  0  0  0999 V2000
   35.8630   29.2320   49.8020 C   0  0  0  0  0  0  0  0  0  0  0  0
   34.7880   29.7140   50.4590 C   0  0  0  0  0  0  0  0  0  0  0  0
   33.6400   29.0880   49.9740 C   0  0  0  0  0  0  0  0  0  0  0  0
   34.1220   28.2040   48.9850 C   0  0  0  0  0  0  0  0  0  0  0  0
   35.3900   28.3730   48.9780 O   0  0  0  0  0  0  0  0  0  0  0  0
   34.6190   30.4400   51.2390 H   0  0  0  0  0  0  0  0  0  0  0  0
   32.5940   29.1900   50.2320 H   0  0  0  0  0  0  0  0  0  0  0  0
   37.2140   29.6670   50.0560 C   0  0  0  0  0  0  0  0  0  0  0  0
   37.8180   29.2120   51.0360 O   0  0  0  0  0  0  0  0  0  0  0  0
   37.7820   30.6320   49.1200 C   0  0  0  0  0  0  0  0  0  0  0  0
   38.1520   31.8660   49.6790 C   0  0  0  0  0  0  0  0  0  0  0  0
   38.7020   32.8080   48.8040 C   0  0  0  0  0  0  0  0  0  0  0  0
   38.8490   32.4970   47.4900 N   0  0  0  0  0  0  0  0  0  0  0  0
   38.4730   31.2880   47.0060 C   0  0  0  0  0  0  0  0  0  0  0  0
   37.9480   30.3710   47.8130 N   0  0  0  0  0  0  0  0  0  0  0  0
   38.0350   32.1160   50.7220 H   0  0  0  0  0  0  0  0  0  0  0  0
   39.0160   33.7940   49.1520 H   0  0  0  0  0  0  0  0  0  0  0  0
   38.5770   31.0130   45.9720 H   0  0  0  0  0  0  0  0  0  0  0  0
   33.2650   27.3160   48.1890 C   0  0  0  0  0  0  0  0  0  0  0  0
   32.0410   27.2450   48.4550 O   0  0  0  0  0  0  0  0  0  0  0  0
   33.4830   26.4140   47.0850 C   0  0  0  0  0  0  0  0  0  0  0  0
   33.2780   25.1020   47.3490 N   0  0  0  0  0  0  0  0  0  0  0  0
   33.4400   24.1180   46.4190 C   0  0  0  0  0  3  0  0  0  0  0  0
   33.8210   24.4390   45.1780 N   0  0  0  0  0  0  0  0  0  0  0  0
   34.0480   25.7100   44.8110 C   0  0  0  0  0  0  0  0  0  0  0  0
   34.4090   26.0590   43.5290 C   0  0  0  0  0  3  0  0  0  0  0  0
   34.6010   27.3650   43.1690 C   0  0  0  0  0  0  0  0  0  0  0  0
   34.8850   27.6400   42.1640 H   0  0  0  0  0  0  0  0  0  0  0  0
   34.4110   28.3200   44.1640 C   0  0  0  0  0  0  0  0  0  0  0  0
   34.5680   29.3490   43.8550 H   0  0  0  0  0  0  0  0  0  0  0  0
   34.0520   27.9390   45.4340 C   0  0  0  0  0  3  0  0  0  0  0  0
   33.8610   26.6370   45.8050 C   0  0  0  0  0  0  0  0  0  0  0  0
  1  8  1  0  0  0  0
  1  2  2  0  0  0  0
  2  6  1  0  0  0  0
  3  7  1  0  0  0  0
  3  2  1  0  0  0  0
  4  3  2  0  0  0  0
  5  4  1  0  0  0  0
  5  1  1  0  0  0  0
  8  9  2  0  0  0  0
 10 11  1  0  0  0  0
 10  8  1  0  0  0  0
 11 16  1  0  0  0  0
 12 17  1  0  0  0  0
 12 11  2  0  0  0  0
 13 12  1  0  0  0  0
 14 13  2  0  0  0  0
 14 15  1  0  0  0  0
 15 10  2  0  0  0  0
 18 14  1  0  0  0  0
 19 20  2  0  0  0  0
 19  4  1  0  0  0  0
 21 22  1  0  0  0  0
 21 19  1  0  0  0  0
 23 22  2  0  0  0  0
 24 23  1  0  0  0  0
 25 24  2  0  0  0  0
 25 32  1  0  0  0  0
 26 25  1  0  0  0  0
 27 26  2  0  0  0  0
 27 29  1  0  0  0  0
 28 27  1  0  0  0  0
 29 31  2  0  0  0  0
 30 29  1  0  0  0  0
 31 32  1  0  0  0  0
 32 21  2  0  0  0  0
M  END
>  <minimizedAffinity>
-5.34668064

>  <minimizedRMSD>
0.992122114

$$$$
