
 OpenBabel03272509583D

 49 53  0  0  0  0  0  0  0  0999 V2000
   33.5320   27.6470   47.5670 C   0  0  0  0  0  0  0  0  0  0  0  0
   33.7020   27.5920   46.4600 H   0  0  0  0  0  0  0  0  0  0  0  0
   33.7600   26.6590   47.9710 H   0  0  0  0  0  0  0  0  0  0  0  0
   32.0800   27.9270   47.7550 C   0  0  0  0  0  0  0  0  0  0  0  0
   31.4830   27.4740   48.9150 C   0  0  0  0  0  0  0  0  0  0  0  0
   30.1530   27.6920   49.1550 C   0  0  0  0  0  0  0  0  0  0  0  0
   29.4160   28.3520   48.2600 N   0  0  0  0  0  0  0  0  0  0  0  0
   30.0130   28.7970   47.1130 C   0  0  0  0  0  0  0  0  0  0  0  0
   31.3070   28.5810   46.8850 N   0  0  0  0  0  0  0  0  0  0  0  0
   32.0190   26.9380   49.6740 H   0  0  0  0  0  0  0  0  0  0  0  0
   29.6280   27.3600   50.0510 H   0  0  0  0  0  0  0  0  0  0  0  0
   29.1360   29.5330   46.1680 C   0  0  0  0  0  0  0  0  0  0  0  0
   29.2050   30.6320   46.3020 H   0  0  0  0  0  0  0  0  0  0  0  0
   28.0840   29.2820   46.3920 H   0  0  0  0  0  0  0  0  0  0  0  0
   29.4160   29.1180   44.7720 C   0  0  0  0  0  0  0  0  0  0  0  0
   30.2660   29.9100   44.0490 N   0  0  0  0  0  0  0  0  0  0  0  0
   30.5760   29.6880   42.7680 C   0  0  0  0  0  3  0  0  0  0  0  0
   30.0670   28.6510   42.0810 N   0  0  0  0  0  0  0  0  0  0  0  0
   29.2130   27.8320   42.7600 C   0  0  0  0  0  0  0  0  0  0  0  0
   28.6540   26.7350   42.1310 C   0  0  0  0  0  3  0  0  0  0  0  0
   27.8030   25.8930   42.8060 C   0  0  0  0  0  0  0  0  0  0  0  0
   27.4220   25.0650   42.2210 H   0  0  0  0  0  0  0  0  0  0  0  0
   27.5010   26.1500   44.1450 C   0  0  0  0  0  0  0  0  0  0  0  0
   26.8280   25.4510   44.6250 H   0  0  0  0  0  0  0  0  0  0  0  0
   28.0470   27.2350   44.7790 C   0  0  0  0  0  3  0  0  0  0  0  0
   28.8910   28.0530   44.0720 C   0  0  0  0  0  0  0  0  0  0  0  0
   34.4090   28.7440   48.0870 C   0  0  0  0  0  0  0  0  0  0  0  0
   35.2560   28.9980   47.4180 H   0  0  0  0  0  0  0  0  0  0  0  0
   33.7910   29.6420   48.2080 H   0  0  0  0  0  0  0  0  0  0  0  0
   34.9740   28.3780   49.3480 O   0  0  0  0  0  0  0  0  0  0  0  0
   37.2970   30.1460   51.4900 C   0  0  0  0  0  0  0  0  0  0  0  0
   38.0490   30.8500   50.5150 C   0  0  0  0  0  0  0  0  0  0  0  0
   37.7030   30.6680   49.1860 C   0  0  0  0  0  0  0  0  0  0  0  0
   36.6610   29.8180   48.9310 N   0  0  0  0  0  0  0  0  0  0  0  0
   35.9610   29.1600   49.8590 C   0  0  0  0  0  0  0  0  0  0  0  0
   36.2960   29.3360   51.1660 N   0  0  0  0  0  0  0  0  0  0  0  0
   37.5920   30.3100   52.5210 H   0  0  0  0  0  0  0  0  0  0  0  0
   38.8560   31.5060   50.7280 H   0  0  0  0  0  0  0  0  0  0  0  0
   38.8960   33.3030   49.0470 F   0  0  0  0  0  0  0  0  0  0  0  0
   38.9100   32.5210   47.9770 C   0  0  0  0  0  0  0  0  0  0  0  0
   38.3490   31.2990   48.0660 C   0  0  0  0  0  0  0  0  0  0  0  0
   38.4240   30.5620   46.8720 C   0  0  0  0  0  0  0  0  0  0  0  0
   39.0090   31.0480   45.7360 C   0  0  0  0  0  0  0  0  0  0  0  0
   39.5640   32.3060   45.7060 C   0  0  0  0  0  0  0  0  0  0  0  0
   39.5060   33.0430   46.8520 C   0  0  0  0  0  0  0  0  0  0  0  0
   38.0030   29.5580   46.8290 H   0  0  0  0  0  0  0  0  0  0  0  0
   39.0350   30.4250   44.8350 H   0  0  0  0  0  0  0  0  0  0  0  0
   40.0210   32.6610   44.7850 H   0  0  0  0  0  0  0  0  0  0  0  0
   39.9400   34.0350   46.8380 H   0  0  0  0  0  0  0  0  0  0  0  0
  1  4  1  0  0  0  0
  1  3  1  0  0  0  0
  1 27  1  0  0  0  0
  2  1  1  0  0  0  0
  4  5  1  0  0  0  0
  5  6  2  0  0  0  0
  5 10  1  0  0  0  0
  6 11  1  0  0  0  0
  7  6  1  0  0  0  0
  8  7  2  0  0  0  0
  9  8  1  0  0  0  0
  9  4  2  0  0  0  0
 12 13  1  0  0  0  0
 12 14  1  0  0  0  0
 12  8  1  0  0  0  0
 15 12  1  0  0  0  0
 16 15  2  0  0  0  0
 17 16  1  0  0  0  0
 18 19  1  0  0  0  0
 18 17  2  0  0  0  0
 19 26  1  0  0  0  0
 20 19  2  0  0  0  0
 20 21  1  0  0  0  0
 21 23  2  0  0  0  0
 22 21  1  0  0  0  0
 23 24  1  0  0  0  0
 23 25  1  0  0  0  0
 26 15  1  0  0  0  0
 26 25  2  0  0  0  0
 27 29  1  0  0  0  0
 27 30  1  0  0  0  0
 28 27  1  0  0  0  0
 30 35  1  0  0  0  0
 31 37  1  0  0  0  0
 32 38  1  0  0  0  0
 32 31  2  0  0  0  0
 33 32  1  0  0  0  0
 34 33  2  0  0  0  0
 34 35  1  0  0  0  0
 35 36  2  0  0  0  0
 36 31  1  0  0  0  0
 40 41  1  0  0  0  0
 40 39  1  0  0  0  0
 41 33  1  0  0  0  0
 42 41  2  0  0  0  0
 43 42  1  0  0  0  0
 44 43  2  0  0  0  0
 44 45  1  0  0  0  0
 45 40  2  0  0  0  0
 46 42  1  0  0  0  0
 47 43  1  0  0  0  0
 48 44  1  0  0  0  0
 49 45  1  0  0  0  0
M  END
>  <minimizedAffinity>
-6.47180748

>  <minimizedRMSD>
1.32282603

$$$$
