
 OpenBabel03272502253D

 33 36  0  0  0  0  0  0  0  0999 V2000
   37.0690   30.4850   50.4950 C   0  0  0  0  0  0  0  0  0  0  0  0
   37.7360   30.9570   49.3370 C   0  0  0  0  0  0  0  0  0  0  0  0
   37.0560   30.8290   48.1180 C   0  0  0  0  0  0  0  0  0  0  0  0
   35.8370   30.2780   48.1300 N   0  0  0  0  0  0  0  0  0  0  0  0
   35.2170   29.8350   49.2330 C   0  0  0  0  0  0  0  0  0  0  0  0
   35.8430   29.9420   50.4260 N   0  0  0  0  0  0  0  0  0  0  0  0
   37.6480   30.6120   51.4010 H   0  0  0  0  0  0  0  0  0  0  0  0
   38.7220   31.3980   49.3620 H   0  0  0  0  0  0  0  0  0  0  0  0
   37.6290   31.2700   46.8650 C   0  0  0  0  0  0  0  0  0  0  0  0
   37.1080   30.8650   45.6590 C   0  0  0  0  0  0  0  0  0  0  0  0
   37.6190   31.2560   44.4400 C   0  0  0  0  0  0  0  0  0  0  0  0
   38.6930   32.0850   44.4170 N   0  0  0  0  0  0  0  0  0  0  0  0
   39.1930   32.4750   45.5960 C   0  0  0  0  0  0  0  0  0  0  0  0
   38.6980   32.0950   46.7830 N   0  0  0  0  0  0  0  0  0  0  0  0
   36.2620   30.2150   45.5700 H   0  0  0  0  0  0  0  0  0  0  0  0
   37.2280   30.9520   43.4880 H   0  0  0  0  0  0  0  0  0  0  0  0
   40.3660   33.3810   45.5940 C   0  0  0  0  0  0  0  0  0  0  0  0
   40.3700   34.0560   46.8270 F   0  0  0  0  0  0  0  0  0  0  0  0
   41.5420   32.6980   45.4000 F   0  0  0  0  0  0  0  0  0  0  0  0
   40.2540   34.3670   44.6420 F   0  0  0  0  0  0  0  0  0  0  0  0
   33.9710   29.2940   49.0870 O   0  0  0  0  0  0  0  0  0  0  0  0
   33.7430   28.2610   48.2170 C   0  0  0  0  0  0  0  0  0  0  0  0
   33.9740   26.9590   48.2080 N   0  0  0  0  0  0  0  0  0  0  0  0
   33.6590   26.1090   47.2230 C   0  0  0  0  0  3  0  0  0  0  0  0
   33.0480   26.5360   46.1020 N   0  0  0  0  0  0  0  0  0  0  0  0
   32.7740   27.8360   46.0200 C   0  0  0  0  0  0  0  0  0  0  0  0
   32.1490   28.2350   44.8580 C   0  0  0  0  0  3  0  0  0  0  0  0
   31.8280   29.5620   44.6900 C   0  0  0  0  0  0  0  0  0  0  0  0
   31.3380   29.8740   43.7780 H   0  0  0  0  0  0  0  0  0  0  0  0
   32.1320   30.4710   45.6710 C   0  0  0  0  0  0  0  0  0  0  0  0
   31.8940   31.5400   45.5780 H   0  0  0  0  0  0  0  0  0  0  0  0
   32.7560   30.0080   46.8060 C   0  0  0  0  0  3  0  0  0  0  0  0
   33.1110   28.6920   47.0520 C   0  0  0  0  0  0  0  0  0  0  0  0
  1  7  1  0  0  0  0
  2  8  1  0  0  0  0
  2  1  2  0  0  0  0
  3  4  2  0  0  0  0
  3  2  1  0  0  0  0
  4  5  1  0  0  0  0
  5  6  2  0  0  0  0
  6  1  1  0  0  0  0
  9  3  1  0  0  0  0
 10  9  2  0  0  0  0
 11 10  1  0  0  0  0
 12 11  2  0  0  0  0
 12 13  1  0  0  0  0
 13 14  2  0  0  0  0
 14  9  1  0  0  0  0
 15 10  1  0  0  0  0
 16 11  1  0  0  0  0
 17 13  1  0  0  0  0
 17 18  1  0  0  0  0
 19 17  1  0  0  0  0
 20 17  1  0  0  0  0
 21  5  1  0  0  0  0
 22 21  1  0  0  0  0
 23 22  1  0  0  0  0
 24 23  2  0  0  0  0
 25 24  1  0  0  0  0
 26 25  2  0  0  0  0
 26 33  1  0  0  0  0
 27 26  1  0  0  0  0
 28 27  2  0  0  0  0
 28 30  1  0  0  0  0
 29 28  1  0  0  0  0
 30 32  2  0  0  0  0
 31 30  1  0  0  0  0
 32 33  1  0  0  0  0
 33 22  2  0  0  0  0
M  END
>  <minimizedAffinity>
-6.11336136

>  <minimizedRMSD>
1.31155014

$$$$
