
 OpenBabel03272504243D

 42 46  0  0  0  0  0  0  0  0999 V2000
   31.4490   28.9560   46.6090 C   0  0  0  0  0  0  0  0  0  0  0  0
   32.6570   28.3580   46.9730 C   0  0  0  0  0  0  0  0  0  0  0  0
   32.7570   27.2020   47.7110 C   0  0  0  0  0  0  0  0  0  0  0  0
   31.6170   26.5430   48.1470 C   0  0  0  0  0  0  0  0  0  0  0  0
   30.3790   27.0610   47.8320 C   0  0  0  0  0  0  0  0  0  0  0  0
   30.3790   28.2070   47.1000 C   0  0  0  0  0  0  0  0  0  0  0  0
   33.7560   26.8040   47.9510 H   0  0  0  0  0  0  0  0  0  0  0  0
   31.7700   25.6440   48.7220 H   0  0  0  0  0  0  0  0  0  0  0  0
   29.4940   26.5760   48.1520 H   0  0  0  0  0  0  0  0  0  0  0  0
   29.3730   28.5950   46.8630 H   0  0  0  0  0  0  0  0  0  0  0  0
   35.7780   30.2890   46.8020 C   0  0  0  0  0  0  0  0  0  0  0  0
   36.0810   30.1030   45.5160 C   0  0  0  0  0  0  0  0  0  0  0  0
   35.3240   29.3660   44.7070 C   0  0  0  0  0  0  0  0  0  0  0  0
   34.2140   28.8020   45.2230 N   0  0  0  0  0  0  0  0  0  0  0  0
   33.8810   28.9780   46.5030 C   0  0  0  0  0  0  0  0  0  0  0  0
   34.6630   29.7200   47.2960 N   0  0  0  0  0  0  0  0  0  0  0  0
   36.9780   30.5910   45.1770 H   0  0  0  0  0  0  0  0  0  0  0  0
   35.7200   29.3140   43.6960 H   0  0  0  0  0  0  0  0  0  0  0  0
   37.1190   31.6720   49.9380 C   0  0  0  0  0  0  0  0  0  0  0  0
   38.2620   32.3620   49.4860 C   0  0  0  0  0  0  0  0  0  0  0  0
   38.5500   32.3290   48.1010 C   0  0  0  0  0  0  0  0  0  0  0  0
   37.7140   31.6350   47.2690 N   0  0  0  0  0  0  0  0  0  0  0  0
   36.6470   30.9970   47.7340 C   0  0  0  0  0  0  0  0  0  0  0  0
   36.3440   31.0140   49.0820 N   0  0  0  0  0  0  0  0  0  0  0  0
   36.8930   31.6930   50.9950 H   0  0  0  0  0  0  0  0  0  0  0  0
   38.9200   32.9060   50.1150 H   0  0  0  0  0  0  0  0  0  0  0  0
   39.3960   32.8220   47.6570 H   0  0  0  0  0  0  0  0  0  0  0  0
   31.2990   30.3790   45.6970 S   0  0  0  0  0  0  0  0  0  0  0  0
   31.7510   29.8730   44.3840 O   0  0  0  0  0  0  0  0  0  0  0  0
   32.4230   31.3210   45.9450 O   0  0  0  0  0  0  0  0  0  0  0  0
   29.9760   30.8930   44.7470 C   0  0  0  0  0  0  0  0  0  0  0  0
   28.8230   30.3210   44.4400 N   0  0  0  0  0  0  0  0  0  0  0  0
   27.8510   30.7080   43.6210 C   0  0  0  0  0  0  0  0  0  0  0  0
   28.0100   31.8600   42.9690 N   0  0  0  0  0  0  0  0  0  0  0  0
   29.1400   32.5390   43.1930 C   0  0  0  0  0  0  0  0  0  0  0  0
   29.2220   33.7250   42.4830 C   0  0  0  0  0  0  0  0  0  0  0  0
   30.3220   34.5420   42.6120 C   0  0  0  0  0  0  0  0  0  0  0  0
   30.3840   35.4610   42.0600 H   0  0  0  0  0  0  0  0  0  0  0  0
   31.3320   34.1490   43.4590 C   0  0  0  0  0  0  0  0  0  0  0  0
   32.1850   34.7820   43.5580 H   0  0  0  0  0  0  0  0  0  0  0  0
   31.1810   32.9590   44.1300 C   0  0  0  0  0  0  0  0  0  0  0  0
   30.1100   32.0940   44.0480 C   0  0  0  0  0  0  0  0  0  0  0  0
  1  2  2  0  0  0  0
  1  6  1  0  0  0  0
  2  3  1  0  0  0  0
  3  7  1  0  0  0  0
  3  4  2  0  0  0  0
  4  8  1  0  0  0  0
  5  4  1  0  0  0  0
  5  9  1  0  0  0  0
  6  5  2  0  0  0  0
 10  6  1  0  0  0  0
 11 16  1  0  0  0  0
 11 23  1  0  0  0  0
 12 11  2  0  0  0  0
 13 14  2  0  0  0  0
 13 12  1  0  0  0  0
 14 15  1  0  0  0  0
 15  2  1  0  0  0  0
 15 16  2  0  0  0  0
 17 12  1  0  0  0  0
 18 13  1  0  0  0  0
 19 25  1  0  0  0  0
 20 19  1  0  0  0  0
 20 26  1  0  0  0  0
 21 20  2  0  0  0  0
 22 23  2  0  0  0  0
 22 21  1  0  0  0  0
 23 24  1  0  0  0  0
 24 19  2  0  0  0  0
 27 21  1  0  0  0  0
 28 30  2  0  0  0  0
 28  1  1  0  0  0  0
 29 28  2  0  0  0  0
 31 28  1  0  0  0  0
 32 31  1  0  0  0  0
 33 32  2  0  0  0  0
 34 35  2  0  0  0  0
 34 33  1  0  0  0  0
 35 42  1  0  0  0  0
 36 37  2  0  0  0  0
 36 35  1  0  0  0  0
 37 39  1  0  0  0  0
 38 37  1  0  0  0  0
 39 40  1  0  0  0  0
 39 41  2  0  0  0  0
 42 41  1  0  0  0  0
 42 31  2  0  0  0  0
M  END
>  <minimizedAffinity>
-5.7348876

>  <minimizedRMSD>
6.57513285

$$$$
