
 OpenBabel03272505493D

 43 48  0  0  0  0  0  0  0  0999 V2000
   36.8570   30.4020   45.8250 C   0  0  0  0  0  0  0  0  0  0  0  0
   37.4320   30.4010   47.0510 C   0  0  0  0  0  0  0  0  0  0  0  0
   36.6410   30.2590   48.1900 C   0  0  0  0  0  0  0  0  0  0  0  0
   35.2640   30.1210   48.0260 C   0  0  0  0  0  0  0  0  0  0  0  0
   34.6840   30.1240   46.7450 C   0  0  0  0  0  0  0  0  0  0  0  0
   35.5250   30.2660   45.7000 N   0  0  0  0  0  0  0  0  0  0  0  0
   38.4930   30.5070   47.1970 H   0  0  0  0  0  0  0  0  0  0  0  0
   37.0930   30.2580   49.1670 H   0  0  0  0  0  0  0  0  0  0  0  0
   34.6040   30.0080   48.8750 H   0  0  0  0  0  0  0  0  0  0  0  0
   33.2530   29.9820   46.5350 C   0  0  0  0  0  0  0  0  0  0  0  0
   32.4290   30.5880   45.6180 N   0  0  0  0  0  0  0  0  0  0  0  0
   31.1690   30.1300   45.8190 C   0  0  0  0  0  0  0  0  0  0  0  0
   31.2020   29.2400   46.8580 N   0  0  0  0  0  0  0  0  0  0  0  0
   32.4680   29.1570   47.2850 N   0  0  0  0  0  0  0  0  0  0  0  0
   30.2940   30.4430   45.2280 H   0  0  0  0  0  0  0  0  0  0  0  0
   30.0910   28.5360   47.3830 C   0  0  0  0  0  0  0  0  0  0  0  0
   30.3490   27.9360   48.5620 N   0  0  0  0  0  0  0  0  0  0  0  0
   29.3800   27.2170   49.1980 C   0  0  0  0  0  3  0  0  0  0  0  0
   28.1420   27.0990   48.6470 N   0  0  0  0  0  0  0  0  0  0  0  0
   27.8580   27.6900   47.4650 C   0  0  0  0  0  0  0  0  0  0  0  0
   26.6090   27.5960   46.8630 C   0  0  0  0  0  3  0  0  0  0  0  0
   26.3760   28.2180   45.6610 C   0  0  0  0  0  0  0  0  0  0  0  0
   25.3820   28.1230   45.2190 H   0  0  0  0  0  0  0  0  0  0  0  0
   27.3880   28.9350   45.0550 C   0  0  0  0  0  0  0  0  0  0  0  0
   27.1630   29.4140   44.1000 H   0  0  0  0  0  0  0  0  0  0  0  0
   28.6560   29.0570   45.6200 C   0  0  0  0  0  3  0  0  0  0  0  0
   28.8290   28.4180   46.8140 C   0  0  0  0  0  0  0  0  0  0  0  0
   37.6970   30.5540   44.5770 C   0  0  0  0  0  0  0  0  0  0  0  0
   37.6790   29.4730   43.5780 C   0  0  0  0  0  0  0  0  0  0  0  0
   36.9780   30.7730   43.2780 C   0  0  0  0  0  0  0  0  0  0  0  0
   38.6130   29.3060   42.9700 H   0  0  0  0  0  0  0  0  0  0  0  0
   37.0740   28.5720   43.7360 H   0  0  0  0  0  0  0  0  0  0  0  0
   37.4550   31.4700   42.5580 H   0  0  0  0  0  0  0  0  0  0  0  0
   35.8800   30.7340   43.2770 H   0  0  0  0  0  0  0  0  0  0  0  0
   39.9100   33.4930   44.9860 C   0  0  0  0  0  0  0  0  0  0  0  0
   41.1430   32.9100   45.2970 C   0  0  0  0  0  0  0  0  0  0  0  0
   41.2070   31.5050   45.3650 C   0  0  0  0  0  0  0  0  0  0  0  0
   40.0830   30.7850   45.1280 N   0  0  0  0  0  0  0  0  0  0  0  0
   38.9030   31.3890   44.8280 C   0  0  0  0  0  0  0  0  0  0  0  0
   38.8200   32.7210   44.7590 N   0  0  0  0  0  0  0  0  0  0  0  0
   39.8310   34.5710   44.9270 H   0  0  0  0  0  0  0  0  0  0  0  0
   42.0110   33.5210   45.4790 H   0  0  0  0  0  0  0  0  0  0  0  0
   42.1500   31.0150   45.6060 H   0  0  0  0  0  0  0  0  0  0  0  0
  1  2  1  0  0  0  0
  2  7  1  0  0  0  0
  2  3  2  0  0  0  0
  3  8  1  0  0  0  0
  4  3  1  0  0  0  0
  4  9  1  0  0  0  0
  5  4  2  0  0  0  0
  6  1  2  0  0  0  0
  6  5  1  0  0  0  0
 10  5  1  0  0  0  0
 10 14  2  0  0  0  0
 11 12  2  0  0  0  0
 11 10  1  0  0  0  0
 12 13  1  0  0  0  0
 13 14  1  0  0  0  0
 13 16  1  0  0  0  0
 15 12  1  0  0  0  0
 16 17  1  0  0  0  0
 17 18  2  0  0  0  0
 19 18  1  0  0  0  0
 20 19  2  0  0  0  0
 21 20  1  0  0  0  0
 22 21  2  0  0  0  0
 23 22  1  0  0  0  0
 24 26  2  0  0  0  0
 24 22  1  0  0  0  0
 25 24  1  0  0  0  0
 26 27  1  0  0  0  0
 27 16  2  0  0  0  0
 27 20  1  0  0  0  0
 28 39  1  0  0  0  0
 28  1  1  0  0  0  0
 29 32  1  0  0  0  0
 29 28  1  0  0  0  0
 30 29  1  0  0  0  0
 30 28  1  0  0  0  0
 31 29  1  0  0  0  0
 33 30  1  0  0  0  0
 34 30  1  0  0  0  0
 35 36  1  0  0  0  0
 36 37  2  0  0  0  0
 36 42  1  0  0  0  0
 37 43  1  0  0  0  0
 38 37  1  0  0  0  0
 39 38  2  0  0  0  0
 40 39  1  0  0  0  0
 40 35  2  0  0  0  0
 41 35  1  0  0  0  0
M  END
>  <minimizedAffinity>
-5.95817423

>  <minimizedRMSD>
2.03069472

$$$$
