
 OpenBabel03272509583D

 49 53  0  0  0  0  0  0  0  0999 V2000
   33.3010   27.5110   47.8630 C   0  0  0  0  0  0  0  0  0  0  0  0
   33.5860   27.2580   46.8080 H   0  0  0  0  0  0  0  0  0  0  0  0
   33.3880   26.5920   48.4440 H   0  0  0  0  0  0  0  0  0  0  0  0
   31.8700   27.9260   47.8210 C   0  0  0  0  0  0  0  0  0  0  0  0
   31.0760   27.6060   48.9050 C   0  0  0  0  0  0  0  0  0  0  0  0
   29.7520   27.9540   48.9360 C   0  0  0  0  0  0  0  0  0  0  0  0
   29.2130   28.6110   47.9090 N   0  0  0  0  0  0  0  0  0  0  0  0
   30.0040   28.9240   46.8380 C   0  0  0  0  0  0  0  0  0  0  0  0
   31.2920   28.5840   46.8130 N   0  0  0  0  0  0  0  0  0  0  0  0
   31.4470   27.0800   49.7620 H   0  0  0  0  0  0  0  0  0  0  0  0
   29.0780   27.7300   49.7630 H   0  0  0  0  0  0  0  0  0  0  0  0
   29.3420   29.6660   45.7360 C   0  0  0  0  0  0  0  0  0  0  0  0
   30.0740   30.1000   45.0240 H   0  0  0  0  0  0  0  0  0  0  0  0
   28.8090   30.5350   46.1640 H   0  0  0  0  0  0  0  0  0  0  0  0
   28.3420   28.8060   45.0610 C   0  0  0  0  0  0  0  0  0  0  0  0
   28.5210   27.4540   45.1560 N   0  0  0  0  0  0  0  0  0  0  0  0
   27.7270   26.5560   44.5630 C   0  0  0  0  0  3  0  0  0  0  0  0
   26.6740   26.9220   43.8150 N   0  0  0  0  0  0  0  0  0  0  0  0
   26.4510   28.2620   43.6900 C   0  0  0  0  0  0  0  0  0  0  0  0
   25.3800   28.7230   42.9490 C   0  0  0  0  0  3  0  0  0  0  0  0
   25.1360   30.0710   42.8250 C   0  0  0  0  0  0  0  0  0  0  0  0
   24.2730   30.3240   42.2230 H   0  0  0  0  0  0  0  0  0  0  0  0
   25.9830   30.9830   43.4590 C   0  0  0  0  0  0  0  0  0  0  0  0
   25.7390   32.0310   43.3280 H   0  0  0  0  0  0  0  0  0  0  0  0
   27.0490   30.5390   44.1960 C   0  0  0  0  0  3  0  0  0  0  0  0
   27.2600   29.1870   44.2950 C   0  0  0  0  0  0  0  0  0  0  0  0
   34.2140   28.6120   48.3070 C   0  0  0  0  0  0  0  0  0  0  0  0
   34.9490   28.9240   47.5380 H   0  0  0  0  0  0  0  0  0  0  0  0
   33.5970   29.4820   48.5600 H   0  0  0  0  0  0  0  0  0  0  0  0
   34.9640   28.2070   49.4540 O   0  0  0  0  0  0  0  0  0  0  0  0
   37.2360   30.1590   51.4880 C   0  0  0  0  0  0  0  0  0  0  0  0
   37.9650   30.8300   50.4730 C   0  0  0  0  0  0  0  0  0  0  0  0
   37.6230   30.5650   49.1570 C   0  0  0  0  0  0  0  0  0  0  0  0
   36.6070   29.6710   48.9520 N   0  0  0  0  0  0  0  0  0  0  0  0
   35.9280   29.0460   49.9180 C   0  0  0  0  0  0  0  0  0  0  0  0
   36.2590   29.3030   51.2120 N   0  0  0  0  0  0  0  0  0  0  0  0
   37.5280   30.3900   52.5070 H   0  0  0  0  0  0  0  0  0  0  0  0
   38.7530   31.5210   50.6460 H   0  0  0  0  0  0  0  0  0  0  0  0
   39.0110   33.0980   48.9540 F   0  0  0  0  0  0  0  0  0  0  0  0
   38.8980   32.3260   47.8820 C   0  0  0  0  0  0  0  0  0  0  0  0
   38.2490   31.1510   48.0020 C   0  0  0  0  0  0  0  0  0  0  0  0
   38.1930   30.4200   46.8030 C   0  0  0  0  0  0  0  0  0  0  0  0
   38.7440   30.8660   45.6350 C   0  0  0  0  0  0  0  0  0  0  0  0
   39.3960   32.0780   45.5750 C   0  0  0  0  0  0  0  0  0  0  0  0
   39.4650   32.8070   46.7250 C   0  0  0  0  0  0  0  0  0  0  0  0
   37.6910   29.4520   46.7830 H   0  0  0  0  0  0  0  0  0  0  0  0
   38.6670   30.2500   44.7320 H   0  0  0  0  0  0  0  0  0  0  0  0
   39.8230   32.4030   44.6290 H   0  0  0  0  0  0  0  0  0  0  0  0
   39.9750   33.7620   46.6870 H   0  0  0  0  0  0  0  0  0  0  0  0
  1 27  1  0  0  0  0
  1  3  1  0  0  0  0
  2  1  1  0  0  0  0
  4  1  1  0  0  0  0
  4  5  1  0  0  0  0
  5  6  2  0  0  0  0
  5 10  1  0  0  0  0
  6 11  1  0  0  0  0
  7  6  1  0  0  0  0
  8  7  2  0  0  0  0
  9  8  1  0  0  0  0
  9  4  2  0  0  0  0
 12 14  1  0  0  0  0
 12  8  1  0  0  0  0
 13 12  1  0  0  0  0
 15 16  1  0  0  0  0
 15 12  1  0  0  0  0
 17 16  2  0  0  0  0
 18 17  1  0  0  0  0
 19 18  2  0  0  0  0
 19 26  1  0  0  0  0
 20 19  1  0  0  0  0
 21 20  2  0  0  0  0
 21 23  1  0  0  0  0
 22 21  1  0  0  0  0
 23 25  2  0  0  0  0
 24 23  1  0  0  0  0
 25 26  1  0  0  0  0
 26 15  2  0  0  0  0
 27 29  1  0  0  0  0
 27 30  1  0  0  0  0
 28 27  1  0  0  0  0
 30 35  1  0  0  0  0
 31 37  1  0  0  0  0
 32 38  1  0  0  0  0
 32 31  2  0  0  0  0
 33 32  1  0  0  0  0
 34 33  2  0  0  0  0
 34 35  1  0  0  0  0
 35 36  2  0  0  0  0
 36 31  1  0  0  0  0
 40 41  1  0  0  0  0
 40 39  1  0  0  0  0
 41 33  1  0  0  0  0
 42 41  2  0  0  0  0
 43 42  1  0  0  0  0
 44 43  2  0  0  0  0
 44 45  1  0  0  0  0
 45 40  2  0  0  0  0
 46 42  1  0  0  0  0
 47 43  1  0  0  0  0
 48 44  1  0  0  0  0
 49 45  1  0  0  0  0
M  END
>  <minimizedAffinity>
-7.06231499

>  <minimizedRMSD>
0.747891486

$$$$
