
 OpenBabel03272509583D

 49 53  0  0  0  0  0  0  0  0999 V2000
   33.1370   27.8980   47.4410 C   0  0  0  0  0  0  0  0  0  0  0  0
   33.1700   28.1020   46.3390 H   0  0  0  0  0  0  0  0  0  0  0  0
   33.4600   26.8650   47.5810 H   0  0  0  0  0  0  0  0  0  0  0  0
   31.7080   28.0210   47.8470 C   0  0  0  0  0  0  0  0  0  0  0  0
   31.3290   27.4520   49.0460 C   0  0  0  0  0  0  0  0  0  0  0  0
   30.0330   27.5230   49.4830 C   0  0  0  0  0  0  0  0  0  0  0  0
   29.1170   28.1500   48.7440 N   0  0  0  0  0  0  0  0  0  0  0  0
   29.4980   28.7100   47.5550 C   0  0  0  0  0  0  0  0  0  0  0  0
   30.7600   28.6370   47.1370 N   0  0  0  0  0  0  0  0  0  0  0  0
   32.0160   26.9350   49.6880 H   0  0  0  0  0  0  0  0  0  0  0  0
   29.6760   27.0950   50.4200 H   0  0  0  0  0  0  0  0  0  0  0  0
   28.4300   29.4010   46.7910 C   0  0  0  0  0  0  0  0  0  0  0  0
   28.6270   30.4880   46.6850 H   0  0  0  0  0  0  0  0  0  0  0  0
   27.4860   29.3360   47.3620 H   0  0  0  0  0  0  0  0  0  0  0  0
   28.2180   28.7370   45.4830 C   0  0  0  0  0  0  0  0  0  0  0  0
   27.7010   27.4710   45.5070 N   0  0  0  0  0  0  0  0  0  0  0  0
   27.4960   26.7320   44.4120 C   0  0  0  0  0  3  0  0  0  0  0  0
   27.7870   27.1870   43.1820 N   0  0  0  0  0  0  0  0  0  0  0  0
   28.3040   28.4460   43.1050 C   0  0  0  0  0  0  0  0  0  0  0  0
   28.6190   28.9950   41.8760 C   0  0  0  0  0  3  0  0  0  0  0  0
   29.1290   30.2680   41.7820 C   0  0  0  0  0  0  0  0  0  0  0  0
   29.3410   30.6000   40.7730 H   0  0  0  0  0  0  0  0  0  0  0  0
   29.3300   31.0150   42.9450 C   0  0  0  0  0  0  0  0  0  0  0  0
   29.7310   32.0120   42.8080 H   0  0  0  0  0  0  0  0  0  0  0  0
   29.0220   30.4830   44.1690 C   0  0  0  0  0  3  0  0  0  0  0  0
   28.5170   29.2090   44.2220 C   0  0  0  0  0  0  0  0  0  0  0  0
   34.0180   28.9140   48.0980 C   0  0  0  0  0  0  0  0  0  0  0  0
   34.7850   29.3470   47.4250 H   0  0  0  0  0  0  0  0  0  0  0  0
   33.3820   29.7320   48.4580 H   0  0  0  0  0  0  0  0  0  0  0  0
   34.7180   28.3320   49.2000 O   0  0  0  0  0  0  0  0  0  0  0  0
   36.9900   29.9230   51.5280 C   0  0  0  0  0  0  0  0  0  0  0  0
   37.7960   30.6620   50.6240 C   0  0  0  0  0  0  0  0  0  0  0  0
   37.5010   30.5620   49.2750 C   0  0  0  0  0  0  0  0  0  0  0  0
   36.4510   29.7520   48.9310 N   0  0  0  0  0  0  0  0  0  0  0  0
   35.7000   29.0610   49.7930 C   0  0  0  0  0  0  0  0  0  0  0  0
   35.9860   29.1570   51.1190 N   0  0  0  0  0  0  0  0  0  0  0  0
   37.2470   30.0240   52.5770 H   0  0  0  0  0  0  0  0  0  0  0  0
   38.6080   31.2860   50.9050 H   0  0  0  0  0  0  0  0  0  0  0  0
   38.7300   33.1830   49.3210 F   0  0  0  0  0  0  0  0  0  0  0  0
   38.7840   32.4550   48.2150 C   0  0  0  0  0  0  0  0  0  0  0  0
   38.2050   31.2380   48.2180 C   0  0  0  0  0  0  0  0  0  0  0  0
   38.3250   30.5600   46.9920 C   0  0  0  0  0  0  0  0  0  0  0  0
   38.9670   31.0920   45.9090 C   0  0  0  0  0  0  0  0  0  0  0  0
   39.5390   32.3430   45.9680 C   0  0  0  0  0  0  0  0  0  0  0  0
   39.4370   33.0220   47.1460 C   0  0  0  0  0  0  0  0  0  0  0  0
   37.8940   29.5650   46.8810 H   0  0  0  0  0  0  0  0  0  0  0  0
   39.0270   30.5140   44.9810 H   0  0  0  0  0  0  0  0  0  0  0  0
   40.0420   32.7360   45.0880 H   0  0  0  0  0  0  0  0  0  0  0  0
   39.8840   34.0080   47.2010 H   0  0  0  0  0  0  0  0  0  0  0  0
  1  3  1  0  0  0  0
  1  4  1  0  0  0  0
  1 27  1  0  0  0  0
  2  1  1  0  0  0  0
  4  5  1  0  0  0  0
  5  6  2  0  0  0  0
  5 10  1  0  0  0  0
  6 11  1  0  0  0  0
  7  6  1  0  0  0  0
  8  7  2  0  0  0  0
  9  8  1  0  0  0  0
  9  4  2  0  0  0  0
 12 14  1  0  0  0  0
 12  8  1  0  0  0  0
 13 12  1  0  0  0  0
 15 16  1  0  0  0  0
 15 12  1  0  0  0  0
 17 16  2  0  0  0  0
 18 17  1  0  0  0  0
 19 18  2  0  0  0  0
 19 26  1  0  0  0  0
 20 19  1  0  0  0  0
 21 20  2  0  0  0  0
 21 23  1  0  0  0  0
 22 21  1  0  0  0  0
 23 25  2  0  0  0  0
 24 23  1  0  0  0  0
 25 26  1  0  0  0  0
 26 15  2  0  0  0  0
 27 29  1  0  0  0  0
 27 30  1  0  0  0  0
 28 27  1  0  0  0  0
 30 35  1  0  0  0  0
 31 37  1  0  0  0  0
 32 38  1  0  0  0  0
 32 31  2  0  0  0  0
 33 32  1  0  0  0  0
 34 33  2  0  0  0  0
 34 35  1  0  0  0  0
 35 36  2  0  0  0  0
 36 31  1  0  0  0  0
 40 41  1  0  0  0  0
 40 39  1  0  0  0  0
 41 33  1  0  0  0  0
 42 41  2  0  0  0  0
 43 44  2  0  0  0  0
 43 42  1  0  0  0  0
 44 45  1  0  0  0  0
 45 49  1  0  0  0  0
 45 40  2  0  0  0  0
 46 42  1  0  0  0  0
 47 43  1  0  0  0  0
 48 44  1  0  0  0  0
M  END
>  <minimizedAffinity>
-6.4387393

>  <minimizedRMSD>
0.904307961

$$$$
