
 OpenBabel03272504413D

 48 51  0  0  0  0  0  0  0  0999 V2000
   34.6320   29.4520   48.8730 C   0  0  0  0  0  0  0  0  0  0  0  0
   35.4950   29.5500   49.5690 H   0  0  0  0  0  0  0  0  0  0  0  0
   33.9320   30.2640   49.2300 H   0  0  0  0  0  0  0  0  0  0  0  0
   37.4000   30.5300   48.6620 Cl  0  0  0  0  0  0  0  0  0  0  0  0
   36.3120   30.3230   47.2870 C   0  0  0  0  0  0  0  0  0  0  0  0
   36.7400   30.6690   46.0530 C   0  0  0  0  0  0  0  0  0  0  0  0
   35.9000   30.5150   44.9700 C   0  0  0  0  0  0  0  0  0  0  0  0
   34.6230   30.0010   45.1750 C   0  0  0  0  0  0  0  0  0  0  0  0
   34.2530   29.6640   46.4920 C   0  0  0  0  0  0  0  0  0  0  0  0
   35.0630   29.8110   47.5550 C   0  0  0  0  0  0  0  0  0  0  0  0
   36.2680   30.8010   43.9770 H   0  0  0  0  0  0  0  0  0  0  0  0
   34.0550   29.9220   44.2730 H   0  0  0  0  0  0  0  0  0  0  0  0
   33.2860   29.3110   46.4320 H   0  0  0  0  0  0  0  0  0  0  0  0
   39.7430   32.7980   46.2470 C   0  0  0  0  0  0  0  0  0  0  0  0
   40.6190   32.1030   45.3410 C   0  0  0  0  0  0  0  0  0  0  0  0
   40.1360   30.9460   44.7150 C   0  0  0  0  0  0  0  0  0  0  0  0
   38.8730   30.5310   44.9860 N   0  0  0  0  0  0  0  0  0  0  0  0
   38.0730   31.2080   45.8420 C   0  0  0  0  0  0  0  0  0  0  0  0
   38.5100   32.3200   46.4570 N   0  0  0  0  0  0  0  0  0  0  0  0
   40.0850   33.6800   46.7360 H   0  0  0  0  0  0  0  0  0  0  0  0
   41.5790   32.5460   45.2290 H   0  0  0  0  0  0  0  0  0  0  0  0
   41.0200   30.3000   43.8430 N   0  0  0  0  0  0  0  0  0  0  0  0
   41.5250   29.3960   44.0360 H   0  0  0  0  0  0  0  0  0  0  0  0
   41.1380   30.8190   42.9500 H   0  0  0  0  0  0  0  0  0  0  0  0
   34.0110   28.1450   49.1130 C   0  0  0  0  0  0  0  0  0  0  0  0
   34.4700   27.5800   49.9780 H   0  0  0  0  0  0  0  0  0  0  0  0
   34.2130   27.4930   48.2330 H   0  0  0  0  0  0  0  0  0  0  0  0
   32.6610   28.2630   49.3120 O   0  0  0  0  0  0  0  0  0  0  0  0
   32.7400   26.3100   47.5650 O   0  0  0  0  0  0  0  0  0  0  0  0
   31.8230   27.2840   48.2630 P   0  0  2  0  0  0  0  0  0  0  0  0
   31.0970   28.3260   47.0840 O   0  0  0  0  0  0  0  0  0  0  0  0
   30.2800   27.7230   46.1350 C   0  0  0  0  0  0  0  0  0  0  0  0
   30.5150   26.5650   45.4910 N   0  0  0  0  0  0  0  0  0  0  0  0
   29.6280   26.1230   44.6060 C   0  0  0  0  0  3  0  0  0  0  0  0
   28.4920   26.7900   44.3200 N   0  0  0  0  0  0  0  0  0  0  0  0
   28.2010   27.9570   44.9330 C   0  0  0  0  0  0  0  0  0  0  0  0
   27.0320   28.6190   44.6210 C   0  0  0  0  0  3  0  0  0  0  0  0
   26.7690   29.8050   45.2660 C   0  0  0  0  0  0  0  0  0  0  0  0
   25.8850   30.4270   45.1150 H   0  0  0  0  0  0  0  0  0  0  0  0
   27.6430   30.3260   46.1970 C   0  0  0  0  0  0  0  0  0  0  0  0
   27.4780   31.2480   46.7230 H   0  0  0  0  0  0  0  0  0  0  0  0
   28.8040   29.6380   46.4840 C   0  0  0  0  0  3  0  0  0  0  0  0
   29.1170   28.4460   45.8700 C   0  0  0  0  0  0  0  0  0  0  0  0
   30.5700   26.4670   48.9700 O   0  0  0  0  0  0  0  0  0  0  0  0
   29.8270   27.3000   49.7730 C   0  0  0  0  0  0  0  0  0  0  0  0
   29.3630   26.6590   50.9200 F   0  0  0  0  0  0  0  0  0  0  0  0
   30.5740   28.3760   50.2250 F   0  0  0  0  0  0  0  0  0  0  0  0
   28.7320   27.7710   49.0660 F   0  0  0  0  0  0  0  0  0  0  0  0
  1 25  1  0  0  0  0
  1  3  1  0  0  0  0
  1  2  1  0  0  0  0
  5 10  1  0  0  0  0
  5  4  1  0  0  0  0
  6  5  2  0  0  0  0
  7  8  2  0  0  0  0
  7  6  1  0  0  0  0
  8  9  1  0  0  0  0
  9 10  2  0  0  0  0
 10  1  1  0  0  0  0
 11  7  1  0  0  0  0
 12  8  1  0  0  0  0
 13  9  1  0  0  0  0
 14 19  1  0  0  0  0
 14 20  1  0  0  0  0
 15 14  2  0  0  0  0
 16 17  2  0  0  0  0
 16 15  1  0  0  0  0
 17 18  1  0  0  0  0
 18  6  1  0  0  0  0
 18 19  2  0  0  0  0
 21 15  1  0  0  0  0
 22 23  1  0  0  0  0
 22 16  1  0  0  0  0
 24 22  1  0  0  0  0
 25 28  1  0  0  0  0
 25 26  1  0  0  0  0
 27 25  1  0  0  0  0
 30 29  2  6  0  0  0
 30 44  1  0  0  0  0
 30 28  1  0  0  0  0
 31 30  1  0  0  0  0
 32 31  1  0  0  0  0
 33 32  2  0  0  0  0
 34 33  1  0  0  0  0
 35 34  2  0  0  0  0
 35 36  1  0  0  0  0
 36 43  1  0  0  0  0
 37 36  2  0  0  0  0
 37 38  1  0  0  0  0
 38 40  2  0  0  0  0
 39 38  1  0  0  0  0
 40 42  1  0  0  0  0
 40 41  1  0  0  0  0
 43 32  1  0  0  0  0
 43 42  2  0  0  0  0
 44 45  1  0  0  0  0
 45 47  1  0  0  0  0
 45 46  1  0  0  0  0
 48 45  1  0  0  0  0
M  END
>  <minimizedAffinity>
-6.28030872

>  <minimizedRMSD>
0.882156193

$$$$
