
 OpenBabel03272503303D

 37 40  0  0  1  0  0  0  0  0999 V2000
   34.5030   29.2110   48.1120 C   0  0  0  0  0  0  0  0  0  0  0  0
   34.1860   30.0480   47.0270 C   0  0  0  0  0  0  0  0  0  0  0  0
   32.9590   29.8370   46.4050 C   0  0  0  0  0  0  0  0  0  0  0  0
   32.1540   28.8350   46.8930 N   0  0  0  0  0  0  0  0  0  0  0  0
   32.4940   28.0670   47.9250 C   0  0  0  0  0  0  0  0  0  0  0  0
   33.6720   28.2550   48.5370 N   0  0  0  0  0  0  0  0  0  0  0  0
   34.8600   30.8230   46.6850 H   0  0  0  0  0  0  0  0  0  0  0  0
   32.6470   30.4380   45.5670 H   0  0  0  0  0  0  0  0  0  0  0  0
   35.7690   29.4320   48.7490 N   0  0  0  0  0  0  0  0  0  0  0  0
   36.8820   30.1730   48.2360 C   0  0  0  0  0  0  0  0  0  0  0  0
   37.5680   30.6620   49.5030 C   0  0  2  0  0  0  0  0  0  0  0  0
   36.6900   30.2250   50.6510 C   0  0  0  0  0  0  0  0  0  0  0  0
   36.1530   28.9360   50.0530 C   0  0  0  0  0  0  0  0  0  0  0  0
   36.5790   31.0360   47.6170 H   0  0  0  0  0  0  0  0  0  0  0  0
   37.5360   29.5200   47.6310 H   0  0  0  0  0  0  0  0  0  0  0  0
   38.5360   30.1420   49.5830 H   0  0  0  0  0  0  0  0  0  0  0  0
   35.8880   30.9200   50.9040 H   0  0  0  0  0  0  0  0  0  0  0  0
   37.3460   29.9310   51.4920 H   0  0  0  0  0  0  0  0  0  0  0  0
   35.2630   28.6470   50.6540 H   0  0  0  0  0  0  0  0  0  0  0  0
   36.9400   28.1660   50.0280 H   0  0  0  0  0  0  0  0  0  0  0  0
   37.8070   32.1470   49.4920 C   0  0  0  0  0  0  0  0  0  0  0  0
   36.7060   32.7280   50.1100 F   0  0  0  0  0  0  0  0  0  0  0  0
   37.7660   32.5610   48.1760 F   0  0  0  0  0  0  0  0  0  0  0  0
   38.9860   32.5100   50.0730 F   0  0  0  0  0  0  0  0  0  0  0  0
   31.4010   26.7830   48.5060 S   0  0  0  0  0  0  0  0  0  0  0  0
   29.7800   27.0670   47.8130 C   0  0  0  0  0  0  0  0  0  0  0  0
   29.5720   26.4130   46.6430 N   0  0  0  0  0  0  0  0  0  0  0  0
   28.3960   26.5210   45.9880 C   0  0  0  0  0  3  0  0  0  0  0  0
   27.4150   27.2840   46.4940 N   0  0  0  0  0  0  0  0  0  0  0  0
   27.5850   27.9580   47.6680 C   0  0  0  0  0  0  0  0  0  0  0  0
   26.6100   28.7640   48.2430 C   0  0  0  0  0  3  0  0  0  0  0  0
   26.8870   29.4070   49.4420 C   0  0  0  0  0  0  0  0  0  0  0  0
   26.0530   30.0000   49.7850 H   0  0  0  0  0  0  0  0  0  0  0  0
   28.0970   29.2760   50.0870 C   0  0  0  0  0  0  0  0  0  0  0  0
   28.2470   29.7990   51.0090 H   0  0  0  0  0  0  0  0  0  0  0  0
   29.0940   28.4750   49.5330 C   0  0  0  0  0  3  0  0  0  0  0  0
   28.7830   27.8530   48.3430 C   0  0  0  0  0  0  0  0  0  0  0  0
  1  6  1  0  0  0  0
  1  9  1  0  0  0  0
  2  1  2  0  0  0  0
  3  4  2  0  0  0  0
  3  2  1  0  0  0  0
  4  5  1  0  0  0  0
  5 25  1  0  0  0  0
  5  6  2  0  0  0  0
  7  2  1  0  0  0  0
  8  3  1  0  0  0  0
  9 13  1  0  0  0  0
 10  9  1  0  0  0  0
 10 11  1  0  0  0  0
 11 16  1  1  0  0  0
 11 12  1  0  0  0  0
 12 17  1  0  0  0  0
 12 18  1  0  0  0  0
 13 12  1  0  0  0  0
 13 19  1  0  0  0  0
 14 10  1  0  0  0  0
 15 10  1  0  0  0  0
 20 13  1  0  0  0  0
 21 11  1  0  0  0  0
 21 24  1  0  0  0  0
 21 22  1  0  0  0  0
 23 21  1  0  0  0  0
 26 37  1  0  0  0  0
 26 25  1  0  0  0  0
 27 26  2  0  0  0  0
 28 29  2  0  0  0  0
 28 27  1  0  0  0  0
 29 30  1  0  0  0  0
 30 31  2  0  0  0  0
 30 37  1  0  0  0  0
 31 32  1  0  0  0  0
 32 33  1  0  0  0  0
 32 34  2  0  0  0  0
 34 35  1  0  0  0  0
 36 34  1  0  0  0  0
 37 36  2  0  0  0  0
M  END
>  <minimizedAffinity>
-6.92849207

>  <minimizedRMSD>
1.41071534

$$$$
