
 OpenBabel03272509573D

 49 53  0  0  0  0  0  0  0  0999 V2000
   33.5900   27.5140   47.7090 C   0  0  0  0  0  0  0  0  0  0  0  0
   33.8450   27.3180   46.6350 H   0  0  0  0  0  0  0  0  0  0  0  0
   33.7350   26.5750   48.2460 H   0  0  0  0  0  0  0  0  0  0  0  0
   32.1440   27.8740   47.7380 C   0  0  0  0  0  0  0  0  0  0  0  0
   31.3900   27.4200   48.8010 C   0  0  0  0  0  0  0  0  0  0  0  0
   30.0540   27.7100   48.8940 C   0  0  0  0  0  0  0  0  0  0  0  0
   29.4670   28.4410   47.9460 N   0  0  0  0  0  0  0  0  0  0  0  0
   30.2190   28.8870   46.8950 C   0  0  0  0  0  0  0  0  0  0  0  0
   31.5170   28.6020   46.8110 N   0  0  0  0  0  0  0  0  0  0  0  0
   31.8010   26.8280   49.5960 H   0  0  0  0  0  0  0  0  0  0  0  0
   29.4100   27.3800   49.7080 H   0  0  0  0  0  0  0  0  0  0  0  0
   29.5030   29.7050   45.8850 C   0  0  0  0  0  0  0  0  0  0  0  0
   30.1970   30.1750   45.1580 H   0  0  0  0  0  0  0  0  0  0  0  0
   29.0100   30.5510   46.3980 H   0  0  0  0  0  0  0  0  0  0  0  0
   28.4510   28.9000   45.2180 C   0  0  0  0  0  0  0  0  0  0  0  0
   27.1940   28.9600   45.7540 N   0  0  0  0  0  0  0  0  0  0  0  0
   26.1550   28.2570   45.2900 C   0  0  0  0  0  3  0  0  0  0  0  0
   26.2710   27.4240   44.2420 N   0  0  0  0  0  0  0  0  0  0  0  0
   27.5070   27.3320   43.6720 C   0  0  0  0  0  0  0  0  0  0  0  0
   27.7090   26.5070   42.5810 C   0  0  0  0  0  3  0  0  0  0  0  0
   28.9470   26.4140   41.9870 C   0  0  0  0  0  0  0  0  0  0  0  0
   28.9950   25.7410   41.1400 H   0  0  0  0  0  0  0  0  0  0  0  0
   30.0100   27.1630   42.4950 C   0  0  0  0  0  0  0  0  0  0  0  0
   30.9580   27.0510   41.9850 H   0  0  0  0  0  0  0  0  0  0  0  0
   29.8220   27.9820   43.5760 C   0  0  0  0  0  3  0  0  0  0  0  0
   28.5750   28.0490   44.1420 C   0  0  0  0  0  0  0  0  0  0  0  0
   34.4780   28.6300   48.1690 C   0  0  0  0  0  0  0  0  0  0  0  0
   35.3470   28.8150   47.5060 H   0  0  0  0  0  0  0  0  0  0  0  0
   33.8770   29.5460   48.2060 H   0  0  0  0  0  0  0  0  0  0  0  0
   35.0020   28.3490   49.4680 O   0  0  0  0  0  0  0  0  0  0  0  0
   37.3440   30.1800   51.5360 C   0  0  0  0  0  0  0  0  0  0  0  0
   38.0740   30.8700   50.5350 C   0  0  0  0  0  0  0  0  0  0  0  0
   37.7090   30.6570   49.2160 C   0  0  0  0  0  0  0  0  0  0  0  0
   36.6700   29.7940   48.9940 N   0  0  0  0  0  0  0  0  0  0  0  0
   35.9910   29.1500   49.9480 C   0  0  0  0  0  0  0  0  0  0  0  0
   36.3450   29.3560   51.2450 N   0  0  0  0  0  0  0  0  0  0  0  0
   37.6540   30.3690   52.5590 H   0  0  0  0  0  0  0  0  0  0  0  0
   38.8790   31.5370   50.7210 H   0  0  0  0  0  0  0  0  0  0  0  0
   38.9420   33.2700   49.0230 F   0  0  0  0  0  0  0  0  0  0  0  0
   38.9100   32.4820   47.9580 C   0  0  0  0  0  0  0  0  0  0  0  0
   38.3320   31.2700   48.0720 C   0  0  0  0  0  0  0  0  0  0  0  0
   38.3580   30.5250   46.8810 C   0  0  0  0  0  0  0  0  0  0  0  0
   38.9160   30.9930   45.7250 C   0  0  0  0  0  0  0  0  0  0  0  0
   39.4920   32.2410   45.6700 C   0  0  0  0  0  0  0  0  0  0  0  0
   39.4820   32.9860   46.8120 C   0  0  0  0  0  0  0  0  0  0  0  0
   37.9180   29.5280   46.8580 H   0  0  0  0  0  0  0  0  0  0  0  0
   38.9050   30.3640   44.8280 H   0  0  0  0  0  0  0  0  0  0  0  0
   39.9280   32.5830   44.7340 H   0  0  0  0  0  0  0  0  0  0  0  0
   39.9320   33.9700   46.7790 H   0  0  0  0  0  0  0  0  0  0  0  0
  1  4  1  0  0  0  0
  1 27  1  0  0  0  0
  1  3  1  0  0  0  0
  2  1  1  0  0  0  0
  4  5  1  0  0  0  0
  5  6  2  0  0  0  0
  5 10  1  0  0  0  0
  6 11  1  0  0  0  0
  7  6  1  0  0  0  0
  8  7  2  0  0  0  0
  9  8  1  0  0  0  0
  9  4  2  0  0  0  0
 12 14  1  0  0  0  0
 12  8  1  0  0  0  0
 13 12  1  0  0  0  0
 15 16  1  0  0  0  0
 15 12  1  0  0  0  0
 17 16  2  0  0  0  0
 18 17  1  0  0  0  0
 19 26  1  0  0  0  0
 19 18  2  0  0  0  0
 20 19  1  0  0  0  0
 21 23  1  0  0  0  0
 21 20  2  0  0  0  0
 22 21  1  0  0  0  0
 23 25  2  0  0  0  0
 24 23  1  0  0  0  0
 25 26  1  0  0  0  0
 26 15  2  0  0  0  0
 27 29  1  0  0  0  0
 27 30  1  0  0  0  0
 28 27  1  0  0  0  0
 30 35  1  0  0  0  0
 31 37  1  0  0  0  0
 32 38  1  0  0  0  0
 32 31  2  0  0  0  0
 33 32  1  0  0  0  0
 34 33  2  0  0  0  0
 34 35  1  0  0  0  0
 35 36  2  0  0  0  0
 36 31  1  0  0  0  0
 40 41  1  0  0  0  0
 40 39  1  0  0  0  0
 41 33  1  0  0  0  0
 42 41  2  0  0  0  0
 43 42  1  0  0  0  0
 44 43  2  0  0  0  0
 44 45  1  0  0  0  0
 45 40  2  0  0  0  0
 46 42  1  0  0  0  0
 47 43  1  0  0  0  0
 48 44  1  0  0  0  0
 49 45  1  0  0  0  0
M  END
>  <minimizedAffinity>
-6.67807007

>  <minimizedRMSD>
0.742781699

$$$$
