
 OpenBabel03272503303D

 37 40  0  0  1  0  0  0  0  0999 V2000
   34.3970   29.1460   48.1190 C   0  0  0  0  0  0  0  0  0  0  0  0
   34.1390   29.9190   46.9720 C   0  0  0  0  0  0  0  0  0  0  0  0
   32.9100   29.7310   46.3480 C   0  0  0  0  0  0  0  0  0  0  0  0
   32.0450   28.8110   46.8940 N   0  0  0  0  0  0  0  0  0  0  0  0
   32.3300   28.1020   47.9820 C   0  0  0  0  0  0  0  0  0  0  0  0
   33.5100   28.2700   48.5980 N   0  0  0  0  0  0  0  0  0  0  0  0
   34.8590   30.6290   46.5860 H   0  0  0  0  0  0  0  0  0  0  0  0
   32.6410   30.2860   45.4640 H   0  0  0  0  0  0  0  0  0  0  0  0
   35.6660   29.3440   48.7580 N   0  0  0  0  0  0  0  0  0  0  0  0
   36.7900   30.0720   48.2510 C   0  0  0  0  0  0  0  0  0  0  0  0
   37.4830   30.5410   49.5230 C   0  0  2  0  0  0  0  0  0  0  0  0
   36.5980   30.1080   50.6660 C   0  0  0  0  0  0  0  0  0  0  0  0
   36.0420   28.8310   50.0580 C   0  0  0  0  0  0  0  0  0  0  0  0
   36.4990   30.9450   47.6390 H   0  0  0  0  0  0  0  0  0  0  0  0
   37.4340   29.4150   47.6410 H   0  0  0  0  0  0  0  0  0  0  0  0
   38.4430   30.0060   49.5990 H   0  0  0  0  0  0  0  0  0  0  0  0
   35.8060   30.8120   50.9250 H   0  0  0  0  0  0  0  0  0  0  0  0
   37.2490   29.7970   51.5060 H   0  0  0  0  0  0  0  0  0  0  0  0
   35.1470   28.5500   50.6560 H   0  0  0  0  0  0  0  0  0  0  0  0
   36.8180   28.0500   50.0270 H   0  0  0  0  0  0  0  0  0  0  0  0
   37.7430   32.0230   49.5240 C   0  0  0  0  0  0  0  0  0  0  0  0
   36.6530   32.6130   50.1510 F   0  0  0  0  0  0  0  0  0  0  0  0
   37.7030   32.4480   48.2120 F   0  0  0  0  0  0  0  0  0  0  0  0
   38.9290   32.3630   50.1040 F   0  0  0  0  0  0  0  0  0  0  0  0
   31.1620   26.9240   48.6360 S   0  0  0  0  0  0  0  0  0  0  0  0
   29.5770   27.2170   47.8680 C   0  0  0  0  0  0  0  0  0  0  0  0
   29.3820   26.4890   46.7400 N   0  0  0  0  0  0  0  0  0  0  0  0
   28.2330   26.5930   46.0380 C   0  0  0  0  0  3  0  0  0  0  0  0
   27.2670   27.4270   46.4530 N   0  0  0  0  0  0  0  0  0  0  0  0
   27.4240   28.1760   47.5810 C   0  0  0  0  0  0  0  0  0  0  0  0
   26.4640   29.0550   48.0640 C   0  0  0  0  0  3  0  0  0  0  0  0
   26.7250   29.7720   49.2240 C   0  0  0  0  0  0  0  0  0  0  0  0
   25.9040   30.4180   49.4960 H   0  0  0  0  0  0  0  0  0  0  0  0
   27.9080   29.6430   49.9200 C   0  0  0  0  0  0  0  0  0  0  0  0
   28.0470   30.2250   50.8080 H   0  0  0  0  0  0  0  0  0  0  0  0
   28.8900   28.7680   49.4590 C   0  0  0  0  0  3  0  0  0  0  0  0
   28.5940   28.0750   48.3050 C   0  0  0  0  0  0  0  0  0  0  0  0
  1  6  1  0  0  0  0
  1  9  1  0  0  0  0
  2  1  2  0  0  0  0
  3  4  2  0  0  0  0
  3  2  1  0  0  0  0
  4  5  1  0  0  0  0
  5  6  2  0  0  0  0
  5 25  1  0  0  0  0
  7  2  1  0  0  0  0
  8  3  1  0  0  0  0
  9 13  1  0  0  0  0
 10  9  1  0  0  0  0
 10 11  1  0  0  0  0
 11 21  1  0  0  0  0
 11 16  1  1  0  0  0
 11 12  1  0  0  0  0
 12 17  1  0  0  0  0
 12 18  1  0  0  0  0
 13 19  1  0  0  0  0
 13 12  1  0  0  0  0
 14 10  1  0  0  0  0
 15 10  1  0  0  0  0
 20 13  1  0  0  0  0
 21 24  1  0  0  0  0
 21 22  1  0  0  0  0
 23 21  1  0  0  0  0
 26 37  1  0  0  0  0
 26 25  1  0  0  0  0
 27 26  2  0  0  0  0
 28 29  2  0  0  0  0
 28 27  1  0  0  0  0
 29 30  1  0  0  0  0
 30 31  2  0  0  0  0
 30 37  1  0  0  0  0
 31 32  1  0  0  0  0
 32 33  1  0  0  0  0
 32 34  2  0  0  0  0
 34 35  1  0  0  0  0
 36 34  1  0  0  0  0
 37 36  2  0  0  0  0
M  END
>  <minimizedAffinity>
-6.92159224

>  <minimizedRMSD>
2.29484177

$$$$
