
 OpenBabel03272509473D

 28 30  0  0  0  0  0  0  0  0999 V2000
   32.4460   27.4650   48.4400 C   0  0  0  0  0  0  0  0  0  0  0  0
   32.2730   26.9860   49.4390 H   0  0  0  0  0  0  0  0  0  0  0  0
   32.7740   26.6220   47.7950 H   0  0  0  0  0  0  0  0  0  0  0  0
   31.1590   28.0440   48.0110 C   0  0  0  0  0  0  0  0  0  0  0  0
   31.0560   28.7340   46.8510 N   0  0  0  0  0  0  0  0  0  0  0  0
   29.9260   29.2560   46.3970 C   0  0  0  0  0  3  0  0  0  0  0  0
   28.7890   29.1160   47.1000 N   0  0  0  0  0  0  0  0  0  0  0  0
   28.7760   28.4540   48.2600 C   0  0  0  0  0  0  0  0  0  0  0  0
   27.5960   28.3350   48.9570 C   0  0  0  0  0  3  0  0  0  0  0  0
   27.6540   27.6450   50.1500 C   0  0  0  0  0  0  0  0  0  0  0  0
   26.7230   27.5560   50.6920 H   0  0  0  0  0  0  0  0  0  0  0  0
   28.8240   27.0890   50.6510 C   0  0  0  0  0  0  0  0  0  0  0  0
   28.7610   26.5630   51.6070 H   0  0  0  0  0  0  0  0  0  0  0  0
   29.9690   27.2480   49.8960 C   0  0  0  0  0  3  0  0  0  0  0  0
   29.9690   27.9270   48.6960 C   0  0  0  0  0  0  0  0  0  0  0  0
   33.5100   28.4900   48.6510 C   0  0  0  0  0  0  0  0  0  0  0  0
   33.0280   29.4770   48.8360 H   0  0  0  0  0  0  0  0  0  0  0  0
   34.0920   28.6190   47.7270 H   0  0  0  0  0  0  0  0  0  0  0  0
   34.3350   28.1280   49.7480 O   0  0  0  0  0  0  0  0  0  0  0  0
   36.9850   30.0170   51.3190 C   0  0  0  0  0  0  0  0  0  0  0  0
   37.6980   30.4250   50.1920 C   0  0  0  0  0  0  0  0  0  0  0  0
   37.2310   30.0270   48.9340 C   0  0  0  0  0  0  0  0  0  0  0  0
   36.0970   29.2610   48.9110 N   0  0  0  0  0  0  0  0  0  0  0  0
   35.4430   28.8920   50.0170 C   0  0  0  0  0  0  0  0  0  0  0  0
   35.9010   29.2810   51.2250 N   0  0  0  0  0  0  0  0  0  0  0  0
   37.3280   30.3140   52.3100 H   0  0  0  0  0  0  0  0  0  0  0  0
   38.5870   31.0290   50.2700 H   0  0  0  0  0  0  0  0  0  0  0  0
   37.7410   30.3100   48.0200 H   0  0  0  0  0  0  0  0  0  0  0  0
  1 16  1  0  0  0  0
  1  2  1  0  0  0  0
  3  1  1  0  0  0  0
  4  1  1  0  0  0  0
  4 15  1  0  0  0  0
  5  4  2  0  0  0  0
  6  5  1  0  0  0  0
  6  7  2  0  0  0  0
  7  8  1  0  0  0  0
  8 15  2  0  0  0  0
  8  9  1  0  0  0  0
  9 10  2  0  0  0  0
 10 12  1  0  0  0  0
 10 11  1  0  0  0  0
 12 13  1  0  0  0  0
 14 12  2  0  0  0  0
 15 14  1  0  0  0  0
 16 17  1  0  0  0  0
 16 19  1  0  0  0  0
 18 16  1  0  0  0  0
 19 24  1  0  0  0  0
 20 26  1  0  0  0  0
 21 27  1  0  0  0  0
 21 20  2  0  0  0  0
 22 21  1  0  0  0  0
 23 22  2  0  0  0  0
 23 24  1  0  0  0  0
 24 25  2  0  0  0  0
 25 20  1  0  0  0  0
 28 22  1  0  0  0  0
M  END
>  <minimizedAffinity>
-5.33463526

>  <minimizedRMSD>
3.26840115

$$$$
