
 OpenBabel03272509473D

 28 30  0  0  0  0  0  0  0  0999 V2000
   33.6360   27.7970   48.5050 C   0  0  0  0  0  0  0  0  0  0  0  0
   33.2520   27.5760   49.5340 H   0  0  0  0  0  0  0  0  0  0  0  0
   34.2400   26.9010   48.2480 H   0  0  0  0  0  0  0  0  0  0  0  0
   32.4590   27.9590   47.6310 C   0  0  0  0  0  0  0  0  0  0  0  0
   32.6000   28.2310   46.3110 N   0  0  0  0  0  0  0  0  0  0  0  0
   31.5860   28.3630   45.4700 C   0  0  0  0  0  3  0  0  0  0  0  0
   30.3230   28.2280   45.9100 N   0  0  0  0  0  0  0  0  0  0  0  0
   30.0680   27.9600   47.1930 C   0  0  0  0  0  0  0  0  0  0  0  0
   28.7640   27.8340   47.6090 C   0  0  0  0  0  3  0  0  0  0  0  0
   28.5710   27.5650   48.9490 C   0  0  0  0  0  0  0  0  0  0  0  0
   27.5410   27.4670   49.2720 H   0  0  0  0  0  0  0  0  0  0  0  0
   29.6130   27.4230   49.8560 C   0  0  0  0  0  0  0  0  0  0  0  0
   29.3520   27.2110   50.8940 H   0  0  0  0  0  0  0  0  0  0  0  0
   30.8970   27.5620   49.3640 C   0  0  0  0  0  3  0  0  0  0  0  0
   31.1480   27.8300   48.0340 C   0  0  0  0  0  0  0  0  0  0  0  0
   34.4530   29.0390   48.6260 C   0  0  0  0  0  0  0  0  0  0  0  0
   33.9060   29.7710   49.2630 H   0  0  0  0  0  0  0  0  0  0  0  0
   34.5460   29.5230   47.6420 H   0  0  0  0  0  0  0  0  0  0  0  0
   35.7230   28.7440   49.1910 O   0  0  0  0  0  0  0  0  0  0  0  0
   38.2980   31.0490   50.2440 C   0  0  0  0  0  0  0  0  0  0  0  0
   38.4160   31.8290   49.0940 C   0  0  0  0  0  0  0  0  0  0  0  0
   37.5980   31.5220   48.0000 C   0  0  0  0  0  0  0  0  0  0  0  0
   36.7370   30.4690   48.1500 N   0  0  0  0  0  0  0  0  0  0  0  0
   36.6550   29.7470   49.2720 C   0  0  0  0  0  0  0  0  0  0  0  0
   37.4470   30.0500   50.3200 N   0  0  0  0  0  0  0  0  0  0  0  0
   38.9230   31.2680   51.1100 H   0  0  0  0  0  0  0  0  0  0  0  0
   39.1130   32.6490   49.0320 H   0  0  0  0  0  0  0  0  0  0  0  0
   37.6420   32.0900   47.0770 H   0  0  0  0  0  0  0  0  0  0  0  0
  1 16  1  0  0  0  0
  1  2  1  0  0  0  0
  3  1  1  0  0  0  0
  4 15  1  0  0  0  0
  4  1  1  0  0  0  0
  5  4  2  0  0  0  0
  6  7  2  0  0  0  0
  6  5  1  0  0  0  0
  7  8  1  0  0  0  0
  8  9  2  0  0  0  0
  8 15  1  0  0  0  0
  9 10  1  0  0  0  0
 10 11  1  0  0  0  0
 10 12  2  0  0  0  0
 12 13  1  0  0  0  0
 14 12  1  0  0  0  0
 15 14  2  0  0  0  0
 16 19  1  0  0  0  0
 16 17  1  0  0  0  0
 18 16  1  0  0  0  0
 19 24  1  0  0  0  0
 20 25  1  0  0  0  0
 20 26  1  0  0  0  0
 21 20  2  0  0  0  0
 22 23  2  0  0  0  0
 22 21  1  0  0  0  0
 23 24  1  0  0  0  0
 24 25  2  0  0  0  0
 27 21  1  0  0  0  0
 28 22  1  0  0  0  0
M  END
>  <minimizedAffinity>
-4.66739368

>  <minimizedRMSD>
2.57418799

$$$$
