
 OpenBabel03272504413D

 48 51  0  0  0  0  0  0  0  0999 V2000
   34.6030   29.1780   48.8380 C   0  0  0  0  0  0  0  0  0  0  0  0
   35.5050   29.0770   49.4820 H   0  0  0  0  0  0  0  0  0  0  0  0
   34.0380   30.0220   49.3330 H   0  0  0  0  0  0  0  0  0  0  0  0
   37.3680   30.2690   48.6680 Cl  0  0  0  0  0  0  0  0  0  0  0  0
   36.2580   30.1720   47.2990 C   0  0  0  0  0  0  0  0  0  0  0  0
   36.6660   30.6140   46.0900 C   0  0  0  0  0  0  0  0  0  0  0  0
   35.8080   30.5470   45.0110 C   0  0  0  0  0  0  0  0  0  0  0  0
   34.5340   30.0190   45.1960 C   0  0  0  0  0  0  0  0  0  0  0  0
   34.1850   29.5780   46.4880 C   0  0  0  0  0  0  0  0  0  0  0  0
   35.0130   29.6400   47.5460 C   0  0  0  0  0  0  0  0  0  0  0  0
   36.1600   30.9110   44.0390 H   0  0  0  0  0  0  0  0  0  0  0  0
   33.9510   30.0110   44.3000 H   0  0  0  0  0  0  0  0  0  0  0  0
   33.2170   29.2310   46.4170 H   0  0  0  0  0  0  0  0  0  0  0  0
   39.6490   32.7650   46.3470 C   0  0  0  0  0  0  0  0  0  0  0  0
   40.5390   32.0930   45.4370 C   0  0  0  0  0  0  0  0  0  0  0  0
   40.0710   30.9440   44.7870 C   0  0  0  0  0  0  0  0  0  0  0  0
   38.8090   30.5140   45.0390 N   0  0  0  0  0  0  0  0  0  0  0  0
   37.9960   31.1680   45.9000 C   0  0  0  0  0  0  0  0  0  0  0  0
   38.4180   32.2730   46.5380 N   0  0  0  0  0  0  0  0  0  0  0  0
   39.9790   33.6420   46.8540 H   0  0  0  0  0  0  0  0  0  0  0  0
   41.4950   32.5470   45.3420 H   0  0  0  0  0  0  0  0  0  0  0  0
   40.9690   30.3210   43.9120 N   0  0  0  0  0  0  0  0  0  0  0  0
   41.4790   29.4180   44.0930 H   0  0  0  0  0  0  0  0  0  0  0  0
   41.0890   30.8570   43.0280 H   0  0  0  0  0  0  0  0  0  0  0  0
   33.8240   27.9420   48.9640 C   0  0  0  0  0  0  0  0  0  0  0  0
   34.2250   27.2340   49.7490 H   0  0  0  0  0  0  0  0  0  0  0  0
   33.9190   27.3680   48.0140 H   0  0  0  0  0  0  0  0  0  0  0  0
   32.5050   28.2080   49.2230 O   0  0  0  0  0  0  0  0  0  0  0  0
   32.2890   26.1130   47.6620 O   0  0  0  0  0  0  0  0  0  0  0  0
   31.5170   27.2400   48.3020 P   0  0  2  0  0  0  0  0  0  0  0  0
   30.8510   28.2490   47.0600 O   0  0  0  0  0  0  0  0  0  0  0  0
   29.9490   27.6540   46.1870 C   0  0  0  0  0  0  0  0  0  0  0  0
   28.6790   27.3050   46.4590 N   0  0  0  0  0  0  0  0  0  0  0  0
   27.9420   26.7420   45.5070 C   0  0  0  0  0  3  0  0  0  0  0  0
   28.4150   26.5020   44.2680 N   0  0  0  0  0  0  0  0  0  0  0  0
   29.6830   26.8310   43.9360 C   0  0  0  0  0  0  0  0  0  0  0  0
   30.1410   26.5720   42.6600 C   0  0  0  0  0  3  0  0  0  0  0  0
   31.4370   26.9210   42.3570 C   0  0  0  0  0  0  0  0  0  0  0  0
   31.9240   26.7740   41.3910 H   0  0  0  0  0  0  0  0  0  0  0  0
   32.2610   27.5100   43.2950 C   0  0  0  0  0  0  0  0  0  0  0  0
   33.2770   27.7960   43.1010 H   0  0  0  0  0  0  0  0  0  0  0  0
   31.7690   27.7520   44.5610 C   0  0  0  0  0  3  0  0  0  0  0  0
   30.4800   27.4240   44.9180 C   0  0  0  0  0  0  0  0  0  0  0  0
   30.2190   26.6330   49.1280 O   0  0  0  0  0  0  0  0  0  0  0  0
   29.6860   27.5770   49.9730 C   0  0  0  0  0  0  0  0  0  0  0  0
   29.1230   27.0110   51.1170 F   0  0  0  0  0  0  0  0  0  0  0  0
   30.6510   28.4590   50.4310 F   0  0  0  0  0  0  0  0  0  0  0  0
   28.6970   28.2870   49.3100 F   0  0  0  0  0  0  0  0  0  0  0  0
  1 25  1  0  0  0  0
  1  3  1  0  0  0  0
  1  2  1  0  0  0  0
  5 10  1  0  0  0  0
  5  4  1  0  0  0  0
  6  5  2  0  0  0  0
  7  8  2  0  0  0  0
  7  6  1  0  0  0  0
  8  9  1  0  0  0  0
  9 10  2  0  0  0  0
 10  1  1  0  0  0  0
 11  7  1  0  0  0  0
 12  8  1  0  0  0  0
 13  9  1  0  0  0  0
 14 19  1  0  0  0  0
 14 20  1  0  0  0  0
 15 14  2  0  0  0  0
 16 17  2  0  0  0  0
 16 15  1  0  0  0  0
 17 18  1  0  0  0  0
 18  6  1  0  0  0  0
 18 19  2  0  0  0  0
 21 15  1  0  0  0  0
 22 23  1  0  0  0  0
 22 16  1  0  0  0  0
 24 22  1  0  0  0  0
 25 28  1  0  0  0  0
 25 26  1  0  0  0  0
 27 25  1  0  0  0  0
 30 29  2  6  0  0  0
 30 44  1  0  0  0  0
 30 28  1  0  0  0  0
 31 30  1  0  0  0  0
 32 33  1  0  0  0  0
 32 31  1  0  0  0  0
 34 33  2  0  0  0  0
 35 34  1  0  0  0  0
 36 35  2  0  0  0  0
 36 43  1  0  0  0  0
 37 36  1  0  0  0  0
 38 37  2  0  0  0  0
 38 40  1  0  0  0  0
 39 38  1  0  0  0  0
 40 42  2  0  0  0  0
 41 40  1  0  0  0  0
 42 43  1  0  0  0  0
 43 32  2  0  0  0  0
 44 45  1  0  0  0  0
 45 47  1  0  0  0  0
 45 46  1  0  0  0  0
 48 45  1  0  0  0  0
M  END
>  <minimizedAffinity>
-5.78002501

>  <minimizedRMSD>
0.669961929

$$$$
