
 OpenBabel03272509573D

 49 53  0  0  0  0  0  0  0  0999 V2000
   33.4990   27.5250   47.6990 C   0  0  0  0  0  0  0  0  0  0  0  0
   33.7280   27.3470   46.6150 H   0  0  0  0  0  0  0  0  0  0  0  0
   33.6520   26.5760   48.2150 H   0  0  0  0  0  0  0  0  0  0  0  0
   32.0550   27.8900   47.7670 C   0  0  0  0  0  0  0  0  0  0  0  0
   31.3510   27.5170   48.8950 C   0  0  0  0  0  0  0  0  0  0  0  0
   30.0210   27.8160   49.0270 C   0  0  0  0  0  0  0  0  0  0  0  0
   29.3900   28.4770   48.0570 N   0  0  0  0  0  0  0  0  0  0  0  0
   30.0920   28.8430   46.9410 C   0  0  0  0  0  0  0  0  0  0  0  0
   31.3860   28.5500   46.8190 N   0  0  0  0  0  0  0  0  0  0  0  0
   31.8000   26.9840   49.7110 H   0  0  0  0  0  0  0  0  0  0  0  0
   29.4150   27.5480   49.8930 H   0  0  0  0  0  0  0  0  0  0  0  0
   29.3290   29.5860   45.9080 C   0  0  0  0  0  0  0  0  0  0  0  0
   29.9950   30.1260   45.2030 H   0  0  0  0  0  0  0  0  0  0  0  0
   28.7370   30.3760   46.4040 H   0  0  0  0  0  0  0  0  0  0  0  0
   28.3870   28.6800   45.2090 C   0  0  0  0  0  0  0  0  0  0  0  0
   28.6230   27.3370   45.3160 N   0  0  0  0  0  0  0  0  0  0  0  0
   27.8860   26.4030   44.7050 C   0  0  0  0  0  3  0  0  0  0  0  0
   26.8380   26.7200   43.9280 N   0  0  0  0  0  0  0  0  0  0  0  0
   26.5600   28.0480   43.7910 C   0  0  0  0  0  0  0  0  0  0  0  0
   25.4910   28.4590   43.0180 C   0  0  0  0  0  3  0  0  0  0  0  0
   25.1910   29.7950   42.8820 C   0  0  0  0  0  0  0  0  0  0  0  0
   24.3330   30.0070   42.2560 H   0  0  0  0  0  0  0  0  0  0  0  0
   25.9790   30.7460   43.5340 C   0  0  0  0  0  0  0  0  0  0  0  0
   25.6930   31.7800   43.3920 H   0  0  0  0  0  0  0  0  0  0  0  0
   27.0430   30.3510   44.3010 C   0  0  0  0  0  3  0  0  0  0  0  0
   27.3110   29.0110   44.4120 C   0  0  0  0  0  0  0  0  0  0  0  0
   34.4010   28.6300   48.1560 C   0  0  0  0  0  0  0  0  0  0  0  0
   35.2430   28.8380   47.4660 H   0  0  0  0  0  0  0  0  0  0  0  0
   33.8000   29.5430   48.2450 H   0  0  0  0  0  0  0  0  0  0  0  0
   34.9770   28.3120   49.4250 O   0  0  0  0  0  0  0  0  0  0  0  0
   37.3020   30.1660   51.4900 C   0  0  0  0  0  0  0  0  0  0  0  0
   38.0360   30.8500   50.4870 C   0  0  0  0  0  0  0  0  0  0  0  0
   37.6790   30.6260   49.1680 C   0  0  0  0  0  0  0  0  0  0  0  0
   36.6430   29.7570   48.9480 N   0  0  0  0  0  0  0  0  0  0  0  0
   35.9610   29.1190   49.9030 C   0  0  0  0  0  0  0  0  0  0  0  0
   36.3070   29.3360   51.2000 N   0  0  0  0  0  0  0  0  0  0  0  0
   37.6060   30.3640   52.5130 H   0  0  0  0  0  0  0  0  0  0  0  0
   38.8380   31.5210   50.6730 H   0  0  0  0  0  0  0  0  0  0  0  0
   38.9740   33.2090   48.9820 F   0  0  0  0  0  0  0  0  0  0  0  0
   38.9130   32.4290   47.9120 C   0  0  0  0  0  0  0  0  0  0  0  0
   38.3060   31.2310   48.0230 C   0  0  0  0  0  0  0  0  0  0  0  0
   38.3020   30.4940   46.8270 C   0  0  0  0  0  0  0  0  0  0  0  0
   38.8610   30.9570   45.6690 C   0  0  0  0  0  0  0  0  0  0  0  0
   39.4680   32.1910   45.6170 C   0  0  0  0  0  0  0  0  0  0  0  0
   39.4860   32.9270   46.7650 C   0  0  0  0  0  0  0  0  0  0  0  0
   37.8380   29.5080   46.8010 H   0  0  0  0  0  0  0  0  0  0  0  0
   38.8260   30.3350   44.7670 H   0  0  0  0  0  0  0  0  0  0  0  0
   39.9020   32.5280   44.6790 H   0  0  0  0  0  0  0  0  0  0  0  0
   39.9600   33.9000   46.7340 H   0  0  0  0  0  0  0  0  0  0  0  0
  1  4  1  0  0  0  0
  1 27  1  0  0  0  0
  1  3  1  0  0  0  0
  2  1  1  0  0  0  0
  4  5  1  0  0  0  0
  5  6  2  0  0  0  0
  5 10  1  0  0  0  0
  6 11  1  0  0  0  0
  7  6  1  0  0  0  0
  8  7  2  0  0  0  0
  9  8  1  0  0  0  0
  9  4  2  0  0  0  0
 12 14  1  0  0  0  0
 12  8  1  0  0  0  0
 13 12  1  0  0  0  0
 15 16  1  0  0  0  0
 15 12  1  0  0  0  0
 17 16  2  0  0  0  0
 18 17  1  0  0  0  0
 19 18  2  0  0  0  0
 19 26  1  0  0  0  0
 20 19  1  0  0  0  0
 21 20  2  0  0  0  0
 21 23  1  0  0  0  0
 22 21  1  0  0  0  0
 23 25  2  0  0  0  0
 24 23  1  0  0  0  0
 25 26  1  0  0  0  0
 26 15  2  0  0  0  0
 27 29  1  0  0  0  0
 27 30  1  0  0  0  0
 28 27  1  0  0  0  0
 30 35  1  0  0  0  0
 31 37  1  0  0  0  0
 32 38  1  0  0  0  0
 32 31  2  0  0  0  0
 33 32  1  0  0  0  0
 34 33  2  0  0  0  0
 34 35  1  0  0  0  0
 35 36  2  0  0  0  0
 36 31  1  0  0  0  0
 40 41  1  0  0  0  0
 40 39  1  0  0  0  0
 41 33  1  0  0  0  0
 42 41  2  0  0  0  0
 43 42  1  0  0  0  0
 44 43  2  0  0  0  0
 44 45  1  0  0  0  0
 45 40  2  0  0  0  0
 46 42  1  0  0  0  0
 47 43  1  0  0  0  0
 48 44  1  0  0  0  0
 49 45  1  0  0  0  0
M  END
>  <minimizedAffinity>
-7.0573349

>  <minimizedRMSD>
0.446940899

$$$$
