
 OpenBabel03272504273D

 45 49  0  0  0  0  0  0  0  0999 V2000
   33.8790   28.4240   47.8970 C   0  0  0  0  0  0  0  0  0  0  0  0
   34.0210   27.1640   47.4240 C   0  0  0  0  0  0  0  0  0  0  0  0
   33.1550   26.6410   46.5490 C   0  0  0  0  0  0  0  0  0  0  0  0
   32.1140   27.4080   46.1370 N   0  0  0  0  0  0  0  0  0  0  0  0
   31.9730   28.6410   46.5990 C   0  0  0  0  0  0  0  0  0  0  0  0
   32.8390   29.1670   47.4760 N   0  0  0  0  0  0  0  0  0  0  0  0
   34.8680   26.5810   47.7770 H   0  0  0  0  0  0  0  0  0  0  0  0
   33.2880   25.6300   46.1830 H   0  0  0  0  0  0  0  0  0  0  0  0
   29.5960   29.2600   46.6900 C   0  0  0  0  0  0  0  0  0  0  0  0
   30.8460   29.3640   46.0670 C   0  0  0  0  0  0  0  0  0  0  0  0
   31.0820   30.1110   44.9290 C   0  0  0  0  0  0  0  0  0  0  0  0
   30.0320   30.8040   44.3560 C   0  0  0  0  0  0  0  0  0  0  0  0
   28.7660   30.7580   44.9000 C   0  0  0  0  0  0  0  0  0  0  0  0
   28.6310   29.9990   46.0190 C   0  0  0  0  0  0  0  0  0  0  0  0
   32.0650   30.1630   44.4830 H   0  0  0  0  0  0  0  0  0  0  0  0
   30.2130   31.3930   43.4600 H   0  0  0  0  0  0  0  0  0  0  0  0
   27.9220   31.2850   44.4800 H   0  0  0  0  0  0  0  0  0  0  0  0
   27.6290   29.9580   46.4550 H   0  0  0  0  0  0  0  0  0  0  0  0
   29.2830   28.3880   48.0760 S   0  0  0  0  0  0  0  0  0  0  0  0
   28.6780   27.1310   47.3650 O   0  0  0  0  0  0  0  0  0  0  0  0
   28.1800   29.1020   48.8130 O   0  0  0  0  0  0  0  0  0  0  0  0
   29.7190   27.4310   49.2740 C   0  0  0  0  0  0  0  0  0  0  0  0
   28.9220   27.1120   50.3930 F   0  0  0  0  0  0  0  0  0  0  0  0
   30.6630   28.1330   50.1580 F   0  0  0  0  0  0  0  0  0  0  0  0
   30.7380   26.4480   49.1160 F   0  0  0  0  0  0  0  0  0  0  0  0
   35.7240   29.2490   50.9490 C   0  0  0  0  0  0  0  0  0  0  0  0
   36.6320   30.2190   50.5030 C   0  0  0  0  0  0  0  0  0  0  0  0
   36.5930   30.5810   49.1500 C   0  0  0  0  0  0  0  0  0  0  0  0
   35.6640   29.9420   48.4060 N   0  0  0  0  0  0  0  0  0  0  0  0
   34.8030   29.0190   48.8430 C   0  0  0  0  0  0  0  0  0  0  0  0
   34.8400   28.6750   50.1300 N   0  0  0  0  0  0  0  0  0  0  0  0
   35.7520   28.9660   52.0020 H   0  0  0  0  0  0  0  0  0  0  0  0
   37.3190   30.6510   51.1880 H   0  0  0  0  0  0  0  0  0  0  0  0
   37.5560   31.5860   48.7540 C   0  0  0  0  0  0  0  0  0  0  0  0
   37.7750   32.6570   49.5300 N   0  0  0  0  0  0  0  0  0  0  0  0
   38.6380   33.6410   49.2610 C   0  0  0  0  0  0  0  0  0  0  0  0
   39.3740   33.6330   48.1600 N   0  0  0  0  0  0  0  0  0  0  0  0
   39.2320   32.6050   47.3130 C   0  0  0  0  0  0  0  0  0  0  0  0
   39.9790   32.5570   46.1540 C   0  0  0  0  0  0  0  0  0  0  0  0
   39.8550   31.5040   45.2550 C   0  0  0  0  0  0  0  0  0  0  0  0
   40.4550   31.4960   44.3550 H   0  0  0  0  0  0  0  0  0  0  0  0
   38.9410   30.4950   45.5750 C   0  0  0  0  0  0  0  0  0  0  0  0
   38.8540   29.6780   44.8640 H   0  0  0  0  0  0  0  0  0  0  0  0
   38.2290   30.5950   46.7340 C   0  0  0  0  0  0  0  0  0  0  0  0
   38.3310   31.6160   47.6330 C   0  0  0  0  0  0  0  0  0  0  0  0
  1 30  1  0  0  0  0
  2  7  1  0  0  0  0
  2  1  2  0  0  0  0
  3  2  1  0  0  0  0
  4  3  2  0  0  0  0
  4  5  1  0  0  0  0
  5  6  2  0  0  0  0
  6  1  1  0  0  0  0
  8  3  1  0  0  0  0
  9 19  1  0  0  0  0
 10  5  1  0  0  0  0
 10  9  1  0  0  0  0
 11 10  2  0  0  0  0
 12 13  2  0  0  0  0
 12 11  1  0  0  0  0
 13 14  1  0  0  0  0
 14 18  1  0  0  0  0
 14  9  2  0  0  0  0
 15 11  1  0  0  0  0
 16 12  1  0  0  0  0
 17 13  1  0  0  0  0
 19 21  2  0  0  0  0
 19 22  1  0  0  0  0
 20 19  2  0  0  0  0
 22 24  1  0  0  0  0
 22 23  1  0  0  0  0
 25 22  1  0  0  0  0
 26 32  1  0  0  0  0
 27 26  1  0  0  0  0
 27 33  1  0  0  0  0
 28 27  2  0  0  0  0
 29 30  2  0  0  0  0
 29 28  1  0  0  0  0
 30 31  1  0  0  0  0
 31 26  2  0  0  0  0
 34 28  1  0  0  0  0
 34 35  1  0  0  0  0
 36 35  2  0  0  0  0
 37 36  1  0  0  0  0
 38 45  1  0  0  0  0
 38 37  2  0  0  0  0
 39 38  1  0  0  0  0
 40 42  1  0  0  0  0
 40 39  2  0  0  0  0
 41 40  1  0  0  0  0
 42 44  2  0  0  0  0
 43 42  1  0  0  0  0
 44 45  1  0  0  0  0
 45 34  2  0  0  0  0
M  END
>  <minimizedAffinity>
-7.99056149

>  <minimizedRMSD>
2.98939061

$$$$
