
 OpenBabel03262521393D

 32 35  0  0  0  0  0  0  0  0999 V2000
   38.1610   22.5410   33.2630 F   0  0  0  0  0  0  0  0  0  0  0  0
   37.3520   23.4650   32.6520 C   0  0  0  0  0  0  0  0  0  0  0  0
   36.3190   23.0670   31.8220 C   0  0  0  0  0  0  0  0  0  0  0  0
   35.5220   24.0460   31.2220 C   0  0  0  0  0  0  0  0  0  0  0  0
   35.7600   25.3970   31.4530 C   0  0  0  0  0  0  0  0  0  0  0  0
   36.8000   25.7290   32.2860 C   0  0  0  0  0  0  0  0  0  0  0  0
   37.6100   24.7880   32.8980 C   0  0  0  0  0  0  0  0  0  0  0  0
   34.7160   23.7020   30.5730 H   0  0  0  0  0  0  0  0  0  0  0  0
   35.1370   26.1290   30.9830 H   0  0  0  0  0  0  0  0  0  0  0  0
   36.9990   26.7780   32.4770 H   0  0  0  0  0  0  0  0  0  0  0  0
   35.1240   21.1030   32.4040 C   0  0  0  0  0  0  0  0  0  0  0  0
   36.1330   21.6710   31.6290 C   0  0  0  0  0  0  0  0  0  0  0  0
   36.8330   20.8240   30.7690 C   0  0  0  0  0  0  0  0  0  0  0  0
   36.4900   19.5000   30.7390 N   0  0  0  0  0  0  0  0  0  0  0  0
   35.5180   19.0040   31.4980 C   0  0  0  0  0  0  0  0  0  0  0  0
   34.8180   19.7840   32.3410 N   0  0  0  0  0  0  0  0  0  0  0  0
   34.5130   21.6760   33.1110 H   0  0  0  0  0  0  0  0  0  0  0  0
   37.6020   21.3100   30.1930 H   0  0  0  0  0  0  0  0  0  0  0  0
   35.2690   17.9560   31.4530 H   0  0  0  0  0  0  0  0  0  0  0  0
   38.9650   25.2550   33.9810 S   0  0  0  0  0  0  0  0  0  0  0  0
   38.7800   24.5220   35.5890 C   0  0  0  0  0  0  0  0  0  0  0  0
   37.7690   24.7380   36.4780 N   0  0  0  0  0  0  0  0  0  0  0  0
   37.7770   24.0990   37.6600 C   0  0  0  0  0  3  0  0  0  0  0  0
   38.7320   23.2420   38.0370 N   0  0  0  0  0  0  0  0  0  0  0  0
   39.7570   22.9870   37.2000 C   0  0  0  0  0  0  0  0  0  0  0  0
   40.7350   22.1090   37.5860 C   0  0  0  0  0  3  0  0  0  0  0  0
   41.7960   21.8390   36.7300 C   0  0  0  0  0  0  0  0  0  0  0  0
   42.6130   21.1560   36.9590 H   0  0  0  0  0  0  0  0  0  0  0  0
   41.8570   22.4650   35.4830 C   0  0  0  0  0  0  0  0  0  0  0  0
   42.6790   22.2740   34.7870 H   0  0  0  0  0  0  0  0  0  0  0  0
   40.8400   23.3360   35.1620 C   0  0  0  0  0  3  0  0  0  0  0  0
   39.7770   23.6290   35.9760 C   0  0  0  0  0  0  0  0  0  0  0  0
  2  7  1  0  0  0  0
  2  1  1  0  0  0  0
  3  2  2  0  0  0  0
  4  5  2  0  0  0  0
  4  3  1  0  0  0  0
  5  6  1  0  0  0  0
  6 10  1  0  0  0  0
  6  7  2  0  0  0  0
  7 20  1  0  0  0  0
  8  4  1  0  0  0  0
  9  5  1  0  0  0  0
 11 17  1  0  0  0  0
 12  3  1  0  0  0  0
 12 11  2  0  0  0  0
 13 12  1  0  0  0  0
 14 13  2  0  0  0  0
 14 15  1  0  0  0  0
 15 16  2  0  0  0  0
 16 11  1  0  0  0  0
 18 13  1  0  0  0  0
 19 15  1  0  0  0  0
 20 21  1  0  0  0  0
 21 32  2  0  0  0  0
 21 22  1  0  0  0  0
 22 23  2  0  0  0  0
 23 24  1  0  0  0  0
 25 26  1  0  0  0  0
 25 24  2  0  0  0  0
 27 28  1  0  0  0  0
 27 26  2  0  0  0  0
 29 27  1  0  0  0  0
 30 29  1  0  0  0  0
 31 29  2  0  0  0  0
 31 32  1  0  0  0  0
 32 25  1  0  0  0  0
M  END
>  <minimizedAffinity>
-6.24005938

$$$$

 OpenBabel03262521393D

 32 35  0  0  0  0  0  0  0  0999 V2000
   37.0630   25.6630   32.4430 F   0  0  0  0  0  0  0  0  0  0  0  0
   37.5730   26.0960   33.6390 C   0  0  0  0  0  0  0  0  0  0  0  0
   37.3080   27.3730   34.1040 C   0  0  0  0  0  0  0  0  0  0  0  0
   37.8510   27.7700   35.3290 C   0  0  0  0  0  0  0  0  0  0  0  0
   38.6440   26.9000   36.0720 C   0  0  0  0  0  0  0  0  0  0  0  0
   38.8700   25.6470   35.5580 C   0  0  0  0  0  0  0  0  0  0  0  0
   38.3510   25.2190   34.3480 C   0  0  0  0  0  0  0  0  0  0  0  0
   37.6250   28.7810   35.6700 H   0  0  0  0  0  0  0  0  0  0  0  0
   39.0480   27.2250   37.0070 H   0  0  0  0  0  0  0  0  0  0  0  0
   39.4860   24.9560   36.1230 H   0  0  0  0  0  0  0  0  0  0  0  0
   35.4130   28.7890   33.9560 C   0  0  0  0  0  0  0  0  0  0  0  0
   36.4920   28.2090   33.2950 C   0  0  0  0  0  0  0  0  0  0  0  0
   36.6490   28.5080   31.9400 C   0  0  0  0  0  0  0  0  0  0  0  0
   35.7410   29.3440   31.3500 N   0  0  0  0  0  0  0  0  0  0  0  0
   34.7250   29.8740   32.0240 C   0  0  0  0  0  0  0  0  0  0  0  0
   34.5360   29.6140   33.3300 N   0  0  0  0  0  0  0  0  0  0  0  0
   35.1970   28.6230   35.0180 H   0  0  0  0  0  0  0  0  0  0  0  0
   37.4970   28.0360   31.4750 H   0  0  0  0  0  0  0  0  0  0  0  0
   34.0250   30.5310   31.5330 H   0  0  0  0  0  0  0  0  0  0  0  0
   38.6680   23.5730   33.7020 S   0  0  0  0  0  0  0  0  0  0  0  0
   37.4900   22.4010   34.3300 C   0  0  0  0  0  0  0  0  0  0  0  0
   37.2270   22.1230   35.6390 N   0  0  0  0  0  0  0  0  0  0  0  0
   36.2980   21.2030   35.9490 C   0  0  0  0  0  3  0  0  0  0  0  0
   35.5940   20.5210   35.0390 N   0  0  0  0  0  0  0  0  0  0  0  0
   35.8090   20.7520   33.7300 C   0  0  0  0  0  0  0  0  0  0  0  0
   35.0870   20.0530   32.7990 C   0  0  0  0  0  3  0  0  0  0  0  0
   35.3010   20.2850   31.4450 C   0  0  0  0  0  0  0  0  0  0  0  0
   34.7710   19.7740   30.6420 H   0  0  0  0  0  0  0  0  0  0  0  0
   36.2510   21.2270   31.0440 C   0  0  0  0  0  0  0  0  0  0  0  0
   36.4430   21.4320   29.9880 H   0  0  0  0  0  0  0  0  0  0  0  0
   36.9390   21.8910   32.0350 C   0  0  0  0  0  3  0  0  0  0  0  0
   36.7580   21.6940   33.3780 C   0  0  0  0  0  0  0  0  0  0  0  0
  1  2  1  0  0  0  0
  2  3  2  0  0  0  0
  2  7  1  0  0  0  0
  3  4  1  0  0  0  0
  4  8  1  0  0  0  0
  4  5  2  0  0  0  0
  5  9  1  0  0  0  0
  6  5  1  0  0  0  0
  6 10  1  0  0  0  0
  7  6  2  0  0  0  0
 11 17  1  0  0  0  0
 12 11  2  0  0  0  0
 12  3  1  0  0  0  0
 13 12  1  0  0  0  0
 14 13  2  0  0  0  0
 14 15  1  0  0  0  0
 15 16  2  0  0  0  0
 16 11  1  0  0  0  0
 18 13  1  0  0  0  0
 19 15  1  0  0  0  0
 20 21  1  0  0  0  0
 20  7  1  0  0  0  0
 21 22  1  0  0  0  0
 22 23  2  0  0  0  0
 24 23  1  0  0  0  0
 25 24  2  0  0  0  0
 26 25  1  0  0  0  0
 27 26  2  0  0  0  0
 28 27  1  0  0  0  0
 29 27  1  0  0  0  0
 29 31  2  0  0  0  0
 30 29  1  0  0  0  0
 31 32  1  0  0  0  0
 32 25  1  0  0  0  0
 32 21  2  0  0  0  0
M  END
>  <minimizedAffinity>
-5.98245621

$$$$

 OpenBabel03262521393D

 32 35  0  0  0  0  0  0  0  0999 V2000
   37.4140   23.5570   34.0100 F   0  0  0  0  0  0  0  0  0  0  0  0
   38.1210   24.7190   33.8390 C   0  0  0  0  0  0  0  0  0  0  0  0
   38.9170   25.2220   34.8540 C   0  0  0  0  0  0  0  0  0  0  0  0
   39.6190   26.4100   34.6330 C   0  0  0  0  0  0  0  0  0  0  0  0
   39.5230   27.0780   33.4150 C   0  0  0  0  0  0  0  0  0  0  0  0
   38.7180   26.5290   32.4480 C   0  0  0  0  0  0  0  0  0  0  0  0
   38.0070   25.3550   32.6310 C   0  0  0  0  0  0  0  0  0  0  0  0
   40.2380   26.7820   35.4500 H   0  0  0  0  0  0  0  0  0  0  0  0
   40.0700   27.9850   33.2690 H   0  0  0  0  0  0  0  0  0  0  0  0
   38.6310   27.0360   31.4940 H   0  0  0  0  0  0  0  0  0  0  0  0
   38.0640   24.9090   37.0430 C   0  0  0  0  0  0  0  0  0  0  0  0
   38.9690   24.4900   36.0710 C   0  0  0  0  0  0  0  0  0  0  0  0
   39.8070   23.4210   36.3930 C   0  0  0  0  0  0  0  0  0  0  0  0
   39.6910   22.8560   37.6340 N   0  0  0  0  0  0  0  0  0  0  0  0
   38.8110   23.2910   38.5300 C   0  0  0  0  0  0  0  0  0  0  0  0
   37.9840   24.3170   38.2610 N   0  0  0  0  0  0  0  0  0  0  0  0
   37.3610   25.7370   36.8950 H   0  0  0  0  0  0  0  0  0  0  0  0
   40.4870   23.1360   35.6090 H   0  0  0  0  0  0  0  0  0  0  0  0
   38.7410   22.8260   39.5000 H   0  0  0  0  0  0  0  0  0  0  0  0
   36.9590   24.6640   31.3460 S   0  0  0  0  0  0  0  0  0  0  0  0
   37.5840   23.0980   30.7850 C   0  0  0  0  0  0  0  0  0  0  0  0
   38.7290   22.8760   30.0800 N   0  0  0  0  0  0  0  0  0  0  0  0
   39.0620   21.6220   29.7300 C   0  0  0  0  0  3  0  0  0  0  0  0
   38.3280   20.5450   30.0350 N   0  0  0  0  0  0  0  0  0  0  0  0
   37.1860   20.7010   30.7320 C   0  0  0  0  0  0  0  0  0  0  0  0
   36.4360   19.5980   31.0430 C   0  0  0  0  0  3  0  0  0  0  0  0
   35.2560   19.7480   31.7620 C   0  0  0  0  0  0  0  0  0  0  0  0
   34.6030   18.9250   32.0500 H   0  0  0  0  0  0  0  0  0  0  0  0
   34.8440   21.0210   32.1610 C   0  0  0  0  0  0  0  0  0  0  0  0
   33.9210   21.1730   32.7260 H   0  0  0  0  0  0  0  0  0  0  0  0
   35.6470   22.0840   31.8120 C   0  0  0  0  0  3  0  0  0  0  0  0
   36.8170   21.9800   31.1060 C   0  0  0  0  0  0  0  0  0  0  0  0
  2  1  1  0  0  0  0
  2  3  1  0  0  0  0
  3 12  1  0  0  0  0
  4  3  2  0  0  0  0
  4  8  1  0  0  0  0
  5  4  1  0  0  0  0
  6  7  1  0  0  0  0
  6  5  2  0  0  0  0
  7  2  2  0  0  0  0
  9  5  1  0  0  0  0
 10  6  1  0  0  0  0
 11 16  1  0  0  0  0
 12 13  1  0  0  0  0
 12 11  2  0  0  0  0
 13 14  2  0  0  0  0
 14 15  1  0  0  0  0
 15 19  1  0  0  0  0
 16 15  2  0  0  0  0
 17 11  1  0  0  0  0
 18 13  1  0  0  0  0
 20  7  1  0  0  0  0
 21 32  1  0  0  0  0
 21 20  1  0  0  0  0
 22 21  2  0  0  0  0
 23 24  2  0  0  0  0
 23 22  1  0  0  0  0
 24 25  1  0  0  0  0
 25 26  2  0  0  0  0
 25 32  1  0  0  0  0
 26 27  1  0  0  0  0
 27 28  1  0  0  0  0
 27 29  2  0  0  0  0
 29 30  1  0  0  0  0
 31 29  1  0  0  0  0
 32 31  2  0  0  0  0
M  END
>  <minimizedAffinity>
-5.9523015

$$$$

 OpenBabel03262521393D

 32 35  0  0  0  0  0  0  0  0999 V2000
   37.7000   27.5940   33.8160 F   0  0  0  0  0  0  0  0  0  0  0  0
   37.0410   26.7450   32.9640 C   0  0  0  0  0  0  0  0  0  0  0  0
   37.3160   25.3890   32.9590 C   0  0  0  0  0  0  0  0  0  0  0  0
   36.6180   24.5640   32.0720 C   0  0  0  0  0  0  0  0  0  0  0  0
   35.6630   25.0930   31.2090 C   0  0  0  0  0  0  0  0  0  0  0  0
   35.4350   26.4460   31.2620 C   0  0  0  0  0  0  0  0  0  0  0  0
   36.1070   27.2950   32.1260 C   0  0  0  0  0  0  0  0  0  0  0  0
   36.8550   23.5000   32.0900 H   0  0  0  0  0  0  0  0  0  0  0  0
   35.1410   24.4420   30.5400 H   0  0  0  0  0  0  0  0  0  0  0  0
   34.6940   26.8750   30.5970 H   0  0  0  0  0  0  0  0  0  0  0  0
   39.5800   24.7880   33.3230 C   0  0  0  0  0  0  0  0  0  0  0  0
   38.3030   24.9160   33.8650 C   0  0  0  0  0  0  0  0  0  0  0  0
   38.1400   24.5720   35.2080 C   0  0  0  0  0  0  0  0  0  0  0  0
   39.2330   24.1350   35.9040 N   0  0  0  0  0  0  0  0  0  0  0  0
   40.4340   24.0290   35.3430 C   0  0  0  0  0  0  0  0  0  0  0  0
   40.6360   24.3500   34.0530 N   0  0  0  0  0  0  0  0  0  0  0  0
   39.8190   25.0300   32.2820 H   0  0  0  0  0  0  0  0  0  0  0  0
   37.1360   24.6880   35.5790 H   0  0  0  0  0  0  0  0  0  0  0  0
   41.2780   23.6820   35.9160 H   0  0  0  0  0  0  0  0  0  0  0  0
   35.7870   29.0620   32.1680 S   0  0  0  0  0  0  0  0  0  0  0  0
   34.3310   29.4250   33.1190 C   0  0  0  0  0  0  0  0  0  0  0  0
   33.0540   29.0330   32.8460 N   0  0  0  0  0  0  0  0  0  0  0  0
   32.0570   29.3950   33.6720 C   0  0  0  0  0  3  0  0  0  0  0  0
   32.2340   30.1320   34.7740 N   0  0  0  0  0  0  0  0  0  0  0  0
   33.4740   30.5480   35.0970 C   0  0  0  0  0  0  0  0  0  0  0  0
   33.6550   31.3020   36.2250 C   0  0  0  0  0  3  0  0  0  0  0  0
   34.9300   31.7370   36.5670 C   0  0  0  0  0  0  0  0  0  0  0  0
   35.1600   32.3390   37.4450 H   0  0  0  0  0  0  0  0  0  0  0  0
   36.0170   31.4010   35.7570 C   0  0  0  0  0  0  0  0  0  0  0  0
   37.0330   31.7280   35.9980 H   0  0  0  0  0  0  0  0  0  0  0  0
   35.7610   30.6410   34.6380 C   0  0  0  0  0  3  0  0  0  0  0  0
   34.5210   30.1920   34.2660 C   0  0  0  0  0  0  0  0  0  0  0  0
  2  1  1  0  0  0  0
  3  2  1  0  0  0  0
  3 12  1  0  0  0  0
  4  8  1  0  0  0  0
  4  3  2  0  0  0  0
  5  6  2  0  0  0  0
  5  4  1  0  0  0  0
  6  7  1  0  0  0  0
  7 20  1  0  0  0  0
  7  2  2  0  0  0  0
  9  5  1  0  0  0  0
 10  6  1  0  0  0  0
 11 12  2  0  0  0  0
 11 16  1  0  0  0  0
 12 13  1  0  0  0  0
 13 18  1  0  0  0  0
 13 14  2  0  0  0  0
 15 14  1  0  0  0  0
 15 19  1  0  0  0  0
 16 15  2  0  0  0  0
 17 11  1  0  0  0  0
 20 21  1  0  0  0  0
 21 32  1  0  0  0  0
 22 21  2  0  0  0  0
 22 23  1  0  0  0  0
 23 24  2  0  0  0  0
 24 25  1  0  0  0  0
 25 26  1  0  0  0  0
 26 27  2  0  0  0  0
 27 28  1  0  0  0  0
 29 30  1  0  0  0  0
 29 27  1  0  0  0  0
 31 29  2  0  0  0  0
 32 31  1  0  0  0  0
 32 25  2  0  0  0  0
M  END
>  <minimizedAffinity>
-5.87765884

$$$$

 OpenBabel03262521393D

 32 35  0  0  0  0  0  0  0  0999 V2000
   35.7650   28.3260   34.4830 F   0  0  0  0  0  0  0  0  0  0  0  0
   36.4780   28.3200   33.3120 C   0  0  0  0  0  0  0  0  0  0  0  0
   37.5250   27.4350   33.1220 C   0  0  0  0  0  0  0  0  0  0  0  0
   38.2220   27.4670   31.9110 C   0  0  0  0  0  0  0  0  0  0  0  0
   37.8710   28.3690   30.9110 C   0  0  0  0  0  0  0  0  0  0  0  0
   36.8230   29.2210   31.1590 C   0  0  0  0  0  0  0  0  0  0  0  0
   36.1100   29.2190   32.3460 C   0  0  0  0  0  0  0  0  0  0  0  0
   39.0420   26.7580   31.7900 H   0  0  0  0  0  0  0  0  0  0  0  0
   38.4180   28.3740   29.9920 H   0  0  0  0  0  0  0  0  0  0  0  0
   36.5360   29.9300   30.3910 H   0  0  0  0  0  0  0  0  0  0  0  0
   37.8080   25.1930   33.8390 C   0  0  0  0  0  0  0  0  0  0  0  0
   37.8300   26.5420   34.1850 C   0  0  0  0  0  0  0  0  0  0  0  0
   38.1430   26.8590   35.5070 C   0  0  0  0  0  0  0  0  0  0  0  0
   38.4060   25.8350   36.3760 N   0  0  0  0  0  0  0  0  0  0  0  0
   38.3720   24.5610   35.9990 C   0  0  0  0  0  0  0  0  0  0  0  0
   38.0760   24.2110   34.7350 N   0  0  0  0  0  0  0  0  0  0  0  0
   37.5750   24.8340   32.8300 H   0  0  0  0  0  0  0  0  0  0  0  0
   38.1480   27.9130   35.7240 H   0  0  0  0  0  0  0  0  0  0  0  0
   38.5850   23.7750   36.7050 H   0  0  0  0  0  0  0  0  0  0  0  0
   34.7450   30.3490   32.6400 S   0  0  0  0  0  0  0  0  0  0  0  0
   35.0840   31.4160   34.0200 C   0  0  0  0  0  0  0  0  0  0  0  0
   36.0740   32.3490   34.1120 N   0  0  0  0  0  0  0  0  0  0  0  0
   36.1950   33.0790   35.2330 C   0  0  0  0  0  3  0  0  0  0  0  0
   35.3910   32.9530   36.2950 N   0  0  0  0  0  0  0  0  0  0  0  0
   34.3940   32.0480   36.2630 C   0  0  0  0  0  0  0  0  0  0  0  0
   33.5720   31.9190   37.3500 C   0  0  0  0  0  3  0  0  0  0  0  0
   32.5390   30.9880   37.3280 C   0  0  0  0  0  0  0  0  0  0  0  0
   31.8420   30.8230   38.1480 H   0  0  0  0  0  0  0  0  0  0  0  0
   32.3490   30.1910   36.1960 C   0  0  0  0  0  0  0  0  0  0  0  0
   31.5480   29.4500   36.1470 H   0  0  0  0  0  0  0  0  0  0  0  0
   33.2150   30.3750   35.1410 C   0  0  0  0  0  3  0  0  0  0  0  0
   34.2430   31.2810   35.1230 C   0  0  0  0  0  0  0  0  0  0  0  0
  2  1  1  0  0  0  0
  3  2  1  0  0  0  0
  3 12  1  0  0  0  0
  4  3  2  0  0  0  0
  5  6  2  0  0  0  0
  5  4  1  0  0  0  0
  6  7  1  0  0  0  0
  7 20  1  0  0  0  0
  7  2  2  0  0  0  0
  8  4  1  0  0  0  0
  9  5  1  0  0  0  0
 10  6  1  0  0  0  0
 11 12  2  0  0  0  0
 11 16  1  0  0  0  0
 12 13  1  0  0  0  0
 13 18  1  0  0  0  0
 13 14  2  0  0  0  0
 15 14  1  0  0  0  0
 15 19  1  0  0  0  0
 16 15  2  0  0  0  0
 17 11  1  0  0  0  0
 20 21  1  0  0  0  0
 21 22  2  0  0  0  0
 21 32  1  0  0  0  0
 22 23  1  0  0  0  0
 23 24  2  0  0  0  0
 25 24  1  0  0  0  0
 25 26  1  0  0  0  0
 27 26  2  0  0  0  0
 27 28  1  0  0  0  0
 29 27  1  0  0  0  0
 30 29  1  0  0  0  0
 31 29  2  0  0  0  0
 32 31  1  0  0  0  0
 32 25  2  0  0  0  0
M  END
>  <minimizedAffinity>
-5.81516504

$$$$

 OpenBabel03262521393D

 32 35  0  0  0  0  0  0  0  0999 V2000
   37.4160   24.9850   33.6980 F   0  0  0  0  0  0  0  0  0  0  0  0
   38.5850   25.7020   33.6710 C   0  0  0  0  0  0  0  0  0  0  0  0
   39.4490   25.6930   34.7520 C   0  0  0  0  0  0  0  0  0  0  0  0
   40.6290   26.4390   34.6780 C   0  0  0  0  0  0  0  0  0  0  0  0
   40.9330   27.1780   33.5380 C   0  0  0  0  0  0  0  0  0  0  0  0
   40.0360   27.1460   32.4990 C   0  0  0  0  0  0  0  0  0  0  0  0
   38.8580   26.4200   32.5360 C   0  0  0  0  0  0  0  0  0  0  0  0
   41.2900   26.4130   35.5440 H   0  0  0  0  0  0  0  0  0  0  0  0
   41.8420   27.7410   33.5040 H   0  0  0  0  0  0  0  0  0  0  0  0
   40.2570   27.7170   31.6040 H   0  0  0  0  0  0  0  0  0  0  0  0
   39.7980   23.7380   36.0470 C   0  0  0  0  0  0  0  0  0  0  0  0
   39.0770   24.9180   35.8840 C   0  0  0  0  0  0  0  0  0  0  0  0
   38.0900   25.2020   36.8290 C   0  0  0  0  0  0  0  0  0  0  0  0
   37.8920   24.3110   37.8490 N   0  0  0  0  0  0  0  0  0  0  0  0
   38.6070   23.1960   37.9630 C   0  0  0  0  0  0  0  0  0  0  0  0
   39.5670   22.8840   37.0750 N   0  0  0  0  0  0  0  0  0  0  0  0
   40.5930   23.4190   35.3640 H   0  0  0  0  0  0  0  0  0  0  0  0
   37.5610   26.1240   36.6590 H   0  0  0  0  0  0  0  0  0  0  0  0
   38.4300   22.5120   38.7780 H   0  0  0  0  0  0  0  0  0  0  0  0
   37.7040   26.4020   31.1600 S   0  0  0  0  0  0  0  0  0  0  0  0
   37.4100   28.0440   30.5500 C   0  0  0  0  0  0  0  0  0  0  0  0
   37.7510   28.5380   29.3260 N   0  0  0  0  0  0  0  0  0  0  0  0
   37.4550   29.8120   29.0180 C   0  0  0  0  0  3  0  0  0  0  0  0
   36.8310   30.6530   29.8500 N   0  0  0  0  0  0  0  0  0  0  0  0
   36.4680   30.2220   31.0730 C   0  0  0  0  0  0  0  0  0  0  0  0
   35.8290   31.0840   31.9250 C   0  0  0  0  0  3  0  0  0  0  0  0
   35.4510   30.6500   33.1900 C   0  0  0  0  0  0  0  0  0  0  0  0
   34.9400   31.2690   33.9260 H   0  0  0  0  0  0  0  0  0  0  0  0
   35.7250   29.3380   33.5830 C   0  0  0  0  0  0  0  0  0  0  0  0
   35.4400   28.9650   34.5710 H   0  0  0  0  0  0  0  0  0  0  0  0
   36.3700   28.5280   32.6750 C   0  0  0  0  0  3  0  0  0  0  0  0
   36.7590   28.9160   31.4200 C   0  0  0  0  0  0  0  0  0  0  0  0
  2  1  1  0  0  0  0
  2  3  1  0  0  0  0
  3 12  1  0  0  0  0
  4  3  2  0  0  0  0
  4  8  1  0  0  0  0
  5  4  1  0  0  0  0
  6  7  1  0  0  0  0
  6  5  2  0  0  0  0
  7  2  2  0  0  0  0
  9  5  1  0  0  0  0
 10  6  1  0  0  0  0
 11 16  1  0  0  0  0
 12 11  2  0  0  0  0
 12 13  1  0  0  0  0
 13 14  2  0  0  0  0
 14 15  1  0  0  0  0
 15 19  1  0  0  0  0
 16 15  2  0  0  0  0
 17 11  1  0  0  0  0
 18 13  1  0  0  0  0
 20  7  1  0  0  0  0
 21 20  1  0  0  0  0
 21 32  1  0  0  0  0
 22 21  2  0  0  0  0
 23 22  1  0  0  0  0
 23 24  2  0  0  0  0
 24 25  1  0  0  0  0
 25 32  2  0  0  0  0
 25 26  1  0  0  0  0
 26 27  2  0  0  0  0
 27 29  1  0  0  0  0
 27 28  1  0  0  0  0
 29 30  1  0  0  0  0
 31 29  2  0  0  0  0
 32 31  1  0  0  0  0
M  END
>  <minimizedAffinity>
-5.73416853

$$$$

 OpenBabel03262521393D

 32 35  0  0  0  0  0  0  0  0999 V2000
   36.0900   27.9680   34.8800 F   0  0  0  0  0  0  0  0  0  0  0  0
   36.1330   28.6010   33.6640 C   0  0  0  0  0  0  0  0  0  0  0  0
   35.6950   29.9060   33.5270 C   0  0  0  0  0  0  0  0  0  0  0  0
   35.7570   30.5090   32.2670 C   0  0  0  0  0  0  0  0  0  0  0  0
   36.2520   29.8120   31.1690 C   0  0  0  0  0  0  0  0  0  0  0  0
   36.6720   28.5200   31.3690 C   0  0  0  0  0  0  0  0  0  0  0  0
   36.6240   27.8900   32.6010 C   0  0  0  0  0  0  0  0  0  0  0  0
   35.4050   31.5380   32.1890 H   0  0  0  0  0  0  0  0  0  0  0  0
   36.2910   30.2940   30.2140 H   0  0  0  0  0  0  0  0  0  0  0  0
   37.0600   27.9620   30.5240 H   0  0  0  0  0  0  0  0  0  0  0  0
   33.8280   30.4350   34.8900 C   0  0  0  0  0  0  0  0  0  0  0  0
   35.2010   30.5580   34.6890 C   0  0  0  0  0  0  0  0  0  0  0  0
   35.9230   31.2930   35.6310 C   0  0  0  0  0  0  0  0  0  0  0  0
   35.2440   31.8420   36.6850 N   0  0  0  0  0  0  0  0  0  0  0  0
   33.9310   31.6970   36.8340 C   0  0  0  0  0  0  0  0  0  0  0  0
   33.1970   30.9980   35.9500 N   0  0  0  0  0  0  0  0  0  0  0  0
   33.1680   29.8810   34.2120 H   0  0  0  0  0  0  0  0  0  0  0  0
   36.9780   31.3590   35.4320 H   0  0  0  0  0  0  0  0  0  0  0  0
   33.4230   32.1410   37.6750 H   0  0  0  0  0  0  0  0  0  0  0  0
   37.1790   26.1970   32.8290 S   0  0  0  0  0  0  0  0  0  0  0  0
   38.7920   26.1480   33.5730 C   0  0  0  0  0  0  0  0  0  0  0  0
   39.7560   27.1090   33.5060 N   0  0  0  0  0  0  0  0  0  0  0  0
   40.9310   26.9160   34.1290 C   0  0  0  0  0  3  0  0  0  0  0  0
   41.2290   25.8170   34.8310 N   0  0  0  0  0  0  0  0  0  0  0  0
   40.3160   24.8320   34.9340 C   0  0  0  0  0  0  0  0  0  0  0  0
   40.6220   23.7080   35.6530 C   0  0  0  0  0  3  0  0  0  0  0  0
   39.6860   22.6860   35.7660 C   0  0  0  0  0  0  0  0  0  0  0  0
   39.8490   21.7610   36.3180 H   0  0  0  0  0  0  0  0  0  0  0  0
   38.4420   22.8130   35.1450 C   0  0  0  0  0  0  0  0  0  0  0  0
   37.6840   22.0280   35.2140 H   0  0  0  0  0  0  0  0  0  0  0  0
   38.2040   23.9710   34.4390 C   0  0  0  0  0  3  0  0  0  0  0  0
   39.0970   25.0010   34.3040 C   0  0  0  0  0  0  0  0  0  0  0  0
  2  1  1  0  0  0  0
  3  2  1  0  0  0  0
  3 12  1  0  0  0  0
  4  3  2  0  0  0  0
  5  6  2  0  0  0  0
  5  4  1  0  0  0  0
  6  7  1  0  0  0  0
  7 20  1  0  0  0  0
  7  2  2  0  0  0  0
  8  4  1  0  0  0  0
  9  5  1  0  0  0  0
 10  6  1  0  0  0  0
 11 16  1  0  0  0  0
 12 11  2  0  0  0  0
 12 13  1  0  0  0  0
 13 14  2  0  0  0  0
 14 15  1  0  0  0  0
 15 19  1  0  0  0  0
 16 15  2  0  0  0  0
 17 11  1  0  0  0  0
 18 13  1  0  0  0  0
 20 21  1  0  0  0  0
 21 32  1  0  0  0  0
 22 21  2  0  0  0  0
 22 23  1  0  0  0  0
 23 24  2  0  0  0  0
 24 25  1  0  0  0  0
 25 26  1  0  0  0  0
 26 27  2  0  0  0  0
 27 28  1  0  0  0  0
 29 30  1  0  0  0  0
 29 27  1  0  0  0  0
 31 29  2  0  0  0  0
 32 31  1  0  0  0  0
 32 25  2  0  0  0  0
M  END
>  <minimizedAffinity>
-5.72620058

$$$$

 OpenBabel03262521393D

 32 35  0  0  0  0  0  0  0  0999 V2000
   38.5480   23.3830   33.6580 F   0  0  0  0  0  0  0  0  0  0  0  0
   37.5760   22.4270   33.8000 C   0  0  0  0  0  0  0  0  0  0  0  0
   37.2950   21.8770   35.0380 C   0  0  0  0  0  0  0  0  0  0  0  0
   36.2960   20.9040   35.1330 C   0  0  0  0  0  0  0  0  0  0  0  0
   35.5920   20.4950   34.0040 C   0  0  0  0  0  0  0  0  0  0  0  0
   35.9160   21.0770   32.8040 C   0  0  0  0  0  0  0  0  0  0  0  0
   36.9000   22.0420   32.6710 C   0  0  0  0  0  0  0  0  0  0  0  0
   36.0960   20.4890   36.1210 H   0  0  0  0  0  0  0  0  0  0  0  0
   34.8310   19.7490   34.1010 H   0  0  0  0  0  0  0  0  0  0  0  0
   35.3780   20.7700   31.9140 H   0  0  0  0  0  0  0  0  0  0  0  0
   37.3280   23.0730   37.0850 C   0  0  0  0  0  0  0  0  0  0  0  0
   38.0520   22.3400   36.1480 C   0  0  0  0  0  0  0  0  0  0  0  0
   39.4120   22.1460   36.3990 C   0  0  0  0  0  0  0  0  0  0  0  0
   39.9450   22.6840   37.5390 N   0  0  0  0  0  0  0  0  0  0  0  0
   39.2120   23.3770   38.4040 C   0  0  0  0  0  0  0  0  0  0  0  0
   37.8990   23.5870   38.2020 N   0  0  0  0  0  0  0  0  0  0  0  0
   36.2560   23.2830   36.9870 H   0  0  0  0  0  0  0  0  0  0  0  0
   39.9270   21.5740   35.6470 H   0  0  0  0  0  0  0  0  0  0  0  0
   39.6590   23.7890   39.2950 H   0  0  0  0  0  0  0  0  0  0  0  0
   37.3020   22.7840   31.0850 S   0  0  0  0  0  0  0  0  0  0  0  0
   36.8120   24.4910   31.0350 C   0  0  0  0  0  0  0  0  0  0  0  0
   35.5400   24.9810   31.0680 N   0  0  0  0  0  0  0  0  0  0  0  0
   35.3380   26.3090   31.0210 C   0  0  0  0  0  3  0  0  0  0  0  0
   36.3250   27.2090   30.9440 N   0  0  0  0  0  0  0  0  0  0  0  0
   37.6030   26.7850   30.9100 C   0  0  0  0  0  0  0  0  0  0  0  0
   38.6120   27.7070   30.8310 C   0  0  0  0  0  3  0  0  0  0  0  0
   39.9350   27.2810   30.7950 C   0  0  0  0  0  0  0  0  0  0  0  0
   40.7950   27.9460   30.7330 H   0  0  0  0  0  0  0  0  0  0  0  0
   40.2240   25.9150   30.8390 C   0  0  0  0  0  0  0  0  0  0  0  0
   41.2530   25.5470   30.8120 H   0  0  0  0  0  0  0  0  0  0  0  0
   39.1590   25.0460   30.9180 C   0  0  0  0  0  3  0  0  0  0  0  0
   37.8430   25.4240   30.9560 C   0  0  0  0  0  0  0  0  0  0  0  0
  1  2  1  0  0  0  0
  2  3  1  0  0  0  0
  3  4  2  0  0  0  0
  3 12  1  0  0  0  0
  4  8  1  0  0  0  0
  5  9  1  0  0  0  0
  5  4  1  0  0  0  0
  6  5  2  0  0  0  0
  7  6  1  0  0  0  0
  7  2  2  0  0  0  0
 10  6  1  0  0  0  0
 11 16  1  0  0  0  0
 12 13  1  0  0  0  0
 12 11  2  0  0  0  0
 13 14  2  0  0  0  0
 14 15  1  0  0  0  0
 15 19  1  0  0  0  0
 16 15  2  0  0  0  0
 17 11  1  0  0  0  0
 18 13  1  0  0  0  0
 20  7  1  0  0  0  0
 21 22  1  0  0  0  0
 21 20  1  0  0  0  0
 23 22  2  0  0  0  0
 24 23  1  0  0  0  0
 25 24  2  0  0  0  0
 25 32  1  0  0  0  0
 26 25  1  0  0  0  0
 27 26  2  0  0  0  0
 27 29  1  0  0  0  0
 28 27  1  0  0  0  0
 29 31  2  0  0  0  0
 30 29  1  0  0  0  0
 31 32  1  0  0  0  0
 32 21  2  0  0  0  0
M  END
>  <minimizedAffinity>
-5.69994545

$$$$

 OpenBabel03262521393D

 32 35  0  0  0  0  0  0  0  0999 V2000
   36.3800   28.7620   34.2380 F   0  0  0  0  0  0  0  0  0  0  0  0
   36.6300   28.6130   32.8980 C   0  0  0  0  0  0  0  0  0  0  0  0
   37.4610   27.6050   32.4390 C   0  0  0  0  0  0  0  0  0  0  0  0
   37.6860   27.4930   31.0630 C   0  0  0  0  0  0  0  0  0  0  0  0
   37.0860   28.3760   30.1700 C   0  0  0  0  0  0  0  0  0  0  0  0
   36.2730   29.3540   30.6870 C   0  0  0  0  0  0  0  0  0  0  0  0
   36.0270   29.4960   32.0420 C   0  0  0  0  0  0  0  0  0  0  0  0
   38.3440   26.6910   30.7300 H   0  0  0  0  0  0  0  0  0  0  0  0
   37.2730   28.2700   29.1220 H   0  0  0  0  0  0  0  0  0  0  0  0
   35.7980   30.0500   30.0050 H   0  0  0  0  0  0  0  0  0  0  0  0
   39.2340   27.1980   33.9590 C   0  0  0  0  0  0  0  0  0  0  0  0
   38.0410   26.7400   33.4050 C   0  0  0  0  0  0  0  0  0  0  0  0
   37.5580   25.5090   33.8530 C   0  0  0  0  0  0  0  0  0  0  0  0
   38.2800   24.8330   34.7980 N   0  0  0  0  0  0  0  0  0  0  0  0
   39.4150   25.3120   35.2970 C   0  0  0  0  0  0  0  0  0  0  0  0
   39.9160   26.4930   34.8950 N   0  0  0  0  0  0  0  0  0  0  0  0
   39.7010   28.1500   33.6800 H   0  0  0  0  0  0  0  0  0  0  0  0
   36.6340   25.2000   33.3960 H   0  0  0  0  0  0  0  0  0  0  0  0
   39.9630   24.7570   36.0420 H   0  0  0  0  0  0  0  0  0  0  0  0
   34.9590   30.7880   32.6880 S   0  0  0  0  0  0  0  0  0  0  0  0
   33.4990   30.0990   33.4300 C   0  0  0  0  0  0  0  0  0  0  0  0
   32.5970   29.2630   32.8430 N   0  0  0  0  0  0  0  0  0  0  0  0
   31.5380   28.8280   33.5470 C   0  0  0  0  0  3  0  0  0  0  0  0
   31.3010   29.1670   34.8190 N   0  0  0  0  0  0  0  0  0  0  0  0
   32.1580   29.9900   35.4530 C   0  0  0  0  0  0  0  0  0  0  0  0
   31.9140   30.3360   36.7560 C   0  0  0  0  0  3  0  0  0  0  0  0
   32.7920   31.1850   37.4190 C   0  0  0  0  0  0  0  0  0  0  0  0
   32.6730   31.5090   38.4520 H   0  0  0  0  0  0  0  0  0  0  0  0
   33.9160   31.6790   36.7530 C   0  0  0  0  0  0  0  0  0  0  0  0
   34.6260   32.3490   37.2460 H   0  0  0  0  0  0  0  0  0  0  0  0
   34.0970   31.2890   35.4450 C   0  0  0  0  0  3  0  0  0  0  0  0
   33.2570   30.4540   34.7550 C   0  0  0  0  0  0  0  0  0  0  0  0
  2  1  1  0  0  0  0
  3  2  1  0  0  0  0
  3 12  1  0  0  0  0
  4  3  2  0  0  0  0
  5  6  2  0  0  0  0
  5  4  1  0  0  0  0
  6  7  1  0  0  0  0
  7 20  1  0  0  0  0
  7  2  2  0  0  0  0
  8  4  1  0  0  0  0
  9  5  1  0  0  0  0
 10  6  1  0  0  0  0
 11 16  1  0  0  0  0
 12 13  1  0  0  0  0
 12 11  2  0  0  0  0
 13 14  2  0  0  0  0
 14 15  1  0  0  0  0
 15 19  1  0  0  0  0
 16 15  2  0  0  0  0
 17 11  1  0  0  0  0
 18 13  1  0  0  0  0
 20 21  1  0  0  0  0
 21 32  1  0  0  0  0
 22 21  2  0  0  0  0
 22 23  1  0  0  0  0
 23 24  2  0  0  0  0
 24 25  1  0  0  0  0
 25 26  1  0  0  0  0
 26 27  2  0  0  0  0
 27 28  1  0  0  0  0
 29 30  1  0  0  0  0
 29 27  1  0  0  0  0
 31 29  2  0  0  0  0
 32 31  1  0  0  0  0
 32 25  2  0  0  0  0
M  END
>  <minimizedAffinity>
-5.69506407

$$$$
