
 OpenBabel03262521533D

 26 28  0  0  0  0  0  0  0  0999 V2000
   39.5530   23.1580   32.3530 C   0  0  0  0  0  0  0  0  0  0  0  0
   40.0750   22.2170   32.1030 H   0  0  0  0  0  0  0  0  0  0  0  0
   39.5590   23.7750   31.4060 H   0  0  0  0  0  0  0  0  0  0  0  0
   37.8340   22.9210   32.8070 S   0  0  0  0  0  0  0  0  0  0  0  0
   36.8880   24.3110   32.2200 C   0  0  0  0  0  0  0  0  0  0  0  0
   35.8360   23.9910   31.3790 C   0  0  0  0  0  0  0  0  0  0  0  0
   35.0680   25.0420   30.8950 C   0  0  0  0  0  0  0  0  0  0  0  0
   35.3730   26.3390   31.2620 N   0  0  0  0  0  0  0  0  0  0  0  0
   36.4180   26.5780   32.0900 C   0  0  0  0  0  0  0  0  0  0  0  0
   37.1550   25.5890   32.5560 N   0  0  0  0  0  0  0  0  0  0  0  0
   35.5550   22.9960   31.0610 H   0  0  0  0  0  0  0  0  0  0  0  0
   34.2260   24.9050   30.2340 H   0  0  0  0  0  0  0  0  0  0  0  0
   36.5830   27.6230   32.3240 H   0  0  0  0  0  0  0  0  0  0  0  0
   40.4730   24.1330   33.5760 S   0  0  0  0  0  0  0  0  0  0  0  0
   40.4640   23.3330   35.1620 C   0  0  0  0  0  0  0  0  0  0  0  0
   41.3700   22.3410   35.2940 N   0  0  0  0  0  0  0  0  0  0  0  0
   41.4640   21.6570   36.4470 C   0  0  0  0  0  3  0  0  0  0  0  0
   40.6620   21.9420   37.4880 N   0  0  0  0  0  0  0  0  0  0  0  0
   39.7510   22.9200   37.3940 C   0  0  0  0  0  0  0  0  0  0  0  0
   38.9120   23.2260   38.4680 C   0  0  0  0  0  3  0  0  0  0  0  0
   37.9980   24.2560   38.2760 C   0  0  0  0  0  0  0  0  0  0  0  0
   37.3760   24.4490   39.1400 H   0  0  0  0  0  0  0  0  0  0  0  0
   37.9080   24.9510   37.0930 C   0  0  0  0  0  0  0  0  0  0  0  0
   37.1720   25.7490   37.0000 H   0  0  0  0  0  0  0  0  0  0  0  0
   38.7400   24.6500   36.0220 C   0  0  0  0  0  3  0  0  0  0  0  0
   39.6430   23.6240   36.2300 C   0  0  0  0  0  0  0  0  0  0  0  0
  1  4  1  0  0  0  0
  1 14  1  0  0  0  0
  2  1  1  0  0  0  0
  3  1  1  0  0  0  0
  5 10  1  0  0  0  0
  5  4  1  0  0  0  0
  6  5  2  0  0  0  0
  7  8  2  0  0  0  0
  7  6  1  0  0  0  0
  8  9  1  0  0  0  0
  9 13  1  0  0  0  0
  9 10  2  0  0  0  0
 11  6  1  0  0  0  0
 12  7  1  0  0  0  0
 14 15  1  0  0  0  0
 15 16  2  0  0  0  0
 15 26  1  0  0  0  0
 16 17  1  0  0  0  0
 17 18  2  0  0  0  0
 19 18  1  0  0  0  0
 19 20  1  0  0  0  0
 21 20  2  0  0  0  0
 21 22  1  0  0  0  0
 23 21  1  0  0  0  0
 24 23  1  0  0  0  0
 25 26  1  0  0  0  0
 25 23  2  0  0  0  0
 26 19  2  0  0  0  0
M  END
>  <minimizedAffinity>
-4.91065359

$$$$

 OpenBabel03262521533D

 26 28  0  0  0  0  0  0  0  0999 V2000
   35.5520   27.8630   31.9880 C   0  0  0  0  0  0  0  0  0  0  0  0
   34.8720   27.3940   31.2550 H   0  0  0  0  0  0  0  0  0  0  0  0
   35.2940   27.4030   32.9860 H   0  0  0  0  0  0  0  0  0  0  0  0
   37.2830   27.5050   31.6830 S   0  0  0  0  0  0  0  0  0  0  0  0
   38.1150   27.3190   33.2470 C   0  0  0  0  0  0  0  0  0  0  0  0
   37.3060   27.4670   34.3610 C   0  0  0  0  0  0  0  0  0  0  0  0
   37.9080   27.3310   35.6060 C   0  0  0  0  0  0  0  0  0  0  0  0
   39.2600   27.0600   35.6850 N   0  0  0  0  0  0  0  0  0  0  0  0
   39.9910   26.9280   34.5520 C   0  0  0  0  0  0  0  0  0  0  0  0
   39.4310   27.0550   33.3650 N   0  0  0  0  0  0  0  0  0  0  0  0
   36.2450   27.6790   34.3550 H   0  0  0  0  0  0  0  0  0  0  0  0
   37.3720   27.4260   36.5370 H   0  0  0  0  0  0  0  0  0  0  0  0
   41.0420   26.7160   34.7100 H   0  0  0  0  0  0  0  0  0  0  0  0
   35.2240   29.6390   32.1680 S   0  0  0  0  0  0  0  0  0  0  0  0
   34.0890   29.9420   33.5010 C   0  0  0  0  0  0  0  0  0  0  0  0
   32.8620   29.4110   33.3220 N   0  0  0  0  0  0  0  0  0  0  0  0
   31.9110   29.5690   34.2590 C   0  0  0  0  0  3  0  0  0  0  0  0
   32.1590   30.2570   35.3880 N   0  0  0  0  0  0  0  0  0  0  0  0
   33.3670   30.7990   35.5990 C   0  0  0  0  0  0  0  0  0  0  0  0
   33.6380   31.5160   36.7670 C   0  0  0  0  0  3  0  0  0  0  0  0
   34.9180   32.0420   36.8980 C   0  0  0  0  0  0  0  0  0  0  0  0
   35.0700   32.5860   37.8210 H   0  0  0  0  0  0  0  0  0  0  0  0
   35.8850   31.8750   35.9350 C   0  0  0  0  0  0  0  0  0  0  0  0
   36.8710   32.3090   36.0910 H   0  0  0  0  0  0  0  0  0  0  0  0
   35.6200   31.1630   34.7710 C   0  0  0  0  0  3  0  0  0  0  0  0
   34.3420   30.6470   34.6580 C   0  0  0  0  0  0  0  0  0  0  0  0
  1 14  1  0  0  0  0
  1  3  1  0  0  0  0
  2  1  1  0  0  0  0
  4  1  1  0  0  0  0
  4  5  1  0  0  0  0
  5 10  2  0  0  0  0
  5  6  1  0  0  0  0
  6  7  2  0  0  0  0
  7  8  1  0  0  0  0
  7 12  1  0  0  0  0
  9 13  1  0  0  0  0
  9  8  2  0  0  0  0
 10  9  1  0  0  0  0
 11  6  1  0  0  0  0
 14 15  1  0  0  0  0
 15 26  1  0  0  0  0
 16 15  2  0  0  0  0
 16 17  1  0  0  0  0
 17 18  2  0  0  0  0
 18 19  1  0  0  0  0
 19 20  1  0  0  0  0
 20 21  2  0  0  0  0
 21 22  1  0  0  0  0
 23 24  1  0  0  0  0
 23 21  1  0  0  0  0
 25 23  2  0  0  0  0
 26 25  1  0  0  0  0
 26 19  2  0  0  0  0
M  END
>  <minimizedAffinity>
-4.82070208

$$$$

 OpenBabel03262521533D

 26 28  0  0  0  0  0  0  0  0999 V2000
   37.2740   21.6080   32.8690 C   0  0  0  0  0  0  0  0  0  0  0  0
   36.3640   21.8780   33.4330 H   0  0  0  0  0  0  0  0  0  0  0  0
   37.3140   20.4800   32.8690 H   0  0  0  0  0  0  0  0  0  0  0  0
   37.2270   22.1260   31.1520 S   0  0  0  0  0  0  0  0  0  0  0  0
   36.5900   23.7870   31.0700 C   0  0  0  0  0  0  0  0  0  0  0  0
   37.5520   24.7830   31.0470 C   0  0  0  0  0  0  0  0  0  0  0  0
   37.1050   26.0960   30.9830 C   0  0  0  0  0  0  0  0  0  0  0  0
   35.7490   26.3570   30.9470 N   0  0  0  0  0  0  0  0  0  0  0  0
   34.8630   25.3310   30.9730 C   0  0  0  0  0  0  0  0  0  0  0  0
   35.2750   24.0800   31.0330 N   0  0  0  0  0  0  0  0  0  0  0  0
   38.6240   24.6340   31.0730 H   0  0  0  0  0  0  0  0  0  0  0  0
   37.7680   26.9470   30.9600 H   0  0  0  0  0  0  0  0  0  0  0  0
   33.8220   25.6280   30.9410 H   0  0  0  0  0  0  0  0  0  0  0  0
   38.7810   22.1500   33.7240 S   0  0  0  0  0  0  0  0  0  0  0  0
   38.3850   23.1850   35.1130 C   0  0  0  0  0  0  0  0  0  0  0  0
   37.8480   22.5290   36.1630 N   0  0  0  0  0  0  0  0  0  0  0  0
   37.5040   23.1990   37.2770 C   0  0  0  0  0  3  0  0  0  0  0  0
   37.6860   24.5280   37.3690 N   0  0  0  0  0  0  0  0  0  0  0  0
   38.2180   25.2120   36.3450 C   0  0  0  0  0  0  0  0  0  0  0  0
   38.4120   26.5930   36.4280 C   0  0  0  0  0  3  0  0  0  0  0  0
   38.9680   27.2160   35.3180 C   0  0  0  0  0  0  0  0  0  0  0  0
   39.0960   28.2830   35.4380 H   0  0  0  0  0  0  0  0  0  0  0  0
   39.3170   26.5230   34.1820 C   0  0  0  0  0  0  0  0  0  0  0  0
   39.7500   27.0640   33.3420 H   0  0  0  0  0  0  0  0  0  0  0  0
   39.1250   25.1500   34.0950 C   0  0  0  0  0  3  0  0  0  0  0  0
   38.5710   24.5470   35.2090 C   0  0  0  0  0  0  0  0  0  0  0  0
  1  2  1  0  0  0  0
  1 14  1  0  0  0  0
  3  1  1  0  0  0  0
  4  1  1  0  0  0  0
  5  4  1  0  0  0  0
  6  5  1  0  0  0  0
  6 11  1  0  0  0  0
  7  6  2  0  0  0  0
  8  9  2  0  0  0  0
  8  7  1  0  0  0  0
  9 10  1  0  0  0  0
 10  5  2  0  0  0  0
 12  7  1  0  0  0  0
 13  9  1  0  0  0  0
 14 15  1  0  0  0  0
 15 26  2  0  0  0  0
 15 16  1  0  0  0  0
 16 17  2  0  0  0  0
 17 18  1  0  0  0  0
 19 20  1  0  0  0  0
 19 18  2  0  0  0  0
 21 22  1  0  0  0  0
 21 20  2  0  0  0  0
 23 21  1  0  0  0  0
 24 23  1  0  0  0  0
 25 23  2  0  0  0  0
 25 26  1  0  0  0  0
 26 19  1  0  0  0  0
M  END
>  <minimizedAffinity>
-4.81093073

$$$$

 OpenBabel03262521533D

 26 28  0  0  0  0  0  0  0  0999 V2000
   39.3740   22.0110   33.1140 C   0  0  0  0  0  0  0  0  0  0  0  0
   40.1950   21.3340   33.4100 H   0  0  0  0  0  0  0  0  0  0  0  0
   38.9940   21.6200   32.1250 H   0  0  0  0  0  0  0  0  0  0  0  0
   37.9860   21.9880   34.2500 S   0  0  0  0  0  0  0  0  0  0  0  0
   38.5630   22.4500   35.8700 C   0  0  0  0  0  0  0  0  0  0  0  0
   37.6360   23.1130   36.6550 C   0  0  0  0  0  0  0  0  0  0  0  0
   38.0380   23.4940   37.9290 C   0  0  0  0  0  0  0  0  0  0  0  0
   39.3190   23.2050   38.3570 N   0  0  0  0  0  0  0  0  0  0  0  0
   40.1750   22.5520   37.5340 C   0  0  0  0  0  0  0  0  0  0  0  0
   39.8050   22.1840   36.3230 N   0  0  0  0  0  0  0  0  0  0  0  0
   36.6220   23.3640   36.3700 H   0  0  0  0  0  0  0  0  0  0  0  0
   37.3960   24.0150   38.6220 H   0  0  0  0  0  0  0  0  0  0  0  0
   41.1580   22.3670   37.9530 H   0  0  0  0  0  0  0  0  0  0  0  0
   39.9770   23.6890   32.7760 S   0  0  0  0  0  0  0  0  0  0  0  0
   38.6330   24.8520   32.7490 C   0  0  0  0  0  0  0  0  0  0  0  0
   37.8170   24.7380   31.6810 N   0  0  0  0  0  0  0  0  0  0  0  0
   36.7620   25.5600   31.5430 C   0  0  0  0  0  3  0  0  0  0  0  0
   36.4990   26.5080   32.4600 N   0  0  0  0  0  0  0  0  0  0  0  0
   37.2890   26.6500   33.5340 C   0  0  0  0  0  0  0  0  0  0  0  0
   37.0270   27.6300   34.4940 C   0  0  0  0  0  3  0  0  0  0  0  0
   37.9010   27.7030   35.5720 C   0  0  0  0  0  0  0  0  0  0  0  0
   37.6490   28.4790   36.2820 H   0  0  0  0  0  0  0  0  0  0  0  0
   38.9780   26.8580   35.7050 C   0  0  0  0  0  0  0  0  0  0  0  0
   39.6290   26.9610   36.5720 H   0  0  0  0  0  0  0  0  0  0  0  0
   39.2420   25.8820   34.7530 C   0  0  0  0  0  3  0  0  0  0  0  0
   38.3630   25.8240   33.6880 C   0  0  0  0  0  0  0  0  0  0  0  0
  1  2  1  0  0  0  0
  1  4  1  0  0  0  0
  3  1  1  0  0  0  0
  4  5  1  0  0  0  0
  5 10  2  0  0  0  0
  5  6  1  0  0  0  0
  6  7  2  0  0  0  0
  7  8  1  0  0  0  0
  7 12  1  0  0  0  0
  9 13  1  0  0  0  0
  9  8  2  0  0  0  0
 10  9  1  0  0  0  0
 11  6  1  0  0  0  0
 14  1  1  0  0  0  0
 15 14  1  0  0  0  0
 15 26  1  0  0  0  0
 16 15  2  0  0  0  0
 17 16  1  0  0  0  0
 17 18  2  0  0  0  0
 18 19  1  0  0  0  0
 19 26  2  0  0  0  0
 19 20  1  0  0  0  0
 20 21  2  0  0  0  0
 21 23  1  0  0  0  0
 21 22  1  0  0  0  0
 23 24  1  0  0  0  0
 25 23  2  0  0  0  0
 26 25  1  0  0  0  0
M  END
>  <minimizedAffinity>
-4.77419853

$$$$

 OpenBabel03262521533D

 26 28  0  0  0  0  0  0  0  0999 V2000
   35.4430   24.7760   31.2550 C   0  0  0  0  0  0  0  0  0  0  0  0
   34.7890   24.5390   30.3970 H   0  0  0  0  0  0  0  0  0  0  0  0
   34.8010   24.6530   32.1760 H   0  0  0  0  0  0  0  0  0  0  0  0
   36.8250   23.6460   31.4310 S   0  0  0  0  0  0  0  0  0  0  0  0
   36.1970   21.9800   31.5120 C   0  0  0  0  0  0  0  0  0  0  0  0
   36.9400   21.0410   30.8170 C   0  0  0  0  0  0  0  0  0  0  0  0
   36.4920   19.7270   30.8500 C   0  0  0  0  0  0  0  0  0  0  0  0
   35.3480   19.4110   31.5580 N   0  0  0  0  0  0  0  0  0  0  0  0
   34.6710   20.3840   32.2150 C   0  0  0  0  0  0  0  0  0  0  0  0
   35.0860   21.6350   32.1920 N   0  0  0  0  0  0  0  0  0  0  0  0
   37.8400   21.2340   30.2490 H   0  0  0  0  0  0  0  0  0  0  0  0
   36.9930   18.9160   30.3450 H   0  0  0  0  0  0  0  0  0  0  0  0
   33.7860   20.0460   32.7430 H   0  0  0  0  0  0  0  0  0  0  0  0
   35.9570   26.5170   31.2460 S   0  0  0  0  0  0  0  0  0  0  0  0
   37.6520   26.6800   31.7540 C   0  0  0  0  0  0  0  0  0  0  0  0
   38.5440   26.6510   30.7420 N   0  0  0  0  0  0  0  0  0  0  0  0
   39.8600   26.7650   30.9940 C   0  0  0  0  0  3  0  0  0  0  0  0
   40.3130   26.9080   32.2520 N   0  0  0  0  0  0  0  0  0  0  0  0
   39.4560   26.9420   33.2820 C   0  0  0  0  0  0  0  0  0  0  0  0
   39.9140   27.0910   34.5930 C   0  0  0  0  0  3  0  0  0  0  0  0
   38.9510   27.1140   35.5950 C   0  0  0  0  0  0  0  0  0  0  0  0
   39.3630   27.2310   36.5890 H   0  0  0  0  0  0  0  0  0  0  0  0
   37.6070   26.9970   35.3290 C   0  0  0  0  0  0  0  0  0  0  0  0
   36.8980   27.0210   36.1550 H   0  0  0  0  0  0  0  0  0  0  0  0
   37.1470   26.8470   34.0260 C   0  0  0  0  0  3  0  0  0  0  0  0
   38.1180   26.8270   33.0430 C   0  0  0  0  0  0  0  0  0  0  0  0
  1  4  1  0  0  0  0
  1  3  1  0  0  0  0
  2  1  1  0  0  0  0
  4  5  1  0  0  0  0
  5 10  1  0  0  0  0
  6  7  1  0  0  0  0
  6  5  2  0  0  0  0
  7  8  2  0  0  0  0
  8  9  1  0  0  0  0
  9 13  1  0  0  0  0
 10  9  2  0  0  0  0
 11  6  1  0  0  0  0
 12  7  1  0  0  0  0
 14  1  1  0  0  0  0
 14 15  1  0  0  0  0
 15 26  1  0  0  0  0
 16 17  1  0  0  0  0
 16 15  2  0  0  0  0
 17 18  2  0  0  0  0
 18 19  1  0  0  0  0
 19 20  1  0  0  0  0
 20 21  2  0  0  0  0
 21 22  1  0  0  0  0
 23 21  1  0  0  0  0
 23 24  1  0  0  0  0
 25 23  2  0  0  0  0
 26 19  2  0  0  0  0
 26 25  1  0  0  0  0
M  END
>  <minimizedAffinity>
-4.76469755

$$$$

 OpenBabel03262521533D

 26 28  0  0  0  0  0  0  0  0999 V2000
   36.2110   27.9230   32.7820 C   0  0  0  0  0  0  0  0  0  0  0  0
   35.7210   27.3130   33.5610 H   0  0  0  0  0  0  0  0  0  0  0  0
   37.1510   28.3310   33.2560 H   0  0  0  0  0  0  0  0  0  0  0  0
   36.7220   26.9710   31.3500 S   0  0  0  0  0  0  0  0  0  0  0  0
   36.7100   25.2420   31.7760 C   0  0  0  0  0  0  0  0  0  0  0  0
   35.6920   24.5030   31.1970 C   0  0  0  0  0  0  0  0  0  0  0  0
   35.6400   23.1480   31.4970 C   0  0  0  0  0  0  0  0  0  0  0  0
   36.5840   22.5990   32.3440 N   0  0  0  0  0  0  0  0  0  0  0  0
   37.5530   23.3830   32.8750 C   0  0  0  0  0  0  0  0  0  0  0  0
   37.6130   24.6700   32.5970 N   0  0  0  0  0  0  0  0  0  0  0  0
   34.9300   24.8830   30.5280 H   0  0  0  0  0  0  0  0  0  0  0  0
   34.8910   22.4820   31.1010 H   0  0  0  0  0  0  0  0  0  0  0  0
   38.2490   22.8680   33.5270 H   0  0  0  0  0  0  0  0  0  0  0  0
   35.2160   29.3760   32.3410 S   0  0  0  0  0  0  0  0  0  0  0  0
   34.0620   29.7700   33.6320 C   0  0  0  0  0  0  0  0  0  0  0  0
   32.8300   29.2460   33.4610 N   0  0  0  0  0  0  0  0  0  0  0  0
   31.8650   29.4710   34.3690 C   0  0  0  0  0  3  0  0  0  0  0  0
   32.1030   30.2200   35.4610 N   0  0  0  0  0  0  0  0  0  0  0  0
   33.3150   30.7560   35.6640 C   0  0  0  0  0  0  0  0  0  0  0  0
   33.5750   31.5350   36.7940 C   0  0  0  0  0  3  0  0  0  0  0  0
   34.8600   32.0500   36.9190 C   0  0  0  0  0  0  0  0  0  0  0  0
   35.0040   32.6440   37.8110 H   0  0  0  0  0  0  0  0  0  0  0  0
   35.8420   31.8150   35.9850 C   0  0  0  0  0  0  0  0  0  0  0  0
   36.8320   32.2440   36.1350 H   0  0  0  0  0  0  0  0  0  0  0  0
   35.5870   31.0410   34.8590 C   0  0  0  0  0  3  0  0  0  0  0  0
   34.3050   30.5370   34.7520 C   0  0  0  0  0  0  0  0  0  0  0  0
  1  3  1  0  0  0  0
  1  2  1  0  0  0  0
  4  5  1  0  0  0  0
  4  1  1  0  0  0  0
  5 10  1  0  0  0  0
  6  7  1  0  0  0  0
  6  5  2  0  0  0  0
  7  8  2  0  0  0  0
  8  9  1  0  0  0  0
  9 13  1  0  0  0  0
 10  9  2  0  0  0  0
 11  6  1  0  0  0  0
 12  7  1  0  0  0  0
 14  1  1  0  0  0  0
 14 15  1  0  0  0  0
 15 26  1  0  0  0  0
 16 15  2  0  0  0  0
 16 17  1  0  0  0  0
 17 18  2  0  0  0  0
 18 19  1  0  0  0  0
 19 20  1  0  0  0  0
 20 21  2  0  0  0  0
 21 22  1  0  0  0  0
 23 24  1  0  0  0  0
 23 21  1  0  0  0  0
 25 23  2  0  0  0  0
 26 25  1  0  0  0  0
 26 19  2  0  0  0  0
M  END
>  <minimizedAffinity>
-4.7600193

$$$$

 OpenBabel03262521533D

 26 28  0  0  0  0  0  0  0  0999 V2000
   37.8260   26.1510   32.3760 C   0  0  0  0  0  0  0  0  0  0  0  0
   38.8300   25.8230   32.0550 H   0  0  0  0  0  0  0  0  0  0  0  0
   37.8100   27.2730   32.2420 H   0  0  0  0  0  0  0  0  0  0  0  0
   36.5020   25.4880   31.3630 S   0  0  0  0  0  0  0  0  0  0  0  0
   36.7470   23.7330   31.1760 C   0  0  0  0  0  0  0  0  0  0  0  0
   35.6430   22.9530   31.4730 C   0  0  0  0  0  0  0  0  0  0  0  0
   35.7830   21.5770   31.3420 C   0  0  0  0  0  0  0  0  0  0  0  0
   36.9920   21.0490   30.9310 N   0  0  0  0  0  0  0  0  0  0  0  0
   38.0310   21.8740   30.6570 C   0  0  0  0  0  0  0  0  0  0  0  0
   37.9100   23.1810   30.7770 N   0  0  0  0  0  0  0  0  0  0  0  0
   34.6760   23.3150   31.7980 H   0  0  0  0  0  0  0  0  0  0  0  0
   34.9880   20.8780   31.5460 H   0  0  0  0  0  0  0  0  0  0  0  0
   38.9390   21.3730   30.3410 H   0  0  0  0  0  0  0  0  0  0  0  0
   37.5600   25.8680   34.1490 S   0  0  0  0  0  0  0  0  0  0  0  0
   38.6570   24.6120   34.7620 C   0  0  0  0  0  0  0  0  0  0  0  0
   39.4470   24.0520   33.8220 N   0  0  0  0  0  0  0  0  0  0  0  0
   40.3220   23.0880   34.1580 C   0  0  0  0  0  3  0  0  0  0  0  0
   40.4280   22.6620   35.4300 N   0  0  0  0  0  0  0  0  0  0  0  0
   39.6590   23.1960   36.3890 C   0  0  0  0  0  0  0  0  0  0  0  0
   39.7600   22.7620   37.7130 C   0  0  0  0  0  3  0  0  0  0  0  0
   38.9220   23.3730   38.6390 C   0  0  0  0  0  0  0  0  0  0  0  0
   39.0430   22.9980   39.6460 H   0  0  0  0  0  0  0  0  0  0  0  0
   38.0290   24.3580   38.2870 C   0  0  0  0  0  0  0  0  0  0  0  0
   37.3970   24.8010   39.0550 H   0  0  0  0  0  0  0  0  0  0  0  0
   37.9260   24.7920   36.9710 C   0  0  0  0  0  3  0  0  0  0  0  0
   38.7670   24.1740   36.0650 C   0  0  0  0  0  0  0  0  0  0  0  0
  1 14  1  0  0  0  0
  2  1  1  0  0  0  0
  3  1  1  0  0  0  0
  4  1  1  0  0  0  0
  5  4  1  0  0  0  0
  5  6  1  0  0  0  0
  6 11  1  0  0  0  0
  7  6  2  0  0  0  0
  7 12  1  0  0  0  0
  8  7  1  0  0  0  0
  9 10  1  0  0  0  0
  9  8  2  0  0  0  0
 10  5  2  0  0  0  0
 13  9  1  0  0  0  0
 14 15  1  0  0  0  0
 15 26  1  0  0  0  0
 16 17  1  0  0  0  0
 16 15  2  0  0  0  0
 17 18  2  0  0  0  0
 18 19  1  0  0  0  0
 19 20  1  0  0  0  0
 20 21  2  0  0  0  0
 21 22  1  0  0  0  0
 23 21  1  0  0  0  0
 23 24  1  0  0  0  0
 25 23  2  0  0  0  0
 26 19  2  0  0  0  0
 26 25  1  0  0  0  0
M  END
>  <minimizedAffinity>
-4.73932171

$$$$

 OpenBabel03262521533D

 26 28  0  0  0  0  0  0  0  0999 V2000
   38.9780   25.6540   33.5270 C   0  0  0  0  0  0  0  0  0  0  0  0
   39.3410   26.3970   34.2590 H   0  0  0  0  0  0  0  0  0  0  0  0
   39.4870   25.9070   32.5510 H   0  0  0  0  0  0  0  0  0  0  0  0
   39.4420   23.9690   33.9330 S   0  0  0  0  0  0  0  0  0  0  0  0
   39.2110   23.7150   35.6800 C   0  0  0  0  0  0  0  0  0  0  0  0
   40.1770   22.9340   36.2910 C   0  0  0  0  0  0  0  0  0  0  0  0
   40.0410   22.7070   37.6550 C   0  0  0  0  0  0  0  0  0  0  0  0
   38.9720   23.2550   38.3370 N   0  0  0  0  0  0  0  0  0  0  0  0
   38.0630   24.0110   37.6730 C   0  0  0  0  0  0  0  0  0  0  0  0
   38.1820   24.2330   36.3790 N   0  0  0  0  0  0  0  0  0  0  0  0
   41.0320   22.4820   35.8060 H   0  0  0  0  0  0  0  0  0  0  0  0
   40.7360   22.1140   38.2290 H   0  0  0  0  0  0  0  0  0  0  0  0
   37.2590   24.4000   38.2870 H   0  0  0  0  0  0  0  0  0  0  0  0
   37.2000   25.8340   33.2110 S   0  0  0  0  0  0  0  0  0  0  0  0
   36.8710   27.2900   32.2460 C   0  0  0  0  0  0  0  0  0  0  0  0
   37.1260   27.1560   30.9280 N   0  0  0  0  0  0  0  0  0  0  0  0
   36.9180   28.1860   30.0890 C   0  0  0  0  0  3  0  0  0  0  0  0
   36.4560   29.3650   30.5430 N   0  0  0  0  0  0  0  0  0  0  0  0
   36.1920   29.5340   31.8460 C   0  0  0  0  0  0  0  0  0  0  0  0
   35.7110   30.7530   32.3290 C   0  0  0  0  0  3  0  0  0  0  0  0
   35.4670   30.8340   33.6950 C   0  0  0  0  0  0  0  0  0  0  0  0
   35.0970   31.8000   34.0120 H   0  0  0  0  0  0  0  0  0  0  0  0
   35.6820   29.7750   34.5460 C   0  0  0  0  0  0  0  0  0  0  0  0
   35.4730   29.8970   35.6080 H   0  0  0  0  0  0  0  0  0  0  0  0
   36.1610   28.5610   34.0700 C   0  0  0  0  0  3  0  0  0  0  0  0
   36.3970   28.4980   32.7100 C   0  0  0  0  0  0  0  0  0  0  0  0
  1  4  1  0  0  0  0
  1  2  1  0  0  0  0
  3  1  1  0  0  0  0
  4  5  1  0  0  0  0
  5  6  2  0  0  0  0
  5 10  1  0  0  0  0
  6  7  1  0  0  0  0
  7 12  1  0  0  0  0
  7  8  2  0  0  0  0
  9 13  1  0  0  0  0
  9  8  1  0  0  0  0
 10  9  2  0  0  0  0
 11  6  1  0  0  0  0
 14  1  1  0  0  0  0
 15 26  1  0  0  0  0
 15 14  1  0  0  0  0
 16 15  2  0  0  0  0
 17 18  2  0  0  0  0
 17 16  1  0  0  0  0
 18 19  1  0  0  0  0
 19 20  2  0  0  0  0
 19 26  1  0  0  0  0
 20 21  1  0  0  0  0
 21 22  1  0  0  0  0
 21 23  2  0  0  0  0
 23 24  1  0  0  0  0
 25 23  1  0  0  0  0
 26 25  2  0  0  0  0
M  END
>  <minimizedAffinity>
-4.70930004

$$$$

 OpenBabel03262521533D

 26 28  0  0  0  0  0  0  0  0999 V2000
   40.2200   23.5870   32.4540 C   0  0  0  0  0  0  0  0  0  0  0  0
   39.6670   23.8790   31.5430 H   0  0  0  0  0  0  0  0  0  0  0  0
   41.1320   23.0270   32.0940 H   0  0  0  0  0  0  0  0  0  0  0  0
   40.8130   24.9870   33.4070 S   0  0  0  0  0  0  0  0  0  0  0  0
   39.4110   25.9200   33.9880 C   0  0  0  0  0  0  0  0  0  0  0  0
   39.6330   26.6500   35.1430 C   0  0  0  0  0  0  0  0  0  0  0  0
   38.5700   27.3960   35.6370 C   0  0  0  0  0  0  0  0  0  0  0  0
   37.3580   27.3820   34.9730 N   0  0  0  0  0  0  0  0  0  0  0  0
   37.2130   26.6430   33.8470 C   0  0  0  0  0  0  0  0  0  0  0  0
   38.2150   25.9310   33.3690 N   0  0  0  0  0  0  0  0  0  0  0  0
   40.5600   26.6970   35.7000 H   0  0  0  0  0  0  0  0  0  0  0  0
   38.6330   28.0010   36.5280 H   0  0  0  0  0  0  0  0  0  0  0  0
   36.2300   26.6910   33.3940 H   0  0  0  0  0  0  0  0  0  0  0  0
   39.2820   22.4010   33.4580 S   0  0  0  0  0  0  0  0  0  0  0  0
   39.8940   22.3590   35.1260 C   0  0  0  0  0  0  0  0  0  0  0  0
   41.0940   21.7580   35.2660 N   0  0  0  0  0  0  0  0  0  0  0  0
   41.6660   21.6610   36.4790 C   0  0  0  0  0  3  0  0  0  0  0  0
   41.0590   22.1570   37.5720 N   0  0  0  0  0  0  0  0  0  0  0  0
   39.8660   22.7600   37.4700 C   0  0  0  0  0  0  0  0  0  0  0  0
   39.2260   23.2790   38.5970 C   0  0  0  0  0  3  0  0  0  0  0  0
   37.9920   23.8860   38.3940 C   0  0  0  0  0  0  0  0  0  0  0  0
   37.5430   24.2700   39.3000 H   0  0  0  0  0  0  0  0  0  0  0  0
   37.4140   23.9810   37.1500 C   0  0  0  0  0  0  0  0  0  0  0  0
   36.4450   24.4680   37.0500 H   0  0  0  0  0  0  0  0  0  0  0  0
   38.0470   23.4660   36.0260 C   0  0  0  0  0  3  0  0  0  0  0  0
   39.2730   22.8660   36.2470 C   0  0  0  0  0  0  0  0  0  0  0  0
  1  4  1  0  0  0  0
  1 14  1  0  0  0  0
  2  1  1  0  0  0  0
  3  1  1  0  0  0  0
  4  5  1  0  0  0  0
  5  6  1  0  0  0  0
  6  7  2  0  0  0  0
  6 11  1  0  0  0  0
  7 12  1  0  0  0  0
  8  7  1  0  0  0  0
  9  8  2  0  0  0  0
 10  9  1  0  0  0  0
 10  5  2  0  0  0  0
 13  9  1  0  0  0  0
 14 15  1  0  0  0  0
 15 16  2  0  0  0  0
 15 26  1  0  0  0  0
 16 17  1  0  0  0  0
 17 18  2  0  0  0  0
 19 18  1  0  0  0  0
 19 20  1  0  0  0  0
 21 20  2  0  0  0  0
 21 22  1  0  0  0  0
 23 21  1  0  0  0  0
 24 23  1  0  0  0  0
 25 26  1  0  0  0  0
 25 23  2  0  0  0  0
 26 19  2  0  0  0  0
M  END
>  <minimizedAffinity>
-4.68567038

$$$$
