
 OpenBabel03272509473D

 28 30  0  0  0  0  0  0  0  0999 V2000
   33.3840   27.7840   48.0570 C   0  0  0  0  0  0  0  0  0  0  0  0
   33.1280   26.7590   48.4330 H   0  0  0  0  0  0  0  0  0  0  0  0
   34.2040   27.6030   47.3300 H   0  0  0  0  0  0  0  0  0  0  0  0
   32.1690   28.3270   47.4210 C   0  0  0  0  0  0  0  0  0  0  0  0
   30.9360   27.9940   47.8730 N   0  0  0  0  0  0  0  0  0  0  0  0
   29.8080   28.4660   47.3630 C   0  0  0  0  0  3  0  0  0  0  0  0
   29.8440   29.3300   46.3350 N   0  0  0  0  0  0  0  0  0  0  0  0
   31.0050   29.7250   45.8100 C   0  0  0  0  0  0  0  0  0  0  0  0
   31.0040   30.6060   44.7530 C   0  0  0  0  0  3  0  0  0  0  0  0
   32.2380   30.9670   44.2550 C   0  0  0  0  0  0  0  0  0  0  0  0
   32.2300   31.6610   43.4220 H   0  0  0  0  0  0  0  0  0  0  0  0
   33.4370   30.4890   44.7650 C   0  0  0  0  0  0  0  0  0  0  0  0
   34.3600   30.8380   44.2970 H   0  0  0  0  0  0  0  0  0  0  0  0
   33.3590   29.6080   45.8280 C   0  0  0  0  0  3  0  0  0  0  0  0
   32.1540   29.2120   46.3670 C   0  0  0  0  0  0  0  0  0  0  0  0
   33.8220   28.5660   49.2500 C   0  0  0  0  0  0  0  0  0  0  0  0
   33.0510   28.4670   50.0490 H   0  0  0  0  0  0  0  0  0  0  0  0
   33.8500   29.6370   49.0050 H   0  0  0  0  0  0  0  0  0  0  0  0
   35.0790   28.0970   49.7160 O   0  0  0  0  0  0  0  0  0  0  0  0
   37.3730   30.3400   51.3770 C   0  0  0  0  0  0  0  0  0  0  0  0
   38.0410   30.8720   50.2740 C   0  0  0  0  0  0  0  0  0  0  0  0
   37.6680   30.4290   48.9990 C   0  0  0  0  0  0  0  0  0  0  0  0
   36.6650   29.5000   48.9380 N   0  0  0  0  0  0  0  0  0  0  0  0
   36.0500   29.0160   50.0220 C   0  0  0  0  0  0  0  0  0  0  0  0
   36.4170   29.4490   51.2460 N   0  0  0  0  0  0  0  0  0  0  0  0
   37.6450   30.6680   52.3800 H   0  0  0  0  0  0  0  0  0  0  0  0
   38.8250   31.6030   50.3820 H   0  0  0  0  0  0  0  0  0  0  0  0
   38.1480   30.8020   48.1010 H   0  0  0  0  0  0  0  0  0  0  0  0
  1  2  1  0  0  0  0
  1 16  1  0  0  0  0
  3  1  1  0  0  0  0
  4  5  1  0  0  0  0
  4  1  1  0  0  0  0
  6  5  2  0  0  0  0
  7  6  1  0  0  0  0
  8  7  2  0  0  0  0
  8 15  1  0  0  0  0
  9  8  1  0  0  0  0
 10  9  2  0  0  0  0
 10 12  1  0  0  0  0
 11 10  1  0  0  0  0
 12 14  2  0  0  0  0
 13 12  1  0  0  0  0
 14 15  1  0  0  0  0
 15  4  2  0  0  0  0
 16 19  1  0  0  0  0
 16 17  1  0  0  0  0
 18 16  1  0  0  0  0
 19 24  1  0  0  0  0
 20 26  1  0  0  0  0
 21 27  1  0  0  0  0
 21 20  2  0  0  0  0
 22 21  1  0  0  0  0
 23 22  2  0  0  0  0
 23 24  1  0  0  0  0
 24 25  2  0  0  0  0
 25 20  1  0  0  0  0
 28 22  1  0  0  0  0
M  END
>  <minimizedAffinity>
-4.54671812

>  <minimizedRMSD>
2.06367636

$$$$
