
 OpenBabel03262520473D

 37 40  0  0  1  0  0  0  0  0999 V2000
   37.6070   26.2460   34.7530 C   0  0  1  0  0  0  0  0  0  0  0  0
   37.8750   27.6680   35.2190 C   0  0  0  0  0  0  0  0  0  0  0  0
   37.6200   27.3630   33.7880 C   0  0  2  0  0  0  0  0  0  0  0  0
   36.6460   25.7710   35.0220 H   0  0  0  0  0  0  0  0  0  0  0  0
   37.0110   28.1340   35.7650 H   0  0  0  0  0  0  0  0  0  0  0  0
   38.8770   27.9780   35.5370 H   0  0  0  0  0  0  0  0  0  0  0  0
   38.4970   27.5010   33.1210 H   0  0  0  0  0  0  0  0  0  0  0  0
   38.7790   25.3100   34.8670 C   0  0  0  0  0  0  0  0  0  0  0  0
   39.7430   25.8590   34.7950 H   0  0  0  0  0  0  0  0  0  0  0  0
   38.7540   24.5850   34.0390 H   0  0  0  0  0  0  0  0  0  0  0  0
   39.7300   22.8510   37.5210 C   0  0  0  0  0  0  0  0  0  0  0  0
   39.7220   23.5920   36.3040 C   0  0  0  0  0  0  0  0  0  0  0  0
   38.7620   24.5560   36.1450 C   0  0  0  0  0  0  0  0  0  0  0  0
   37.8810   24.7670   37.1200 N   0  0  0  0  0  0  0  0  0  0  0  0
   37.9000   24.0600   38.2670 C   0  0  0  0  0  0  0  0  0  0  0  0
   38.8280   23.1050   38.4570 N   0  0  0  0  0  0  0  0  0  0  0  0
   40.5370   22.1030   37.5520 H   0  0  0  0  0  0  0  0  0  0  0  0
   40.4610   23.3950   35.5190 H   0  0  0  0  0  0  0  0  0  0  0  0
   37.1850   24.2170   39.0820 H   0  0  0  0  0  0  0  0  0  0  0  0
   36.2870   27.6640   33.1470 C   0  0  0  0  0  0  0  0  0  0  0  0
   36.2680   27.1830   32.1520 H   0  0  0  0  0  0  0  0  0  0  0  0
   35.4290   27.2310   33.7160 H   0  0  0  0  0  0  0  0  0  0  0  0
   36.0590   29.1340   32.9100 C   0  0  0  0  0  0  0  0  0  0  0  0
   36.0920   29.2950   31.7950 H   0  0  0  0  0  0  0  0  0  0  0  0
   36.8210   29.7580   33.4020 H   0  0  0  0  0  0  0  0  0  0  0  0
   34.7030   29.4670   33.4170 C   0  0  0  0  0  0  0  0  0  0  0  0
   33.5320   29.0330   32.8890 N   0  0  0  0  0  0  0  0  0  0  0  0
   32.3480   29.3760   33.4020 C   0  0  0  0  0  3  0  0  0  0  0  0
   32.3330   30.1800   34.4810 N   0  0  0  0  0  0  0  0  0  0  0  0
   33.4700   30.6500   35.0580 C   0  0  0  0  0  0  0  0  0  0  0  0
   33.2800   31.4590   36.1510 C   0  0  0  0  0  3  0  0  0  0  0  0
   34.4260   31.9500   36.7590 C   0  0  0  0  0  0  0  0  0  0  0  0
   34.3220   32.5880   37.6180 H   0  0  0  0  0  0  0  0  0  0  0  0
   35.6760   31.6080   36.2430 C   0  0  0  0  0  0  0  0  0  0  0  0
   36.5780   31.9860   36.7100 H   0  0  0  0  0  0  0  0  0  0  0  0
   35.8290   30.7890   35.1390 C   0  0  0  0  0  3  0  0  0  0  0  0
   34.6930   30.2880   34.5180 C   0  0  0  0  0  0  0  0  0  0  0  0
  1  8  1  0  0  0  0
  1  4  1  1  0  0  0
  1  2  1  0  0  0  0
  2  6  1  0  0  0  0
  2  5  1  0  0  0  0
  3  7  1  6  0  0  0
  3  1  1  0  0  0  0
  3  2  1  0  0  0  0
  8 13  1  0  0  0  0
  9  8  1  0  0  0  0
 10  8  1  0  0  0  0
 11 17  1  0  0  0  0
 11 16  1  0  0  0  0
 12 11  2  0  0  0  0
 13 12  1  0  0  0  0
 13 14  2  0  0  0  0
 14 15  1  0  0  0  0
 15 16  2  0  0  0  0
 15 19  1  0  0  0  0
 18 12  1  0  0  0  0
 20 22  1  0  0  0  0
 20  3  1  0  0  0  0
 21 20  1  0  0  0  0
 23 20  1  0  0  0  0
 23 25  1  0  0  0  0
 23 26  1  0  0  0  0
 24 23  1  0  0  0  0
 26 37  1  0  0  0  0
 27 28  1  0  0  0  0
 27 26  2  0  0  0  0
 28 29  2  0  0  0  0
 29 30  1  0  0  0  0
 30 31  1  0  0  0  0
 31 32  2  0  0  0  0
 32 33  1  0  0  0  0
 34 35  1  0  0  0  0
 34 32  1  0  0  0  0
 36 34  2  0  0  0  0
 37 30  2  0  0  0  0
 37 36  1  0  0  0  0
M  END
>  <minimizedAffinity>
-5.70419168

$$$$

 OpenBabel03262520473D

 37 40  0  0  1  0  0  0  0  0999 V2000
   38.2480   25.9490   35.4460 C   0  0  1  0  0  0  0  0  0  0  0  0
   38.1600   27.4100   35.8520 C   0  0  0  0  0  0  0  0  0  0  0  0
   39.4310   26.8270   35.3490 C   0  0  2  0  0  0  0  0  0  0  0  0
   37.7370   25.6230   34.5210 H   0  0  0  0  0  0  0  0  0  0  0  0
   37.6100   28.0520   35.1130 H   0  0  0  0  0  0  0  0  0  0  0  0
   38.0760   27.6990   36.9060 H   0  0  0  0  0  0  0  0  0  0  0  0
   40.2360   26.7460   36.1100 H   0  0  0  0  0  0  0  0  0  0  0  0
   38.1050   24.9660   36.5760 C   0  0  0  0  0  0  0  0  0  0  0  0
   37.0730   24.5580   36.6270 H   0  0  0  0  0  0  0  0  0  0  0  0
   38.3030   25.4740   37.5330 H   0  0  0  0  0  0  0  0  0  0  0  0
   40.4770   22.2310   37.5160 C   0  0  0  0  0  0  0  0  0  0  0  0
   39.5630   23.3200   37.6090 C   0  0  0  0  0  0  0  0  0  0  0  0
   39.0540   23.8330   36.4450 C   0  0  0  0  0  0  0  0  0  0  0  0
   39.4250   23.3040   35.2810 N   0  0  0  0  0  0  0  0  0  0  0  0
   40.2900   22.2730   35.2070 C   0  0  0  0  0  0  0  0  0  0  0  0
   40.8090   21.7440   36.3300 N   0  0  0  0  0  0  0  0  0  0  0  0
   40.8280   21.8910   38.5030 H   0  0  0  0  0  0  0  0  0  0  0  0
   39.2770   23.7340   38.5820 H   0  0  0  0  0  0  0  0  0  0  0  0
   40.6080   21.8230   34.2610 H   0  0  0  0  0  0  0  0  0  0  0  0
   39.9150   27.0910   33.9450 C   0  0  0  0  0  0  0  0  0  0  0  0
   39.4740   28.0460   33.6040 H   0  0  0  0  0  0  0  0  0  0  0  0
   41.0220   27.2250   33.8900 H   0  0  0  0  0  0  0  0  0  0  0  0
   39.4720   26.0460   32.9560 C   0  0  0  0  0  0  0  0  0  0  0  0
   39.1440   25.1470   33.5520 H   0  0  0  0  0  0  0  0  0  0  0  0
   40.2780   25.7620   32.2620 H   0  0  0  0  0  0  0  0  0  0  0  0
   38.3100   26.5940   32.2100 C   0  0  0  0  0  0  0  0  0  0  0  0
   38.1570   27.8850   31.8220 N   0  0  0  0  0  0  0  0  0  0  0  0
   37.0820   28.3050   31.1520 C   0  0  0  0  0  3  0  0  0  0  0  0
   36.1260   27.4040   30.8570 N   0  0  0  0  0  0  0  0  0  0  0  0
   36.2180   26.0970   31.2160 C   0  0  0  0  0  0  0  0  0  0  0  0
   35.1570   25.3100   30.8380 C   0  0  0  0  0  3  0  0  0  0  0  0
   35.2290   23.9710   31.1930 C   0  0  0  0  0  0  0  0  0  0  0  0
   34.4190   23.3210   30.9170 H   0  0  0  0  0  0  0  0  0  0  0  0
   36.3410   23.5060   31.8940 C   0  0  0  0  0  0  0  0  0  0  0  0
   36.4070   22.4620   32.1750 H   0  0  0  0  0  0  0  0  0  0  0  0
   37.3920   24.3280   32.2570 C   0  0  0  0  0  3  0  0  0  0  0  0
   37.3380   25.6710   31.9110 C   0  0  0  0  0  0  0  0  0  0  0  0
  1  4  1  6  0  0  0
  1  2  1  0  0  0  0
  1  8  1  0  0  0  0
  2  6  1  0  0  0  0
  3  1  1  0  0  0  0
  3  2  1  0  0  0  0
  3  7  1  1  0  0  0
  5  2  1  0  0  0  0
  8  9  1  0  0  0  0
  8 10  1  0  0  0  0
 11 12  1  0  0  0  0
 11 17  1  0  0  0  0
 12 18  1  0  0  0  0
 13  8  1  0  0  0  0
 13 12  2  0  0  0  0
 14 13  1  0  0  0  0
 15 14  2  0  0  0  0
 15 16  1  0  0  0  0
 16 11  2  0  0  0  0
 19 15  1  0  0  0  0
 20  3  1  0  0  0  0
 21 20  1  0  0  0  0
 22 20  1  0  0  0  0
 23 24  1  0  0  0  0
 23 20  1  0  0  0  0
 25 23  1  0  0  0  0
 26 23  1  0  0  0  0
 27 26  2  0  0  0  0
 28 27  1  0  0  0  0
 29 28  2  0  0  0  0
 29 30  1  0  0  0  0
 30 37  1  0  0  0  0
 31 32  1  0  0  0  0
 31 30  2  0  0  0  0
 32 34  2  0  0  0  0
 33 32  1  0  0  0  0
 34 35  1  0  0  0  0
 34 36  1  0  0  0  0
 37 26  1  0  0  0  0
 37 36  2  0  0  0  0
M  END
>  <minimizedAffinity>
-5.49657106

$$$$

 OpenBabel03262520473D

 37 40  0  0  1  0  0  0  0  0999 V2000
   37.1340   27.7770   33.1250 C   0  0  1  0  0  0  0  0  0  0  0  0
   36.3340   28.4260   34.2420 C   0  0  0  0  0  0  0  0  0  0  0  0
   36.9250   27.0730   34.4060 C   0  0  2  0  0  0  0  0  0  0  0  0
   38.1350   28.1810   32.8850 H   0  0  0  0  0  0  0  0  0  0  0  0
   36.8840   29.2490   34.7720 H   0  0  0  0  0  0  0  0  0  0  0  0
   35.2460   28.5360   34.1650 H   0  0  0  0  0  0  0  0  0  0  0  0
   36.1840   26.2470   34.4610 H   0  0  0  0  0  0  0  0  0  0  0  0
   36.3380   27.4120   31.9030 C   0  0  0  0  0  0  0  0  0  0  0  0
   36.5700   28.0870   31.0530 H   0  0  0  0  0  0  0  0  0  0  0  0
   35.2630   27.5160   32.1190 H   0  0  0  0  0  0  0  0  0  0  0  0
   35.7340   23.8100   31.0910 C   0  0  0  0  0  0  0  0  0  0  0  0
   35.5210   25.1590   31.4950 C   0  0  0  0  0  0  0  0  0  0  0  0
   36.5920   26.0130   31.4760 C   0  0  0  0  0  0  0  0  0  0  0  0
   37.7810   25.5600   31.0850 N   0  0  0  0  0  0  0  0  0  0  0  0
   37.9690   24.2810   30.7040 C   0  0  0  0  0  0  0  0  0  0  0  0
   36.9400   23.4150   30.7100 N   0  0  0  0  0  0  0  0  0  0  0  0
   34.8150   23.2060   31.1410 H   0  0  0  0  0  0  0  0  0  0  0  0
   34.5300   25.5030   31.8130 H   0  0  0  0  0  0  0  0  0  0  0  0
   38.9380   23.8880   30.3780 H   0  0  0  0  0  0  0  0  0  0  0  0
   38.1730   26.8560   35.2240 C   0  0  0  0  0  0  0  0  0  0  0  0
   38.8830   27.6710   34.9910 H   0  0  0  0  0  0  0  0  0  0  0  0
   37.9830   26.9170   36.3230 H   0  0  0  0  0  0  0  0  0  0  0  0
   38.8860   25.5700   34.8950 C   0  0  0  0  0  0  0  0  0  0  0  0
   39.9530   25.8390   34.6520 H   0  0  0  0  0  0  0  0  0  0  0  0
   38.4260   25.0470   34.0420 H   0  0  0  0  0  0  0  0  0  0  0  0
   38.8560   24.7150   36.1100 C   0  0  0  0  0  0  0  0  0  0  0  0
   37.9470   24.7960   37.1130 N   0  0  0  0  0  0  0  0  0  0  0  0
   37.9840   23.9900   38.1760 C   0  0  0  0  0  3  0  0  0  0  0  0
   38.9640   23.0700   38.2400 N   0  0  0  0  0  0  0  0  0  0  0  0
   39.9060   22.9360   37.2700 C   0  0  0  0  0  0  0  0  0  0  0  0
   40.8360   21.9490   37.4880 C   0  0  0  0  0  3  0  0  0  0  0  0
   41.8070   21.7930   36.5110 C   0  0  0  0  0  0  0  0  0  0  0  0
   42.5540   21.0310   36.6430 H   0  0  0  0  0  0  0  0  0  0  0  0
   41.7920   22.6220   35.3900 C   0  0  0  0  0  0  0  0  0  0  0  0
   42.5450   22.5080   34.6200 H   0  0  0  0  0  0  0  0  0  0  0  0
   40.8380   23.6060   35.2030 C   0  0  0  0  0  3  0  0  0  0  0  0
   39.8580   23.7770   36.1700 C   0  0  0  0  0  0  0  0  0  0  0  0
  1  4  1  6  0  0  0
  1  2  1  0  0  0  0
  1  3  1  0  0  0  0
  2  3  1  0  0  0  0
  2  5  1  0  0  0  0
  3  7  1  6  0  0  0
  3 20  1  0  0  0  0
  6  2  1  0  0  0  0
  8 10  1  0  0  0  0
  8  1  1  0  0  0  0
  9  8  1  0  0  0  0
 11 17  1  0  0  0  0
 11 12  1  0  0  0  0
 12 18  1  0  0  0  0
 13 12  2  0  0  0  0
 13  8  1  0  0  0  0
 14 13  1  0  0  0  0
 15 16  1  0  0  0  0
 15 14  2  0  0  0  0
 16 11  2  0  0  0  0
 19 15  1  0  0  0  0
 20 22  1  0  0  0  0
 21 20  1  0  0  0  0
 23 20  1  0  0  0  0
 23 26  1  0  0  0  0
 24 23  1  0  0  0  0
 25 23  1  0  0  0  0
 26 37  2  0  0  0  0
 26 27  1  0  0  0  0
 27 28  2  0  0  0  0
 28 29  1  0  0  0  0
 30 31  1  0  0  0  0
 30 29  2  0  0  0  0
 32 33  1  0  0  0  0
 32 31  2  0  0  0  0
 34 32  1  0  0  0  0
 35 34  1  0  0  0  0
 36 34  2  0  0  0  0
 36 37  1  0  0  0  0
 37 30  1  0  0  0  0
M  END
>  <minimizedAffinity>
-5.48685169

$$$$

 OpenBabel03262520473D

 37 40  0  0  1  0  0  0  0  0999 V2000
   35.4880   29.1320   33.8910 C   0  0  1  0  0  0  0  0  0  0  0  0
   35.6140   28.4210   32.5540 C   0  0  0  0  0  0  0  0  0  0  0  0
   36.6870   28.3300   33.5770 C   0  0  2  0  0  0  0  0  0  0  0  0
   34.7580   28.7510   34.6280 H   0  0  0  0  0  0  0  0  0  0  0  0
   34.9660   27.5090   32.4650 H   0  0  0  0  0  0  0  0  0  0  0  0
   35.7930   28.9850   31.6310 H   0  0  0  0  0  0  0  0  0  0  0  0
   37.6330   28.8440   33.3030 H   0  0  0  0  0  0  0  0  0  0  0  0
   35.5220   30.6340   33.8170 C   0  0  0  0  0  0  0  0  0  0  0  0
   35.0890   31.0010   32.8630 H   0  0  0  0  0  0  0  0  0  0  0  0
   36.5660   30.9820   33.8580 H   0  0  0  0  0  0  0  0  0  0  0  0
   34.8400   32.2750   37.1100 C   0  0  0  0  0  0  0  0  0  0  0  0
   35.5240   31.6710   36.0150 C   0  0  0  0  0  0  0  0  0  0  0  0
   34.7810   31.2580   34.9410 C   0  0  0  0  0  0  0  0  0  0  0  0
   33.4610   31.4320   34.9560 N   0  0  0  0  0  0  0  0  0  0  0  0
   32.8260   32.0050   35.9970 C   0  0  0  0  0  0  0  0  0  0  0  0
   33.5250   32.4220   37.0680 N   0  0  0  0  0  0  0  0  0  0  0  0
   35.5240   32.5710   37.9200 H   0  0  0  0  0  0  0  0  0  0  0  0
   36.6120   31.5410   36.0330 H   0  0  0  0  0  0  0  0  0  0  0  0
   31.7420   32.1580   36.0300 H   0  0  0  0  0  0  0  0  0  0  0  0
   36.8630   27.0920   34.4210 C   0  0  0  0  0  0  0  0  0  0  0  0
   35.9730   26.9880   35.0690 H   0  0  0  0  0  0  0  0  0  0  0  0
   36.9100   26.1580   33.8090 H   0  0  0  0  0  0  0  0  0  0  0  0
   38.0510   27.1630   35.3440 C   0  0  0  0  0  0  0  0  0  0  0  0
   37.6470   27.2050   36.3950 H   0  0  0  0  0  0  0  0  0  0  0  0
   38.6780   28.0460   35.1460 H   0  0  0  0  0  0  0  0  0  0  0  0
   38.8360   25.9140   35.1660 C   0  0  0  0  0  0  0  0  0  0  0  0
   39.5860   25.5990   34.0810 N   0  0  0  0  0  0  0  0  0  0  0  0
   40.2670   24.4540   33.9930 C   0  0  0  0  0  3  0  0  0  0  0  0
   40.1970   23.5940   35.0260 N   0  0  0  0  0  0  0  0  0  0  0  0
   39.4640   23.8490   36.1420 C   0  0  0  0  0  0  0  0  0  0  0  0
   39.4980   22.8670   37.1020 C   0  0  0  0  0  3  0  0  0  0  0  0
   38.7580   23.1050   38.2500 C   0  0  0  0  0  0  0  0  0  0  0  0
   38.7580   22.3620   39.0270 H   0  0  0  0  0  0  0  0  0  0  0  0
   38.0370   24.2930   38.3680 C   0  0  0  0  0  0  0  0  0  0  0  0
   37.4560   24.4900   39.2610 H   0  0  0  0  0  0  0  0  0  0  0  0
   38.0260   25.2600   37.3790 C   0  0  0  0  0  3  0  0  0  0  0  0
   38.7610   25.0400   36.2230 C   0  0  0  0  0  0  0  0  0  0  0  0
  1  4  1  1  0  0  0
  2  3  1  0  0  0  0
  2  1  1  0  0  0  0
  3  7  1  6  0  0  0
  3  1  1  0  0  0  0
  3 20  1  0  0  0  0
  5  2  1  0  0  0  0
  6  2  1  0  0  0  0
  8 10  1  0  0  0  0
  8  1  1  0  0  0  0
  8 13  1  0  0  0  0
  9  8  1  0  0  0  0
 11 17  1  0  0  0  0
 12 18  1  0  0  0  0
 12 11  2  0  0  0  0
 13 14  2  0  0  0  0
 13 12  1  0  0  0  0
 14 15  1  0  0  0  0
 15 19  1  0  0  0  0
 15 16  2  0  0  0  0
 16 11  1  0  0  0  0
 20 21  1  0  0  0  0
 20 23  1  0  0  0  0
 22 20  1  0  0  0  0
 23 24  1  0  0  0  0
 25 23  1  0  0  0  0
 26 23  1  0  0  0  0
 26 37  1  0  0  0  0
 27 26  2  0  0  0  0
 28 27  1  0  0  0  0
 28 29  2  0  0  0  0
 29 30  1  0  0  0  0
 30 37  2  0  0  0  0
 30 31  1  0  0  0  0
 31 32  2  0  0  0  0
 32 34  1  0  0  0  0
 32 33  1  0  0  0  0
 34 35  1  0  0  0  0
 36 34  2  0  0  0  0
 37 36  1  0  0  0  0
M  END
>  <minimizedAffinity>
-5.35667515

$$$$

 OpenBabel03262520473D

 37 40  0  0  1  0  0  0  0  0999 V2000
   37.6700   28.4290   31.1920 C   0  0  1  0  0  0  0  0  0  0  0  0
   37.3870   28.4990   29.7000 C   0  0  0  0  0  0  0  0  0  0  0  0
   36.2880   28.5830   30.6960 C   0  0  2  0  0  0  0  0  0  0  0  0
   38.1710   29.2850   31.6780 H   0  0  0  0  0  0  0  0  0  0  0  0
   37.6770   29.4780   29.2320 H   0  0  0  0  0  0  0  0  0  0  0  0
   37.4770   27.6100   29.0660 H   0  0  0  0  0  0  0  0  0  0  0  0
   35.6030   27.7090   30.7040 H   0  0  0  0  0  0  0  0  0  0  0  0
   38.1710   27.0970   31.6800 C   0  0  0  0  0  0  0  0  0  0  0  0
   39.0840   26.7840   31.1300 H   0  0  0  0  0  0  0  0  0  0  0  0
   37.4040   26.3270   31.5050 H   0  0  0  0  0  0  0  0  0  0  0  0
   37.7160   27.4630   35.3750 C   0  0  0  0  0  0  0  0  0  0  0  0
   37.4490   27.4300   33.9760 C   0  0  0  0  0  0  0  0  0  0  0  0
   38.4820   27.1230   33.1310 C   0  0  0  0  0  0  0  0  0  0  0  0
   39.6860   26.8680   33.6380 N   0  0  0  0  0  0  0  0  0  0  0  0
   39.9260   26.9020   34.9640 C   0  0  0  0  0  0  0  0  0  0  0  0
   38.9350   27.2000   35.8230 N   0  0  0  0  0  0  0  0  0  0  0  0
   36.8240   27.7180   35.9680 H   0  0  0  0  0  0  0  0  0  0  0  0
   36.4460   27.6450   33.5880 H   0  0  0  0  0  0  0  0  0  0  0  0
   40.9080   26.6950   35.4020 H   0  0  0  0  0  0  0  0  0  0  0  0
   35.6340   29.9000   31.0340 C   0  0  0  0  0  0  0  0  0  0  0  0
   36.0770   30.6800   30.3870 H   0  0  0  0  0  0  0  0  0  0  0  0
   34.5390   29.9040   30.8170 H   0  0  0  0  0  0  0  0  0  0  0  0
   35.8800   30.3400   32.4530 C   0  0  0  0  0  0  0  0  0  0  0  0
   36.1670   31.4290   32.4140 H   0  0  0  0  0  0  0  0  0  0  0  0
   36.6800   29.7570   32.9370 H   0  0  0  0  0  0  0  0  0  0  0  0
   34.6040   30.1930   33.1990 C   0  0  0  0  0  0  0  0  0  0  0  0
   33.4980   29.5450   32.7550 N   0  0  0  0  0  0  0  0  0  0  0  0
   32.3840   29.4530   33.4840 C   0  0  0  0  0  3  0  0  0  0  0  0
   32.3730   30.0280   34.7010 N   0  0  0  0  0  0  0  0  0  0  0  0
   33.4470   30.6920   35.2050 C   0  0  0  0  0  0  0  0  0  0  0  0
   33.2710   31.2210   36.4600 C   0  0  0  0  0  3  0  0  0  0  0  0
   34.3530   31.9030   36.9960 C   0  0  0  0  0  0  0  0  0  0  0  0
   34.2580   32.3330   37.9770 H   0  0  0  0  0  0  0  0  0  0  0  0
   35.5290   32.0140   36.2550 C   0  0  0  0  0  0  0  0  0  0  0  0
   36.3810   32.5440   36.6640 H   0  0  0  0  0  0  0  0  0  0  0  0
   35.6700   31.4670   34.9930 C   0  0  0  0  0  3  0  0  0  0  0  0
   34.5980   30.7810   34.4400 C   0  0  0  0  0  0  0  0  0  0  0  0
  1  4  1  1  0  0  0
  1  8  1  0  0  0  0
  2  3  1  0  0  0  0
  2  1  1  0  0  0  0
  3  7  1  1  0  0  0
  3 20  1  0  0  0  0
  3  1  1  0  0  0  0
  5  2  1  0  0  0  0
  6  2  1  0  0  0  0
  8 13  1  0  0  0  0
  9  8  1  0  0  0  0
 10  8  1  0  0  0  0
 11 16  1  0  0  0  0
 11 17  1  0  0  0  0
 12 11  2  0  0  0  0
 13 14  2  0  0  0  0
 13 12  1  0  0  0  0
 14 15  1  0  0  0  0
 15 19  1  0  0  0  0
 15 16  2  0  0  0  0
 18 12  1  0  0  0  0
 20 23  1  0  0  0  0
 21 20  1  0  0  0  0
 22 20  1  0  0  0  0
 23 25  1  0  0  0  0
 23 26  1  0  0  0  0
 24 23  1  0  0  0  0
 26 37  1  0  0  0  0
 27 26  2  0  0  0  0
 27 28  1  0  0  0  0
 28 29  2  0  0  0  0
 29 30  1  0  0  0  0
 30 31  1  0  0  0  0
 31 32  2  0  0  0  0
 32 33  1  0  0  0  0
 34 35  1  0  0  0  0
 34 32  1  0  0  0  0
 36 34  2  0  0  0  0
 37 36  1  0  0  0  0
 37 30  2  0  0  0  0
M  END
>  <minimizedAffinity>
-5.2991786

$$$$

 OpenBabel03262520473D

 37 40  0  0  1  0  0  0  0  0999 V2000
   36.3160   20.9040   33.7830 C   0  0  1  0  0  0  0  0  0  0  0  0
   35.5540   19.7350   33.1800 C   0  0  0  0  0  0  0  0  0  0  0  0
   35.2380   21.1370   32.8010 C   0  0  2  0  0  0  0  0  0  0  0  0
   37.3670   21.0650   33.4830 H   0  0  0  0  0  0  0  0  0  0  0  0
   36.1430   19.1600   32.4160 H   0  0  0  0  0  0  0  0  0  0  0  0
   34.8380   19.1610   33.7780 H   0  0  0  0  0  0  0  0  0  0  0  0
   34.2480   21.4980   33.1510 H   0  0  0  0  0  0  0  0  0  0  0  0
   36.0820   21.1230   35.2530 C   0  0  0  0  0  0  0  0  0  0  0  0
   36.0170   20.1580   35.7990 H   0  0  0  0  0  0  0  0  0  0  0  0
   35.1250   21.6470   35.4010 H   0  0  0  0  0  0  0  0  0  0  0  0
   39.4210   22.7230   35.7880 C   0  0  0  0  0  0  0  0  0  0  0  0
   38.3670   21.9490   35.2220 C   0  0  0  0  0  0  0  0  0  0  0  0
   37.1590   21.9390   35.8670 C   0  0  0  0  0  0  0  0  0  0  0  0
   37.0110   22.6440   36.9870 N   0  0  0  0  0  0  0  0  0  0  0  0
   38.0150   23.3730   37.5110 C   0  0  0  0  0  0  0  0  0  0  0  0
   39.2150   23.4060   36.9050 N   0  0  0  0  0  0  0  0  0  0  0  0
   40.3480   22.6660   35.1980 H   0  0  0  0  0  0  0  0  0  0  0  0
   38.5200   21.3780   34.2990 H   0  0  0  0  0  0  0  0  0  0  0  0
   37.9150   23.9600   38.4300 H   0  0  0  0  0  0  0  0  0  0  0  0
   35.6920   21.7150   31.4840 C   0  0  0  0  0  0  0  0  0  0  0  0
   36.0170   20.8790   30.8360 H   0  0  0  0  0  0  0  0  0  0  0  0
   34.8670   22.2290   30.9330 H   0  0  0  0  0  0  0  0  0  0  0  0
   36.8770   22.6340   31.6130 C   0  0  0  0  0  0  0  0  0  0  0  0
   37.5520   22.4260   30.7360 H   0  0  0  0  0  0  0  0  0  0  0  0
   37.4250   22.4760   32.5550 H   0  0  0  0  0  0  0  0  0  0  0  0
   36.3760   24.0310   31.5290 C   0  0  0  0  0  0  0  0  0  0  0  0
   35.2420   24.4270   30.9000 N   0  0  0  0  0  0  0  0  0  0  0  0
   34.8540   25.7040   30.8670 C   0  0  0  0  0  3  0  0  0  0  0  0
   35.6260   26.6180   31.4850 N   0  0  0  0  0  0  0  0  0  0  0  0
   36.7740   26.2870   32.1320 C   0  0  0  0  0  0  0  0  0  0  0  0
   37.4450   27.3370   32.7090 C   0  0  0  0  0  3  0  0  0  0  0  0
   38.6190   27.0240   33.3770 C   0  0  0  0  0  0  0  0  0  0  0  0
   39.1750   27.8170   33.8430 H   0  0  0  0  0  0  0  0  0  0  0  0
   39.0480   25.6970   33.4260 C   0  0  0  0  0  0  0  0  0  0  0  0
   39.9630   25.4410   33.9460 H   0  0  0  0  0  0  0  0  0  0  0  0
   38.3450   24.6640   32.8330 C   0  0  0  0  0  3  0  0  0  0  0  0
   37.1670   24.9580   32.1610 C   0  0  0  0  0  0  0  0  0  0  0  0
  1  4  1  6  0  0  0
  1  8  1  0  0  0  0
  2  6  1  0  0  0  0
  2  1  1  0  0  0  0
  3  7  1  1  0  0  0
  3  2  1  0  0  0  0
  3  1  1  0  0  0  0
  5  2  1  0  0  0  0
  8 10  1  0  0  0  0
  8  9  1  0  0  0  0
  8 13  1  0  0  0  0
 11 16  1  0  0  0  0
 12 11  2  0  0  0  0
 12 13  1  0  0  0  0
 13 14  2  0  0  0  0
 14 15  1  0  0  0  0
 15 19  1  0  0  0  0
 16 15  2  0  0  0  0
 17 11  1  0  0  0  0
 18 12  1  0  0  0  0
 20 23  1  0  0  0  0
 20  3  1  0  0  0  0
 21 20  1  0  0  0  0
 22 20  1  0  0  0  0
 23 25  1  0  0  0  0
 24 23  1  0  0  0  0
 26 23  1  0  0  0  0
 26 37  1  0  0  0  0
 27 26  2  0  0  0  0
 28 27  1  0  0  0  0
 28 29  2  0  0  0  0
 29 30  1  0  0  0  0
 30 37  2  0  0  0  0
 30 31  1  0  0  0  0
 31 32  2  0  0  0  0
 32 34  1  0  0  0  0
 32 33  1  0  0  0  0
 34 35  1  0  0  0  0
 36 34  2  0  0  0  0
 37 36  1  0  0  0  0
M  END
>  <minimizedAffinity>
-5.28820896

$$$$

 OpenBabel03262520473D

 37 40  0  0  1  0  0  0  0  0999 V2000
   38.1910   25.9390   35.4900 C   0  0  1  0  0  0  0  0  0  0  0  0
   38.2490   27.3950   35.9230 C   0  0  0  0  0  0  0  0  0  0  0  0
   39.4290   26.7250   35.3170 C   0  0  2  0  0  0  0  0  0  0  0  0
   37.5890   25.6730   34.6020 H   0  0  0  0  0  0  0  0  0  0  0  0
   37.6970   28.0920   35.2370 H   0  0  0  0  0  0  0  0  0  0  0  0
   38.2660   27.6670   36.9840 H   0  0  0  0  0  0  0  0  0  0  0  0
   40.2790   26.5660   36.0140 H   0  0  0  0  0  0  0  0  0  0  0  0
   38.0540   24.9480   36.6130 C   0  0  0  0  0  0  0  0  0  0  0  0
   37.0260   24.5320   36.6610 H   0  0  0  0  0  0  0  0  0  0  0  0
   38.2480   25.4500   37.5730 H   0  0  0  0  0  0  0  0  0  0  0  0
   40.4530   22.2290   37.5350 C   0  0  0  0  0  0  0  0  0  0  0  0
   39.5300   23.3110   37.6350 C   0  0  0  0  0  0  0  0  0  0  0  0
   39.0120   23.8230   36.4750 C   0  0  0  0  0  0  0  0  0  0  0  0
   39.3820   23.3000   35.3080 N   0  0  0  0  0  0  0  0  0  0  0  0
   40.2550   22.2770   35.2270 C   0  0  0  0  0  0  0  0  0  0  0  0
   40.7840   21.7490   36.3460 N   0  0  0  0  0  0  0  0  0  0  0  0
   40.8110   21.8900   38.5190 H   0  0  0  0  0  0  0  0  0  0  0  0
   39.2450   23.7200   38.6110 H   0  0  0  0  0  0  0  0  0  0  0  0
   40.5720   21.8320   34.2780 H   0  0  0  0  0  0  0  0  0  0  0  0
   39.8260   26.9790   33.8850 C   0  0  0  0  0  0  0  0  0  0  0  0
   39.8380   28.0730   33.7200 H   0  0  0  0  0  0  0  0  0  0  0  0
   40.8590   26.6220   33.6550 H   0  0  0  0  0  0  0  0  0  0  0  0
   38.8520   26.4140   32.8860 C   0  0  0  0  0  0  0  0  0  0  0  0
   37.8500   26.3570   33.4000 H   0  0  0  0  0  0  0  0  0  0  0  0
   39.1500   25.4140   32.5340 H   0  0  0  0  0  0  0  0  0  0  0  0
   38.7690   27.3650   31.7480 C   0  0  0  0  0  0  0  0  0  0  0  0
   39.7070   27.5250   30.7810 N   0  0  0  0  0  0  0  0  0  0  0  0
   39.5620   28.4020   29.7860 C   0  0  0  0  0  3  0  0  0  0  0  0
   38.4400   29.1450   29.7530 N   0  0  0  0  0  0  0  0  0  0  0  0
   37.4620   29.0340   30.6900 C   0  0  0  0  0  0  0  0  0  0  0  0
   36.3830   29.8650   30.5120 C   0  0  0  0  0  3  0  0  0  0  0  0
   35.3710   29.7680   31.4550 C   0  0  0  0  0  0  0  0  0  0  0  0
   34.5080   30.4010   31.3530 H   0  0  0  0  0  0  0  0  0  0  0  0
   35.4970   28.8600   32.5060 C   0  0  0  0  0  0  0  0  0  0  0  0
   34.7130   28.7760   33.2480 H   0  0  0  0  0  0  0  0  0  0  0  0
   36.6000   28.0380   32.6530 C   0  0  0  0  0  3  0  0  0  0  0  0
   37.6220   28.1200   31.7190 C   0  0  0  0  0  0  0  0  0  0  0  0
  1  4  1  6  0  0  0
  1  2  1  0  0  0  0
  1  8  1  0  0  0  0
  2  6  1  0  0  0  0
  3  1  1  0  0  0  0
  3  2  1  0  0  0  0
  3  7  1  1  0  0  0
  5  2  1  0  0  0  0
  8  9  1  0  0  0  0
  8 10  1  0  0  0  0
 11 12  1  0  0  0  0
 11 17  1  0  0  0  0
 12 18  1  0  0  0  0
 13  8  1  0  0  0  0
 13 12  2  0  0  0  0
 14 13  1  0  0  0  0
 15 14  2  0  0  0  0
 15 16  1  0  0  0  0
 16 11  2  0  0  0  0
 19 15  1  0  0  0  0
 20  3  1  0  0  0  0
 21 20  1  0  0  0  0
 22 20  1  0  0  0  0
 23 24  1  0  0  0  0
 23 20  1  0  0  0  0
 25 23  1  0  0  0  0
 26 23  1  0  0  0  0
 27 26  2  0  0  0  0
 28 27  1  0  0  0  0
 29 28  2  0  0  0  0
 29 30  1  0  0  0  0
 30 37  1  0  0  0  0
 31 30  2  0  0  0  0
 31 32  1  0  0  0  0
 32 34  2  0  0  0  0
 33 32  1  0  0  0  0
 34 36  1  0  0  0  0
 34 35  1  0  0  0  0
 37 26  1  0  0  0  0
 37 36  2  0  0  0  0
M  END
>  <minimizedAffinity>
-5.25049686

$$$$

 OpenBabel03262520473D

 37 40  0  0  1  0  0  0  0  0999 V2000
   37.0020   23.8070   32.2150 C   0  0  1  0  0  0  0  0  0  0  0  0
   37.8460   24.7790   31.4080 C   0  0  0  0  0  0  0  0  0  0  0  0
   36.9740   25.2520   32.5140 C   0  0  2  0  0  0  0  0  0  0  0  0
   37.5100   23.1170   32.9150 H   0  0  0  0  0  0  0  0  0  0  0  0
   38.9410   24.7380   31.6530 H   0  0  0  0  0  0  0  0  0  0  0  0
   37.5870   25.0240   30.3710 H   0  0  0  0  0  0  0  0  0  0  0  0
   36.1040   25.8610   32.1890 H   0  0  0  0  0  0  0  0  0  0  0  0
   35.8830   23.1530   31.4530 C   0  0  0  0  0  0  0  0  0  0  0  0
   35.9850   23.3240   30.3600 H   0  0  0  0  0  0  0  0  0  0  0  0
   34.9210   23.5900   31.7630 H   0  0  0  0  0  0  0  0  0  0  0  0
   35.5060   19.8910   33.2460 C   0  0  0  0  0  0  0  0  0  0  0  0
   35.5640   21.2900   32.9800 C   0  0  0  0  0  0  0  0  0  0  0  0
   35.8290   21.6900   31.6970 C   0  0  0  0  0  0  0  0  0  0  0  0
   36.0200   20.7710   30.7530 N   0  0  0  0  0  0  0  0  0  0  0  0
   35.9620   19.4510   31.0170 C   0  0  0  0  0  0  0  0  0  0  0  0
   35.7050   19.0220   32.2660 N   0  0  0  0  0  0  0  0  0  0  0  0
   35.2880   19.6730   34.3020 H   0  0  0  0  0  0  0  0  0  0  0  0
   35.4020   22.0230   33.7790 H   0  0  0  0  0  0  0  0  0  0  0  0
   36.1160   18.6790   30.2570 H   0  0  0  0  0  0  0  0  0  0  0  0
   37.5480   25.6360   33.8560 C   0  0  0  0  0  0  0  0  0  0  0  0
   37.7430   26.7240   33.8470 H   0  0  0  0  0  0  0  0  0  0  0  0
   36.8330   25.4570   34.6950 H   0  0  0  0  0  0  0  0  0  0  0  0
   38.8670   24.9730   34.1510 C   0  0  0  0  0  0  0  0  0  0  0  0
   39.6540   25.7790   34.1210 H   0  0  0  0  0  0  0  0  0  0  0  0
   39.1080   24.1840   33.4220 H   0  0  0  0  0  0  0  0  0  0  0  0
   38.7910   24.4090   35.5240 C   0  0  0  0  0  0  0  0  0  0  0  0
   37.8330   24.6900   36.4420 N   0  0  0  0  0  0  0  0  0  0  0  0
   37.8300   24.1420   37.6600 C   0  0  0  0  0  3  0  0  0  0  0  0
   38.8180   23.2830   37.9710 N   0  0  0  0  0  0  0  0  0  0  0  0
   39.8080   22.9600   37.0970 C   0  0  0  0  0  0  0  0  0  0  0  0
   40.7390   22.0690   37.5720 C   0  0  0  0  0  3  0  0  0  0  0  0
   41.7590   21.7220   36.6980 C   0  0  0  0  0  0  0  0  0  0  0  0
   42.5090   21.0270   37.0300 H   0  0  0  0  0  0  0  0  0  0  0  0
   41.7860   22.2800   35.4200 C   0  0  0  0  0  0  0  0  0  0  0  0
   42.5770   22.0160   34.7290 H   0  0  0  0  0  0  0  0  0  0  0  0
   40.8290   23.1750   34.9760 C   0  0  0  0  0  3  0  0  0  0  0  0
   39.8010   23.5330   35.8360 C   0  0  0  0  0  0  0  0  0  0  0  0
  1  3  1  0  0  0  0
  1  4  1  1  0  0  0
  2  5  1  0  0  0  0
  2  1  1  0  0  0  0
  2  3  1  0  0  0  0
  3  7  1  6  0  0  0
  3 20  1  0  0  0  0
  6  2  1  0  0  0  0
  8 13  1  0  0  0  0
  8 10  1  0  0  0  0
  8  1  1  0  0  0  0
  9  8  1  0  0  0  0
 11 17  1  0  0  0  0
 12 11  1  0  0  0  0
 12 18  1  0  0  0  0
 13 12  2  0  0  0  0
 14 15  2  0  0  0  0
 14 13  1  0  0  0  0
 15 16  1  0  0  0  0
 16 11  2  0  0  0  0
 19 15  1  0  0  0  0
 20 23  1  0  0  0  0
 20 22  1  0  0  0  0
 21 20  1  0  0  0  0
 23 26  1  0  0  0  0
 24 23  1  0  0  0  0
 25 23  1  0  0  0  0
 26 37  2  0  0  0  0
 26 27  1  0  0  0  0
 27 28  2  0  0  0  0
 28 29  1  0  0  0  0
 30 31  1  0  0  0  0
 30 29  2  0  0  0  0
 32 33  1  0  0  0  0
 32 31  2  0  0  0  0
 34 32  1  0  0  0  0
 35 34  1  0  0  0  0
 36 34  2  0  0  0  0
 36 37  1  0  0  0  0
 37 30  1  0  0  0  0
M  END
>  <minimizedAffinity>
-5.23306751

$$$$

 OpenBabel03262520473D

 37 40  0  0  1  0  0  0  0  0999 V2000
   36.7690   22.2570   32.3380 C   0  0  1  0  0  0  0  0  0  0  0  0
   35.9220   21.6060   31.2560 C   0  0  0  0  0  0  0  0  0  0  0  0
   35.5240   22.8990   31.8720 C   0  0  2  0  0  0  0  0  0  0  0  0
   37.7440   22.6950   32.0570 H   0  0  0  0  0  0  0  0  0  0  0  0
   36.3630   21.6890   30.2270 H   0  0  0  0  0  0  0  0  0  0  0  0
   35.3360   20.7040   31.4650 H   0  0  0  0  0  0  0  0  0  0  0  0
   34.6120   22.8490   32.5040 H   0  0  0  0  0  0  0  0  0  0  0  0
   36.8120   21.5120   33.6440 C   0  0  0  0  0  0  0  0  0  0  0  0
   36.8260   20.4130   33.4810 H   0  0  0  0  0  0  0  0  0  0  0  0
   35.9090   21.7430   34.2300 H   0  0  0  0  0  0  0  0  0  0  0  0
   40.3600   22.2810   34.5460 C   0  0  0  0  0  0  0  0  0  0  0  0
   39.2010   21.9270   33.7960 C   0  0  0  0  0  0  0  0  0  0  0  0
   37.9990   21.8830   34.4520 C   0  0  0  0  0  0  0  0  0  0  0  0
   37.9540   22.1700   35.7510 N   0  0  0  0  0  0  0  0  0  0  0  0
   39.0580   22.5040   36.4490 C   0  0  0  0  0  0  0  0  0  0  0  0
   40.2540   22.5560   35.8380 N   0  0  0  0  0  0  0  0  0  0  0  0
   41.2730   22.2870   33.9310 H   0  0  0  0  0  0  0  0  0  0  0  0
   39.2700   21.6960   32.7270 H   0  0  0  0  0  0  0  0  0  0  0  0
   39.0430   22.7430   37.5180 H   0  0  0  0  0  0  0  0  0  0  0  0
   35.7160   24.2060   31.1440 C   0  0  0  0  0  0  0  0  0  0  0  0
   35.7610   23.9930   30.0600 H   0  0  0  0  0  0  0  0  0  0  0  0
   34.8580   24.9070   31.2850 H   0  0  0  0  0  0  0  0  0  0  0  0
   37.0080   24.8970   31.4920 C   0  0  0  0  0  0  0  0  0  0  0  0
   37.5410   25.1060   30.5210 H   0  0  0  0  0  0  0  0  0  0  0  0
   37.6460   24.2820   32.1460 H   0  0  0  0  0  0  0  0  0  0  0  0
   36.6690   26.1830   32.1540 C   0  0  0  0  0  0  0  0  0  0  0  0
   35.8260   27.1260   31.6650 N   0  0  0  0  0  0  0  0  0  0  0  0
   35.5680   28.2610   32.3190 C   0  0  0  0  0  3  0  0  0  0  0  0
   36.1730   28.4600   33.5050 N   0  0  0  0  0  0  0  0  0  0  0  0
   37.0270   27.5550   34.0510 C   0  0  0  0  0  0  0  0  0  0  0  0
   37.5590   27.9120   35.2660 C   0  0  0  0  0  3  0  0  0  0  0  0
   38.4340   27.0040   35.8440 C   0  0  0  0  0  0  0  0  0  0  0  0
   38.8720   27.2440   36.7960 H   0  0  0  0  0  0  0  0  0  0  0  0
   38.7210   25.8110   35.1810 C   0  0  0  0  0  0  0  0  0  0  0  0
   39.4020   25.0950   35.6240 H   0  0  0  0  0  0  0  0  0  0  0  0
   38.1650   25.4850   33.9580 C   0  0  0  0  0  3  0  0  0  0  0  0
   37.2870   26.3810   33.3640 C   0  0  0  0  0  0  0  0  0  0  0  0
  1  4  1  6  0  0  0
  1  8  1  0  0  0  0
  2  6  1  0  0  0  0
  2  3  1  0  0  0  0
  2  1  1  0  0  0  0
  3  1  1  0  0  0  0
  3  7  1  1  0  0  0
  5  2  1  0  0  0  0
  8 10  1  0  0  0  0
  8 13  1  0  0  0  0
  9  8  1  0  0  0  0
 11 16  1  0  0  0  0
 12 13  1  0  0  0  0
 12 11  2  0  0  0  0
 13 14  2  0  0  0  0
 14 15  1  0  0  0  0
 15 19  1  0  0  0  0
 16 15  2  0  0  0  0
 17 11  1  0  0  0  0
 18 12  1  0  0  0  0
 20 22  1  0  0  0  0
 20 23  1  0  0  0  0
 20  3  1  0  0  0  0
 21 20  1  0  0  0  0
 23 25  1  0  0  0  0
 23 26  1  0  0  0  0
 24 23  1  0  0  0  0
 26 37  1  0  0  0  0
 27 26  2  0  0  0  0
 27 28  1  0  0  0  0
 28 29  2  0  0  0  0
 29 30  1  0  0  0  0
 30 31  1  0  0  0  0
 31 32  2  0  0  0  0
 32 33  1  0  0  0  0
 34 35  1  0  0  0  0
 34 32  1  0  0  0  0
 36 34  2  0  0  0  0
 37 36  1  0  0  0  0
 37 30  2  0  0  0  0
M  END
>  <minimizedAffinity>
-5.20196152

$$$$
