
 OpenBabel03272504183D

 29 31  0  0  0  0  0  0  0  0999 V2000
   35.1920   29.6660   46.2720 O   0  0  0  0  0  0  0  0  0  0  0  0
   34.2820   29.4400   47.4640 P   0  0  1  0  0  0  0  0  0  0  0  0
   34.5020   27.9040   48.1150 O   0  0  0  0  0  0  0  0  0  0  0  0
   33.8950   27.8270   48.8880 H   0  0  0  0  0  0  0  0  0  0  0  0
   34.6130   30.5730   48.7220 O   0  0  0  0  0  0  0  0  0  0  0  0
   35.8280   30.6120   49.3780 C   0  0  0  0  0  0  0  0  0  0  0  0
   36.1780   29.9280   50.5420 C   0  0  0  0  0  0  0  0  0  0  0  0
   37.4490   30.0990   51.0480 C   0  0  0  0  0  0  0  0  0  0  0  0
   38.3300   30.9240   50.4060 N   0  0  0  0  0  0  0  0  0  0  0  0
   37.9580   31.5730   49.2780 C   0  0  0  0  0  0  0  0  0  0  0  0
   36.7080   31.4150   48.7680 N   0  0  0  0  0  0  0  0  0  0  0  0
   37.6630   29.5440   51.9520 H   0  0  0  0  0  0  0  0  0  0  0  0
   38.6840   32.2290   48.7820 H   0  0  0  0  0  0  0  0  0  0  0  0
   35.1520   29.1190   51.0750 N   0  0  0  0  0  0  0  0  0  0  0  0
   34.3610   29.6990   51.4590 H   0  0  0  0  0  0  0  0  0  0  0  0
   35.5620   28.1750   50.8920 H   0  0  0  0  0  0  0  0  0  0  0  0
   32.7150   29.6810   46.8850 O   0  0  0  0  0  0  0  0  0  0  0  0
   32.1330   28.8400   45.9490 C   0  0  0  0  0  0  0  0  0  0  0  0
   32.4830   28.6690   44.6680 N   0  0  0  0  0  0  0  0  0  0  0  0
   31.8250   27.8130   43.8670 C   0  0  0  0  0  3  0  0  0  0  0  0
   30.7680   27.0790   44.3260 N   0  0  0  0  0  0  0  0  0  0  0  0
   30.3690   27.2130   45.6180 C   0  0  0  0  0  0  0  0  0  0  0  0
   29.2930   26.4700   46.0950 C   0  0  0  0  0  3  0  0  0  0  0  0
   28.8890   26.6100   47.4160 C   0  0  0  0  0  0  0  0  0  0  0  0
   28.0530   25.9970   47.6930 H   0  0  0  0  0  0  0  0  0  0  0  0
   29.5600   27.4900   48.2530 C   0  0  0  0  0  0  0  0  0  0  0  0
   29.2270   27.5750   49.2600 H   0  0  0  0  0  0  0  0  0  0  0  0
   30.6150   28.1940   47.7160 C   0  0  0  0  0  3  0  0  0  0  0  0
   31.0650   28.1010   46.4180 C   0  0  0  0  0  0  0  0  0  0  0  0
  2  1  2  6  0  0  0
  2  3  1  0  0  0  0
  2  5  1  0  0  0  0
  3  4  1  0  0  0  0
  5  6  1  0  0  0  0
  6  7  1  0  0  0  0
  7  8  2  0  0  0  0
  7 14  1  0  0  0  0
  8 12  1  0  0  0  0
  9  8  1  0  0  0  0
 10  9  2  0  0  0  0
 11 10  1  0  0  0  0
 11  6  2  0  0  0  0
 13 10  1  0  0  0  0
 14 15  1  0  0  0  0
 16 14  1  0  0  0  0
 17  2  1  0  0  0  0
 18 29  1  0  0  0  0
 18 17  1  0  0  0  0
 19 18  2  0  0  0  0
 20 21  2  0  0  0  0
 20 19  1  0  0  0  0
 21 22  1  0  0  0  0
 22 23  2  0  0  0  0
 22 29  1  0  0  0  0
 23 24  1  0  0  0  0
 24 25  1  0  0  0  0
 24 26  2  0  0  0  0
 26 27  1  0  0  0  0
 28 26  1  0  0  0  0
 29 28  2  0  0  0  0
M  END
>  <minimizedAffinity>
-4.29876137

>  <minimizedRMSD>
2.57537818

$$$$
