
 OpenBabel03272503133D

 49 54  0  0  0  0  0  0  0  0999 V2000
   39.2020   32.1780   42.5620 C   0  0  0  0  0  0  0  0  0  0  0  0
   39.7220   31.4700   43.6220 C   0  0  0  0  0  0  0  0  0  0  0  0
   40.6010   30.4450   43.4640 C   0  0  0  0  0  0  0  0  0  0  0  0
   41.0130   30.0720   42.1950 C   0  0  0  0  0  0  0  0  0  0  0  0
   41.8420   29.1340   41.7370 N   0  0  0  0  0  0  0  0  0  0  0  0
   41.8650   29.2240   40.4010 C   0  0  0  0  0  0  0  0  0  0  0  0
   41.0500   30.2210   40.0240 N   0  0  0  0  0  0  0  0  0  0  0  0
   40.4950   30.7790   41.1260 C   0  0  0  0  0  0  0  0  0  0  0  0
   39.5930   31.8320   41.2570 C   0  0  0  0  0  0  0  0  0  0  0  0
   38.5010   32.9950   42.6790 H   0  0  0  0  0  0  0  0  0  0  0  0
   40.9680   29.9330   44.3490 H   0  0  0  0  0  0  0  0  0  0  0  0
   42.3690   28.4560   42.3520 H   0  0  0  0  0  0  0  0  0  0  0  0
   42.4560   28.5840   39.7550 H   0  0  0  0  0  0  0  0  0  0  0  0
   39.2640   31.8950   44.9290 C   0  0  0  0  0  0  0  0  0  0  0  0
   38.1790   32.5500   45.0490 O   0  0  0  0  0  0  0  0  0  0  0  0
   39.9620   31.6270   46.1510 N   0  0  0  0  0  0  0  0  0  0  0  0
   40.8390   31.1050   46.0830 H   0  0  0  0  0  0  0  0  0  0  0  0
   38.1230   30.1450   47.4920 F   0  0  0  0  0  0  0  0  0  0  0  0
   38.3750   31.3880   47.9780 C   0  0  0  0  0  0  0  0  0  0  0  0
   37.7200   31.8360   49.0870 C   0  0  0  0  0  0  0  0  0  0  0  0
   38.0290   33.1020   49.5190 C   0  0  0  0  0  0  0  0  0  0  0  0
   38.9400   33.8990   48.8940 C   0  0  0  0  0  0  0  0  0  0  0  0
   39.5960   33.4220   47.7660 C   0  0  0  0  0  0  0  0  0  0  0  0
   39.3030   32.1460   47.3090 C   0  0  0  0  0  0  0  0  0  0  0  0
   37.5110   33.4710   50.4030 H   0  0  0  0  0  0  0  0  0  0  0  0
   39.1720   34.8980   49.2480 H   0  0  0  0  0  0  0  0  0  0  0  0
   40.3340   33.9880   47.2100 H   0  0  0  0  0  0  0  0  0  0  0  0
   36.0850   29.3720   51.4430 C   0  0  0  0  0  0  0  0  0  0  0  0
   37.0570   30.2240   50.8620 C   0  0  0  0  0  0  0  0  0  0  0  0
   36.7520   30.9450   49.7210 C   0  0  0  0  0  0  0  0  0  0  0  0
   35.4960   30.7940   49.2000 N   0  0  0  0  0  0  0  0  0  0  0  0
   34.5840   29.9850   49.7580 C   0  0  0  0  0  0  0  0  0  0  0  0
   34.8770   29.2890   50.8600 N   0  0  0  0  0  0  0  0  0  0  0  0
   36.4120   28.8460   52.3360 H   0  0  0  0  0  0  0  0  0  0  0  0
   38.0600   30.3730   51.2420 H   0  0  0  0  0  0  0  0  0  0  0  0
   33.5930   29.8330   49.3910 H   0  0  0  0  0  0  0  0  0  0  0  0
   39.0810   32.5320   40.1890 O   0  0  0  0  0  0  0  0  0  0  0  0
   37.8270   33.0740   40.0930 C   0  0  0  0  0  0  0  0  0  0  0  0
   36.7550   32.8410   40.8780 N   0  0  0  0  0  0  0  0  0  0  0  0
   35.5710   33.4450   40.6730 C   0  0  0  0  0  0  0  0  0  0  0  0
   35.4300   34.3220   39.6460 N   0  0  0  0  0  0  0  0  0  0  0  0
   36.4580   34.5960   38.8310 C   0  0  0  0  0  0  0  0  0  0  0  0
   36.2450   35.4980   37.8050 C   0  0  0  0  0  0  0  0  0  0  0  0
   37.2950   35.7750   36.9760 C   0  0  0  0  0  0  0  0  0  0  0  0
   37.2150   36.4660   36.1530 H   0  0  0  0  0  0  0  0  0  0  0  0
   38.5120   35.1910   37.1410 C   0  0  0  0  0  0  0  0  0  0  0  0
   39.3880   35.3730   36.5110 H   0  0  0  0  0  0  0  0  0  0  0  0
   38.6930   34.2950   38.1730 C   0  0  0  0  0  0  0  0  0  0  0  0
   37.6610   33.9760   39.0480 C   0  0  0  0  0  0  0  0  0  0  0  0
  1 10  1  0  0  0  0
  1  2  1  0  0  0  0
  2 14  1  0  0  0  0
  3  2  2  0  0  0  0
  3 11  1  0  0  0  0
  4  3  1  0  0  0  0
  5  4  1  0  0  0  0
  5 12  1  0  0  0  0
  6  5  1  0  0  0  0
  7  6  2  0  0  0  0
  7  8  1  0  0  0  0
  8  9  1  0  0  0  0
  8  4  2  0  0  0  0
  9  1  2  0  0  0  0
 13  6  1  0  0  0  0
 14 15  2  0  0  0  0
 14 16  1  0  0  0  0
 16 24  1  0  0  0  0
 17 16  1  0  0  0  0
 18 19  1  0  0  0  0
 19 20  1  0  0  0  0
 20 21  2  0  0  0  0
 20 30  1  0  0  0  0
 21 25  1  0  0  0  0
 22 26  1  0  0  0  0
 22 21  1  0  0  0  0
 23 22  2  0  0  0  0
 24 23  1  0  0  0  0
 24 19  2  0  0  0  0
 27 23  1  0  0  0  0
 28 34  1  0  0  0  0
 29 35  1  0  0  0  0
 29 28  1  0  0  0  0
 30 29  2  0  0  0  0
 31 30  1  0  0  0  0
 31 32  2  0  0  0  0
 32 33  1  0  0  0  0
 33 28  2  0  0  0  0
 36 32  1  0  0  0  0
 37  9  1  0  0  0  0
 38 37  1  0  0  0  0
 38 39  1  0  0  0  0
 40 39  2  0  0  0  0
 41 40  1  0  0  0  0
 42 49  1  0  0  0  0
 42 41  2  0  0  0  0
 43 42  1  0  0  0  0
 44 46  1  0  0  0  0
 44 43  2  0  0  0  0
 45 44  1  0  0  0  0
 46 48  2  0  0  0  0
 47 46  1  0  0  0  0
 48 49  1  0  0  0  0
 49 38  2  0  0  0  0
M  END
>  <minimizedAffinity>
-7.73087168

>  <minimizedRMSD>
1.37508786

$$$$
