
 OpenBabel03262522283D

 49 53  0  0  0  0  0  0  0  0999 V2000
   33.0600   30.4590   46.5520 C   0  0  0  0  0  0  0  0  0  0  0  0
   32.7120   30.2010   47.5760 H   0  0  0  0  0  0  0  0  0  0  0  0
   33.6180   31.4180   46.5360 H   0  0  0  0  0  0  0  0  0  0  0  0
   30.8670   28.9310   47.2060 F   0  0  0  0  0  0  0  0  0  0  0  0
   30.8330   29.6790   46.0670 C   0  0  0  0  0  0  0  0  0  0  0  0
   31.8770   30.4920   45.6300 C   0  0  0  0  0  0  0  0  0  0  0  0
   31.7900   31.2220   44.4780 C   0  0  0  0  0  0  0  0  0  0  0  0
   30.6230   31.1730   43.6870 C   0  0  0  0  0  0  0  0  0  0  0  0
   29.5780   30.3730   44.1070 C   0  0  0  0  0  0  0  0  0  0  0  0
   29.6960   29.6410   45.2830 C   0  0  0  0  0  0  0  0  0  0  0  0
   32.6680   31.8050   44.2600 H   0  0  0  0  0  0  0  0  0  0  0  0
   30.6210   31.7760   42.7900 H   0  0  0  0  0  0  0  0  0  0  0  0
   28.6880   30.3440   43.4920 H   0  0  0  0  0  0  0  0  0  0  0  0
   28.5980   28.8740   45.6130 O   0  0  0  0  0  0  0  0  0  0  0  0
   28.0600   29.0520   46.8810 C   0  0  0  0  0  0  0  0  0  0  0  0
   28.1870   28.1760   47.9000 N   0  0  0  0  0  0  0  0  0  0  0  0
   27.6380   28.4090   49.1130 C   0  0  0  0  0  3  0  0  0  0  0  0
   26.9370   29.5590   49.3060 N   0  0  0  0  0  0  0  0  0  0  0  0
   26.7620   30.4830   48.3440 C   0  0  0  0  0  0  0  0  0  0  0  0
   26.0420   31.6360   48.5900 C   0  0  0  0  0  3  0  0  0  0  0  0
   25.8750   32.5690   47.5890 C   0  0  0  0  0  0  0  0  0  0  0  0
   25.3310   33.5000   47.6800 H   0  0  0  0  0  0  0  0  0  0  0  0
   26.4400   32.3230   46.3540 C   0  0  0  0  0  0  0  0  0  0  0  0
   26.3650   32.9900   45.5150 H   0  0  0  0  0  0  0  0  0  0  0  0
   27.1600   31.1730   46.1080 C   0  0  0  0  0  3  0  0  0  0  0  0
   27.3430   30.2090   47.1060 C   0  0  0  0  0  0  0  0  0  0  0  0
   34.1090   29.0760   46.0200 S   0  0  0  0  0  0  0  0  0  0  0  0
   37.5800   31.1060   45.7660 C   0  0  0  0  0  0  0  0  0  0  0  0
   37.9390   30.8760   44.4440 C   0  0  0  0  0  0  0  0  0  0  0  0
   37.0970   30.1080   43.6900 C   0  0  0  0  0  0  0  0  0  0  0  0
   35.9700   29.6150   44.2640 N   0  0  0  0  0  0  0  0  0  0  0  0
   35.6620   29.8520   45.5150 C   0  0  0  0  0  0  0  0  0  0  0  0
   36.4640   30.6190   46.3310 N   0  0  0  0  0  0  0  0  0  0  0  0
   38.2060   31.7130   46.4250 H   0  0  0  0  0  0  0  0  0  0  0  0
   37.3550   29.9130   42.6530 H   0  0  0  0  0  0  0  0  0  0  0  0
   39.0940   31.4250   43.9840 O   0  0  0  0  0  0  0  0  0  0  0  0
   39.2860   31.5830   42.6200 C   0  0  0  0  0  0  0  0  0  0  0  0
   40.1070   30.8270   41.7990 C   0  0  0  0  0  0  0  0  0  0  0  0
   40.1740   31.1230   40.4850 C   0  0  0  0  0  0  0  0  0  0  0  0
   39.4250   32.1630   40.0030 C   0  0  0  0  0  0  0  0  0  0  0  0
   38.6090   32.9080   40.8410 C   0  0  0  0  0  0  0  0  0  0  0  0
   38.5560   32.5950   42.1580 N   0  0  0  0  0  0  0  0  0  0  0  0
   40.6470   30.0340   42.2990 H   0  0  0  0  0  0  0  0  0  0  0  0
   40.7980   30.5560   39.8370 H   0  0  0  0  0  0  0  0  0  0  0  0
   39.4760   32.4040   38.9490 H   0  0  0  0  0  0  0  0  0  0  0  0
   37.7880   34.0610   40.2730 C   0  0  0  0  0  0  0  0  0  0  0  0
   37.0280   33.5910   39.6320 H   0  0  0  0  0  0  0  0  0  0  0  0
   38.4180   34.7110   39.6360 H   0  0  0  0  0  0  0  0  0  0  0  0
   37.3240   34.5690   41.1170 H   0  0  0  0  0  0  0  0  0  0  0  0
  1  2  1  0  0  0  0
  3  1  1  0  0  0  0
  5  4  1  0  0  0  0
  6  5  1  0  0  0  0
  6  1  1  0  0  0  0
  7  6  2  0  0  0  0
  8  9  2  0  0  0  0
  8  7  1  0  0  0  0
  9 10  1  0  0  0  0
 10 14  1  0  0  0  0
 10  5  2  0  0  0  0
 11  7  1  0  0  0  0
 12  8  1  0  0  0  0
 13  9  1  0  0  0  0
 14 15  1  0  0  0  0
 15 26  2  0  0  0  0
 15 16  1  0  0  0  0
 16 17  2  0  0  0  0
 17 18  1  0  0  0  0
 19 20  1  0  0  0  0
 19 18  2  0  0  0  0
 21 22  1  0  0  0  0
 21 20  2  0  0  0  0
 23 21  1  0  0  0  0
 24 23  1  0  0  0  0
 25 23  2  0  0  0  0
 25 26  1  0  0  0  0
 26 19  1  0  0  0  0
 27  1  1  0  0  0  0
 28 33  1  0  0  0  0
 28 34  1  0  0  0  0
 29 28  2  0  0  0  0
 30 31  2  0  0  0  0
 30 29  1  0  0  0  0
 31 32  1  0  0  0  0
 32 27  1  0  0  0  0
 32 33  2  0  0  0  0
 35 30  1  0  0  0  0
 36 29  1  0  0  0  0
 37 36  1  0  0  0  0
 38 43  1  0  0  0  0
 38 37  2  0  0  0  0
 39 38  1  0  0  0  0
 40 39  2  0  0  0  0
 40 41  1  0  0  0  0
 41 42  2  0  0  0  0
 42 37  1  0  0  0  0
 44 39  1  0  0  0  0
 45 40  1  0  0  0  0
 46 41  1  0  0  0  0
 46 49  1  0  0  0  0
 47 46  1  0  0  0  0
 48 46  1  0  0  0  0
M  END
>  <minimizedAffinity>
-5.34409428

>  <minimizedRMSD>
4.72502804

$$$$
