
 OpenBabel03272504413D

 48 51  0  0  0  0  0  0  0  0999 V2000
   34.7270   29.4340   48.7790 C   0  0  0  0  0  0  0  0  0  0  0  0
   35.6090   29.5270   49.4510 H   0  0  0  0  0  0  0  0  0  0  0  0
   34.0360   30.2420   49.1620 H   0  0  0  0  0  0  0  0  0  0  0  0
   37.4920   30.5030   48.4980 Cl  0  0  0  0  0  0  0  0  0  0  0  0
   36.3630   30.3140   47.1530 C   0  0  0  0  0  0  0  0  0  0  0  0
   36.7570   30.6710   45.9110 C   0  0  0  0  0  0  0  0  0  0  0  0
   35.8850   30.5310   44.8510 C   0  0  0  0  0  0  0  0  0  0  0  0
   34.6130   30.0210   45.0890 C   0  0  0  0  0  0  0  0  0  0  0  0
   34.2800   29.6720   46.4120 C   0  0  0  0  0  0  0  0  0  0  0  0
   35.1210   29.8050   47.4530 C   0  0  0  0  0  0  0  0  0  0  0  0
   36.2250   30.8260   43.8510 H   0  0  0  0  0  0  0  0  0  0  0  0
   34.0180   29.9520   44.2020 H   0  0  0  0  0  0  0  0  0  0  0  0
   33.3100   29.3230   46.3770 H   0  0  0  0  0  0  0  0  0  0  0  0
   39.7490   32.8240   45.9850 C   0  0  0  0  0  0  0  0  0  0  0  0
   40.6230   32.0920   45.1090 C   0  0  0  0  0  0  0  0  0  0  0  0
   40.1430   30.9040   44.5410 C   0  0  0  0  0  0  0  0  0  0  0  0
   38.8840   30.4950   44.8380 N   0  0  0  0  0  0  0  0  0  0  0  0
   38.0850   31.2070   45.6670 C   0  0  0  0  0  0  0  0  0  0  0  0
   38.5190   32.3500   46.2260 N   0  0  0  0  0  0  0  0  0  0  0  0
   40.0880   33.7300   46.4300 H   0  0  0  0  0  0  0  0  0  0  0  0
   41.5790   32.5350   44.9700 H   0  0  0  0  0  0  0  0  0  0  0  0
   41.0260   30.2220   43.6950 N   0  0  0  0  0  0  0  0  0  0  0  0
   41.5380   29.3310   43.9270 H   0  0  0  0  0  0  0  0  0  0  0  0
   41.1350   30.6990   42.7770 H   0  0  0  0  0  0  0  0  0  0  0  0
   34.1140   28.1240   49.0250 C   0  0  0  0  0  0  0  0  0  0  0  0
   34.6200   27.5380   49.8490 H   0  0  0  0  0  0  0  0  0  0  0  0
   34.2610   27.4920   48.1200 H   0  0  0  0  0  0  0  0  0  0  0  0
   32.7790   28.2430   49.3060 O   0  0  0  0  0  0  0  0  0  0  0  0
   32.7380   26.3590   47.4840 O   0  0  0  0  0  0  0  0  0  0  0  0
   31.8730   27.3200   48.2620 P   0  0  2  0  0  0  0  0  0  0  0  0
   31.1110   28.4190   47.1590 O   0  0  0  0  0  0  0  0  0  0  0  0
   30.3750   27.8570   46.1250 C   0  0  0  0  0  0  0  0  0  0  0  0
   30.1940   26.5460   45.8860 N   0  0  0  0  0  0  0  0  0  0  0  0
   29.4570   26.1700   44.8470 C   0  0  0  0  0  3  0  0  0  0  0  0
   28.8740   27.0540   44.0110 N   0  0  0  0  0  0  0  0  0  0  0  0
   29.0200   28.3840   44.2000 C   0  0  0  0  0  0  0  0  0  0  0  0
   28.4120   29.2650   43.3290 C   0  0  0  0  0  3  0  0  0  0  0  0
   28.5820   30.6120   43.5520 C   0  0  0  0  0  0  0  0  0  0  0  0
   28.1600   31.4140   42.9430 H   0  0  0  0  0  0  0  0  0  0  0  0
   29.3360   31.0760   44.6110 C   0  0  0  0  0  0  0  0  0  0  0  0
   29.4940   32.1160   44.8210 H   0  0  0  0  0  0  0  0  0  0  0  0
   29.9280   30.1650   45.4620 C   0  0  0  0  0  3  0  0  0  0  0  0
   29.7910   28.8060   45.2860 C   0  0  0  0  0  0  0  0  0  0  0  0
   30.6410   26.4970   48.9960 O   0  0  0  0  0  0  0  0  0  0  0  0
   29.8660   27.3420   49.7550 C   0  0  0  0  0  0  0  0  0  0  0  0
   29.3100   26.7040   50.8630 F   0  0  0  0  0  0  0  0  0  0  0  0
   30.6060   28.3950   50.2660 F   0  0  0  0  0  0  0  0  0  0  0  0
   28.8320   27.8450   48.9810 F   0  0  0  0  0  0  0  0  0  0  0  0
  1 25  1  0  0  0  0
  1  3  1  0  0  0  0
  1  2  1  0  0  0  0
  5 10  1  0  0  0  0
  5  4  1  0  0  0  0
  6  5  2  0  0  0  0
  7  8  2  0  0  0  0
  7  6  1  0  0  0  0
  8  9  1  0  0  0  0
  9 10  2  0  0  0  0
 10  1  1  0  0  0  0
 11  7  1  0  0  0  0
 12  8  1  0  0  0  0
 13  9  1  0  0  0  0
 14 19  1  0  0  0  0
 14 20  1  0  0  0  0
 15 14  2  0  0  0  0
 16 17  2  0  0  0  0
 16 15  1  0  0  0  0
 17 18  1  0  0  0  0
 18  6  1  0  0  0  0
 18 19  2  0  0  0  0
 21 15  1  0  0  0  0
 22 23  1  0  0  0  0
 22 16  1  0  0  0  0
 24 22  1  0  0  0  0
 25 28  1  0  0  0  0
 25 26  1  0  0  0  0
 27 25  1  0  0  0  0
 30 29  2  6  0  0  0
 30 44  1  0  0  0  0
 30 28  1  0  0  0  0
 31 30  1  0  0  0  0
 32 31  1  0  0  0  0
 33 32  1  0  0  0  0
 34 33  2  0  0  0  0
 35 36  2  0  0  0  0
 35 34  1  0  0  0  0
 36 43  1  0  0  0  0
 37 38  2  0  0  0  0
 37 36  1  0  0  0  0
 38 40  1  0  0  0  0
 39 38  1  0  0  0  0
 40 41  1  0  0  0  0
 40 42  2  0  0  0  0
 43 42  1  0  0  0  0
 43 32  2  0  0  0  0
 44 45  1  0  0  0  0
 45 47  1  0  0  0  0
 45 46  1  0  0  0  0
 48 45  1  0  0  0  0
M  END
>  <minimizedAffinity>
-6.03466129

>  <minimizedRMSD>
0.54189533

$$$$
