
 OpenBabel03272503303D

 37 40  0  0  1  0  0  0  0  0999 V2000
   34.9830   29.4080   48.0010 C   0  0  0  0  0  0  0  0  0  0  0  0
   34.8450   29.9150   46.6960 C   0  0  0  0  0  0  0  0  0  0  0  0
   33.6590   29.6230   46.0290 C   0  0  0  0  0  0  0  0  0  0  0  0
   32.7180   28.8680   46.6890 N   0  0  0  0  0  0  0  0  0  0  0  0
   32.8910   28.4090   47.9250 C   0  0  0  0  0  0  0  0  0  0  0  0
   34.0270   28.6800   48.5840 N   0  0  0  0  0  0  0  0  0  0  0  0
   35.6200   30.5060   46.2260 H   0  0  0  0  0  0  0  0  0  0  0  0
   33.4800   29.9770   45.0270 H   0  0  0  0  0  0  0  0  0  0  0  0
   36.2070   29.7110   48.6840 N   0  0  0  0  0  0  0  0  0  0  0  0
   37.3150   30.4730   48.1870 C   0  0  0  0  0  0  0  0  0  0  0  0
   37.9190   31.0490   49.4590 C   0  0  2  0  0  0  0  0  0  0  0  0
   37.0050   30.6300   50.5850 C   0  0  0  0  0  0  0  0  0  0  0  0
   36.5480   29.2930   50.0270 C   0  0  0  0  0  0  0  0  0  0  0  0
   37.0070   31.2930   47.5140 H   0  0  0  0  0  0  0  0  0  0  0  0
   38.0220   29.8200   47.6450 H   0  0  0  0  0  0  0  0  0  0  0  0
   38.9020   30.5730   49.6090 H   0  0  0  0  0  0  0  0  0  0  0  0
   36.1650   31.3020   50.7670 H   0  0  0  0  0  0  0  0  0  0  0  0
   37.6300   30.4030   51.4700 H   0  0  0  0  0  0  0  0  0  0  0  0
   35.6420   28.9950   50.5990 H   0  0  0  0  0  0  0  0  0  0  0  0
   37.3650   28.5560   50.0760 H   0  0  0  0  0  0  0  0  0  0  0  0
   38.0990   32.5410   49.3870 C   0  0  0  0  0  0  0  0  0  0  0  0
   36.9540   33.1030   49.9370 F   0  0  0  0  0  0  0  0  0  0  0  0
   38.0930   32.8910   48.0530 F   0  0  0  0  0  0  0  0  0  0  0  0
   39.2400   32.9780   49.9940 F   0  0  0  0  0  0  0  0  0  0  0  0
   31.6300   27.4310   48.7210 S   0  0  0  0  0  0  0  0  0  0  0  0
   30.1200   27.5870   47.7800 C   0  0  0  0  0  0  0  0  0  0  0  0
   29.3930   28.6850   48.1090 N   0  0  0  0  0  0  0  0  0  0  0  0
   28.2220   28.9500   47.4890 C   0  0  0  0  0  3  0  0  0  0  0  0
   27.7650   28.1230   46.5360 N   0  0  0  0  0  0  0  0  0  0  0  0
   28.4660   27.0100   46.1780 C   0  0  0  0  0  0  0  0  0  0  0  0
   28.0480   26.1160   45.2000 C   0  0  0  0  0  3  0  0  0  0  0  0
   28.8390   25.0120   44.9130 C   0  0  0  0  0  0  0  0  0  0  0  0
   28.4080   24.3950   44.1390 H   0  0  0  0  0  0  0  0  0  0  0  0
   30.0300   24.7670   45.5610 C   0  0  0  0  0  0  0  0  0  0  0  0
   30.5930   23.8970   45.2920 H   0  0  0  0  0  0  0  0  0  0  0  0
   30.4750   25.6470   46.5460 C   0  0  0  0  0  3  0  0  0  0  0  0
   29.6630   26.7310   46.8050 C   0  0  0  0  0  0  0  0  0  0  0  0
  1  6  1  0  0  0  0
  1  9  1  0  0  0  0
  2  1  2  0  0  0  0
  3  4  2  0  0  0  0
  3  2  1  0  0  0  0
  4  5  1  0  0  0  0
  5  6  2  0  0  0  0
  5 25  1  0  0  0  0
  7  2  1  0  0  0  0
  8  3  1  0  0  0  0
  9 13  1  0  0  0  0
 10  9  1  0  0  0  0
 10 11  1  0  0  0  0
 11 16  1  1  0  0  0
 11 12  1  0  0  0  0
 12 17  1  0  0  0  0
 12 18  1  0  0  0  0
 13 20  1  0  0  0  0
 13 12  1  0  0  0  0
 13 19  1  0  0  0  0
 14 10  1  0  0  0  0
 15 10  1  0  0  0  0
 21 11  1  0  0  0  0
 21 22  1  0  0  0  0
 21 24  1  0  0  0  0
 23 21  1  0  0  0  0
 26 27  1  0  0  0  0
 26 25  1  0  0  0  0
 28 27  2  0  0  0  0
 29 28  1  0  0  0  0
 30 29  2  0  0  0  0
 30 37  1  0  0  0  0
 31 30  1  0  0  0  0
 32 31  2  0  0  0  0
 32 34  1  0  0  0  0
 33 32  1  0  0  0  0
 34 36  2  0  0  0  0
 35 34  1  0  0  0  0
 36 37  1  0  0  0  0
 37 26  2  0  0  0  0
M  END
>  <minimizedAffinity>
-6.38369751

>  <minimizedRMSD>
0.978086412

$$$$
