
 OpenBabel03272509573D

 49 53  0  0  0  0  0  0  0  0999 V2000
   32.7930   28.0930   47.0440 C   0  0  0  0  0  0  0  0  0  0  0  0
   32.7300   28.5070   46.0030 H   0  0  0  0  0  0  0  0  0  0  0  0
   33.1680   27.0720   46.9570 H   0  0  0  0  0  0  0  0  0  0  0  0
   31.3980   28.0570   47.5660 C   0  0  0  0  0  0  0  0  0  0  0  0
   31.1150   27.1670   48.5820 C   0  0  0  0  0  0  0  0  0  0  0  0
   29.8540   27.0760   49.1100 C   0  0  0  0  0  0  0  0  0  0  0  0
   28.8800   27.8560   48.6400 N   0  0  0  0  0  0  0  0  0  0  0  0
   29.1660   28.7360   47.6320 C   0  0  0  0  0  0  0  0  0  0  0  0
   30.3940   28.8190   47.1240 N   0  0  0  0  0  0  0  0  0  0  0  0
   31.8520   26.5120   49.0040 H   0  0  0  0  0  0  0  0  0  0  0  0
   29.5720   26.3940   49.9120 H   0  0  0  0  0  0  0  0  0  0  0  0
   28.0390   29.5810   47.1680 C   0  0  0  0  0  0  0  0  0  0  0  0
   27.9820   30.5440   47.7170 H   0  0  0  0  0  0  0  0  0  0  0  0
   27.0900   29.0640   47.3980 H   0  0  0  0  0  0  0  0  0  0  0  0
   28.1070   29.7730   45.6990 C   0  0  0  0  0  0  0  0  0  0  0  0
   29.0190   30.6820   45.2360 N   0  0  0  0  0  0  0  0  0  0  0  0
   29.1640   30.9950   43.9440 C   0  0  0  0  0  3  0  0  0  0  0  0
   28.4110   30.4300   42.9870 N   0  0  0  0  0  0  0  0  0  0  0  0
   27.4870   29.5150   43.3990 C   0  0  0  0  0  0  0  0  0  0  0  0
   26.6800   28.8770   42.4750 C   0  0  0  0  0  3  0  0  0  0  0  0
   25.7540   27.9430   42.8750 C   0  0  0  0  0  0  0  0  0  0  0  0
   25.1750   27.5030   42.0720 H   0  0  0  0  0  0  0  0  0  0  0  0
   25.6280   27.6370   44.2320 C   0  0  0  0  0  0  0  0  0  0  0  0
   24.8840   26.8920   44.4860 H   0  0  0  0  0  0  0  0  0  0  0  0
   26.4210   28.2630   45.1570 C   0  0  0  0  0  3  0  0  0  0  0  0
   27.3330   29.1900   44.7190 C   0  0  0  0  0  0  0  0  0  0  0  0
   33.6830   29.0130   47.8230 C   0  0  0  0  0  0  0  0  0  0  0  0
   34.3050   29.6780   47.1920 H   0  0  0  0  0  0  0  0  0  0  0  0
   33.0460   29.6430   48.4560 H   0  0  0  0  0  0  0  0  0  0  0  0
   34.5810   28.2630   48.6430 O   0  0  0  0  0  0  0  0  0  0  0  0
   36.5650   29.6690   51.3260 C   0  0  0  0  0  0  0  0  0  0  0  0
   37.4520   30.4860   50.5790 C   0  0  0  0  0  0  0  0  0  0  0  0
   37.3050   30.4960   49.2020 C   0  0  0  0  0  0  0  0  0  0  0  0
   36.3120   29.7120   48.6810 N   0  0  0  0  0  0  0  0  0  0  0  0
   35.4830   28.9470   49.3970 C   0  0  0  0  0  0  0  0  0  0  0  0
   35.6230   28.9330   50.7500 N   0  0  0  0  0  0  0  0  0  0  0  0
   36.7060   29.6840   52.4020 H   0  0  0  0  0  0  0  0  0  0  0  0
   38.2190   31.0890   50.9960 H   0  0  0  0  0  0  0  0  0  0  0  0
   38.4270   33.1400   49.5710 F   0  0  0  0  0  0  0  0  0  0  0  0
   38.6410   32.4920   48.4350 C   0  0  0  0  0  0  0  0  0  0  0  0
   38.1090   31.2620   48.2860 C   0  0  0  0  0  0  0  0  0  0  0  0
   38.4010   30.6740   47.0440 C   0  0  0  0  0  0  0  0  0  0  0  0
   39.1510   31.2980   46.0860 C   0  0  0  0  0  0  0  0  0  0  0  0
   39.6670   32.5560   46.2970 C   0  0  0  0  0  0  0  0  0  0  0  0
   39.3990   33.1500   47.4940 C   0  0  0  0  0  0  0  0  0  0  0  0
   38.0220   29.6790   46.8150 H   0  0  0  0  0  0  0  0  0  0  0  0
   39.3440   30.7870   45.1360 H   0  0  0  0  0  0  0  0  0  0  0  0
   40.2600   33.0230   45.5130 H   0  0  0  0  0  0  0  0  0  0  0  0
   39.8010   34.1400   47.6680 H   0  0  0  0  0  0  0  0  0  0  0  0
  1  4  1  0  0  0  0
  1 27  1  0  0  0  0
  2  1  1  0  0  0  0
  3  1  1  0  0  0  0
  4  5  1  0  0  0  0
  5 10  1  0  0  0  0
  5  6  2  0  0  0  0
  6 11  1  0  0  0  0
  7  6  1  0  0  0  0
  8  7  2  0  0  0  0
  9  4  2  0  0  0  0
  9  8  1  0  0  0  0
 12 14  1  0  0  0  0
 12  8  1  0  0  0  0
 12 13  1  0  0  0  0
 15 12  1  0  0  0  0
 16 15  1  0  0  0  0
 17 16  2  0  0  0  0
 18 19  2  0  0  0  0
 18 17  1  0  0  0  0
 19 26  1  0  0  0  0
 20 21  2  0  0  0  0
 20 19  1  0  0  0  0
 21 23  1  0  0  0  0
 22 21  1  0  0  0  0
 23 24  1  0  0  0  0
 23 25  2  0  0  0  0
 26 25  1  0  0  0  0
 26 15  2  0  0  0  0
 27 29  1  0  0  0  0
 27 30  1  0  0  0  0
 28 27  1  0  0  0  0
 30 35  1  0  0  0  0
 31 37  1  0  0  0  0
 32 38  1  0  0  0  0
 32 31  2  0  0  0  0
 33 32  1  0  0  0  0
 34 33  2  0  0  0  0
 34 35  1  0  0  0  0
 35 36  2  0  0  0  0
 36 31  1  0  0  0  0
 40 39  1  0  0  0  0
 41 40  1  0  0  0  0
 41 33  1  0  0  0  0
 42 41  2  0  0  0  0
 43 44  2  0  0  0  0
 43 42  1  0  0  0  0
 44 45  1  0  0  0  0
 45 49  1  0  0  0  0
 45 40  2  0  0  0  0
 46 42  1  0  0  0  0
 47 43  1  0  0  0  0
 48 44  1  0  0  0  0
M  END
>  <minimizedAffinity>
-6.7571826

>  <minimizedRMSD>
1.98865259

$$$$
