
 OpenBabel03272504183D

 29 31  0  0  0  0  0  0  0  0999 V2000
   39.4550   27.2000   33.9270 O   0  0  0  0  0  0  0  0  0  0  0  0
   38.3680   26.8840   34.9360 P   0  0  1  0  0  0  0  0  0  0  0  0
   38.6570   27.6550   36.4040 O   0  0  0  0  0  0  0  0  0  0  0  0
   37.9120   27.4200   37.0070 H   0  0  0  0  0  0  0  0  0  0  0  0
   36.8270   27.4240   34.3780 O   0  0  0  0  0  0  0  0  0  0  0  0
   36.6110   27.8120   33.0710 C   0  0  0  0  0  0  0  0  0  0  0  0
   36.6720   27.0080   31.9330 C   0  0  0  0  0  0  0  0  0  0  0  0
   36.4240   27.5850   30.7050 C   0  0  0  0  0  0  0  0  0  0  0  0
   36.1280   28.9180   30.6300 N   0  0  0  0  0  0  0  0  0  0  0  0
   36.0770   29.6700   31.7540 C   0  0  0  0  0  0  0  0  0  0  0  0
   36.3200   29.1150   32.9710 N   0  0  0  0  0  0  0  0  0  0  0  0
   36.4860   26.9130   29.8600 H   0  0  0  0  0  0  0  0  0  0  0  0
   35.8370   30.7360   31.6650 H   0  0  0  0  0  0  0  0  0  0  0  0
   36.9900   25.6570   32.1890 N   0  0  0  0  0  0  0  0  0  0  0  0
   37.9850   25.5490   32.5180 H   0  0  0  0  0  0  0  0  0  0  0  0
   36.0740   25.2140   31.9470 H   0  0  0  0  0  0  0  0  0  0  0  0
   38.3600   25.2030   35.0770 O   0  0  0  0  0  0  0  0  0  0  0  0
   38.5270   24.5590   36.2940 C   0  0  0  0  0  0  0  0  0  0  0  0
   37.8310   24.7440   37.4230 N   0  0  0  0  0  0  0  0  0  0  0  0
   38.1040   24.0450   38.5400 C   0  0  0  0  0  3  0  0  0  0  0  0
   39.1030   23.1140   38.5700 N   0  0  0  0  0  0  0  0  0  0  0  0
   39.8410   22.8850   37.4520 C   0  0  0  0  0  0  0  0  0  0  0  0
   40.8610   21.9390   37.4720 C   0  0  0  0  0  3  0  0  0  0  0  0
   41.6130   21.7090   36.3270 C   0  0  0  0  0  0  0  0  0  0  0  0
   42.3770   20.9620   36.4400 H   0  0  0  0  0  0  0  0  0  0  0  0
   41.3420   22.4240   35.1710 C   0  0  0  0  0  0  0  0  0  0  0  0
   41.9350   22.2250   34.3090 H   0  0  0  0  0  0  0  0  0  0  0  0
   40.3190   23.3440   35.2180 C   0  0  0  0  0  3  0  0  0  0  0  0
   39.5380   23.6200   36.3190 C   0  0  0  0  0  0  0  0  0  0  0  0
  2  1  2  6  0  0  0
  2 17  1  0  0  0  0
  2  3  1  0  0  0  0
  3  4  1  0  0  0  0
  5  2  1  0  0  0  0
  6  5  1  0  0  0  0
  7 14  1  0  0  0  0
  7  6  2  0  0  0  0
  8  7  1  0  0  0  0
  9  8  2  0  0  0  0
  9 10  1  0  0  0  0
 10 11  2  0  0  0  0
 11  6  1  0  0  0  0
 12  8  1  0  0  0  0
 13 10  1  0  0  0  0
 14 15  1  0  0  0  0
 16 14  1  0  0  0  0
 17 18  1  0  0  0  0
 18 29  2  0  0  0  0
 18 19  1  0  0  0  0
 19 20  2  0  0  0  0
 20 21  1  0  0  0  0
 22 23  1  0  0  0  0
 22 21  2  0  0  0  0
 24 25  1  0  0  0  0
 24 23  2  0  0  0  0
 26 28  2  0  0  0  0
 26 24  1  0  0  0  0
 27 26  1  0  0  0  0
 28 29  1  0  0  0  0
 29 22  1  0  0  0  0
M  END
>  <minimizedAffinity>
-5.72562933

$$$$

 OpenBabel03272504183D

 29 31  0  0  0  0  0  0  0  0999 V2000
   36.8190   27.0790   35.1050 O   0  0  0  0  0  0  0  0  0  0  0  0
   38.1010   26.2710   35.0600 P   0  0  1  0  0  0  0  0  0  0  0  0
   39.3950   27.1460   35.6870 O   0  0  0  0  0  0  0  0  0  0  0  0
   40.1890   26.5630   35.6410 H   0  0  0  0  0  0  0  0  0  0  0  0
   37.9620   24.8330   36.0040 O   0  0  0  0  0  0  0  0  0  0  0  0
   39.0570   24.0610   36.3370 C   0  0  0  0  0  0  0  0  0  0  0  0
   39.1570   23.1500   37.3870 C   0  0  0  0  0  0  0  0  0  0  0  0
   40.3440   22.4700   37.5590 C   0  0  0  0  0  0  0  0  0  0  0  0
   41.3880   22.7010   36.7060 N   0  0  0  0  0  0  0  0  0  0  0  0
   41.2580   23.5930   35.6960 C   0  0  0  0  0  0  0  0  0  0  0  0
   40.0930   24.2710   35.5160 N   0  0  0  0  0  0  0  0  0  0  0  0
   40.3610   21.7770   38.3900 H   0  0  0  0  0  0  0  0  0  0  0  0
   42.1100   23.7600   35.0270 H   0  0  0  0  0  0  0  0  0  0  0  0
   37.9890   23.0310   38.1700 N   0  0  0  0  0  0  0  0  0  0  0  0
   37.8070   23.9050   38.7300 H   0  0  0  0  0  0  0  0  0  0  0  0
   37.6980   22.0630   37.9050 H   0  0  0  0  0  0  0  0  0  0  0  0
   38.3200   25.8620   33.4380 O   0  0  0  0  0  0  0  0  0  0  0  0
   37.2540   25.6420   32.5780 C   0  0  0  0  0  0  0  0  0  0  0  0
   36.4810   26.5550   31.9770 N   0  0  0  0  0  0  0  0  0  0  0  0
   35.4730   26.1960   31.1610 C   0  0  0  0  0  3  0  0  0  0  0  0
   35.1940   24.8830   30.9110 N   0  0  0  0  0  0  0  0  0  0  0  0
   35.9470   23.9140   31.4940 C   0  0  0  0  0  0  0  0  0  0  0  0
   35.6710   22.5720   31.2450 C   0  0  0  0  0  3  0  0  0  0  0  0
   36.4430   21.5850   31.8440 C   0  0  0  0  0  0  0  0  0  0  0  0
   36.1550   20.5820   31.5930 H   0  0  0  0  0  0  0  0  0  0  0  0
   37.4840   21.9430   32.6870 C   0  0  0  0  0  0  0  0  0  0  0  0
   38.0580   21.1640   33.1310 H   0  0  0  0  0  0  0  0  0  0  0  0
   37.7040   23.2870   32.8900 C   0  0  0  0  0  3  0  0  0  0  0  0
   36.9770   24.3130   32.3280 C   0  0  0  0  0  0  0  0  0  0  0  0
  2  1  2  1  0  0  0
  2  3  1  0  0  0  0
  2  5  1  0  0  0  0
  4  3  1  0  0  0  0
  5  6  1  0  0  0  0
  6  7  1  0  0  0  0
  7  8  2  0  0  0  0
  7 14  1  0  0  0  0
  8 12  1  0  0  0  0
  9  8  1  0  0  0  0
 10  9  2  0  0  0  0
 11 10  1  0  0  0  0
 11  6  2  0  0  0  0
 13 10  1  0  0  0  0
 14 15  1  0  0  0  0
 16 14  1  0  0  0  0
 17  2  1  0  0  0  0
 18 17  1  0  0  0  0
 19 18  2  0  0  0  0
 20 19  1  0  0  0  0
 21 20  2  0  0  0  0
 21 22  1  0  0  0  0
 22 29  1  0  0  0  0
 23 22  2  0  0  0  0
 23 24  1  0  0  0  0
 24 26  2  0  0  0  0
 25 24  1  0  0  0  0
 26 28  1  0  0  0  0
 26 27  1  0  0  0  0
 29 18  1  0  0  0  0
 29 28  2  0  0  0  0
M  END
>  <minimizedAffinity>
-5.62425947

$$$$

 OpenBabel03272504183D

 29 31  0  0  0  0  0  0  0  0999 V2000
   37.5220   28.5810   31.7480 O   0  0  0  0  0  0  0  0  0  0  0  0
   36.2520   28.2150   32.4920 P   0  0  1  0  0  0  0  0  0  0  0  0
   35.4100   26.9940   31.6970 O   0  0  0  0  0  0  0  0  0  0  0  0
   34.6080   26.7960   32.2350 H   0  0  0  0  0  0  0  0  0  0  0  0
   36.6060   27.6330   34.0770 O   0  0  0  0  0  0  0  0  0  0  0  0
   37.4990   26.6040   34.3010 C   0  0  0  0  0  0  0  0  0  0  0  0
   38.4970   26.5530   35.2740 C   0  0  0  0  0  0  0  0  0  0  0  0
   39.2960   25.4310   35.3400 C   0  0  0  0  0  0  0  0  0  0  0  0
   39.0950   24.4030   34.4600 N   0  0  0  0  0  0  0  0  0  0  0  0
   38.1160   24.4850   33.5280 C   0  0  0  0  0  0  0  0  0  0  0  0
   37.3220   25.5850   33.4520 N   0  0  0  0  0  0  0  0  0  0  0  0
   40.0520   25.4490   36.1130 H   0  0  0  0  0  0  0  0  0  0  0  0
   37.9760   23.6460   32.8360 H   0  0  0  0  0  0  0  0  0  0  0  0
   38.5690   27.6960   36.0980 N   0  0  0  0  0  0  0  0  0  0  0  0
   38.9050   28.5400   35.5640 H   0  0  0  0  0  0  0  0  0  0  0  0
   38.2440   27.2800   37.0010 H   0  0  0  0  0  0  0  0  0  0  0  0
   35.3670   29.6480   32.6010 O   0  0  0  0  0  0  0  0  0  0  0  0
   34.2320   29.7610   33.3890 C   0  0  0  0  0  0  0  0  0  0  0  0
   33.0170   29.2450   33.1600 N   0  0  0  0  0  0  0  0  0  0  0  0
   31.9980   29.4360   34.0170 C   0  0  0  0  0  3  0  0  0  0  0  0
   32.1580   30.1640   35.1610 N   0  0  0  0  0  0  0  0  0  0  0  0
   33.3690   30.7110   35.4450 C   0  0  0  0  0  0  0  0  0  0  0  0
   33.5430   31.4540   36.6080 C   0  0  0  0  0  3  0  0  0  0  0  0
   34.7830   32.0110   36.8940 C   0  0  0  0  0  0  0  0  0  0  0  0
   34.8200   32.5670   37.8110 H   0  0  0  0  0  0  0  0  0  0  0  0
   35.8400   31.8220   36.0180 C   0  0  0  0  0  0  0  0  0  0  0  0
   36.7790   32.2610   36.2640 H   0  0  0  0  0  0  0  0  0  0  0  0
   35.6010   31.0750   34.8860 C   0  0  0  0  0  3  0  0  0  0  0  0
   34.3990   30.4970   34.5440 C   0  0  0  0  0  0  0  0  0  0  0  0
  2  1  2  6  0  0  0
  2 17  1  0  0  0  0
  2  5  1  0  0  0  0
  3  4  1  0  0  0  0
  3  2  1  0  0  0  0
  5  6  1  0  0  0  0
  6  7  1  0  0  0  0
  7  8  2  0  0  0  0
  7 14  1  0  0  0  0
  8 12  1  0  0  0  0
  9  8  1  0  0  0  0
 10  9  2  0  0  0  0
 11 10  1  0  0  0  0
 11  6  2  0  0  0  0
 13 10  1  0  0  0  0
 14 16  1  0  0  0  0
 15 14  1  0  0  0  0
 17 18  1  0  0  0  0
 18 29  1  0  0  0  0
 19 18  2  0  0  0  0
 19 20  1  0  0  0  0
 20 21  2  0  0  0  0
 21 22  1  0  0  0  0
 22 23  1  0  0  0  0
 23 24  2  0  0  0  0
 24 25  1  0  0  0  0
 26 27  1  0  0  0  0
 26 24  1  0  0  0  0
 28 26  2  0  0  0  0
 29 28  1  0  0  0  0
 29 22  2  0  0  0  0
M  END
>  <minimizedAffinity>
-5.5324378

$$$$

 OpenBabel03272504183D

 29 31  0  0  0  0  0  0  0  0999 V2000
   38.3440   26.7250   36.8000 O   0  0  0  0  0  0  0  0  0  0  0  0
   38.4040   25.7490   35.6410 P   0  0  1  0  0  0  0  0  0  0  0  0
   39.8750   25.8580   34.8290 O   0  0  0  0  0  0  0  0  0  0  0  0
   39.8540   25.1930   34.1000 H   0  0  0  0  0  0  0  0  0  0  0  0
   38.2520   24.1210   36.1910 O   0  0  0  0  0  0  0  0  0  0  0  0
   39.3410   23.2830   36.3230 C   0  0  0  0  0  0  0  0  0  0  0  0
   39.8110   22.6920   37.4950 C   0  0  0  0  0  0  0  0  0  0  0  0
   40.9230   21.8800   37.4230 C   0  0  0  0  0  0  0  0  0  0  0  0
   41.5350   21.6740   36.2180 N   0  0  0  0  0  0  0  0  0  0  0  0
   41.0530   22.2630   35.0990 C   0  0  0  0  0  0  0  0  0  0  0  0
   39.9580   23.0660   35.1550 N   0  0  0  0  0  0  0  0  0  0  0  0
   41.2410   21.4500   38.3640 H   0  0  0  0  0  0  0  0  0  0  0  0
   41.5630   22.0800   34.1450 H   0  0  0  0  0  0  0  0  0  0  0  0
   39.0640   23.0090   38.6500 N   0  0  0  0  0  0  0  0  0  0  0  0
   39.1790   24.0210   38.9200 H   0  0  0  0  0  0  0  0  0  0  0  0
   38.6350   22.0750   38.8410 H   0  0  0  0  0  0  0  0  0  0  0  0
   37.0900   26.1380   34.6570 O   0  0  0  0  0  0  0  0  0  0  0  0
   37.2460   26.6660   33.3840 C   0  0  0  0  0  0  0  0  0  0  0  0
   37.8440   26.1000   32.3270 N   0  0  0  0  0  0  0  0  0  0  0  0
   37.9240   26.7320   31.1430 C   0  0  0  0  0  3  0  0  0  0  0  0
   37.3990   27.9800   30.9660 N   0  0  0  0  0  0  0  0  0  0  0  0
   36.7810   28.6020   32.0040 C   0  0  0  0  0  0  0  0  0  0  0  0
   36.2420   29.8740   31.8340 C   0  0  0  0  0  3  0  0  0  0  0  0
   35.6110   30.5050   32.8980 C   0  0  0  0  0  0  0  0  0  0  0  0
   35.2280   31.4820   32.6710 H   0  0  0  0  0  0  0  0  0  0  0  0
   35.5230   29.8640   34.1240 C   0  0  0  0  0  0  0  0  0  0  0  0
   35.0330   30.3730   34.9210 H   0  0  0  0  0  0  0  0  0  0  0  0
   36.0760   28.6070   34.2240 C   0  0  0  0  0  3  0  0  0  0  0  0
   36.7130   27.9270   33.2110 C   0  0  0  0  0  0  0  0  0  0  0  0
  2  5  1  0  0  0  0
  2  1  2  1  0  0  0
  3  2  1  0  0  0  0
  4  3  1  0  0  0  0
  5  6  1  0  0  0  0
  6  7  1  0  0  0  0
  7 14  1  0  0  0  0
  8  7  2  0  0  0  0
  8 12  1  0  0  0  0
  9  8  1  0  0  0  0
 10 11  1  0  0  0  0
 10  9  2  0  0  0  0
 11  6  2  0  0  0  0
 13 10  1  0  0  0  0
 14 16  1  0  0  0  0
 14 15  1  0  0  0  0
 17  2  1  0  0  0  0
 18 17  1  0  0  0  0
 19 18  2  0  0  0  0
 20 19  1  0  0  0  0
 21 20  2  0  0  0  0
 21 22  1  0  0  0  0
 22 29  1  0  0  0  0
 23 22  2  0  0  0  0
 23 24  1  0  0  0  0
 24 26  2  0  0  0  0
 25 24  1  0  0  0  0
 26 28  1  0  0  0  0
 26 27  1  0  0  0  0
 29 18  1  0  0  0  0
 29 28  2  0  0  0  0
M  END
>  <minimizedAffinity>
-5.5228405

$$$$

 OpenBabel03272504183D

 29 31  0  0  0  0  0  0  0  0999 V2000
   39.8670   21.1870   32.9780 O   0  0  0  0  0  0  0  0  0  0  0  0
   39.0910   22.1820   33.8210 P   0  0  1  0  0  0  0  0  0  0  0  0
   37.6370   21.5230   34.3550 O   0  0  0  0  0  0  0  0  0  0  0  0
   37.1910   22.2120   34.9030 H   0  0  0  0  0  0  0  0  0  0  0  0
   39.9840   22.6350   35.2250 O   0  0  0  0  0  0  0  0  0  0  0  0
   39.3730   23.1360   36.3570 C   0  0  0  0  0  0  0  0  0  0  0  0
   39.6180   22.7660   37.6790 C   0  0  0  0  0  0  0  0  0  0  0  0
   38.8990   23.3850   38.6800 C   0  0  0  0  0  0  0  0  0  0  0  0
   37.9710   24.3370   38.3590 N   0  0  0  0  0  0  0  0  0  0  0  0
   37.7580   24.6720   37.0650 C   0  0  0  0  0  0  0  0  0  0  0  0
   38.4590   24.0700   36.0690 N   0  0  0  0  0  0  0  0  0  0  0  0
   39.1330   23.0580   39.6850 H   0  0  0  0  0  0  0  0  0  0  0  0
   37.0070   25.4390   36.8360 H   0  0  0  0  0  0  0  0  0  0  0  0
   40.6070   21.7710   37.8340 N   0  0  0  0  0  0  0  0  0  0  0  0
   40.2810   20.8410   37.4630 H   0  0  0  0  0  0  0  0  0  0  0  0
   41.3570   22.3400   38.2890 H   0  0  0  0  0  0  0  0  0  0  0  0
   38.8680   23.5310   32.8320 O   0  0  0  0  0  0  0  0  0  0  0  0
   37.6440   23.8350   32.2560 C   0  0  0  0  0  0  0  0  0  0  0  0
   36.7260   22.9840   31.7800 N   0  0  0  0  0  0  0  0  0  0  0  0
   35.5730   23.4210   31.2430 C   0  0  0  0  0  3  0  0  0  0  0  0
   35.2880   24.7540   31.1600 N   0  0  0  0  0  0  0  0  0  0  0  0
   36.1830   25.6630   31.6280 C   0  0  0  0  0  0  0  0  0  0  0  0
   35.9020   27.0230   31.5480 C   0  0  0  0  0  3  0  0  0  0  0  0
   36.8210   27.9480   32.0270 C   0  0  0  0  0  0  0  0  0  0  0  0
   36.5160   28.9720   31.9220 H   0  0  0  0  0  0  0  0  0  0  0  0
   38.0130   27.5100   32.5830 C   0  0  0  0  0  0  0  0  0  0  0  0
   38.6970   28.2420   32.9420 H   0  0  0  0  0  0  0  0  0  0  0  0
   38.2280   26.1510   32.6320 C   0  0  0  0  0  3  0  0  0  0  0  0
   37.3610   25.1830   32.1750 C   0  0  0  0  0  0  0  0  0  0  0  0
  2  1  2  6  0  0  0
  2  3  1  0  0  0  0
  2  5  1  0  0  0  0
  3  4  1  0  0  0  0
  5  6  1  0  0  0  0
  6  7  1  0  0  0  0
  7 14  1  0  0  0  0
  7  8  2  0  0  0  0
  8 12  1  0  0  0  0
  9  8  1  0  0  0  0
 10  9  2  0  0  0  0
 11  6  2  0  0  0  0
 11 10  1  0  0  0  0
 13 10  1  0  0  0  0
 14 16  1  0  0  0  0
 15 14  1  0  0  0  0
 17  2  1  0  0  0  0
 18 17  1  0  0  0  0
 19 18  2  0  0  0  0
 20 19  1  0  0  0  0
 21 20  2  0  0  0  0
 21 22  1  0  0  0  0
 22 29  1  0  0  0  0
 23 22  2  0  0  0  0
 23 24  1  0  0  0  0
 24 26  2  0  0  0  0
 25 24  1  0  0  0  0
 26 28  1  0  0  0  0
 26 27  1  0  0  0  0
 29 18  1  0  0  0  0
 29 28  2  0  0  0  0
M  END
>  <minimizedAffinity>
-5.48709726

$$$$

 OpenBabel03272504183D

 29 31  0  0  0  0  0  0  0  0999 V2000
   39.3140   26.2920   34.7080 O   0  0  0  0  0  0  0  0  0  0  0  0
   38.3830   25.4300   33.8770 P   0  0  1  0  0  0  0  0  0  0  0  0
   39.0780   25.0340   32.3960 O   0  0  0  0  0  0  0  0  0  0  0  0
   38.4310   24.4670   31.9140 H   0  0  0  0  0  0  0  0  0  0  0  0
   38.0290   23.9450   34.6800 O   0  0  0  0  0  0  0  0  0  0  0  0
   38.4350   23.6930   35.9760 C   0  0  0  0  0  0  0  0  0  0  0  0
   39.5450   22.9520   36.3810 C   0  0  0  0  0  0  0  0  0  0  0  0
   39.7850   22.8110   37.7310 C   0  0  0  0  0  0  0  0  0  0  0  0
   38.9400   23.3940   38.6350 N   0  0  0  0  0  0  0  0  0  0  0  0
   37.8720   24.1070   38.2080 C   0  0  0  0  0  0  0  0  0  0  0  0
   37.6220   24.2530   36.8800 N   0  0  0  0  0  0  0  0  0  0  0  0
   40.6590   22.2260   37.9840 H   0  0  0  0  0  0  0  0  0  0  0  0
   37.2100   24.5640   38.9540 H   0  0  0  0  0  0  0  0  0  0  0  0
   40.3100   22.4200   35.3210 N   0  0  0  0  0  0  0  0  0  0  0  0
   39.7880   21.6640   34.8070 H   0  0  0  0  0  0  0  0  0  0  0  0
   41.1760   22.9970   35.4260 H   0  0  0  0  0  0  0  0  0  0  0  0
   36.9670   26.3330   33.7080 O   0  0  0  0  0  0  0  0  0  0  0  0
   36.7610   27.1970   32.6440 C   0  0  0  0  0  0  0  0  0  0  0  0
   36.9390   26.9520   31.3400 N   0  0  0  0  0  0  0  0  0  0  0  0
   36.6990   27.8910   30.4070 C   0  0  0  0  0  3  0  0  0  0  0  0
   36.2610   29.1380   30.7510 N   0  0  0  0  0  0  0  0  0  0  0  0
   36.0620   29.4420   32.0610 C   0  0  0  0  0  0  0  0  0  0  0  0
   35.6150   30.7100   32.4220 C   0  0  0  0  0  3  0  0  0  0  0  0
   35.4140   31.0160   33.7610 C   0  0  0  0  0  0  0  0  0  0  0  0
   35.0700   32.0170   33.9410 H   0  0  0  0  0  0  0  0  0  0  0  0
   35.6590   30.0570   34.7310 C   0  0  0  0  0  0  0  0  0  0  0  0
   35.4950   30.3210   35.7490 H   0  0  0  0  0  0  0  0  0  0  0  0
   36.0980   28.8220   34.3060 C   0  0  0  0  0  3  0  0  0  0  0  0
   36.3180   28.4550   32.9970 C   0  0  0  0  0  0  0  0  0  0  0  0
  2  5  1  0  0  0  0
  2  1  2  1  0  0  0
  3  2  1  0  0  0  0
  4  3  1  0  0  0  0
  5  6  1  0  0  0  0
  6  7  2  0  0  0  0
  6 11  1  0  0  0  0
  7  8  1  0  0  0  0
  8 12  1  0  0  0  0
  8  9  2  0  0  0  0
 10  9  1  0  0  0  0
 10 13  1  0  0  0  0
 11 10  2  0  0  0  0
 14 16  1  0  0  0  0
 14  7  1  0  0  0  0
 15 14  1  0  0  0  0
 17  2  1  0  0  0  0
 18 29  1  0  0  0  0
 18 17  1  0  0  0  0
 19 18  2  0  0  0  0
 20 21  2  0  0  0  0
 20 19  1  0  0  0  0
 21 22  1  0  0  0  0
 22 23  2  0  0  0  0
 22 29  1  0  0  0  0
 23 24  1  0  0  0  0
 24 25  1  0  0  0  0
 24 26  2  0  0  0  0
 26 27  1  0  0  0  0
 28 26  1  0  0  0  0
 29 28  2  0  0  0  0
M  END
>  <minimizedAffinity>
-5.31850386

$$$$

 OpenBabel03272504183D

 29 31  0  0  0  0  0  0  0  0999 V2000
   40.6190   23.8370   36.0110 O   0  0  0  0  0  0  0  0  0  0  0  0
   39.2850   24.2760   35.4390 P   0  0  1  0  0  0  0  0  0  0  0  0
   38.1550   24.5340   36.6600 O   0  0  0  0  0  0  0  0  0  0  0  0
   37.3200   24.8280   36.2240 H   0  0  0  0  0  0  0  0  0  0  0  0
   39.4390   25.7600   34.5730 O   0  0  0  0  0  0  0  0  0  0  0  0
   38.3470   26.5410   34.2490 C   0  0  0  0  0  0  0  0  0  0  0  0
   37.7730   27.5490   35.0220 C   0  0  0  0  0  0  0  0  0  0  0  0
   36.6770   28.2200   34.5220 C   0  0  0  0  0  0  0  0  0  0  0  0
   36.1810   27.8860   33.2910 N   0  0  0  0  0  0  0  0  0  0  0  0
   36.7630   26.9020   32.5660 C   0  0  0  0  0  0  0  0  0  0  0  0
   37.8430   26.2320   33.0480 N   0  0  0  0  0  0  0  0  0  0  0  0
   36.2750   28.9900   35.1660 H   0  0  0  0  0  0  0  0  0  0  0  0
   36.3450   26.6550   31.5830 H   0  0  0  0  0  0  0  0  0  0  0  0
   38.4070   27.7650   36.2640 N   0  0  0  0  0  0  0  0  0  0  0  0
   38.2620   26.9540   36.9200 H   0  0  0  0  0  0  0  0  0  0  0  0
   38.8220   28.7080   36.0860 H   0  0  0  0  0  0  0  0  0  0  0  0
   38.8250   23.0480   34.3780 O   0  0  0  0  0  0  0  0  0  0  0  0
   37.7220   22.2410   34.6110 C   0  0  0  0  0  0  0  0  0  0  0  0
   37.2390   21.8290   35.7900 N   0  0  0  0  0  0  0  0  0  0  0  0
   36.1520   21.0410   35.8690 C   0  0  0  0  0  3  0  0  0  0  0  0
   35.4920   20.6260   34.7490 N   0  0  0  0  0  0  0  0  0  0  0  0
   35.9370   21.0140   33.5250 C   0  0  0  0  0  0  0  0  0  0  0  0
   35.2710   20.5970   32.3760 C   0  0  0  0  0  3  0  0  0  0  0  0
   35.7300   20.9960   31.1270 C   0  0  0  0  0  0  0  0  0  0  0  0
   35.1530   20.6250   30.3020 H   0  0  0  0  0  0  0  0  0  0  0  0
   36.8500   21.8080   31.0330 C   0  0  0  0  0  0  0  0  0  0  0  0
   37.1780   22.0980   30.0630 H   0  0  0  0  0  0  0  0  0  0  0  0
   37.4610   22.1850   32.2080 C   0  0  0  0  0  3  0  0  0  0  0  0
   37.0580   21.8250   33.4750 C   0  0  0  0  0  0  0  0  0  0  0  0
  2  1  2  1  0  0  0
  2  3  1  0  0  0  0
  4  3  1  0  0  0  0
  5  2  1  0  0  0  0
  6  5  1  0  0  0  0
  6  7  1  0  0  0  0
  7 14  1  0  0  0  0
  8  7  2  0  0  0  0
  8 12  1  0  0  0  0
  9  8  1  0  0  0  0
 10 11  1  0  0  0  0
 10  9  2  0  0  0  0
 11  6  2  0  0  0  0
 13 10  1  0  0  0  0
 14 15  1  0  0  0  0
 16 14  1  0  0  0  0
 17 18  1  0  0  0  0
 17  2  1  0  0  0  0
 18 19  1  0  0  0  0
 19 20  2  0  0  0  0
 21 20  1  0  0  0  0
 22 21  2  0  0  0  0
 23 22  1  0  0  0  0
 24 23  2  0  0  0  0
 25 24  1  0  0  0  0
 26 24  1  0  0  0  0
 26 28  2  0  0  0  0
 27 26  1  0  0  0  0
 28 29  1  0  0  0  0
 29 22  1  0  0  0  0
 29 18  2  0  0  0  0
M  END
>  <minimizedAffinity>
-5.31444597

$$$$

 OpenBabel03272504183D

 29 31  0  0  0  0  0  0  0  0999 V2000
   38.0300   25.2970   36.6900 O   0  0  0  0  0  0  0  0  0  0  0  0
   38.3940   26.1700   35.5040 P   0  0  1  0  0  0  0  0  0  0  0  0
   39.1080   27.6100   36.0040 O   0  0  0  0  0  0  0  0  0  0  0  0
   39.3290   28.1220   35.1910 H   0  0  0  0  0  0  0  0  0  0  0  0
   39.5270   25.3770   34.4730 O   0  0  0  0  0  0  0  0  0  0  0  0
   40.7770   24.9900   34.9130 C   0  0  0  0  0  0  0  0  0  0  0  0
   41.9520   25.7410   34.8770 C   0  0  0  0  0  0  0  0  0  0  0  0
   43.1100   25.1750   35.3670 C   0  0  0  0  0  0  0  0  0  0  0  0
   43.0840   23.9030   35.8700 N   0  0  0  0  0  0  0  0  0  0  0  0
   41.9260   23.2020   35.8890 C   0  0  0  0  0  0  0  0  0  0  0  0
   40.7770   23.7470   35.4100 N   0  0  0  0  0  0  0  0  0  0  0  0
   43.9890   25.8040   35.3130 H   0  0  0  0  0  0  0  0  0  0  0  0
   41.9330   22.1840   36.2980 H   0  0  0  0  0  0  0  0  0  0  0  0
   41.8040   27.0320   34.3270 N   0  0  0  0  0  0  0  0  0  0  0  0
   41.6050   26.9920   33.2940 H   0  0  0  0  0  0  0  0  0  0  0  0
   41.9520   27.6060   35.1880 H   0  0  0  0  0  0  0  0  0  0  0  0
   36.9480   26.4190   34.6690 O   0  0  0  0  0  0  0  0  0  0  0  0
   36.9140   26.9260   33.3790 C   0  0  0  0  0  0  0  0  0  0  0  0
   37.2910   26.3190   32.2470 N   0  0  0  0  0  0  0  0  0  0  0  0
   37.2030   26.9350   31.0550 C   0  0  0  0  0  3  0  0  0  0  0  0
   36.7250   28.2100   30.9470 N   0  0  0  0  0  0  0  0  0  0  0  0
   36.3280   28.8740   32.0640 C   0  0  0  0  0  0  0  0  0  0  0  0
   35.8390   30.1740   31.9650 C   0  0  0  0  0  3  0  0  0  0  0  0
   35.4350   30.8490   33.1100 C   0  0  0  0  0  0  0  0  0  0  0  0
   35.0730   31.8440   32.9340 H   0  0  0  0  0  0  0  0  0  0  0  0
   35.5210   30.2240   34.3440 C   0  0  0  0  0  0  0  0  0  0  0  0
   35.2030   30.7670   35.2030 H   0  0  0  0  0  0  0  0  0  0  0  0
   36.0130   28.9380   34.3710 C   0  0  0  0  0  3  0  0  0  0  0  0
   36.4300   28.2140   33.2760 C   0  0  0  0  0  0  0  0  0  0  0  0
  2  3  1  0  0  0  0
  2  1  2  1  0  0  0
  4  3  1  0  0  0  0
  5  6  1  0  0  0  0
  5  2  1  0  0  0  0
  6 11  1  0  0  0  0
  7  6  2  0  0  0  0
  7  8  1  0  0  0  0
  8  9  2  0  0  0  0
  9 10  1  0  0  0  0
 10 13  1  0  0  0  0
 11 10  2  0  0  0  0
 12  8  1  0  0  0  0
 14  7  1  0  0  0  0
 14 16  1  0  0  0  0
 15 14  1  0  0  0  0
 17  2  1  0  0  0  0
 18 17  1  0  0  0  0
 19 18  2  0  0  0  0
 20 19  1  0  0  0  0
 21 20  2  0  0  0  0
 21 22  1  0  0  0  0
 22 29  1  0  0  0  0
 23 22  2  0  0  0  0
 23 24  1  0  0  0  0
 24 26  2  0  0  0  0
 25 24  1  0  0  0  0
 26 28  1  0  0  0  0
 26 27  1  0  0  0  0
 29 18  1  0  0  0  0
 29 28  2  0  0  0  0
M  END
>  <minimizedAffinity>
-5.20452118

$$$$

 OpenBabel03272504183D

 29 31  0  0  0  0  0  0  0  0999 V2000
   37.0320   22.8760   37.1900 O   0  0  0  0  0  0  0  0  0  0  0  0
   38.1470   23.3950   36.3040 P   0  0  1  0  0  0  0  0  0  0  0  0
   37.8670   24.9910   35.8450 O   0  0  0  0  0  0  0  0  0  0  0  0
   38.6300   25.2700   35.2850 H   0  0  0  0  0  0  0  0  0  0  0  0
   39.6610   23.3660   37.1290 O   0  0  0  0  0  0  0  0  0  0  0  0
   40.8360   23.0010   36.5020 C   0  0  0  0  0  0  0  0  0  0  0  0
   41.6540   21.9150   36.8130 C   0  0  0  0  0  0  0  0  0  0  0  0
   42.7950   21.7150   36.0660 C   0  0  0  0  0  0  0  0  0  0  0  0
   43.0980   22.5760   35.0470 N   0  0  0  0  0  0  0  0  0  0  0  0
   42.2820   23.6200   34.7710 C   0  0  0  0  0  0  0  0  0  0  0  0
   41.1540   23.8300   35.5000 N   0  0  0  0  0  0  0  0  0  0  0  0
   43.3890   20.8580   36.3530 H   0  0  0  0  0  0  0  0  0  0  0  0
   42.5490   24.2950   33.9490 H   0  0  0  0  0  0  0  0  0  0  0  0
   41.1950   21.1280   37.8910 N   0  0  0  0  0  0  0  0  0  0  0  0
   41.2600   21.6480   38.8050 H   0  0  0  0  0  0  0  0  0  0  0  0
   40.9380   20.2570   37.3730 H   0  0  0  0  0  0  0  0  0  0  0  0
   38.2010   22.3420   34.9860 O   0  0  0  0  0  0  0  0  0  0  0  0
   37.8840   22.7470   33.6990 C   0  0  0  0  0  0  0  0  0  0  0  0
   38.4100   23.7650   33.0040 N   0  0  0  0  0  0  0  0  0  0  0  0
   38.0040   24.0470   31.7540 C   0  0  0  0  0  3  0  0  0  0  0  0
   37.0360   23.3080   31.1360 N   0  0  0  0  0  0  0  0  0  0  0  0
   36.4680   22.2630   31.7940 C   0  0  0  0  0  0  0  0  0  0  0  0
   35.4810   21.5020   31.1730 C   0  0  0  0  0  3  0  0  0  0  0  0
   34.9030   20.4360   31.8500 C   0  0  0  0  0  0  0  0  0  0  0  0
   34.1520   19.9100   31.2910 H   0  0  0  0  0  0  0  0  0  0  0  0
   35.3130   20.1360   33.1400 C   0  0  0  0  0  0  0  0  0  0  0  0
   34.8510   19.3120   33.6320 H   0  0  0  0  0  0  0  0  0  0  0  0
   36.2940   20.9270   33.6950 C   0  0  0  0  0  3  0  0  0  0  0  0
   36.9060   21.9970   33.0800 C   0  0  0  0  0  0  0  0  0  0  0  0
  2  5  1  0  0  0  0
  2  1  2  1  0  0  0
  3  2  1  0  0  0  0
  4  3  1  0  0  0  0
  6  7  1  0  0  0  0
  6  5  1  0  0  0  0
  7 14  1  0  0  0  0
  8 12  1  0  0  0  0
  8  7  2  0  0  0  0
  9  8  1  0  0  0  0
 10  9  2  0  0  0  0
 10 11  1  0  0  0  0
 11  6  2  0  0  0  0
 13 10  1  0  0  0  0
 14 15  1  0  0  0  0
 16 14  1  0  0  0  0
 17  2  1  0  0  0  0
 18 17  1  0  0  0  0
 19 18  2  0  0  0  0
 20 19  1  0  0  0  0
 21 20  2  0  0  0  0
 21 22  1  0  0  0  0
 22 29  1  0  0  0  0
 23 22  2  0  0  0  0
 23 24  1  0  0  0  0
 24 26  2  0  0  0  0
 25 24  1  0  0  0  0
 26 27  1  0  0  0  0
 26 28  1  0  0  0  0
 29 28  2  0  0  0  0
 29 18  1  0  0  0  0
M  END
>  <minimizedAffinity>
-5.17030048

$$$$
