
 OpenBabel03272502253D

 33 36  0  0  0  0  0  0  0  0999 V2000
   37.1570   29.9390   50.9070 C   0  0  0  0  0  0  0  0  0  0  0  0
   37.7320   30.4850   49.7330 C   0  0  0  0  0  0  0  0  0  0  0  0
   36.9490   30.4550   48.5710 C   0  0  0  0  0  0  0  0  0  0  0  0
   35.7260   29.9190   48.6480 N   0  0  0  0  0  0  0  0  0  0  0  0
   35.1930   29.4040   49.7650 C   0  0  0  0  0  0  0  0  0  0  0  0
   35.9200   29.4170   50.9050 N   0  0  0  0  0  0  0  0  0  0  0  0
   37.8130   29.9930   51.7670 H   0  0  0  0  0  0  0  0  0  0  0  0
   38.7250   30.9120   49.7040 H   0  0  0  0  0  0  0  0  0  0  0  0
   37.4210   30.9800   47.3080 C   0  0  0  0  0  0  0  0  0  0  0  0
   36.7900   30.6740   46.1260 C   0  0  0  0  0  0  0  0  0  0  0  0
   37.2030   31.1470   44.8990 C   0  0  0  0  0  0  0  0  0  0  0  0
   38.2880   31.9590   44.8430 N   0  0  0  0  0  0  0  0  0  0  0  0
   38.8960   32.2530   45.9990 C   0  0  0  0  0  0  0  0  0  0  0  0
   38.4960   31.7930   47.1940 N   0  0  0  0  0  0  0  0  0  0  0  0
   35.9260   30.0440   46.0640 H   0  0  0  0  0  0  0  0  0  0  0  0
   36.7260   30.9200   43.9640 H   0  0  0  0  0  0  0  0  0  0  0  0
   40.0830   33.1390   45.9610 C   0  0  0  0  0  0  0  0  0  0  0  0
   40.1480   33.7990   47.2000 F   0  0  0  0  0  0  0  0  0  0  0  0
   41.2390   32.4390   45.7130 F   0  0  0  0  0  0  0  0  0  0  0  0
   39.9510   34.1380   45.0250 F   0  0  0  0  0  0  0  0  0  0  0  0
   33.9300   28.8890   49.6890 O   0  0  0  0  0  0  0  0  0  0  0  0
   33.5840   27.9990   48.7070 C   0  0  0  0  0  0  0  0  0  0  0  0
   34.2250   27.3480   47.7490 N   0  0  0  0  0  0  0  0  0  0  0  0
   33.6770   26.4990   46.8710 C   0  0  0  0  0  0  0  0  0  0  0  0
   32.3600   26.2240   46.8960 N   0  0  0  0  0  0  0  0  0  0  0  0
   31.6320   26.8330   47.8290 C   0  0  0  0  0  0  0  0  0  0  0  0
   30.2890   26.5270   47.8210 C   0  0  0  0  0  0  0  0  0  0  0  0
   29.4610   27.1120   48.7530 C   0  0  0  0  0  0  0  0  0  0  0  0
   28.4070   26.8710   48.7460 H   0  0  0  0  0  0  0  0  0  0  0  0
   29.9770   27.9890   49.6720 C   0  0  0  0  0  0  0  0  0  0  0  0
   29.3520   28.4790   50.4330 H   0  0  0  0  0  0  0  0  0  0  0  0
   31.3250   28.2540   49.6260 C   0  0  0  0  0  0  0  0  0  0  0  0
   32.2230   27.7070   48.7230 C   0  0  0  0  0  0  0  0  0  0  0  0
  1  7  1  0  0  0  0
  2  1  2  0  0  0  0
  3  4  2  0  0  0  0
  3  2  1  0  0  0  0
  4  5  1  0  0  0  0
  5  6  2  0  0  0  0
  6  1  1  0  0  0  0
  8  2  1  0  0  0  0
  9  3  1  0  0  0  0
 10  9  2  0  0  0  0
 11 10  1  0  0  0  0
 12 11  2  0  0  0  0
 12 13  1  0  0  0  0
 13 14  2  0  0  0  0
 14  9  1  0  0  0  0
 15 10  1  0  0  0  0
 16 11  1  0  0  0  0
 17 13  1  0  0  0  0
 17 18  1  0  0  0  0
 19 17  1  0  0  0  0
 20 17  1  0  0  0  0
 21  5  1  0  0  0  0
 22 33  1  0  0  0  0
 22 21  1  0  0  0  0
 23 22  2  0  0  0  0
 24 25  2  0  0  0  0
 24 23  1  0  0  0  0
 25 26  1  0  0  0  0
 26 33  1  0  0  0  0
 27 26  2  0  0  0  0
 27 28  1  0  0  0  0
 28 30  2  0  0  0  0
 29 28  1  0  0  0  0
 30 31  1  0  0  0  0
 32 30  1  0  0  0  0
 33 32  2  0  0  0  0
M  END
>  <minimizedAffinity>
-6.78186464

>  <minimizedRMSD>
0.87051785

$$$$
