
 OpenBabel03272504243D

 42 46  0  0  0  0  0  0  0  0999 V2000
   32.0780   28.7500   45.0260 C   0  0  0  0  0  0  0  0  0  0  0  0
   32.5140   29.7380   45.9120 C   0  0  0  0  0  0  0  0  0  0  0  0
   32.2220   31.0750   45.7850 C   0  0  0  0  0  0  0  0  0  0  0  0
   31.4450   31.5310   44.7300 C   0  0  0  0  0  0  0  0  0  0  0  0
   30.9680   30.6250   43.8070 C   0  0  0  0  0  0  0  0  0  0  0  0
   31.3080   29.3250   44.0130 C   0  0  0  0  0  0  0  0  0  0  0  0
   32.6130   31.7830   46.5340 H   0  0  0  0  0  0  0  0  0  0  0  0
   31.2580   32.5920   44.6920 H   0  0  0  0  0  0  0  0  0  0  0  0
   30.3720   30.9480   42.9930 H   0  0  0  0  0  0  0  0  0  0  0  0
   30.9100   28.6250   43.2580 H   0  0  0  0  0  0  0  0  0  0  0  0
   35.1240   29.4600   48.4820 C   0  0  0  0  0  0  0  0  0  0  0  0
   34.6520   28.4150   49.1630 C   0  0  0  0  0  0  0  0  0  0  0  0
   33.5150   27.8060   48.8320 C   0  0  0  0  0  0  0  0  0  0  0  0
   32.8370   28.2740   47.7660 N   0  0  0  0  0  0  0  0  0  0  0  0
   33.2900   29.3130   47.0600 C   0  0  0  0  0  0  0  0  0  0  0  0
   34.4330   29.9090   47.4180 N   0  0  0  0  0  0  0  0  0  0  0  0
   35.2530   28.0950   49.9970 H   0  0  0  0  0  0  0  0  0  0  0  0
   33.2750   26.9790   49.4960 H   0  0  0  0  0  0  0  0  0  0  0  0
   37.9170   30.7050   50.5310 C   0  0  0  0  0  0  0  0  0  0  0  0
   38.5040   31.6580   49.6740 C   0  0  0  0  0  0  0  0  0  0  0  0
   37.9230   31.8460   48.3980 C   0  0  0  0  0  0  0  0  0  0  0  0
   36.8280   31.1010   48.0540 N   0  0  0  0  0  0  0  0  0  0  0  0
   36.3050   30.2130   48.8900 C   0  0  0  0  0  0  0  0  0  0  0  0
   36.8530   30.0110   50.1420 N   0  0  0  0  0  0  0  0  0  0  0  0
   38.3560   30.5570   51.5080 H   0  0  0  0  0  0  0  0  0  0  0  0
   39.3520   32.2450   49.9230 H   0  0  0  0  0  0  0  0  0  0  0  0
   38.2950   32.5470   47.6710 H   0  0  0  0  0  0  0  0  0  0  0  0
   32.4210   27.0950   45.1620 S   0  0  0  0  0  0  0  0  0  0  0  0
   32.0480   26.6590   43.8010 O   0  0  0  0  0  0  0  0  0  0  0  0
   31.3590   26.3650   45.9040 O   0  0  0  0  0  0  0  0  0  0  0  0
   33.8590   26.2740   44.7450 C   0  0  0  0  0  0  0  0  0  0  0  0
   34.6780   26.3810   43.7120 N   0  0  0  0  0  0  0  0  0  0  0  0
   35.7430   25.6620   43.3670 C   0  0  0  0  0  3  0  0  0  0  0  0
   36.0900   24.6480   44.1600 N   0  0  0  0  0  0  0  0  0  0  0  0
   35.3350   24.4320   45.2430 C   0  0  0  0  0  0  0  0  0  0  0  0
   35.7680   23.3660   46.0130 C   0  0  0  0  0  3  0  0  0  0  0  0
   35.1010   23.0210   47.1670 C   0  0  0  0  0  0  0  0  0  0  0  0
   35.4390   22.1930   47.7620 H   0  0  0  0  0  0  0  0  0  0  0  0
   34.0000   23.7610   47.5310 C   0  0  0  0  0  0  0  0  0  0  0  0
   33.4840   23.4940   48.4250 H   0  0  0  0  0  0  0  0  0  0  0  0
   33.6310   24.8050   46.7180 C   0  0  0  0  0  3  0  0  0  0  0  0
   34.2500   25.2040   45.5500 C   0  0  0  0  0  0  0  0  0  0  0  0
  1 28  1  0  0  0  0
  1  2  1  0  0  0  0
  2 15  1  0  0  0  0
  3  2  2  0  0  0  0
  3  7  1  0  0  0  0
  4  3  1  0  0  0  0
  5  6  1  0  0  0  0
  5  4  2  0  0  0  0
  6  1  2  0  0  0  0
  8  4  1  0  0  0  0
  9  5  1  0  0  0  0
 10  6  1  0  0  0  0
 11 23  1  0  0  0  0
 11 12  1  0  0  0  0
 12 17  1  0  0  0  0
 13 12  2  0  0  0  0
 13 18  1  0  0  0  0
 14 13  1  0  0  0  0
 15 16  1  0  0  0  0
 15 14  2  0  0  0  0
 16 11  2  0  0  0  0
 19 25  1  0  0  0  0
 20 26  1  0  0  0  0
 20 19  2  0  0  0  0
 21 20  1  0  0  0  0
 22 21  2  0  0  0  0
 22 23  1  0  0  0  0
 23 24  2  0  0  0  0
 24 19  1  0  0  0  0
 27 21  1  0  0  0  0
 28 30  2  0  0  0  0
 29 28  2  0  0  0  0
 31 28  1  0  0  0  0
 31 42  1  0  0  0  0
 32 31  2  0  0  0  0
 33 32  1  0  0  0  0
 33 34  2  0  0  0  0
 34 35  1  0  0  0  0
 35 42  2  0  0  0  0
 35 36  1  0  0  0  0
 36 37  2  0  0  0  0
 37 39  1  0  0  0  0
 37 38  1  0  0  0  0
 39 40  1  0  0  0  0
 41 39  2  0  0  0  0
 42 41  1  0  0  0  0
M  END
>  <minimizedAffinity>
-5.54114056

>  <minimizedRMSD>
2.99589205

$$$$
