
 OpenBabel03272509573D

 49 53  0  0  0  0  0  0  0  0999 V2000
   33.6170   27.5160   47.7410 C   0  0  0  0  0  0  0  0  0  0  0  0
   33.9390   27.2770   46.6940 H   0  0  0  0  0  0  0  0  0  0  0  0
   33.7240   26.5990   48.3220 H   0  0  0  0  0  0  0  0  0  0  0  0
   32.1730   27.8770   47.6630 C   0  0  0  0  0  0  0  0  0  0  0  0
   31.3590   27.5010   48.7130 C   0  0  0  0  0  0  0  0  0  0  0  0
   30.0220   27.7970   48.7100 C   0  0  0  0  0  0  0  0  0  0  0  0
   29.4910   28.4580   47.6810 N   0  0  0  0  0  0  0  0  0  0  0  0
   30.3020   28.8270   46.6440 C   0  0  0  0  0  0  0  0  0  0  0  0
   31.6010   28.5370   46.6530 N   0  0  0  0  0  0  0  0  0  0  0  0
   31.7230   26.9690   49.5700 H   0  0  0  0  0  0  0  0  0  0  0  0
   29.3320   27.5280   49.5100 H   0  0  0  0  0  0  0  0  0  0  0  0
   29.6460   29.5700   45.5390 C   0  0  0  0  0  0  0  0  0  0  0  0
   30.2690   30.4130   45.1730 H   0  0  0  0  0  0  0  0  0  0  0  0
   28.7250   30.0410   45.9260 H   0  0  0  0  0  0  0  0  0  0  0  0
   29.2600   28.6420   44.4490 C   0  0  0  0  0  0  0  0  0  0  0  0
   30.2540   28.2220   43.6100 N   0  0  0  0  0  0  0  0  0  0  0  0
   30.0500   27.4220   42.5590 C   0  0  0  0  0  3  0  0  0  0  0  0
   28.8290   26.9620   42.2410 N   0  0  0  0  0  0  0  0  0  0  0  0
   27.8020   27.3530   43.0490 C   0  0  0  0  0  0  0  0  0  0  0  0
   26.5150   26.9140   42.8000 C   0  0  0  0  0  3  0  0  0  0  0  0
   25.4720   27.2900   43.6140 C   0  0  0  0  0  0  0  0  0  0  0  0
   24.5070   26.8900   43.3300 H   0  0  0  0  0  0  0  0  0  0  0  0
   25.7190   28.1240   44.7060 C   0  0  0  0  0  0  0  0  0  0  0  0
   24.8600   28.3840   45.3130 H   0  0  0  0  0  0  0  0  0  0  0  0
   26.9900   28.5660   44.9630 C   0  0  0  0  0  3  0  0  0  0  0  0
   28.0040   28.1720   44.1280 C   0  0  0  0  0  0  0  0  0  0  0  0
   34.4770   28.6480   48.2120 C   0  0  0  0  0  0  0  0  0  0  0  0
   35.3400   28.8630   47.5500 H   0  0  0  0  0  0  0  0  0  0  0  0
   33.8530   29.5490   48.2590 H   0  0  0  0  0  0  0  0  0  0  0  0
   35.0090   28.3670   49.5080 O   0  0  0  0  0  0  0  0  0  0  0  0
   37.3720   30.1920   51.5560 C   0  0  0  0  0  0  0  0  0  0  0  0
   38.0970   30.8790   50.5490 C   0  0  0  0  0  0  0  0  0  0  0  0
   37.7210   30.6680   49.2330 C   0  0  0  0  0  0  0  0  0  0  0  0
   36.6780   29.8070   49.0200 N   0  0  0  0  0  0  0  0  0  0  0  0
   36.0040   29.1650   49.9790 C   0  0  0  0  0  0  0  0  0  0  0  0
   36.3690   29.3700   51.2730 N   0  0  0  0  0  0  0  0  0  0  0  0
   37.6910   30.3800   52.5770 H   0  0  0  0  0  0  0  0  0  0  0  0
   38.9050   31.5440   50.7290 H   0  0  0  0  0  0  0  0  0  0  0  0
   38.9490   33.2820   49.0270 F   0  0  0  0  0  0  0  0  0  0  0  0
   38.9130   32.4900   47.9640 C   0  0  0  0  0  0  0  0  0  0  0  0
   38.3360   31.2780   48.0850 C   0  0  0  0  0  0  0  0  0  0  0  0
   38.3570   30.5300   46.8960 C   0  0  0  0  0  0  0  0  0  0  0  0
   38.9080   30.9960   45.7350 C   0  0  0  0  0  0  0  0  0  0  0  0
   39.4820   32.2450   45.6740 C   0  0  0  0  0  0  0  0  0  0  0  0
   39.4770   32.9920   46.8140 C   0  0  0  0  0  0  0  0  0  0  0  0
   37.9180   29.5320   46.8770 H   0  0  0  0  0  0  0  0  0  0  0  0
   38.8920   30.3650   44.8400 H   0  0  0  0  0  0  0  0  0  0  0  0
   39.9120   32.5850   44.7340 H   0  0  0  0  0  0  0  0  0  0  0  0
   39.9260   33.9770   46.7760 H   0  0  0  0  0  0  0  0  0  0  0  0
  1 27  1  0  0  0  0
  1  3  1  0  0  0  0
  2  1  1  0  0  0  0
  4  1  1  0  0  0  0
  4  5  1  0  0  0  0
  5 10  1  0  0  0  0
  6  5  2  0  0  0  0
  6 11  1  0  0  0  0
  7  6  1  0  0  0  0
  8  9  1  0  0  0  0
  8  7  2  0  0  0  0
  9  4  2  0  0  0  0
 12 14  1  0  0  0  0
 12  8  1  0  0  0  0
 13 12  1  0  0  0  0
 15 12  1  0  0  0  0
 16 15  2  0  0  0  0
 17 16  1  0  0  0  0
 18 17  2  0  0  0  0
 18 19  1  0  0  0  0
 19 26  1  0  0  0  0
 20 19  2  0  0  0  0
 20 21  1  0  0  0  0
 21 23  2  0  0  0  0
 22 21  1  0  0  0  0
 23 25  1  0  0  0  0
 23 24  1  0  0  0  0
 26 15  1  0  0  0  0
 26 25  2  0  0  0  0
 27 29  1  0  0  0  0
 27 30  1  0  0  0  0
 28 27  1  0  0  0  0
 30 35  1  0  0  0  0
 31 37  1  0  0  0  0
 32 38  1  0  0  0  0
 32 31  2  0  0  0  0
 33 32  1  0  0  0  0
 34 33  2  0  0  0  0
 34 35  1  0  0  0  0
 35 36  2  0  0  0  0
 36 31  1  0  0  0  0
 40 41  1  0  0  0  0
 40 39  1  0  0  0  0
 41 33  1  0  0  0  0
 42 41  2  0  0  0  0
 43 42  1  0  0  0  0
 44 43  2  0  0  0  0
 44 45  1  0  0  0  0
 45 40  2  0  0  0  0
 46 42  1  0  0  0  0
 47 43  1  0  0  0  0
 48 44  1  0  0  0  0
 49 45  1  0  0  0  0
M  END
>  <minimizedAffinity>
-6.73078585

>  <minimizedRMSD>
0.645079136

$$$$
