
 OpenBabel03272504573D

 36 39  0  0  1  0  0  0  0  0999 V2000
   36.9610   31.5200   48.8020 C   0  0  1  0  0  0  0  0  0  0  0  0
   36.0570   30.9950   47.8060 C   0  0  0  0  0  0  0  0  0  0  0  0
   37.0760   30.1040   48.4440 C   0  0  2  0  0  0  0  0  0  0  0  0
   36.6480   31.6980   49.8880 H   0  0  0  0  0  0  0  0  0  0  0  0
   35.0580   31.2530   48.1110 H   0  0  0  0  0  0  0  0  0  0  0  0
   36.2480   31.2760   46.7510 H   0  0  0  0  0  0  0  0  0  0  0  0
   37.6810   29.6370   47.6860 H   0  0  0  0  0  0  0  0  0  0  0  0
   38.1120   32.4070   48.4140 C   0  0  0  0  0  0  0  0  0  0  0  0
   38.4970   33.3670   49.3650 C   0  0  0  0  0  0  0  0  0  0  0  0
   39.5540   34.1650   48.9880 C   0  0  0  0  0  0  0  0  0  0  0  0
   40.1450   33.9960   47.7840 N   0  0  0  0  0  0  0  0  0  0  0  0
   39.7450   33.0570   46.8940 C   0  0  0  0  0  0  0  0  0  0  0  0
   38.6920   32.2340   47.2200 N   0  0  0  0  0  0  0  0  0  0  0  0
   40.3540   32.8440   45.6530 N   0  0  0  0  0  0  0  0  0  0  0  0
   38.0440   33.5090   50.3130 H   0  0  0  0  0  0  0  0  0  0  0  0
   39.9070   34.9280   49.6690 H   0  0  0  0  0  0  0  0  0  0  0  0
   41.2760   32.3250   45.5540 H   0  0  0  0  0  0  0  0  0  0  0  0
   39.8830   33.2080   44.8000 H   0  0  0  0  0  0  0  0  0  0  0  0
   36.5760   29.2040   49.3890 O   0  0  0  0  0  0  0  0  0  0  0  0
   34.6690   27.4990   49.7010 O   0  0  0  0  0  0  0  0  0  0  0  0
   34.9980   28.8010   49.0430 P   0  0  1  0  0  0  0  0  0  0  0  0
   33.9410   29.9570   49.7870 O   0  0  0  0  0  0  0  0  0  0  0  0
   33.0440   29.5660   49.6460 H   0  0  0  0  0  0  0  0  0  0  0  0
   34.7760   28.8120   47.3800 O   0  0  0  0  0  0  0  0  0  0  0  0
   33.6120   28.8500   46.6730 C   0  0  0  0  0  0  0  0  0  0  0  0
   32.3970   28.6640   47.1890 N   0  0  0  0  0  0  0  0  0  0  0  0
   31.3430   28.7330   46.3580 C   0  0  0  0  0  3  0  0  0  0  0  0
   31.4720   28.9810   45.0320 N   0  0  0  0  0  0  0  0  0  0  0  0
   32.6770   29.1750   44.4640 C   0  0  0  0  0  0  0  0  0  0  0  0
   32.8450   29.4310   43.1130 C   0  0  0  0  0  3  0  0  0  0  0  0
   34.0850   29.6220   42.5740 C   0  0  0  0  0  0  0  0  0  0  0  0
   34.2490   29.8230   41.5270 H   0  0  0  0  0  0  0  0  0  0  0  0
   35.1810   29.5600   43.3880 C   0  0  0  0  0  0  0  0  0  0  0  0
   36.1760   29.7090   42.9830 H   0  0  0  0  0  0  0  0  0  0  0  0
   35.0020   29.3050   44.7320 C   0  0  0  0  0  3  0  0  0  0  0  0
   33.7760   29.1080   45.3080 C   0  0  0  0  0  0  0  0  0  0  0  0
  1  4  1  1  0  0  0
  2  5  1  0  0  0  0
  2  3  1  0  0  0  0
  2  1  1  0  0  0  0
  3  7  1  6  0  0  0
  3  1  1  0  0  0  0
  3 19  1  0  0  0  0
  6  2  1  0  0  0  0
  8  1  1  0  0  0  0
  8  9  1  0  0  0  0
  9 15  1  0  0  0  0
 10  9  2  0  0  0  0
 10 16  1  0  0  0  0
 11 10  1  0  0  0  0
 12 13  1  0  0  0  0
 12 11  2  0  0  0  0
 13  8  2  0  0  0  0
 14 12  1  0  0  0  0
 17 14  1  0  0  0  0
 18 14  1  0  0  0  0
 21 19  1  0  0  0  0
 21 20  2  1  0  0  0
 21 22  1  0  0  0  0
 23 22  1  0  0  0  0
 24 21  1  0  0  0  0
 25 26  1  0  0  0  0
 25 24  1  0  0  0  0
 27 26  2  0  0  0  0
 28 27  1  0  0  0  0
 29 28  2  0  0  0  0
 29 36  1  0  0  0  0
 30 29  1  0  0  0  0
 31 30  2  0  0  0  0
 31 33  1  0  0  0  0
 32 31  1  0  0  0  0
 33 35  2  0  0  0  0
 34 33  1  0  0  0  0
 35 36  1  0  0  0  0
 36 25  2  0  0  0  0
M  END
>  <minimizedAffinity>
-4.60080051

>  <minimizedRMSD>
1.92527604

$$$$
