
 OpenBabel03272502073D

 42 46  0  0  0  0  0  0  0  0999 V2000
   34.5730   30.1850   47.6960 F   0  0  0  0  0  0  0  0  0  0  0  0
   34.8870   29.8410   46.4080 C   0  0  0  0  0  0  0  0  0  0  0  0
   33.9870   29.1830   45.5710 C   0  0  0  0  0  0  0  0  0  0  0  0
   34.3650   28.8860   44.2880 C   0  0  0  0  0  0  0  0  0  0  0  0
   35.6380   29.2370   43.8220 C   0  0  0  0  0  0  0  0  0  0  0  0
   36.4890   29.8870   44.6960 C   0  0  0  0  0  0  0  0  0  0  0  0
   36.1580   30.1970   45.9600 C   0  0  0  0  0  0  0  0  0  0  0  0
   33.6380   28.3770   43.6780 H   0  0  0  0  0  0  0  0  0  0  0  0
   35.9030   28.9870   42.7990 H   0  0  0  0  0  0  0  0  0  0  0  0
   37.4510   30.1260   44.2650 H   0  0  0  0  0  0  0  0  0  0  0  0
   37.9730   32.4190   44.6950 Br  0  0  0  0  0  0  0  0  0  0  0  0
   37.9710   31.8910   46.5250 C   0  0  0  0  0  0  0  0  0  0  0  0
   37.1020   30.8700   46.8290 C   0  0  0  0  0  0  0  0  0  0  0  0
   37.0760   30.4000   48.1540 C   0  0  0  0  0  0  0  0  0  0  0  0
   37.8800   30.9390   49.0980 C   0  0  0  0  0  0  0  0  0  0  0  0
   38.7300   31.9620   48.7400 C   0  0  0  0  0  0  0  0  0  0  0  0
   38.7880   32.4610   47.4270 C   0  0  0  0  0  0  0  0  0  0  0  0
   36.4240   29.6000   48.4780 H   0  0  0  0  0  0  0  0  0  0  0  0
   37.9120   30.6300   50.1310 H   0  0  0  0  0  0  0  0  0  0  0  0
   39.3940   32.4280   49.4630 H   0  0  0  0  0  0  0  0  0  0  0  0
   39.5940   33.4660   46.9910 O   0  0  0  0  0  0  0  0  0  0  0  0
   40.1290   34.0130   47.6630 H   0  0  0  0  0  0  0  0  0  0  0  0
   31.6980   29.7950   45.9950 C   0  0  0  0  0  0  0  0  0  0  0  0
   32.7180   28.8770   46.1710 C   0  0  0  0  0  0  0  0  0  0  0  0
   32.4260   27.7340   46.8830 C   0  0  0  0  0  0  0  0  0  0  0  0
   31.1790   27.5370   47.3800 N   0  0  0  0  0  0  0  0  0  0  0  0
   30.2250   28.4240   47.1970 C   0  0  0  0  0  0  0  0  0  0  0  0
   30.4720   29.5270   46.5240 N   0  0  0  0  0  0  0  0  0  0  0  0
   31.8970   30.7220   45.4320 H   0  0  0  0  0  0  0  0  0  0  0  0
   33.1870   26.9940   47.0460 H   0  0  0  0  0  0  0  0  0  0  0  0
   28.8170   28.4240   47.6350 C   0  0  0  0  0  0  0  0  0  0  0  0
   27.7640   28.8200   46.8900 N   0  0  0  0  0  0  0  0  0  0  0  0
   26.4960   28.8270   47.2660 C   0  0  0  0  0  0  0  0  0  0  0  0
   26.1380   28.4160   48.4910 N   0  0  0  0  0  0  0  0  0  0  0  0
   27.1050   27.9930   49.3360 C   0  0  0  0  0  0  0  0  0  0  0  0
   26.7090   27.5810   50.5750 C   0  0  0  0  0  0  0  0  0  0  0  0
   27.6480   27.1390   51.4810 C   0  0  0  0  0  0  0  0  0  0  0  0
   27.2810   26.8250   52.4440 H   0  0  0  0  0  0  0  0  0  0  0  0
   28.9710   27.1360   51.0760 C   0  0  0  0  0  0  0  0  0  0  0  0
   29.6690   26.7810   51.8220 H   0  0  0  0  0  0  0  0  0  0  0  0
   29.3080   27.5640   49.8120 C   0  0  0  0  0  0  0  0  0  0  0  0
   28.4030   28.0120   48.8800 C   0  0  0  0  0  0  0  0  0  0  0  0
  2  1  1  0  0  0  0
  3 24  1  0  0  0  0
  3  2  2  0  0  0  0
  4  3  1  0  0  0  0
  5  4  2  0  0  0  0
  5  6  1  0  0  0  0
  6  7  2  0  0  0  0
  7  2  1  0  0  0  0
  7 13  1  0  0  0  0
  8  4  1  0  0  0  0
  9  5  1  0  0  0  0
 10  6  1  0  0  0  0
 11 12  1  0  0  0  0
 12 13  2  0  0  0  0
 12 17  1  0  0  0  0
 13 14  1  0  0  0  0
 14 18  1  0  0  0  0
 14 15  2  0  0  0  0
 15 19  1  0  0  0  0
 16 15  1  0  0  0  0
 16 20  1  0  0  0  0
 17 16  2  0  0  0  0
 21 17  1  0  0  0  0
 21 22  1  0  0  0  0
 23 24  2  0  0  0  0
 23 28  1  0  0  0  0
 24 25  1  0  0  0  0
 25 30  1  0  0  0  0
 25 26  2  0  0  0  0
 27 26  1  0  0  0  0
 27 31  1  0  0  0  0
 28 27  2  0  0  0  0
 29 23  1  0  0  0  0
 31 42  1  0  0  0  0
 32 33  1  0  0  0  0
 32 31  2  0  0  0  0
 33 34  2  0  0  0  0
 34 35  1  0  0  0  0
 35 36  1  0  0  0  0
 36 37  2  0  0  0  0
 37 38  1  0  0  0  0
 39 37  1  0  0  0  0
 39 40  1  0  0  0  0
 41 39  2  0  0  0  0
 42 35  2  0  0  0  0
 42 41  1  0  0  0  0
M  END
>  <minimizedAffinity>
-8.17883015

>  <minimizedRMSD>
2.03898716

$$$$
