
 OpenBabel03272506063D

 33 36  0  0  0  0  0  0  0  0999 V2000
   32.6550   27.8990   48.7370 C   0  0  0  0  0  0  0  0  0  0  0  0
   32.4730   26.8600   47.7510 C   0  0  0  0  0  0  0  0  0  0  0  0
   30.7670   26.4520   48.0610 S   0  0  0  0  0  0  0  0  0  0  0  0
   30.5450   27.7060   49.4360 C   0  0  0  0  0  0  0  0  0  0  0  0
   31.6280   28.1960   49.4770 N   0  0  0  0  0  0  0  0  0  0  0  0
   33.1930   26.4840   47.0610 H   0  0  0  0  0  0  0  0  0  0  0  0
   29.1780   27.6930   50.0040 C   0  0  0  0  0  0  0  0  0  0  0  0
   28.7750   26.9950   51.0810 N   0  0  0  0  0  0  0  0  0  0  0  0
   27.5190   27.0260   51.5460 C   0  0  0  0  0  3  0  0  0  0  0  0
   26.5780   27.7690   50.9500 N   0  0  0  0  0  0  0  0  0  0  0  0
   26.8850   28.5010   49.8650 C   0  0  0  0  0  0  0  0  0  0  0  0
   25.8990   29.2570   49.2690 C   0  0  0  0  0  3  0  0  0  0  0  0
   26.2230   30.0090   48.1520 C   0  0  0  0  0  0  0  0  0  0  0  0
   25.4400   30.5970   47.6960 H   0  0  0  0  0  0  0  0  0  0  0  0
   27.5460   29.9510   47.6960 C   0  0  0  0  0  0  0  0  0  0  0  0
   27.6720   30.5810   46.8160 H   0  0  0  0  0  0  0  0  0  0  0  0
   28.5010   29.1800   48.3220 C   0  0  0  0  0  3  0  0  0  0  0  0
   28.1870   28.4430   49.4170 C   0  0  0  0  0  0  0  0  0  0  0  0
   34.0030   28.5470   48.8270 C   0  0  0  0  0  0  0  0  0  0  0  0
   34.1750   29.1960   47.9180 H   0  0  0  0  0  0  0  0  0  0  0  0
   34.8030   27.7810   48.7560 H   0  0  0  0  0  0  0  0  0  0  0  0
   34.1730   29.3660   50.0480 C   0  0  0  0  0  0  0  0  0  0  0  0
   33.4010   30.1630   50.1790 H   0  0  0  0  0  0  0  0  0  0  0  0
   34.0950   28.7190   50.9690 H   0  0  0  0  0  0  0  0  0  0  0  0
   37.6080   30.2020   51.1480 C   0  0  0  0  0  0  0  0  0  0  0  0
   38.0700   31.0290   50.1260 C   0  0  0  0  0  0  0  0  0  0  0  0
   37.1920   31.2890   49.0690 C   0  0  0  0  0  0  0  0  0  0  0  0
   35.9520   30.7430   49.0720 N   0  0  0  0  0  0  0  0  0  0  0  0
   35.5610   29.9410   50.1050 C   0  0  0  0  0  0  0  0  0  0  0  0
   36.3770   29.6770   51.1240 N   0  0  0  0  0  0  0  0  0  0  0  0
   38.2490   29.9720   51.9880 H   0  0  0  0  0  0  0  0  0  0  0  0
   39.0650   31.4560   50.1410 H   0  0  0  0  0  0  0  0  0  0  0  0
   37.5000   31.9140   48.2660 H   0  0  0  0  0  0  0  0  0  0  0  0
  1 19  1  0  0  0  0
  1  5  1  0  0  0  0
  2  3  1  0  0  0  0
  2  1  2  0  0  0  0
  3  4  1  0  0  0  0
  4  5  2  0  0  0  0
  4  7  1  0  0  0  0
  6  2  1  0  0  0  0
  7  8  1  0  0  0  0
  8  9  2  0  0  0  0
 10  9  1  0  0  0  0
 11 10  2  0  0  0  0
 12 11  1  0  0  0  0
 13 12  2  0  0  0  0
 14 13  1  0  0  0  0
 15 13  1  0  0  0  0
 15 17  2  0  0  0  0
 16 15  1  0  0  0  0
 17 18  1  0  0  0  0
 18 11  1  0  0  0  0
 18  7  2  0  0  0  0
 19 22  1  0  0  0  0
 20 19  1  0  0  0  0
 21 19  1  0  0  0  0
 22 29  1  0  0  0  0
 22 23  1  0  0  0  0
 22 24  1  0  0  0  0
 25 31  1  0  0  0  0
 26 32  1  0  0  0  0
 26 25  2  0  0  0  0
 27 28  2  0  0  0  0
 27 26  1  0  0  0  0
 28 29  1  0  0  0  0
 29 30  2  0  0  0  0
 30 25  1  0  0  0  0
 33 27  1  0  0  0  0
M  END
>  <minimizedAffinity>
-6.79058552

>  <minimizedRMSD>
2.85459423

$$$$
