
 OpenBabel03272509103D

 43 47  0  0  0  0  0  0  0  0999 V2000
   37.4780   23.8250   32.7070 C   0  0  0  0  0  0  0  0  0  0  0  0
   36.3400   23.7980   31.9410 C   0  0  0  0  0  0  0  0  0  0  0  0
   35.5890   22.6510   31.8350 C   0  0  0  0  0  0  0  0  0  0  0  0
   35.9590   21.4850   32.4990 C   0  0  0  0  0  0  0  0  0  0  0  0
   37.0910   21.5120   33.2600 C   0  0  0  0  0  0  0  0  0  0  0  0
   37.8550   22.6550   33.3770 C   0  0  0  0  0  0  0  0  0  0  0  0
   36.1160   24.7450   31.4560 H   0  0  0  0  0  0  0  0  0  0  0  0
   34.7260   22.7690   31.2050 H   0  0  0  0  0  0  0  0  0  0  0  0
   35.2730   20.6710   32.3210 H   0  0  0  0  0  0  0  0  0  0  0  0
   37.2990   20.5620   33.7400 H   0  0  0  0  0  0  0  0  0  0  0  0
   38.9980   22.4630   34.2750 C   0  0  0  0  0  0  0  0  0  0  0  0
   40.1510   21.9850   33.7970 N   0  0  0  0  0  0  0  0  0  0  0  0
   41.2490   21.7580   34.5110 C   0  0  0  0  0  3  0  0  0  0  0  0
   41.1760   22.0400   35.8280 N   0  0  0  0  0  0  0  0  0  0  0  0
   40.0620   22.5230   36.4000 C   0  0  0  0  0  0  0  0  0  0  0  0
   40.0710   22.7760   37.7760 C   0  0  0  0  0  3  0  0  0  0  0  0
   38.8690   23.2580   38.2460 C   0  0  0  0  0  0  0  0  0  0  0  0
   38.8640   23.4590   39.3250 H   0  0  0  0  0  0  0  0  0  0  0  0
   37.7180   23.5060   37.5540 C   0  0  0  0  0  0  0  0  0  0  0  0
   36.8340   23.8890   38.0490 H   0  0  0  0  0  0  0  0  0  0  0  0
   37.7700   23.2330   36.1860 C   0  0  0  0  0  3  0  0  0  0  0  0
   38.9250   22.7520   35.6280 C   0  0  0  0  0  0  0  0  0  0  0  0
   38.3830   25.0060   32.8930 C   0  0  0  0  0  0  0  0  0  0  0  0
   39.1240   24.9600   32.0700 H   0  0  0  0  0  0  0  0  0  0  0  0
   38.9350   24.8870   33.8370 H   0  0  0  0  0  0  0  0  0  0  0  0
   37.1040   26.9830   33.7500 C   0  0  0  0  0  3  0  0  0  0  0  0
   37.6870   26.3030   32.8010 C   0  0  0  0  0  3  0  0  0  0  0  0
   35.7620   29.8470   31.9250 C   0  0  0  0  0  0  0  0  0  0  0  0
   35.2940   30.6560   32.9710 C   0  0  0  0  0  0  0  0  0  0  0  0
   35.4540   30.1990   34.2920 C   0  0  0  0  0  0  0  0  0  0  0  0
   36.0640   28.9770   34.4830 N   0  0  0  0  0  0  0  0  0  0  0  0
   36.4880   28.2550   33.4170 C   0  0  0  0  0  0  0  0  0  0  0  0
   36.3420   28.6780   32.1740 N   0  0  0  0  0  0  0  0  0  0  0  0
   35.6030   30.2690   30.9220 H   0  0  0  0  0  0  0  0  0  0  0  0
   34.8060   31.6310   32.8550 H   0  0  0  0  0  0  0  0  0  0  0  0
   35.0170   30.9560   35.4580 C   0  0  0  0  0  0  0  0  0  0  0  0
   33.6870   31.0380   35.8390 C   0  0  0  0  0  0  0  0  0  0  0  0
   33.6440   31.8370   36.9970 C   0  0  0  0  0  0  0  0  0  0  0  0
   34.9230   32.2000   37.2660 N   0  0  0  0  0  0  0  0  0  0  0  0
   35.7280   31.6750   36.3510 N   0  0  0  0  0  0  0  0  0  0  0  0
   32.7900   30.6250   35.4260 H   0  0  0  0  0  0  0  0  0  0  0  0
   32.8060   32.1420   37.6030 H   0  0  0  0  0  0  0  0  0  0  0  0
   35.3480   32.7920   38.0320 H   0  0  0  0  0  0  0  0  0  0  0  0
  1 23  1  0  0  0  0
  1  6  1  0  0  0  0
  2  1  2  0  0  0  0
  3  2  1  0  0  0  0
  3  4  2  0  0  0  0
  4  5  1  0  0  0  0
  5  6  2  0  0  0  0
  5 10  1  0  0  0  0
  6 11  1  0  0  0  0
  7  2  1  0  0  0  0
  8  3  1  0  0  0  0
  9  4  1  0  0  0  0
 11 22  1  0  0  0  0
 12 11  2  0  0  0  0
 12 13  1  0  0  0  0
 13 14  2  0  0  0  0
 14 15  1  0  0  0  0
 15 16  1  0  0  0  0
 16 17  2  0  0  0  0
 17 18  1  0  0  0  0
 19 20  1  0  0  0  0
 19 17  1  0  0  0  0
 21 19  2  0  0  0  0
 22 21  1  0  0  0  0
 22 15  2  0  0  0  0
 23 25  1  0  0  0  0
 24 23  1  0  0  0  0
 27 23  1  0  0  0  0
 27 26  2  0  0  0  0
 28 33  2  0  0  0  0
 28 29  1  0  0  0  0
 29 30  2  0  0  0  0
 30 31  1  0  0  0  0
 30 36  1  0  0  0  0
 32 26  1  0  0  0  0
 32 31  2  0  0  0  0
 33 32  1  0  0  0  0
 34 28  1  0  0  0  0
 35 29  1  0  0  0  0
 36 37  1  0  0  0  0
 36 40  2  0  0  0  0
 37 38  2  0  0  0  0
 38 39  1  0  0  0  0
 38 42  1  0  0  0  0
 39 43  1  0  0  0  0
 40 39  1  0  0  0  0
 41 37  1  0  0  0  0
M  END
>  <minimizedAffinity>
-7.07876062

$$$$

 OpenBabel03272509103D

 43 47  0  0  0  0  0  0  0  0999 V2000
   36.0910   29.0130   33.2770 C   0  0  0  0  0  0  0  0  0  0  0  0
   36.4460   28.6550   32.0010 C   0  0  0  0  0  0  0  0  0  0  0  0
   36.0770   29.4280   30.9240 C   0  0  0  0  0  0  0  0  0  0  0  0
   35.3350   30.5930   31.0950 C   0  0  0  0  0  0  0  0  0  0  0  0
   34.9810   30.9480   32.3640 C   0  0  0  0  0  0  0  0  0  0  0  0
   35.3440   30.1850   33.4550 C   0  0  0  0  0  0  0  0  0  0  0  0
   37.0250   27.7360   31.9490 H   0  0  0  0  0  0  0  0  0  0  0  0
   36.4200   29.0320   29.9850 H   0  0  0  0  0  0  0  0  0  0  0  0
   35.1240   31.0900   30.1610 H   0  0  0  0  0  0  0  0  0  0  0  0
   34.4090   31.8680   32.4010 H   0  0  0  0  0  0  0  0  0  0  0  0
   34.8930   30.7790   34.7170 C   0  0  0  0  0  0  0  0  0  0  0  0
   35.6630   31.6710   35.3480 N   0  0  0  0  0  0  0  0  0  0  0  0
   35.3690   32.2670   36.4990 C   0  0  0  0  0  3  0  0  0  0  0  0
   34.1910   31.9320   37.0640 N   0  0  0  0  0  0  0  0  0  0  0  0
   33.3520   31.0450   36.5060 C   0  0  0  0  0  0  0  0  0  0  0  0
   32.1550   30.7480   37.1680 C   0  0  0  0  0  3  0  0  0  0  0  0
   31.3860   29.8180   36.5040 C   0  0  0  0  0  0  0  0  0  0  0  0
   30.4450   29.5760   37.0150 H   0  0  0  0  0  0  0  0  0  0  0  0
   31.6450   29.1800   35.3250 C   0  0  0  0  0  0  0  0  0  0  0  0
   30.9480   28.4640   34.9060 H   0  0  0  0  0  0  0  0  0  0  0  0
   32.8530   29.5180   34.7120 C   0  0  0  0  0  3  0  0  0  0  0  0
   33.6840   30.4350   35.2990 C   0  0  0  0  0  0  0  0  0  0  0  0
   36.4230   28.2530   34.5260 C   0  0  0  0  0  0  0  0  0  0  0  0
   35.5680   27.5730   34.7100 H   0  0  0  0  0  0  0  0  0  0  0  0
   36.4690   28.9570   35.3700 H   0  0  0  0  0  0  0  0  0  0  0  0
   38.4230   26.9940   35.3570 C   0  0  0  0  0  3  0  0  0  0  0  0
   37.6390   27.4270   34.4090 C   0  0  0  0  0  3  0  0  0  0  0  0
   41.4170   25.7010   33.7120 C   0  0  0  0  0  0  0  0  0  0  0  0
   41.6770   24.5460   34.4640 C   0  0  0  0  0  0  0  0  0  0  0  0
   40.8100   24.2310   35.5270 C   0  0  0  0  0  0  0  0  0  0  0  0
   39.7500   25.0800   35.7690 N   0  0  0  0  0  0  0  0  0  0  0  0
   39.5680   26.1770   34.9950 C   0  0  0  0  0  0  0  0  0  0  0  0
   40.3770   26.4790   33.9940 N   0  0  0  0  0  0  0  0  0  0  0  0
   42.1340   25.8820   32.8990 H   0  0  0  0  0  0  0  0  0  0  0  0
   42.5080   23.8510   34.3000 H   0  0  0  0  0  0  0  0  0  0  0  0
   40.9750   23.0540   36.3710 C   0  0  0  0  0  0  0  0  0  0  0  0
   41.9740   22.1180   36.1600 C   0  0  0  0  0  0  0  0  0  0  0  0
   41.8290   21.1360   37.1590 C   0  0  0  0  0  0  0  0  0  0  0  0
   40.7700   21.5090   37.9190 N   0  0  0  0  0  0  0  0  0  0  0  0
   40.2700   22.6440   37.4460 N   0  0  0  0  0  0  0  0  0  0  0  0
   42.7530   22.0440   35.4300 H   0  0  0  0  0  0  0  0  0  0  0  0
   42.4020   20.2430   37.3470 H   0  0  0  0  0  0  0  0  0  0  0  0
   40.3120   21.0710   38.7660 H   0  0  0  0  0  0  0  0  0  0  0  0
  1  6  1  0  0  0  0
  1 23  1  0  0  0  0
  2  1  2  0  0  0  0
  3  4  2  0  0  0  0
  3  2  1  0  0  0  0
  4  5  1  0  0  0  0
  5 10  1  0  0  0  0
  5  6  2  0  0  0  0
  6 11  1  0  0  0  0
  7  2  1  0  0  0  0
  8  3  1  0  0  0  0
  9  4  1  0  0  0  0
 11 22  2  0  0  0  0
 11 12  1  0  0  0  0
 12 13  2  0  0  0  0
 13 14  1  0  0  0  0
 15 14  2  0  0  0  0
 15 16  1  0  0  0  0
 17 18  1  0  0  0  0
 17 16  2  0  0  0  0
 19 17  1  0  0  0  0
 20 19  1  0  0  0  0
 21 22  1  0  0  0  0
 21 19  2  0  0  0  0
 22 15  1  0  0  0  0
 23 24  1  0  0  0  0
 23 25  1  0  0  0  0
 27 23  1  0  0  0  0
 27 26  2  0  0  0  0
 28 33  2  0  0  0  0
 28 29  1  0  0  0  0
 29 30  2  0  0  0  0
 30 31  1  0  0  0  0
 30 36  1  0  0  0  0
 32 26  1  0  0  0  0
 32 31  2  0  0  0  0
 33 32  1  0  0  0  0
 34 28  1  0  0  0  0
 35 29  1  0  0  0  0
 36 40  2  0  0  0  0
 37 36  1  0  0  0  0
 37 38  2  0  0  0  0
 38 42  1  0  0  0  0
 38 39  1  0  0  0  0
 39 43  1  0  0  0  0
 40 39  1  0  0  0  0
 41 37  1  0  0  0  0
M  END
>  <minimizedAffinity>
-6.97324181

$$$$

 OpenBabel03272509103D

 43 47  0  0  0  0  0  0  0  0999 V2000
   35.9090   29.4450   31.5610 C   0  0  0  0  0  0  0  0  0  0  0  0
   36.9110   29.5460   30.6300 C   0  0  0  0  0  0  0  0  0  0  0  0
   37.2120   30.7550   30.0480 C   0  0  0  0  0  0  0  0  0  0  0  0
   36.5110   31.9100   30.3840 C   0  0  0  0  0  0  0  0  0  0  0  0
   35.5140   31.8080   31.3090 C   0  0  0  0  0  0  0  0  0  0  0  0
   35.2000   30.6030   31.9030 C   0  0  0  0  0  0  0  0  0  0  0  0
   37.4130   28.6040   30.4210 H   0  0  0  0  0  0  0  0  0  0  0  0
   38.0170   30.6920   29.3380 H   0  0  0  0  0  0  0  0  0  0  0  0
   36.8610   32.7780   29.8470 H   0  0  0  0  0  0  0  0  0  0  0  0
   35.0260   32.7560   31.5100 H   0  0  0  0  0  0  0  0  0  0  0  0
   34.1270   30.7400   32.8930 C   0  0  0  0  0  0  0  0  0  0  0  0
   32.8540   30.5540   32.5280 N   0  0  0  0  0  0  0  0  0  0  0  0
   31.7990   30.6600   33.3290 C   0  0  0  0  0  3  0  0  0  0  0  0
   32.0500   30.9850   34.6130 N   0  0  0  0  0  0  0  0  0  0  0  0
   33.2950   31.1920   35.0720 C   0  0  0  0  0  0  0  0  0  0  0  0
   33.4630   31.5370   36.4180 C   0  0  0  0  0  3  0  0  0  0  0  0
   34.7820   31.7340   36.7660 C   0  0  0  0  0  0  0  0  0  0  0  0
   34.9260   32.0060   37.8190 H   0  0  0  0  0  0  0  0  0  0  0  0
   35.8960   31.6370   35.9820 C   0  0  0  0  0  0  0  0  0  0  0  0
   36.8860   31.8180   36.3840 H   0  0  0  0  0  0  0  0  0  0  0  0
   35.6640   31.2900   34.6490 C   0  0  0  0  0  3  0  0  0  0  0  0
   34.3840   31.0740   34.2120 C   0  0  0  0  0  0  0  0  0  0  0  0
   35.4810   28.1870   32.2570 C   0  0  0  0  0  0  0  0  0  0  0  0
   34.9380   27.5850   31.5010 H   0  0  0  0  0  0  0  0  0  0  0  0
   34.7620   28.4440   33.0480 H   0  0  0  0  0  0  0  0  0  0  0  0
   37.2800   27.5090   33.8630 C   0  0  0  0  0  3  0  0  0  0  0  0
   36.6080   27.3750   32.7540 C   0  0  0  0  0  3  0  0  0  0  0  0
   40.3860   25.5960   33.6960 C   0  0  0  0  0  0  0  0  0  0  0  0
   40.2760   24.7760   34.8290 C   0  0  0  0  0  0  0  0  0  0  0  0
   39.1260   24.8960   35.6310 C   0  0  0  0  0  0  0  0  0  0  0  0
   38.1700   25.8170   35.2560 N   0  0  0  0  0  0  0  0  0  0  0  0
   38.3530   26.5720   34.1450 C   0  0  0  0  0  0  0  0  0  0  0  0
   39.4290   26.4650   33.3860 N   0  0  0  0  0  0  0  0  0  0  0  0
   41.3090   25.4460   33.1180 H   0  0  0  0  0  0  0  0  0  0  0  0
   41.0150   24.0360   35.1550 H   0  0  0  0  0  0  0  0  0  0  0  0
   38.8970   24.0930   36.8250 C   0  0  0  0  0  0  0  0  0  0  0  0
   37.7880   24.2640   37.6380 C   0  0  0  0  0  0  0  0  0  0  0  0
   37.8990   23.3240   38.6800 C   0  0  0  0  0  0  0  0  0  0  0  0
   39.0460   22.6350   38.4620 N   0  0  0  0  0  0  0  0  0  0  0  0
   39.6310   23.0960   37.3630 N   0  0  0  0  0  0  0  0  0  0  0  0
   36.9540   24.9320   37.5910 H   0  0  0  0  0  0  0  0  0  0  0  0
   37.2460   23.1300   39.5150 H   0  0  0  0  0  0  0  0  0  0  0  0
   39.5140   21.8470   38.9890 H   0  0  0  0  0  0  0  0  0  0  0  0
  1  6  1  0  0  0  0
  1 23  1  0  0  0  0
  2  1  2  0  0  0  0
  3  4  2  0  0  0  0
  3  2  1  0  0  0  0
  4  5  1  0  0  0  0
  5 10  1  0  0  0  0
  5  6  2  0  0  0  0
  6 11  1  0  0  0  0
  7  2  1  0  0  0  0
  8  3  1  0  0  0  0
  9  4  1  0  0  0  0
 11 22  1  0  0  0  0
 12 11  2  0  0  0  0
 12 13  1  0  0  0  0
 13 14  2  0  0  0  0
 14 15  1  0  0  0  0
 15 16  1  0  0  0  0
 16 17  2  0  0  0  0
 17 18  1  0  0  0  0
 19 20  1  0  0  0  0
 19 17  1  0  0  0  0
 21 19  2  0  0  0  0
 22 21  1  0  0  0  0
 22 15  2  0  0  0  0
 23 27  1  0  0  0  0
 23 25  1  0  0  0  0
 24 23  1  0  0  0  0
 26 32  1  0  0  0  0
 27 26  2  0  0  0  0
 28 29  1  0  0  0  0
 29 35  1  0  0  0  0
 29 30  2  0  0  0  0
 30 36  1  0  0  0  0
 31 30  1  0  0  0  0
 32 31  2  0  0  0  0
 33 28  2  0  0  0  0
 33 32  1  0  0  0  0
 34 28  1  0  0  0  0
 36 40  2  0  0  0  0
 36 37  1  0  0  0  0
 37 38  2  0  0  0  0
 38 42  1  0  0  0  0
 39 38  1  0  0  0  0
 39 43  1  0  0  0  0
 40 39  1  0  0  0  0
 41 37  1  0  0  0  0
M  END
>  <minimizedAffinity>
-6.78602552

$$$$

 OpenBabel03272509103D

 43 47  0  0  0  0  0  0  0  0999 V2000
   36.3880   28.5150   33.3260 C   0  0  0  0  0  0  0  0  0  0  0  0
   37.1860   28.3250   32.2270 C   0  0  0  0  0  0  0  0  0  0  0  0
   36.8990   28.9460   31.0330 C   0  0  0  0  0  0  0  0  0  0  0  0
   35.7930   29.7810   30.9040 C   0  0  0  0  0  0  0  0  0  0  0  0
   34.9990   29.9680   31.9970 C   0  0  0  0  0  0  0  0  0  0  0  0
   35.2730   29.3540   33.2020 C   0  0  0  0  0  0  0  0  0  0  0  0
   38.0290   27.6630   32.4060 H   0  0  0  0  0  0  0  0  0  0  0  0
   37.6040   28.7110   30.2560 H   0  0  0  0  0  0  0  0  0  0  0  0
   35.7000   30.1940   29.9120 H   0  0  0  0  0  0  0  0  0  0  0  0
   34.1650   30.6340   31.8050 H   0  0  0  0  0  0  0  0  0  0  0  0
   34.3130   29.7310   34.2440 C   0  0  0  0  0  0  0  0  0  0  0  0
   33.1440   29.0900   34.3380 N   0  0  0  0  0  0  0  0  0  0  0  0
   32.1920   29.3480   35.2290 C   0  0  0  0  0  3  0  0  0  0  0  0
   32.4420   30.3440   36.1040 N   0  0  0  0  0  0  0  0  0  0  0  0
   33.5870   31.0450   36.0860 C   0  0  0  0  0  0  0  0  0  0  0  0
   33.7590   32.0690   37.0250 C   0  0  0  0  0  3  0  0  0  0  0  0
   34.9660   32.7210   36.8990 C   0  0  0  0  0  0  0  0  0  0  0  0
   35.1110   33.5280   37.6290 H   0  0  0  0  0  0  0  0  0  0  0  0
   35.9720   32.4940   36.0030 C   0  0  0  0  0  0  0  0  0  0  0  0
   36.8800   33.0830   36.0130 H   0  0  0  0  0  0  0  0  0  0  0  0
   35.7420   31.4590   35.0940 C   0  0  0  0  0  3  0  0  0  0  0  0
   34.5690   30.7540   35.1430 C   0  0  0  0  0  0  0  0  0  0  0  0
   36.5890   27.8900   34.6750 C   0  0  0  0  0  0  0  0  0  0  0  0
   35.5830   27.8190   35.1350 H   0  0  0  0  0  0  0  0  0  0  0  0
   37.1860   28.5710   35.2980 H   0  0  0  0  0  0  0  0  0  0  0  0
   38.1760   26.0440   35.2680 C   0  0  0  0  0  3  0  0  0  0  0  0
   37.1550   26.5290   34.6160 C   0  0  0  0  0  3  0  0  0  0  0  0
   39.7530   22.7610   35.5410 C   0  0  0  0  0  0  0  0  0  0  0  0
   39.0990   22.0470   34.5260 C   0  0  0  0  0  0  0  0  0  0  0  0
   38.1250   22.7140   33.7600 C   0  0  0  0  0  0  0  0  0  0  0  0
   37.8680   24.0380   34.0540 N   0  0  0  0  0  0  0  0  0  0  0  0
   38.5440   24.6560   35.0520 C   0  0  0  0  0  0  0  0  0  0  0  0
   39.4610   24.0370   35.7750 N   0  0  0  0  0  0  0  0  0  0  0  0
   40.5010   22.1760   36.0950 H   0  0  0  0  0  0  0  0  0  0  0  0
   39.2780   20.9980   34.2660 H   0  0  0  0  0  0  0  0  0  0  0  0
   37.3880   22.0800   32.6750 C   0  0  0  0  0  0  0  0  0  0  0  0
   36.2690   22.6570   32.0950 C   0  0  0  0  0  0  0  0  0  0  0  0
   35.8300   21.7730   31.0920 C   0  0  0  0  0  0  0  0  0  0  0  0
   36.6810   20.7170   31.1030 N   0  0  0  0  0  0  0  0  0  0  0  0
   37.5990   20.9070   32.0430 N   0  0  0  0  0  0  0  0  0  0  0  0
   35.7530   23.5760   32.2790 H   0  0  0  0  0  0  0  0  0  0  0  0
   34.9970   21.8490   30.4120 H   0  0  0  0  0  0  0  0  0  0  0  0
   36.7260   19.8330   30.5260 H   0  0  0  0  0  0  0  0  0  0  0  0
  1 23  1  0  0  0  0
  2  7  1  0  0  0  0
  2  1  2  0  0  0  0
  3  2  1  0  0  0  0
  4  3  2  0  0  0  0
  4  5  1  0  0  0  0
  5  6  2  0  0  0  0
  6  1  1  0  0  0  0
  6 11  1  0  0  0  0
  8  3  1  0  0  0  0
  9  4  1  0  0  0  0
 10  5  1  0  0  0  0
 11 12  2  0  0  0  0
 11 22  1  0  0  0  0
 12 13  1  0  0  0  0
 13 14  2  0  0  0  0
 15 14  1  0  0  0  0
 15 16  1  0  0  0  0
 17 16  2  0  0  0  0
 17 18  1  0  0  0  0
 19 20  1  0  0  0  0
 19 17  1  0  0  0  0
 21 22  1  0  0  0  0
 21 19  2  0  0  0  0
 22 15  2  0  0  0  0
 23 24  1  0  0  0  0
 23 25  1  0  0  0  0
 27 23  1  0  0  0  0
 27 26  2  0  0  0  0
 28 33  1  0  0  0  0
 28 34  1  0  0  0  0
 29 28  2  0  0  0  0
 30 31  2  0  0  0  0
 30 29  1  0  0  0  0
 31 32  1  0  0  0  0
 32 26  1  0  0  0  0
 32 33  2  0  0  0  0
 35 29  1  0  0  0  0
 36 30  1  0  0  0  0
 37 41  1  0  0  0  0
 37 36  1  0  0  0  0
 38 39  1  0  0  0  0
 38 37  2  0  0  0  0
 39 40  1  0  0  0  0
 40 36  2  0  0  0  0
 42 38  1  0  0  0  0
 43 39  1  0  0  0  0
M  END
>  <minimizedAffinity>
-6.63775539

$$$$

 OpenBabel03272509103D

 43 47  0  0  0  0  0  0  0  0999 V2000
   36.3060   28.4420   33.0750 C   0  0  0  0  0  0  0  0  0  0  0  0
   37.2100   28.2710   32.0570 C   0  0  0  0  0  0  0  0  0  0  0  0
   37.1100   29.0040   30.8970 C   0  0  0  0  0  0  0  0  0  0  0  0
   36.0920   29.9370   30.7200 C   0  0  0  0  0  0  0  0  0  0  0  0
   35.1940   30.1060   31.7330 C   0  0  0  0  0  0  0  0  0  0  0  0
   35.2800   29.3800   32.9030 C   0  0  0  0  0  0  0  0  0  0  0  0
   37.9740   27.5280   32.2690 H   0  0  0  0  0  0  0  0  0  0  0  0
   37.8810   28.7700   30.1840 H   0  0  0  0  0  0  0  0  0  0  0  0
   36.1460   30.4320   29.7630 H   0  0  0  0  0  0  0  0  0  0  0  0
   34.4400   30.8530   31.5090 H   0  0  0  0  0  0  0  0  0  0  0  0
   34.2370   29.7560   33.8630 C   0  0  0  0  0  0  0  0  0  0  0  0
   33.0080   29.2430   33.7480 N   0  0  0  0  0  0  0  0  0  0  0  0
   31.9810   29.5160   34.5460 C   0  0  0  0  0  3  0  0  0  0  0  0
   32.2150   30.3840   35.5510 N   0  0  0  0  0  0  0  0  0  0  0  0
   33.4170   30.9510   35.7450 C   0  0  0  0  0  0  0  0  0  0  0  0
   33.5680   31.8510   36.8070 C   0  0  0  0  0  3  0  0  0  0  0  0
   34.8390   32.3730   36.8970 C   0  0  0  0  0  0  0  0  0  0  0  0
   34.9700   33.0810   37.7250 H   0  0  0  0  0  0  0  0  0  0  0  0
   35.9240   32.1250   36.1040 C   0  0  0  0  0  0  0  0  0  0  0  0
   36.8770   32.6050   36.2850 H   0  0  0  0  0  0  0  0  0  0  0  0
   35.7100   31.2190   35.0620 C   0  0  0  0  0  3  0  0  0  0  0  0
   34.4770   30.6480   34.8950 C   0  0  0  0  0  0  0  0  0  0  0  0
   36.3030   27.7010   34.3790 C   0  0  0  0  0  0  0  0  0  0  0  0
   35.2620   27.3550   34.5340 H   0  0  0  0  0  0  0  0  0  0  0  0
   36.5380   28.4050   35.1900 H   0  0  0  0  0  0  0  0  0  0  0  0
   37.6570   25.8610   35.4080 C   0  0  0  0  0  3  0  0  0  0  0  0
   37.1780   26.5140   34.3850 C   0  0  0  0  0  3  0  0  0  0  0  0
   38.8420   22.5340   34.4790 C   0  0  0  0  0  0  0  0  0  0  0  0
   40.2140   22.6370   34.7470 C   0  0  0  0  0  0  0  0  0  0  0  0
   40.7080   23.8550   35.2500 C   0  0  0  0  0  0  0  0  0  0  0  0
   39.8090   24.8820   35.4500 N   0  0  0  0  0  0  0  0  0  0  0  0
   38.4970   24.7030   35.1640 C   0  0  0  0  0  0  0  0  0  0  0  0
   38.0260   23.5610   34.6930 N   0  0  0  0  0  0  0  0  0  0  0  0
   38.5290   21.5540   34.0900 H   0  0  0  0  0  0  0  0  0  0  0  0
   40.9550   21.8420   34.6010 H   0  0  0  0  0  0  0  0  0  0  0  0
   42.1110   24.0760   35.5750 C   0  0  0  0  0  0  0  0  0  0  0  0
   42.8490   23.1900   36.3440 C   0  0  0  0  0  0  0  0  0  0  0  0
   44.1480   23.7230   36.4440 C   0  0  0  0  0  0  0  0  0  0  0  0
   44.1470   24.8860   35.7460 N   0  0  0  0  0  0  0  0  0  0  0  0
   42.9380   25.0880   35.2360 N   0  0  0  0  0  0  0  0  0  0  0  0
   42.6000   22.2630   36.8160 H   0  0  0  0  0  0  0  0  0  0  0  0
   45.0200   23.3420   36.9520 H   0  0  0  0  0  0  0  0  0  0  0  0
   44.8990   25.6040   35.5590 H   0  0  0  0  0  0  0  0  0  0  0  0
  1 23  1  0  0  0  0
  2  7  1  0  0  0  0
  2  1  2  0  0  0  0
  3  2  1  0  0  0  0
  4  3  2  0  0  0  0
  4  5  1  0  0  0  0
  5  6  2  0  0  0  0
  6  1  1  0  0  0  0
  6 11  1  0  0  0  0
  8  3  1  0  0  0  0
  9  4  1  0  0  0  0
 10  5  1  0  0  0  0
 11 22  1  0  0  0  0
 12 11  2  0  0  0  0
 12 13  1  0  0  0  0
 13 14  2  0  0  0  0
 14 15  1  0  0  0  0
 15 16  1  0  0  0  0
 16 17  2  0  0  0  0
 17 18  1  0  0  0  0
 19 20  1  0  0  0  0
 19 17  1  0  0  0  0
 21 19  2  0  0  0  0
 22 21  1  0  0  0  0
 22 15  2  0  0  0  0
 23 27  1  0  0  0  0
 23 24  1  0  0  0  0
 23 25  1  0  0  0  0
 27 26  2  0  0  0  0
 28 33  2  0  0  0  0
 28 29  1  0  0  0  0
 29 30  2  0  0  0  0
 30 31  1  0  0  0  0
 30 36  1  0  0  0  0
 32 26  1  0  0  0  0
 32 31  2  0  0  0  0
 33 32  1  0  0  0  0
 34 28  1  0  0  0  0
 35 29  1  0  0  0  0
 36 37  1  0  0  0  0
 37 38  2  0  0  0  0
 37 41  1  0  0  0  0
 38 42  1  0  0  0  0
 39 38  1  0  0  0  0
 40 36  2  0  0  0  0
 40 39  1  0  0  0  0
 43 39  1  0  0  0  0
M  END
>  <minimizedAffinity>
-6.61426687

$$$$

 OpenBabel03272509103D

 43 47  0  0  0  0  0  0  0  0999 V2000
   39.3620   26.2060   34.5760 C   0  0  0  0  0  0  0  0  0  0  0  0
   40.3210   27.1860   34.5300 C   0  0  0  0  0  0  0  0  0  0  0  0
   41.4160   27.0620   33.7060 C   0  0  0  0  0  0  0  0  0  0  0  0
   41.5840   25.9420   32.8970 C   0  0  0  0  0  0  0  0  0  0  0  0
   40.6300   24.9670   32.9440 C   0  0  0  0  0  0  0  0  0  0  0  0
   39.5260   25.0770   33.7650 C   0  0  0  0  0  0  0  0  0  0  0  0
   40.1200   28.0280   35.1870 H   0  0  0  0  0  0  0  0  0  0  0  0
   42.0870   27.9000   33.7680 H   0  0  0  0  0  0  0  0  0  0  0  0
   42.4870   25.9880   32.3080 H   0  0  0  0  0  0  0  0  0  0  0  0
   40.8430   24.1360   32.2810 H   0  0  0  0  0  0  0  0  0  0  0  0
   38.6180   23.9350   33.6200 C   0  0  0  0  0  0  0  0  0  0  0  0
   38.7930   22.8430   34.3720 N   0  0  0  0  0  0  0  0  0  0  0  0
   38.0450   21.7450   34.3240 C   0  0  0  0  0  3  0  0  0  0  0  0
   37.0290   21.7500   33.4370 N   0  0  0  0  0  0  0  0  0  0  0  0
   36.7750   22.7990   32.6390 C   0  0  0  0  0  0  0  0  0  0  0  0
   35.7070   22.7130   31.7400 C   0  0  0  0  0  3  0  0  0  0  0  0
   35.5550   23.8450   30.9700 C   0  0  0  0  0  0  0  0  0  0  0  0
   34.7210   23.7880   30.2590 H   0  0  0  0  0  0  0  0  0  0  0  0
   36.2950   24.9930   30.9820 C   0  0  0  0  0  0  0  0  0  0  0  0
   36.0670   25.8180   30.3190 H   0  0  0  0  0  0  0  0  0  0  0  0
   37.3470   25.0190   31.9000 C   0  0  0  0  0  3  0  0  0  0  0  0
   37.5740   23.9380   32.7090 C   0  0  0  0  0  0  0  0  0  0  0  0
   38.1340   26.2200   35.4360 C   0  0  0  0  0  0  0  0  0  0  0  0
   38.4730   26.4990   36.4540 H   0  0  0  0  0  0  0  0  0  0  0  0
   37.7280   25.2000   35.4950 H   0  0  0  0  0  0  0  0  0  0  0  0
   36.9690   27.7560   33.8360 C   0  0  0  0  0  3  0  0  0  0  0  0
   37.1260   27.2100   35.0100 C   0  0  0  0  0  3  0  0  0  0  0  0
   34.1870   29.6560   32.4270 C   0  0  0  0  0  0  0  0  0  0  0  0
   33.8840   30.5370   33.4750 C   0  0  0  0  0  0  0  0  0  0  0  0
   34.6510   30.4620   34.6530 C   0  0  0  0  0  0  0  0  0  0  0  0
   35.6590   29.5220   34.7080 N   0  0  0  0  0  0  0  0  0  0  0  0
   35.8870   28.7070   33.6500 C   0  0  0  0  0  0  0  0  0  0  0  0
   35.1730   28.7720   32.5400 N   0  0  0  0  0  0  0  0  0  0  0  0
   33.5480   29.7740   31.5400 H   0  0  0  0  0  0  0  0  0  0  0  0
   33.0920   31.2940   33.4650 H   0  0  0  0  0  0  0  0  0  0  0  0
   34.4360   31.3300   35.8040 C   0  0  0  0  0  0  0  0  0  0  0  0
   33.1770   31.7670   36.1850 C   0  0  0  0  0  0  0  0  0  0  0  0
   33.3540   32.5720   37.3260 C   0  0  0  0  0  0  0  0  0  0  0  0
   34.6850   32.5910   37.5860 N   0  0  0  0  0  0  0  0  0  0  0  0
   35.3180   31.8540   36.6810 N   0  0  0  0  0  0  0  0  0  0  0  0
   32.2010   31.5960   35.7820 H   0  0  0  0  0  0  0  0  0  0  0  0
   32.6300   33.0990   37.9260 H   0  0  0  0  0  0  0  0  0  0  0  0
   35.2570   33.0650   38.3380 H   0  0  0  0  0  0  0  0  0  0  0  0
  1 23  1  0  0  0  0
  2  1  1  0  0  0  0
  2  7  1  0  0  0  0
  3  8  1  0  0  0  0
  3  2  2  0  0  0  0
  4  5  2  0  0  0  0
  4  3  1  0  0  0  0
  5  6  1  0  0  0  0
  6  1  2  0  0  0  0
  9  4  1  0  0  0  0
 10  5  1  0  0  0  0
 11  6  1  0  0  0  0
 11 12  1  0  0  0  0
 13 12  2  0  0  0  0
 14 13  1  0  0  0  0
 15 22  1  0  0  0  0
 15 14  2  0  0  0  0
 16 15  1  0  0  0  0
 17 19  1  0  0  0  0
 17 16  2  0  0  0  0
 18 17  1  0  0  0  0
 19 21  2  0  0  0  0
 20 19  1  0  0  0  0
 21 22  1  0  0  0  0
 22 11  2  0  0  0  0
 23 25  1  0  0  0  0
 23 24  1  0  0  0  0
 26 27  2  0  0  0  0
 27 23  1  0  0  0  0
 28 33  2  0  0  0  0
 28 29  1  0  0  0  0
 29 30  2  0  0  0  0
 30 31  1  0  0  0  0
 30 36  1  0  0  0  0
 32 26  1  0  0  0  0
 32 31  2  0  0  0  0
 33 32  1  0  0  0  0
 34 28  1  0  0  0  0
 35 29  1  0  0  0  0
 36 37  1  0  0  0  0
 36 40  2  0  0  0  0
 37 38  2  0  0  0  0
 38 39  1  0  0  0  0
 38 42  1  0  0  0  0
 39 43  1  0  0  0  0
 40 39  1  0  0  0  0
 41 37  1  0  0  0  0
M  END
>  <minimizedAffinity>
-6.55064106

$$$$

 OpenBabel03272509103D

 43 47  0  0  0  0  0  0  0  0999 V2000
   34.9460   31.1880   34.3590 C   0  0  0  0  0  0  0  0  0  0  0  0
   36.0410   31.7570   34.9590 C   0  0  0  0  0  0  0  0  0  0  0  0
   35.8930   32.6160   36.0240 C   0  0  0  0  0  0  0  0  0  0  0  0
   34.6340   32.9340   36.5230 C   0  0  0  0  0  0  0  0  0  0  0  0
   33.5450   32.3680   35.9250 C   0  0  0  0  0  0  0  0  0  0  0  0
   33.6760   31.5040   34.8570 C   0  0  0  0  0  0  0  0  0  0  0  0
   36.9870   31.4600   34.5160 H   0  0  0  0  0  0  0  0  0  0  0  0
   36.8310   32.9880   36.3970 H   0  0  0  0  0  0  0  0  0  0  0  0
   34.6790   33.6160   37.3570 H   0  0  0  0  0  0  0  0  0  0  0  0
   32.6090   32.6700   36.3810 H   0  0  0  0  0  0  0  0  0  0  0  0
   32.3800   30.9880   34.4050 C   0  0  0  0  0  0  0  0  0  0  0  0
   31.7150   31.6160   33.4300 N   0  0  0  0  0  0  0  0  0  0  0  0
   30.5320   31.2530   32.9440 C   0  0  0  0  0  3  0  0  0  0  0  0
   29.9690   30.1570   33.4930 N   0  0  0  0  0  0  0  0  0  0  0  0
   30.5610   29.4610   34.4770 C   0  0  0  0  0  0  0  0  0  0  0  0
   29.9000   28.3420   34.9960 C   0  0  0  0  0  3  0  0  0  0  0  0
   30.6000   27.7200   36.0070 C   0  0  0  0  0  0  0  0  0  0  0  0
   30.0910   26.8410   36.4220 H   0  0  0  0  0  0  0  0  0  0  0  0
   31.8130   28.0550   36.5380 C   0  0  0  0  0  0  0  0  0  0  0  0
   32.2580   27.4750   37.3370 H   0  0  0  0  0  0  0  0  0  0  0  0
   32.4230   29.1800   35.9790 C   0  0  0  0  0  3  0  0  0  0  0  0
   31.8010   29.8630   34.9680 C   0  0  0  0  0  0  0  0  0  0  0  0
   34.9750   30.2480   33.1910 C   0  0  0  0  0  0  0  0  0  0  0  0
   35.2790   30.8540   32.3150 H   0  0  0  0  0  0  0  0  0  0  0  0
   33.9540   29.8860   32.9990 H   0  0  0  0  0  0  0  0  0  0  0  0
   36.1560   28.3810   34.3730 C   0  0  0  0  0  3  0  0  0  0  0  0
   35.9490   29.1510   33.3400 C   0  0  0  0  0  3  0  0  0  0  0  0
   39.0140   26.3750   33.3040 C   0  0  0  0  0  0  0  0  0  0  0  0
   39.0190   25.3530   34.2640 C   0  0  0  0  0  0  0  0  0  0  0  0
   38.0300   25.3720   35.2660 C   0  0  0  0  0  0  0  0  0  0  0  0
   37.1100   26.4000   35.2440 N   0  0  0  0  0  0  0  0  0  0  0  0
   37.1740   27.3500   34.2810 C   0  0  0  0  0  0  0  0  0  0  0  0
   38.0980   27.3380   33.3360 N   0  0  0  0  0  0  0  0  0  0  0  0
   39.8140   26.2940   32.5540 H   0  0  0  0  0  0  0  0  0  0  0  0
   39.7330   24.5240   34.3110 H   0  0  0  0  0  0  0  0  0  0  0  0
   37.9290   24.3610   36.3100 C   0  0  0  0  0  0  0  0  0  0  0  0
   38.1110   24.6530   37.6520 C   0  0  0  0  0  0  0  0  0  0  0  0
   37.9370   23.4480   38.3580 C   0  0  0  0  0  0  0  0  0  0  0  0
   37.6610   22.4930   37.4350 N   0  0  0  0  0  0  0  0  0  0  0  0
   37.6600   23.0420   36.2270 N   0  0  0  0  0  0  0  0  0  0  0  0
   38.3380   25.5620   38.1690 H   0  0  0  0  0  0  0  0  0  0  0  0
   37.9930   23.2460   39.4150 H   0  0  0  0  0  0  0  0  0  0  0  0
   37.4640   21.4580   37.5190 H   0  0  0  0  0  0  0  0  0  0  0  0
  1  6  2  0  0  0  0
  1  2  1  0  0  0  0
  2  3  2  0  0  0  0
  3  8  1  0  0  0  0
  3  4  1  0  0  0  0
  4  9  1  0  0  0  0
  5 10  1  0  0  0  0
  5  4  2  0  0  0  0
  6  5  1  0  0  0  0
  7  2  1  0  0  0  0
 11  6  1  0  0  0  0
 11 22  1  0  0  0  0
 12 11  2  0  0  0  0
 13 12  1  0  0  0  0
 13 14  2  0  0  0  0
 14 15  1  0  0  0  0
 15 22  2  0  0  0  0
 15 16  1  0  0  0  0
 16 17  2  0  0  0  0
 17 18  1  0  0  0  0
 17 19  1  0  0  0  0
 19 20  1  0  0  0  0
 21 19  2  0  0  0  0
 22 21  1  0  0  0  0
 23 27  1  0  0  0  0
 23  1  1  0  0  0  0
 24 23  1  0  0  0  0
 25 23  1  0  0  0  0
 27 26  2  0  0  0  0
 28 33  2  0  0  0  0
 28 29  1  0  0  0  0
 29 35  1  0  0  0  0
 29 30  2  0  0  0  0
 30 36  1  0  0  0  0
 31 30  1  0  0  0  0
 32 26  1  0  0  0  0
 32 31  2  0  0  0  0
 33 32  1  0  0  0  0
 34 28  1  0  0  0  0
 36 37  1  0  0  0  0
 37 41  1  0  0  0  0
 37 38  2  0  0  0  0
 38 42  1  0  0  0  0
 39 43  1  0  0  0  0
 39 38  1  0  0  0  0
 40 36  2  0  0  0  0
 40 39  1  0  0  0  0
M  END
>  <minimizedAffinity>
-6.48620367

$$$$

 OpenBabel03272509103D

 43 47  0  0  0  0  0  0  0  0999 V2000
   34.3330   29.9080   33.9100 C   0  0  0  0  0  0  0  0  0  0  0  0
   33.1470   29.4580   34.4340 C   0  0  0  0  0  0  0  0  0  0  0  0
   31.9520   29.7390   33.8130 C   0  0  0  0  0  0  0  0  0  0  0  0
   31.9080   30.4870   32.6400 C   0  0  0  0  0  0  0  0  0  0  0  0
   33.0880   30.9350   32.1200 C   0  0  0  0  0  0  0  0  0  0  0  0
   34.2950   30.6600   32.7300 C   0  0  0  0  0  0  0  0  0  0  0  0
   33.2620   28.8810   35.3480 H   0  0  0  0  0  0  0  0  0  0  0  0
   31.1030   29.3270   34.3290 H   0  0  0  0  0  0  0  0  0  0  0  0
   30.9030   30.6230   32.2730 H   0  0  0  0  0  0  0  0  0  0  0  0
   32.9570   31.5040   31.2070 H   0  0  0  0  0  0  0  0  0  0  0  0
   35.4290   31.2040   31.9750 C   0  0  0  0  0  0  0  0  0  0  0  0
   35.7440   32.4980   32.0830 N   0  0  0  0  0  0  0  0  0  0  0  0
   36.7370   33.1070   31.4430 C   0  0  0  0  0  3  0  0  0  0  0  0
   37.4790   32.3400   30.6190 N   0  0  0  0  0  0  0  0  0  0  0  0
   37.2390   31.0300   30.4450 C   0  0  0  0  0  0  0  0  0  0  0  0
   38.0530   30.3120   29.5610 C   0  0  0  0  0  3  0  0  0  0  0  0
   37.7010   28.9840   29.4590 C   0  0  0  0  0  0  0  0  0  0  0  0
   38.3310   28.4110   28.7680 H   0  0  0  0  0  0  0  0  0  0  0  0
   36.6920   28.3160   30.0930 C   0  0  0  0  0  0  0  0  0  0  0  0
   36.5210   27.2600   29.9230 H   0  0  0  0  0  0  0  0  0  0  0  0
   35.9150   29.0860   30.9610 C   0  0  0  0  0  3  0  0  0  0  0  0
   36.1910   30.4170   31.1280 C   0  0  0  0  0  0  0  0  0  0  0  0
   35.6940   29.6760   34.4950 C   0  0  0  0  0  0  0  0  0  0  0  0
   35.6110   29.9130   35.5740 H   0  0  0  0  0  0  0  0  0  0  0  0
   36.3990   30.3960   34.0550 H   0  0  0  0  0  0  0  0  0  0  0  0
   37.3820   27.8340   34.3020 C   0  0  0  0  0  3  0  0  0  0  0  0
   36.1590   28.2810   34.3750 C   0  0  0  0  0  3  0  0  0  0  0  0
   37.6500   24.4220   33.0290 C   0  0  0  0  0  0  0  0  0  0  0  0
   38.0540   23.7220   34.1760 C   0  0  0  0  0  0  0  0  0  0  0  0
   38.2240   24.4420   35.3730 C   0  0  0  0  0  0  0  0  0  0  0  0
   37.9830   25.8000   35.3490 N   0  0  0  0  0  0  0  0  0  0  0  0
   37.5950   26.4020   34.1990 C   0  0  0  0  0  0  0  0  0  0  0  0
   37.4320   25.7320   33.0710 N   0  0  0  0  0  0  0  0  0  0  0  0
   37.5370   23.7940   32.1340 H   0  0  0  0  0  0  0  0  0  0  0  0
   38.2540   22.6460   34.2300 H   0  0  0  0  0  0  0  0  0  0  0  0
   38.6310   23.8230   36.6280 C   0  0  0  0  0  0  0  0  0  0  0  0
   38.0820   24.1790   37.8490 C   0  0  0  0  0  0  0  0  0  0  0  0
   38.7070   23.3800   38.8250 C   0  0  0  0  0  0  0  0  0  0  0  0
   39.5910   22.5870   38.1700 N   0  0  0  0  0  0  0  0  0  0  0  0
   39.5410   22.8560   36.8710 N   0  0  0  0  0  0  0  0  0  0  0  0
   37.3340   24.8930   38.1240 H   0  0  0  0  0  0  0  0  0  0  0  0
   38.5650   23.3460   39.8930 H   0  0  0  0  0  0  0  0  0  0  0  0
   40.2660   21.8450   38.5050 H   0  0  0  0  0  0  0  0  0  0  0  0
  1  2  1  0  0  0  0
  1 23  1  0  0  0  0
  2  7  1  0  0  0  0
  3  8  1  0  0  0  0
  3  2  2  0  0  0  0
  4  3  1  0  0  0  0
  5  4  2  0  0  0  0
  5  6  1  0  0  0  0
  6  1  2  0  0  0  0
  9  4  1  0  0  0  0
 10  5  1  0  0  0  0
 11 12  1  0  0  0  0
 11  6  1  0  0  0  0
 13 12  2  0  0  0  0
 14 13  1  0  0  0  0
 15 14  2  0  0  0  0
 15 22  1  0  0  0  0
 16 15  1  0  0  0  0
 17 16  2  0  0  0  0
 17 19  1  0  0  0  0
 18 17  1  0  0  0  0
 19 21  2  0  0  0  0
 20 19  1  0  0  0  0
 21 22  1  0  0  0  0
 22 11  2  0  0  0  0
 23 24  1  0  0  0  0
 25 23  1  0  0  0  0
 26 27  2  0  0  0  0
 27 23  1  0  0  0  0
 28 33  2  0  0  0  0
 28 29  1  0  0  0  0
 29 35  1  0  0  0  0
 29 30  2  0  0  0  0
 30 36  1  0  0  0  0
 31 30  1  0  0  0  0
 32 26  1  0  0  0  0
 32 31  2  0  0  0  0
 33 32  1  0  0  0  0
 34 28  1  0  0  0  0
 36 40  2  0  0  0  0
 36 37  1  0  0  0  0
 37 41  1  0  0  0  0
 37 38  2  0  0  0  0
 38 42  1  0  0  0  0
 39 43  1  0  0  0  0
 39 38  1  0  0  0  0
 40 39  1  0  0  0  0
M  END
>  <minimizedAffinity>
-6.46493721

$$$$

 OpenBabel03272509103D

 43 47  0  0  0  0  0  0  0  0999 V2000
   34.9040   29.5530   34.0580 C   0  0  0  0  0  0  0  0  0  0  0  0
   33.8330   29.4030   34.9020 C   0  0  0  0  0  0  0  0  0  0  0  0
   32.5580   29.7050   34.4810 C   0  0  0  0  0  0  0  0  0  0  0  0
   32.3170   30.1710   33.1920 C   0  0  0  0  0  0  0  0  0  0  0  0
   33.3830   30.3210   32.3540 C   0  0  0  0  0  0  0  0  0  0  0  0
   34.6680   30.0220   32.7600 C   0  0  0  0  0  0  0  0  0  0  0  0
   34.1000   29.0340   35.8880 H   0  0  0  0  0  0  0  0  0  0  0  0
   31.8150   29.5420   35.2410 H   0  0  0  0  0  0  0  0  0  0  0  0
   31.2710   30.3620   33.0100 H   0  0  0  0  0  0  0  0  0  0  0  0
   33.1010   30.6850   31.3730 H   0  0  0  0  0  0  0  0  0  0  0  0
   35.6450   30.2180   31.6840 C   0  0  0  0  0  0  0  0  0  0  0  0
   35.9660   29.2000   30.8800 N   0  0  0  0  0  0  0  0  0  0  0  0
   36.8420   29.2520   29.8810 C   0  0  0  0  0  3  0  0  0  0  0  0
   37.4490   30.4390   29.6770 N   0  0  0  0  0  0  0  0  0  0  0  0
   37.1920   31.5180   30.4340 C   0  0  0  0  0  0  0  0  0  0  0  0
   37.8770   32.7070   30.1580 C   0  0  0  0  0  3  0  0  0  0  0  0
   37.5360   33.7370   31.0070 C   0  0  0  0  0  0  0  0  0  0  0  0
   38.0670   34.6740   30.8020 H   0  0  0  0  0  0  0  0  0  0  0  0
   36.6460   33.7320   32.0430 C   0  0  0  0  0  0  0  0  0  0  0  0
   36.4680   34.6190   32.6380 H   0  0  0  0  0  0  0  0  0  0  0  0
   35.9950   32.5170   32.2690 C   0  0  0  0  0  3  0  0  0  0  0  0
   36.2690   31.4370   31.4730 C   0  0  0  0  0  0  0  0  0  0  0  0
   36.3370   29.2680   34.3990 C   0  0  0  0  0  0  0  0  0  0  0  0
   36.4800   29.6170   35.4410 H   0  0  0  0  0  0  0  0  0  0  0  0
   36.9850   29.8810   33.7570 H   0  0  0  0  0  0  0  0  0  0  0  0
   37.2710   27.1700   33.3980 C   0  0  0  0  0  3  0  0  0  0  0  0
   36.6810   27.8350   34.3530 C   0  0  0  0  0  3  0  0  0  0  0  0
   37.6590   23.5840   32.8290 C   0  0  0  0  0  0  0  0  0  0  0  0
   38.0290   23.1330   34.1050 C   0  0  0  0  0  0  0  0  0  0  0  0
   38.1340   24.0770   35.1430 C   0  0  0  0  0  0  0  0  0  0  0  0
   37.8670   25.3970   34.8450 N   0  0  0  0  0  0  0  0  0  0  0  0
   37.5160   25.7520   33.5850 C   0  0  0  0  0  0  0  0  0  0  0  0
   37.4140   24.8710   32.6050 N   0  0  0  0  0  0  0  0  0  0  0  0
   37.5960   22.7910   32.0710 H   0  0  0  0  0  0  0  0  0  0  0  0
   38.2470   22.0940   34.3770 H   0  0  0  0  0  0  0  0  0  0  0  0
   38.5000   23.7260   36.5090 C   0  0  0  0  0  0  0  0  0  0  0  0
   37.9110   24.3170   37.6150 C   0  0  0  0  0  0  0  0  0  0  0  0
   38.5040   23.7350   38.7520 C   0  0  0  0  0  0  0  0  0  0  0  0
   39.4100   22.8330   38.2990 N   0  0  0  0  0  0  0  0  0  0  0  0
   39.4020   22.8350   36.9720 N   0  0  0  0  0  0  0  0  0  0  0  0
   37.1530   25.0660   37.7170 H   0  0  0  0  0  0  0  0  0  0  0  0
   38.3260   23.9150   39.8000 H   0  0  0  0  0  0  0  0  0  0  0  0
   40.0730   22.1790   38.7980 H   0  0  0  0  0  0  0  0  0  0  0  0
  1 23  1  0  0  0  0
  1  2  1  0  0  0  0
  2  7  1  0  0  0  0
  3  2  2  0  0  0  0
  3  8  1  0  0  0  0
  4  3  1  0  0  0  0
  5  6  1  0  0  0  0
  5  4  2  0  0  0  0
  6  1  2  0  0  0  0
  9  4  1  0  0  0  0
 10  5  1  0  0  0  0
 11  6  1  0  0  0  0
 12 11  2  0  0  0  0
 13 12  1  0  0  0  0
 14 13  2  0  0  0  0
 14 15  1  0  0  0  0
 15 22  1  0  0  0  0
 16 15  2  0  0  0  0
 16 17  1  0  0  0  0
 17 19  2  0  0  0  0
 18 17  1  0  0  0  0
 19 21  1  0  0  0  0
 19 20  1  0  0  0  0
 22 11  1  0  0  0  0
 22 21  2  0  0  0  0
 23 24  1  0  0  0  0
 25 23  1  0  0  0  0
 26 32  1  0  0  0  0
 26 27  2  0  0  0  0
 27 23  1  0  0  0  0
 28 29  1  0  0  0  0
 29 35  1  0  0  0  0
 29 30  2  0  0  0  0
 30 36  1  0  0  0  0
 31 30  1  0  0  0  0
 32 31  2  0  0  0  0
 33 28  2  0  0  0  0
 33 32  1  0  0  0  0
 34 28  1  0  0  0  0
 36 40  2  0  0  0  0
 36 37  1  0  0  0  0
 37 41  1  0  0  0  0
 37 38  2  0  0  0  0
 38 42  1  0  0  0  0
 39 38  1  0  0  0  0
 39 43  1  0  0  0  0
 40 39  1  0  0  0  0
M  END
>  <minimizedAffinity>
-6.46108198

$$$$
