
 OpenBabel03272507133D

 43 48  0  0  0  0  0  0  0  0999 V2000
   37.0180   29.4650   50.1370 C   0  0  0  0  0  0  0  0  0  0  0  0
   37.6810   28.8660   51.0270 O   0  0  0  0  0  0  0  0  0  0  0  0
   37.5670   30.5380   49.3340 C   0  0  0  0  0  0  0  0  0  0  0  0
   38.2920   31.5200   49.9630 C   0  0  0  0  0  0  0  0  0  0  0  0
   38.8310   32.5430   49.2040 C   0  0  0  0  0  0  0  0  0  0  0  0
   38.6100   32.5180   47.8760 N   0  0  0  0  0  0  0  0  0  0  0  0
   37.9110   31.5760   47.2500 C   0  0  0  0  0  0  0  0  0  0  0  0
   37.4080   30.6050   48.0260 N   0  0  0  0  0  0  0  0  0  0  0  0
   38.4790   31.5590   51.0220 H   0  0  0  0  0  0  0  0  0  0  0  0
   39.4060   33.3570   49.5620 H   0  0  0  0  0  0  0  0  0  0  0  0
   37.5540   31.3620   45.8330 C   0  0  0  0  0  0  0  0  0  0  0  0
   36.5810   30.5430   45.4190 N   0  0  0  0  0  0  0  0  0  0  0  0
   36.2920   30.3800   44.1310 C   0  0  0  0  0  3  0  0  0  0  0  0
   36.9320   31.0050   43.1370 N   0  0  0  0  0  0  0  0  0  0  0  0
   37.9300   31.8510   43.4640 C   0  0  0  0  0  0  0  0  0  0  0  0
   38.5890   32.4970   42.4450 C   0  0  0  0  0  3  0  0  0  0  0  0
   39.6130   33.3690   42.7390 C   0  0  0  0  0  0  0  0  0  0  0  0
   40.0890   33.8410   41.9090 H   0  0  0  0  0  0  0  0  0  0  0  0
   39.9340   33.5570   44.0700 C   0  0  0  0  0  0  0  0  0  0  0  0
   40.7410   34.2490   44.2470 H   0  0  0  0  0  0  0  0  0  0  0  0
   39.2340   32.8800   45.0430 C   0  0  0  0  0  3  0  0  0  0  0  0
   38.2070   32.0010   44.8040 C   0  0  0  0  0  0  0  0  0  0  0  0
   35.6410   29.0750   49.8910 C   0  0  0  0  0  0  0  0  0  0  0  0
   34.6110   29.5760   50.6180 C   0  0  0  0  0  0  0  0  0  0  0  0
   33.4410   28.9910   50.1180 C   0  0  0  0  0  0  0  0  0  0  0  0
   33.8520   28.1490   49.0910 C   0  0  0  0  0  0  0  0  0  0  0  0
   35.1600   28.2420   49.0050 O   0  0  0  0  0  0  0  0  0  0  0  0
   34.6450   30.3000   51.4450 H   0  0  0  0  0  0  0  0  0  0  0  0
   32.4570   29.2090   50.5140 H   0  0  0  0  0  0  0  0  0  0  0  0
   33.3400   26.3310   47.4430 C   0  0  0  0  0  0  0  0  0  0  0  0
   32.9370   27.3350   48.2890 C   0  0  0  0  0  0  0  0  0  0  0  0
   31.5950   27.6520   48.4360 C   0  0  0  0  0  0  0  0  0  0  0  0
   30.6540   26.9360   47.7110 C   0  0  0  0  0  0  0  0  0  0  0  0
   29.3270   27.0150   47.6460 N   0  0  0  0  0  0  0  0  0  0  0  0
   28.9180   26.0870   46.7860 N   0  0  0  0  0  0  0  0  0  0  0  0
   29.9760   25.4150   46.2990 C   0  0  0  0  0  0  0  0  0  0  0  0
   31.1180   25.9290   46.8680 C   0  0  0  0  0  0  0  0  0  0  0  0
   32.4670   25.6040   46.7150 C   0  0  0  0  0  0  0  0  0  0  0  0
   34.4000   26.1350   47.3760 H   0  0  0  0  0  0  0  0  0  0  0  0
   31.1870   28.4370   49.0870 H   0  0  0  0  0  0  0  0  0  0  0  0
   28.7100   27.6840   48.1750 H   0  0  0  0  0  0  0  0  0  0  0  0
   29.8980   24.6150   45.5850 H   0  0  0  0  0  0  0  0  0  0  0  0
   32.7420   24.8030   46.0360 H   0  0  0  0  0  0  0  0  0  0  0  0
  1  2  2  0  0  0  0
  3  4  1  0  0  0  0
  3  1  1  0  0  0  0
  4  9  1  0  0  0  0
  5 10  1  0  0  0  0
  5  4  2  0  0  0  0
  6  5  1  0  0  0  0
  7  6  2  0  0  0  0
  7  8  1  0  0  0  0
  8  3  2  0  0  0  0
 11  7  1  0  0  0  0
 12 11  1  0  0  0  0
 13 12  2  0  0  0  0
 14 15  2  0  0  0  0
 14 13  1  0  0  0  0
 15 22  1  0  0  0  0
 16 17  2  0  0  0  0
 16 15  1  0  0  0  0
 17 19  1  0  0  0  0
 18 17  1  0  0  0  0
 19 20  1  0  0  0  0
 19 21  2  0  0  0  0
 22 21  1  0  0  0  0
 22 11  2  0  0  0  0
 23  1  1  0  0  0  0
 23 24  2  0  0  0  0
 24 28  1  0  0  0  0
 25 29  1  0  0  0  0
 25 24  1  0  0  0  0
 26 25  2  0  0  0  0
 27 26  1  0  0  0  0
 27 23  1  0  0  0  0
 30 31  1  0  0  0  0
 31 32  2  0  0  0  0
 31 26  1  0  0  0  0
 32 40  1  0  0  0  0
 33 32  1  0  0  0  0
 34 33  1  0  0  0  0
 34 41  1  0  0  0  0
 35 34  1  0  0  0  0
 36 35  2  0  0  0  0
 36 37  1  0  0  0  0
 37 33  2  0  0  0  0
 38 37  1  0  0  0  0
 38 30  2  0  0  0  0
 39 30  1  0  0  0  0
 42 36  1  0  0  0  0
 43 38  1  0  0  0  0
M  END
>  <minimizedAffinity>
-7.27050972

>  <minimizedRMSD>
0.979091823

$$$$
