
 OpenBabel03272503343D

 44 48  0  0  1  0  0  0  0  0999 V2000
   35.2040   29.4550   47.7980 C   0  0  0  0  0  0  0  0  0  0  0  0
   34.9520   30.2860   46.6950 C   0  0  0  0  0  0  0  0  0  0  0  0
   33.8250   29.9870   45.9210 C   0  0  0  0  0  0  0  0  0  0  0  0
   33.0560   28.9050   46.3020 N   0  0  0  0  0  0  0  0  0  0  0  0
   33.3400   28.1470   47.3590 C   0  0  0  0  0  0  0  0  0  0  0  0
   34.4180   28.4140   48.1200 N   0  0  0  0  0  0  0  0  0  0  0  0
   35.5440   31.1190   46.4020 H   0  0  0  0  0  0  0  0  0  0  0  0
   33.5520   30.5640   45.0600 H   0  0  0  0  0  0  0  0  0  0  0  0
   36.3610   29.7600   48.5970 N   0  0  0  0  0  0  0  0  0  0  0  0
   37.5100   30.5140   48.1900 C   0  0  0  0  0  0  0  0  0  0  0  0
   37.9910   31.1090   49.5140 C   0  0  2  0  0  0  0  0  0  0  0  0
   36.9520   30.7230   50.5610 C   0  0  0  0  0  0  0  0  0  0  0  0
   36.5880   29.3620   49.9740 C   0  0  0  0  0  0  0  0  0  0  0  0
   37.2920   31.2940   47.4510 H   0  0  0  0  0  0  0  0  0  0  0  0
   38.2960   29.8190   47.8240 H   0  0  0  0  0  0  0  0  0  0  0  0
   38.9540   30.6600   49.8410 H   0  0  0  0  0  0  0  0  0  0  0  0
   36.0650   31.3630   50.5450 H   0  0  0  0  0  0  0  0  0  0  0  0
   37.4150   30.6360   51.5460 H   0  0  0  0  0  0  0  0  0  0  0  0
   37.4810   28.7200   50.0750 H   0  0  0  0  0  0  0  0  0  0  0  0
   35.7020   28.9850   50.4780 H   0  0  0  0  0  0  0  0  0  0  0  0
   38.1750   32.5970   49.4230 C   0  0  0  0  0  0  0  0  0  0  0  0
   37.0270   33.1660   49.9420 F   0  0  0  0  0  0  0  0  0  0  0  0
   38.2090   32.9370   48.0920 F   0  0  0  0  0  0  0  0  0  0  0  0
   39.2980   33.0430   50.0750 F   0  0  0  0  0  0  0  0  0  0  0  0
   32.3030   26.7690   47.7860 S   0  0  0  0  0  0  0  0  0  0  0  0
   30.9250   27.0630   48.7110 C   0  0  0  0  0  0  0  0  0  0  0  0
   30.4250   26.9700   49.9720 C   0  0  0  0  0  0  0  0  0  0  0  0
   29.1670   27.3340   50.3670 C   0  0  0  0  0  0  0  0  0  0  0  0
   28.3480   27.8640   49.2500 C   0  0  0  0  0  0  0  0  0  0  0  0
   29.4550   27.7790   47.8150 S   0  0  0  0  0  0  0  0  0  0  0  0
   31.2050   26.5600   50.5970 H   0  0  0  0  0  0  0  0  0  0  0  0
   28.9040   27.2440   51.3830 H   0  0  0  0  0  0  0  0  0  0  0  0
   27.0730   28.4060   49.1830 C   0  0  0  0  0  0  0  0  0  0  0  0
   26.0570   27.5000   49.0080 N   0  0  0  0  0  0  0  0  0  0  0  0
   24.7780   27.8460   48.8130 C   0  0  0  0  0  3  0  0  0  0  0  0
   24.3750   29.1280   48.7740 N   0  0  0  0  0  0  0  0  0  0  0  0
   25.2800   30.1030   48.9370 C   0  0  0  0  0  0  0  0  0  0  0  0
   24.9790   31.4490   48.9490 C   0  0  0  0  0  3  0  0  0  0  0  0
   25.9500   32.4330   49.1580 C   0  0  0  0  0  0  0  0  0  0  0  0
   25.6370   33.4760   49.1530 H   0  0  0  0  0  0  0  0  0  0  0  0
   27.2610   31.9840   49.3590 C   0  0  0  0  0  0  0  0  0  0  0  0
   27.9770   32.7780   49.5190 H   0  0  0  0  0  0  0  0  0  0  0  0
   27.5230   30.6400   49.3410 C   0  0  0  0  0  3  0  0  0  0  0  0
   26.5740   29.6810   49.1330 C   0  0  0  0  0  0  0  0  0  0  0  0
  1  6  1  0  0  0  0
  1  9  1  0  0  0  0
  2  1  2  0  0  0  0
  3  4  2  0  0  0  0
  3  2  1  0  0  0  0
  4  5  1  0  0  0  0
  5 25  1  0  0  0  0
  5  6  2  0  0  0  0
  7  2  1  0  0  0  0
  8  3  1  0  0  0  0
  9 13  1  0  0  0  0
 10  9  1  0  0  0  0
 10 11  1  0  0  0  0
 11 16  1  1  0  0  0
 11 12  1  0  0  0  0
 12 18  1  0  0  0  0
 13 19  1  0  0  0  0
 13 20  1  0  0  0  0
 13 12  1  0  0  0  0
 14 10  1  0  0  0  0
 15 10  1  0  0  0  0
 17 12  1  0  0  0  0
 21 11  1  0  0  0  0
 21 22  1  0  0  0  0
 21 24  1  0  0  0  0
 23 21  1  0  0  0  0
 25 26  1  0  0  0  0
 26 27  2  0  0  0  0
 27 28  1  0  0  0  0
 27 31  1  0  0  0  0
 28 32  1  0  0  0  0
 29 28  2  0  0  0  0
 30 26  1  0  0  0  0
 30 29  1  0  0  0  0
 33 29  1  0  0  0  0
 34 33  2  0  0  0  0
 35 34  1  0  0  0  0
 36 35  2  0  0  0  0
 36 37  1  0  0  0  0
 37 38  2  0  0  0  0
 37 44  1  0  0  0  0
 38 39  1  0  0  0  0
 39 41  2  0  0  0  0
 40 39  1  0  0  0  0
 41 42  1  0  0  0  0
 43 41  1  0  0  0  0
 44 33  1  0  0  0  0
 44 43  2  0  0  0  0
M  END
>  <minimizedAffinity>
-5.05036259

>  <minimizedRMSD>
1.12764132

$$$$
