
 OpenBabel03272506073D

 33 36  0  0  0  0  0  0  0  0999 V2000
   34.5540   29.0350   48.1960 C   0  0  0  0  0  0  0  0  0  0  0  0
   34.5220   29.9090   47.0490 C   0  0  0  0  0  0  0  0  0  0  0  0
   32.8960   29.5280   46.4300 S   0  0  0  0  0  0  0  0  0  0  0  0
   32.4990   28.2790   47.7690 C   0  0  0  0  0  0  0  0  0  0  0  0
   33.4980   28.3080   48.4140 N   0  0  0  0  0  0  0  0  0  0  0  0
   35.2870   30.5730   46.7150 H   0  0  0  0  0  0  0  0  0  0  0  0
   31.1510   27.6870   47.6140 C   0  0  0  0  0  0  0  0  0  0  0  0
   30.0170   28.1420   48.1770 N   0  0  0  0  0  0  0  0  0  0  0  0
   28.8240   27.5590   47.9960 C   0  0  0  0  0  3  0  0  0  0  0  0
   28.6960   26.4690   47.2290 N   0  0  0  0  0  0  0  0  0  0  0  0
   29.7730   25.9400   46.6230 C   0  0  0  0  0  0  0  0  0  0  0  0
   29.6140   24.8180   45.8390 C   0  0  0  0  0  3  0  0  0  0  0  0
   30.7310   24.2800   45.2190 C   0  0  0  0  0  0  0  0  0  0  0  0
   30.5880   23.3990   44.6080 H   0  0  0  0  0  0  0  0  0  0  0  0
   31.9590   24.9160   45.4310 C   0  0  0  0  0  0  0  0  0  0  0  0
   32.7520   24.4000   44.8930 H   0  0  0  0  0  0  0  0  0  0  0  0
   32.0720   26.0380   46.2240 C   0  0  0  0  0  3  0  0  0  0  0  0
   30.9820   26.5670   46.8340 C   0  0  0  0  0  0  0  0  0  0  0  0
   35.7930   29.0360   49.0410 C   0  0  0  0  0  0  0  0  0  0  0  0
   36.7050   28.9660   48.3780 H   0  0  0  0  0  0  0  0  0  0  0  0
   35.8420   28.1090   49.6500 H   0  0  0  0  0  0  0  0  0  0  0  0
   35.9080   30.2330   49.9030 C   0  0  0  0  0  0  0  0  0  0  0  0
   34.9420   30.7610   50.0880 H   0  0  0  0  0  0  0  0  0  0  0  0
   36.2940   29.9460   50.9240 H   0  0  0  0  0  0  0  0  0  0  0  0
   38.0070   33.2280   49.3270 C   0  0  0  0  0  0  0  0  0  0  0  0
   38.8610   32.8190   48.3050 C   0  0  0  0  0  0  0  0  0  0  0  0
   38.7030   31.5150   47.8260 C   0  0  0  0  0  0  0  0  0  0  0  0
   37.7490   30.7110   48.3560 N   0  0  0  0  0  0  0  0  0  0  0  0
   36.9450   31.1740   49.3570 C   0  0  0  0  0  0  0  0  0  0  0  0
   37.0740   32.4120   49.8320 N   0  0  0  0  0  0  0  0  0  0  0  0
   38.0890   34.2280   49.7310 H   0  0  0  0  0  0  0  0  0  0  0  0
   39.6170   33.4750   47.8940 H   0  0  0  0  0  0  0  0  0  0  0  0
   39.3310   31.1570   47.0460 H   0  0  0  0  0  0  0  0  0  0  0  0
  1  5  1  0  0  0  0
  1 19  1  0  0  0  0
  2  1  2  0  0  0  0
  3  2  1  0  0  0  0
  3  4  1  0  0  0  0
  4  5  2  0  0  0  0
  6  2  1  0  0  0  0
  7  4  1  0  0  0  0
  7  8  1  0  0  0  0
  9  8  2  0  0  0  0
 10  9  1  0  0  0  0
 11 18  1  0  0  0  0
 11 10  2  0  0  0  0
 12 11  1  0  0  0  0
 13 15  1  0  0  0  0
 13 12  2  0  0  0  0
 14 13  1  0  0  0  0
 15 17  2  0  0  0  0
 16 15  1  0  0  0  0
 17 18  1  0  0  0  0
 18  7  2  0  0  0  0
 19 21  1  0  0  0  0
 19 22  1  0  0  0  0
 20 19  1  0  0  0  0
 22 23  1  0  0  0  0
 22 24  1  0  0  0  0
 25 31  1  0  0  0  0
 25 30  1  0  0  0  0
 26 25  2  0  0  0  0
 27 26  1  0  0  0  0
 27 28  2  0  0  0  0
 28 29  1  0  0  0  0
 29 30  2  0  0  0  0
 29 22  1  0  0  0  0
 32 26  1  0  0  0  0
 33 27  1  0  0  0  0
M  END
>  <minimizedAffinity>
-5.08264637

>  <minimizedRMSD>
1.30859399

$$$$
