
 OpenBabel03272507133D

 43 48  0  0  0  0  0  0  0  0999 V2000
   37.3130   29.6340   49.9380 C   0  0  0  0  0  0  0  0  0  0  0  0
   37.9710   29.0830   50.8620 O   0  0  0  0  0  0  0  0  0  0  0  0
   37.8730   30.6470   49.0680 C   0  0  0  0  0  0  0  0  0  0  0  0
   38.1750   31.8750   49.6040 C   0  0  0  0  0  0  0  0  0  0  0  0
   38.7220   32.8450   48.7850 C   0  0  0  0  0  0  0  0  0  0  0  0
   38.9280   32.5280   47.4930 N   0  0  0  0  0  0  0  0  0  0  0  0
   38.6410   31.3460   46.9560 C   0  0  0  0  0  0  0  0  0  0  0  0
   38.1130   30.4370   47.7880 N   0  0  0  0  0  0  0  0  0  0  0  0
   38.0170   32.1480   50.6330 H   0  0  0  0  0  0  0  0  0  0  0  0
   38.9990   33.8270   49.0690 H   0  0  0  0  0  0  0  0  0  0  0  0
   38.7820   30.7990   45.5910 C   0  0  0  0  0  0  0  0  0  0  0  0
   38.6780   29.5010   45.2880 N   0  0  0  0  0  0  0  0  0  0  0  0
   38.8120   29.0510   44.0430 C   0  0  0  0  0  3  0  0  0  0  0  0
   39.0590   29.8350   42.9890 N   0  0  0  0  0  0  0  0  0  0  0  0
   39.1790   31.1600   43.2020 C   0  0  0  0  0  0  0  0  0  0  0  0
   39.4320   31.9690   42.1200 C   0  0  0  0  0  3  0  0  0  0  0  0
   39.5610   33.3270   42.3000 C   0  0  0  0  0  0  0  0  0  0  0  0
   39.7570   33.9070   41.4250 H   0  0  0  0  0  0  0  0  0  0  0  0
   39.4270   33.8220   43.5830 C   0  0  0  0  0  0  0  0  0  0  0  0
   39.5350   34.8920   43.6700 H   0  0  0  0  0  0  0  0  0  0  0  0
   39.1730   32.9580   44.6240 C   0  0  0  0  0  3  0  0  0  0  0  0
   39.0360   31.5980   44.5000 C   0  0  0  0  0  0  0  0  0  0  0  0
   35.9300   29.2480   49.7210 C   0  0  0  0  0  0  0  0  0  0  0  0
   34.9140   29.7680   50.4570 C   0  0  0  0  0  0  0  0  0  0  0  0
   33.7320   29.1820   49.9860 C   0  0  0  0  0  0  0  0  0  0  0  0
   34.1220   28.3210   48.9660 C   0  0  0  0  0  0  0  0  0  0  0  0
   35.4280   28.4040   48.8570 O   0  0  0  0  0  0  0  0  0  0  0  0
   34.9660   30.5040   51.2710 H   0  0  0  0  0  0  0  0  0  0  0  0
   32.7570   29.4120   50.3940 H   0  0  0  0  0  0  0  0  0  0  0  0
   33.5740   26.5590   47.2690 C   0  0  0  0  0  0  0  0  0  0  0  0
   33.1880   27.4990   48.1920 C   0  0  0  0  0  0  0  0  0  0  0  0
   31.8480   27.7390   48.4540 C   0  0  0  0  0  0  0  0  0  0  0  0
   30.8900   27.0110   47.7640 C   0  0  0  0  0  0  0  0  0  0  0  0
   29.5600   27.0230   47.8020 N   0  0  0  0  0  0  0  0  0  0  0  0
   29.1320   26.1180   46.9270 N   0  0  0  0  0  0  0  0  0  0  0  0
   30.1810   25.5250   46.3300 C   0  0  0  0  0  0  0  0  0  0  0  0
   31.3370   26.0710   46.8390 C   0  0  0  0  0  0  0  0  0  0  0  0
   32.6840   25.8230   46.5710 C   0  0  0  0  0  0  0  0  0  0  0  0
   34.6340   26.4220   47.1140 H   0  0  0  0  0  0  0  0  0  0  0  0
   31.4540   28.4690   49.1730 H   0  0  0  0  0  0  0  0  0  0  0  0
   28.9530   27.6340   48.4080 H   0  0  0  0  0  0  0  0  0  0  0  0
   30.0870   24.7580   45.5840 H   0  0  0  0  0  0  0  0  0  0  0  0
   32.9450   25.0710   45.8330 H   0  0  0  0  0  0  0  0  0  0  0  0
  1  2  2  0  0  0  0
  3  4  1  0  0  0  0
  3  1  1  0  0  0  0
  4  9  1  0  0  0  0
  5 10  1  0  0  0  0
  5  4  2  0  0  0  0
  6  5  1  0  0  0  0
  7  6  2  0  0  0  0
  7  8  1  0  0  0  0
  8  3  2  0  0  0  0
 11  7  1  0  0  0  0
 12 11  1  0  0  0  0
 13 12  2  0  0  0  0
 14 15  2  0  0  0  0
 14 13  1  0  0  0  0
 15 22  1  0  0  0  0
 16 17  2  0  0  0  0
 16 15  1  0  0  0  0
 17 19  1  0  0  0  0
 18 17  1  0  0  0  0
 19 20  1  0  0  0  0
 19 21  2  0  0  0  0
 22 21  1  0  0  0  0
 22 11  2  0  0  0  0
 23  1  1  0  0  0  0
 23 24  2  0  0  0  0
 24 28  1  0  0  0  0
 25 29  1  0  0  0  0
 25 24  1  0  0  0  0
 26 25  2  0  0  0  0
 27 26  1  0  0  0  0
 27 23  1  0  0  0  0
 30 31  1  0  0  0  0
 31 32  2  0  0  0  0
 31 26  1  0  0  0  0
 32 40  1  0  0  0  0
 33 34  1  0  0  0  0
 33 32  1  0  0  0  0
 34 41  1  0  0  0  0
 35 34  1  0  0  0  0
 36 37  1  0  0  0  0
 36 35  2  0  0  0  0
 37 33  2  0  0  0  0
 38 37  1  0  0  0  0
 38 30  2  0  0  0  0
 39 30  1  0  0  0  0
 42 36  1  0  0  0  0
 43 38  1  0  0  0  0
M  END
>  <minimizedAffinity>
-6.62858152

>  <minimizedRMSD>
0.516763985

$$$$
