
 OpenBabel03272507133D

 43 48  0  0  0  0  0  0  0  0999 V2000
   37.1180   29.6450   49.8150 C   0  0  0  0  0  0  0  0  0  0  0  0
   37.8350   29.1850   50.7450 O   0  0  0  0  0  0  0  0  0  0  0  0
   37.5970   30.6260   48.8630 C   0  0  0  0  0  0  0  0  0  0  0  0
   38.2780   31.7200   49.3380 C   0  0  0  0  0  0  0  0  0  0  0  0
   38.7490   32.6560   48.4370 C   0  0  0  0  0  0  0  0  0  0  0  0
   38.5110   32.4410   47.1300 N   0  0  0  0  0  0  0  0  0  0  0  0
   37.8530   31.3890   46.6520 C   0  0  0  0  0  0  0  0  0  0  0  0
   37.4140   30.5080   47.5620 N   0  0  0  0  0  0  0  0  0  0  0  0
   38.4780   31.9110   50.3780 H   0  0  0  0  0  0  0  0  0  0  0  0
   39.2860   33.5390   48.6690 H   0  0  0  0  0  0  0  0  0  0  0  0
   37.4860   30.9670   45.2840 C   0  0  0  0  0  0  0  0  0  0  0  0
   36.2300   30.7570   44.8740 N   0  0  0  0  0  0  0  0  0  0  0  0
   35.9450   30.3780   43.6320 C   0  0  0  0  0  3  0  0  0  0  0  0
   36.8660   30.1710   42.6840 N   0  0  0  0  0  0  0  0  0  0  0  0
   38.1600   30.3590   43.0100 C   0  0  0  0  0  0  0  0  0  0  0  0
   39.1080   30.1490   42.0370 C   0  0  0  0  0  3  0  0  0  0  0  0
   40.4400   30.3320   42.3340 C   0  0  0  0  0  0  0  0  0  0  0  0
   41.1320   30.1540   41.5400 H   0  0  0  0  0  0  0  0  0  0  0  0
   40.7660   30.7260   43.6170 C   0  0  0  0  0  0  0  0  0  0  0  0
   41.8210   30.8560   43.7980 H   0  0  0  0  0  0  0  0  0  0  0  0
   39.7670   30.9200   44.5440 C   0  0  0  0  0  3  0  0  0  0  0  0
   38.4260   30.7510   44.3020 C   0  0  0  0  0  0  0  0  0  0  0  0
   35.7490   29.1810   49.6750 C   0  0  0  0  0  0  0  0  0  0  0  0
   34.7660   29.5760   50.5240 C   0  0  0  0  0  0  0  0  0  0  0  0
   33.5890   28.9450   50.1010 C   0  0  0  0  0  0  0  0  0  0  0  0
   33.9480   28.1880   48.9900 C   0  0  0  0  0  0  0  0  0  0  0  0
   35.2340   28.3680   48.7890 O   0  0  0  0  0  0  0  0  0  0  0  0
   34.8370   30.2540   51.3850 H   0  0  0  0  0  0  0  0  0  0  0  0
   32.6370   29.0770   50.5980 H   0  0  0  0  0  0  0  0  0  0  0  0
   33.3860   26.3330   47.4010 C   0  0  0  0  0  0  0  0  0  0  0  0
   33.0090   27.3610   48.2300 C   0  0  0  0  0  0  0  0  0  0  0  0
   31.6730   27.6940   48.3980 C   0  0  0  0  0  0  0  0  0  0  0  0
   30.7110   26.9670   47.7120 C   0  0  0  0  0  0  0  0  0  0  0  0
   29.3840   27.0550   47.6750 N   0  0  0  0  0  0  0  0  0  0  0  0
   28.9490   26.1100   46.8470 N   0  0  0  0  0  0  0  0  0  0  0  0
   29.9900   25.4160   46.3550 C   0  0  0  0  0  0  0  0  0  0  0  0
   31.1490   25.9350   46.8850 C   0  0  0  0  0  0  0  0  0  0  0  0
   32.4910   25.5940   46.7120 C   0  0  0  0  0  0  0  0  0  0  0  0
   34.4430   26.1260   47.3160 H   0  0  0  0  0  0  0  0  0  0  0  0
   31.2860   28.4970   49.0370 H   0  0  0  0  0  0  0  0  0  0  0  0
   28.7840   27.7430   48.1990 H   0  0  0  0  0  0  0  0  0  0  0  0
   29.8900   24.5990   45.6640 H   0  0  0  0  0  0  0  0  0  0  0  0
   32.7450   24.7750   46.0470 H   0  0  0  0  0  0  0  0  0  0  0  0
  1  2  2  0  0  0  0
  3  4  1  0  0  0  0
  3  1  1  0  0  0  0
  4  9  1  0  0  0  0
  5 10  1  0  0  0  0
  5  4  2  0  0  0  0
  6  5  1  0  0  0  0
  7  6  2  0  0  0  0
  7  8  1  0  0  0  0
  8  3  2  0  0  0  0
 11  7  1  0  0  0  0
 12 11  1  0  0  0  0
 13 12  2  0  0  0  0
 14 15  2  0  0  0  0
 14 13  1  0  0  0  0
 15 22  1  0  0  0  0
 16 17  2  0  0  0  0
 16 15  1  0  0  0  0
 17 19  1  0  0  0  0
 18 17  1  0  0  0  0
 19 20  1  0  0  0  0
 19 21  2  0  0  0  0
 22 21  1  0  0  0  0
 22 11  2  0  0  0  0
 23  1  1  0  0  0  0
 23 24  2  0  0  0  0
 24 28  1  0  0  0  0
 25 24  1  0  0  0  0
 25 29  1  0  0  0  0
 26 25  2  0  0  0  0
 27 26  1  0  0  0  0
 27 23  1  0  0  0  0
 30 31  1  0  0  0  0
 31 32  2  0  0  0  0
 31 26  1  0  0  0  0
 32 40  1  0  0  0  0
 33 32  1  0  0  0  0
 34 33  1  0  0  0  0
 34 41  1  0  0  0  0
 35 34  1  0  0  0  0
 36 35  2  0  0  0  0
 36 37  1  0  0  0  0
 37 33  2  0  0  0  0
 38 37  1  0  0  0  0
 38 30  2  0  0  0  0
 39 30  1  0  0  0  0
 42 36  1  0  0  0  0
 43 38  1  0  0  0  0
M  END
>  <minimizedAffinity>
-7.09950638

>  <minimizedRMSD>
1.05914998

$$$$
