
 OpenBabel03272506563D

 23 25  0  0  0  0  0  0  0  0999 V2000
   33.9190   29.8980   47.0860 C   0  0  0  0  0  0  0  0  0  0  0  0
   33.0860   30.7560   46.4620 N   0  0  0  0  0  0  0  0  0  0  0  0
   31.8990   30.4230   45.9550 C   0  0  0  0  0  0  0  0  0  0  0  0
   31.4180   29.1720   46.0250 N   0  0  0  0  0  0  0  0  0  0  0  0
   32.1770   28.2460   46.6280 C   0  0  0  0  0  0  0  0  0  0  0  0
   31.6630   26.9710   46.6860 C   0  0  0  0  0  0  0  0  0  0  0  0
   32.3820   25.9730   47.2870 C   0  0  0  0  0  0  0  0  0  0  0  0
   31.9520   24.9880   47.3160 H   0  0  0  0  0  0  0  0  0  0  0  0
   33.6290   26.3080   47.8220 C   0  0  0  0  0  0  0  0  0  0  0  0
   34.1640   25.4810   48.2900 H   0  0  0  0  0  0  0  0  0  0  0  0
   34.0830   27.6020   47.7300 C   0  0  0  0  0  0  0  0  0  0  0  0
   33.4000   28.6210   47.1410 C   0  0  0  0  0  0  0  0  0  0  0  0
   36.1760   30.8810   49.6920 C   0  0  0  0  0  0  0  0  0  0  0  0
   37.4470   30.9900   49.1380 C   0  0  0  0  0  0  0  0  0  0  0  0
   37.5370   30.7060   47.7710 C   0  0  0  0  0  0  0  0  0  0  0  0
   36.4290   30.3560   47.0920 N   0  0  0  0  0  0  0  0  0  0  0  0
   35.2330   30.2610   47.6470 C   0  0  0  0  0  0  0  0  0  0  0  0
   35.1080   30.5250   48.9550 N   0  0  0  0  0  0  0  0  0  0  0  0
   36.1430   31.1070   50.7490 H   0  0  0  0  0  0  0  0  0  0  0  0
   38.4640   30.7600   47.2470 H   0  0  0  0  0  0  0  0  0  0  0  0
   38.5730   31.3630   49.8990 N   0  0  0  0  0  0  0  0  0  0  0  0
   38.5710   32.0980   50.6280 H   0  0  0  0  0  0  0  0  0  0  0  0
   39.5380   30.9560   49.8320 H   0  0  0  0  0  0  0  0  0  0  0  0
  1 12  1  0  0  0  0
  1 17  1  0  0  0  0
  2  1  2  0  0  0  0
  3  4  2  0  0  0  0
  3  2  1  0  0  0  0
  4  5  1  0  0  0  0
  5  6  2  0  0  0  0
  5 12  1  0  0  0  0
  6  7  1  0  0  0  0
  7  8  1  0  0  0  0
  7  9  2  0  0  0  0
  9 10  1  0  0  0  0
 11  9  1  0  0  0  0
 12 11  2  0  0  0  0
 13 19  1  0  0  0  0
 14 13  1  0  0  0  0
 14 21  1  0  0  0  0
 15 14  2  0  0  0  0
 16 17  2  0  0  0  0
 16 15  1  0  0  0  0
 17 18  1  0  0  0  0
 18 13  2  0  0  0  0
 20 15  1  0  0  0  0
 21 22  1  0  0  0  0
 23 21  1  0  0  0  0
M  END
>  <minimizedAffinity>
-4.53076982

>  <minimizedRMSD>
3.22047281

$$$$
