
 OpenBabel03272506563D

 23 25  0  0  0  0  0  0  0  0999 V2000
   37.9420   23.0950   33.4850 C   0  0  0  0  0  0  0  0  0  0  0  0
   38.3340   24.0240   32.5890 N   0  0  0  0  0  0  0  0  0  0  0  0
   37.8760   24.1110   31.3400 C   0  0  0  0  0  3  0  0  0  0  0  0
   36.9590   23.2590   30.8550 N   0  0  0  0  0  0  0  0  0  0  0  0
   36.5090   22.2970   31.6740 C   0  0  0  0  0  0  0  0  0  0  0  0
   35.5710   21.4340   31.1520 C   0  0  0  0  0  3  0  0  0  0  0  0
   35.0650   20.4280   31.9300 C   0  0  0  0  0  0  0  0  0  0  0  0
   34.3340   19.7710   31.4940 H   0  0  0  0  0  0  0  0  0  0  0  0
   35.5380   20.3250   33.2420 C   0  0  0  0  0  0  0  0  0  0  0  0
   35.1060   19.5090   33.8210 H   0  0  0  0  0  0  0  0  0  0  0  0
   36.4750   21.2200   33.6980 C   0  0  0  0  0  3  0  0  0  0  0  0
   37.0030   22.2320   32.9590 C   0  0  0  0  0  0  0  0  0  0  0  0
   38.0600   23.9400   36.9670 C   0  0  0  0  0  0  0  0  0  0  0  0
   39.0470   23.1620   37.5630 C   0  0  0  0  0  0  0  0  0  0  0  0
   39.7220   22.2830   36.7070 C   0  0  0  0  0  0  0  0  0  0  0  0
   39.3900   22.2410   35.4030 N   0  0  0  0  0  0  0  0  0  0  0  0
   38.4470   22.9950   34.8660 C   0  0  0  0  0  0  0  0  0  0  0  0
   37.7780   23.8480   35.6550 N   0  0  0  0  0  0  0  0  0  0  0  0
   37.5590   24.6060   37.6560 H   0  0  0  0  0  0  0  0  0  0  0  0
   40.4970   21.6420   37.0610 H   0  0  0  0  0  0  0  0  0  0  0  0
   39.3520   23.2490   38.9360 N   0  0  0  0  0  0  0  0  0  0  0  0
   39.3960   24.1340   39.4710 H   0  0  0  0  0  0  0  0  0  0  0  0
   39.5690   22.4510   39.5820 H   0  0  0  0  0  0  0  0  0  0  0  0
  1 17  1  0  0  0  0
  2  1  2  0  0  0  0
  3  2  1  0  0  0  0
  4  3  2  0  0  0  0
  4  5  1  0  0  0  0
  5 12  1  0  0  0  0
  6  5  2  0  0  0  0
  6  7  1  0  0  0  0
  7  9  2  0  0  0  0
  8  7  1  0  0  0  0
  9 11  1  0  0  0  0
  9 10  1  0  0  0  0
 12  1  1  0  0  0  0
 12 11  2  0  0  0  0
 13 14  1  0  0  0  0
 13 19  1  0  0  0  0
 14 21  1  0  0  0  0
 15 20  1  0  0  0  0
 15 14  2  0  0  0  0
 16 15  1  0  0  0  0
 17 16  2  0  0  0  0
 17 18  1  0  0  0  0
 18 13  2  0  0  0  0
 21 22  1  0  0  0  0
 21 23  1  0  0  0  0
M  END
>  <minimizedAffinity>
-5.03838682

$$$$

 OpenBabel03272506563D

 23 25  0  0  0  0  0  0  0  0999 V2000
   38.0620   24.5560   33.3660 C   0  0  0  0  0  0  0  0  0  0  0  0
   37.8480   23.9750   32.1680 N   0  0  0  0  0  0  0  0  0  0  0  0
   37.1570   24.5270   31.1710 C   0  0  0  0  0  3  0  0  0  0  0  0
   36.5990   25.7440   31.2770 N   0  0  0  0  0  0  0  0  0  0  0  0
   36.7570   26.4020   32.4350 C   0  0  0  0  0  0  0  0  0  0  0  0
   36.1750   27.6460   32.5190 C   0  0  0  0  0  3  0  0  0  0  0  0
   36.2950   28.3770   33.6710 C   0  0  0  0  0  0  0  0  0  0  0  0
   35.8300   29.3460   33.7050 H   0  0  0  0  0  0  0  0  0  0  0  0
   37.0180   27.8090   34.7250 C   0  0  0  0  0  0  0  0  0  0  0  0
   37.0850   28.4280   35.6190 H   0  0  0  0  0  0  0  0  0  0  0  0
   37.5730   26.5610   34.5720 C   0  0  0  0  0  3  0  0  0  0  0  0
   37.4770   25.8040   33.4470 C   0  0  0  0  0  0  0  0  0  0  0  0
   38.5250   22.3920   36.1870 C   0  0  0  0  0  0  0  0  0  0  0  0
   39.8300   22.5530   36.6390 C   0  0  0  0  0  0  0  0  0  0  0  0
   40.6080   23.4710   35.9250 C   0  0  0  0  0  0  0  0  0  0  0  0
   40.0700   24.1240   34.8770 N   0  0  0  0  0  0  0  0  0  0  0  0
   38.8250   23.9490   34.4710 C   0  0  0  0  0  0  0  0  0  0  0  0
   38.0490   23.0770   35.1300 N   0  0  0  0  0  0  0  0  0  0  0  0
   37.9520   21.6770   36.7600 H   0  0  0  0  0  0  0  0  0  0  0  0
   41.6220   23.6700   36.1880 H   0  0  0  0  0  0  0  0  0  0  0  0
   40.3390   21.8420   37.7440 N   0  0  0  0  0  0  0  0  0  0  0  0
   39.8110   21.6540   38.6140 H   0  0  0  0  0  0  0  0  0  0  0  0
   41.2950   21.4190   37.8300 H   0  0  0  0  0  0  0  0  0  0  0  0
  1 12  1  0  0  0  0
  1 17  1  0  0  0  0
  2  1  2  0  0  0  0
  3  4  2  0  0  0  0
  3  2  1  0  0  0  0
  4  5  1  0  0  0  0
  5  6  2  0  0  0  0
  5 12  1  0  0  0  0
  6  7  1  0  0  0  0
  7  8  1  0  0  0  0
  7  9  2  0  0  0  0
  9 10  1  0  0  0  0
 11  9  1  0  0  0  0
 12 11  2  0  0  0  0
 13 14  1  0  0  0  0
 13 19  1  0  0  0  0
 14 21  1  0  0  0  0
 15 20  1  0  0  0  0
 15 14  2  0  0  0  0
 16 15  1  0  0  0  0
 17 16  2  0  0  0  0
 17 18  1  0  0  0  0
 18 13  2  0  0  0  0
 21 23  1  0  0  0  0
 21 22  1  0  0  0  0
M  END
>  <minimizedAffinity>
-4.9971118

$$$$

 OpenBabel03272506563D

 23 25  0  0  0  0  0  0  0  0999 V2000
   39.0920   23.5150   34.3090 C   0  0  0  0  0  0  0  0  0  0  0  0
   40.1780   22.8360   33.8860 N   0  0  0  0  0  0  0  0  0  0  0  0
   41.0420   22.2150   34.6890 C   0  0  0  0  0  3  0  0  0  0  0  0
   40.9020   22.2130   36.0240 N   0  0  0  0  0  0  0  0  0  0  0  0
   39.8500   22.8650   36.5400 C   0  0  0  0  0  0  0  0  0  0  0  0
   39.7280   22.8490   37.9110 C   0  0  0  0  0  3  0  0  0  0  0  0
   38.6790   23.4930   38.5090 C   0  0  0  0  0  0  0  0  0  0  0  0
   38.6120   23.4620   39.5820 H   0  0  0  0  0  0  0  0  0  0  0  0
   37.7650   24.1490   37.6780 C   0  0  0  0  0  0  0  0  0  0  0  0
   36.9480   24.6470   38.2000 H   0  0  0  0  0  0  0  0  0  0  0  0
   37.9460   24.1250   36.3170 C   0  0  0  0  0  3  0  0  0  0  0  0
   38.9740   23.4980   35.6840 C   0  0  0  0  0  0  0  0  0  0  0  0
   36.5410   23.6900   31.7960 C   0  0  0  0  0  0  0  0  0  0  0  0
   36.2180   25.0300   31.6070 C   0  0  0  0  0  0  0  0  0  0  0  0
   36.9280   25.9400   32.3990 C   0  0  0  0  0  0  0  0  0  0  0  0
   37.8490   25.4850   33.2690 N   0  0  0  0  0  0  0  0  0  0  0  0
   38.1340   24.2040   33.4260 C   0  0  0  0  0  0  0  0  0  0  0  0
   37.4750   23.3020   32.6850 N   0  0  0  0  0  0  0  0  0  0  0  0
   35.9750   23.0150   31.1700 H   0  0  0  0  0  0  0  0  0  0  0  0
   36.7590   26.9900   32.3330 H   0  0  0  0  0  0  0  0  0  0  0  0
   35.2430   25.4480   30.6800 N   0  0  0  0  0  0  0  0  0  0  0  0
   35.1190   25.0410   29.7370 H   0  0  0  0  0  0  0  0  0  0  0  0
   34.5310   26.2060   30.8180 H   0  0  0  0  0  0  0  0  0  0  0  0
  1 12  1  0  0  0  0
  2  1  2  0  0  0  0
  2  3  1  0  0  0  0
  3  4  2  0  0  0  0
  4  5  1  0  0  0  0
  5  6  1  0  0  0  0
  6  7  2  0  0  0  0
  7  8  1  0  0  0  0
  9 10  1  0  0  0  0
  9  7  1  0  0  0  0
 11  9  2  0  0  0  0
 12 11  1  0  0  0  0
 12  5  2  0  0  0  0
 13 18  1  0  0  0  0
 14 13  2  0  0  0  0
 14 15  1  0  0  0  0
 15 16  2  0  0  0  0
 16 17  1  0  0  0  0
 17  1  1  0  0  0  0
 18 17  2  0  0  0  0
 19 13  1  0  0  0  0
 20 15  1  0  0  0  0
 21 23  1  0  0  0  0
 21 14  1  0  0  0  0
 22 21  1  0  0  0  0
M  END
>  <minimizedAffinity>
-4.99071693

$$$$

 OpenBabel03272506563D

 23 25  0  0  0  0  0  0  0  0999 V2000
   33.9380   29.8400   33.3300 C   0  0  0  0  0  0  0  0  0  0  0  0
   32.6350   29.4910   33.3310 N   0  0  0  0  0  0  0  0  0  0  0  0
   31.7780   29.7720   34.3120 C   0  0  0  0  0  3  0  0  0  0  0  0
   32.1480   30.4450   35.4130 N   0  0  0  0  0  0  0  0  0  0  0  0
   33.4280   30.8340   35.5030 C   0  0  0  0  0  0  0  0  0  0  0  0
   33.7830   31.5210   36.6420 C   0  0  0  0  0  3  0  0  0  0  0  0
   35.0730   31.9500   36.8040 C   0  0  0  0  0  0  0  0  0  0  0  0
   35.3190   32.4840   37.7040 H   0  0  0  0  0  0  0  0  0  0  0  0
   35.9830   31.6620   35.7820 C   0  0  0  0  0  0  0  0  0  0  0  0
   36.9960   32.0240   35.9560 H   0  0  0  0  0  0  0  0  0  0  0  0
   35.5610   30.9720   34.6710 C   0  0  0  0  0  3  0  0  0  0  0  0
   34.2910   30.5280   34.4730 C   0  0  0  0  0  0  0  0  0  0  0  0
   36.0650   27.7050   31.3870 C   0  0  0  0  0  0  0  0  0  0  0  0
   36.6560   28.4790   30.3950 C   0  0  0  0  0  0  0  0  0  0  0  0
   36.3000   29.8330   30.3920 C   0  0  0  0  0  0  0  0  0  0  0  0
   35.4360   30.2930   31.3150 N   0  0  0  0  0  0  0  0  0  0  0  0
   34.8900   29.5320   32.2470 C   0  0  0  0  0  0  0  0  0  0  0  0
   35.2060   28.2300   32.2810 N   0  0  0  0  0  0  0  0  0  0  0  0
   36.3610   26.6660   31.3610 H   0  0  0  0  0  0  0  0  0  0  0  0
   36.6960   30.5140   29.6740 H   0  0  0  0  0  0  0  0  0  0  0  0
   37.5560   27.9410   29.4530 N   0  0  0  0  0  0  0  0  0  0  0  0
   38.2880   27.2440   29.6750 H   0  0  0  0  0  0  0  0  0  0  0  0
   37.6030   28.1690   28.4300 H   0  0  0  0  0  0  0  0  0  0  0  0
  1  2  2  0  0  0  0
  1 12  1  0  0  0  0
  2  3  1  0  0  0  0
  3  4  2  0  0  0  0
  4  5  1  0  0  0  0
  5  6  1  0  0  0  0
  6  7  2  0  0  0  0
  7  8  1  0  0  0  0
  9 10  1  0  0  0  0
  9  7  1  0  0  0  0
 11  9  2  0  0  0  0
 12 11  1  0  0  0  0
 12  5  2  0  0  0  0
 13 18  1  0  0  0  0
 14 13  2  0  0  0  0
 15 14  1  0  0  0  0
 15 16  2  0  0  0  0
 16 17  1  0  0  0  0
 17 18  2  0  0  0  0
 17  1  1  0  0  0  0
 19 13  1  0  0  0  0
 20 15  1  0  0  0  0
 21 22  1  0  0  0  0
 21 14  1  0  0  0  0
 23 21  1  0  0  0  0
M  END
>  <minimizedAffinity>
-4.92224789

$$$$

 OpenBabel03272506563D

 23 25  0  0  0  0  0  0  0  0999 V2000
   35.2300   30.6080   34.6830 C   0  0  0  0  0  0  0  0  0  0  0  0
   36.0020   31.5930   35.1860 N   0  0  0  0  0  0  0  0  0  0  0  0
   35.6590   32.3730   36.2110 C   0  0  0  0  0  3  0  0  0  0  0  0
   34.4850   32.2420   36.8470 N   0  0  0  0  0  0  0  0  0  0  0  0
   33.6470   31.2880   36.4160 C   0  0  0  0  0  0  0  0  0  0  0  0
   32.4480   31.1740   37.0840 C   0  0  0  0  0  3  0  0  0  0  0  0
   31.5430   30.2220   36.7000 C   0  0  0  0  0  0  0  0  0  0  0  0
   30.6170   30.1580   37.2420 H   0  0  0  0  0  0  0  0  0  0  0  0
   31.8900   29.3960   35.6260 C   0  0  0  0  0  0  0  0  0  0  0  0
   31.1380   28.6540   35.3570 H   0  0  0  0  0  0  0  0  0  0  0  0
   33.1030   29.5640   35.0040 C   0  0  0  0  0  3  0  0  0  0  0  0
   34.0290   30.4970   35.3540 C   0  0  0  0  0  0  0  0  0  0  0  0
   35.7070   29.8230   31.2170 C   0  0  0  0  0  0  0  0  0  0  0  0
   36.1800   28.5180   31.1360 C   0  0  0  0  0  0  0  0  0  0  0  0
   36.3480   27.8590   32.3590 C   0  0  0  0  0  0  0  0  0  0  0  0
   36.0530   28.5010   33.5040 N   0  0  0  0  0  0  0  0  0  0  0  0
   35.6040   29.7430   33.5490 C   0  0  0  0  0  0  0  0  0  0  0  0
   35.4310   30.4070   32.3980 N   0  0  0  0  0  0  0  0  0  0  0  0
   35.5890   30.3020   30.2550 H   0  0  0  0  0  0  0  0  0  0  0  0
   36.7050   26.8560   32.4100 H   0  0  0  0  0  0  0  0  0  0  0  0
   36.4720   27.8960   29.9050 N   0  0  0  0  0  0  0  0  0  0  0  0
   35.8970   27.9910   29.0500 H   0  0  0  0  0  0  0  0  0  0  0  0
   37.2890   27.2710   29.6970 H   0  0  0  0  0  0  0  0  0  0  0  0
  1  2  2  0  0  0  0
  1 12  1  0  0  0  0
  2  3  1  0  0  0  0
  3  4  2  0  0  0  0
  5  4  1  0  0  0  0
  5  6  1  0  0  0  0
  7  6  2  0  0  0  0
  7  8  1  0  0  0  0
  9  7  1  0  0  0  0
 10  9  1  0  0  0  0
 11 12  1  0  0  0  0
 11  9  2  0  0  0  0
 12  5  2  0  0  0  0
 13 18  1  0  0  0  0
 14 13  2  0  0  0  0
 14 15  1  0  0  0  0
 15 20  1  0  0  0  0
 15 16  2  0  0  0  0
 16 17  1  0  0  0  0
 17  1  1  0  0  0  0
 18 17  2  0  0  0  0
 19 13  1  0  0  0  0
 21 14  1  0  0  0  0
 22 21  1  0  0  0  0
 23 21  1  0  0  0  0
M  END
>  <minimizedAffinity>
-4.90225458

$$$$

 OpenBabel03272506563D

 23 25  0  0  0  0  0  0  0  0999 V2000
   38.3310   24.6530   33.9250 C   0  0  0  0  0  0  0  0  0  0  0  0
   38.3790   26.0010   33.9100 N   0  0  0  0  0  0  0  0  0  0  0  0
   37.6520   26.7750   33.1040 C   0  0  0  0  0  3  0  0  0  0  0  0
   36.7860   26.2650   32.2140 N   0  0  0  0  0  0  0  0  0  0  0  0
   36.6690   24.9300   32.1550 C   0  0  0  0  0  0  0  0  0  0  0  0
   35.7750   24.4310   31.2340 C   0  0  0  0  0  3  0  0  0  0  0  0
   35.6020   23.0780   31.1170 C   0  0  0  0  0  0  0  0  0  0  0  0
   34.8970   22.7200   30.3890 H   0  0  0  0  0  0  0  0  0  0  0  0
   36.3590   22.2550   31.9570 C   0  0  0  0  0  0  0  0  0  0  0  0
   36.1870   21.1870   31.8270 H   0  0  0  0  0  0  0  0  0  0  0  0
   37.2330   22.8200   32.8540 C   0  0  0  0  0  3  0  0  0  0  0  0
   37.4340   24.1570   33.0010 C   0  0  0  0  0  0  0  0  0  0  0  0
   39.1040   22.9990   37.0110 C   0  0  0  0  0  0  0  0  0  0  0  0
   40.2830   22.2850   36.8290 C   0  0  0  0  0  0  0  0  0  0  0  0
   40.8560   22.3770   35.5550 C   0  0  0  0  0  0  0  0  0  0  0  0
   40.2540   23.1250   34.6110 N   0  0  0  0  0  0  0  0  0  0  0  0
   39.1330   23.7940   34.8140 C   0  0  0  0  0  0  0  0  0  0  0  0
   38.5550   23.7280   36.0220 N   0  0  0  0  0  0  0  0  0  0  0  0
   38.6890   22.9060   38.0050 H   0  0  0  0  0  0  0  0  0  0  0  0
   41.7600   21.8690   35.3090 H   0  0  0  0  0  0  0  0  0  0  0  0
   40.8680   21.5180   37.8570 N   0  0  0  0  0  0  0  0  0  0  0  0
   40.9210   21.8100   38.8480 H   0  0  0  0  0  0  0  0  0  0  0  0
   41.3140   20.5730   37.7570 H   0  0  0  0  0  0  0  0  0  0  0  0
  1 17  1  0  0  0  0
  2  1  1  0  0  0  0
  3  2  2  0  0  0  0
  4  3  1  0  0  0  0
  5  4  2  0  0  0  0
  5 12  1  0  0  0  0
  6  5  1  0  0  0  0
  7  6  2  0  0  0  0
  7  9  1  0  0  0  0
  8  7  1  0  0  0  0
  9 11  2  0  0  0  0
 10  9  1  0  0  0  0
 11 12  1  0  0  0  0
 12  1  2  0  0  0  0
 13 19  1  0  0  0  0
 14 13  1  0  0  0  0
 14 21  1  0  0  0  0
 15 14  2  0  0  0  0
 16 17  2  0  0  0  0
 16 15  1  0  0  0  0
 17 18  1  0  0  0  0
 18 13  2  0  0  0  0
 20 15  1  0  0  0  0
 21 22  1  0  0  0  0
 23 21  1  0  0  0  0
M  END
>  <minimizedAffinity>
-4.86837101

$$$$

 OpenBabel03272506563D

 23 25  0  0  0  0  0  0  0  0999 V2000
   35.8510   28.8840   33.7760 C   0  0  0  0  0  0  0  0  0  0  0  0
   35.4130   28.7120   32.5120 N   0  0  0  0  0  0  0  0  0  0  0  0
   35.8860   27.7980   31.6650 C   0  0  0  0  0  3  0  0  0  0  0  0
   36.8660   26.9470   32.0070 N   0  0  0  0  0  0  0  0  0  0  0  0
   37.3680   27.0420   33.2470 C   0  0  0  0  0  0  0  0  0  0  0  0
   38.3730   26.1590   33.5730 C   0  0  0  0  0  3  0  0  0  0  0  0
   38.9340   26.1970   34.8210 C   0  0  0  0  0  0  0  0  0  0  0  0
   39.7160   25.4940   35.0450 H   0  0  0  0  0  0  0  0  0  0  0  0
   38.4470   27.1510   35.7200 C   0  0  0  0  0  0  0  0  0  0  0  0
   38.9240   27.1420   36.7000 H   0  0  0  0  0  0  0  0  0  0  0  0
   37.4410   28.0020   35.3280 C   0  0  0  0  0  3  0  0  0  0  0  0
   36.8590   27.9970   34.0990 C   0  0  0  0  0  0  0  0  0  0  0  0
   33.2970   30.5710   35.6430 C   0  0  0  0  0  0  0  0  0  0  0  0
   33.9050   31.5770   36.3860 C   0  0  0  0  0  0  0  0  0  0  0  0
   35.2920   31.6850   36.2360 C   0  0  0  0  0  0  0  0  0  0  0  0
   35.9380   30.8400   35.4110 N   0  0  0  0  0  0  0  0  0  0  0  0
   35.3320   29.8930   34.7170 C   0  0  0  0  0  0  0  0  0  0  0  0
   34.0030   29.7580   34.8350 N   0  0  0  0  0  0  0  0  0  0  0  0
   32.2270   30.5160   35.7820 H   0  0  0  0  0  0  0  0  0  0  0  0
   35.8560   32.4220   36.7590 H   0  0  0  0  0  0  0  0  0  0  0  0
   33.1760   32.4340   37.2340 N   0  0  0  0  0  0  0  0  0  0  0  0
   32.2510   32.8380   37.0050 H   0  0  0  0  0  0  0  0  0  0  0  0
   33.4650   32.7680   38.1860 H   0  0  0  0  0  0  0  0  0  0  0  0
  1 12  1  0  0  0  0
  1 17  1  0  0  0  0
  2  1  2  0  0  0  0
  3  4  2  0  0  0  0
  3  2  1  0  0  0  0
  4  5  1  0  0  0  0
  5  6  2  0  0  0  0
  5 12  1  0  0  0  0
  6  7  1  0  0  0  0
  7  8  1  0  0  0  0
  7  9  2  0  0  0  0
  9 10  1  0  0  0  0
 11  9  1  0  0  0  0
 12 11  2  0  0  0  0
 13 19  1  0  0  0  0
 13 14  1  0  0  0  0
 14 21  1  0  0  0  0
 15 14  2  0  0  0  0
 15 20  1  0  0  0  0
 16 15  1  0  0  0  0
 17 18  1  0  0  0  0
 17 16  2  0  0  0  0
 18 13  2  0  0  0  0
 21 23  1  0  0  0  0
 22 21  1  0  0  0  0
M  END
>  <minimizedAffinity>
-4.83888054

$$$$

 OpenBabel03272506563D

 23 25  0  0  0  0  0  0  0  0999 V2000
   38.6420   24.4170   35.7020 C   0  0  0  0  0  0  0  0  0  0  0  0
   37.7880   24.6230   36.7250 N   0  0  0  0  0  0  0  0  0  0  0  0
   37.8930   24.0530   37.9250 C   0  0  0  0  0  3  0  0  0  0  0  0
   38.8860   23.2030   38.2270 N   0  0  0  0  0  0  0  0  0  0  0  0
   39.7880   22.9340   37.2710 C   0  0  0  0  0  0  0  0  0  0  0  0
   40.7960   22.0580   37.6050 C   0  0  0  0  0  3  0  0  0  0  0  0
   41.7520   21.7360   36.6800 C   0  0  0  0  0  0  0  0  0  0  0  0
   42.5260   21.0500   36.9720 H   0  0  0  0  0  0  0  0  0  0  0  0
   41.6530   22.3270   35.4170 C   0  0  0  0  0  0  0  0  0  0  0  0
   42.4370   22.0410   34.7150 H   0  0  0  0  0  0  0  0  0  0  0  0
   40.6210   23.1930   35.1510 C   0  0  0  0  0  3  0  0  0  0  0  0
   39.6510   23.5380   36.0400 C   0  0  0  0  0  0  0  0  0  0  0  0
   37.4550   24.6870   32.3300 C   0  0  0  0  0  0  0  0  0  0  0  0
   38.0100   25.8340   31.7720 C   0  0  0  0  0  0  0  0  0  0  0  0
   38.8530   26.5680   32.6140 C   0  0  0  0  0  0  0  0  0  0  0  0
   39.0720   26.1400   33.8710 N   0  0  0  0  0  0  0  0  0  0  0  0
   38.5300   25.0440   34.3730 C   0  0  0  0  0  0  0  0  0  0  0  0
   37.7160   24.3150   33.5970 N   0  0  0  0  0  0  0  0  0  0  0  0
   36.8100   24.1440   31.6540 H   0  0  0  0  0  0  0  0  0  0  0  0
   39.3300   27.4630   32.2860 H   0  0  0  0  0  0  0  0  0  0  0  0
   37.7440   26.2340   30.4470 N   0  0  0  0  0  0  0  0  0  0  0  0
   37.6830   25.5870   29.6410 H   0  0  0  0  0  0  0  0  0  0  0  0
   37.5780   27.2130   30.1090 H   0  0  0  0  0  0  0  0  0  0  0  0
  1 12  2  0  0  0  0
  1  2  1  0  0  0  0
  2  3  2  0  0  0  0
  3  4  1  0  0  0  0
  5  6  1  0  0  0  0
  5  4  2  0  0  0  0
  7  8  1  0  0  0  0
  7  6  2  0  0  0  0
  9  7  1  0  0  0  0
 10  9  1  0  0  0  0
 11  9  2  0  0  0  0
 11 12  1  0  0  0  0
 12  5  1  0  0  0  0
 13 18  1  0  0  0  0
 14 13  2  0  0  0  0
 14 15  1  0  0  0  0
 15 16  2  0  0  0  0
 16 17  1  0  0  0  0
 17  1  1  0  0  0  0
 18 17  2  0  0  0  0
 19 13  1  0  0  0  0
 20 15  1  0  0  0  0
 21 14  1  0  0  0  0
 22 21  1  0  0  0  0
 23 21  1  0  0  0  0
M  END
>  <minimizedAffinity>
-4.76118898

$$$$

 OpenBabel03272506563D

 23 25  0  0  0  0  0  0  0  0999 V2000
   38.4280   25.2850   33.9290 C   0  0  0  0  0  0  0  0  0  0  0  0
   37.4770   25.0860   32.9940 N   0  0  0  0  0  0  0  0  0  0  0  0
   37.5260   25.5670   31.7520 C   0  0  0  0  0  3  0  0  0  0  0  0
   38.5530   26.3120   31.3140 N   0  0  0  0  0  0  0  0  0  0  0  0
   39.5490   26.5650   32.1750 C   0  0  0  0  0  0  0  0  0  0  0  0
   40.5900   27.3320   31.7020 C   0  0  0  0  0  3  0  0  0  0  0  0
   41.6430   27.6320   32.5250 C   0  0  0  0  0  0  0  0  0  0  0  0
   42.4410   28.2320   32.1260 H   0  0  0  0  0  0  0  0  0  0  0  0
   41.6050   27.1330   33.8310 C   0  0  0  0  0  0  0  0  0  0  0  0
   42.4640   27.3980   34.4470 H   0  0  0  0  0  0  0  0  0  0  0  0
   40.5340   26.3740   34.2370 C   0  0  0  0  0  3  0  0  0  0  0  0
   39.4700   26.0540   33.4520 C   0  0  0  0  0  0  0  0  0  0  0  0
   38.8990   22.7980   36.4690 C   0  0  0  0  0  0  0  0  0  0  0  0
   38.4820   23.3400   37.6800 C   0  0  0  0  0  0  0  0  0  0  0  0
   38.0050   24.6550   37.6220 C   0  0  0  0  0  0  0  0  0  0  0  0
   37.9770   25.2980   36.4400 N   0  0  0  0  0  0  0  0  0  0  0  0
   38.3800   24.7560   35.3040 C   0  0  0  0  0  0  0  0  0  0  0  0
   38.8440   23.4980   35.3200 N   0  0  0  0  0  0  0  0  0  0  0  0
   39.2610   21.7830   36.5500 H   0  0  0  0  0  0  0  0  0  0  0  0
   37.6610   25.1650   38.4920 H   0  0  0  0  0  0  0  0  0  0  0  0
   38.5350   22.6180   38.8890 N   0  0  0  0  0  0  0  0  0  0  0  0
   38.2910   21.6160   38.9830 H   0  0  0  0  0  0  0  0  0  0  0  0
   38.8200   22.9870   39.8280 H   0  0  0  0  0  0  0  0  0  0  0  0
  1 17  1  0  0  0  0
  2  1  2  0  0  0  0
  3  2  1  0  0  0  0
  4  3  2  0  0  0  0
  4  5  1  0  0  0  0
  5 12  1  0  0  0  0
  6  5  2  0  0  0  0
  6  7  1  0  0  0  0
  7  9  2  0  0  0  0
  8  7  1  0  0  0  0
  9 11  1  0  0  0  0
  9 10  1  0  0  0  0
 12  1  1  0  0  0  0
 12 11  2  0  0  0  0
 13 19  1  0  0  0  0
 13 14  1  0  0  0  0
 14 21  1  0  0  0  0
 15 14  2  0  0  0  0
 15 20  1  0  0  0  0
 16 15  1  0  0  0  0
 17 18  1  0  0  0  0
 17 16  2  0  0  0  0
 18 13  2  0  0  0  0
 21 22  1  0  0  0  0
 21 23  1  0  0  0  0
M  END
>  <minimizedAffinity>
-4.75610971

$$$$
