
 OpenBabel03272506563D

 23 25  0  0  0  0  0  0  0  0999 V2000
   33.3590   27.7560   47.0250 C   0  0  0  0  0  0  0  0  0  0  0  0
   32.8660   28.5330   46.0400 N   0  0  0  0  0  0  0  0  0  0  0  0
   33.0030   29.8580   45.9810 C   0  0  0  0  0  3  0  0  0  0  0  0
   33.6590   30.5500   46.9240 N   0  0  0  0  0  0  0  0  0  0  0  0
   34.1860   29.8620   47.9470 C   0  0  0  0  0  0  0  0  0  0  0  0
   34.8550   30.5950   48.9020 C   0  0  0  0  0  3  0  0  0  0  0  0
   35.4190   29.9610   49.9760 C   0  0  0  0  0  0  0  0  0  0  0  0
   35.9360   30.5610   50.7030 H   0  0  0  0  0  0  0  0  0  0  0  0
   35.2840   28.5710   50.0500 C   0  0  0  0  0  0  0  0  0  0  0  0
   35.7490   28.1120   50.9220 H   0  0  0  0  0  0  0  0  0  0  0  0
   34.6030   27.9020   49.0620 C   0  0  0  0  0  3  0  0  0  0  0  0
   34.0290   28.4940   47.9800 C   0  0  0  0  0  0  0  0  0  0  0  0
   34.2780   24.3620   46.3200 C   0  0  0  0  0  0  0  0  0  0  0  0
   33.3510   23.5310   46.9400 C   0  0  0  0  0  0  0  0  0  0  0  0
   32.3360   24.1820   47.6510 C   0  0  0  0  0  0  0  0  0  0  0  0
   32.3150   25.5270   47.6950 N   0  0  0  0  0  0  0  0  0  0  0  0
   33.2110   26.2910   47.0950 C   0  0  0  0  0  0  0  0  0  0  0  0
   34.1980   25.7040   46.4050 N   0  0  0  0  0  0  0  0  0  0  0  0
   35.0470   23.8280   45.7800 H   0  0  0  0  0  0  0  0  0  0  0  0
   31.5750   23.6390   48.1630 H   0  0  0  0  0  0  0  0  0  0  0  0
   33.4240   22.1260   46.8590 N   0  0  0  0  0  0  0  0  0  0  0  0
   33.6760   21.6010   46.0030 H   0  0  0  0  0  0  0  0  0  0  0  0
   33.2390   21.4430   47.6330 H   0  0  0  0  0  0  0  0  0  0  0  0
  1 17  1  0  0  0  0
  1 12  1  0  0  0  0
  2  1  2  0  0  0  0
  3  2  1  0  0  0  0
  3  4  2  0  0  0  0
  4  5  1  0  0  0  0
  5 12  2  0  0  0  0
  5  6  1  0  0  0  0
  6  7  2  0  0  0  0
  7  9  1  0  0  0  0
  7  8  1  0  0  0  0
  9 10  1  0  0  0  0
 11  9  2  0  0  0  0
 12 11  1  0  0  0  0
 13 18  2  0  0  0  0
 13 14  1  0  0  0  0
 14 15  2  0  0  0  0
 15 16  1  0  0  0  0
 15 20  1  0  0  0  0
 17 16  2  0  0  0  0
 18 17  1  0  0  0  0
 19 13  1  0  0  0  0
 21 14  1  0  0  0  0
 21 23  1  0  0  0  0
 22 21  1  0  0  0  0
M  END
>  <minimizedAffinity>
-3.85638261

>  <minimizedRMSD>
5.91766357

$$$$
