
 OpenBabel03262521003D

 38 41  0  0  1  0  0  0  0  0999 V2000
   36.6370   29.6910   31.1210 C   0  0  0  0  0  0  0  0  0  0  0  0
   37.2320   28.5230   31.5750 C   0  0  0  0  0  0  0  0  0  0  0  0
   36.6610   27.8240   32.5930 C   0  0  0  0  0  0  0  0  0  0  0  0
   35.5140   28.3660   33.0850 N   0  0  0  0  0  0  0  0  0  0  0  0
   34.9510   29.4820   32.6490 C   0  0  0  0  0  0  0  0  0  0  0  0
   35.5280   30.1290   31.6660 N   0  0  0  0  0  0  0  0  0  0  0  0
   37.0250   30.3020   30.3230 H   0  0  0  0  0  0  0  0  0  0  0  0
   38.1440   28.1740   31.1230 H   0  0  0  0  0  0  0  0  0  0  0  0
   33.7730   29.5060   33.5060 C   0  0  2  0  0  3  0  0  0  0  0  0
   32.8040   29.5280   34.2130 N   0  0  0  0  0  2  0  0  0  0  0  0
   31.7530   29.4740   34.8590 C   0  0  0  0  0  2  0  0  0  0  0  0
   32.2310   30.2860   35.7950 N   0  0  0  0  0  2  0  0  0  0  0  0
   33.4980   30.7780   35.6830 C   0  0  0  0  0  0  0  0  0  0  0  0
   33.8520   31.6200   36.7760 C   0  0  0  0  0  3  0  0  0  0  0  0
   35.1080   32.1320   36.7320 C   0  0  0  0  0  0  0  0  0  0  0  0
   35.3370   32.7540   37.5600 H   0  0  0  0  0  0  0  0  0  0  0  0
   36.0240   31.9020   35.7470 C   0  0  0  0  0  0  0  0  0  0  0  0
   37.0020   32.2910   35.7020 H   0  0  0  0  0  0  0  0  0  0  0  0
   35.5120   31.0590   34.7600 C   0  0  0  0  0  3  0  0  0  0  0  0
   34.2670   30.3920   34.5450 C   0  0  0  0  0  0  0  0  0  0  0  0
   37.3090   26.3170   33.2710 S   0  0  0  0  0  0  0  0  0  0  0  0
   37.6590   25.4630   35.8140 N   0  0  0  0  0  0  0  0  0  0  0  0
   37.8510   26.6010   34.9930 C   0  0  1  0  0  0  0  0  0  0  0  0
   39.3220   26.9330   34.9010 C   0  0  0  0  0  0  0  0  0  0  0  0
   39.9990   25.7860   34.3230 N   0  0  0  0  0  0  0  0  0  0  0  0
   39.9180   24.7360   35.3660 C   0  0  0  0  0  0  0  0  0  0  0  0
   38.4530   24.3360   35.4300 C   0  0  2  0  0  0  0  0  0  0  0  0
   36.7420   25.2870   36.2030 H   0  0  0  0  0  0  0  0  0  0  0  0
   37.2810   27.4670   35.3850 H   0  0  0  0  0  0  0  0  0  0  0  0
   39.4160   27.8320   34.2600 H   0  0  0  0  0  0  0  0  0  0  0  0
   39.6900   27.1430   35.9430 H   0  0  0  0  0  0  0  0  0  0  0  0
   40.9870   26.0360   34.1360 H   0  0  0  0  0  0  0  0  0  0  0  0
   40.5830   23.9170   35.0570 H   0  0  0  0  0  0  0  0  0  0  0  0
   40.2040   25.1510   36.3470 H   0  0  0  0  0  0  0  0  0  0  0  0
   38.3150   23.5570   36.2040 H   0  0  0  0  0  0  0  0  0  0  0  0
   38.0860   23.7560   34.1540 N   0  0  0  0  0  0  0  0  0  0  0  0
   38.3280   22.7310   34.2440 H   0  0  0  0  0  0  0  0  0  0  0  0
   37.0520   23.8580   33.9740 H   0  0  0  0  0  0  0  0  0  0  0  0
  1  2  2  0  0  0  0
  1  6  1  0  0  0  0
  2  3  1  0  0  0  0
  3  4  2  0  0  0  0
  3 21  1  0  0  0  0
  5  4  1  0  0  0  0
  6  5  2  0  0  0  0
  7  1  1  0  0  0  0
  8  2  1  0  0  0  0
  9  5  1  6  0  0  0
  9 10  1  0  0  0  0
  9 20  1  0  0  0  0
 10 11  1  0  0  0  0
 11 12  1  0  0  0  0
 13 12  1  0  0  0  0
 13 14  1  0  0  0  0
 15 14  2  0  0  0  0
 15 16  1  0  0  0  0
 17 15  1  0  0  0  0
 18 17  1  0  0  0  0
 19 17  2  0  0  0  0
 20 19  1  0  0  0  0
 20 13  2  0  0  0  0
 21 23  1  0  0  0  0
 22 28  1  0  0  0  0
 23 29  1  1  0  0  0
 23 22  1  0  0  0  0
 24 23  1  0  0  0  0
 24 31  1  0  0  0  0
 25 24  1  0  0  0  0
 25 26  1  0  0  0  0
 26 27  1  0  0  0  0
 26 34  1  0  0  0  0
 27 22  1  0  0  0  0
 27 35  1  1  0  0  0
 30 24  1  0  0  0  0
 32 25  1  0  0  0  0
 33 26  1  0  0  0  0
 36 37  1  0  0  0  0
 36 27  1  0  0  0  0
 38 36  1  0  0  0  0
M  END
>  <minimizedAffinity>
-5.73913002

$$$$

 OpenBabel03262521003D

 38 41  0  0  1  0  0  0  0  0999 V2000
   35.1790   25.9200   30.9360 C   0  0  0  0  0  0  0  0  0  0  0  0
   34.8710   24.5680   30.9850 C   0  0  0  0  0  0  0  0  0  0  0  0
   35.8460   23.6610   31.2610 C   0  0  0  0  0  0  0  0  0  0  0  0
   37.0800   24.1950   31.4700 N   0  0  0  0  0  0  0  0  0  0  0  0
   37.3680   25.4860   31.4220 C   0  0  0  0  0  0  0  0  0  0  0  0
   36.4030   26.3320   31.1530 N   0  0  0  0  0  0  0  0  0  0  0  0
   34.4670   26.6990   30.7230 H   0  0  0  0  0  0  0  0  0  0  0  0
   33.8620   24.2400   30.8020 H   0  0  0  0  0  0  0  0  0  0  0  0
   38.7830   25.4280   31.7670 C   0  0  1  0  0  3  0  0  0  0  0  0
   39.9470   25.3820   32.0530 N   0  0  0  0  0  2  0  0  0  0  0  0
   41.1640   25.2810   32.2370 C   0  0  0  0  0  2  0  0  0  0  0  0
   41.0770   25.8380   33.4390 N   0  0  0  0  0  2  0  0  0  0  0  0
   39.8630   26.2360   33.9150 C   0  0  0  0  0  0  0  0  0  0  0  0
   39.9530   26.8210   35.2110 C   0  0  0  0  0  3  0  0  0  0  0  0
   38.7780   27.2530   35.7360 C   0  0  0  0  0  0  0  0  0  0  0  0
   38.8820   27.6810   36.7010 H   0  0  0  0  0  0  0  0  0  0  0  0
   37.5590   27.1680   35.1290 C   0  0  0  0  0  0  0  0  0  0  0  0
   36.6410   27.5010   35.5240 H   0  0  0  0  0  0  0  0  0  0  0  0
   37.6540   26.5700   33.8720 C   0  0  0  0  0  3  0  0  0  0  0  0
   38.7190   26.0330   33.0850 C   0  0  0  0  0  0  0  0  0  0  0  0
   35.5960   21.9070   31.3590 S   0  0  0  0  0  0  0  0  0  0  0  0
   35.7920   20.3200   33.5420 N   0  0  0  0  0  0  0  0  0  0  0  0
   36.5510   21.2260   32.7610 C   0  0  1  0  0  0  0  0  0  0  0  0
   37.7290   20.5160   32.1380 C   0  0  0  0  0  0  0  0  0  0  0  0
   37.2090   19.4530   31.2950 N   0  0  0  0  0  0  0  0  0  0  0  0
   36.6380   18.4670   32.2440 C   0  0  0  0  0  0  0  0  0  0  0  0
   35.4080   19.1360   32.8370 C   0  0  2  0  0  0  0  0  0  0  0  0
   35.1560   20.6850   34.2390 H   0  0  0  0  0  0  0  0  0  0  0  0
   36.8940   22.0810   33.3780 H   0  0  0  0  0  0  0  0  0  0  0  0
   38.2920   21.2680   31.5500 H   0  0  0  0  0  0  0  0  0  0  0  0
   38.3600   20.1050   32.9730 H   0  0  0  0  0  0  0  0  0  0  0  0
   37.9910   19.0320   30.7620 H   0  0  0  0  0  0  0  0  0  0  0  0
   36.4090   17.5580   31.6700 H   0  0  0  0  0  0  0  0  0  0  0  0
   37.3500   18.2700   33.0630 H   0  0  0  0  0  0  0  0  0  0  0  0
   34.9330   18.4550   33.5690 H   0  0  0  0  0  0  0  0  0  0  0  0
   34.4570   19.3610   31.7680 N   0  0  0  0  0  0  0  0  0  0  0  0
   33.8940   18.4680   31.7130 H   0  0  0  0  0  0  0  0  0  0  0  0
   33.8140   20.1660   31.9940 H   0  0  0  0  0  0  0  0  0  0  0  0
  1  2  2  0  0  0  0
  1  6  1  0  0  0  0
  2  3  1  0  0  0  0
  3 21  1  0  0  0  0
  3  4  2  0  0  0  0
  5  4  1  0  0  0  0
  6  5  2  0  0  0  0
  7  1  1  0  0  0  0
  8  2  1  0  0  0  0
  9  5  1  6  0  0  0
  9 10  1  0  0  0  0
  9 20  1  0  0  0  0
 10 11  1  0  0  0  0
 11 12  1  0  0  0  0
 12 13  1  0  0  0  0
 13 14  1  0  0  0  0
 14 15  2  0  0  0  0
 15 16  1  0  0  0  0
 17 18  1  0  0  0  0
 17 15  1  0  0  0  0
 19 17  2  0  0  0  0
 20 19  1  0  0  0  0
 20 13  2  0  0  0  0
 21 23  1  0  0  0  0
 22 28  1  0  0  0  0
 23 29  1  1  0  0  0
 23 22  1  0  0  0  0
 24 23  1  0  0  0  0
 24 31  1  0  0  0  0
 25 24  1  0  0  0  0
 25 26  1  0  0  0  0
 26 27  1  0  0  0  0
 26 34  1  0  0  0  0
 27 22  1  0  0  0  0
 27 35  1  1  0  0  0
 30 24  1  0  0  0  0
 32 25  1  0  0  0  0
 33 26  1  0  0  0  0
 36 38  1  0  0  0  0
 36 27  1  0  0  0  0
 37 36  1  0  0  0  0
M  END
>  <minimizedAffinity>
-5.70910597

$$$$

 OpenBabel03262521003D

 38 41  0  0  1  0  0  0  0  0999 V2000
   36.7330   21.8850   31.5440 C   0  0  0  0  0  0  0  0  0  0  0  0
   37.4820   21.4950   32.6440 C   0  0  0  0  0  0  0  0  0  0  0  0
   37.9250   22.4290   33.5280 C   0  0  0  0  0  0  0  0  0  0  0  0
   37.5720   23.7100   33.2300 N   0  0  0  0  0  0  0  0  0  0  0  0
   36.8570   24.0760   32.1780 C   0  0  0  0  0  0  0  0  0  0  0  0
   36.4470   23.1490   31.3470 N   0  0  0  0  0  0  0  0  0  0  0  0
   36.3470   21.2100   30.7990 H   0  0  0  0  0  0  0  0  0  0  0  0
   37.7140   20.4550   32.7940 H   0  0  0  0  0  0  0  0  0  0  0  0
   36.7780   25.5100   32.4310 C   0  0  2  0  0  3  0  0  0  0  0  0
   36.7130   26.6890   32.6380 N   0  0  0  0  0  2  0  0  0  0  0  0
   36.5630   27.8780   32.9380 C   0  0  0  0  0  2  0  0  0  0  0  0
   37.4550   28.2680   32.0340 N   0  0  0  0  0  2  0  0  0  0  0  0
   38.0820   27.3400   31.2560 C   0  0  0  0  0  0  0  0  0  0  0  0
   39.0130   27.9290   30.3530 C   0  0  0  0  0  3  0  0  0  0  0  0
   39.6830   27.0560   29.5590 C   0  0  0  0  0  0  0  0  0  0  0  0
   40.3650   27.5280   28.8980 H   0  0  0  0  0  0  0  0  0  0  0  0
   39.5330   25.6990   29.5670 C   0  0  0  0  0  0  0  0  0  0  0  0
   40.0470   25.0110   28.9580 H   0  0  0  0  0  0  0  0  0  0  0  0
   38.5850   25.2960   30.5080 C   0  0  0  0  0  3  0  0  0  0  0  0
   37.7470   25.9660   31.4520 C   0  0  0  0  0  0  0  0  0  0  0  0
   38.8870   22.0740   34.9750 S   0  0  0  0  0  0  0  0  0  0  0  0
   38.3410   24.3510   36.3310 N   0  0  0  0  0  0  0  0  0  0  0  0
   39.4210   23.6380   35.7580 C   0  0  1  0  0  0  0  0  0  0  0  0
   40.4050   23.2350   36.8300 C   0  0  0  0  0  0  0  0  0  0  0  0
   39.7030   22.3890   37.7800 N   0  0  0  0  0  0  0  0  0  0  0  0
   38.7560   23.3000   38.4650 C   0  0  0  0  0  0  0  0  0  0  0  0
   37.7140   23.6690   37.4210 C   0  0  2  0  0  0  0  0  0  0  0  0
   37.7600   24.9270   35.7340 H   0  0  0  0  0  0  0  0  0  0  0  0
   39.9230   24.2470   34.9790 H   0  0  0  0  0  0  0  0  0  0  0  0
   41.2320   22.6920   36.3300 H   0  0  0  0  0  0  0  0  0  0  0  0
   40.7810   24.1750   37.3190 H   0  0  0  0  0  0  0  0  0  0  0  0
   40.3860   22.0000   38.4550 H   0  0  0  0  0  0  0  0  0  0  0  0
   38.3420   22.7540   39.3240 H   0  0  0  0  0  0  0  0  0  0  0  0
   39.2730   24.2240   38.7750 H   0  0  0  0  0  0  0  0  0  0  0  0
   36.9750   24.3620   37.8640 H   0  0  0  0  0  0  0  0  0  0  0  0
   37.0090   22.4610   37.0420 N   0  0  0  0  0  0  0  0  0  0  0  0
   36.2200   22.3790   37.7400 H   0  0  0  0  0  0  0  0  0  0  0  0
   36.6080   22.5450   36.0690 H   0  0  0  0  0  0  0  0  0  0  0  0
  1  2  1  0  0  0  0
  2  8  1  0  0  0  0
  2  3  2  0  0  0  0
  3 21  1  0  0  0  0
  4  3  1  0  0  0  0
  5  4  2  0  0  0  0
  6  1  2  0  0  0  0
  6  5  1  0  0  0  0
  7  1  1  0  0  0  0
  9  5  1  6  0  0  0
  9 10  1  0  0  0  0
 10 11  1  0  0  0  0
 12 11  1  0  0  0  0
 13 20  1  0  0  0  0
 13 12  1  0  0  0  0
 14 13  2  0  0  0  0
 15 17  2  0  0  0  0
 15 14  1  0  0  0  0
 16 15  1  0  0  0  0
 17 19  1  0  0  0  0
 18 17  1  0  0  0  0
 19 20  2  0  0  0  0
 20  9  1  0  0  0  0
 21 23  1  0  0  0  0
 22 27  1  0  0  0  0
 23 29  1  6  0  0  0
 23 22  1  0  0  0  0
 23 24  1  0  0  0  0
 24 31  1  0  0  0  0
 24 25  1  0  0  0  0
 25 32  1  0  0  0  0
 25 26  1  0  0  0  0
 26 34  1  0  0  0  0
 26 33  1  0  0  0  0
 27 35  1  1  0  0  0
 27 26  1  0  0  0  0
 28 22  1  0  0  0  0
 30 24  1  0  0  0  0
 36 27  1  0  0  0  0
 36 37  1  0  0  0  0
 38 36  1  0  0  0  0
M  END
>  <minimizedAffinity>
-5.69872856

$$$$

 OpenBabel03262521003D

 38 41  0  0  1  0  0  0  0  0999 V2000
   35.5220   20.8480   32.8740 C   0  0  0  0  0  0  0  0  0  0  0  0
   35.2120   21.9960   32.1600 C   0  0  0  0  0  0  0  0  0  0  0  0
   36.1430   22.9770   32.0190 C   0  0  0  0  0  0  0  0  0  0  0  0
   37.3370   22.7230   32.6200 N   0  0  0  0  0  0  0  0  0  0  0  0
   37.6270   21.6250   33.3010 C   0  0  0  0  0  0  0  0  0  0  0  0
   36.7060   20.6990   33.4160 N   0  0  0  0  0  0  0  0  0  0  0  0
   34.8430   20.0270   33.0320 H   0  0  0  0  0  0  0  0  0  0  0  0
   34.2360   22.1080   31.7220 H   0  0  0  0  0  0  0  0  0  0  0  0
   39.0150   21.9140   33.6400 C   0  0  2  0  0  3  0  0  0  0  0  0
   40.1570   22.1520   33.9200 N   0  0  0  0  0  2  0  0  0  0  0  0
   41.3610   22.3610   34.0940 C   0  0  0  0  0  2  0  0  0  0  0  0
   41.1590   22.7710   35.3410 N   0  0  0  0  0  2  0  0  0  0  0  0
   39.8940   22.7930   35.8500 C   0  0  0  0  0  0  0  0  0  0  0  0
   39.8570   23.2700   37.1920 C   0  0  0  0  0  3  0  0  0  0  0  0
   38.6230   23.3310   37.7530 C   0  0  0  0  0  0  0  0  0  0  0  0
   38.6330   23.6880   38.7520 H   0  0  0  0  0  0  0  0  0  0  0  0
   37.4550   22.9790   37.1410 C   0  0  0  0  0  0  0  0  0  0  0  0
   36.4910   23.0230   37.5640 H   0  0  0  0  0  0  0  0  0  0  0  0
   37.6750   22.5360   35.8360 C   0  0  0  0  0  3  0  0  0  0  0  0
   38.8250   22.3670   35.0050 C   0  0  0  0  0  0  0  0  0  0  0  0
   35.8860   24.4930   31.1330 S   0  0  0  0  0  0  0  0  0  0  0  0
   37.8830   25.9860   32.1850 N   0  0  0  0  0  0  0  0  0  0  0  0
   36.4700   25.9020   32.1420 C   0  0  1  0  0  0  0  0  0  0  0  0
   35.8960   27.1330   31.4820 C   0  0  0  0  0  0  0  0  0  0  0  0
   36.4290   27.2010   30.1320 N   0  0  0  0  0  0  0  0  0  0  0  0
   37.8680   27.5090   30.3120 C   0  0  0  0  0  0  0  0  0  0  0  0
   38.4830   26.2560   30.9150 C   0  0  2  0  0  0  0  0  0  0  0  0
   38.3900   25.3970   32.8340 H   0  0  0  0  0  0  0  0  0  0  0  0
   36.0540   25.7770   33.1610 H   0  0  0  0  0  0  0  0  0  0  0  0
   34.7940   27.0220   31.4820 H   0  0  0  0  0  0  0  0  0  0  0  0
   36.2100   28.0240   32.0910 H   0  0  0  0  0  0  0  0  0  0  0  0
   35.9560   27.9660   29.6200 H   0  0  0  0  0  0  0  0  0  0  0  0
   38.2730   27.7640   29.3220 H   0  0  0  0  0  0  0  0  0  0  0  0
   37.9930   28.3340   31.0330 H   0  0  0  0  0  0  0  0  0  0  0  0
   39.5630   26.4200   31.0880 H   0  0  0  0  0  0  0  0  0  0  0  0
   38.3520   25.1810   29.9530 N   0  0  0  0  0  0  0  0  0  0  0  0
   39.2110   25.2590   29.3430 H   0  0  0  0  0  0  0  0  0  0  0  0
   38.3470   24.2410   30.4320 H   0  0  0  0  0  0  0  0  0  0  0  0
  1  7  1  0  0  0  0
  1  6  1  0  0  0  0
  2  1  2  0  0  0  0
  3  2  1  0  0  0  0
  3  4  2  0  0  0  0
  4  5  1  0  0  0  0
  5  6  2  0  0  0  0
  8  2  1  0  0  0  0
  9  5  1  1  0  0  0
  9 10  1  0  0  0  0
  9 20  1  0  0  0  0
 10 11  1  0  0  0  0
 11 12  1  0  0  0  0
 12 13  1  0  0  0  0
 13 14  1  0  0  0  0
 14 15  2  0  0  0  0
 15 16  1  0  0  0  0
 17 18  1  0  0  0  0
 17 15  1  0  0  0  0
 19 17  2  0  0  0  0
 20 19  1  0  0  0  0
 20 13  2  0  0  0  0
 21  3  1  0  0  0  0
 21 23  1  0  0  0  0
 22 28  1  0  0  0  0
 23 22  1  0  0  0  0
 23 29  1  1  0  0  0
 24 31  1  0  0  0  0
 24 23  1  0  0  0  0
 25 26  1  0  0  0  0
 25 24  1  0  0  0  0
 26 27  1  0  0  0  0
 26 34  1  0  0  0  0
 27 35  1  1  0  0  0
 27 22  1  0  0  0  0
 30 24  1  0  0  0  0
 32 25  1  0  0  0  0
 33 26  1  0  0  0  0
 36 38  1  0  0  0  0
 36 27  1  0  0  0  0
 37 36  1  0  0  0  0
M  END
>  <minimizedAffinity>
-5.64691401

$$$$

 OpenBabel03262521003D

 38 41  0  0  1  0  0  0  0  0999 V2000
   35.9090   30.0230   30.9930 C   0  0  0  0  0  0  0  0  0  0  0  0
   35.2750   30.5280   32.1180 C   0  0  0  0  0  0  0  0  0  0  0  0
   35.4580   29.9290   33.3250 C   0  0  0  0  0  0  0  0  0  0  0  0
   36.2820   28.8460   33.3050 N   0  0  0  0  0  0  0  0  0  0  0  0
   36.8850   28.3680   32.2280 C   0  0  0  0  0  0  0  0  0  0  0  0
   36.6860   28.9710   31.0810 N   0  0  0  0  0  0  0  0  0  0  0  0
   35.8160   30.4380   30.0030 H   0  0  0  0  0  0  0  0  0  0  0  0
   34.6370   31.3910   32.0330 H   0  0  0  0  0  0  0  0  0  0  0  0
   37.6350   27.2770   32.8380 C   0  0  2  0  0  3  0  0  0  0  0  0
   38.2520   26.3780   33.3390 N   0  0  0  0  0  2  0  0  0  0  0  0
   38.9570   25.5400   33.9080 C   0  0  0  0  0  2  0  0  0  0  0  0
   38.2640   24.5330   33.3870 N   0  0  0  0  0  2  0  0  0  0  0  0
   37.2120   24.7920   32.5590 C   0  0  0  0  0  0  0  0  0  0  0  0
   36.5750   23.6020   32.1020 C   0  0  0  0  0  3  0  0  0  0  0  0
   35.5090   23.7920   31.2840 C   0  0  0  0  0  0  0  0  0  0  0  0
   35.0610   22.8860   30.9620 H   0  0  0  0  0  0  0  0  0  0  0  0
   35.0210   25.0020   30.8840 C   0  0  0  0  0  0  0  0  0  0  0  0
   34.1940   25.1630   30.2510 H   0  0  0  0  0  0  0  0  0  0  0  0
   35.7610   26.0550   31.4220 C   0  0  0  0  0  3  0  0  0  0  0  0
   36.8970   26.1570   32.2840 C   0  0  0  0  0  0  0  0  0  0  0  0
   34.7140   30.4660   34.8430 S   0  0  0  0  0  0  0  0  0  0  0  0
   33.4170   32.8290   35.0800 N   0  0  0  0  0  0  0  0  0  0  0  0
   34.7170   32.2930   34.9170 C   0  0  1  0  0  0  0  0  0  0  0  0
   35.5770   32.6450   36.1080 C   0  0  0  0  0  0  0  0  0  0  0  0
   34.9510   32.0760   37.2890 N   0  0  0  0  0  0  0  0  0  0  0  0
   33.7120   32.8680   37.4760 C   0  0  0  0  0  0  0  0  0  0  0  0
   32.8010   32.4790   36.3220 C   0  0  2  0  0  0  0  0  0  0  0  0
   32.8220   32.9300   34.2670 H   0  0  0  0  0  0  0  0  0  0  0  0
   35.1800   32.6640   33.9810 H   0  0  0  0  0  0  0  0  0  0  0  0
   36.5810   32.2140   35.9270 H   0  0  0  0  0  0  0  0  0  0  0  0
   35.6280   33.7670   36.1720 H   0  0  0  0  0  0  0  0  0  0  0  0
   35.5850   32.1980   38.0990 H   0  0  0  0  0  0  0  0  0  0  0  0
   33.3050   32.6080   38.4630 H   0  0  0  0  0  0  0  0  0  0  0  0
   33.9320   33.9450   37.3920 H   0  0  0  0  0  0  0  0  0  0  0  0
   31.8530   33.0450   36.3920 H   0  0  0  0  0  0  0  0  0  0  0  0
   32.4810   31.0720   36.4540 N   0  0  0  0  0  0  0  0  0  0  0  0
   31.6300   31.0460   37.0800 H   0  0  0  0  0  0  0  0  0  0  0  0
   32.2400   30.6490   35.5180 H   0  0  0  0  0  0  0  0  0  0  0  0
  1  6  2  0  0  0  0
  1  2  1  0  0  0  0
  2  3  2  0  0  0  0
  3 21  1  0  0  0  0
  4  3  1  0  0  0  0
  5  4  2  0  0  0  0
  6  5  1  0  0  0  0
  7  1  1  0  0  0  0
  8  2  1  0  0  0  0
  9  5  1  6  0  0  0
  9 10  1  0  0  0  0
 10 11  1  0  0  0  0
 12 11  1  0  0  0  0
 13 12  1  0  0  0  0
 14 13  2  0  0  0  0
 15 14  1  0  0  0  0
 16 15  1  0  0  0  0
 17 15  2  0  0  0  0
 17 19  1  0  0  0  0
 18 17  1  0  0  0  0
 19 20  2  0  0  0  0
 20 13  1  0  0  0  0
 20  9  1  0  0  0  0
 21 23  1  0  0  0  0
 22 27  1  0  0  0  0
 23 29  1  6  0  0  0
 23 22  1  0  0  0  0
 23 24  1  0  0  0  0
 24 31  1  0  0  0  0
 24 25  1  0  0  0  0
 25 26  1  0  0  0  0
 25 32  1  0  0  0  0
 26 33  1  0  0  0  0
 27 35  1  1  0  0  0
 27 36  1  0  0  0  0
 27 26  1  0  0  0  0
 28 22  1  0  0  0  0
 30 24  1  0  0  0  0
 34 26  1  0  0  0  0
 36 37  1  0  0  0  0
 38 36  1  0  0  0  0
M  END
>  <minimizedAffinity>
-5.62247658

$$$$

 OpenBabel03262521003D

 38 41  0  0  1  0  0  0  0  0999 V2000
   35.8580   22.5340   31.6800 C   0  0  0  0  0  0  0  0  0  0  0  0
   36.4700   22.1110   32.8500 C   0  0  0  0  0  0  0  0  0  0  0  0
   37.6730   22.6330   33.2120 C   0  0  0  0  0  0  0  0  0  0  0  0
   38.1750   23.5600   32.3510 N   0  0  0  0  0  0  0  0  0  0  0  0
   37.5870   23.9600   31.2360 C   0  0  0  0  0  0  0  0  0  0  0  0
   36.4280   23.4350   30.9180 N   0  0  0  0  0  0  0  0  0  0  0  0
   34.9090   22.1700   31.3230 H   0  0  0  0  0  0  0  0  0  0  0  0
   35.9950   21.3680   33.4660 H   0  0  0  0  0  0  0  0  0  0  0  0
   38.5550   24.9580   30.7990 C   0  0  1  0  0  3  0  0  0  0  0  0
   39.3510   25.7800   30.4390 N   0  0  0  0  0  2  0  0  0  0  0  0
   40.2470   26.5330   30.0450 C   0  0  0  0  0  2  0  0  0  0  0  0
   39.5050   27.6110   30.2690 N   0  0  0  0  0  2  0  0  0  0  0  0
   38.2440   27.4750   30.7700 C   0  0  0  0  0  0  0  0  0  0  0  0
   37.5880   28.7280   30.9380 C   0  0  0  0  0  3  0  0  0  0  0  0
   36.3210   28.6600   31.4200 C   0  0  0  0  0  0  0  0  0  0  0  0
   35.8640   29.6100   31.5340 H   0  0  0  0  0  0  0  0  0  0  0  0
   35.6550   27.5130   31.7420 C   0  0  0  0  0  0  0  0  0  0  0  0
   34.6720   27.4460   32.1150 H   0  0  0  0  0  0  0  0  0  0  0  0
   36.4440   26.3840   31.5170 C   0  0  0  0  0  3  0  0  0  0  0  0
   37.7690   26.1550   31.0340 C   0  0  0  0  0  0  0  0  0  0  0  0
   38.5670   22.1880   34.6790 S   0  0  0  0  0  0  0  0  0  0  0  0
   38.2650   24.3750   36.2430 N   0  0  0  0  0  0  0  0  0  0  0  0
   39.2370   23.6930   35.4720 C   0  0  1  0  0  0  0  0  0  0  0  0
   40.3610   23.2130   36.3590 C   0  0  0  0  0  0  0  0  0  0  0  0
   39.7910   22.3120   37.3460 N   0  0  0  0  0  0  0  0  0  0  0  0
   38.9710   23.1830   38.2210 C   0  0  0  0  0  0  0  0  0  0  0  0
   37.7940   23.6270   37.3680 C   0  0  2  0  0  0  0  0  0  0  0  0
   37.6130   24.9930   35.7760 H   0  0  0  0  0  0  0  0  0  0  0  0
   39.6290   24.3480   34.6680 H   0  0  0  0  0  0  0  0  0  0  0  0
   41.0950   22.6980   35.7080 H   0  0  0  0  0  0  0  0  0  0  0  0
   40.8200   24.1170   36.8460 H   0  0  0  0  0  0  0  0  0  0  0  0
   40.5590   21.8750   37.8870 H   0  0  0  0  0  0  0  0  0  0  0  0
   38.6790   22.5850   39.0950 H   0  0  0  0  0  0  0  0  0  0  0  0
   39.5440   24.0810   38.5090 H   0  0  0  0  0  0  0  0  0  0  0  0
   37.1390   24.2960   37.9580 H   0  0  0  0  0  0  0  0  0  0  0  0
   37.0200   22.4530   37.0200 N   0  0  0  0  0  0  0  0  0  0  0  0
   36.3410   22.3300   37.8210 H   0  0  0  0  0  0  0  0  0  0  0  0
   36.4820   22.6030   36.1250 H   0  0  0  0  0  0  0  0  0  0  0  0
  1  2  1  0  0  0  0
  2  3  2  0  0  0  0
  2  8  1  0  0  0  0
  3 21  1  0  0  0  0
  4  3  1  0  0  0  0
  5  4  2  0  0  0  0
  6  5  1  0  0  0  0
  6  1  2  0  0  0  0
  7  1  1  0  0  0  0
  9 20  1  0  0  0  0
  9  5  1  6  0  0  0
 10  9  1  0  0  0  0
 11 12  1  0  0  0  0
 11 10  1  0  0  0  0
 12 13  1  0  0  0  0
 13 14  2  0  0  0  0
 13 20  1  0  0  0  0
 14 15  1  0  0  0  0
 15 16  1  0  0  0  0
 15 17  2  0  0  0  0
 17 18  1  0  0  0  0
 19 17  1  0  0  0  0
 20 19  2  0  0  0  0
 21 23  1  0  0  0  0
 22 27  1  0  0  0  0
 23 29  1  6  0  0  0
 23 22  1  0  0  0  0
 23 24  1  0  0  0  0
 24 31  1  0  0  0  0
 24 25  1  0  0  0  0
 25 32  1  0  0  0  0
 25 26  1  0  0  0  0
 26 34  1  0  0  0  0
 26 33  1  0  0  0  0
 27 35  1  1  0  0  0
 27 26  1  0  0  0  0
 28 22  1  0  0  0  0
 30 24  1  0  0  0  0
 36 27  1  0  0  0  0
 36 37  1  0  0  0  0
 38 36  1  0  0  0  0
M  END
>  <minimizedAffinity>
-5.56662798

$$$$

 OpenBabel03262521003D

 38 41  0  0  1  0  0  0  0  0999 V2000
   36.3490   30.3760   30.9220 C   0  0  0  0  0  0  0  0  0  0  0  0
   36.6050   29.0230   30.7540 C   0  0  0  0  0  0  0  0  0  0  0  0
   35.8760   28.1060   31.4440 C   0  0  0  0  0  0  0  0  0  0  0  0
   34.9260   28.6320   32.2660 N   0  0  0  0  0  0  0  0  0  0  0  0
   34.6870   29.9240   32.4220 C   0  0  0  0  0  0  0  0  0  0  0  0
   35.4090   30.7800   31.7400 N   0  0  0  0  0  0  0  0  0  0  0  0
   36.8810   31.1640   30.4140 H   0  0  0  0  0  0  0  0  0  0  0  0
   37.3820   28.7030   30.0820 H   0  0  0  0  0  0  0  0  0  0  0  0
   33.5690   29.8490   33.3550 C   0  0  1  0  0  3  0  0  0  0  0  0
   32.6510   29.7880   34.1230 N   0  0  0  0  0  2  0  0  0  0  0  0
   31.6460   29.6600   34.8290 C   0  0  0  0  0  2  0  0  0  0  0  0
   32.1920   30.3590   35.8180 N   0  0  0  0  0  2  0  0  0  0  0  0
   33.4520   30.8620   35.6770 C   0  0  0  0  0  0  0  0  0  0  0  0
   33.8850   31.5720   36.8330 C   0  0  0  0  0  3  0  0  0  0  0  0
   35.1390   32.0860   36.7630 C   0  0  0  0  0  0  0  0  0  0  0  0
   35.4280   32.6090   37.6390 H   0  0  0  0  0  0  0  0  0  0  0  0
   35.9850   31.9710   35.6970 C   0  0  0  0  0  0  0  0  0  0  0  0
   36.9600   32.3630   35.6310 H   0  0  0  0  0  0  0  0  0  0  0  0
   35.4010   31.2480   34.6570 C   0  0  0  0  0  3  0  0  0  0  0  0
   34.1400   30.6090   34.4520 C   0  0  0  0  0  0  0  0  0  0  0  0
   36.0920   26.3480   31.3270 S   0  0  0  0  0  0  0  0  0  0  0  0
   37.3400   24.3680   32.6840 N   0  0  0  0  0  0  0  0  0  0  0  0
   37.0280   25.7460   32.7770 C   0  0  1  0  0  0  0  0  0  0  0  0
   38.2970   26.5650   32.8050 C   0  0  0  0  0  0  0  0  0  0  0  0
   39.0190   26.3040   31.5710 N   0  0  0  0  0  0  0  0  0  0  0  0
   39.4780   24.9000   31.6950 C   0  0  0  0  0  0  0  0  0  0  0  0
   38.2210   24.0490   31.6030 C   0  0  2  0  0  0  0  0  0  0  0  0
   36.6370   23.6870   32.9400 H   0  0  0  0  0  0  0  0  0  0  0  0
   36.4160   25.9480   33.6780 H   0  0  0  0  0  0  0  0  0  0  0  0
   37.9990   27.6290   32.8880 H   0  0  0  0  0  0  0  0  0  0  0  0
   38.8920   26.2430   33.7030 H   0  0  0  0  0  0  0  0  0  0  0  0
   39.8290   26.9470   31.5110 H   0  0  0  0  0  0  0  0  0  0  0  0
   40.1920   24.7170   30.8790 H   0  0  0  0  0  0  0  0  0  0  0  0
   39.9330   24.7340   32.6860 H   0  0  0  0  0  0  0  0  0  0  0  0
   38.4900   22.9800   31.7000 H   0  0  0  0  0  0  0  0  0  0  0  0
   37.6440   24.2370   30.2880 N   0  0  0  0  0  0  0  0  0  0  0  0
   38.1240   23.5210   29.6770 H   0  0  0  0  0  0  0  0  0  0  0  0
   36.6060   24.0490   30.2980 H   0  0  0  0  0  0  0  0  0  0  0  0
  1  6  1  0  0  0  0
  2  1  2  0  0  0  0
  2  3  1  0  0  0  0
  3  4  2  0  0  0  0
  4  5  1  0  0  0  0
  6  5  2  0  0  0  0
  7  1  1  0  0  0  0
  8  2  1  0  0  0  0
  9  5  1  1  0  0  0
  9 10  1  0  0  0  0
  9 20  1  0  0  0  0
 10 11  1  0  0  0  0
 11 12  1  0  0  0  0
 13 12  1  0  0  0  0
 13 14  1  0  0  0  0
 15 14  2  0  0  0  0
 15 16  1  0  0  0  0
 17 15  1  0  0  0  0
 18 17  1  0  0  0  0
 19 17  2  0  0  0  0
 20 19  1  0  0  0  0
 20 13  2  0  0  0  0
 21  3  1  0  0  0  0
 21 23  1  0  0  0  0
 22 23  1  0  0  0  0
 22 28  1  0  0  0  0
 23 24  1  0  0  0  0
 23 29  1  1  0  0  0
 24 30  1  0  0  0  0
 24 31  1  0  0  0  0
 25 26  1  0  0  0  0
 25 24  1  0  0  0  0
 26 34  1  0  0  0  0
 27 26  1  0  0  0  0
 27 35  1  1  0  0  0
 27 22  1  0  0  0  0
 32 25  1  0  0  0  0
 33 26  1  0  0  0  0
 36 38  1  0  0  0  0
 36 27  1  0  0  0  0
 37 36  1  0  0  0  0
M  END
>  <minimizedAffinity>
-5.54645443

$$$$

 OpenBabel03262521003D

 38 41  0  0  1  0  0  0  0  0999 V2000
   35.5440   29.6640   31.4550 C   0  0  0  0  0  0  0  0  0  0  0  0
   36.1540   28.4970   31.8910 C   0  0  0  0  0  0  0  0  0  0  0  0
   36.3650   28.2990   33.2200 C   0  0  0  0  0  0  0  0  0  0  0  0
   35.9360   29.3100   34.0240 N   0  0  0  0  0  0  0  0  0  0  0  0
   35.3540   30.4220   33.6020 C   0  0  0  0  0  0  0  0  0  0  0  0
   35.1660   30.5790   32.3140 N   0  0  0  0  0  0  0  0  0  0  0  0
   35.3430   29.8980   30.4230 H   0  0  0  0  0  0  0  0  0  0  0  0
   36.4630   27.7540   31.1770 H   0  0  0  0  0  0  0  0  0  0  0  0
   35.0960   31.0580   34.8880 C   0  0  1  0  0  3  0  0  0  0  0  0
   34.8810   31.5820   35.9450 N   0  0  0  0  0  2  0  0  0  0  0  0
   34.7730   32.1730   37.0240 C   0  0  0  0  0  2  0  0  0  0  0  0
   33.5630   31.6660   37.2340 N   0  0  0  0  0  2  0  0  0  0  0  0
   33.0120   30.8230   36.3150 C   0  0  0  0  0  0  0  0  0  0  0  0
   31.7110   30.3840   36.6920 C   0  0  0  0  0  3  0  0  0  0  0  0
   31.1000   29.5530   35.8100 C   0  0  0  0  0  0  0  0  0  0  0  0
   30.1340   29.2440   36.1230 H   0  0  0  0  0  0  0  0  0  0  0  0
   31.6280   29.1250   34.6260 C   0  0  0  0  0  0  0  0  0  0  0  0
   31.1640   28.4830   33.9320 H   0  0  0  0  0  0  0  0  0  0  0  0
   32.9040   29.6500   34.4160 C   0  0  0  0  0  3  0  0  0  0  0  0
   33.7730   30.5200   35.1450 C   0  0  0  0  0  0  0  0  0  0  0  0
   37.1300   26.8580   33.9170 S   0  0  0  0  0  0  0  0  0  0  0  0
   39.7640   27.1350   33.3630 N   0  0  0  0  0  0  0  0  0  0  0  0
   38.6150   26.4190   32.9460 C   0  0  1  0  0  0  0  0  0  0  0  0
   38.8170   24.9390   33.1670 C   0  0  0  0  0  0  0  0  0  0  0  0
   39.0410   24.7300   34.5880 N   0  0  0  0  0  0  0  0  0  0  0  0
   40.3710   25.3320   34.8500 C   0  0  0  0  0  0  0  0  0  0  0  0
   40.1780   26.8320   34.6980 C   0  0  2  0  0  0  0  0  0  0  0  0
   39.9040   28.0780   33.0240 H   0  0  0  0  0  0  0  0  0  0  0  0
   38.3910   26.6250   31.8800 H   0  0  0  0  0  0  0  0  0  0  0  0
   37.8990   24.4260   32.8180 H   0  0  0  0  0  0  0  0  0  0  0  0
   39.7090   24.6220   32.5610 H   0  0  0  0  0  0  0  0  0  0  0  0
   39.0590   23.7130   34.7810 H   0  0  0  0  0  0  0  0  0  0  0  0
   40.6720   25.0280   35.8630 H   0  0  0  0  0  0  0  0  0  0  0  0
   41.0960   25.0000   34.0880 H   0  0  0  0  0  0  0  0  0  0  0  0
   41.1410   27.3490   34.8710 H   0  0  0  0  0  0  0  0  0  0  0  0
   39.2540   27.2750   35.7230 N   0  0  0  0  0  0  0  0  0  0  0  0
   39.8610   27.4790   36.5640 H   0  0  0  0  0  0  0  0  0  0  0  0
   38.7540   28.1560   35.4290 H   0  0  0  0  0  0  0  0  0  0  0  0
  1  2  2  0  0  0  0
  1  6  1  0  0  0  0
  2  3  1  0  0  0  0
  3 21  1  0  0  0  0
  3  4  2  0  0  0  0
  5  4  1  0  0  0  0
  6  5  2  0  0  0  0
  7  1  1  0  0  0  0
  8  2  1  0  0  0  0
  9  5  1  6  0  0  0
  9 20  1  0  0  0  0
  9 10  1  0  0  0  0
 10 11  1  0  0  0  0
 11 12  1  0  0  0  0
 13 14  1  0  0  0  0
 13 12  1  0  0  0  0
 15 16  1  0  0  0  0
 15 14  2  0  0  0  0
 17 15  1  0  0  0  0
 18 17  1  0  0  0  0
 19 17  2  0  0  0  0
 19 20  1  0  0  0  0
 20 13  2  0  0  0  0
 22 27  1  0  0  0  0
 23 29  1  6  0  0  0
 23 24  1  0  0  0  0
 23 22  1  0  0  0  0
 23 21  1  0  0  0  0
 24 25  1  0  0  0  0
 25 32  1  0  0  0  0
 25 26  1  0  0  0  0
 26 33  1  0  0  0  0
 27 26  1  0  0  0  0
 27 35  1  1  0  0  0
 27 36  1  0  0  0  0
 28 22  1  0  0  0  0
 30 24  1  0  0  0  0
 31 24  1  0  0  0  0
 34 26  1  0  0  0  0
 36 37  1  0  0  0  0
 38 36  1  0  0  0  0
M  END
>  <minimizedAffinity>
-5.52178621

$$$$

 OpenBabel03262521003D

 38 41  0  0  1  0  0  0  0  0999 V2000
   39.0950   24.9770   29.8660 C   0  0  0  0  0  0  0  0  0  0  0  0
   38.3850   23.8100   30.1050 C   0  0  0  0  0  0  0  0  0  0  0  0
   37.2670   23.8440   30.8780 C   0  0  0  0  0  0  0  0  0  0  0  0
   36.9430   25.0750   31.3600 N   0  0  0  0  0  0  0  0  0  0  0  0
   37.6250   26.1860   31.1290 C   0  0  0  0  0  0  0  0  0  0  0  0
   38.6980   26.1150   30.3790 N   0  0  0  0  0  0  0  0  0  0  0  0
   39.9890   25.0340   29.2670 H   0  0  0  0  0  0  0  0  0  0  0  0
   38.7220   22.8800   29.6810 H   0  0  0  0  0  0  0  0  0  0  0  0
   36.7840   27.1360   31.8460 C   0  0  2  0  0  3  0  0  0  0  0  0
   36.0930   27.9180   32.4380 N   0  0  0  0  0  2  0  0  0  0  0  0
   35.3150   28.7320   32.9430 C   0  0  0  0  0  2  0  0  0  0  0  0
   35.9660   28.7080   34.1010 N   0  0  0  0  0  2  0  0  0  0  0  0
   37.0660   27.9140   34.2430 C   0  0  0  0  0  0  0  0  0  0  0  0
   37.6320   28.0010   35.5480 C   0  0  0  0  0  3  0  0  0  0  0  0
   38.7230   27.2220   35.7590 C   0  0  0  0  0  0  0  0  0  0  0  0
   39.1190   27.3120   36.7390 H   0  0  0  0  0  0  0  0  0  0  0  0
   39.2940   26.3900   34.8410 C   0  0  0  0  0  0  0  0  0  0  0  0
   40.1390   25.7790   34.9930 H   0  0  0  0  0  0  0  0  0  0  0  0
   38.6150   26.4290   33.6230 C   0  0  0  0  0  3  0  0  0  0  0  0
   37.4750   27.1310   33.1230 C   0  0  0  0  0  0  0  0  0  0  0  0
   36.2620   22.4330   31.2650 S   0  0  0  0  0  0  0  0  0  0  0  0
   36.5430   20.4870   33.1230 N   0  0  0  0  0  0  0  0  0  0  0  0
   37.2730   21.1750   32.1240 C   0  0  1  0  0  0  0  0  0  0  0  0
   37.7160   20.2130   31.0480 C   0  0  0  0  0  0  0  0  0  0  0  0
   36.5230   19.6180   30.4680 N   0  0  0  0  0  0  0  0  0  0  0  0
   35.9760   18.7530   31.5410 C   0  0  0  0  0  0  0  0  0  0  0  0
   35.4610   19.7040   32.6100 C   0  0  2  0  0  0  0  0  0  0  0  0
   36.4280   20.9180   34.0320 H   0  0  0  0  0  0  0  0  0  0  0  0
   38.1470   21.6940   32.5650 H   0  0  0  0  0  0  0  0  0  0  0  0
   38.2880   20.7970   30.3000 H   0  0  0  0  0  0  0  0  0  0  0  0
   38.3660   19.4350   31.5330 H   0  0  0  0  0  0  0  0  0  0  0  0
   36.7950   19.0490   29.6470 H   0  0  0  0  0  0  0  0  0  0  0  0
   35.1880   18.1330   31.0890 H   0  0  0  0  0  0  0  0  0  0  0  0
   36.7790   18.1410   31.9840 H   0  0  0  0  0  0  0  0  0  0  0  0
   35.0450   19.1220   33.4540 H   0  0  0  0  0  0  0  0  0  0  0  0
   34.3800   20.4820   32.0390 N   0  0  0  0  0  0  0  0  0  0  0  0
   33.5140   19.8990   32.1990 H   0  0  0  0  0  0  0  0  0  0  0  0
   34.2760   21.4080   32.5350 H   0  0  0  0  0  0  0  0  0  0  0  0
  1  2  2  0  0  0  0
  1  6  1  0  0  0  0
  2  3  1  0  0  0  0
  3 21  1  0  0  0  0
  3  4  2  0  0  0  0
  5  4  1  0  0  0  0
  6  5  2  0  0  0  0
  7  1  1  0  0  0  0
  8  2  1  0  0  0  0
  9  5  1  6  0  0  0
  9 10  1  0  0  0  0
  9 20  1  0  0  0  0
 10 11  1  0  0  0  0
 11 12  1  0  0  0  0
 12 13  1  0  0  0  0
 13 14  1  0  0  0  0
 14 15  2  0  0  0  0
 15 16  1  0  0  0  0
 17 18  1  0  0  0  0
 17 15  1  0  0  0  0
 19 17  2  0  0  0  0
 20 19  1  0  0  0  0
 20 13  2  0  0  0  0
 21 23  1  0  0  0  0
 22 28  1  0  0  0  0
 23 29  1  1  0  0  0
 23 22  1  0  0  0  0
 24 31  1  0  0  0  0
 24 23  1  0  0  0  0
 25 24  1  0  0  0  0
 25 26  1  0  0  0  0
 26 34  1  0  0  0  0
 26 27  1  0  0  0  0
 27 22  1  0  0  0  0
 27 35  1  1  0  0  0
 30 24  1  0  0  0  0
 32 25  1  0  0  0  0
 33 26  1  0  0  0  0
 36 37  1  0  0  0  0
 36 38  1  0  0  0  0
 36 27  1  0  0  0  0
M  END
>  <minimizedAffinity>
-5.46078491

$$$$
