
 OpenBabel03262522413D

 44 49  0  0  0  0  0  0  0  0999 V2000
   36.8160   27.3510   32.5760 C   0  0  0  0  0  0  0  0  0  0  0  0
   37.0710   27.9640   31.3660 C   0  0  0  0  0  0  0  0  0  0  0  0
   36.7700   29.2790   31.0990 C   0  0  0  0  0  0  0  0  0  0  0  0
   36.1830   30.0480   32.0700 C   0  0  0  0  0  0  0  0  0  0  0  0
   35.9400   29.4210   33.2580 C   0  0  0  0  0  0  0  0  0  0  0  0
   36.2380   28.1420   33.5060 N   0  0  0  0  0  0  0  0  0  0  0  0
   37.5360   27.4010   30.5610 H   0  0  0  0  0  0  0  0  0  0  0  0
   36.9970   29.7010   30.1240 H   0  0  0  0  0  0  0  0  0  0  0  0
   35.9270   31.0900   31.9080 H   0  0  0  0  0  0  0  0  0  0  0  0
   35.9910   30.9280   35.2690 C   0  0  0  0  0  0  0  0  0  0  0  0
   35.3190   30.1670   34.3400 C   0  0  0  0  0  0  0  0  0  0  0  0
   33.9340   30.1710   34.5260 C   0  0  0  0  0  0  0  0  0  0  0  0
   33.2620   30.8490   35.5220 C   0  0  0  0  0  0  0  0  0  0  0  0
   31.9710   30.9670   35.8500 N   0  0  0  0  0  0  0  0  0  0  0  0
   31.8900   31.7690   36.9350 C   0  0  0  0  0  0  0  0  0  0  0  0
   33.1620   32.1780   37.3160 C   0  0  0  0  0  0  0  0  0  0  0  0
   34.0060   31.5850   36.4090 C   0  0  0  0  0  0  0  0  0  0  0  0
   35.3800   31.6280   36.2860 C   0  0  0  0  0  0  0  0  0  0  0  0
   37.0710   30.9780   35.1940 H   0  0  0  0  0  0  0  0  0  0  0  0
   33.3040   29.6050   33.8520 H   0  0  0  0  0  0  0  0  0  0  0  0
   31.1530   30.5330   35.3760 H   0  0  0  0  0  0  0  0  0  0  0  0
   31.0270   32.1100   37.5050 H   0  0  0  0  0  0  0  0  0  0  0  0
   33.4980   32.8140   38.1240 H   0  0  0  0  0  0  0  0  0  0  0  0
   35.9900   32.2000   36.9710 H   0  0  0  0  0  0  0  0  0  0  0  0
   37.4720   23.6570   32.3050 C   0  0  0  0  0  0  0  0  0  0  0  0
   37.1060   24.9450   31.8940 C   0  0  0  0  0  0  0  0  0  0  0  0
   37.1460   25.9620   32.8390 C   0  0  0  0  0  0  0  0  0  0  0  0
   37.5300   25.6180   34.0590 N   0  0  0  0  0  0  0  0  0  0  0  0
   37.8870   24.3930   34.4850 C   0  0  0  0  0  0  0  0  0  0  0  0
   37.8490   23.4200   33.5770 N   0  0  0  0  0  0  0  0  0  0  0  0
   37.4380   22.8720   31.5580 H   0  0  0  0  0  0  0  0  0  0  0  0
   36.7960   25.2020   30.8940 H   0  0  0  0  0  0  0  0  0  0  0  0
   38.3150   23.9620   35.7970 C   0  0  0  0  0  0  0  0  0  0  0  0
   37.6040   24.2400   36.9020 N   0  0  0  0  0  0  0  0  0  0  0  0
   37.9390   23.8740   38.1440 C   0  0  0  0  0  3  0  0  0  0  0  0
   39.0540   23.1710   38.4090 N   0  0  0  0  0  0  0  0  0  0  0  0
   39.8320   22.8430   37.3660 C   0  0  0  0  0  0  0  0  0  0  0  0
   40.9850   22.1240   37.5860 C   0  0  0  0  0  3  0  0  0  0  0  0
   41.8220   21.7610   36.5510 C   0  0  0  0  0  0  0  0  0  0  0  0
   42.7190   21.1990   36.7340 H   0  0  0  0  0  0  0  0  0  0  0  0
   41.4430   22.1580   35.2770 C   0  0  0  0  0  0  0  0  0  0  0  0
   42.1220   21.8570   34.4800 H   0  0  0  0  0  0  0  0  0  0  0  0
   40.2930   22.8700   35.0970 C   0  0  0  0  0  3  0  0  0  0  0  0
   39.4430   23.2440   36.1110 C   0  0  0  0  0  0  0  0  0  0  0  0
  1 27  1  0  0  0  0
  1  6  1  0  0  0  0
  2  1  2  0  0  0  0
  3  2  1  0  0  0  0
  3  4  2  0  0  0  0
  4  5  1  0  0  0  0
  5  6  2  0  0  0  0
  5 11  1  0  0  0  0
  7  2  1  0  0  0  0
  8  3  1  0  0  0  0
  9  4  1  0  0  0  0
 10 18  1  0  0  0  0
 11 12  1  0  0  0  0
 11 10  2  0  0  0  0
 12 13  2  0  0  0  0
 13 14  1  0  0  0  0
 13 17  1  0  0  0  0
 14 15  1  0  0  0  0
 15 16  2  0  0  0  0
 15 22  1  0  0  0  0
 16 23  1  0  0  0  0
 17 16  1  0  0  0  0
 18 17  2  0  0  0  0
 18 24  1  0  0  0  0
 19 10  1  0  0  0  0
 20 12  1  0  0  0  0
 21 14  1  0  0  0  0
 25 30  1  0  0  0  0
 26 25  2  0  0  0  0
 26 27  1  0  0  0  0
 27 28  2  0  0  0  0
 28 29  1  0  0  0  0
 29 33  1  0  0  0  0
 30 29  2  0  0  0  0
 31 25  1  0  0  0  0
 32 26  1  0  0  0  0
 33 44  2  0  0  0  0
 33 34  1  0  0  0  0
 34 35  2  0  0  0  0
 35 36  1  0  0  0  0
 37 38  1  0  0  0  0
 37 36  2  0  0  0  0
 39 40  1  0  0  0  0
 39 38  2  0  0  0  0
 41 39  1  0  0  0  0
 42 41  1  0  0  0  0
 43 41  2  0  0  0  0
 43 44  1  0  0  0  0
 44 37  1  0  0  0  0
M  END
>  <minimizedAffinity>
-8.00028706

$$$$

 OpenBabel03262522413D

 44 49  0  0  0  0  0  0  0  0999 V2000
   36.5480   26.9190   31.9780 C   0  0  0  0  0  0  0  0  0  0  0  0
   37.0000   27.5960   30.8620 C   0  0  0  0  0  0  0  0  0  0  0  0
   36.8300   28.9470   30.6690 C   0  0  0  0  0  0  0  0  0  0  0  0
   36.1800   29.6880   31.6210 C   0  0  0  0  0  0  0  0  0  0  0  0
   35.7430   28.9980   32.7160 C   0  0  0  0  0  0  0  0  0  0  0  0
   35.9150   27.6850   32.8920 N   0  0  0  0  0  0  0  0  0  0  0  0
   37.5220   27.0570   30.0760 H   0  0  0  0  0  0  0  0  0  0  0  0
   37.2090   29.4190   29.7680 H   0  0  0  0  0  0  0  0  0  0  0  0
   36.0220   30.7570   31.5160 H   0  0  0  0  0  0  0  0  0  0  0  0
   33.6940   29.6290   34.0270 C   0  0  0  0  0  0  0  0  0  0  0  0
   35.0430   29.7120   33.7710 C   0  0  0  0  0  0  0  0  0  0  0  0
   35.7150   30.5720   34.6430 C   0  0  0  0  0  0  0  0  0  0  0  0
   35.1320   31.2880   35.6690 C   0  0  0  0  0  0  0  0  0  0  0  0
   35.6030   32.1410   36.5840 N   0  0  0  0  0  0  0  0  0  0  0  0
   34.5650   32.5450   37.3490 C   0  0  0  0  0  0  0  0  0  0  0  0
   33.3940   31.9360   36.9160 C   0  0  0  0  0  0  0  0  0  0  0  0
   33.7800   31.1500   35.8570 C   0  0  0  0  0  0  0  0  0  0  0  0
   33.0510   30.3160   35.0330 C   0  0  0  0  0  0  0  0  0  0  0  0
   33.0990   28.9810   33.3930 H   0  0  0  0  0  0  0  0  0  0  0  0
   36.7830   30.7150   34.5350 H   0  0  0  0  0  0  0  0  0  0  0  0
   36.5870   32.4570   36.7110 H   0  0  0  0  0  0  0  0  0  0  0  0
   34.5290   33.2300   38.1950 H   0  0  0  0  0  0  0  0  0  0  0  0
   32.3750   32.0070   37.2720 H   0  0  0  0  0  0  0  0  0  0  0  0
   31.9850   30.1890   35.1600 H   0  0  0  0  0  0  0  0  0  0  0  0
   36.3480   23.1680   31.7820 C   0  0  0  0  0  0  0  0  0  0  0  0
   36.0280   24.5030   31.5010 C   0  0  0  0  0  0  0  0  0  0  0  0
   36.7420   25.4930   32.1640 C   0  0  0  0  0  0  0  0  0  0  0  0
   37.6740   25.0810   33.0110 N   0  0  0  0  0  0  0  0  0  0  0  0
   38.0050   23.8100   33.3020 C   0  0  0  0  0  0  0  0  0  0  0  0
   37.3190   22.8630   32.6650 N   0  0  0  0  0  0  0  0  0  0  0  0
   35.7850   22.4050   31.2580 H   0  0  0  0  0  0  0  0  0  0  0  0
   35.2640   24.8150   30.8070 H   0  0  0  0  0  0  0  0  0  0  0  0
   39.0080   23.3050   34.2110 C   0  0  0  0  0  0  0  0  0  0  0  0
   40.1400   22.7310   33.7710 N   0  0  0  0  0  0  0  0  0  0  0  0
   41.1090   22.2430   34.5530 C   0  0  0  0  0  3  0  0  0  0  0  0
   41.0380   22.2830   35.8940 N   0  0  0  0  0  0  0  0  0  0  0  0
   39.9420   22.8400   36.4310 C   0  0  0  0  0  0  0  0  0  0  0  0
   39.8210   22.9060   37.8010 C   0  0  0  0  0  3  0  0  0  0  0  0
   38.7160   23.4670   38.4070 C   0  0  0  0  0  0  0  0  0  0  0  0
   38.6320   23.5130   39.4760 H   0  0  0  0  0  0  0  0  0  0  0  0
   37.7310   23.9630   37.5650 C   0  0  0  0  0  0  0  0  0  0  0  0
   36.8710   24.4010   38.0700 H   0  0  0  0  0  0  0  0  0  0  0  0
   37.8850   23.8810   36.2110 C   0  0  0  0  0  3  0  0  0  0  0  0
   38.9750   23.3260   35.5840 C   0  0  0  0  0  0  0  0  0  0  0  0
  1 27  1  0  0  0  0
  1  6  1  0  0  0  0
  2  1  2  0  0  0  0
  3  2  1  0  0  0  0
  3  4  2  0  0  0  0
  4  5  1  0  0  0  0
  5  6  2  0  0  0  0
  5 11  1  0  0  0  0
  7  2  1  0  0  0  0
  8  3  1  0  0  0  0
  9  4  1  0  0  0  0
 10 18  1  0  0  0  0
 11 10  2  0  0  0  0
 11 12  1  0  0  0  0
 12 13  2  0  0  0  0
 13 17  1  0  0  0  0
 13 14  1  0  0  0  0
 14 21  1  0  0  0  0
 14 15  1  0  0  0  0
 15 22  1  0  0  0  0
 16 23  1  0  0  0  0
 16 15  2  0  0  0  0
 17 16  1  0  0  0  0
 18 24  1  0  0  0  0
 18 17  2  0  0  0  0
 19 10  1  0  0  0  0
 20 12  1  0  0  0  0
 25 30  1  0  0  0  0
 26 25  2  0  0  0  0
 26 27  1  0  0  0  0
 27 28  2  0  0  0  0
 28 29  1  0  0  0  0
 29 33  1  0  0  0  0
 30 29  2  0  0  0  0
 31 25  1  0  0  0  0
 32 26  1  0  0  0  0
 33 44  1  0  0  0  0
 34 33  2  0  0  0  0
 34 35  1  0  0  0  0
 35 36  2  0  0  0  0
 36 37  1  0  0  0  0
 37 38  1  0  0  0  0
 38 39  2  0  0  0  0
 39 40  1  0  0  0  0
 41 42  1  0  0  0  0
 41 39  1  0  0  0  0
 43 41  2  0  0  0  0
 44 43  1  0  0  0  0
 44 37  2  0  0  0  0
M  END
>  <minimizedAffinity>
-7.84166718

$$$$

 OpenBabel03262522413D

 44 49  0  0  0  0  0  0  0  0999 V2000
   36.3630   26.1280   31.7600 C   0  0  0  0  0  0  0  0  0  0  0  0
   35.6500   25.1260   31.1310 C   0  0  0  0  0  0  0  0  0  0  0  0
   35.8800   23.7860   31.3330 C   0  0  0  0  0  0  0  0  0  0  0  0
   36.8650   23.3930   32.2010 C   0  0  0  0  0  0  0  0  0  0  0  0
   37.5560   24.4000   32.8120 C   0  0  0  0  0  0  0  0  0  0  0  0
   37.3230   25.7000   32.6070 N   0  0  0  0  0  0  0  0  0  0  0  0
   34.8580   25.3830   30.4330 H   0  0  0  0  0  0  0  0  0  0  0  0
   35.2840   23.0470   30.8060 H   0  0  0  0  0  0  0  0  0  0  0  0
   37.0840   22.3480   32.3940 H   0  0  0  0  0  0  0  0  0  0  0  0
   39.9250   24.4840   33.6460 C   0  0  0  0  0  0  0  0  0  0  0  0
   38.6180   24.0660   33.7460 C   0  0  0  0  0  0  0  0  0  0  0  0
   38.3830   23.2630   34.8650 C   0  0  0  0  0  0  0  0  0  0  0  0
   39.3280   22.8970   35.8010 C   0  0  0  0  0  0  0  0  0  0  0  0
   39.2900   22.1520   36.9100 N   0  0  0  0  0  0  0  0  0  0  0  0
   40.5320   22.1330   37.4410 C   0  0  0  0  0  0  0  0  0  0  0  0
   41.3950   22.8860   36.6540 C   0  0  0  0  0  0  0  0  0  0  0  0
   40.6100   23.3550   35.6280 C   0  0  0  0  0  0  0  0  0  0  0  0
   40.9160   24.1550   34.5450 C   0  0  0  0  0  0  0  0  0  0  0  0
   40.1910   25.1130   32.8040 H   0  0  0  0  0  0  0  0  0  0  0  0
   37.3880   22.8770   35.0450 H   0  0  0  0  0  0  0  0  0  0  0  0
   38.4670   21.6620   37.3170 H   0  0  0  0  0  0  0  0  0  0  0  0
   40.9170   21.6440   38.3360 H   0  0  0  0  0  0  0  0  0  0  0  0
   42.4490   23.1030   36.7530 H   0  0  0  0  0  0  0  0  0  0  0  0
   41.9170   24.5290   34.3850 H   0  0  0  0  0  0  0  0  0  0  0  0
   36.2960   29.6460   30.4290 C   0  0  0  0  0  0  0  0  0  0  0  0
   36.6650   28.2980   30.5190 C   0  0  0  0  0  0  0  0  0  0  0  0
   36.1010   27.5390   31.5360 C   0  0  0  0  0  0  0  0  0  0  0  0
   35.2540   28.1650   32.3390 N   0  0  0  0  0  0  0  0  0  0  0  0
   34.8790   29.4550   32.2790 C   0  0  0  0  0  0  0  0  0  0  0  0
   35.4200   30.1810   31.3030 N   0  0  0  0  0  0  0  0  0  0  0  0
   36.7420   30.2280   29.6310 H   0  0  0  0  0  0  0  0  0  0  0  0
   37.3590   27.8090   29.8540 H   0  0  0  0  0  0  0  0  0  0  0  0
   33.9610   30.1880   33.1220 C   0  0  0  0  0  0  0  0  0  0  0  0
   32.6600   30.3130   32.8140 N   0  0  0  0  0  0  0  0  0  0  0  0
   31.7570   30.9750   33.5450 C   0  0  0  0  0  3  0  0  0  0  0  0
   32.0770   31.5940   34.6930 N   0  0  0  0  0  0  0  0  0  0  0  0
   33.3580   31.5250   35.0880 C   0  0  0  0  0  0  0  0  0  0  0  0
   33.7370   32.1440   36.2580 C   0  0  0  0  0  3  0  0  0  0  0  0
   35.0390   32.1050   36.7110 C   0  0  0  0  0  0  0  0  0  0  0  0
   35.3240   32.5910   37.6250 H   0  0  0  0  0  0  0  0  0  0  0  0
   35.9490   31.4100   35.9260 C   0  0  0  0  0  0  0  0  0  0  0  0
   36.9690   31.3960   36.3080 H   0  0  0  0  0  0  0  0  0  0  0  0
   35.5370   30.8090   34.7720 C   0  0  0  0  0  3  0  0  0  0  0  0
   34.2470   30.8340   34.3000 C   0  0  0  0  0  0  0  0  0  0  0  0
  1  6  1  0  0  0  0
  2  3  1  0  0  0  0
  2  1  2  0  0  0  0
  3  4  2  0  0  0  0
  4  9  1  0  0  0  0
  4  5  1  0  0  0  0
  5 11  1  0  0  0  0
  6  5  2  0  0  0  0
  7  2  1  0  0  0  0
  8  3  1  0  0  0  0
 10 11  2  0  0  0  0
 10 18  1  0  0  0  0
 11 12  1  0  0  0  0
 12 20  1  0  0  0  0
 12 13  2  0  0  0  0
 13 14  1  0  0  0  0
 14 21  1  0  0  0  0
 14 15  1  0  0  0  0
 15 22  1  0  0  0  0
 16 23  1  0  0  0  0
 16 15  2  0  0  0  0
 17 13  1  0  0  0  0
 17 16  1  0  0  0  0
 18 17  2  0  0  0  0
 19 10  1  0  0  0  0
 24 18  1  0  0  0  0
 25 26  2  0  0  0  0
 25 30  1  0  0  0  0
 26 27  1  0  0  0  0
 27  1  1  0  0  0  0
 27 28  2  0  0  0  0
 29 28  1  0  0  0  0
 29 33  1  0  0  0  0
 30 29  2  0  0  0  0
 31 25  1  0  0  0  0
 32 26  1  0  0  0  0
 33 44  1  0  0  0  0
 34 33  2  0  0  0  0
 34 35  1  0  0  0  0
 35 36  2  0  0  0  0
 36 37  1  0  0  0  0
 37 38  1  0  0  0  0
 38 39  2  0  0  0  0
 39 40  1  0  0  0  0
 41 42  1  0  0  0  0
 41 39  1  0  0  0  0
 43 41  2  0  0  0  0
 44 43  1  0  0  0  0
 44 37  2  0  0  0  0
M  END
>  <minimizedAffinity>
-7.75359011

$$$$

 OpenBabel03262522413D

 44 49  0  0  0  0  0  0  0  0999 V2000
   37.1150   26.8470   33.7710 C   0  0  0  0  0  0  0  0  0  0  0  0
   37.2480   27.0980   32.4190 C   0  0  0  0  0  0  0  0  0  0  0  0
   36.7950   28.2430   31.8080 C   0  0  0  0  0  0  0  0  0  0  0  0
   36.1740   29.2080   32.5570 C   0  0  0  0  0  0  0  0  0  0  0  0
   36.0550   28.9390   33.8910 C   0  0  0  0  0  0  0  0  0  0  0  0
   36.4990   27.8220   34.4730 N   0  0  0  0  0  0  0  0  0  0  0  0
   37.7320   26.3650   31.7780 H   0  0  0  0  0  0  0  0  0  0  0  0
   36.9290   28.3780   30.7390 H   0  0  0  0  0  0  0  0  0  0  0  0
   35.8000   30.1290   32.1210 H   0  0  0  0  0  0  0  0  0  0  0  0
   36.0570   30.8640   35.5070 C   0  0  0  0  0  0  0  0  0  0  0  0
   35.4070   29.9130   34.7550 C   0  0  0  0  0  0  0  0  0  0  0  0
   34.0170   29.9600   34.8920 C   0  0  0  0  0  0  0  0  0  0  0  0
   33.3210   30.8470   35.6870 C   0  0  0  0  0  0  0  0  0  0  0  0
   32.0220   31.0380   35.9400 N   0  0  0  0  0  0  0  0  0  0  0  0
   31.9150   32.0650   36.8110 C   0  0  0  0  0  0  0  0  0  0  0  0
   33.1780   32.5490   37.1290 C   0  0  0  0  0  0  0  0  0  0  0  0
   34.0440   31.7640   36.4060 C   0  0  0  0  0  0  0  0  0  0  0  0
   35.4220   31.7770   36.3200 C   0  0  0  0  0  0  0  0  0  0  0  0
   37.1390   30.8950   35.4570 H   0  0  0  0  0  0  0  0  0  0  0  0
   33.4030   29.2570   34.3450 H   0  0  0  0  0  0  0  0  0  0  0  0
   31.2160   30.5080   35.5510 H   0  0  0  0  0  0  0  0  0  0  0  0
   31.0380   32.5270   37.2620 H   0  0  0  0  0  0  0  0  0  0  0  0
   33.4940   33.3520   37.7810 H   0  0  0  0  0  0  0  0  0  0  0  0
   36.0160   32.4890   36.8760 H   0  0  0  0  0  0  0  0  0  0  0  0
   38.3510   24.2550   36.1990 C   0  0  0  0  0  0  0  0  0  0  0  0
   37.9040   25.5030   35.7470 C   0  0  0  0  0  0  0  0  0  0  0  0
   37.6050   25.6330   34.3970 C   0  0  0  0  0  0  0  0  0  0  0  0
   37.7710   24.5530   33.6490 N   0  0  0  0  0  0  0  0  0  0  0  0
   38.1980   23.3420   34.0520 C   0  0  0  0  0  0  0  0  0  0  0  0
   38.4830   23.2190   35.3470 N   0  0  0  0  0  0  0  0  0  0  0  0
   38.5810   24.1650   37.2550 H   0  0  0  0  0  0  0  0  0  0  0  0
   37.7760   26.3700   36.3750 H   0  0  0  0  0  0  0  0  0  0  0  0
   38.3950   22.1330   33.2850 C   0  0  0  0  0  0  0  0  0  0  0  0
   39.6210   21.6790   32.9790 N   0  0  0  0  0  0  0  0  0  0  0  0
   39.8780   20.5710   32.2750 C   0  0  0  0  0  3  0  0  0  0  0  0
   38.9010   19.7840   31.7940 N   0  0  0  0  0  0  0  0  0  0  0  0
   37.6360   20.1540   32.0500 C   0  0  0  0  0  0  0  0  0  0  0  0
   36.6000   19.3810   31.5790 C   0  0  0  0  0  3  0  0  0  0  0  0
   35.2810   19.7150   31.8110 C   0  0  0  0  0  0  0  0  0  0  0  0
   34.4800   19.1040   31.4390 H   0  0  0  0  0  0  0  0  0  0  0  0
   35.0530   20.8700   32.5450 C   0  0  0  0  0  0  0  0  0  0  0  0
   34.0040   21.1090   32.7130 H   0  0  0  0  0  0  0  0  0  0  0  0
   36.1060   21.6120   32.9950 C   0  0  0  0  0  3  0  0  0  0  0  0
   37.4270   21.3020   32.7770 C   0  0  0  0  0  0  0  0  0  0  0  0
  1 27  1  0  0  0  0
  1  6  1  0  0  0  0
  2  1  2  0  0  0  0
  3  2  1  0  0  0  0
  3  4  2  0  0  0  0
  4  5  1  0  0  0  0
  5  6  2  0  0  0  0
  5 11  1  0  0  0  0
  7  2  1  0  0  0  0
  8  3  1  0  0  0  0
  9  4  1  0  0  0  0
 10 18  1  0  0  0  0
 11 12  1  0  0  0  0
 11 10  2  0  0  0  0
 12 13  2  0  0  0  0
 13 14  1  0  0  0  0
 13 17  1  0  0  0  0
 14 15  1  0  0  0  0
 15 16  2  0  0  0  0
 15 22  1  0  0  0  0
 16 23  1  0  0  0  0
 17 16  1  0  0  0  0
 18 17  2  0  0  0  0
 18 24  1  0  0  0  0
 19 10  1  0  0  0  0
 20 12  1  0  0  0  0
 21 14  1  0  0  0  0
 25 31  1  0  0  0  0
 26 25  1  0  0  0  0
 26 32  1  0  0  0  0
 27 26  2  0  0  0  0
 28 29  2  0  0  0  0
 28 27  1  0  0  0  0
 29 30  1  0  0  0  0
 30 25  2  0  0  0  0
 33 29  1  0  0  0  0
 34 33  1  0  0  0  0
 35 34  2  0  0  0  0
 36 37  2  0  0  0  0
 36 35  1  0  0  0  0
 37 44  1  0  0  0  0
 38 39  2  0  0  0  0
 38 37  1  0  0  0  0
 39 41  1  0  0  0  0
 40 39  1  0  0  0  0
 41 42  1  0  0  0  0
 41 43  2  0  0  0  0
 44 43  1  0  0  0  0
 44 33  2  0  0  0  0
M  END
>  <minimizedAffinity>
-7.48011112

$$$$

 OpenBabel03262522413D

 44 49  0  0  0  0  0  0  0  0999 V2000
   37.9040   27.0700   32.0400 C   0  0  0  0  0  0  0  0  0  0  0  0
   39.2810   27.1700   32.0050 C   0  0  0  0  0  0  0  0  0  0  0  0
   40.1280   26.1110   32.2320 C   0  0  0  0  0  0  0  0  0  0  0  0
   39.6050   24.8760   32.5110 C   0  0  0  0  0  0  0  0  0  0  0  0
   38.2410   24.8000   32.5390 C   0  0  0  0  0  0  0  0  0  0  0  0
   37.4280   25.8370   32.3160 N   0  0  0  0  0  0  0  0  0  0  0  0
   39.7480   28.1270   31.7880 H   0  0  0  0  0  0  0  0  0  0  0  0
   41.2030   26.2570   32.1910 H   0  0  0  0  0  0  0  0  0  0  0  0
   40.2310   24.0090   32.6970 H   0  0  0  0  0  0  0  0  0  0  0  0
   37.8470   22.7530   33.9430 C   0  0  0  0  0  0  0  0  0  0  0  0
   37.6080   23.5250   32.8290 C   0  0  0  0  0  0  0  0  0  0  0  0
   36.6670   22.9600   31.9630 C   0  0  0  0  0  0  0  0  0  0  0  0
   36.0200   21.7580   32.1580 C   0  0  0  0  0  0  0  0  0  0  0  0
   35.1110   21.0730   31.4560 N   0  0  0  0  0  0  0  0  0  0  0  0
   34.8290   19.9400   32.1350 C   0  0  0  0  0  0  0  0  0  0  0  0
   35.5750   19.8920   33.3060 C   0  0  0  0  0  0  0  0  0  0  0  0
   36.3150   21.0500   33.2950 C   0  0  0  0  0  0  0  0  0  0  0  0
   37.2350   21.5460   34.1970 C   0  0  0  0  0  0  0  0  0  0  0  0
   38.5660   23.1210   34.6670 H   0  0  0  0  0  0  0  0  0  0  0  0
   36.4010   23.4810   31.0530 H   0  0  0  0  0  0  0  0  0  0  0  0
   34.6800   21.3390   30.5470 H   0  0  0  0  0  0  0  0  0  0  0  0
   34.1460   19.1230   31.9030 H   0  0  0  0  0  0  0  0  0  0  0  0
   35.6220   19.1550   34.0950 H   0  0  0  0  0  0  0  0  0  0  0  0
   37.4860   21.0080   35.1000 H   0  0  0  0  0  0  0  0  0  0  0  0
   36.1560   30.0620   30.5760 C   0  0  0  0  0  0  0  0  0  0  0  0
   37.0880   29.0210   30.6730 C   0  0  0  0  0  0  0  0  0  0  0  0
   37.0270   28.2000   31.7920 C   0  0  0  0  0  0  0  0  0  0  0  0
   36.0810   28.4780   32.6770 N   0  0  0  0  0  0  0  0  0  0  0  0
   35.1730   29.4690   32.6120 C   0  0  0  0  0  0  0  0  0  0  0  0
   35.2330   30.2540   31.5390 N   0  0  0  0  0  0  0  0  0  0  0  0
   36.2140   30.6960   29.6980 H   0  0  0  0  0  0  0  0  0  0  0  0
   37.8510   28.8130   29.9400 H   0  0  0  0  0  0  0  0  0  0  0  0
   34.1220   29.8160   33.5420 C   0  0  0  0  0  0  0  0  0  0  0  0
   32.8530   29.4170   33.3600 N   0  0  0  0  0  0  0  0  0  0  0  0
   31.8320   29.7010   34.1760 C   0  0  0  0  0  3  0  0  0  0  0  0
   31.9880   30.4350   35.2910 N   0  0  0  0  0  0  0  0  0  0  0  0
   33.2240   30.8810   35.5610 C   0  0  0  0  0  0  0  0  0  0  0  0
   33.4360   31.6380   36.6910 C   0  0  0  0  0  3  0  0  0  0  0  0
   34.6860   32.1220   37.0180 C   0  0  0  0  0  0  0  0  0  0  0  0
   34.8390   32.7120   37.9020 H   0  0  0  0  0  0  0  0  0  0  0  0
   35.7200   31.8080   36.1470 C   0  0  0  0  0  0  0  0  0  0  0  0
   36.6950   32.2040   36.4290 H   0  0  0  0  0  0  0  0  0  0  0  0
   35.4730   31.0560   35.0360 C   0  0  0  0  0  3  0  0  0  0  0  0
   34.2380   30.5620   34.6890 C   0  0  0  0  0  0  0  0  0  0  0  0
  1  6  1  0  0  0  0
  2  1  2  0  0  0  0
  2  3  1  0  0  0  0
  3  4  2  0  0  0  0
  4  5  1  0  0  0  0
  4  9  1  0  0  0  0
  5 11  1  0  0  0  0
  6  5  2  0  0  0  0
  7  2  1  0  0  0  0
  8  3  1  0  0  0  0
 10 18  1  0  0  0  0
 10 19  1  0  0  0  0
 11 10  2  0  0  0  0
 12 13  2  0  0  0  0
 12 11  1  0  0  0  0
 13 17  1  0  0  0  0
 14 15  1  0  0  0  0
 14 13  1  0  0  0  0
 15 16  2  0  0  0  0
 16 23  1  0  0  0  0
 17 16  1  0  0  0  0
 17 18  2  0  0  0  0
 18 24  1  0  0  0  0
 20 12  1  0  0  0  0
 21 14  1  0  0  0  0
 22 15  1  0  0  0  0
 25 26  2  0  0  0  0
 25 30  1  0  0  0  0
 26 27  1  0  0  0  0
 27  1  1  0  0  0  0
 27 28  2  0  0  0  0
 29 28  1  0  0  0  0
 29 33  1  0  0  0  0
 30 29  2  0  0  0  0
 31 25  1  0  0  0  0
 32 26  1  0  0  0  0
 33 44  1  0  0  0  0
 34 33  2  0  0  0  0
 34 35  1  0  0  0  0
 35 36  2  0  0  0  0
 36 37  1  0  0  0  0
 37 38  1  0  0  0  0
 38 39  2  0  0  0  0
 39 40  1  0  0  0  0
 41 42  1  0  0  0  0
 41 39  1  0  0  0  0
 43 41  2  0  0  0  0
 44 43  1  0  0  0  0
 44 37  2  0  0  0  0
M  END
>  <minimizedAffinity>
-7.37139034

$$$$

 OpenBabel03262522413D

 44 49  0  0  0  0  0  0  0  0999 V2000
   36.6150   27.9400   33.1360 C   0  0  0  0  0  0  0  0  0  0  0  0
   36.0100   28.5760   34.2020 C   0  0  0  0  0  0  0  0  0  0  0  0
   35.5670   29.8770   34.1620 C   0  0  0  0  0  0  0  0  0  0  0  0
   35.7200   30.6080   33.0130 C   0  0  0  0  0  0  0  0  0  0  0  0
   36.3200   29.9590   31.9720 C   0  0  0  0  0  0  0  0  0  0  0  0
   36.7460   28.6930   32.0220 N   0  0  0  0  0  0  0  0  0  0  0  0
   35.8640   28.0430   35.1380 H   0  0  0  0  0  0  0  0  0  0  0  0
   35.1010   30.3190   35.0380 H   0  0  0  0  0  0  0  0  0  0  0  0
   35.3870   31.6370   32.9320 H   0  0  0  0  0  0  0  0  0  0  0  0
   36.0580   31.9300   30.4360 C   0  0  0  0  0  0  0  0  0  0  0  0
   36.5200   30.6650   30.7170 C   0  0  0  0  0  0  0  0  0  0  0  0
   37.2260   30.0900   29.6570 C   0  0  0  0  0  0  0  0  0  0  0  0
   37.4620   30.6870   28.4360 C   0  0  0  0  0  0  0  0  0  0  0  0
   38.1020   30.3000   27.3280 N   0  0  0  0  0  0  0  0  0  0  0  0
   38.0170   31.3040   26.4270 C   0  0  0  0  0  0  0  0  0  0  0  0
   37.3040   32.3660   26.9690 C   0  0  0  0  0  0  0  0  0  0  0  0
   36.9670   31.9500   28.2350 C   0  0  0  0  0  0  0  0  0  0  0  0
   36.2590   32.5810   29.2380 C   0  0  0  0  0  0  0  0  0  0  0  0
   35.4990   32.4470   31.2070 H   0  0  0  0  0  0  0  0  0  0  0  0
   37.6360   29.0950   29.7680 H   0  0  0  0  0  0  0  0  0  0  0  0
   38.5880   29.3950   27.1580 H   0  0  0  0  0  0  0  0  0  0  0  0
   38.4050   31.3840   25.4120 H   0  0  0  0  0  0  0  0  0  0  0  0
   37.0330   33.3300   26.5600 H   0  0  0  0  0  0  0  0  0  0  0  0
   35.8590   33.5760   29.1060 H   0  0  0  0  0  0  0  0  0  0  0  0
   37.6580   24.4180   32.3280 C   0  0  0  0  0  0  0  0  0  0  0  0
   37.1840   25.7160   32.1020 C   0  0  0  0  0  0  0  0  0  0  0  0
   37.0720   26.5640   33.1970 C   0  0  0  0  0  0  0  0  0  0  0  0
   37.4280   26.0620   34.3700 N   0  0  0  0  0  0  0  0  0  0  0  0
   37.8870   24.8220   34.6190 C   0  0  0  0  0  0  0  0  0  0  0  0
   37.9940   24.0120   33.5680 N   0  0  0  0  0  0  0  0  0  0  0  0
   37.7420   23.7660   31.4660 H   0  0  0  0  0  0  0  0  0  0  0  0
   36.8990   26.1030   31.1370 H   0  0  0  0  0  0  0  0  0  0  0  0
   38.2910   24.2240   35.8720 C   0  0  0  0  0  0  0  0  0  0  0  0
   37.5090   24.2650   36.9620 N   0  0  0  0  0  0  0  0  0  0  0  0
   37.8180   23.7350   38.1510 C   0  0  0  0  0  3  0  0  0  0  0  0
   38.9760   23.0910   38.3700 N   0  0  0  0  0  0  0  0  0  0  0  0
   39.8280   22.9960   37.3370 C   0  0  0  0  0  0  0  0  0  0  0  0
   41.0280   22.3460   37.5100 C   0  0  0  0  0  3  0  0  0  0  0  0
   41.9410   22.2190   36.4830 C   0  0  0  0  0  0  0  0  0  0  0  0
   42.8750   21.7100   36.6300 H   0  0  0  0  0  0  0  0  0  0  0  0
   41.5870   22.7820   35.2650 C   0  0  0  0  0  0  0  0  0  0  0  0
   42.3250   22.6670   34.4730 H   0  0  0  0  0  0  0  0  0  0  0  0
   40.3880   23.4190   35.1300 C   0  0  0  0  0  3  0  0  0  0  0  0
   39.4630   23.5590   36.1370 C   0  0  0  0  0  0  0  0  0  0  0  0
  1 27  1  0  0  0  0
  1  2  1  0  0  0  0
  2  7  1  0  0  0  0
  3  2  2  0  0  0  0
  3  8  1  0  0  0  0
  4  3  1  0  0  0  0
  5  6  1  0  0  0  0
  5  4  2  0  0  0  0
  6  1  2  0  0  0  0
  9  4  1  0  0  0  0
 10 11  1  0  0  0  0
 10 19  1  0  0  0  0
 11  5  1  0  0  0  0
 12 20  1  0  0  0  0
 12 11  2  0  0  0  0
 13 12  1  0  0  0  0
 14 13  1  0  0  0  0
 15 16  2  0  0  0  0
 15 14  1  0  0  0  0
 16 17  1  0  0  0  0
 17 13  2  0  0  0  0
 17 18  1  0  0  0  0
 18 10  2  0  0  0  0
 21 14  1  0  0  0  0
 22 15  1  0  0  0  0
 23 16  1  0  0  0  0
 24 18  1  0  0  0  0
 25 30  1  0  0  0  0
 26 25  2  0  0  0  0
 26 27  1  0  0  0  0
 27 28  2  0  0  0  0
 28 29  1  0  0  0  0
 29 33  1  0  0  0  0
 30 29  2  0  0  0  0
 31 25  1  0  0  0  0
 32 26  1  0  0  0  0
 33 44  2  0  0  0  0
 33 34  1  0  0  0  0
 34 35  2  0  0  0  0
 35 36  1  0  0  0  0
 37 38  1  0  0  0  0
 37 36  2  0  0  0  0
 39 40  1  0  0  0  0
 39 38  2  0  0  0  0
 41 39  1  0  0  0  0
 42 41  1  0  0  0  0
 43 41  2  0  0  0  0
 43 44  1  0  0  0  0
 44 37  1  0  0  0  0
M  END
>  <minimizedAffinity>
-7.15056562

$$$$

 OpenBabel03262522413D

 44 49  0  0  0  0  0  0  0  0999 V2000
   37.4070   26.5630   33.5440 C   0  0  0  0  0  0  0  0  0  0  0  0
   38.3870   26.4530   34.5120 C   0  0  0  0  0  0  0  0  0  0  0  0
   38.9900   25.2660   34.8530 C   0  0  0  0  0  0  0  0  0  0  0  0
   38.6210   24.1120   34.2140 C   0  0  0  0  0  0  0  0  0  0  0  0
   37.6510   24.2450   33.2610 C   0  0  0  0  0  0  0  0  0  0  0  0
   37.0720   25.4050   32.9380 N   0  0  0  0  0  0  0  0  0  0  0  0
   38.7170   27.3380   35.0500 H   0  0  0  0  0  0  0  0  0  0  0  0
   39.7540   25.2480   35.6250 H   0  0  0  0  0  0  0  0  0  0  0  0
   39.0680   23.1510   34.4470 H   0  0  0  0  0  0  0  0  0  0  0  0
   36.0590   22.9900   31.7750 C   0  0  0  0  0  0  0  0  0  0  0  0
   37.2020   23.0670   32.5380 C   0  0  0  0  0  0  0  0  0  0  0  0
   37.9270   21.8720   32.5610 C   0  0  0  0  0  0  0  0  0  0  0  0
   37.5760   20.7100   31.9070 C   0  0  0  0  0  0  0  0  0  0  0  0
   38.1310   19.4970   31.8160 N   0  0  0  0  0  0  0  0  0  0  0  0
   37.3400   18.7360   31.0280 C   0  0  0  0  0  0  0  0  0  0  0  0
   36.2460   19.4770   30.5990 C   0  0  0  0  0  0  0  0  0  0  0  0
   36.4200   20.7160   31.1670 C   0  0  0  0  0  0  0  0  0  0  0  0
   35.6530   21.8610   31.0980 C   0  0  0  0  0  0  0  0  0  0  0  0
   35.4390   23.8760   31.7050 H   0  0  0  0  0  0  0  0  0  0  0  0
   38.8460   21.8170   33.1310 H   0  0  0  0  0  0  0  0  0  0  0  0
   39.0130   19.1680   32.2600 H   0  0  0  0  0  0  0  0  0  0  0  0
   37.4400   17.6990   30.7090 H   0  0  0  0  0  0  0  0  0  0  0  0
   35.4090   19.2180   29.9660 H   0  0  0  0  0  0  0  0  0  0  0  0
   34.7380   21.8940   30.5230 H   0  0  0  0  0  0  0  0  0  0  0  0
   36.0240   29.5560   31.7330 C   0  0  0  0  0  0  0  0  0  0  0  0
   36.6690   28.3240   31.9030 C   0  0  0  0  0  0  0  0  0  0  0  0
   36.7850   27.8270   33.1950 C   0  0  0  0  0  0  0  0  0  0  0  0
   36.2690   28.5720   34.1620 N   0  0  0  0  0  0  0  0  0  0  0  0
   35.6450   29.7570   34.0310 C   0  0  0  0  0  0  0  0  0  0  0  0
   35.5350   30.2300   32.7920 N   0  0  0  0  0  0  0  0  0  0  0  0
   35.9390   29.9330   30.7200 H   0  0  0  0  0  0  0  0  0  0  0  0
   37.0820   27.7350   31.1000 H   0  0  0  0  0  0  0  0  0  0  0  0
   35.0640   30.6080   35.0440 C   0  0  0  0  0  0  0  0  0  0  0  0
   35.7520   31.6150   35.6060 N   0  0  0  0  0  0  0  0  0  0  0  0
   35.2800   32.4400   36.5460 C   0  0  0  0  0  3  0  0  0  0  0  0
   34.0310   32.3350   37.0310 N   0  0  0  0  0  0  0  0  0  0  0  0
   33.2610   31.3560   36.5310 C   0  0  0  0  0  0  0  0  0  0  0  0
   31.9750   31.2060   36.9950 C   0  0  0  0  0  3  0  0  0  0  0  0
   31.1400   30.2170   36.5170 C   0  0  0  0  0  0  0  0  0  0  0  0
   30.1380   30.1090   36.8860 H   0  0  0  0  0  0  0  0  0  0  0  0
   31.6650   29.3800   35.5420 C   0  0  0  0  0  0  0  0  0  0  0  0
   30.9850   28.6090   35.1830 H   0  0  0  0  0  0  0  0  0  0  0  0
   32.9450   29.5580   35.1060 C   0  0  0  0  0  3  0  0  0  0  0  0
   33.7960   30.5340   35.5670 C   0  0  0  0  0  0  0  0  0  0  0  0
  1  2  1  0  0  0  0
  2  3  2  0  0  0  0
  2  7  1  0  0  0  0
  3  8  1  0  0  0  0
  4  9  1  0  0  0  0
  4  3  1  0  0  0  0
  5  4  2  0  0  0  0
  6  5  1  0  0  0  0
  6  1  2  0  0  0  0
 10 11  1  0  0  0  0
 11 12  2  0  0  0  0
 11  5  1  0  0  0  0
 12 20  1  0  0  0  0
 13 12  1  0  0  0  0
 14 13  1  0  0  0  0
 14 21  1  0  0  0  0
 15 14  1  0  0  0  0
 16 15  2  0  0  0  0
 16 17  1  0  0  0  0
 17 13  2  0  0  0  0
 18 17  1  0  0  0  0
 18 10  2  0  0  0  0
 19 10  1  0  0  0  0
 22 15  1  0  0  0  0
 23 16  1  0  0  0  0
 24 18  1  0  0  0  0
 25 26  2  0  0  0  0
 25 30  1  0  0  0  0
 26 27  1  0  0  0  0
 27  1  1  0  0  0  0
 27 28  2  0  0  0  0
 29 28  1  0  0  0  0
 29 33  1  0  0  0  0
 30 29  2  0  0  0  0
 31 25  1  0  0  0  0
 32 26  1  0  0  0  0
 33 44  2  0  0  0  0
 33 34  1  0  0  0  0
 34 35  2  0  0  0  0
 35 36  1  0  0  0  0
 37 38  1  0  0  0  0
 37 36  2  0  0  0  0
 39 40  1  0  0  0  0
 39 38  2  0  0  0  0
 41 39  1  0  0  0  0
 42 41  1  0  0  0  0
 43 41  2  0  0  0  0
 43 44  1  0  0  0  0
 44 37  1  0  0  0  0
M  END
>  <minimizedAffinity>
-7.11078691

$$$$

 OpenBabel03262522413D

 44 49  0  0  0  0  0  0  0  0999 V2000
   37.4340   27.9760   31.5030 C   0  0  0  0  0  0  0  0  0  0  0  0
   37.4480   28.7370   30.3510 C   0  0  0  0  0  0  0  0  0  0  0  0
   36.7030   29.8800   30.1840 C   0  0  0  0  0  0  0  0  0  0  0  0
   35.8920   30.3130   31.2010 C   0  0  0  0  0  0  0  0  0  0  0  0
   35.8950   29.5450   32.3300 C   0  0  0  0  0  0  0  0  0  0  0  0
   36.6250   28.4350   32.4810 N   0  0  0  0  0  0  0  0  0  0  0  0
   38.0730   28.4390   29.5130 H   0  0  0  0  0  0  0  0  0  0  0  0
   36.7580   30.4330   29.2510 H   0  0  0  0  0  0  0  0  0  0  0  0
   35.2860   31.2090   31.1180 H   0  0  0  0  0  0  0  0  0  0  0  0
   33.7720   29.5080   33.6740 C   0  0  0  0  0  0  0  0  0  0  0  0
   35.0610   29.9360   33.4550 C   0  0  0  0  0  0  0  0  0  0  0  0
   35.5240   30.8110   34.4410 C   0  0  0  0  0  0  0  0  0  0  0  0
   34.8030   31.2340   35.5380 C   0  0  0  0  0  0  0  0  0  0  0  0
   35.0730   32.0490   36.5630 N   0  0  0  0  0  0  0  0  0  0  0  0
   33.9790   32.0990   37.3540 C   0  0  0  0  0  0  0  0  0  0  0  0
   32.9770   31.2930   36.8270 C   0  0  0  0  0  0  0  0  0  0  0  0
   33.5230   30.7610   35.6840 C   0  0  0  0  0  0  0  0  0  0  0  0
   32.9990   29.8920   34.7480 C   0  0  0  0  0  0  0  0  0  0  0  0
   33.3370   28.8250   32.9530 H   0  0  0  0  0  0  0  0  0  0  0  0
   36.5270   31.2110   34.3710 H   0  0  0  0  0  0  0  0  0  0  0  0
   35.9570   32.5670   36.7460 H   0  0  0  0  0  0  0  0  0  0  0  0
   33.7940   32.6430   38.2790 H   0  0  0  0  0  0  0  0  0  0  0  0
   31.9750   31.0790   37.1710 H   0  0  0  0  0  0  0  0  0  0  0  0
   31.9940   29.5050   34.8380 H   0  0  0  0  0  0  0  0  0  0  0  0
   40.1370   25.3640   31.3630 C   0  0  0  0  0  0  0  0  0  0  0  0
   39.4890   26.5770   31.1020 C   0  0  0  0  0  0  0  0  0  0  0  0
   38.2330   26.7740   31.6610 C   0  0  0  0  0  0  0  0  0  0  0  0
   37.7550   25.7850   32.4010 N   0  0  0  0  0  0  0  0  0  0  0  0
   38.3520   24.6100   32.6720 C   0  0  0  0  0  0  0  0  0  0  0  0
   39.5560   24.4240   32.1350 N   0  0  0  0  0  0  0  0  0  0  0  0
   41.1170   25.2220   30.9220 H   0  0  0  0  0  0  0  0  0  0  0  0
   39.8970   27.3690   30.4940 H   0  0  0  0  0  0  0  0  0  0  0  0
   37.8830   23.5000   33.4710 C   0  0  0  0  0  0  0  0  0  0  0  0
   38.2940   23.3120   34.7350 N   0  0  0  0  0  0  0  0  0  0  0  0
   37.9030   22.3110   35.5300 C   0  0  0  0  0  3  0  0  0  0  0  0
   37.0330   21.3700   35.1250 N   0  0  0  0  0  0  0  0  0  0  0  0
   36.5620   21.4730   33.8720 C   0  0  0  0  0  0  0  0  0  0  0  0
   35.6680   20.5340   33.4100 C   0  0  0  0  0  3  0  0  0  0  0  0
   35.1520   20.5910   32.1310 C   0  0  0  0  0  0  0  0  0  0  0  0
   34.4550   19.8530   31.7800 H   0  0  0  0  0  0  0  0  0  0  0  0
   35.5810   21.6430   31.3340 C   0  0  0  0  0  0  0  0  0  0  0  0
   35.1580   21.6620   30.3310 H   0  0  0  0  0  0  0  0  0  0  0  0
   36.4690   22.5550   31.8270 C   0  0  0  0  0  3  0  0  0  0  0  0
   36.9960   22.5200   33.0960 C   0  0  0  0  0  0  0  0  0  0  0  0
  1 27  1  0  0  0  0
  1  6  1  0  0  0  0
  2  1  2  0  0  0  0
  3  2  1  0  0  0  0
  3  4  2  0  0  0  0
  4  5  1  0  0  0  0
  5  6  2  0  0  0  0
  5 11  1  0  0  0  0
  7  2  1  0  0  0  0
  8  3  1  0  0  0  0
  9  4  1  0  0  0  0
 10 18  1  0  0  0  0
 11 10  2  0  0  0  0
 11 12  1  0  0  0  0
 12 13  2  0  0  0  0
 13 17  1  0  0  0  0
 13 14  1  0  0  0  0
 14 21  1  0  0  0  0
 14 15  1  0  0  0  0
 15 22  1  0  0  0  0
 16 23  1  0  0  0  0
 16 15  2  0  0  0  0
 17 16  1  0  0  0  0
 18 24  1  0  0  0  0
 18 17  2  0  0  0  0
 19 10  1  0  0  0  0
 20 12  1  0  0  0  0
 25 30  1  0  0  0  0
 26 25  2  0  0  0  0
 26 27  1  0  0  0  0
 27 28  2  0  0  0  0
 28 29  1  0  0  0  0
 29 33  1  0  0  0  0
 30 29  2  0  0  0  0
 31 25  1  0  0  0  0
 32 26  1  0  0  0  0
 33 34  1  0  0  0  0
 34 35  2  0  0  0  0
 36 35  1  0  0  0  0
 37 36  2  0  0  0  0
 38 37  1  0  0  0  0
 39 38  2  0  0  0  0
 40 39  1  0  0  0  0
 41 43  2  0  0  0  0
 41 39  1  0  0  0  0
 42 41  1  0  0  0  0
 43 44  1  0  0  0  0
 44 33  2  0  0  0  0
 44 37  1  0  0  0  0
M  END
>  <minimizedAffinity>
-7.11045122

$$$$

 OpenBabel03262522413D

 44 49  0  0  0  0  0  0  0  0999 V2000
   37.4670   28.1850   31.6030 C   0  0  0  0  0  0  0  0  0  0  0  0
   37.4430   28.8910   30.4170 C   0  0  0  0  0  0  0  0  0  0  0  0
   36.6470   29.9920   30.2000 C   0  0  0  0  0  0  0  0  0  0  0  0
   35.8230   30.4360   31.2000 C   0  0  0  0  0  0  0  0  0  0  0  0
   35.8630   29.7230   32.3650 C   0  0  0  0  0  0  0  0  0  0  0  0
   36.6410   28.6550   32.5630 N   0  0  0  0  0  0  0  0  0  0  0  0
   38.0780   28.5820   29.5900 H   0  0  0  0  0  0  0  0  0  0  0  0
   36.6750   30.5020   29.2420 H   0  0  0  0  0  0  0  0  0  0  0  0
   35.1770   31.2990   31.0790 H   0  0  0  0  0  0  0  0  0  0  0  0
   33.6900   29.7970   33.6240 C   0  0  0  0  0  0  0  0  0  0  0  0
   35.0170   30.1290   33.4740 C   0  0  0  0  0  0  0  0  0  0  0  0
   35.5060   30.9190   34.5180 C   0  0  0  0  0  0  0  0  0  0  0  0
   34.7760   31.3500   35.6060 C   0  0  0  0  0  0  0  0  0  0  0  0
   35.0660   32.0950   36.6770 N   0  0  0  0  0  0  0  0  0  0  0  0
   33.9480   32.1970   37.4280 C   0  0  0  0  0  0  0  0  0  0  0  0
   32.9080   31.4990   36.8260 C   0  0  0  0  0  0  0  0  0  0  0  0
   33.4580   30.9750   35.6800 C   0  0  0  0  0  0  0  0  0  0  0  0
   32.9060   30.1940   34.6850 C   0  0  0  0  0  0  0  0  0  0  0  0
   33.2330   29.1840   32.8560 H   0  0  0  0  0  0  0  0  0  0  0  0
   36.5400   31.2400   34.5040 H   0  0  0  0  0  0  0  0  0  0  0  0
   35.9800   32.5310   36.9180 H   0  0  0  0  0  0  0  0  0  0  0  0
   33.7680   32.7130   38.3710 H   0  0  0  0  0  0  0  0  0  0  0  0
   31.8790   31.3510   37.1210 H   0  0  0  0  0  0  0  0  0  0  0  0
   31.8710   29.8850   34.7190 H   0  0  0  0  0  0  0  0  0  0  0  0
   40.2570   25.6640   31.5230 C   0  0  0  0  0  0  0  0  0  0  0  0
   39.5490   26.8280   31.2010 C   0  0  0  0  0  0  0  0  0  0  0  0
   38.3180   27.0280   31.8130 C   0  0  0  0  0  0  0  0  0  0  0  0
   37.9200   26.0890   32.6570 N   0  0  0  0  0  0  0  0  0  0  0  0
   38.5750   24.9610   32.9880 C   0  0  0  0  0  0  0  0  0  0  0  0
   39.7550   24.7720   32.4000 N   0  0  0  0  0  0  0  0  0  0  0  0
   41.2160   25.5190   31.0400 H   0  0  0  0  0  0  0  0  0  0  0  0
   39.8930   27.5800   30.5090 H   0  0  0  0  0  0  0  0  0  0  0  0
   38.1920   23.9070   33.9000 C   0  0  0  0  0  0  0  0  0  0  0  0
   37.8830   22.6740   33.4690 N   0  0  0  0  0  0  0  0  0  0  0  0
   37.5210   21.6530   34.2530 C   0  0  0  0  0  3  0  0  0  0  0  0
   37.4310   21.7710   35.5890 N   0  0  0  0  0  0  0  0  0  0  0  0
   37.7210   22.9690   36.1170 C   0  0  0  0  0  0  0  0  0  0  0  0
   37.6430   23.1420   37.4800 C   0  0  0  0  0  3  0  0  0  0  0  0
   37.9300   24.3520   38.0770 C   0  0  0  0  0  0  0  0  0  0  0  0
   37.8660   24.4760   39.1420 H   0  0  0  0  0  0  0  0  0  0  0  0
   38.3020   25.3880   37.2320 C   0  0  0  0  0  0  0  0  0  0  0  0
   38.5230   26.3320   37.7300 H   0  0  0  0  0  0  0  0  0  0  0  0
   38.3680   25.1810   35.8850 C   0  0  0  0  0  3  0  0  0  0  0  0
   38.0870   23.9860   35.2670 C   0  0  0  0  0  0  0  0  0  0  0  0
  1 27  1  0  0  0  0
  1  6  1  0  0  0  0
  2  1  2  0  0  0  0
  3  2  1  0  0  0  0
  3  4  2  0  0  0  0
  4  5  1  0  0  0  0
  5  6  2  0  0  0  0
  5 11  1  0  0  0  0
  7  2  1  0  0  0  0
  8  3  1  0  0  0  0
  9  4  1  0  0  0  0
 10 18  1  0  0  0  0
 11 10  2  0  0  0  0
 11 12  1  0  0  0  0
 12 13  2  0  0  0  0
 13 17  1  0  0  0  0
 13 14  1  0  0  0  0
 14 21  1  0  0  0  0
 14 15  1  0  0  0  0
 15 22  1  0  0  0  0
 16 23  1  0  0  0  0
 16 15  2  0  0  0  0
 17 16  1  0  0  0  0
 18 24  1  0  0  0  0
 18 17  2  0  0  0  0
 19 10  1  0  0  0  0
 20 12  1  0  0  0  0
 25 30  1  0  0  0  0
 26 25  2  0  0  0  0
 26 27  1  0  0  0  0
 27 28  2  0  0  0  0
 28 29  1  0  0  0  0
 29 33  1  0  0  0  0
 30 29  2  0  0  0  0
 31 25  1  0  0  0  0
 32 26  1  0  0  0  0
 33 44  1  0  0  0  0
 34 33  2  0  0  0  0
 34 35  1  0  0  0  0
 35 36  2  0  0  0  0
 36 37  1  0  0  0  0
 37 38  1  0  0  0  0
 38 39  2  0  0  0  0
 39 40  1  0  0  0  0
 41 42  1  0  0  0  0
 41 39  1  0  0  0  0
 43 41  2  0  0  0  0
 44 43  1  0  0  0  0
 44 37  2  0  0  0  0
M  END
>  <minimizedAffinity>
-7.07173157

$$$$
