
 OpenBabel03272507133D

 43 48  0  0  0  0  0  0  0  0999 V2000
   37.0500   29.5000   49.9010 C   0  0  0  0  0  0  0  0  0  0  0  0
   37.7580   28.9450   50.7860 O   0  0  0  0  0  0  0  0  0  0  0  0
   37.5610   30.5220   49.0110 C   0  0  0  0  0  0  0  0  0  0  0  0
   38.2640   31.5700   49.5530 C   0  0  0  0  0  0  0  0  0  0  0  0
   38.7660   32.5440   48.7110 C   0  0  0  0  0  0  0  0  0  0  0  0
   38.5340   32.4100   47.3920 N   0  0  0  0  0  0  0  0  0  0  0  0
   37.8560   31.4030   46.8490 C   0  0  0  0  0  0  0  0  0  0  0  0
   37.3880   30.4830   47.7040 N   0  0  0  0  0  0  0  0  0  0  0  0
   38.4590   31.6960   50.6040 H   0  0  0  0  0  0  0  0  0  0  0  0
   39.3210   33.3990   48.9980 H   0  0  0  0  0  0  0  0  0  0  0  0
   37.4910   31.0700   45.4560 C   0  0  0  0  0  0  0  0  0  0  0  0
   36.2350   30.9070   45.0280 N   0  0  0  0  0  0  0  0  0  0  0  0
   35.9520   30.6080   43.7630 C   0  0  0  0  0  3  0  0  0  0  0  0
   36.8750   30.4400   42.8100 N   0  0  0  0  0  0  0  0  0  0  0  0
   38.1710   30.5840   43.1550 C   0  0  0  0  0  0  0  0  0  0  0  0
   39.1220   30.4140   42.1780 C   0  0  0  0  0  3  0  0  0  0  0  0
   40.4540   30.5540   42.4920 C   0  0  0  0  0  0  0  0  0  0  0  0
   41.1490   30.4110   41.6940 H   0  0  0  0  0  0  0  0  0  0  0  0
   40.7780   30.8660   43.7980 C   0  0  0  0  0  0  0  0  0  0  0  0
   41.8340   30.9650   43.9930 H   0  0  0  0  0  0  0  0  0  0  0  0
   39.7770   31.0240   44.7300 C   0  0  0  0  0  3  0  0  0  0  0  0
   38.4350   30.8950   44.4690 C   0  0  0  0  0  0  0  0  0  0  0  0
   35.6600   29.1090   49.7520 C   0  0  0  0  0  0  0  0  0  0  0  0
   34.6920   29.5630   50.5880 C   0  0  0  0  0  0  0  0  0  0  0  0
   33.4870   28.9920   50.1590 C   0  0  0  0  0  0  0  0  0  0  0  0
   33.8140   28.2080   49.0590 C   0  0  0  0  0  0  0  0  0  0  0  0
   35.1100   28.3170   48.8680 O   0  0  0  0  0  0  0  0  0  0  0  0
   34.7910   30.2430   51.4450 H   0  0  0  0  0  0  0  0  0  0  0  0
   32.5390   29.1790   50.6470 H   0  0  0  0  0  0  0  0  0  0  0  0
   33.1750   26.4440   47.3950 C   0  0  0  0  0  0  0  0  0  0  0  0
   32.8390   27.4260   48.2950 C   0  0  0  0  0  0  0  0  0  0  0  0
   31.5140   27.7510   48.5410 C   0  0  0  0  0  0  0  0  0  0  0  0
   30.5190   27.0650   47.8590 C   0  0  0  0  0  0  0  0  0  0  0  0
   29.1910   27.1580   47.8860 N   0  0  0  0  0  0  0  0  0  0  0  0
   28.7160   26.2600   47.0270 N   0  0  0  0  0  0  0  0  0  0  0  0
   29.7320   25.5930   46.4520 C   0  0  0  0  0  0  0  0  0  0  0  0
   30.9150   26.0800   46.9580 C   0  0  0  0  0  0  0  0  0  0  0  0
   32.2470   25.7470   46.7070 C   0  0  0  0  0  0  0  0  0  0  0  0
   34.2260   26.2410   47.2520 H   0  0  0  0  0  0  0  0  0  0  0  0
   31.1590   28.5190   49.2400 H   0  0  0  0  0  0  0  0  0  0  0  0
   28.6180   27.8160   48.4740 H   0  0  0  0  0  0  0  0  0  0  0  0
   29.5980   24.8160   45.7210 H   0  0  0  0  0  0  0  0  0  0  0  0
   32.4680   24.9650   45.9870 H   0  0  0  0  0  0  0  0  0  0  0  0
  1  2  2  0  0  0  0
  3  4  1  0  0  0  0
  3  1  1  0  0  0  0
  4  9  1  0  0  0  0
  5 10  1  0  0  0  0
  5  4  2  0  0  0  0
  6  5  1  0  0  0  0
  7  6  2  0  0  0  0
  7  8  1  0  0  0  0
  8  3  2  0  0  0  0
 11  7  1  0  0  0  0
 12 11  1  0  0  0  0
 13 12  2  0  0  0  0
 14 15  2  0  0  0  0
 14 13  1  0  0  0  0
 15 22  1  0  0  0  0
 16 17  2  0  0  0  0
 16 15  1  0  0  0  0
 17 19  1  0  0  0  0
 18 17  1  0  0  0  0
 19 20  1  0  0  0  0
 19 21  2  0  0  0  0
 22 21  1  0  0  0  0
 22 11  2  0  0  0  0
 23  1  1  0  0  0  0
 23 24  2  0  0  0  0
 24 28  1  0  0  0  0
 25 24  1  0  0  0  0
 25 29  1  0  0  0  0
 26 25  2  0  0  0  0
 27 26  1  0  0  0  0
 27 23  1  0  0  0  0
 30 31  1  0  0  0  0
 31 32  2  0  0  0  0
 31 26  1  0  0  0  0
 32 40  1  0  0  0  0
 33 34  1  0  0  0  0
 33 32  1  0  0  0  0
 34 41  1  0  0  0  0
 35 34  1  0  0  0  0
 36 37  1  0  0  0  0
 36 35  2  0  0  0  0
 37 33  2  0  0  0  0
 38 37  1  0  0  0  0
 38 30  2  0  0  0  0
 39 30  1  0  0  0  0
 42 36  1  0  0  0  0
 43 38  1  0  0  0  0
M  END
>  <minimizedAffinity>
-7.09558153

>  <minimizedRMSD>
0.982029259

$$$$
