
 OpenBabel03262523143D

 32 35  0  0  0  0  0  0  0  0999 V2000
   36.7950   25.0840   32.1570 C   0  0  0  0  0  0  0  0  0  0  0  0
   35.9800   24.1570   31.5910 C   0  0  0  0  0  0  0  0  0  0  0  0
   36.2250   22.8700   32.0000 C   0  0  0  0  0  0  0  0  0  0  0  0
   37.2010   22.5250   32.8980 C   0  0  0  0  0  0  0  0  0  0  0  0
   38.0030   23.5380   33.4390 C   0  0  0  0  0  0  0  0  0  0  0  0
   37.7540   24.7790   33.0360 N   0  0  0  0  0  0  0  0  0  0  0  0
   35.2220   24.4670   30.8870 H   0  0  0  0  0  0  0  0  0  0  0  0
   35.5940   22.0700   31.5740 H   0  0  0  0  0  0  0  0  0  0  0  0
   37.3080   21.4970   33.1470 H   0  0  0  0  0  0  0  0  0  0  0  0
   38.9980   23.0420   34.3760 C   0  0  0  0  0  0  0  0  0  0  0  0
   40.0980   22.3890   33.9710 N   0  0  0  0  0  0  0  0  0  0  0  0
   41.0420   21.9130   34.7890 C   0  0  0  0  0  3  0  0  0  0  0  0
   40.9800   22.0420   36.1160 N   0  0  0  0  0  0  0  0  0  0  0  0
   39.9070   22.6860   36.6190 C   0  0  0  0  0  0  0  0  0  0  0  0
   39.8080   22.8380   37.9820 C   0  0  0  0  0  3  0  0  0  0  0  0
   38.7290   23.4890   38.5540 C   0  0  0  0  0  0  0  0  0  0  0  0
   38.7570   23.5500   39.6300 H   0  0  0  0  0  0  0  0  0  0  0  0
   37.7580   23.9760   37.6750 C   0  0  0  0  0  0  0  0  0  0  0  0
   36.9330   24.4790   38.1730 H   0  0  0  0  0  0  0  0  0  0  0  0
   37.9060   23.7980   36.3360 C   0  0  0  0  0  3  0  0  0  0  0  0
   38.9570   23.1610   35.7440 C   0  0  0  0  0  0  0  0  0  0  0  0
   36.8200   28.1740   30.1740 C   0  0  0  0  0  0  0  0  0  0  0  0
   36.4900   29.1640   31.1320 C   0  0  0  0  0  0  0  0  0  0  0  0
   36.2630   28.7490   32.4410 C   0  0  0  0  0  0  0  0  0  0  0  0
   36.3700   27.4360   32.7180 N   0  0  0  0  0  0  0  0  0  0  0  0
   36.6800   26.5060   31.8200 C   0  0  0  0  0  0  0  0  0  0  0  0
   36.9040   26.9020   30.5360 N   0  0  0  0  0  0  0  0  0  0  0  0
   36.4290   30.1800   30.8100 H   0  0  0  0  0  0  0  0  0  0  0  0
   36.0120   29.4760   33.1830 H   0  0  0  0  0  0  0  0  0  0  0  0
   37.0680   28.5140   28.8200 N   0  0  0  0  0  0  0  0  0  0  0  0
   36.8170   27.8480   28.0700 H   0  0  0  0  0  0  0  0  0  0  0  0
   37.5040   29.4310   28.5450 H   0  0  0  0  0  0  0  0  0  0  0  0
  1  6  1  0  0  0  0
  2  3  1  0  0  0  0
  2  1  2  0  0  0  0
  3  4  2  0  0  0  0
  4  9  1  0  0  0  0
  4  5  1  0  0  0  0
  5 10  1  0  0  0  0
  6  5  2  0  0  0  0
  7  2  1  0  0  0  0
  8  3  1  0  0  0  0
 10 21  1  0  0  0  0
 11 10  2  0  0  0  0
 11 12  1  0  0  0  0
 12 13  2  0  0  0  0
 13 14  1  0  0  0  0
 14 15  1  0  0  0  0
 15 16  2  0  0  0  0
 16 17  1  0  0  0  0
 18 19  1  0  0  0  0
 18 16  1  0  0  0  0
 20 18  2  0  0  0  0
 21 20  1  0  0  0  0
 21 14  2  0  0  0  0
 22 27  2  0  0  0  0
 22 23  1  0  0  0  0
 23 24  2  0  0  0  0
 24 25  1  0  0  0  0
 24 29  1  0  0  0  0
 26  1  1  0  0  0  0
 26 25  2  0  0  0  0
 27 26  1  0  0  0  0
 28 23  1  0  0  0  0
 30 22  1  0  0  0  0
 31 30  1  0  0  0  0
 32 30  1  0  0  0  0
M  END
>  <minimizedAffinity>
-6.27599812

$$$$

 OpenBabel03262523143D

 32 35  0  0  0  0  0  0  0  0999 V2000
   38.0410   23.4070   34.2770 C   0  0  0  0  0  0  0  0  0  0  0  0
   37.5320   22.3060   33.6680 C   0  0  0  0  0  0  0  0  0  0  0  0
   37.2740   22.4730   32.3300 C   0  0  0  0  0  0  0  0  0  0  0  0
   37.5000   23.6410   31.6470 C   0  0  0  0  0  0  0  0  0  0  0  0
   38.0280   24.7340   32.3450 C   0  0  0  0  0  0  0  0  0  0  0  0
   38.2740   24.5580   33.6380 N   0  0  0  0  0  0  0  0  0  0  0  0
   37.3670   21.4040   34.2380 H   0  0  0  0  0  0  0  0  0  0  0  0
   36.8580   21.6120   31.7780 H   0  0  0  0  0  0  0  0  0  0  0  0
   37.2650   23.6650   30.6110 H   0  0  0  0  0  0  0  0  0  0  0  0
   38.2200   25.9080   31.5090 C   0  0  0  0  0  0  0  0  0  0  0  0
   39.1070   25.9320   30.5020 N   0  0  0  0  0  0  0  0  0  0  0  0
   39.3210   26.9830   29.7050 C   0  0  0  0  0  3  0  0  0  0  0  0
   38.6630   28.1360   29.8370 N   0  0  0  0  0  0  0  0  0  0  0  0
   37.7480   28.2090   30.8260 C   0  0  0  0  0  0  0  0  0  0  0  0
   37.0500   29.3810   30.9930 C   0  0  0  0  0  3  0  0  0  0  0  0
   36.1000   29.5130   31.9900 C   0  0  0  0  0  0  0  0  0  0  0  0
   35.6140   30.4760   32.0280 H   0  0  0  0  0  0  0  0  0  0  0  0
   35.8960   28.3990   32.8080 C   0  0  0  0  0  0  0  0  0  0  0  0
   35.1410   28.5530   33.5750 H   0  0  0  0  0  0  0  0  0  0  0  0
   36.6140   27.2650   32.5990 C   0  0  0  0  0  3  0  0  0  0  0  0
   37.5560   27.1050   31.6250 C   0  0  0  0  0  0  0  0  0  0  0  0
   39.6890   22.5510   37.4440 C   0  0  0  0  0  0  0  0  0  0  0  0
   38.9980   23.3540   38.3840 C   0  0  0  0  0  0  0  0  0  0  0  0
   37.9790   24.1760   37.9100 C   0  0  0  0  0  0  0  0  0  0  0  0
   37.7130   24.1590   36.5910 N   0  0  0  0  0  0  0  0  0  0  0  0
   38.3610   23.4060   35.7080 C   0  0  0  0  0  0  0  0  0  0  0  0
   39.3600   22.5980   36.1620 N   0  0  0  0  0  0  0  0  0  0  0  0
   39.2860   23.2950   39.4100 H   0  0  0  0  0  0  0  0  0  0  0  0
   37.4420   24.7920   38.5980 H   0  0  0  0  0  0  0  0  0  0  0  0
   40.7380   21.6860   37.8470 N   0  0  0  0  0  0  0  0  0  0  0  0
   41.5280   21.5050   37.2050 H   0  0  0  0  0  0  0  0  0  0  0  0
   40.7430   21.2130   38.7870 H   0  0  0  0  0  0  0  0  0  0  0  0
  1 26  1  0  0  0  0
  2  7  1  0  0  0  0
  2  1  1  0  0  0  0
  3  2  2  0  0  0  0
  4  3  1  0  0  0  0
  4  5  2  0  0  0  0
  5  6  1  0  0  0  0
  6  1  2  0  0  0  0
  8  3  1  0  0  0  0
  9  4  1  0  0  0  0
 10 21  1  0  0  0  0
 10  5  1  0  0  0  0
 11 10  2  0  0  0  0
 12 13  2  0  0  0  0
 12 11  1  0  0  0  0
 13 14  1  0  0  0  0
 14 15  2  0  0  0  0
 14 21  1  0  0  0  0
 15 16  1  0  0  0  0
 16 17  1  0  0  0  0
 16 18  2  0  0  0  0
 18 19  1  0  0  0  0
 20 18  1  0  0  0  0
 21 20  2  0  0  0  0
 22 30  1  0  0  0  0
 22 23  1  0  0  0  0
 23 28  1  0  0  0  0
 24 23  2  0  0  0  0
 24 29  1  0  0  0  0
 25 24  1  0  0  0  0
 26 27  1  0  0  0  0
 26 25  2  0  0  0  0
 27 22  2  0  0  0  0
 30 32  1  0  0  0  0
 31 30  1  0  0  0  0
M  END
>  <minimizedAffinity>
-6.04348898

$$$$

 OpenBabel03262523143D

 32 35  0  0  0  0  0  0  0  0999 V2000
   35.2290   29.9060   33.7550 C   0  0  0  0  0  0  0  0  0  0  0  0
   35.5410   30.7300   32.7210 C   0  0  0  0  0  0  0  0  0  0  0  0
   36.3300   30.1490   31.7590 C   0  0  0  0  0  0  0  0  0  0  0  0
   36.7770   28.8540   31.8160 C   0  0  0  0  0  0  0  0  0  0  0  0
   36.4130   28.0660   32.9150 C   0  0  0  0  0  0  0  0  0  0  0  0
   35.6490   28.6400   33.8370 N   0  0  0  0  0  0  0  0  0  0  0  0
   35.1690   31.7440   32.7110 H   0  0  0  0  0  0  0  0  0  0  0  0
   36.6180   30.7690   30.8920 H   0  0  0  0  0  0  0  0  0  0  0  0
   37.3850   28.5020   31.0180 H   0  0  0  0  0  0  0  0  0  0  0  0
   36.9510   26.7170   32.8550 C   0  0  0  0  0  0  0  0  0  0  0  0
   36.3670   25.7450   32.1360 N   0  0  0  0  0  0  0  0  0  0  0  0
   36.8210   24.4910   32.0470 C   0  0  0  0  0  3  0  0  0  0  0  0
   37.9190   24.0730   32.6790 N   0  0  0  0  0  0  0  0  0  0  0  0
   38.5770   24.9820   33.4300 C   0  0  0  0  0  0  0  0  0  0  0  0
   39.7130   24.5880   34.0960 C   0  0  0  0  0  3  0  0  0  0  0  0
   40.4270   25.4760   34.8810 C   0  0  0  0  0  0  0  0  0  0  0  0
   41.3010   25.0590   35.3560 H   0  0  0  0  0  0  0  0  0  0  0  0
   39.9300   26.7810   34.9550 C   0  0  0  0  0  0  0  0  0  0  0  0
   40.5270   27.4390   35.5830 H   0  0  0  0  0  0  0  0  0  0  0  0
   38.8030   27.1160   34.2760 C   0  0  0  0  0  3  0  0  0  0  0  0
   38.0780   26.2620   33.4960 C   0  0  0  0  0  0  0  0  0  0  0  0
   34.2280   31.7390   36.7740 C   0  0  0  0  0  0  0  0  0  0  0  0
   32.9120   31.2690   37.0050 C   0  0  0  0  0  0  0  0  0  0  0  0
   32.3940   30.3310   36.1160 C   0  0  0  0  0  0  0  0  0  0  0  0
   33.1710   29.9290   35.0940 N   0  0  0  0  0  0  0  0  0  0  0  0
   34.4060   30.3700   34.8760 C   0  0  0  0  0  0  0  0  0  0  0  0
   34.9230   31.2880   35.7400 N   0  0  0  0  0  0  0  0  0  0  0  0
   32.3780   31.6510   37.8460 H   0  0  0  0  0  0  0  0  0  0  0  0
   31.4030   29.9600   36.2680 H   0  0  0  0  0  0  0  0  0  0  0  0
   34.8290   32.6930   37.6340 N   0  0  0  0  0  0  0  0  0  0  0  0
   35.5000   33.3790   37.2490 H   0  0  0  0  0  0  0  0  0  0  0  0
   34.6170   32.7300   38.6640 H   0  0  0  0  0  0  0  0  0  0  0  0
  1  6  1  0  0  0  0
  1 26  1  0  0  0  0
  2  1  2  0  0  0  0
  3  4  2  0  0  0  0
  3  2  1  0  0  0  0
  4  5  1  0  0  0  0
  5  6  2  0  0  0  0
  7  2  1  0  0  0  0
  8  3  1  0  0  0  0
  9  4  1  0  0  0  0
 10  5  1  0  0  0  0
 10 21  1  0  0  0  0
 11 10  2  0  0  0  0
 12 11  1  0  0  0  0
 12 13  2  0  0  0  0
 13 14  1  0  0  0  0
 14 21  2  0  0  0  0
 14 15  1  0  0  0  0
 15 16  2  0  0  0  0
 16 18  1  0  0  0  0
 16 17  1  0  0  0  0
 18 19  1  0  0  0  0
 20 18  2  0  0  0  0
 21 20  1  0  0  0  0
 22 23  1  0  0  0  0
 22 30  1  0  0  0  0
 23 28  1  0  0  0  0
 24 29  1  0  0  0  0
 24 23  2  0  0  0  0
 25 24  1  0  0  0  0
 26 25  2  0  0  0  0
 26 27  1  0  0  0  0
 27 22  2  0  0  0  0
 30 32  1  0  0  0  0
 31 30  1  0  0  0  0
M  END
>  <minimizedAffinity>
-6.02980757

$$$$

 OpenBabel03262523143D

 32 35  0  0  0  0  0  0  0  0999 V2000
   37.7540   27.5790   32.6670 C   0  0  0  0  0  0  0  0  0  0  0  0
   38.0040   27.9130   31.3750 C   0  0  0  0  0  0  0  0  0  0  0  0
   37.0710   28.7540   30.8210 C   0  0  0  0  0  0  0  0  0  0  0  0
   35.9730   29.2270   31.4930 C   0  0  0  0  0  0  0  0  0  0  0  0
   35.7830   28.8370   32.8250 C   0  0  0  0  0  0  0  0  0  0  0  0
   36.6940   28.0250   33.3480 N   0  0  0  0  0  0  0  0  0  0  0  0
   38.8800   27.5210   30.8790 H   0  0  0  0  0  0  0  0  0  0  0  0
   37.2200   29.0620   29.7720 H   0  0  0  0  0  0  0  0  0  0  0  0
   35.3100   29.8740   30.9710 H   0  0  0  0  0  0  0  0  0  0  0  0
   34.5850   29.4060   33.4220 C   0  0  0  0  0  0  0  0  0  0  0  0
   33.3540   29.1100   32.9750 N   0  0  0  0  0  0  0  0  0  0  0  0
   32.2230   29.6040   33.4870 C   0  0  0  0  0  3  0  0  0  0  0  0
   32.2060   30.4580   34.5130 N   0  0  0  0  0  0  0  0  0  0  0  0
   33.3990   30.8160   35.0310 C   0  0  0  0  0  0  0  0  0  0  0  0
   33.4220   31.6950   36.0880 C   0  0  0  0  0  3  0  0  0  0  0  0
   34.6160   32.0980   36.6590 C   0  0  0  0  0  0  0  0  0  0  0  0
   34.5140   32.7880   37.4810 H   0  0  0  0  0  0  0  0  0  0  0  0
   35.7830   31.5650   36.1030 C   0  0  0  0  0  0  0  0  0  0  0  0
   36.6930   31.9120   36.5870 H   0  0  0  0  0  0  0  0  0  0  0  0
   35.7030   30.7010   35.0590 C   0  0  0  0  0  3  0  0  0  0  0  0
   34.5410   30.2860   34.4760 C   0  0  0  0  0  0  0  0  0  0  0  0
   40.7540   26.3180   34.3650 C   0  0  0  0  0  0  0  0  0  0  0  0
   40.3580   25.0240   34.7830 C   0  0  0  0  0  0  0  0  0  0  0  0
   39.0660   24.6110   34.4730 C   0  0  0  0  0  0  0  0  0  0  0  0
   38.2720   25.4630   33.7980 N   0  0  0  0  0  0  0  0  0  0  0  0
   38.6420   26.6770   33.4070 C   0  0  0  0  0  0  0  0  0  0  0  0
   39.9060   27.0920   33.7050 N   0  0  0  0  0  0  0  0  0  0  0  0
   41.0650   24.4250   35.3130 H   0  0  0  0  0  0  0  0  0  0  0  0
   38.7410   23.6380   34.7760 H   0  0  0  0  0  0  0  0  0  0  0  0
   42.0550   26.8130   34.6400 N   0  0  0  0  0  0  0  0  0  0  0  0
   42.1930   27.8250   34.8060 H   0  0  0  0  0  0  0  0  0  0  0  0
   42.8960   26.1830   34.6820 H   0  0  0  0  0  0  0  0  0  0  0  0
  1  6  1  0  0  0  0
  1 26  1  0  0  0  0
  2  1  2  0  0  0  0
  3  2  1  0  0  0  0
  3  4  2  0  0  0  0
  4  5  1  0  0  0  0
  5  6  2  0  0  0  0
  5 10  1  0  0  0  0
  7  2  1  0  0  0  0
  8  3  1  0  0  0  0
  9  4  1  0  0  0  0
 10 21  1  0  0  0  0
 11 10  2  0  0  0  0
 11 12  1  0  0  0  0
 12 13  2  0  0  0  0
 13 14  1  0  0  0  0
 14 15  1  0  0  0  0
 15 16  2  0  0  0  0
 16 17  1  0  0  0  0
 18 19  1  0  0  0  0
 18 16  1  0  0  0  0
 20 18  2  0  0  0  0
 21 14  2  0  0  0  0
 21 20  1  0  0  0  0
 22 30  1  0  0  0  0
 22 23  1  0  0  0  0
 23 28  1  0  0  0  0
 24 29  1  0  0  0  0
 24 23  2  0  0  0  0
 25 24  1  0  0  0  0
 26 27  1  0  0  0  0
 26 25  2  0  0  0  0
 27 22  2  0  0  0  0
 30 32  1  0  0  0  0
 30 31  1  0  0  0  0
M  END
>  <minimizedAffinity>
-6.02625656

$$$$

 OpenBabel03262523143D

 32 35  0  0  0  0  0  0  0  0999 V2000
   35.9630   28.2290   31.8940 C   0  0  0  0  0  0  0  0  0  0  0  0
   36.1770   28.9850   30.7870 C   0  0  0  0  0  0  0  0  0  0  0  0
   36.0450   30.3350   30.9940 C   0  0  0  0  0  0  0  0  0  0  0  0
   35.7250   30.8950   32.2050 C   0  0  0  0  0  0  0  0  0  0  0  0
   35.5190   30.0490   33.3020 C   0  0  0  0  0  0  0  0  0  0  0  0
   35.6500   28.7460   33.0860 N   0  0  0  0  0  0  0  0  0  0  0  0
   36.4270   28.5070   29.8510 H   0  0  0  0  0  0  0  0  0  0  0  0
   36.2080   31.0030   30.1310 H   0  0  0  0  0  0  0  0  0  0  0  0
   35.6470   31.9540   32.2580 H   0  0  0  0  0  0  0  0  0  0  0  0
   35.1850   30.7660   34.5220 C   0  0  0  0  0  0  0  0  0  0  0  0
   35.9990   31.6920   35.0530 N   0  0  0  0  0  0  0  0  0  0  0  0
   35.7410   32.3780   36.1700 C   0  0  0  0  0  3  0  0  0  0  0  0
   34.6260   32.2050   36.8830 N   0  0  0  0  0  0  0  0  0  0  0  0
   33.7440   31.2910   36.4270 C   0  0  0  0  0  0  0  0  0  0  0  0
   32.5840   31.0850   37.1350 C   0  0  0  0  0  3  0  0  0  0  0  0
   31.6430   30.1610   36.7150 C   0  0  0  0  0  0  0  0  0  0  0  0
   30.7730   30.0830   37.3470 H   0  0  0  0  0  0  0  0  0  0  0  0
   31.9400   29.4580   35.5440 C   0  0  0  0  0  0  0  0  0  0  0  0
   31.1700   28.7450   35.2570 H   0  0  0  0  0  0  0  0  0  0  0  0
   33.1020   29.7010   34.8840 C   0  0  0  0  0  3  0  0  0  0  0  0
   34.0470   30.6060   35.2740 C   0  0  0  0  0  0  0  0  0  0  0  0
   37.1040   24.8130   32.6080 C   0  0  0  0  0  0  0  0  0  0  0  0
   36.2620   24.0230   31.7880 C   0  0  0  0  0  0  0  0  0  0  0  0
   35.3160   24.6800   31.0070 C   0  0  0  0  0  0  0  0  0  0  0  0
   35.2580   26.0230   31.0770 N   0  0  0  0  0  0  0  0  0  0  0  0
   36.0480   26.7660   31.8460 C   0  0  0  0  0  0  0  0  0  0  0  0
   36.9770   26.1320   32.6150 N   0  0  0  0  0  0  0  0  0  0  0  0
   36.3890   22.9630   31.8050 H   0  0  0  0  0  0  0  0  0  0  0  0
   34.6680   24.1080   30.3790 H   0  0  0  0  0  0  0  0  0  0  0  0
   38.0950   24.2210   33.4320 N   0  0  0  0  0  0  0  0  0  0  0  0
   38.3400   24.6600   34.3360 H   0  0  0  0  0  0  0  0  0  0  0  0
   38.5970   23.3380   33.1570 H   0  0  0  0  0  0  0  0  0  0  0  0
  1  6  1  0  0  0  0
  2  3  1  0  0  0  0
  2  1  2  0  0  0  0
  3  4  2  0  0  0  0
  4  9  1  0  0  0  0
  4  5  1  0  0  0  0
  5 10  1  0  0  0  0
  6  5  2  0  0  0  0
  7  2  1  0  0  0  0
  8  3  1  0  0  0  0
 10 11  2  0  0  0  0
 10 21  1  0  0  0  0
 11 12  1  0  0  0  0
 12 13  2  0  0  0  0
 14 13  1  0  0  0  0
 14 15  1  0  0  0  0
 16 15  2  0  0  0  0
 16 17  1  0  0  0  0
 18 16  1  0  0  0  0
 19 18  1  0  0  0  0
 20 21  1  0  0  0  0
 20 18  2  0  0  0  0
 21 14  2  0  0  0  0
 22 27  1  0  0  0  0
 22 30  1  0  0  0  0
 23 28  1  0  0  0  0
 23 22  2  0  0  0  0
 24 25  2  0  0  0  0
 24 23  1  0  0  0  0
 25 26  1  0  0  0  0
 26  1  1  0  0  0  0
 26 27  2  0  0  0  0
 29 24  1  0  0  0  0
 30 31  1  0  0  0  0
 32 30  1  0  0  0  0
M  END
>  <minimizedAffinity>
-5.98954964

$$$$

 OpenBabel03262523143D

 32 35  0  0  0  0  0  0  0  0999 V2000
   36.7460   25.2480   32.1740 C   0  0  0  0  0  0  0  0  0  0  0  0
   35.9570   24.3370   31.5490 C   0  0  0  0  0  0  0  0  0  0  0  0
   36.2350   23.0330   31.8790 C   0  0  0  0  0  0  0  0  0  0  0  0
   37.2190   22.6600   32.7580 C   0  0  0  0  0  0  0  0  0  0  0  0
   37.9920   23.6590   33.3630 C   0  0  0  0  0  0  0  0  0  0  0  0
   37.7120   24.9150   33.0350 N   0  0  0  0  0  0  0  0  0  0  0  0
   35.1920   24.6690   30.8630 H   0  0  0  0  0  0  0  0  0  0  0  0
   35.6250   22.2450   31.4030 H   0  0  0  0  0  0  0  0  0  0  0  0
   37.3520   21.6220   32.9440 H   0  0  0  0  0  0  0  0  0  0  0  0
   38.9990   23.1320   34.2700 C   0  0  0  0  0  0  0  0  0  0  0  0
   40.0980   22.5000   33.8300 N   0  0  0  0  0  0  0  0  0  0  0  0
   41.0520   21.9980   34.6200 C   0  0  0  0  0  3  0  0  0  0  0  0
   41.0030   22.0770   35.9520 N   0  0  0  0  0  0  0  0  0  0  0  0
   39.9310   22.6960   36.4900 C   0  0  0  0  0  0  0  0  0  0  0  0
   39.8460   22.7960   37.8580 C   0  0  0  0  0  3  0  0  0  0  0  0
   38.7700   23.4210   38.4640 C   0  0  0  0  0  0  0  0  0  0  0  0
   38.8080   23.4410   39.5420 H   0  0  0  0  0  0  0  0  0  0  0  0
   37.7880   23.9360   37.6140 C   0  0  0  0  0  0  0  0  0  0  0  0
   36.9650   24.4160   38.1390 H   0  0  0  0  0  0  0  0  0  0  0  0
   37.9230   23.8090   36.2680 C   0  0  0  0  0  3  0  0  0  0  0  0
   38.9710   23.1990   35.6420 C   0  0  0  0  0  0  0  0  0  0  0  0
   36.1290   28.8120   32.8000 C   0  0  0  0  0  0  0  0  0  0  0  0
   36.2860   29.3890   31.5160 C   0  0  0  0  0  0  0  0  0  0  0  0
   36.6030   28.5400   30.4590 C   0  0  0  0  0  0  0  0  0  0  0  0
   36.7410   27.2270   30.7200 N   0  0  0  0  0  0  0  0  0  0  0  0
   36.5940   26.6850   31.9250 C   0  0  0  0  0  0  0  0  0  0  0  0
   36.2840   27.5070   32.9660 N   0  0  0  0  0  0  0  0  0  0  0  0
   36.1550   30.4430   31.4140 H   0  0  0  0  0  0  0  0  0  0  0  0
   36.7270   28.9490   29.4790 H   0  0  0  0  0  0  0  0  0  0  0  0
   35.8030   29.6080   33.9280 N   0  0  0  0  0  0  0  0  0  0  0  0
   36.1620   29.3450   34.8610 H   0  0  0  0  0  0  0  0  0  0  0  0
   35.2030   30.4690   33.8510 H   0  0  0  0  0  0  0  0  0  0  0  0
  1  6  1  0  0  0  0
  2  3  1  0  0  0  0
  2  1  2  0  0  0  0
  3  4  2  0  0  0  0
  4  9  1  0  0  0  0
  4  5  1  0  0  0  0
  5 10  1  0  0  0  0
  6  5  2  0  0  0  0
  7  2  1  0  0  0  0
  8  3  1  0  0  0  0
 10 21  1  0  0  0  0
 11 10  2  0  0  0  0
 11 12  1  0  0  0  0
 12 13  2  0  0  0  0
 13 14  1  0  0  0  0
 14 15  1  0  0  0  0
 15 16  2  0  0  0  0
 16 17  1  0  0  0  0
 18 19  1  0  0  0  0
 18 16  1  0  0  0  0
 20 18  2  0  0  0  0
 21 20  1  0  0  0  0
 21 14  2  0  0  0  0
 22 27  1  0  0  0  0
 22 30  1  0  0  0  0
 23 22  2  0  0  0  0
 24 25  2  0  0  0  0
 24 23  1  0  0  0  0
 25 26  1  0  0  0  0
 26  1  1  0  0  0  0
 26 27  2  0  0  0  0
 28 23  1  0  0  0  0
 29 24  1  0  0  0  0
 30 31  1  0  0  0  0
 32 30  1  0  0  0  0
M  END
>  <minimizedAffinity>
-5.97543192

$$$$

 OpenBabel03262523143D

 32 35  0  0  0  0  0  0  0  0999 V2000
   37.1050   25.1600   32.5700 C   0  0  0  0  0  0  0  0  0  0  0  0
   36.8460   24.0960   31.7680 C   0  0  0  0  0  0  0  0  0  0  0  0
   37.1120   22.8790   32.3450 C   0  0  0  0  0  0  0  0  0  0  0  0
   37.6000   22.7270   33.6180 C   0  0  0  0  0  0  0  0  0  0  0  0
   37.8420   23.8740   34.3850 C   0  0  0  0  0  0  0  0  0  0  0  0
   37.5790   25.0430   33.8140 N   0  0  0  0  0  0  0  0  0  0  0  0
   36.4630   24.2560   30.7710 H   0  0  0  0  0  0  0  0  0  0  0  0
   36.9210   21.9740   31.7420 H   0  0  0  0  0  0  0  0  0  0  0  0
   37.7720   21.7390   33.9700 H   0  0  0  0  0  0  0  0  0  0  0  0
   38.3570   23.5760   35.7120 C   0  0  0  0  0  0  0  0  0  0  0  0
   37.6310   23.7800   36.8230 N   0  0  0  0  0  0  0  0  0  0  0  0
   38.0560   23.5230   38.0640 C   0  0  0  0  0  3  0  0  0  0  0  0
   39.2690   23.0310   38.3250 N   0  0  0  0  0  0  0  0  0  0  0  0
   40.0740   22.7930   37.2690 C   0  0  0  0  0  0  0  0  0  0  0  0
   41.3310   22.2870   37.4990 C   0  0  0  0  0  3  0  0  0  0  0  0
   42.1990   22.0230   36.4550 C   0  0  0  0  0  0  0  0  0  0  0  0
   43.1570   21.6280   36.7520 H   0  0  0  0  0  0  0  0  0  0  0  0
   41.7280   22.3010   35.1680 C   0  0  0  0  0  0  0  0  0  0  0  0
   42.4480   22.0770   34.3840 H   0  0  0  0  0  0  0  0  0  0  0  0
   40.4770   22.8010   34.9980 C   0  0  0  0  0  3  0  0  0  0  0  0
   39.5990   23.0710   36.0080 C   0  0  0  0  0  0  0  0  0  0  0  0
   36.8440   28.0340   30.3010 C   0  0  0  0  0  0  0  0  0  0  0  0
   36.5110   29.0960   31.1760 C   0  0  0  0  0  0  0  0  0  0  0  0
   36.3820   28.8030   32.5310 C   0  0  0  0  0  0  0  0  0  0  0  0
   36.5790   27.5320   32.9260 N   0  0  0  0  0  0  0  0  0  0  0  0
   36.8910   26.5340   32.1050 C   0  0  0  0  0  0  0  0  0  0  0  0
   37.0200   26.8110   30.7770 N   0  0  0  0  0  0  0  0  0  0  0  0
   36.3750   30.0710   30.7620 H   0  0  0  0  0  0  0  0  0  0  0  0
   36.1320   29.5860   33.2140 H   0  0  0  0  0  0  0  0  0  0  0  0
   36.9960   28.2500   28.9080 N   0  0  0  0  0  0  0  0  0  0  0  0
   36.7420   27.5010   28.2420 H   0  0  0  0  0  0  0  0  0  0  0  0
   37.3630   29.1560   28.5190 H   0  0  0  0  0  0  0  0  0  0  0  0
  1  6  1  0  0  0  0
  2  3  1  0  0  0  0
  2  1  2  0  0  0  0
  3  4  2  0  0  0  0
  4  9  1  0  0  0  0
  4  5  1  0  0  0  0
  5 10  1  0  0  0  0
  6  5  2  0  0  0  0
  7  2  1  0  0  0  0
  8  3  1  0  0  0  0
 10 21  2  0  0  0  0
 10 11  1  0  0  0  0
 11 12  2  0  0  0  0
 12 13  1  0  0  0  0
 14 15  1  0  0  0  0
 14 13  2  0  0  0  0
 16 17  1  0  0  0  0
 16 15  2  0  0  0  0
 18 16  1  0  0  0  0
 19 18  1  0  0  0  0
 20 18  2  0  0  0  0
 20 21  1  0  0  0  0
 21 14  1  0  0  0  0
 22 27  2  0  0  0  0
 22 23  1  0  0  0  0
 23 24  2  0  0  0  0
 24 25  1  0  0  0  0
 24 29  1  0  0  0  0
 26  1  1  0  0  0  0
 26 25  2  0  0  0  0
 27 26  1  0  0  0  0
 28 23  1  0  0  0  0
 30 22  1  0  0  0  0
 31 30  1  0  0  0  0
 32 30  1  0  0  0  0
M  END
>  <minimizedAffinity>
-5.97316551

$$$$

 OpenBabel03262523143D

 32 35  0  0  0  0  0  0  0  0999 V2000
   37.8040   26.0860   33.7050 C   0  0  0  0  0  0  0  0  0  0  0  0
   37.5000   27.1350   34.5120 C   0  0  0  0  0  0  0  0  0  0  0  0
   38.4710   27.4330   35.4350 C   0  0  0  0  0  0  0  0  0  0  0  0
   39.6510   26.7450   35.5540 C   0  0  0  0  0  0  0  0  0  0  0  0
   39.8920   25.6730   34.6850 C   0  0  0  0  0  0  0  0  0  0  0  0
   38.9450   25.3970   33.7960 N   0  0  0  0  0  0  0  0  0  0  0  0
   36.5600   27.6530   34.3880 H   0  0  0  0  0  0  0  0  0  0  0  0
   38.2820   28.2780   36.1200 H   0  0  0  0  0  0  0  0  0  0  0  0
   40.3360   27.0570   36.3040 H   0  0  0  0  0  0  0  0  0  0  0  0
   41.1750   25.0280   34.9150 C   0  0  0  0  0  0  0  0  0  0  0  0
   42.3200   25.5150   34.4110 N   0  0  0  0  0  0  0  0  0  0  0  0
   43.5240   24.9620   34.5920 C   0  0  0  0  0  3  0  0  0  0  0  0
   43.7080   23.8480   35.3040 N   0  0  0  0  0  0  0  0  0  0  0  0
   42.6110   23.2830   35.8510 C   0  0  0  0  0  0  0  0  0  0  0  0
   42.7610   22.1340   36.5910 C   0  0  0  0  0  3  0  0  0  0  0  0
   41.6720   21.5110   37.1750 C   0  0  0  0  0  0  0  0  0  0  0  0
   41.9080   20.6180   37.7320 H   0  0  0  0  0  0  0  0  0  0  0  0
   40.4270   22.1110   36.9690 C   0  0  0  0  0  0  0  0  0  0  0  0
   39.6050   21.5840   37.4480 H   0  0  0  0  0  0  0  0  0  0  0  0
   40.3360   23.2460   36.2290 C   0  0  0  0  0  3  0  0  0  0  0  0
   41.3910   23.8830   35.6410 C   0  0  0  0  0  0  0  0  0  0  0  0
   35.9380   23.8120   31.5080 C   0  0  0  0  0  0  0  0  0  0  0  0
   35.1450   24.6990   30.7400 C   0  0  0  0  0  0  0  0  0  0  0  0
   35.2660   26.0630   30.9940 C   0  0  0  0  0  0  0  0  0  0  0  0
   36.1260   26.4550   31.9510 N   0  0  0  0  0  0  0  0  0  0  0  0
   36.8710   25.6240   32.6730 C   0  0  0  0  0  0  0  0  0  0  0  0
   36.7600   24.2870   32.4320 N   0  0  0  0  0  0  0  0  0  0  0  0
   34.4920   24.2860   30.0030 H   0  0  0  0  0  0  0  0  0  0  0  0
   34.6780   26.7540   30.4280 H   0  0  0  0  0  0  0  0  0  0  0  0
   35.8760   22.4100   31.3080 N   0  0  0  0  0  0  0  0  0  0  0  0
   36.0180   21.7710   32.1100 H   0  0  0  0  0  0  0  0  0  0  0  0
   35.6870   21.9870   30.3640 H   0  0  0  0  0  0  0  0  0  0  0  0
  1  6  2  0  0  0  0
  1  2  1  0  0  0  0
  2  3  2  0  0  0  0
  3  4  1  0  0  0  0
  3  8  1  0  0  0  0
  4  9  1  0  0  0  0
  5 10  1  0  0  0  0
  5  4  2  0  0  0  0
  6  5  1  0  0  0  0
  7  2  1  0  0  0  0
 10 21  1  0  0  0  0
 11 12  1  0  0  0  0
 11 10  2  0  0  0  0
 12 13  2  0  0  0  0
 13 14  1  0  0  0  0
 14 15  1  0  0  0  0
 15 16  2  0  0  0  0
 16 17  1  0  0  0  0
 18 16  1  0  0  0  0
 18 19  1  0  0  0  0
 20 18  2  0  0  0  0
 21 14  2  0  0  0  0
 21 20  1  0  0  0  0
 22 27  1  0  0  0  0
 23 24  1  0  0  0  0
 23 22  2  0  0  0  0
 24 25  2  0  0  0  0
 25 26  1  0  0  0  0
 26  1  1  0  0  0  0
 27 26  2  0  0  0  0
 28 23  1  0  0  0  0
 29 24  1  0  0  0  0
 30 22  1  0  0  0  0
 30 31  1  0  0  0  0
 32 30  1  0  0  0  0
M  END
>  <minimizedAffinity>
-5.9715147

$$$$

 OpenBabel03262523143D

 32 35  0  0  0  0  0  0  0  0999 V2000
   37.2480   25.1390   32.5240 C   0  0  0  0  0  0  0  0  0  0  0  0
   36.4010   25.9550   31.8450 C   0  0  0  0  0  0  0  0  0  0  0  0
   35.4340   25.2910   31.1300 C   0  0  0  0  0  0  0  0  0  0  0  0
   35.3160   23.9250   31.0890 C   0  0  0  0  0  0  0  0  0  0  0  0
   36.2290   23.1510   31.8170 C   0  0  0  0  0  0  0  0  0  0  0  0
   37.1570   23.8060   32.5040 N   0  0  0  0  0  0  0  0  0  0  0  0
   36.5250   27.0260   31.9010 H   0  0  0  0  0  0  0  0  0  0  0  0
   34.7140   25.9000   30.5560 H   0  0  0  0  0  0  0  0  0  0  0  0
   34.5320   23.5110   30.5040 H   0  0  0  0  0  0  0  0  0  0  0  0
   35.9960   21.7210   31.6890 C   0  0  0  0  0  0  0  0  0  0  0  0
   34.9330   21.1180   32.2440 N   0  0  0  0  0  0  0  0  0  0  0  0
   34.6730   19.8100   32.1570 C   0  0  0  0  0  3  0  0  0  0  0  0
   35.4610   18.9580   31.4970 N   0  0  0  0  0  0  0  0  0  0  0  0
   36.5580   19.4740   30.9040 C   0  0  0  0  0  0  0  0  0  0  0  0
   37.3940   18.6270   30.2160 C   0  0  0  0  0  3  0  0  0  0  0  0
   38.5330   19.1000   29.5880 C   0  0  0  0  0  0  0  0  0  0  0  0
   39.1140   18.3470   29.0790 H   0  0  0  0  0  0  0  0  0  0  0  0
   38.7800   20.4710   29.6960 C   0  0  0  0  0  0  0  0  0  0  0  0
   39.6860   20.7920   29.1870 H   0  0  0  0  0  0  0  0  0  0  0  0
   37.9210   21.2620   30.3890 C   0  0  0  0  0  3  0  0  0  0  0  0
   36.7910   20.8250   31.0180 C   0  0  0  0  0  0  0  0  0  0  0  0
   39.0090   26.9400   35.1950 C   0  0  0  0  0  0  0  0  0  0  0  0
   40.3710   26.7370   34.8650 C   0  0  0  0  0  0  0  0  0  0  0  0
   40.6580   25.9830   33.7300 C   0  0  0  0  0  0  0  0  0  0  0  0
   39.6270   25.4930   33.0180 N   0  0  0  0  0  0  0  0  0  0  0  0
   38.3480   25.6830   33.3260 C   0  0  0  0  0  0  0  0  0  0  0  0
   38.0570   26.4190   34.4350 N   0  0  0  0  0  0  0  0  0  0  0  0
   41.1150   27.1690   35.4970 H   0  0  0  0  0  0  0  0  0  0  0  0
   41.6780   25.8150   33.4590 H   0  0  0  0  0  0  0  0  0  0  0  0
   38.6330   27.6980   36.3330 N   0  0  0  0  0  0  0  0  0  0  0  0
   37.7710   27.4530   36.8500 H   0  0  0  0  0  0  0  0  0  0  0  0
   39.2040   28.5120   36.6770 H   0  0  0  0  0  0  0  0  0  0  0  0
  1 26  1  0  0  0  0
  2  7  1  0  0  0  0
  2  1  2  0  0  0  0
  3  2  1  0  0  0  0
  4  3  2  0  0  0  0
  4  5  1  0  0  0  0
  5  6  2  0  0  0  0
  6  1  1  0  0  0  0
  8  3  1  0  0  0  0
  9  4  1  0  0  0  0
 10  5  1  0  0  0  0
 10 11  1  0  0  0  0
 12 11  2  0  0  0  0
 13 12  1  0  0  0  0
 14 21  1  0  0  0  0
 14 13  2  0  0  0  0
 15 14  1  0  0  0  0
 16 18  1  0  0  0  0
 16 15  2  0  0  0  0
 17 16  1  0  0  0  0
 18 20  2  0  0  0  0
 19 18  1  0  0  0  0
 20 21  1  0  0  0  0
 21 10  2  0  0  0  0
 22 30  1  0  0  0  0
 23 22  1  0  0  0  0
 23 28  1  0  0  0  0
 24 23  2  0  0  0  0
 25 26  2  0  0  0  0
 25 24  1  0  0  0  0
 26 27  1  0  0  0  0
 27 22  2  0  0  0  0
 29 24  1  0  0  0  0
 30 32  1  0  0  0  0
 30 31  1  0  0  0  0
M  END
>  <minimizedAffinity>
-5.96036482

$$$$
