
 OpenBabel03262523103D

 23 25  0  0  0  0  0  0  0  0999 V2000
   34.4220   29.1650   48.6290 C   0  0  0  0  0  0  0  0  0  0  0  0
   33.4840   28.4370   49.2640 N   0  0  0  0  0  0  0  0  0  0  0  0
   32.5000   27.8150   48.6140 C   0  0  0  0  0  3  0  0  0  0  0  0
   32.3430   27.8480   47.2810 N   0  0  0  0  0  0  0  0  0  0  0  0
   33.2430   28.5560   46.5820 C   0  0  0  0  0  0  0  0  0  0  0  0
   33.0890   28.5950   45.2130 C   0  0  0  0  0  3  0  0  0  0  0  0
   33.9810   29.3060   44.4380 C   0  0  0  0  0  0  0  0  0  0  0  0
   33.8020   29.2940   43.3770 H   0  0  0  0  0  0  0  0  0  0  0  0
   35.0030   29.9540   45.1020 C   0  0  0  0  0  0  0  0  0  0  0  0
   35.6810   30.5020   44.4370 H   0  0  0  0  0  0  0  0  0  0  0  0
   35.1250   29.8910   46.4710 C   0  0  0  0  0  3  0  0  0  0  0  0
   34.2500   29.1910   47.2650 C   0  0  0  0  0  0  0  0  0  0  0  0
   37.3510   29.3940   50.7150 C   0  0  0  0  0  0  0  0  0  0  0  0
   37.7120   30.7490   50.7980 C   0  0  0  0  0  0  0  0  0  0  0  0
   36.8990   31.6200   50.0950 C   0  0  0  0  0  0  0  0  0  0  0  0
   35.8590   31.1390   49.4070 N   0  0  0  0  0  0  0  0  0  0  0  0
   35.5140   29.8570   49.3260 C   0  0  0  0  0  0  0  0  0  0  0  0
   36.2990   29.0360   50.0020 N   0  0  0  0  0  0  0  0  0  0  0  0
   38.5500   31.0440   51.3650 H   0  0  0  0  0  0  0  0  0  0  0  0
   37.0800   32.6620   50.0890 H   0  0  0  0  0  0  0  0  0  0  0  0
   38.1080   28.3630   51.3990 N   0  0  0  0  0  0  0  0  0  0  0  0
   39.0100   27.9400   51.1310 H   0  0  0  0  0  0  0  0  0  0  0  0
   37.7210   27.9690   52.2860 H   0  0  0  0  0  0  0  0  0  0  0  0
  1  2  1  0  0  0  0
  1 17  1  0  0  0  0
  3  2  2  0  0  0  0
  4  3  1  0  0  0  0
  5 12  1  0  0  0  0
  5  4  2  0  0  0  0
  6  5  1  0  0  0  0
  7  9  1  0  0  0  0
  7  6  2  0  0  0  0
  8  7  1  0  0  0  0
  9 11  2  0  0  0  0
 10  9  1  0  0  0  0
 11 12  1  0  0  0  0
 12  1  2  0  0  0  0
 13 14  1  0  0  0  0
 13 21  1  0  0  0  0
 14 19  1  0  0  0  0
 15 14  2  0  0  0  0
 16 15  1  0  0  0  0
 17 16  2  0  0  0  0
 17 18  1  0  0  0  0
 18 13  2  0  0  0  0
 20 15  1  0  0  0  0
 21 23  1  0  0  0  0
 22 21  1  0  0  0  0
M  END
>  <minimizedAffinity>
-4.92197323

>  <minimizedRMSD>
1.72303474

$$$$
