
 OpenBabel03272500123D

 24 26  0  0  0  0  0  0  0  0999 V2000
   35.8560   28.8370   50.0920 C   0  0  0  0  0  0  0  0  0  0  0  0
   36.2540   30.1210   49.6960 C   0  0  0  0  0  0  0  0  0  0  0  0
   35.7170   30.6230   48.5140 C   0  0  0  0  0  0  0  0  0  0  0  0
   34.8490   29.8500   47.8210 N   0  0  0  0  0  0  0  0  0  0  0  0
   34.4810   28.6380   48.2030 C   0  0  0  0  0  0  0  0  0  0  0  0
   34.9820   28.1420   49.3270 N   0  0  0  0  0  0  0  0  0  0  0  0
   36.2850   28.4650   51.0110 H   0  0  0  0  0  0  0  0  0  0  0  0
   35.9850   31.5850   48.1740 H   0  0  0  0  0  0  0  0  0  0  0  0
   33.5600   27.6590   47.5890 C   0  0  0  0  0  0  0  0  0  0  0  0
   33.8590   26.8830   46.5450 N   0  0  0  0  0  0  0  0  0  0  0  0
   33.0100   26.0070   46.0090 C   0  0  0  0  0  3  0  0  0  0  0  0
   31.7620   25.8130   46.4640 N   0  0  0  0  0  0  0  0  0  0  0  0
   31.3850   26.5580   47.5150 C   0  0  0  0  0  0  0  0  0  0  0  0
   30.1130   26.3500   47.9690 C   0  0  0  0  0  3  0  0  0  0  0  0
   29.6440   27.0690   49.0390 C   0  0  0  0  0  0  0  0  0  0  0  0
   28.6420   26.8980   49.3870 H   0  0  0  0  0  0  0  0  0  0  0  0
   30.5130   27.9980   49.6230 C   0  0  0  0  0  0  0  0  0  0  0  0
   30.0920   28.5310   50.4560 H   0  0  0  0  0  0  0  0  0  0  0  0
   31.7710   28.1520   49.1170 C   0  0  0  0  0  3  0  0  0  0  0  0
   32.2850   27.4560   48.0480 C   0  0  0  0  0  0  0  0  0  0  0  0
   37.2170   30.8770   50.5580 C   0  0  0  0  0  0  0  0  0  0  0  0
   38.5130   30.7610   50.0740 F   0  0  0  0  0  0  0  0  0  0  0  0
   36.8580   32.2190   50.4940 F   0  0  0  0  0  0  0  0  0  0  0  0
   37.1760   30.4580   51.8670 F   0  0  0  0  0  0  0  0  0  0  0  0
  1  7  1  0  0  0  0
  2  1  1  0  0  0  0
  2 21  1  0  0  0  0
  3  2  2  0  0  0  0
  4  5  2  0  0  0  0
  4  3  1  0  0  0  0
  5  6  1  0  0  0  0
  6  1  2  0  0  0  0
  8  3  1  0  0  0  0
  9 20  1  0  0  0  0
  9  5  1  0  0  0  0
 10  9  2  0  0  0  0
 11 12  2  0  0  0  0
 11 10  1  0  0  0  0
 12 13  1  0  0  0  0
 13 14  2  0  0  0  0
 13 20  1  0  0  0  0
 14 15  1  0  0  0  0
 15 16  1  0  0  0  0
 15 17  2  0  0  0  0
 17 18  1  0  0  0  0
 19 17  1  0  0  0  0
 20 19  2  0  0  0  0
 21 24  1  0  0  0  0
 22 21  1  0  0  0  0
 23 21  1  0  0  0  0
M  END
>  <minimizedAffinity>
-5.45902872

>  <minimizedRMSD>
0.687014461

$$$$
