
 OpenBabel03272507133D

 43 48  0  0  0  0  0  0  0  0999 V2000
   36.9850   29.4200   50.2390 C   0  0  0  0  0  0  0  0  0  0  0  0
   37.6210   28.7960   51.1310 O   0  0  0  0  0  0  0  0  0  0  0  0
   37.5640   30.5030   49.4700 C   0  0  0  0  0  0  0  0  0  0  0  0
   38.3020   31.4530   50.1320 C   0  0  0  0  0  0  0  0  0  0  0  0
   38.8690   32.4840   49.4070 C   0  0  0  0  0  0  0  0  0  0  0  0
   38.6630   32.4980   48.0760 N   0  0  0  0  0  0  0  0  0  0  0  0
   37.9520   31.5870   47.4180 C   0  0  0  0  0  0  0  0  0  0  0  0
   37.4210   30.6080   48.1630 N   0  0  0  0  0  0  0  0  0  0  0  0
   38.4770   31.4600   51.1940 H   0  0  0  0  0  0  0  0  0  0  0  0
   39.4570   33.2760   49.7910 H   0  0  0  0  0  0  0  0  0  0  0  0
   37.6060   31.4190   45.9920 C   0  0  0  0  0  0  0  0  0  0  0  0
   36.6210   30.6320   45.5470 N   0  0  0  0  0  0  0  0  0  0  0  0
   36.3420   30.5090   44.2520 C   0  0  0  0  0  3  0  0  0  0  0  0
   37.0070   31.1460   43.2810 N   0  0  0  0  0  0  0  0  0  0  0  0
   38.0190   31.9610   43.6400 C   0  0  0  0  0  0  0  0  0  0  0  0
   38.7030   32.6190   42.6460 C   0  0  0  0  0  3  0  0  0  0  0  0
   39.7420   33.4600   42.9740 C   0  0  0  0  0  0  0  0  0  0  0  0
   40.2380   33.9430   42.1620 H   0  0  0  0  0  0  0  0  0  0  0  0
   40.0520   33.6060   44.3120 C   0  0  0  0  0  0  0  0  0  0  0  0
   40.8720   34.2760   44.5170 H   0  0  0  0  0  0  0  0  0  0  0  0
   39.3270   32.9200   45.2600 C   0  0  0  0  0  3  0  0  0  0  0  0
   38.2850   32.0700   44.9870 C   0  0  0  0  0  0  0  0  0  0  0  0
   35.6090   29.0520   49.9540 C   0  0  0  0  0  0  0  0  0  0  0  0
   34.5650   29.5870   50.6370 C   0  0  0  0  0  0  0  0  0  0  0  0
   33.4010   29.0140   50.1090 C   0  0  0  0  0  0  0  0  0  0  0  0
   33.8300   28.1450   49.1110 C   0  0  0  0  0  0  0  0  0  0  0  0
   35.1410   28.2110   49.0680 O   0  0  0  0  0  0  0  0  0  0  0  0
   34.5860   30.3250   51.4510 H   0  0  0  0  0  0  0  0  0  0  0  0
   32.4090   29.2580   50.4670 H   0  0  0  0  0  0  0  0  0  0  0  0
   33.3420   26.3460   47.4360 C   0  0  0  0  0  0  0  0  0  0  0  0
   32.9260   27.3330   48.2940 C   0  0  0  0  0  0  0  0  0  0  0  0
   31.5800   27.6350   48.4410 C   0  0  0  0  0  0  0  0  0  0  0  0
   30.6490   26.9200   47.7020 C   0  0  0  0  0  0  0  0  0  0  0  0
   29.3210   26.9860   47.6340 N   0  0  0  0  0  0  0  0  0  0  0  0
   28.9250   26.0670   46.7590 N   0  0  0  0  0  0  0  0  0  0  0  0
   29.9910   25.4120   46.2670 C   0  0  0  0  0  0  0  0  0  0  0  0
   31.1260   25.9300   46.8470 C   0  0  0  0  0  0  0  0  0  0  0  0
   32.4790   25.6200   46.6950 C   0  0  0  0  0  0  0  0  0  0  0  0
   34.4040   26.1610   47.3690 H   0  0  0  0  0  0  0  0  0  0  0  0
   31.1620   28.4060   49.1020 H   0  0  0  0  0  0  0  0  0  0  0  0
   28.6960   27.6420   48.1700 H   0  0  0  0  0  0  0  0  0  0  0  0
   29.9240   24.6220   45.5410 H   0  0  0  0  0  0  0  0  0  0  0  0
   32.7640   24.8330   46.0050 H   0  0  0  0  0  0  0  0  0  0  0  0
  1  2  2  0  0  0  0
  3  4  1  0  0  0  0
  3  1  1  0  0  0  0
  4  9  1  0  0  0  0
  5 10  1  0  0  0  0
  5  4  2  0  0  0  0
  6  5  1  0  0  0  0
  7  6  2  0  0  0  0
  7  8  1  0  0  0  0
  8  3  2  0  0  0  0
 11  7  1  0  0  0  0
 12 11  1  0  0  0  0
 13 12  2  0  0  0  0
 14 15  2  0  0  0  0
 14 13  1  0  0  0  0
 15 22  1  0  0  0  0
 16 17  2  0  0  0  0
 16 15  1  0  0  0  0
 17 19  1  0  0  0  0
 18 17  1  0  0  0  0
 19 20  1  0  0  0  0
 19 21  2  0  0  0  0
 22 21  1  0  0  0  0
 22 11  2  0  0  0  0
 23  1  1  0  0  0  0
 23 24  2  0  0  0  0
 24 28  1  0  0  0  0
 25 29  1  0  0  0  0
 25 24  1  0  0  0  0
 26 25  2  0  0  0  0
 27 26  1  0  0  0  0
 27 23  1  0  0  0  0
 30 31  1  0  0  0  0
 31 32  2  0  0  0  0
 31 26  1  0  0  0  0
 32 40  1  0  0  0  0
 33 32  1  0  0  0  0
 34 33  1  0  0  0  0
 34 41  1  0  0  0  0
 35 34  1  0  0  0  0
 36 35  2  0  0  0  0
 36 37  1  0  0  0  0
 37 33  2  0  0  0  0
 38 37  1  0  0  0  0
 38 30  2  0  0  0  0
 39 30  1  0  0  0  0
 42 36  1  0  0  0  0
 43 38  1  0  0  0  0
M  END
>  <minimizedAffinity>
-7.27773046

>  <minimizedRMSD>
0.766932309

$$$$
