
 OpenBabel03272503273D

 33 36  0  0  1  0  0  0  0  0999 V2000
   34.3430   29.0190   48.0390 N   0  0  0  0  0  0  0  0  0  0  0  0
   35.7140   29.2090   47.6400 C   0  0  0  0  0  0  0  0  0  0  0  0
   36.4330   29.5010   48.9470 C   0  0  2  0  0  0  0  0  0  0  0  0
   35.3360   29.4450   50.0230 C   0  0  0  0  0  0  0  0  0  0  0  0
   34.3830   28.4700   49.3730 C   0  0  0  0  0  0  0  0  0  0  0  0
   35.8560   30.0920   46.9830 H   0  0  0  0  0  0  0  0  0  0  0  0
   36.1360   28.3390   47.1010 H   0  0  0  0  0  0  0  0  0  0  0  0
   37.1670   28.7020   49.0980 H   0  0  0  0  0  0  0  0  0  0  0  0
   34.8770   30.4500   50.0010 H   0  0  0  0  0  0  0  0  0  0  0  0
   35.7150   29.1360   50.9960 H   0  0  0  0  0  0  0  0  0  0  0  0
   34.8450   27.4520   49.3830 H   0  0  0  0  0  0  0  0  0  0  0  0
   33.3790   28.4570   49.8490 H   0  0  0  0  0  0  0  0  0  0  0  0
   37.0530   30.8520   48.9280 C   0  0  0  0  0  0  0  0  0  0  0  0
   36.6660   31.7060   49.9210 N   0  0  0  0  0  0  0  0  0  0  0  0
   37.1340   32.9530   50.0470 C   0  0  0  0  0  3  0  0  0  0  0  0
   38.0440   33.4240   49.1520 N   0  0  0  0  0  0  0  0  0  0  0  0
   38.4650   32.6310   48.1510 C   0  0  0  0  0  0  0  0  0  0  0  0
   39.3870   33.0350   47.1990 C   0  0  0  0  0  3  0  0  0  0  0  0
   39.8100   32.1990   46.1690 C   0  0  0  0  0  0  0  0  0  0  0  0
   40.5310   32.5170   45.4260 H   0  0  0  0  0  0  0  0  0  0  0  0
   39.2770   30.9110   46.1030 C   0  0  0  0  0  0  0  0  0  0  0  0
   39.6280   30.2760   45.2800 H   0  0  0  0  0  0  0  0  0  0  0  0
   38.3580   30.4900   47.0400 C   0  0  0  0  0  3  0  0  0  0  0  0
   37.9670   31.3500   48.0440 C   0  0  0  0  0  0  0  0  0  0  0  0
   33.1810   29.3170   47.2630 C   0  0  0  0  0  0  0  0  0  0  0  0
   33.1960   30.4790   46.4980 C   0  0  0  0  0  0  0  0  0  0  0  0
   32.0630   30.7710   45.7410 C   0  0  0  0  0  0  0  0  0  0  0  0
   31.0020   29.8970   45.7940 N   0  0  0  0  0  0  0  0  0  0  0  0
   31.0280   28.7860   46.5450 C   0  0  0  0  0  0  0  0  0  0  0  0
   32.1320   28.4850   47.2950 N   0  0  0  0  0  0  0  0  0  0  0  0
   33.9960   31.1720   46.4350 H   0  0  0  0  0  0  0  0  0  0  0  0
   31.9990   31.6490   45.1250 H   0  0  0  0  0  0  0  0  0  0  0  0
   30.1950   28.0970   46.5890 H   0  0  0  0  0  0  0  0  0  0  0  0
  1  5  1  0  0  0  0
  2  1  1  0  0  0  0
  2  3  1  0  0  0  0
  3  8  1  1  0  0  0
  3  4  1  0  0  0  0
  4 10  1  0  0  0  0
  5 11  1  0  0  0  0
  5 12  1  0  0  0  0
  5  4  1  0  0  0  0
  6  2  1  0  0  0  0
  7  2  1  0  0  0  0
  9  4  1  0  0  0  0
 13  3  1  0  0  0  0
 13 14  1  0  0  0  0
 14 15  2  0  0  0  0
 16 15  1  0  0  0  0
 17 16  2  0  0  0  0
 18 17  1  0  0  0  0
 19 18  2  0  0  0  0
 20 19  1  0  0  0  0
 21 19  1  0  0  0  0
 21 23  2  0  0  0  0
 22 21  1  0  0  0  0
 23 24  1  0  0  0  0
 24 17  1  0  0  0  0
 24 13  2  0  0  0  0
 25 30  1  0  0  0  0
 25  1  1  0  0  0  0
 26 25  2  0  0  0  0
 27 28  2  0  0  0  0
 27 26  1  0  0  0  0
 28 29  1  0  0  0  0
 29 33  1  0  0  0  0
 29 30  2  0  0  0  0
 31 26  1  0  0  0  0
 32 27  1  0  0  0  0
M  END
>  <minimizedAffinity>
-5.78749418

>  <minimizedRMSD>
3.39139438

$$$$
