
 OpenBabel03272502083D

 42 46  0  0  0  0  0  0  0  0999 V2000
   36.3420   28.2900   34.9110 F   0  0  0  0  0  0  0  0  0  0  0  0
   36.1780   28.7940   33.6480 C   0  0  0  0  0  0  0  0  0  0  0  0
   36.7010   28.1640   32.5200 C   0  0  0  0  0  0  0  0  0  0  0  0
   36.4840   28.7180   31.2860 C   0  0  0  0  0  0  0  0  0  0  0  0
   35.7460   29.9020   31.1580 C   0  0  0  0  0  0  0  0  0  0  0  0
   35.2530   30.4830   32.3100 C   0  0  0  0  0  0  0  0  0  0  0  0
   35.4430   29.9730   33.5380 C   0  0  0  0  0  0  0  0  0  0  0  0
   36.9070   28.1980   30.4440 H   0  0  0  0  0  0  0  0  0  0  0  0
   35.5930   30.3120   30.1640 H   0  0  0  0  0  0  0  0  0  0  0  0
   34.6950   31.3920   32.1320 H   0  0  0  0  0  0  0  0  0  0  0  0
   32.4760   29.3480   34.3390 Br  0  0  0  0  0  0  0  0  0  0  0  0
   33.6640   30.5060   35.2770 C   0  0  0  0  0  0  0  0  0  0  0  0
   34.9070   30.6390   34.7070 C   0  0  0  0  0  0  0  0  0  0  0  0
   35.8230   31.5100   35.3240 C   0  0  0  0  0  0  0  0  0  0  0  0
   35.4890   32.1930   36.4410 C   0  0  0  0  0  0  0  0  0  0  0  0
   34.2300   32.0210   36.9720 C   0  0  0  0  0  0  0  0  0  0  0  0
   33.2830   31.1600   36.3880 C   0  0  0  0  0  0  0  0  0  0  0  0
   36.8220   31.6750   34.9420 H   0  0  0  0  0  0  0  0  0  0  0  0
   36.1390   32.8760   36.9660 H   0  0  0  0  0  0  0  0  0  0  0  0
   33.9140   32.5460   37.8690 H   0  0  0  0  0  0  0  0  0  0  0  0
   32.0230   30.9320   36.8470 O   0  0  0  0  0  0  0  0  0  0  0  0
   31.7400   31.3000   37.7520 H   0  0  0  0  0  0  0  0  0  0  0  0
   38.7850   27.0960   33.0770 C   0  0  0  0  0  0  0  0  0  0  0  0
   37.4390   26.9610   32.7880 C   0  0  0  0  0  0  0  0  0  0  0  0
   36.9120   25.6880   32.8060 C   0  0  0  0  0  0  0  0  0  0  0  0
   37.7010   24.6240   33.1010 N   0  0  0  0  0  0  0  0  0  0  0  0
   38.9770   24.7780   33.3760 C   0  0  0  0  0  0  0  0  0  0  0  0
   39.5120   25.9810   33.3640 N   0  0  0  0  0  0  0  0  0  0  0  0
   39.2400   28.1000   33.0700 H   0  0  0  0  0  0  0  0  0  0  0  0
   35.8710   25.5340   32.5860 H   0  0  0  0  0  0  0  0  0  0  0  0
   40.0130   23.7870   33.7220 C   0  0  0  0  0  0  0  0  0  0  0  0
   40.9150   23.2640   32.8670 N   0  0  0  0  0  0  0  0  0  0  0  0
   41.8500   22.3750   33.1600 C   0  0  0  0  0  3  0  0  0  0  0  0
   41.9780   21.8960   34.4060 N   0  0  0  0  0  0  0  0  0  0  0  0
   41.1290   22.3430   35.3580 C   0  0  0  0  0  0  0  0  0  0  0  0
   41.2860   21.8370   36.6150 C   0  0  0  0  0  3  0  0  0  0  0  0
   40.4510   22.2540   37.6290 C   0  0  0  0  0  0  0  0  0  0  0  0
   40.6190   21.8220   38.6030 H   0  0  0  0  0  0  0  0  0  0  0  0
   39.4790   23.1840   37.3110 C   0  0  0  0  0  0  0  0  0  0  0  0
   38.8490   23.4790   38.1390 H   0  0  0  0  0  0  0  0  0  0  0  0
   39.3700   23.6580   36.0230 C   0  0  0  0  0  3  0  0  0  0  0  0
   40.1820   23.2680   34.9850 C   0  0  0  0  0  0  0  0  0  0  0  0
  2  1  1  0  0  0  0
  3 24  1  0  0  0  0
  3  2  2  0  0  0  0
  4  3  1  0  0  0  0
  5  4  2  0  0  0  0
  5  6  1  0  0  0  0
  6  7  2  0  0  0  0
  7  2  1  0  0  0  0
  7 13  1  0  0  0  0
  8  4  1  0  0  0  0
  9  5  1  0  0  0  0
 10  6  1  0  0  0  0
 11 12  1  0  0  0  0
 12 17  1  0  0  0  0
 13 12  2  0  0  0  0
 13 14  1  0  0  0  0
 14 15  2  0  0  0  0
 15 19  1  0  0  0  0
 15 16  1  0  0  0  0
 16 20  1  0  0  0  0
 17 21  1  0  0  0  0
 17 16  2  0  0  0  0
 18 14  1  0  0  0  0
 21 22  1  0  0  0  0
 23 28  1  0  0  0  0
 24 25  1  0  0  0  0
 24 23  2  0  0  0  0
 25 26  2  0  0  0  0
 26 27  1  0  0  0  0
 27 31  1  0  0  0  0
 28 27  2  0  0  0  0
 29 23  1  0  0  0  0
 30 25  1  0  0  0  0
 31 42  1  0  0  0  0
 32 33  1  0  0  0  0
 32 31  2  0  0  0  0
 33 34  2  0  0  0  0
 34 35  1  0  0  0  0
 35 36  1  0  0  0  0
 36 37  2  0  0  0  0
 37 38  1  0  0  0  0
 39 37  1  0  0  0  0
 39 40  1  0  0  0  0
 41 39  2  0  0  0  0
 42 35  2  0  0  0  0
 42 41  1  0  0  0  0
M  END
>  <minimizedAffinity>
-7.36247826

$$$$

 OpenBabel03272502083D

 42 46  0  0  0  0  0  0  0  0999 V2000
   36.6040   28.7510   35.5900 F   0  0  0  0  0  0  0  0  0  0  0  0
   36.2410   28.9290   34.2810 C   0  0  0  0  0  0  0  0  0  0  0  0
   36.7450   28.1350   33.2530 C   0  0  0  0  0  0  0  0  0  0  0  0
   36.3240   28.3600   31.9690 C   0  0  0  0  0  0  0  0  0  0  0  0
   35.3990   29.3740   31.6910 C   0  0  0  0  0  0  0  0  0  0  0  0
   34.9340   30.1300   32.7490 C   0  0  0  0  0  0  0  0  0  0  0  0
   35.3200   29.9430   34.0220 C   0  0  0  0  0  0  0  0  0  0  0  0
   36.7410   27.7230   31.2070 H   0  0  0  0  0  0  0  0  0  0  0  0
   35.0870   29.5230   30.6620 H   0  0  0  0  0  0  0  0  0  0  0  0
   34.2240   30.8920   32.4580 H   0  0  0  0  0  0  0  0  0  0  0  0
   32.4790   29.2590   35.1590 Br  0  0  0  0  0  0  0  0  0  0  0  0
   33.6130   30.6640   35.7650 C   0  0  0  0  0  0  0  0  0  0  0  0
   34.8010   30.7790   35.0840 C   0  0  0  0  0  0  0  0  0  0  0  0
   35.6720   31.8210   35.4520 C   0  0  0  0  0  0  0  0  0  0  0  0
   35.3480   32.6800   36.4440 C   0  0  0  0  0  0  0  0  0  0  0  0
   34.1460   32.5170   37.0960 C   0  0  0  0  0  0  0  0  0  0  0  0
   33.2460   31.4900   36.7600 C   0  0  0  0  0  0  0  0  0  0  0  0
   36.6250   31.9850   34.9680 H   0  0  0  0  0  0  0  0  0  0  0  0
   35.9660   33.4990   36.7780 H   0  0  0  0  0  0  0  0  0  0  0  0
   33.8410   33.1810   37.9010 H   0  0  0  0  0  0  0  0  0  0  0  0
   32.0440   31.2590   37.3530 O   0  0  0  0  0  0  0  0  0  0  0  0
   31.7860   31.7720   38.1920 H   0  0  0  0  0  0  0  0  0  0  0  0
   37.3730   26.4010   34.8010 C   0  0  0  0  0  0  0  0  0  0  0  0
   37.6870   27.1330   33.6700 C   0  0  0  0  0  0  0  0  0  0  0  0
   38.8640   26.8240   33.0220 C   0  0  0  0  0  0  0  0  0  0  0  0
   39.6650   25.8350   33.4920 N   0  0  0  0  0  0  0  0  0  0  0  0
   39.3430   25.1510   34.5680 C   0  0  0  0  0  0  0  0  0  0  0  0
   38.2270   25.4240   35.2110 N   0  0  0  0  0  0  0  0  0  0  0  0
   36.4400   26.6230   35.3450 H   0  0  0  0  0  0  0  0  0  0  0  0
   39.1500   27.3680   32.1410 H   0  0  0  0  0  0  0  0  0  0  0  0
   40.0440   24.0490   35.2520 C   0  0  0  0  0  0  0  0  0  0  0  0
   39.4750   22.9040   35.6830 N   0  0  0  0  0  0  0  0  0  0  0  0
   40.0870   21.9060   36.2970 C   0  0  0  0  0  3  0  0  0  0  0  0
   41.4030   21.9600   36.5540 N   0  0  0  0  0  0  0  0  0  0  0  0
   42.0890   23.0590   36.1700 C   0  0  0  0  0  0  0  0  0  0  0  0
   43.4250   23.0820   36.4460 C   0  0  0  0  0  3  0  0  0  0  0  0
   44.1800   24.1750   36.0800 C   0  0  0  0  0  0  0  0  0  0  0  0
   45.2300   24.1410   36.3220 H   0  0  0  0  0  0  0  0  0  0  0  0
   43.5280   25.2120   35.4380 C   0  0  0  0  0  0  0  0  0  0  0  0
   44.1630   26.0470   35.1720 H   0  0  0  0  0  0  0  0  0  0  0  0
   42.1770   25.1300   35.1880 C   0  0  0  0  0  3  0  0  0  0  0  0
   41.3900   24.0580   35.5360 C   0  0  0  0  0  0  0  0  0  0  0  0
  2  1  1  0  0  0  0
  3 24  1  0  0  0  0
  3  2  2  0  0  0  0
  4  3  1  0  0  0  0
  5  4  2  0  0  0  0
  5  6  1  0  0  0  0
  6  7  2  0  0  0  0
  7  2  1  0  0  0  0
  7 13  1  0  0  0  0
  8  4  1  0  0  0  0
  9  5  1  0  0  0  0
 10  6  1  0  0  0  0
 11 12  1  0  0  0  0
 12 17  1  0  0  0  0
 13 14  1  0  0  0  0
 13 12  2  0  0  0  0
 14 15  2  0  0  0  0
 15 19  1  0  0  0  0
 15 16  1  0  0  0  0
 16 20  1  0  0  0  0
 17 16  2  0  0  0  0
 17 21  1  0  0  0  0
 18 14  1  0  0  0  0
 21 22  1  0  0  0  0
 23 28  1  0  0  0  0
 23 29  1  0  0  0  0
 24 23  2  0  0  0  0
 25 26  2  0  0  0  0
 25 24  1  0  0  0  0
 26 27  1  0  0  0  0
 27 28  2  0  0  0  0
 27 31  1  0  0  0  0
 30 25  1  0  0  0  0
 31 42  2  0  0  0  0
 31 32  1  0  0  0  0
 32 33  2  0  0  0  0
 33 34  1  0  0  0  0
 35 36  1  0  0  0  0
 35 34  2  0  0  0  0
 37 38  1  0  0  0  0
 37 36  2  0  0  0  0
 39 37  1  0  0  0  0
 40 39  1  0  0  0  0
 41 39  2  0  0  0  0
 41 42  1  0  0  0  0
 42 35  1  0  0  0  0
M  END
>  <minimizedAffinity>
-7.30903769

$$$$

 OpenBabel03272502083D

 42 46  0  0  0  0  0  0  0  0999 V2000
   35.8850   28.1050   35.0780 F   0  0  0  0  0  0  0  0  0  0  0  0
   35.7960   28.7310   33.8630 C   0  0  0  0  0  0  0  0  0  0  0  0
   36.5070   28.2960   32.7460 C   0  0  0  0  0  0  0  0  0  0  0  0
   36.3560   28.9620   31.5580 C   0  0  0  0  0  0  0  0  0  0  0  0
   35.4990   30.0650   31.4660 C   0  0  0  0  0  0  0  0  0  0  0  0
   34.8200   30.4530   32.6050 C   0  0  0  0  0  0  0  0  0  0  0  0
   34.9400   29.8280   33.7890 C   0  0  0  0  0  0  0  0  0  0  0  0
   36.9250   28.5910   30.7230 H   0  0  0  0  0  0  0  0  0  0  0  0
   35.4030   30.5680   30.5080 H   0  0  0  0  0  0  0  0  0  0  0  0
   34.1790   31.3100   32.4560 H   0  0  0  0  0  0  0  0  0  0  0  0
   36.2470   32.0870   35.5270 Br  0  0  0  0  0  0  0  0  0  0  0  0
   34.5460   31.2860   35.8360 C   0  0  0  0  0  0  0  0  0  0  0  0
   34.2070   30.2930   34.9480 C   0  0  0  0  0  0  0  0  0  0  0  0
   32.9830   29.6290   35.1400 C   0  0  0  0  0  0  0  0  0  0  0  0
   32.1650   29.9600   36.1640 C   0  0  0  0  0  0  0  0  0  0  0  0
   32.5520   30.9650   37.0230 C   0  0  0  0  0  0  0  0  0  0  0  0
   33.7680   31.6540   36.8680 C   0  0  0  0  0  0  0  0  0  0  0  0
   32.6390   28.8350   34.4890 H   0  0  0  0  0  0  0  0  0  0  0  0
   31.2140   29.4940   36.3710 H   0  0  0  0  0  0  0  0  0  0  0  0
   31.9300   31.2680   37.8600 H   0  0  0  0  0  0  0  0  0  0  0  0
   34.2230   32.6560   37.6680 O   0  0  0  0  0  0  0  0  0  0  0  0
   33.6130   33.0550   38.3770 H   0  0  0  0  0  0  0  0  0  0  0  0
   38.6450   27.4040   33.4040 C   0  0  0  0  0  0  0  0  0  0  0  0
   37.3530   27.1560   32.9750 C   0  0  0  0  0  0  0  0  0  0  0  0
   36.9760   25.8390   32.8270 C   0  0  0  0  0  0  0  0  0  0  0  0
   37.8530   24.8410   33.1000 N   0  0  0  0  0  0  0  0  0  0  0  0
   39.0750   25.1020   33.5090 C   0  0  0  0  0  0  0  0  0  0  0  0
   39.4670   26.3490   33.6580 N   0  0  0  0  0  0  0  0  0  0  0  0
   38.9800   28.4460   33.5310 H   0  0  0  0  0  0  0  0  0  0  0  0
   35.9830   25.5990   32.4940 H   0  0  0  0  0  0  0  0  0  0  0  0
   40.1840   24.1960   33.8630 C   0  0  0  0  0  0  0  0  0  0  0  0
   41.2090   23.8570   33.0550 N   0  0  0  0  0  0  0  0  0  0  0  0
   42.2100   23.0470   33.3560 C   0  0  0  0  0  3  0  0  0  0  0  0
   42.2860   22.4640   34.5610 N   0  0  0  0  0  0  0  0  0  0  0  0
   41.3160   22.7250   35.4640 C   0  0  0  0  0  0  0  0  0  0  0  0
   41.4220   22.1170   36.6810 C   0  0  0  0  0  3  0  0  0  0  0  0
   40.4630   22.3420   37.6440 C   0  0  0  0  0  0  0  0  0  0  0  0
   40.5960   21.8380   38.5880 H   0  0  0  0  0  0  0  0  0  0  0  0
   39.4210   23.1920   37.3180 C   0  0  0  0  0  0  0  0  0  0  0  0
   38.6950   23.3360   38.1070 H   0  0  0  0  0  0  0  0  0  0  0  0
   39.3690   23.7750   36.0730 C   0  0  0  0  0  3  0  0  0  0  0  0
   40.3040   23.5760   35.0860 C   0  0  0  0  0  0  0  0  0  0  0  0
  2  1  1  0  0  0  0
  3 24  1  0  0  0  0
  3  2  2  0  0  0  0
  4  3  1  0  0  0  0
  5  4  2  0  0  0  0
  5  6  1  0  0  0  0
  6  7  2  0  0  0  0
  7  2  1  0  0  0  0
  7 13  1  0  0  0  0
  8  4  1  0  0  0  0
  9  5  1  0  0  0  0
 10  6  1  0  0  0  0
 11 12  1  0  0  0  0
 12 17  1  0  0  0  0
 13 14  1  0  0  0  0
 13 12  2  0  0  0  0
 14 15  2  0  0  0  0
 15 19  1  0  0  0  0
 15 16  1  0  0  0  0
 16 20  1  0  0  0  0
 17 16  2  0  0  0  0
 17 21  1  0  0  0  0
 18 14  1  0  0  0  0
 21 22  1  0  0  0  0
 23 29  1  0  0  0  0
 23 28  1  0  0  0  0
 24 23  2  0  0  0  0
 25 24  1  0  0  0  0
 25 26  2  0  0  0  0
 26 27  1  0  0  0  0
 27 28  2  0  0  0  0
 27 31  1  0  0  0  0
 30 25  1  0  0  0  0
 31 42  1  0  0  0  0
 32 33  1  0  0  0  0
 32 31  2  0  0  0  0
 33 34  2  0  0  0  0
 34 35  1  0  0  0  0
 35 36  1  0  0  0  0
 36 37  2  0  0  0  0
 37 38  1  0  0  0  0
 39 37  1  0  0  0  0
 39 40  1  0  0  0  0
 41 39  2  0  0  0  0
 42 35  2  0  0  0  0
 42 41  1  0  0  0  0
M  END
>  <minimizedAffinity>
-7.27878809

$$$$

 OpenBabel03272502083D

 42 46  0  0  0  0  0  0  0  0999 V2000
   35.4560   28.2250   34.1450 F   0  0  0  0  0  0  0  0  0  0  0  0
   35.8010   29.0680   33.1220 C   0  0  0  0  0  0  0  0  0  0  0  0
   36.3880   28.6090   31.9440 C   0  0  0  0  0  0  0  0  0  0  0  0
   36.6910   29.5080   30.9560 C   0  0  0  0  0  0  0  0  0  0  0  0
   36.4160   30.8710   31.1260 C   0  0  0  0  0  0  0  0  0  0  0  0
   35.8340   31.2690   32.3130 C   0  0  0  0  0  0  0  0  0  0  0  0
   35.5200   30.4200   33.3070 C   0  0  0  0  0  0  0  0  0  0  0  0
   37.1440   29.1090   30.0650 H   0  0  0  0  0  0  0  0  0  0  0  0
   36.6680   31.5550   30.3210 H   0  0  0  0  0  0  0  0  0  0  0  0
   35.6510   32.3330   32.3710 H   0  0  0  0  0  0  0  0  0  0  0  0
   32.4450   29.9570   33.7090 Br  0  0  0  0  0  0  0  0  0  0  0  0
   33.6180   30.7930   34.9550 C   0  0  0  0  0  0  0  0  0  0  0  0
   34.9210   30.9050   34.5330 C   0  0  0  0  0  0  0  0  0  0  0  0
   35.8360   31.5490   35.3860 C   0  0  0  0  0  0  0  0  0  0  0  0
   35.4430   32.0400   36.5830 C   0  0  0  0  0  0  0  0  0  0  0  0
   34.1260   31.8980   36.9580 C   0  0  0  0  0  0  0  0  0  0  0  0
   33.1780   31.2620   36.1360 C   0  0  0  0  0  0  0  0  0  0  0  0
   36.8790   31.6820   35.1320 H   0  0  0  0  0  0  0  0  0  0  0  0
   36.0890   32.5430   37.2860 H   0  0  0  0  0  0  0  0  0  0  0  0
   33.7620   32.2740   37.9100 H   0  0  0  0  0  0  0  0  0  0  0  0
   31.8630   31.0790   36.4300 O   0  0  0  0  0  0  0  0  0  0  0  0
   31.5180   31.2970   37.3620 H   0  0  0  0  0  0  0  0  0  0  0  0
   37.7770   26.7210   32.4940 C   0  0  0  0  0  0  0  0  0  0  0  0
   36.6210   27.1920   31.8970 C   0  0  0  0  0  0  0  0  0  0  0  0
   35.7760   26.2620   31.3310 C   0  0  0  0  0  0  0  0  0  0  0  0
   36.0860   24.9410   31.3710 N   0  0  0  0  0  0  0  0  0  0  0  0
   37.1900   24.5180   31.9470 C   0  0  0  0  0  0  0  0  0  0  0  0
   38.0190   25.3810   32.4950 N   0  0  0  0  0  0  0  0  0  0  0  0
   38.4760   27.4380   32.9550 H   0  0  0  0  0  0  0  0  0  0  0  0
   34.8680   26.5810   30.8550 H   0  0  0  0  0  0  0  0  0  0  0  0
   37.7250   23.1540   32.1130 C   0  0  0  0  0  0  0  0  0  0  0  0
   39.0280   22.8340   32.2510 N   0  0  0  0  0  0  0  0  0  0  0  0
   39.5250   21.6180   32.4010 C   0  0  0  0  0  3  0  0  0  0  0  0
   38.7220   20.5440   32.4270 N   0  0  0  0  0  0  0  0  0  0  0  0
   37.3900   20.7330   32.2980 C   0  0  0  0  0  0  0  0  0  0  0  0
   36.6010   19.6210   32.3290 C   0  0  0  0  0  3  0  0  0  0  0  0
   35.2340   19.7490   32.2020 C   0  0  0  0  0  0  0  0  0  0  0  0
   34.6580   18.8380   32.2340 H   0  0  0  0  0  0  0  0  0  0  0  0
   34.7260   21.0260   32.0470 C   0  0  0  0  0  0  0  0  0  0  0  0
   33.6500   21.0730   31.9520 H   0  0  0  0  0  0  0  0  0  0  0  0
   35.5750   22.1090   32.0230 C   0  0  0  0  0  3  0  0  0  0  0  0
   36.9410   22.0240   32.1460 C   0  0  0  0  0  0  0  0  0  0  0  0
  2  7  1  0  0  0  0
  2  1  1  0  0  0  0
  3  2  2  0  0  0  0
  4  5  2  0  0  0  0
  4  3  1  0  0  0  0
  5  6  1  0  0  0  0
  6 10  1  0  0  0  0
  6  7  2  0  0  0  0
  7 13  1  0  0  0  0
  8  4  1  0  0  0  0
  9  5  1  0  0  0  0
 11 12  1  0  0  0  0
 12 17  1  0  0  0  0
 13 12  2  0  0  0  0
 13 14  1  0  0  0  0
 14 15  2  0  0  0  0
 15 16  1  0  0  0  0
 15 19  1  0  0  0  0
 16 20  1  0  0  0  0
 17 21  1  0  0  0  0
 17 16  2  0  0  0  0
 18 14  1  0  0  0  0
 21 22  1  0  0  0  0
 23 28  1  0  0  0  0
 23 29  1  0  0  0  0
 24  3  1  0  0  0  0
 24 23  2  0  0  0  0
 25 26  2  0  0  0  0
 25 24  1  0  0  0  0
 26 27  1  0  0  0  0
 27 31  1  0  0  0  0
 27 28  2  0  0  0  0
 30 25  1  0  0  0  0
 31 42  2  0  0  0  0
 31 32  1  0  0  0  0
 32 33  2  0  0  0  0
 33 34  1  0  0  0  0
 35 36  1  0  0  0  0
 35 34  2  0  0  0  0
 37 38  1  0  0  0  0
 37 36  2  0  0  0  0
 39 37  1  0  0  0  0
 40 39  1  0  0  0  0
 41 39  2  0  0  0  0
 41 42  1  0  0  0  0
 42 35  1  0  0  0  0
M  END
>  <minimizedAffinity>
-7.20258856

$$$$

 OpenBabel03272502083D

 42 46  0  0  0  0  0  0  0  0999 V2000
   35.3730   28.3930   34.3380 F   0  0  0  0  0  0  0  0  0  0  0  0
   35.3070   29.2890   33.3040 C   0  0  0  0  0  0  0  0  0  0  0  0
   35.8260   29.0090   32.0420 C   0  0  0  0  0  0  0  0  0  0  0  0
   35.7090   29.9480   31.0500 C   0  0  0  0  0  0  0  0  0  0  0  0
   35.0770   31.1720   31.3010 C   0  0  0  0  0  0  0  0  0  0  0  0
   34.5820   31.3950   32.5710 C   0  0  0  0  0  0  0  0  0  0  0  0
   34.6750   30.5020   33.5710 C   0  0  0  0  0  0  0  0  0  0  0  0
   36.1250   29.6890   30.0920 H   0  0  0  0  0  0  0  0  0  0  0  0
   35.0010   31.8920   30.4910 H   0  0  0  0  0  0  0  0  0  0  0  0
   34.1080   32.3590   32.6880 H   0  0  0  0  0  0  0  0  0  0  0  0
   36.3440   32.4160   35.4120 Br  0  0  0  0  0  0  0  0  0  0  0  0
   34.6620   31.6330   35.8500 C   0  0  0  0  0  0  0  0  0  0  0  0
   34.1440   30.8040   34.8850 C   0  0  0  0  0  0  0  0  0  0  0  0
   32.9250   30.1590   35.1570 C   0  0  0  0  0  0  0  0  0  0  0  0
   32.2830   30.3520   36.3310 C   0  0  0  0  0  0  0  0  0  0  0  0
   32.8450   31.1960   37.2620 C   0  0  0  0  0  0  0  0  0  0  0  0
   34.0640   31.8600   37.0310 C   0  0  0  0  0  0  0  0  0  0  0  0
   32.4470   29.4890   34.4540 H   0  0  0  0  0  0  0  0  0  0  0  0
   31.3470   29.8920   36.6060 H   0  0  0  0  0  0  0  0  0  0  0  0
   32.3680   31.3850   38.2200 H   0  0  0  0  0  0  0  0  0  0  0  0
   34.6840   32.7090   37.8940 O   0  0  0  0  0  0  0  0  0  0  0  0
   34.2050   33.0120   38.7390 H   0  0  0  0  0  0  0  0  0  0  0  0
   35.9290   26.8540   30.9740 C   0  0  0  0  0  0  0  0  0  0  0  0
   36.4510   27.7210   31.9170 C   0  0  0  0  0  0  0  0  0  0  0  0
   37.5420   27.2900   32.6400 C   0  0  0  0  0  0  0  0  0  0  0  0
   38.0690   26.0590   32.4160 N   0  0  0  0  0  0  0  0  0  0  0  0
   37.5560   25.2540   31.5110 C   0  0  0  0  0  0  0  0  0  0  0  0
   36.5120   25.6360   30.8060 N   0  0  0  0  0  0  0  0  0  0  0  0
   35.0550   27.1670   30.3790 H   0  0  0  0  0  0  0  0  0  0  0  0
   37.9800   27.9290   33.3840 H   0  0  0  0  0  0  0  0  0  0  0  0
   37.9550   23.8960   31.0980 C   0  0  0  0  0  0  0  0  0  0  0  0
   39.1030   23.5720   30.4690 N   0  0  0  0  0  0  0  0  0  0  0  0
   39.4760   22.3610   30.0920 C   0  0  0  0  0  3  0  0  0  0  0  0
   38.6920   21.2970   30.3190 N   0  0  0  0  0  0  0  0  0  0  0  0
   37.5100   21.4900   30.9450 C   0  0  0  0  0  0  0  0  0  0  0  0
   36.7370   20.3870   31.1620 C   0  0  0  0  0  3  0  0  0  0  0  0
   35.5200   20.5200   31.7950 C   0  0  0  0  0  0  0  0  0  0  0  0
   34.9490   19.6170   31.9410 H   0  0  0  0  0  0  0  0  0  0  0  0
   35.1410   21.7920   32.1860 C   0  0  0  0  0  0  0  0  0  0  0  0
   34.1790   21.8440   32.6770 H   0  0  0  0  0  0  0  0  0  0  0  0
   35.9660   22.8660   31.9380 C   0  0  0  0  0  3  0  0  0  0  0  0
   37.1850   22.7750   31.3100 C   0  0  0  0  0  0  0  0  0  0  0  0
  2  7  1  0  0  0  0
  2  1  1  0  0  0  0
  3  2  2  0  0  0  0
  4  5  2  0  0  0  0
  4  3  1  0  0  0  0
  5  6  1  0  0  0  0
  6 10  1  0  0  0  0
  6  7  2  0  0  0  0
  7 13  1  0  0  0  0
  8  4  1  0  0  0  0
  9  5  1  0  0  0  0
 11 12  1  0  0  0  0
 12 17  1  0  0  0  0
 13 14  1  0  0  0  0
 13 12  2  0  0  0  0
 14 15  2  0  0  0  0
 15 19  1  0  0  0  0
 15 16  1  0  0  0  0
 16 20  1  0  0  0  0
 17 16  2  0  0  0  0
 17 21  1  0  0  0  0
 18 14  1  0  0  0  0
 21 22  1  0  0  0  0
 23 24  1  0  0  0  0
 24  3  1  0  0  0  0
 24 25  2  0  0  0  0
 25 30  1  0  0  0  0
 26 25  1  0  0  0  0
 27 26  2  0  0  0  0
 28 23  2  0  0  0  0
 28 27  1  0  0  0  0
 29 23  1  0  0  0  0
 31 42  1  0  0  0  0
 31 27  1  0  0  0  0
 32 31  2  0  0  0  0
 33 34  2  0  0  0  0
 33 32  1  0  0  0  0
 34 35  1  0  0  0  0
 35 36  2  0  0  0  0
 35 42  1  0  0  0  0
 36 37  1  0  0  0  0
 37 38  1  0  0  0  0
 37 39  2  0  0  0  0
 39 40  1  0  0  0  0
 41 39  1  0  0  0  0
 42 41  2  0  0  0  0
M  END
>  <minimizedAffinity>
-7.20171881

$$$$

 OpenBabel03272502083D

 42 46  0  0  0  0  0  0  0  0999 V2000
   35.1840   28.2980   34.2810 F   0  0  0  0  0  0  0  0  0  0  0  0
   35.6500   29.0670   33.2470 C   0  0  0  0  0  0  0  0  0  0  0  0
   36.2480   28.5130   32.1180 C   0  0  0  0  0  0  0  0  0  0  0  0
   36.6760   29.3430   31.1150 C   0  0  0  0  0  0  0  0  0  0  0  0
   36.5160   30.7300   31.2230 C   0  0  0  0  0  0  0  0  0  0  0  0
   35.9170   31.2230   32.3660 C   0  0  0  0  0  0  0  0  0  0  0  0
   35.4830   30.4450   33.3720 C   0  0  0  0  0  0  0  0  0  0  0  0
   37.1330   28.8710   30.2620 H   0  0  0  0  0  0  0  0  0  0  0  0
   36.8660   31.3570   30.4090 H   0  0  0  0  0  0  0  0  0  0  0  0
   35.8280   32.3000   32.3770 H   0  0  0  0  0  0  0  0  0  0  0  0
   32.3510   30.4860   33.5210 Br  0  0  0  0  0  0  0  0  0  0  0  0
   33.5400   31.1300   34.8640 C   0  0  0  0  0  0  0  0  0  0  0  0
   34.8730   31.0280   34.5490 C   0  0  0  0  0  0  0  0  0  0  0  0
   35.8080   31.5210   35.4770 C   0  0  0  0  0  0  0  0  0  0  0  0
   35.4040   32.0760   36.6420 C   0  0  0  0  0  0  0  0  0  0  0  0
   34.0550   32.1510   36.9080 C   0  0  0  0  0  0  0  0  0  0  0  0
   33.0870   31.6700   36.0080 C   0  0  0  0  0  0  0  0  0  0  0  0
   36.8760   31.4810   35.3090 H   0  0  0  0  0  0  0  0  0  0  0  0
   36.0640   32.4730   37.3980 H   0  0  0  0  0  0  0  0  0  0  0  0
   33.6820   32.5870   37.8300 H   0  0  0  0  0  0  0  0  0  0  0  0
   31.7400   31.7040   36.1940 O   0  0  0  0  0  0  0  0  0  0  0  0
   31.3600   31.9810   37.0960 H   0  0  0  0  0  0  0  0  0  0  0  0
   35.5220   26.3750   31.2820 C   0  0  0  0  0  0  0  0  0  0  0  0
   36.3550   27.0800   32.1310 C   0  0  0  0  0  0  0  0  0  0  0  0
   37.2370   26.3520   32.9010 C   0  0  0  0  0  0  0  0  0  0  0  0
   37.2700   24.9990   32.8100 N   0  0  0  0  0  0  0  0  0  0  0  0
   36.4690   24.3520   31.9920 C   0  0  0  0  0  0  0  0  0  0  0  0
   35.6130   25.0170   31.2460 N   0  0  0  0  0  0  0  0  0  0  0  0
   34.8020   26.9250   30.6530 H   0  0  0  0  0  0  0  0  0  0  0  0
   37.9030   26.8570   33.5770 H   0  0  0  0  0  0  0  0  0  0  0  0
   36.3290   22.9080   31.7260 C   0  0  0  0  0  0  0  0  0  0  0  0
   35.3260   22.1220   32.1670 N   0  0  0  0  0  0  0  0  0  0  0  0
   35.1850   20.8270   31.9390 C   0  0  0  0  0  3  0  0  0  0  0  0
   36.0850   20.1550   31.2060 N   0  0  0  0  0  0  0  0  0  0  0  0
   37.1410   20.8330   30.7050 C   0  0  0  0  0  0  0  0  0  0  0  0
   38.0390   20.1210   29.9630 C   0  0  0  0  0  3  0  0  0  0  0  0
   39.1370   20.7560   29.4250 C   0  0  0  0  0  0  0  0  0  0  0  0
   39.8140   20.1470   28.8480 H   0  0  0  0  0  0  0  0  0  0  0  0
   39.2730   22.1110   29.6710 C   0  0  0  0  0  0  0  0  0  0  0  0
   40.1500   22.5620   29.2280 H   0  0  0  0  0  0  0  0  0  0  0  0
   38.3330   22.7740   30.4270 C   0  0  0  0  0  3  0  0  0  0  0  0
   37.2260   22.1780   30.9810 C   0  0  0  0  0  0  0  0  0  0  0  0
  2  7  1  0  0  0  0
  2  1  1  0  0  0  0
  3 24  1  0  0  0  0
  3  2  2  0  0  0  0
  4  5  2  0  0  0  0
  4  3  1  0  0  0  0
  5  6  1  0  0  0  0
  6 10  1  0  0  0  0
  6  7  2  0  0  0  0
  7 13  1  0  0  0  0
  8  4  1  0  0  0  0
  9  5  1  0  0  0  0
 11 12  1  0  0  0  0
 12 17  1  0  0  0  0
 13 12  2  0  0  0  0
 13 14  1  0  0  0  0
 14 15  2  0  0  0  0
 15 16  1  0  0  0  0
 15 19  1  0  0  0  0
 16 20  1  0  0  0  0
 17 21  1  0  0  0  0
 17 16  2  0  0  0  0
 18 14  1  0  0  0  0
 21 22  1  0  0  0  0
 23 24  1  0  0  0  0
 24 25  2  0  0  0  0
 25 30  1  0  0  0  0
 26 25  1  0  0  0  0
 27 26  2  0  0  0  0
 28 23  2  0  0  0  0
 28 27  1  0  0  0  0
 29 23  1  0  0  0  0
 31 27  1  0  0  0  0
 31 32  1  0  0  0  0
 33 32  2  0  0  0  0
 34 33  1  0  0  0  0
 35 42  1  0  0  0  0
 35 34  2  0  0  0  0
 36 35  1  0  0  0  0
 37 39  1  0  0  0  0
 37 36  2  0  0  0  0
 38 37  1  0  0  0  0
 39 41  2  0  0  0  0
 40 39  1  0  0  0  0
 41 42  1  0  0  0  0
 42 31  2  0  0  0  0
M  END
>  <minimizedAffinity>
-7.00509882

$$$$

 OpenBabel03272502083D

 42 46  0  0  0  0  0  0  0  0999 V2000
   36.4060   23.6690   32.2100 F   0  0  0  0  0  0  0  0  0  0  0  0
   37.5590   23.4190   32.9060 C   0  0  0  0  0  0  0  0  0  0  0  0
   38.2110   24.4040   33.6450 C   0  0  0  0  0  0  0  0  0  0  0  0
   39.3520   24.0780   34.3300 C   0  0  0  0  0  0  0  0  0  0  0  0
   39.8570   22.7720   34.2890 C   0  0  0  0  0  0  0  0  0  0  0  0
   39.1690   21.8370   33.5410 C   0  0  0  0  0  0  0  0  0  0  0  0
   38.0480   22.1150   32.8550 C   0  0  0  0  0  0  0  0  0  0  0  0
   39.8230   24.8700   34.8860 H   0  0  0  0  0  0  0  0  0  0  0  0
   40.7630   22.5490   34.8460 H   0  0  0  0  0  0  0  0  0  0  0  0
   39.6180   20.8540   33.5580 H   0  0  0  0  0  0  0  0  0  0  0  0
   35.6490   20.6030   34.1940 Br  0  0  0  0  0  0  0  0  0  0  0  0
   36.2960   20.3210   32.4240 C   0  0  0  0  0  0  0  0  0  0  0  0
   37.3810   21.0900   32.0790 C   0  0  0  0  0  0  0  0  0  0  0  0
   37.9370   20.9060   30.8000 C   0  0  0  0  0  0  0  0  0  0  0  0
   37.4170   20.0020   29.9400 C   0  0  0  0  0  0  0  0  0  0  0  0
   36.3270   19.2600   30.3360 C   0  0  0  0  0  0  0  0  0  0  0  0
   35.7400   19.4120   31.6050 C   0  0  0  0  0  0  0  0  0  0  0  0
   38.7920   21.4670   30.4480 H   0  0  0  0  0  0  0  0  0  0  0  0
   37.7910   19.8090   28.9460 H   0  0  0  0  0  0  0  0  0  0  0  0
   35.8720   18.5230   29.6800 H   0  0  0  0  0  0  0  0  0  0  0  0
   34.6650   18.7230   32.0740 O   0  0  0  0  0  0  0  0  0  0  0  0
   34.1340   18.1240   31.4450 H   0  0  0  0  0  0  0  0  0  0  0  0
   37.4640   26.2980   32.3610 C   0  0  0  0  0  0  0  0  0  0  0  0
   37.5930   25.7010   33.6020 C   0  0  0  0  0  0  0  0  0  0  0  0
   37.0960   26.3850   34.6900 C   0  0  0  0  0  0  0  0  0  0  0  0
   36.5050   27.5950   34.5260 N   0  0  0  0  0  0  0  0  0  0  0  0
   36.3910   28.1420   33.3350 C   0  0  0  0  0  0  0  0  0  0  0  0
   36.8580   27.5150   32.2760 N   0  0  0  0  0  0  0  0  0  0  0  0
   37.8520   25.7790   31.4690 H   0  0  0  0  0  0  0  0  0  0  0  0
   37.1760   25.9610   35.6740 H   0  0  0  0  0  0  0  0  0  0  0  0
   35.7940   29.4240   32.9190 C   0  0  0  0  0  0  0  0  0  0  0  0
   35.3460   29.7170   31.6810 N   0  0  0  0  0  0  0  0  0  0  0  0
   34.8090   30.8600   31.2910 C   0  0  0  0  0  3  0  0  0  0  0  0
   34.6600   31.8800   32.1500 N   0  0  0  0  0  0  0  0  0  0  0  0
   35.0710   31.7110   33.4260 C   0  0  0  0  0  0  0  0  0  0  0  0
   34.9050   32.7660   34.2750 C   0  0  0  0  0  3  0  0  0  0  0  0
   35.3060   32.6560   35.5890 C   0  0  0  0  0  0  0  0  0  0  0  0
   35.1510   33.5190   36.2160 H   0  0  0  0  0  0  0  0  0  0  0  0
   35.8660   31.4550   35.9850 C   0  0  0  0  0  0  0  0  0  0  0  0
   36.1640   31.4180   37.0240 H   0  0  0  0  0  0  0  0  0  0  0  0
   36.0070   30.4260   35.0810 C   0  0  0  0  0  3  0  0  0  0  0  0
   35.6210   30.4960   33.7640 C   0  0  0  0  0  0  0  0  0  0  0  0
  1  2  1  0  0  0  0
  2  3  1  0  0  0  0
  3  4  2  0  0  0  0
  4  8  1  0  0  0  0
  5  4  1  0  0  0  0
  5  9  1  0  0  0  0
  6 10  1  0  0  0  0
  6  5  2  0  0  0  0
  7  2  2  0  0  0  0
  7  6  1  0  0  0  0
 12 11  1  0  0  0  0
 13 12  1  0  0  0  0
 13  7  1  0  0  0  0
 14 13  2  0  0  0  0
 15 16  2  0  0  0  0
 15 14  1  0  0  0  0
 16 17  1  0  0  0  0
 17 21  1  0  0  0  0
 17 12  2  0  0  0  0
 18 14  1  0  0  0  0
 19 15  1  0  0  0  0
 20 16  1  0  0  0  0
 22 21  1  0  0  0  0
 23 24  1  0  0  0  0
 24  3  1  0  0  0  0
 24 25  2  0  0  0  0
 25 30  1  0  0  0  0
 26 25  1  0  0  0  0
 27 26  2  0  0  0  0
 28 23  2  0  0  0  0
 28 27  1  0  0  0  0
 29 23  1  0  0  0  0
 31 27  1  0  0  0  0
 31 42  1  0  0  0  0
 32 31  2  0  0  0  0
 33 32  1  0  0  0  0
 33 34  2  0  0  0  0
 34 35  1  0  0  0  0
 35 42  2  0  0  0  0
 35 36  1  0  0  0  0
 36 37  2  0  0  0  0
 37 39  1  0  0  0  0
 37 38  1  0  0  0  0
 39 40  1  0  0  0  0
 41 39  2  0  0  0  0
 42 41  1  0  0  0  0
M  END
>  <minimizedAffinity>
-6.95050287

$$$$

 OpenBabel03272502083D

 42 46  0  0  0  0  0  0  0  0999 V2000
   35.1040   28.7830   34.0810 F   0  0  0  0  0  0  0  0  0  0  0  0
   35.7420   29.0400   32.8970 C   0  0  0  0  0  0  0  0  0  0  0  0
   36.8160   28.2740   32.4470 C   0  0  0  0  0  0  0  0  0  0  0  0
   37.3950   28.5800   31.2440 C   0  0  0  0  0  0  0  0  0  0  0  0
   36.9160   29.6480   30.4750 C   0  0  0  0  0  0  0  0  0  0  0  0
   35.8500   30.3720   30.9700 C   0  0  0  0  0  0  0  0  0  0  0  0
   35.2530   30.1060   32.1440 C   0  0  0  0  0  0  0  0  0  0  0  0
   38.2220   27.9620   30.9370 H   0  0  0  0  0  0  0  0  0  0  0  0
   37.3990   29.8600   29.5250 H   0  0  0  0  0  0  0  0  0  0  0  0
   35.5360   31.1780   30.3220 H   0  0  0  0  0  0  0  0  0  0  0  0
   35.8960   32.4610   34.1130 Br  0  0  0  0  0  0  0  0  0  0  0  0
   34.1720   32.0110   33.4380 C   0  0  0  0  0  0  0  0  0  0  0  0
   34.1450   30.9140   32.6110 C   0  0  0  0  0  0  0  0  0  0  0  0
   32.9000   30.5000   32.1080 C   0  0  0  0  0  0  0  0  0  0  0  0
   31.7650   31.1620   32.4280 C   0  0  0  0  0  0  0  0  0  0  0  0
   31.8490   32.2570   33.2590 C   0  0  0  0  0  0  0  0  0  0  0  0
   33.0740   32.7050   33.7850 C   0  0  0  0  0  0  0  0  0  0  0  0
   32.7880   29.6460   31.4520 H   0  0  0  0  0  0  0  0  0  0  0  0
   30.7780   30.9010   32.0790 H   0  0  0  0  0  0  0  0  0  0  0  0
   30.9660   32.8220   33.5440 H   0  0  0  0  0  0  0  0  0  0  0  0
   33.2440   33.7740   34.6080 O   0  0  0  0  0  0  0  0  0  0  0  0
   32.4650   34.4030   34.7890 H   0  0  0  0  0  0  0  0  0  0  0  0
   37.6620   27.5700   34.5890 C   0  0  0  0  0  0  0  0  0  0  0  0
   37.2120   27.2120   33.3300 C   0  0  0  0  0  0  0  0  0  0  0  0
   37.1560   25.8670   33.0370 C   0  0  0  0  0  0  0  0  0  0  0  0
   37.5300   24.9480   33.9620 N   0  0  0  0  0  0  0  0  0  0  0  0
   37.9520   25.3130   35.1530 C   0  0  0  0  0  0  0  0  0  0  0  0
   38.0190   26.5900   35.4640 N   0  0  0  0  0  0  0  0  0  0  0  0
   37.7210   28.6380   34.8560 H   0  0  0  0  0  0  0  0  0  0  0  0
   36.8150   25.5420   32.0710 H   0  0  0  0  0  0  0  0  0  0  0  0
   38.4000   24.5070   36.3030 C   0  0  0  0  0  0  0  0  0  0  0  0
   37.7610   24.4020   37.4860 N   0  0  0  0  0  0  0  0  0  0  0  0
   38.1480   23.6850   38.5270 C   0  0  0  0  0  3  0  0  0  0  0  0
   39.2770   22.9620   38.4830 N   0  0  0  0  0  0  0  0  0  0  0  0
   40.0100   22.9820   37.3480 C   0  0  0  0  0  0  0  0  0  0  0  0
   41.1520   22.2360   37.3350 C   0  0  0  0  0  3  0  0  0  0  0  0
   41.9430   22.2160   36.2070 C   0  0  0  0  0  0  0  0  0  0  0  0
   42.8330   21.6100   36.2510 H   0  0  0  0  0  0  0  0  0  0  0  0
   41.5270   22.9700   35.1250 C   0  0  0  0  0  0  0  0  0  0  0  0
   42.1810   22.9220   34.2650 H   0  0  0  0  0  0  0  0  0  0  0  0
   40.3640   23.7030   35.1990 C   0  0  0  0  0  3  0  0  0  0  0  0
   39.5490   23.7490   36.3040 C   0  0  0  0  0  0  0  0  0  0  0  0
  2  1  1  0  0  0  0
  3  2  1  0  0  0  0
  3 24  1  0  0  0  0
  4  3  2  0  0  0  0
  5  6  2  0  0  0  0
  5  4  1  0  0  0  0
  6  7  1  0  0  0  0
  7 13  1  0  0  0  0
  7  2  2  0  0  0  0
  8  4  1  0  0  0  0
  9  5  1  0  0  0  0
 10  6  1  0  0  0  0
 12 17  1  0  0  0  0
 12 11  1  0  0  0  0
 13 12  2  0  0  0  0
 14 15  2  0  0  0  0
 14 13  1  0  0  0  0
 15 16  1  0  0  0  0
 16 20  1  0  0  0  0
 16 17  2  0  0  0  0
 17 21  1  0  0  0  0
 18 14  1  0  0  0  0
 19 15  1  0  0  0  0
 21 22  1  0  0  0  0
 23 29  1  0  0  0  0
 23 28  1  0  0  0  0
 24 23  2  0  0  0  0
 25 24  1  0  0  0  0
 25 26  2  0  0  0  0
 26 27  1  0  0  0  0
 27 28  2  0  0  0  0
 27 31  1  0  0  0  0
 30 25  1  0  0  0  0
 31 42  2  0  0  0  0
 31 32  1  0  0  0  0
 32 33  2  0  0  0  0
 34 33  1  0  0  0  0
 35 34  2  0  0  0  0
 36 35  1  0  0  0  0
 37 38  1  0  0  0  0
 37 36  2  0  0  0  0
 39 41  2  0  0  0  0
 39 37  1  0  0  0  0
 40 39  1  0  0  0  0
 41 42  1  0  0  0  0
 42 35  1  0  0  0  0
M  END
>  <minimizedAffinity>
-6.89736128

$$$$

 OpenBabel03272502083D

 42 46  0  0  0  0  0  0  0  0999 V2000
   35.7380   27.8970   35.0930 F   0  0  0  0  0  0  0  0  0  0  0  0
   35.9940   28.4540   33.8680 C   0  0  0  0  0  0  0  0  0  0  0  0
   36.9990   27.9790   33.0290 C   0  0  0  0  0  0  0  0  0  0  0  0
   37.1870   28.5750   31.8100 C   0  0  0  0  0  0  0  0  0  0  0  0
   36.3810   29.6480   31.4110 C   0  0  0  0  0  0  0  0  0  0  0  0
   35.4010   30.0780   32.2840 C   0  0  0  0  0  0  0  0  0  0  0  0
   35.1830   29.5220   33.4880 C   0  0  0  0  0  0  0  0  0  0  0  0
   37.9750   28.1750   31.1950 H   0  0  0  0  0  0  0  0  0  0  0  0
   36.5580   30.0960   30.4380 H   0  0  0  0  0  0  0  0  0  0  0  0
   34.8200   30.9080   31.9080 H   0  0  0  0  0  0  0  0  0  0  0  0
   36.0290   31.5290   35.7440 Br  0  0  0  0  0  0  0  0  0  0  0  0
   34.2530   30.9360   35.3880 C   0  0  0  0  0  0  0  0  0  0  0  0
   34.1450   30.0290   34.3610 C   0  0  0  0  0  0  0  0  0  0  0  0
   32.8680   29.5170   34.0680 C   0  0  0  0  0  0  0  0  0  0  0  0
   31.7840   29.9070   34.7750 C   0  0  0  0  0  0  0  0  0  0  0  0
   31.9490   30.8200   35.7920 C   0  0  0  0  0  0  0  0  0  0  0  0
   33.2070   31.3570   36.1180 C   0  0  0  0  0  0  0  0  0  0  0  0
   32.6930   28.7980   33.2780 H   0  0  0  0  0  0  0  0  0  0  0  0
   30.7770   29.5560   34.6060 H   0  0  0  0  0  0  0  0  0  0  0  0
   31.1080   31.1660   36.3880 H   0  0  0  0  0  0  0  0  0  0  0  0
   33.4560   32.2620   37.1030 O   0  0  0  0  0  0  0  0  0  0  0  0
   32.6810   32.7060   37.5900 H   0  0  0  0  0  0  0  0  0  0  0  0
   38.4890   27.1060   34.7060 C   0  0  0  0  0  0  0  0  0  0  0  0
   37.7560   26.8760   33.5560 C   0  0  0  0  0  0  0  0  0  0  0  0
   37.7900   25.6050   33.0260 C   0  0  0  0  0  0  0  0  0  0  0  0
   38.5200   24.6320   33.6280 N   0  0  0  0  0  0  0  0  0  0  0  0
   39.2070   24.8740   34.7220 C   0  0  0  0  0  0  0  0  0  0  0  0
   39.1970   26.0790   35.2520 N   0  0  0  0  0  0  0  0  0  0  0  0
   38.4860   28.1130   35.1560 H   0  0  0  0  0  0  0  0  0  0  0  0
   37.2370   25.3800   32.1330 H   0  0  0  0  0  0  0  0  0  0  0  0
   40.0560   23.9880   35.5400 C   0  0  0  0  0  0  0  0  0  0  0  0
   39.6110   23.0410   36.3900 N   0  0  0  0  0  0  0  0  0  0  0  0
   40.3570   22.2380   37.1310 C   0  0  0  0  0  3  0  0  0  0  0  0
   41.6960   22.3100   37.0900 N   0  0  0  0  0  0  0  0  0  0  0  0
   42.2660   23.2230   36.2730 C   0  0  0  0  0  0  0  0  0  0  0  0
   43.6300   23.2710   36.2540 C   0  0  0  0  0  3  0  0  0  0  0  0
   44.2710   24.1810   35.4410 C   0  0  0  0  0  0  0  0  0  0  0  0
   45.3480   24.1760   35.4650 H   0  0  0  0  0  0  0  0  0  0  0  0
   43.4790   25.0150   34.6710 C   0  0  0  0  0  0  0  0  0  0  0  0
   44.0290   25.7100   34.0520 H   0  0  0  0  0  0  0  0  0  0  0  0
   42.1080   24.9180   34.7350 C   0  0  0  0  0  3  0  0  0  0  0  0
   41.4310   24.0250   35.5310 C   0  0  0  0  0  0  0  0  0  0  0  0
  2  1  1  0  0  0  0
  3 24  1  0  0  0  0
  3  2  2  0  0  0  0
  4  3  1  0  0  0  0
  5  4  2  0  0  0  0
  5  6  1  0  0  0  0
  6  7  2  0  0  0  0
  7  2  1  0  0  0  0
  7 13  1  0  0  0  0
  8  4  1  0  0  0  0
  9  5  1  0  0  0  0
 10  6  1  0  0  0  0
 12 11  1  0  0  0  0
 12 17  1  0  0  0  0
 13 12  2  0  0  0  0
 14 13  1  0  0  0  0
 14 15  2  0  0  0  0
 15 16  1  0  0  0  0
 16 17  2  0  0  0  0
 16 20  1  0  0  0  0
 17 21  1  0  0  0  0
 18 14  1  0  0  0  0
 19 15  1  0  0  0  0
 21 22  1  0  0  0  0
 23 29  1  0  0  0  0
 23 28  1  0  0  0  0
 24 23  2  0  0  0  0
 25 24  1  0  0  0  0
 25 26  2  0  0  0  0
 26 27  1  0  0  0  0
 27 28  2  0  0  0  0
 27 31  1  0  0  0  0
 30 25  1  0  0  0  0
 31 32  1  0  0  0  0
 32 33  2  0  0  0  0
 34 33  1  0  0  0  0
 35 34  2  0  0  0  0
 36 35  1  0  0  0  0
 37 38  1  0  0  0  0
 37 36  2  0  0  0  0
 39 41  2  0  0  0  0
 39 37  1  0  0  0  0
 40 39  1  0  0  0  0
 41 42  1  0  0  0  0
 42 31  2  0  0  0  0
 42 35  1  0  0  0  0
M  END
>  <minimizedAffinity>
-6.88474417

$$$$
