
 OpenBabel03272503233D

 33 36  0  0  1  0  0  0  0  0999 V2000
   35.5780   29.4500   48.2390 N   0  0  0  0  0  0  0  0  0  0  0  0
   36.7950   29.8390   48.8060 C   0  0  2  0  0  0  0  0  0  0  0  0
   36.5110   29.7180   50.3260 C   0  0  0  0  0  0  0  0  0  0  0  0
   35.1280   29.1410   50.4580 C   0  0  0  0  0  0  0  0  0  0  0  0
   34.9900   28.4290   49.1470 C   0  0  0  0  0  0  0  0  0  0  0  0
   37.4970   28.9380   48.6620 H   0  0  0  0  0  0  0  0  0  0  0  0
   37.2820   29.1610   50.8540 H   0  0  0  0  0  0  0  0  0  0  0  0
   36.5040   30.7630   50.7100 H   0  0  0  0  0  0  0  0  0  0  0  0
   34.3380   29.9380   50.5050 H   0  0  0  0  0  0  0  0  0  0  0  0
   35.0440   28.4490   51.3260 H   0  0  0  0  0  0  0  0  0  0  0  0
   33.9660   28.1760   48.8780 H   0  0  0  0  0  0  0  0  0  0  0  0
   35.6930   27.5780   49.1180 H   0  0  0  0  0  0  0  0  0  0  0  0
   37.4790   31.0750   48.5430 C   0  0  0  0  0  0  0  0  0  0  0  0
   37.1810   31.9970   49.5200 N   0  0  0  0  0  0  0  0  0  0  0  0
   37.7910   33.2190   49.4850 C   0  0  0  0  0  0  0  0  0  0  0  0
   38.6870   33.5560   48.5130 N   0  0  0  0  0  0  0  0  0  0  0  0
   39.0090   32.6900   47.5370 C   0  0  0  0  0  0  0  0  0  0  0  0
   39.8970   32.9290   46.5080 C   0  0  0  0  0  0  0  0  0  0  0  0
   40.1400   31.9420   45.5540 C   0  0  0  0  0  0  0  0  0  0  0  0
   40.8380   32.1470   44.7570 H   0  0  0  0  0  0  0  0  0  0  0  0
   39.5040   30.6970   45.6100 C   0  0  0  0  0  0  0  0  0  0  0  0
   39.7180   29.9470   44.8480 H   0  0  0  0  0  0  0  0  0  0  0  0
   38.6220   30.4840   46.6500 C   0  0  0  0  0  0  0  0  0  0  0  0
   38.3910   31.4680   47.5840 C   0  0  0  0  0  0  0  0  0  0  0  0
   34.9240   29.8190   47.0390 C   0  0  0  0  0  0  0  0  0  0  0  0
   33.6010   30.1940   47.1920 C   0  0  0  0  0  0  0  0  0  0  0  0
   32.8440   30.6100   46.1010 C   0  0  0  0  0  0  0  0  0  0  0  0
   33.5000   30.6180   44.8880 N   0  0  0  0  0  0  0  0  0  0  0  0
   34.7840   30.2480   44.7700 C   0  0  0  0  0  0  0  0  0  0  0  0
   35.5040   29.8460   45.8490 N   0  0  0  0  0  0  0  0  0  0  0  0
   32.8990   30.2740   47.9890 H   0  0  0  0  0  0  0  0  0  0  0  0
   31.8450   30.9350   45.9730 H   0  0  0  0  0  0  0  0  0  0  0  0
   35.2990   30.2520   43.8240 H   0  0  0  0  0  0  0  0  0  0  0  0
  1  2  1  0  0  0  0
  1  5  1  0  0  0  0
  2  6  1  6  0  0  0
  2  3  1  0  0  0  0
  3  4  1  0  0  0  0
  3  8  1  0  0  0  0
  3  7  1  0  0  0  0
  4  9  1  0  0  0  0
  4 10  1  0  0  0  0
  5  4  1  0  0  0  0
 11  5  1  0  0  0  0
 12  5  1  0  0  0  0
 13  2  1  0  0  0  0
 13 14  1  0  0  0  0
 15 14  2  0  0  0  0
 16 15  1  0  0  0  0
 17 24  1  0  0  0  0
 17 16  2  0  0  0  0
 18 17  1  0  0  0  0
 19 21  1  0  0  0  0
 19 18  2  0  0  0  0
 20 19  1  0  0  0  0
 21 23  2  0  0  0  0
 22 21  1  0  0  0  0
 23 24  1  0  0  0  0
 24 13  2  0  0  0  0
 25 26  1  0  0  0  0
 25  1  1  0  0  0  0
 26 31  1  0  0  0  0
 27 26  2  0  0  0  0
 28 27  1  0  0  0  0
 29 28  2  0  0  0  0
 29 30  1  0  0  0  0
 30 25  2  0  0  0  0
 32 27  1  0  0  0  0
 33 29  1  0  0  0  0
M  END
>  <minimizedAffinity>
-6.41432047

>  <minimizedRMSD>
2.78894663

$$$$
