
 OpenBabel03272501333D

 30 33  0  0  1  0  0  0  0  0999 V2000
   34.3440   30.3130   44.9900 C   0  0  2  0  0  0  0  0  0  0  0  0
   34.1560   29.9200   43.4720 C   0  0  0  0  0  0  0  0  0  0  0  0
   35.3390   30.7010   44.0190 C   0  0  2  0  0  0  0  0  0  0  0  0
   33.4270   30.9490   45.2330 H   0  0  0  0  0  0  0  0  0  0  0  0
   34.2750   28.8720   43.2070 H   0  0  0  0  0  0  0  0  0  0  0  0
   33.3750   30.4480   42.9140 H   0  0  0  0  0  0  0  0  0  0  0  0
   35.3150   31.7770   43.6690 H   0  0  0  0  0  0  0  0  0  0  0  0
   36.6160   29.9780   43.8480 C   0  0  0  0  0  0  0  0  0  0  0  0
   37.0510   28.9180   43.1730 N   0  0  0  0  0  0  0  0  0  0  0  0
   38.2890   28.4550   43.2200 C   0  0  0  0  0  0  0  0  0  0  0  0
   39.2240   29.0270   43.9680 N   0  0  0  0  0  0  0  0  0  0  0  0
   38.9090   30.1080   44.6970 C   0  0  0  0  0  0  0  0  0  0  0  0
   39.9400   30.6360   45.4380 C   0  0  0  0  0  0  0  0  0  0  0  0
   39.6540   31.7490   46.1970 C   0  0  0  0  0  0  0  0  0  0  0  0
   40.4390   32.1910   46.7930 H   0  0  0  0  0  0  0  0  0  0  0  0
   38.3930   32.3010   46.2110 C   0  0  0  0  0  0  0  0  0  0  0  0
   38.1560   33.1740   46.8020 H   0  0  0  0  0  0  0  0  0  0  0  0
   37.4260   31.7030   45.4380 C   0  0  0  0  0  0  0  0  0  0  0  0
   37.6050   30.5740   44.6300 C   0  0  0  0  0  0  0  0  0  0  0  0
   34.3990   29.0910   45.8280 C   0  0  0  0  0  0  0  0  0  0  0  0
   34.2290   27.9960   45.2340 O   0  0  0  0  0  0  0  0  0  0  0  0
   34.5370   28.2610   49.4640 C   0  0  0  0  0  0  0  0  0  0  0  0
   34.3510   28.1450   48.0950 C   0  0  0  0  0  0  0  0  0  0  0  0
   34.6290   29.2220   47.2460 C   0  0  0  0  0  0  0  0  0  0  0  0
   35.0760   30.3390   47.8210 N   0  0  0  0  0  0  0  0  0  0  0  0
   35.2530   30.4320   49.1650 C   0  0  0  0  0  0  0  0  0  0  0  0
   34.9930   29.4160   49.9920 N   0  0  0  0  0  0  0  0  0  0  0  0
   34.3220   27.4270   50.1230 H   0  0  0  0  0  0  0  0  0  0  0  0
   33.9860   27.2250   47.6570 H   0  0  0  0  0  0  0  0  0  0  0  0
   35.6180   31.3510   49.6040 H   0  0  0  0  0  0  0  0  0  0  0  0
  1  4  1  1  0  0  0
  1 20  1  0  0  0  0
  2  3  1  0  0  0  0
  2  1  1  0  0  0  0
  3  7  1  6  0  0  0
  3  1  1  0  0  0  0
  5  2  1  0  0  0  0
  6  2  1  0  0  0  0
  8  3  1  0  0  0  0
  8 19  1  0  0  0  0
  9 10  1  0  0  0  0
  9  8  2  0  0  0  0
 10 11  2  0  0  0  0
 11 12  1  0  0  0  0
 12 13  1  0  0  0  0
 13 14  2  0  0  0  0
 14 16  1  0  0  0  0
 14 15  1  0  0  0  0
 16 17  1  0  0  0  0
 18 16  2  0  0  0  0
 19 12  2  0  0  0  0
 19 18  1  0  0  0  0
 20 24  1  0  0  0  0
 21 20  2  0  0  0  0
 22 27  1  0  0  0  0
 22 28  1  0  0  0  0
 23 22  2  0  0  0  0
 24 25  2  0  0  0  0
 24 23  1  0  0  0  0
 25 26  1  0  0  0  0
 26 30  1  0  0  0  0
 26 27  2  0  0  0  0
 29 23  1  0  0  0  0
M  END
>  <minimizedAffinity>
-4.49914408

>  <minimizedRMSD>
5.64153242

$$$$
