
 OpenBabel03272503573D

 37 41  0  0  0  0  0  0  0  0999 V2000
   37.2690   30.0270   50.8050 C   0  0  0  0  0  0  0  0  0  0  0  0
   38.1090   30.9300   50.1400 C   0  0  0  0  0  0  0  0  0  0  0  0
   37.7400   31.2810   48.8330 C   0  0  0  0  0  0  0  0  0  0  0  0
   36.6400   30.7290   48.3540 N   0  0  0  0  0  0  0  0  0  0  0  0
   35.8300   29.8820   48.9450 C   0  0  0  0  0  0  0  0  0  0  0  0
   36.2070   29.5720   50.1760 N   0  0  0  0  0  0  0  0  0  0  0  0
   38.9610   31.2920   50.6510 H   0  0  0  0  0  0  0  0  0  0  0  0
   34.5980   29.2280   48.5360 C   0  0  0  0  0  0  0  0  0  0  0  0
   33.7730   28.5920   49.4160 N   0  0  0  0  0  0  0  0  0  0  0  0
   32.6350   28.0180   49.0420 C   0  0  0  0  0  0  0  0  0  0  0  0
   32.1840   28.0020   47.7820 N   0  0  0  0  0  0  0  0  0  0  0  0
   32.9490   28.6130   46.8460 C   0  0  0  0  0  0  0  0  0  0  0  0
   32.5000   28.6030   45.5450 C   0  0  0  0  0  0  0  0  0  0  0  0
   33.2400   29.2050   44.5570 C   0  0  0  0  0  0  0  0  0  0  0  0
   34.4210   29.8000   44.9410 C   0  0  0  0  0  0  0  0  0  0  0  0
   34.8300   29.7840   46.2600 C   0  0  0  0  0  0  0  0  0  0  0  0
   34.1160   29.1960   47.2590 C   0  0  0  0  0  0  0  0  0  0  0  0
   31.9780   27.5050   49.7720 H   0  0  0  0  0  0  0  0  0  0  0  0
   31.5650   28.1290   45.2570 H   0  0  0  0  0  0  0  0  0  0  0  0
   32.9050   29.2090   43.5300 H   0  0  0  0  0  0  0  0  0  0  0  0
   34.9800   30.2660   44.1270 H   0  0  0  0  0  0  0  0  0  0  0  0
   35.7780   30.2700   46.3900 H   0  0  0  0  0  0  0  0  0  0  0  0
   38.6290   32.2490   48.2460 C   0  0  0  0  0  0  0  0  0  0  0  0
   38.9190   33.4110   48.8640 N   0  0  0  0  0  0  0  0  0  0  0  0
   39.7230   34.3580   48.3800 C   0  0  0  0  0  3  0  0  0  0  0  0
   40.3360   34.2440   47.2010 N   0  0  0  0  0  0  0  0  0  0  0  0
   40.1190   33.1210   46.4910 C   0  0  0  0  0  0  0  0  0  0  0  0
   40.7130   32.9570   45.2610 C   0  0  0  0  0  3  0  0  0  0  0  0
   40.5010   31.8420   44.5110 C   0  0  0  0  0  0  0  0  0  0  0  0
   40.9680   31.7140   43.5460 H   0  0  0  0  0  0  0  0  0  0  0  0
   39.6530   30.8570   45.0290 C   0  0  0  0  0  0  0  0  0  0  0  0
   39.4910   29.9770   44.4270 H   0  0  0  0  0  0  0  0  0  0  0  0
   39.0870   31.0740   46.2630 C   0  0  0  0  0  3  0  0  0  0  0  0
   39.2790   32.1810   47.0450 C   0  0  0  0  0  0  0  0  0  0  0  0
   37.5510   29.6030   52.1460 N   0  0  0  0  0  0  0  0  0  0  0  0
   38.0260   28.6670   52.1110 H   0  0  0  0  0  0  0  0  0  0  0  0
   37.3080   30.1630   52.9840 H   0  0  0  0  0  0  0  0  0  0  0  0
  1 35  1  0  0  0  0
  2  7  1  0  0  0  0
  2  1  2  0  0  0  0
  3  2  1  0  0  0  0
  4  3  2  0  0  0  0
  4  5  1  0  0  0  0
  5  6  2  0  0  0  0
  6  1  1  0  0  0  0
  8  5  1  0  0  0  0
  8  9  1  0  0  0  0
 10  9  2  0  0  0  0
 10 18  1  0  0  0  0
 11 10  1  0  0  0  0
 12 17  1  0  0  0  0
 12 11  2  0  0  0  0
 13 12  1  0  0  0  0
 14 15  1  0  0  0  0
 14 13  2  0  0  0  0
 15 16  2  0  0  0  0
 16 22  1  0  0  0  0
 16 17  1  0  0  0  0
 17  8  2  0  0  0  0
 19 13  1  0  0  0  0
 20 14  1  0  0  0  0
 21 15  1  0  0  0  0
 23  3  1  0  0  0  0
 23 24  1  0  0  0  0
 25 24  2  0  0  0  0
 26 25  1  0  0  0  0
 27 34  1  0  0  0  0
 27 26  2  0  0  0  0
 28 27  1  0  0  0  0
 29 31  1  0  0  0  0
 29 28  2  0  0  0  0
 30 29  1  0  0  0  0
 31 33  2  0  0  0  0
 32 31  1  0  0  0  0
 33 34  1  0  0  0  0
 34 23  2  0  0  0  0
 35 37  1  0  0  0  0
 36 35  1  0  0  0  0
M  END
>  <minimizedAffinity>
-7.71958923

>  <minimizedRMSD>
1.19061959

$$$$
