
 OpenBabel03262521003D

 38 41  0  0  1  0  0  0  0  0999 V2000
   36.5050   30.0790   50.0780 C   0  0  0  0  0  0  0  0  0  0  0  0
   37.5870   30.2920   49.2380 C   0  0  0  0  0  0  0  0  0  0  0  0
   37.3830   30.5000   47.9100 C   0  0  0  0  0  0  0  0  0  0  0  0
   36.0780   30.4780   47.5220 N   0  0  0  0  0  0  0  0  0  0  0  0
   35.0490   30.2750   48.3290 C   0  0  0  0  0  0  0  0  0  0  0  0
   35.2830   30.0780   49.6040 N   0  0  0  0  0  0  0  0  0  0  0  0
   36.5810   29.9060   51.1390 H   0  0  0  0  0  0  0  0  0  0  0  0
   38.5860   30.2880   49.6380 H   0  0  0  0  0  0  0  0  0  0  0  0
   33.9610   30.4120   47.3680 C   0  0  2  0  0  0  0  0  0  0  0  0
   33.0660   30.5230   46.5780 N   0  0  0  0  0  0  0  0  0  0  0  0
   32.1680   30.7600   45.7640 C   0  0  0  0  0  0  0  0  0  0  0  0
   31.8390   29.4760   45.6820 N   0  0  0  0  0  0  0  0  0  0  0  0
   32.5220   28.5530   46.4180 C   0  0  0  0  0  0  0  0  0  0  0  0
   32.0480   27.2270   46.2020 C   0  0  0  0  0  0  0  0  0  0  0  0
   32.6970   26.2580   46.8950 C   0  0  0  0  0  0  0  0  0  0  0  0
   32.3170   25.2840   46.7110 H   0  0  0  0  0  0  0  0  0  0  0  0
   33.7380   26.4590   47.7550 C   0  0  0  0  0  0  0  0  0  0  0  0
   34.2510   25.7160   48.2980 H   0  0  0  0  0  0  0  0  0  0  0  0
   34.0700   27.8110   47.8480 C   0  0  0  0  0  0  0  0  0  0  0  0
   33.5790   29.0160   47.2580 C   0  0  0  0  0  0  0  0  0  0  0  0
   38.6700   30.7870   46.7220 S   0  0  0  0  0  0  0  0  0  0  0  0
   39.7830   33.1180   45.9170 N   0  0  0  0  0  0  0  0  0  0  0  0
   38.5250   32.4830   46.0550 C   0  0  1  0  0  0  0  0  0  0  0  0
   37.8700   32.3280   44.7030 C   0  0  0  0  0  0  0  0  0  0  0  0
   38.7470   31.5150   43.8770 N   0  0  0  0  0  0  0  0  0  0  0  0
   39.9280   32.3750   43.6240 C   0  0  0  0  0  0  0  0  0  0  0  0
   40.6430   32.4910   44.9610 C   0  0  2  0  0  0  0  0  0  0  0  0
   40.2080   33.5460   46.7300 H   0  0  0  0  0  0  0  0  0  0  0  0
   37.8700   33.0570   46.7410 H   0  0  0  0  0  0  0  0  0  0  0  0
   36.8900   31.8380   44.8670 H   0  0  0  0  0  0  0  0  0  0  0  0
   37.7370   33.3560   44.2690 H   0  0  0  0  0  0  0  0  0  0  0  0
   38.2640   31.2920   42.9890 H   0  0  0  0  0  0  0  0  0  0  0  0
   40.5290   31.8820   42.8470 H   0  0  0  0  0  0  0  0  0  0  0  0
   39.6060   33.3840   43.3180 H   0  0  0  0  0  0  0  0  0  0  0  0
   41.5360   33.1350   44.8490 H   0  0  0  0  0  0  0  0  0  0  0  0
   41.1000   31.1710   45.3460 N   0  0  0  0  0  0  0  0  0  0  0  0
   42.0490   31.0720   44.8930 H   0  0  0  0  0  0  0  0  0  0  0  0
   41.2010   31.0940   46.3930 H   0  0  0  0  0  0  0  0  0  0  0  0
  1  7  1  0  0  0  0
  2  8  1  0  0  0  0
  2  1  2  0  0  0  0
  3  2  1  0  0  0  0
  4  3  2  0  0  0  0
  4  5  1  0  0  0  0
  5  6  2  0  0  0  0
  6  1  1  0  0  0  0
  9  5  1  1  0  0  0
 10  9  1  0  0  0  0
 11 10  1  0  0  0  0
 12 11  1  0  0  0  0
 12 13  1  0  0  0  0
 13 20  1  0  0  0  0
 14 13  2  0  0  0  0
 14 15  1  0  0  0  0
 15 17  2  0  0  0  0
 16 15  1  0  0  0  0
 17 19  1  0  0  0  0
 17 18  1  0  0  0  0
 20  9  1  0  0  0  0
 20 19  2  0  0  0  0
 21  3  1  0  0  0  0
 22 23  1  0  0  0  0
 22 28  1  0  0  0  0
 23 21  1  0  0  0  0
 23 29  1  1  0  0  0
 24 30  1  0  0  0  0
 24 23  1  0  0  0  0
 25 24  1  0  0  0  0
 26 25  1  0  0  0  0
 26 27  1  0  0  0  0
 27 35  1  6  0  0  0
 27 36  1  0  0  0  0
 27 22  1  0  0  0  0
 31 24  1  0  0  0  0
 32 25  1  0  0  0  0
 33 26  1  0  0  0  0
 34 26  1  0  0  0  0
 36 38  1  0  0  0  0
 37 36  1  0  0  0  0
M  END
>  <minimizedAffinity>
-6.42999315

>  <minimizedRMSD>
3.22891331

$$$$
