
 OpenBabel03272500123D

 24 26  0  0  0  0  0  0  0  0999 V2000
   35.8560   28.8370   50.0910 C   0  0  0  0  0  0  0  0  0  0  0  0
   36.2540   30.1210   49.6960 C   0  0  0  0  0  0  0  0  0  0  0  0
   35.7170   30.6230   48.5150 C   0  0  0  0  0  0  0  0  0  0  0  0
   34.8500   29.8500   47.8210 N   0  0  0  0  0  0  0  0  0  0  0  0
   34.4820   28.6380   48.2020 C   0  0  0  0  0  0  0  0  0  0  0  0
   34.9830   28.1420   49.3260 N   0  0  0  0  0  0  0  0  0  0  0  0
   36.2850   28.4650   51.0110 H   0  0  0  0  0  0  0  0  0  0  0  0
   35.9850   31.5850   48.1750 H   0  0  0  0  0  0  0  0  0  0  0  0
   33.5610   27.6600   47.5880 C   0  0  0  0  0  0  0  0  0  0  0  0
   33.8600   26.8840   46.5450 N   0  0  0  0  0  0  0  0  0  0  0  0
   33.0120   26.0070   46.0080 C   0  0  0  0  0  3  0  0  0  0  0  0
   31.7640   25.8130   46.4620 N   0  0  0  0  0  0  0  0  0  0  0  0
   31.3860   26.5590   47.5130 C   0  0  0  0  0  0  0  0  0  0  0  0
   30.1130   26.3500   47.9660 C   0  0  0  0  0  3  0  0  0  0  0  0
   29.6440   27.0700   49.0370 C   0  0  0  0  0  0  0  0  0  0  0  0
   28.6420   26.8980   49.3840 H   0  0  0  0  0  0  0  0  0  0  0  0
   30.5140   27.9980   49.6220 C   0  0  0  0  0  0  0  0  0  0  0  0
   30.0920   28.5300   50.4550 H   0  0  0  0  0  0  0  0  0  0  0  0
   31.7710   28.1520   49.1150 C   0  0  0  0  0  3  0  0  0  0  0  0
   32.2860   27.4570   48.0470 C   0  0  0  0  0  0  0  0  0  0  0  0
   37.2160   30.8770   50.5580 C   0  0  0  0  0  0  0  0  0  0  0  0
   38.5130   30.7620   50.0750 F   0  0  0  0  0  0  0  0  0  0  0  0
   36.8580   32.2190   50.4950 F   0  0  0  0  0  0  0  0  0  0  0  0
   37.1760   30.4580   51.8670 F   0  0  0  0  0  0  0  0  0  0  0  0
  1  7  1  0  0  0  0
  2  1  1  0  0  0  0
  2 21  1  0  0  0  0
  3  2  2  0  0  0  0
  4  5  2  0  0  0  0
  4  3  1  0  0  0  0
  5  6  1  0  0  0  0
  6  1  2  0  0  0  0
  8  3  1  0  0  0  0
  9 20  1  0  0  0  0
  9  5  1  0  0  0  0
 10  9  2  0  0  0  0
 11 12  2  0  0  0  0
 11 10  1  0  0  0  0
 12 13  1  0  0  0  0
 13 14  2  0  0  0  0
 13 20  1  0  0  0  0
 14 15  1  0  0  0  0
 15 16  1  0  0  0  0
 15 17  2  0  0  0  0
 17 18  1  0  0  0  0
 19 17  1  0  0  0  0
 20 19  2  0  0  0  0
 21 24  1  0  0  0  0
 22 21  1  0  0  0  0
 23 21  1  0  0  0  0
M  END
>  <minimizedAffinity>
-5.4594779

>  <minimizedRMSD>
0.516547501

$$$$
