
 OpenBabel03272503573D

 37 41  0  0  0  0  0  0  0  0999 V2000
   37.2530   29.9600   50.8020 C   0  0  0  0  0  0  0  0  0  0  0  0
   38.0920   30.8730   50.1480 C   0  0  0  0  0  0  0  0  0  0  0  0
   37.7210   31.2420   48.8470 C   0  0  0  0  0  0  0  0  0  0  0  0
   36.6200   30.6970   48.3620 N   0  0  0  0  0  0  0  0  0  0  0  0
   35.8110   29.8420   48.9420 C   0  0  0  0  0  0  0  0  0  0  0  0
   36.1900   29.5150   50.1680 N   0  0  0  0  0  0  0  0  0  0  0  0
   38.9450   31.2280   50.6620 H   0  0  0  0  0  0  0  0  0  0  0  0
   34.5780   29.1940   48.5250 C   0  0  0  0  0  0  0  0  0  0  0  0
   33.7480   28.5550   49.4000 N   0  0  0  0  0  0  0  0  0  0  0  0
   32.6100   27.9870   49.0190 C   0  0  0  0  0  0  0  0  0  0  0  0
   32.1630   27.9800   47.7580 N   0  0  0  0  0  0  0  0  0  0  0  0
   32.9310   28.5940   46.8280 C   0  0  0  0  0  0  0  0  0  0  0  0
   32.4860   28.5930   45.5260 C   0  0  0  0  0  0  0  0  0  0  0  0
   33.2310   29.1980   44.5430 C   0  0  0  0  0  0  0  0  0  0  0  0
   34.4130   29.7870   44.9330 C   0  0  0  0  0  0  0  0  0  0  0  0
   34.8180   29.7620   46.2540 C   0  0  0  0  0  0  0  0  0  0  0  0
   34.1000   29.1710   47.2470 C   0  0  0  0  0  0  0  0  0  0  0  0
   31.9500   27.4720   49.7450 H   0  0  0  0  0  0  0  0  0  0  0  0
   31.5510   28.1230   45.2320 H   0  0  0  0  0  0  0  0  0  0  0  0
   32.8990   29.2090   43.5160 H   0  0  0  0  0  0  0  0  0  0  0  0
   34.9750   30.2560   44.1240 H   0  0  0  0  0  0  0  0  0  0  0  0
   35.7670   30.2450   46.3890 H   0  0  0  0  0  0  0  0  0  0  0  0
   38.6090   32.2180   48.2720 C   0  0  0  0  0  0  0  0  0  0  0  0
   38.8910   33.3760   48.9000 N   0  0  0  0  0  0  0  0  0  0  0  0
   39.6940   34.3290   48.4260 C   0  0  0  0  0  0  0  0  0  0  0  0
   40.3140   34.2280   47.2510 N   0  0  0  0  0  0  0  0  0  0  0  0
   40.1050   33.1080   46.5320 C   0  0  0  0  0  0  0  0  0  0  0  0
   40.7080   32.9560   45.3030 C   0  0  0  0  0  0  0  0  0  0  0  0
   40.5050   31.8460   44.5440 C   0  0  0  0  0  0  0  0  0  0  0  0
   40.9770   31.7260   43.5820 H   0  0  0  0  0  0  0  0  0  0  0  0
   39.6580   30.8530   45.0500 C   0  0  0  0  0  0  0  0  0  0  0  0
   39.5020   29.9770   44.4410 H   0  0  0  0  0  0  0  0  0  0  0  0
   39.0840   31.0590   46.2820 C   0  0  0  0  0  0  0  0  0  0  0  0
   39.2660   32.1610   47.0740 C   0  0  0  0  0  0  0  0  0  0  0  0
   37.5370   29.5180   52.1360 N   0  0  0  0  0  0  0  0  0  0  0  0
   38.0120   28.5830   52.0870 H   0  0  0  0  0  0  0  0  0  0  0  0
   37.2950   30.0670   52.9820 H   0  0  0  0  0  0  0  0  0  0  0  0
  1 35  1  0  0  0  0
  2  7  1  0  0  0  0
  2  1  2  0  0  0  0
  3  2  1  0  0  0  0
  4  3  2  0  0  0  0
  4  5  1  0  0  0  0
  5  6  2  0  0  0  0
  6  1  1  0  0  0  0
  8  5  1  0  0  0  0
  8  9  1  0  0  0  0
 10  9  2  0  0  0  0
 10 18  1  0  0  0  0
 11 10  1  0  0  0  0
 12 17  1  0  0  0  0
 12 11  2  0  0  0  0
 13 12  1  0  0  0  0
 14 15  1  0  0  0  0
 14 13  2  0  0  0  0
 15 16  2  0  0  0  0
 16 22  1  0  0  0  0
 16 17  1  0  0  0  0
 17  8  2  0  0  0  0
 19 13  1  0  0  0  0
 20 14  1  0  0  0  0
 21 15  1  0  0  0  0
 23  3  1  0  0  0  0
 23 24  1  0  0  0  0
 25 24  2  0  0  0  0
 26 25  1  0  0  0  0
 27 34  1  0  0  0  0
 27 26  2  0  0  0  0
 28 27  1  0  0  0  0
 29 31  1  0  0  0  0
 29 28  2  0  0  0  0
 30 29  1  0  0  0  0
 31 33  2  0  0  0  0
 32 31  1  0  0  0  0
 33 34  1  0  0  0  0
 34 23  2  0  0  0  0
 35 37  1  0  0  0  0
 36 35  1  0  0  0  0
M  END
>  <minimizedAffinity>
-7.7264576

>  <minimizedRMSD>
0.892931342

$$$$
