
 OpenBabel03272500113D

 24 26  0  0  0  0  0  0  0  0999 V2000
   35.6320   29.0890   50.2330 C   0  0  0  0  0  0  0  0  0  0  0  0
   36.3570   30.1520   49.6780 C   0  0  0  0  0  0  0  0  0  0  0  0
   36.1750   30.4130   48.3240 C   0  0  0  0  0  0  0  0  0  0  0  0
   35.3170   29.6330   47.6260 N   0  0  0  0  0  0  0  0  0  0  0  0
   34.6380   28.6310   48.1590 C   0  0  0  0  0  0  0  0  0  0  0  0
   34.7980   28.3660   49.4500 N   0  0  0  0  0  0  0  0  0  0  0  0
   35.7880   28.9010   51.2860 H   0  0  0  0  0  0  0  0  0  0  0  0
   36.6970   31.2030   47.8590 H   0  0  0  0  0  0  0  0  0  0  0  0
   33.6700   27.6840   47.5690 C   0  0  0  0  0  0  0  0  0  0  0  0
   33.7450   26.3550   47.6730 N   0  0  0  0  0  0  0  0  0  0  0  0
   32.8590   25.5210   47.1300 C   0  0  0  0  0  3  0  0  0  0  0  0
   31.7960   25.9300   46.4200 N   0  0  0  0  0  0  0  0  0  0  0  0
   31.6510   27.2560   46.2710 C   0  0  0  0  0  0  0  0  0  0  0  0
   30.5640   27.6610   45.5460 C   0  0  0  0  0  3  0  0  0  0  0  0
   30.3380   28.9990   45.3420 C   0  0  0  0  0  0  0  0  0  0  0  0
   29.4810   29.3050   44.7710 H   0  0  0  0  0  0  0  0  0  0  0  0
   31.2530   29.8990   45.9010 C   0  0  0  0  0  0  0  0  0  0  0  0
   31.0250   30.9320   45.7090 H   0  0  0  0  0  0  0  0  0  0  0  0
   32.3150   29.4240   46.6120 C   0  0  0  0  0  3  0  0  0  0  0  0
   32.5840   28.0950   46.8430 C   0  0  0  0  0  0  0  0  0  0  0  0
   37.2700   30.9430   50.5620 C   0  0  0  0  0  0  0  0  0  0  0  0
   38.5790   30.8850   50.1030 F   0  0  0  0  0  0  0  0  0  0  0  0
   36.8560   32.2690   50.4970 F   0  0  0  0  0  0  0  0  0  0  0  0
   37.2220   30.5160   51.8680 F   0  0  0  0  0  0  0  0  0  0  0  0
  1  7  1  0  0  0  0
  2  1  1  0  0  0  0
  2 21  1  0  0  0  0
  3  2  2  0  0  0  0
  4  5  2  0  0  0  0
  4  3  1  0  0  0  0
  5  6  1  0  0  0  0
  6  1  2  0  0  0  0
  8  3  1  0  0  0  0
  9 10  1  0  0  0  0
  9  5  1  0  0  0  0
 11 10  2  0  0  0  0
 12 11  1  0  0  0  0
 13 12  2  0  0  0  0
 13 20  1  0  0  0  0
 14 13  1  0  0  0  0
 15 14  2  0  0  0  0
 15 17  1  0  0  0  0
 16 15  1  0  0  0  0
 17 19  2  0  0  0  0
 18 17  1  0  0  0  0
 19 20  1  0  0  0  0
 20  9  2  0  0  0  0
 21 24  1  0  0  0  0
 22 21  1  0  0  0  0
 23 21  1  0  0  0  0
M  END
>  <minimizedAffinity>
-5.27328014

>  <minimizedRMSD>
0.702593982

$$$$
