
 OpenBabel03272507133D

 43 48  0  0  0  0  0  0  0  0999 V2000
   37.2450   29.4980   50.2320 C   0  0  0  0  0  0  0  0  0  0  0  0
   37.8880   28.8970   51.1350 O   0  0  0  0  0  0  0  0  0  0  0  0
   37.8080   30.5790   49.4490 C   0  0  0  0  0  0  0  0  0  0  0  0
   38.3180   31.6680   50.1100 C   0  0  0  0  0  0  0  0  0  0  0  0
   38.8690   32.7000   49.3730 C   0  0  0  0  0  0  0  0  0  0  0  0
   38.8740   32.5770   48.0330 N   0  0  0  0  0  0  0  0  0  0  0  0
   38.3850   31.5300   47.3750 C   0  0  0  0  0  0  0  0  0  0  0  0
   37.8600   30.5550   48.1310 N   0  0  0  0  0  0  0  0  0  0  0  0
   38.3230   31.7870   51.1800 H   0  0  0  0  0  0  0  0  0  0  0  0
   39.2930   33.5920   49.7570 H   0  0  0  0  0  0  0  0  0  0  0  0
   38.2890   31.1990   45.9380 C   0  0  0  0  0  0  0  0  0  0  0  0
   39.2670   31.4080   45.0520 N   0  0  0  0  0  0  0  0  0  0  0  0
   39.1380   31.0930   43.7660 C   0  0  0  0  0  3  0  0  0  0  0  0
   38.0370   30.5470   43.2380 N   0  0  0  0  0  0  0  0  0  0  0  0
   36.9980   30.3010   44.0600 C   0  0  0  0  0  0  0  0  0  0  0  0
   35.8660   29.7400   43.5210 C   0  0  0  0  0  3  0  0  0  0  0  0
   34.7850   29.4740   44.3300 C   0  0  0  0  0  0  0  0  0  0  0  0
   33.9320   29.0390   43.8580 H   0  0  0  0  0  0  0  0  0  0  0  0
   34.8920   29.7910   45.6700 C   0  0  0  0  0  0  0  0  0  0  0  0
   34.0180   29.5640   46.2610 H   0  0  0  0  0  0  0  0  0  0  0  0
   36.0540   30.3520   46.1480 C   0  0  0  0  0  3  0  0  0  0  0  0
   37.1590   30.6370   45.3860 C   0  0  0  0  0  0  0  0  0  0  0  0
   35.8770   29.1020   49.9480 C   0  0  0  0  0  0  0  0  0  0  0  0
   34.8310   29.5450   50.6920 C   0  0  0  0  0  0  0  0  0  0  0  0
   33.6760   28.9720   50.1460 C   0  0  0  0  0  0  0  0  0  0  0  0
   34.1100   28.1980   49.0760 C   0  0  0  0  0  0  0  0  0  0  0  0
   35.4170   28.3150   49.0100 O   0  0  0  0  0  0  0  0  0  0  0  0
   34.8450   30.2190   51.5590 H   0  0  0  0  0  0  0  0  0  0  0  0
   32.6850   29.1510   50.5420 H   0  0  0  0  0  0  0  0  0  0  0  0
   33.6460   26.5790   47.2180 C   0  0  0  0  0  0  0  0  0  0  0  0
   33.2160   27.4170   48.2180 C   0  0  0  0  0  0  0  0  0  0  0  0
   31.8650   27.5850   48.4810 C   0  0  0  0  0  0  0  0  0  0  0  0
   30.9420   26.8890   47.7150 C   0  0  0  0  0  0  0  0  0  0  0  0
   29.6120   26.8510   47.7340 N   0  0  0  0  0  0  0  0  0  0  0  0
   29.2270   26.0150   46.7750 N   0  0  0  0  0  0  0  0  0  0  0  0
   30.3030   25.5160   46.1420 C   0  0  0  0  0  0  0  0  0  0  0  0
   31.4330   26.0540   46.7150 C   0  0  0  0  0  0  0  0  0  0  0  0
   32.7910   25.8790   46.4440 C   0  0  0  0  0  0  0  0  0  0  0  0
   34.7120   26.4940   47.0670 H   0  0  0  0  0  0  0  0  0  0  0  0
   31.4370   28.2320   49.2580 H   0  0  0  0  0  0  0  0  0  0  0  0
   28.9770   27.3820   48.3850 H   0  0  0  0  0  0  0  0  0  0  0  0
   30.2450   24.8170   45.3280 H   0  0  0  0  0  0  0  0  0  0  0  0
   33.0870   25.2070   45.6450 H   0  0  0  0  0  0  0  0  0  0  0  0
  1  2  2  0  0  0  0
  3  4  1  0  0  0  0
  3  1  1  0  0  0  0
  4  9  1  0  0  0  0
  5 10  1  0  0  0  0
  5  4  2  0  0  0  0
  6  5  1  0  0  0  0
  7  6  2  0  0  0  0
  7  8  1  0  0  0  0
  8  3  2  0  0  0  0
 11  7  1  0  0  0  0
 12 11  2  0  0  0  0
 13 12  1  0  0  0  0
 14 13  2  0  0  0  0
 14 15  1  0  0  0  0
 15 22  1  0  0  0  0
 16 15  2  0  0  0  0
 16 17  1  0  0  0  0
 17 19  2  0  0  0  0
 18 17  1  0  0  0  0
 19 21  1  0  0  0  0
 19 20  1  0  0  0  0
 22 11  1  0  0  0  0
 22 21  2  0  0  0  0
 23  1  1  0  0  0  0
 23 24  2  0  0  0  0
 24 28  1  0  0  0  0
 25 29  1  0  0  0  0
 25 24  1  0  0  0  0
 26 25  2  0  0  0  0
 27 26  1  0  0  0  0
 27 23  1  0  0  0  0
 30 31  1  0  0  0  0
 31 32  2  0  0  0  0
 31 26  1  0  0  0  0
 32 40  1  0  0  0  0
 33 34  1  0  0  0  0
 33 32  1  0  0  0  0
 34 41  1  0  0  0  0
 35 34  1  0  0  0  0
 36 37  1  0  0  0  0
 36 35  2  0  0  0  0
 37 33  2  0  0  0  0
 38 37  1  0  0  0  0
 38 30  2  0  0  0  0
 39 30  1  0  0  0  0
 42 36  1  0  0  0  0
 43 38  1  0  0  0  0
M  END
>  <minimizedAffinity>
-7.14969206

>  <minimizedRMSD>
0.585932851

$$$$
