
 OpenBabel03272510073D

 33 36  0  0  0  0  0  0  0  0999 V2000
   37.7520   27.4620   35.2700 C   0  0  0  0  0  0  0  0  0  0  0  0
   38.0300   26.3090   34.5300 C   0  0  0  0  0  0  0  0  0  0  0  0
   37.3830   26.1330   33.2810 C   0  0  0  0  0  0  0  0  0  0  0  0
   36.5150   27.0990   32.8540 N   0  0  0  0  0  0  0  0  0  0  0  0
   36.2870   28.1960   33.6190 C   0  0  0  0  0  0  0  0  0  0  0  0
   36.8890   28.3870   34.8080 N   0  0  0  0  0  0  0  0  0  0  0  0
   35.3530   29.1760   33.1110 N   0  0  0  0  0  0  0  0  0  0  0  0
   35.5310   29.8960   31.8700 C   0  0  0  0  0  0  0  0  0  0  0  0
   34.2260   30.5770   31.6370 C   0  0  0  0  0  0  0  0  0  0  0  0
   33.2510   30.0090   32.6570 C   0  0  0  0  0  0  0  0  0  0  0  0
   34.1130   29.5690   33.7790 C   0  0  0  0  0  0  0  0  0  0  0  0
   38.2650   27.5760   36.1970 H   0  0  0  0  0  0  0  0  0  0  0  0
   37.5330   25.2810   32.6420 H   0  0  0  0  0  0  0  0  0  0  0  0
   36.3410   30.6520   31.9260 H   0  0  0  0  0  0  0  0  0  0  0  0
   35.7980   29.2190   31.0320 H   0  0  0  0  0  0  0  0  0  0  0  0
   33.8660   30.3650   30.6160 H   0  0  0  0  0  0  0  0  0  0  0  0
   34.3240   31.6780   31.7440 H   0  0  0  0  0  0  0  0  0  0  0  0
   32.6530   29.1880   32.1990 H   0  0  0  0  0  0  0  0  0  0  0  0
   32.5950   30.8480   32.9970 H   0  0  0  0  0  0  0  0  0  0  0  0
   34.2710   30.3300   34.5510 H   0  0  0  0  0  0  0  0  0  0  0  0
   33.6310   28.6740   34.2680 H   0  0  0  0  0  0  0  0  0  0  0  0
   38.8920   25.2140   34.8720 C   0  0  0  0  0  0  0  0  0  0  0  0
   39.7660   24.8270   33.9130 N   0  0  0  0  0  0  0  0  0  0  0  0
   40.6010   23.8080   34.1580 C   0  0  0  0  0  3  0  0  0  0  0  0
   40.6530   23.0990   35.3230 N   0  0  0  0  0  0  0  0  0  0  0  0
   39.7960   23.4570   36.2980 C   0  0  0  0  0  0  0  0  0  0  0  0
   39.7420   22.8050   37.5310 C   0  0  0  0  0  3  0  0  0  0  0  0
   38.8320   23.1940   38.5160 C   0  0  0  0  0  0  0  0  0  0  0  0
   38.8110   22.6730   39.4620 H   0  0  0  0  0  0  0  0  0  0  0  0
   37.9590   24.2580   38.2580 C   0  0  0  0  0  0  0  0  0  0  0  0
   37.2490   24.5580   39.0300 H   0  0  0  0  0  0  0  0  0  0  0  0
   38.0440   24.8760   37.0290 C   0  0  0  0  0  3  0  0  0  0  0  0
   38.9390   24.5020   36.0500 C   0  0  0  0  0  0  0  0  0  0  0  0
  1 12  1  0  0  0  0
  2 22  1  0  0  0  0
  2  1  2  0  0  0  0
  3  2  1  0  0  0  0
  4  3  2  0  0  0  0
  4  5  1  0  0  0  0
  5  6  2  0  0  0  0
  6  1  1  0  0  0  0
  7  5  1  0  0  0  0
  7 11  1  0  0  0  0
  8 14  1  0  0  0  0
  8  7  1  0  0  0  0
  9 17  1  0  0  0  0
  9  8  1  0  0  0  0
  9 10  1  0  0  0  0
 10 19  1  0  0  0  0
 10 11  1  0  0  0  0
 11 21  1  0  0  0  0
 11 20  1  0  0  0  0
 13  3  1  0  0  0  0
 15  8  1  0  0  0  0
 16  9  1  0  0  0  0
 18 10  1  0  0  0  0
 22 33  1  0  0  0  0
 23 24  1  0  0  0  0
 23 22  2  0  0  0  0
 24 25  2  0  0  0  0
 25 26  1  0  0  0  0
 26 27  1  0  0  0  0
 27 28  2  0  0  0  0
 28 29  1  0  0  0  0
 30 28  1  0  0  0  0
 30 31  1  0  0  0  0
 32 30  2  0  0  0  0
 33 26  2  0  0  0  0
 33 32  1  0  0  0  0
M  END
>  <minimizedAffinity>
-5.77166033

$$$$

 OpenBabel03272510073D

 33 36  0  0  0  0  0  0  0  0999 V2000
   37.7430   24.7890   33.6520 C   0  0  0  0  0  0  0  0  0  0  0  0
   37.9870   25.2120   34.9620 C   0  0  0  0  0  0  0  0  0  0  0  0
   37.8520   26.5900   35.2660 C   0  0  0  0  0  0  0  0  0  0  0  0
   37.4890   27.4460   34.2640 N   0  0  0  0  0  0  0  0  0  0  0  0
   37.2670   26.9740   33.0110 C   0  0  0  0  0  0  0  0  0  0  0  0
   37.3880   25.6700   32.6980 N   0  0  0  0  0  0  0  0  0  0  0  0
   36.8920   27.9340   31.9970 N   0  0  0  0  0  0  0  0  0  0  0  0
   35.7030   28.7530   32.0590 C   0  0  0  0  0  0  0  0  0  0  0  0
   35.8710   29.7480   30.9620 C   0  0  0  0  0  0  0  0  0  0  0  0
   37.3000   29.6040   30.4600 C   0  0  0  0  0  0  0  0  0  0  0  0
   37.6590   28.2040   30.7820 C   0  0  0  0  0  0  0  0  0  0  0  0
   37.8360   23.7450   33.4570 H   0  0  0  0  0  0  0  0  0  0  0  0
   38.0170   27.0090   36.2430 H   0  0  0  0  0  0  0  0  0  0  0  0
   34.7730   28.1700   31.8950 H   0  0  0  0  0  0  0  0  0  0  0  0
   35.5880   29.2450   33.0480 H   0  0  0  0  0  0  0  0  0  0  0  0
   35.7100   30.7690   31.3490 H   0  0  0  0  0  0  0  0  0  0  0  0
   35.1380   29.5730   30.1460 H   0  0  0  0  0  0  0  0  0  0  0  0
   37.9550   30.3620   30.9480 H   0  0  0  0  0  0  0  0  0  0  0  0
   37.2790   29.7390   29.3500 H   0  0  0  0  0  0  0  0  0  0  0  0
   37.4460   27.4880   29.9800 H   0  0  0  0  0  0  0  0  0  0  0  0
   38.7650   28.1610   30.9990 H   0  0  0  0  0  0  0  0  0  0  0  0
   38.3960   24.4280   36.0930 C   0  0  0  0  0  0  0  0  0  0  0  0
   37.5500   24.4260   37.1490 N   0  0  0  0  0  0  0  0  0  0  0  0
   37.8670   23.7200   38.2430 C   0  0  0  0  0  3  0  0  0  0  0  0
   39.0030   22.9790   38.3970 N   0  0  0  0  0  0  0  0  0  0  0  0
   39.8680   22.9610   37.3660 C   0  0  0  0  0  0  0  0  0  0  0  0
   41.0700   22.2520   37.4020 C   0  0  0  0  0  3  0  0  0  0  0  0
   41.9510   22.2650   36.3180 C   0  0  0  0  0  0  0  0  0  0  0  0
   42.8740   21.7080   36.3720 H   0  0  0  0  0  0  0  0  0  0  0  0
   41.6190   23.0040   35.1770 C   0  0  0  0  0  0  0  0  0  0  0  0
   42.3100   23.0120   34.3330 H   0  0  0  0  0  0  0  0  0  0  0  0
   40.4230   23.6910   35.1800 C   0  0  0  0  0  3  0  0  0  0  0  0
   39.5450   23.6840   36.2430 C   0  0  0  0  0  0  0  0  0  0  0  0
  1  2  1  0  0  0  0
  2  3  2  0  0  0  0
  2 22  1  0  0  0  0
  3 13  1  0  0  0  0
  4  3  1  0  0  0  0
  5  4  2  0  0  0  0
  6  5  1  0  0  0  0
  6  1  2  0  0  0  0
  7  8  1  0  0  0  0
  7  5  1  0  0  0  0
  8 15  1  0  0  0  0
  9 16  1  0  0  0  0
  9  8  1  0  0  0  0
 10 11  1  0  0  0  0
 10 18  1  0  0  0  0
 10  9  1  0  0  0  0
 11 21  1  0  0  0  0
 11  7  1  0  0  0  0
 12  1  1  0  0  0  0
 14  8  1  0  0  0  0
 17  9  1  0  0  0  0
 19 10  1  0  0  0  0
 20 11  1  0  0  0  0
 22 33  2  0  0  0  0
 22 23  1  0  0  0  0
 23 24  2  0  0  0  0
 24 25  1  0  0  0  0
 26 27  1  0  0  0  0
 26 25  2  0  0  0  0
 28 29  1  0  0  0  0
 28 27  2  0  0  0  0
 30 32  2  0  0  0  0
 30 28  1  0  0  0  0
 31 30  1  0  0  0  0
 32 33  1  0  0  0  0
 33 26  1  0  0  0  0
M  END
>  <minimizedAffinity>
-5.77035379

$$$$

 OpenBabel03272510073D

 33 36  0  0  0  0  0  0  0  0999 V2000
   37.5880   25.6900   31.9030 C   0  0  0  0  0  0  0  0  0  0  0  0
   36.5710   26.4720   31.3490 C   0  0  0  0  0  0  0  0  0  0  0  0
   35.3930   25.8280   30.8930 C   0  0  0  0  0  0  0  0  0  0  0  0
   35.3030   24.4690   31.0150 N   0  0  0  0  0  0  0  0  0  0  0  0
   36.3270   23.7660   31.5620 C   0  0  0  0  0  0  0  0  0  0  0  0
   37.4550   24.3540   32.0030 N   0  0  0  0  0  0  0  0  0  0  0  0
   36.1690   22.3310   31.6570 N   0  0  0  0  0  0  0  0  0  0  0  0
   35.1230   21.6800   32.4120 C   0  0  0  0  0  0  0  0  0  0  0  0
   35.2000   20.2470   32.0080 C   0  0  0  0  0  0  0  0  0  0  0  0
   36.1560   20.1800   30.8260 C   0  0  0  0  0  0  0  0  0  0  0  0
   37.0410   21.3540   31.0060 C   0  0  0  0  0  0  0  0  0  0  0  0
   38.4540   26.2030   32.2520 H   0  0  0  0  0  0  0  0  0  0  0  0
   34.5570   26.3440   30.4530 H   0  0  0  0  0  0  0  0  0  0  0  0
   35.2680   21.7670   33.5080 H   0  0  0  0  0  0  0  0  0  0  0  0
   34.1240   22.1150   32.1970 H   0  0  0  0  0  0  0  0  0  0  0  0
   34.2030   19.8850   31.7050 H   0  0  0  0  0  0  0  0  0  0  0  0
   35.5540   19.6130   32.8480 H   0  0  0  0  0  0  0  0  0  0  0  0
   35.5840   20.1890   29.8700 H   0  0  0  0  0  0  0  0  0  0  0  0
   36.7540   19.2410   30.9330 H   0  0  0  0  0  0  0  0  0  0  0  0
   37.9500   21.1480   31.5830 H   0  0  0  0  0  0  0  0  0  0  0  0
   37.3540   21.7240   29.9880 H   0  0  0  0  0  0  0  0  0  0  0  0
   36.5470   27.8920   31.1380 C   0  0  0  0  0  0  0  0  0  0  0  0
   36.9150   28.3140   29.9060 N   0  0  0  0  0  0  0  0  0  0  0  0
   36.9220   29.6260   29.6370 C   0  0  0  0  0  3  0  0  0  0  0  0
   36.5820   30.6100   30.5190 N   0  0  0  0  0  0  0  0  0  0  0  0
   36.2120   30.2250   31.7550 C   0  0  0  0  0  0  0  0  0  0  0  0
   35.8510   31.1330   32.7520 C   0  0  0  0  0  3  0  0  0  0  0  0
   35.4840   30.7000   34.0280 C   0  0  0  0  0  0  0  0  0  0  0  0
   35.2100   31.4240   34.7810 H   0  0  0  0  0  0  0  0  0  0  0  0
   35.4800   29.3280   34.3080 C   0  0  0  0  0  0  0  0  0  0  0  0
   35.1930   28.9940   35.3070 H   0  0  0  0  0  0  0  0  0  0  0  0
   35.8420   28.4630   33.2970 C   0  0  0  0  0  3  0  0  0  0  0  0
   36.2040   28.8800   32.0340 C   0  0  0  0  0  0  0  0  0  0  0  0
  1  6  1  0  0  0  0
  1 12  1  0  0  0  0
  2  1  2  0  0  0  0
  3  4  2  0  0  0  0
  3  2  1  0  0  0  0
  4  5  1  0  0  0  0
  5  7  1  0  0  0  0
  5  6  2  0  0  0  0
  7  8  1  0  0  0  0
  8 14  1  0  0  0  0
  9  8  1  0  0  0  0
  9 17  1  0  0  0  0
 10 19  1  0  0  0  0
 10 11  1  0  0  0  0
 10  9  1  0  0  0  0
 11 20  1  0  0  0  0
 11  7  1  0  0  0  0
 13  3  1  0  0  0  0
 15  8  1  0  0  0  0
 16  9  1  0  0  0  0
 18 10  1  0  0  0  0
 21 11  1  0  0  0  0
 22  2  1  0  0  0  0
 22 33  1  0  0  0  0
 23 22  2  0  0  0  0
 24 23  1  0  0  0  0
 24 25  2  0  0  0  0
 25 26  1  0  0  0  0
 26 33  2  0  0  0  0
 26 27  1  0  0  0  0
 27 28  2  0  0  0  0
 28 30  1  0  0  0  0
 28 29  1  0  0  0  0
 30 31  1  0  0  0  0
 32 30  2  0  0  0  0
 33 32  1  0  0  0  0
M  END
>  <minimizedAffinity>
-5.72377586

$$$$

 OpenBabel03272510073D

 33 36  0  0  0  0  0  0  0  0999 V2000
   37.5570   25.2600   33.6990 C   0  0  0  0  0  0  0  0  0  0  0  0
   37.7450   26.6180   33.9720 C   0  0  0  0  0  0  0  0  0  0  0  0
   38.7730   26.9930   34.8740 C   0  0  0  0  0  0  0  0  0  0  0  0
   39.5360   26.0080   35.4380 N   0  0  0  0  0  0  0  0  0  0  0  0
   39.3030   24.7070   35.1330 C   0  0  0  0  0  0  0  0  0  0  0  0
   38.3340   24.3270   34.2790 N   0  0  0  0  0  0  0  0  0  0  0  0
   40.1430   23.7160   35.7690 N   0  0  0  0  0  0  0  0  0  0  0  0
   41.5780   23.6510   35.6100 C   0  0  0  0  0  0  0  0  0  0  0  0
   42.0270   22.6650   36.6340 C   0  0  0  0  0  0  0  0  0  0  0  0
   40.8240   22.3800   37.5210 C   0  0  0  0  0  0  0  0  0  0  0  0
   39.6580   22.6550   36.6500 C   0  0  0  0  0  0  0  0  0  0  0  0
   36.7880   25.0100   33.0050 H   0  0  0  0  0  0  0  0  0  0  0  0
   38.9930   28.0100   35.1460 H   0  0  0  0  0  0  0  0  0  0  0  0
   41.8820   23.3050   34.6010 H   0  0  0  0  0  0  0  0  0  0  0  0
   42.0580   24.6420   35.7550 H   0  0  0  0  0  0  0  0  0  0  0  0
   42.8460   23.0920   37.2380 H   0  0  0  0  0  0  0  0  0  0  0  0
   42.4040   21.7350   36.1570 H   0  0  0  0  0  0  0  0  0  0  0  0
   40.8640   23.0150   38.4360 H   0  0  0  0  0  0  0  0  0  0  0  0
   40.8490   21.2930   37.7790 H   0  0  0  0  0  0  0  0  0  0  0  0
   39.2910   21.7820   36.0990 H   0  0  0  0  0  0  0  0  0  0  0  0
   38.8140   23.0370   37.2950 H   0  0  0  0  0  0  0  0  0  0  0  0
   37.0040   27.7420   33.4740 C   0  0  0  0  0  0  0  0  0  0  0  0
   36.1750   28.3440   34.3580 N   0  0  0  0  0  0  0  0  0  0  0  0
   35.4470   29.3970   33.9630 C   0  0  0  0  0  3  0  0  0  0  0  0
   35.4640   29.9380   32.7100 N   0  0  0  0  0  0  0  0  0  0  0  0
   36.2780   29.3620   31.8050 C   0  0  0  0  0  0  0  0  0  0  0  0
   36.3780   29.8130   30.4870 C   0  0  0  0  0  3  0  0  0  0  0  0
   37.2240   29.1850   29.5700 C   0  0  0  0  0  0  0  0  0  0  0  0
   37.2830   29.5530   28.5570 H   0  0  0  0  0  0  0  0  0  0  0  0
   37.9820   28.0830   29.9840 C   0  0  0  0  0  0  0  0  0  0  0  0
   38.6410   27.5940   29.2640 H   0  0  0  0  0  0  0  0  0  0  0  0
   37.8550   27.6690   31.2930 C   0  0  0  0  0  3  0  0  0  0  0  0
   37.0250   28.2820   32.2070 C   0  0  0  0  0  0  0  0  0  0  0  0
  1  2  2  0  0  0  0
  1  6  1  0  0  0  0
  2  3  1  0  0  0  0
  3 13  1  0  0  0  0
  3  4  2  0  0  0  0
  5  4  1  0  0  0  0
  5  7  1  0  0  0  0
  6  5  2  0  0  0  0
  7 11  1  0  0  0  0
  8 15  1  0  0  0  0
  8  7  1  0  0  0  0
  8  9  1  0  0  0  0
  9 16  1  0  0  0  0
  9 10  1  0  0  0  0
 10 19  1  0  0  0  0
 10 18  1  0  0  0  0
 11 21  1  0  0  0  0
 11 10  1  0  0  0  0
 12  1  1  0  0  0  0
 14  8  1  0  0  0  0
 17  9  1  0  0  0  0
 20 11  1  0  0  0  0
 22  2  1  0  0  0  0
 22 23  1  0  0  0  0
 24 23  2  0  0  0  0
 25 24  1  0  0  0  0
 26 33  1  0  0  0  0
 26 25  2  0  0  0  0
 27 26  1  0  0  0  0
 28 30  1  0  0  0  0
 28 27  2  0  0  0  0
 29 28  1  0  0  0  0
 30 32  2  0  0  0  0
 31 30  1  0  0  0  0
 32 33  1  0  0  0  0
 33 22  2  0  0  0  0
M  END
>  <minimizedAffinity>
-5.59054232

$$$$

 OpenBabel03272510073D

 33 36  0  0  0  0  0  0  0  0999 V2000
   37.4840   24.9150   32.9800 C   0  0  0  0  0  0  0  0  0  0  0  0
   38.6040   25.1360   33.7870 C   0  0  0  0  0  0  0  0  0  0  0  0
   39.1510   26.4420   33.8450 C   0  0  0  0  0  0  0  0  0  0  0  0
   38.5610   27.4300   33.1070 N   0  0  0  0  0  0  0  0  0  0  0  0
   37.4750   27.1520   32.3410 C   0  0  0  0  0  0  0  0  0  0  0  0
   36.9370   25.9200   32.2710 N   0  0  0  0  0  0  0  0  0  0  0  0
   36.9030   28.2410   31.5820 N   0  0  0  0  0  0  0  0  0  0  0  0
   36.3610   29.4430   32.1740 C   0  0  0  0  0  0  0  0  0  0  0  0
   36.1390   30.3650   31.0240 C   0  0  0  0  0  0  0  0  0  0  0  0
   36.8050   29.7220   29.8170 C   0  0  0  0  0  0  0  0  0  0  0  0
   36.7950   28.2730   30.1240 C   0  0  0  0  0  0  0  0  0  0  0  0
   37.0850   23.9270   32.9690 H   0  0  0  0  0  0  0  0  0  0  0  0
   40.0090   26.7090   34.4370 H   0  0  0  0  0  0  0  0  0  0  0  0
   35.4020   29.2660   32.7010 H   0  0  0  0  0  0  0  0  0  0  0  0
   37.0500   29.8820   32.9260 H   0  0  0  0  0  0  0  0  0  0  0  0
   36.6010   31.3450   31.2290 H   0  0  0  0  0  0  0  0  0  0  0  0
   35.0550   30.5280   30.8450 H   0  0  0  0  0  0  0  0  0  0  0  0
   37.8260   30.1450   29.6720 H   0  0  0  0  0  0  0  0  0  0  0  0
   36.1540   29.9210   28.9300 H   0  0  0  0  0  0  0  0  0  0  0  0
   35.9120   27.7400   29.7530 H   0  0  0  0  0  0  0  0  0  0  0  0
   37.7060   27.8030   29.6530 H   0  0  0  0  0  0  0  0  0  0  0  0
   39.3320   24.1900   34.5850 C   0  0  0  0  0  0  0  0  0  0  0  0
   40.2790   23.4740   33.9360 N   0  0  0  0  0  0  0  0  0  0  0  0
   40.9970   22.5680   34.6150 C   0  0  0  0  0  3  0  0  0  0  0  0
   40.8560   22.2910   35.9440 N   0  0  0  0  0  0  0  0  0  0  0  0
   39.9210   22.9860   36.6190 C   0  0  0  0  0  0  0  0  0  0  0  0
   39.6710   22.7890   37.9790 C   0  0  0  0  0  3  0  0  0  0  0  0
   38.6850   23.5180   38.6460 C   0  0  0  0  0  0  0  0  0  0  0  0
   38.5120   23.3470   39.6980 H   0  0  0  0  0  0  0  0  0  0  0  0
   37.9350   24.4630   37.9350 C   0  0  0  0  0  0  0  0  0  0  0  0
   37.1650   25.0300   38.4610 H   0  0  0  0  0  0  0  0  0  0  0  0
   38.2120   24.6280   36.5950 C   0  0  0  0  0  3  0  0  0  0  0  0
   39.1840   23.9150   35.9260 C   0  0  0  0  0  0  0  0  0  0  0  0
  1  2  1  0  0  0  0
  2  3  2  0  0  0  0
  2 22  1  0  0  0  0
  3 13  1  0  0  0  0
  4  3  1  0  0  0  0
  5  4  2  0  0  0  0
  6  5  1  0  0  0  0
  6  1  2  0  0  0  0
  7  8  1  0  0  0  0
  7  5  1  0  0  0  0
  8 14  1  0  0  0  0
  8 15  1  0  0  0  0
  9 16  1  0  0  0  0
  9  8  1  0  0  0  0
 10 11  1  0  0  0  0
 10  9  1  0  0  0  0
 11  7  1  0  0  0  0
 12  1  1  0  0  0  0
 17  9  1  0  0  0  0
 18 10  1  0  0  0  0
 19 10  1  0  0  0  0
 20 11  1  0  0  0  0
 21 11  1  0  0  0  0
 22 33  1  0  0  0  0
 23 22  2  0  0  0  0
 23 24  1  0  0  0  0
 24 25  2  0  0  0  0
 25 26  1  0  0  0  0
 26 27  1  0  0  0  0
 27 28  2  0  0  0  0
 28 29  1  0  0  0  0
 30 31  1  0  0  0  0
 30 28  1  0  0  0  0
 32 30  2  0  0  0  0
 33 32  1  0  0  0  0
 33 26  2  0  0  0  0
M  END
>  <minimizedAffinity>
-5.55331659

$$$$

 OpenBabel03272510073D

 33 36  0  0  0  0  0  0  0  0999 V2000
   37.1380   25.8230   32.3180 C   0  0  0  0  0  0  0  0  0  0  0  0
   36.1230   26.5350   31.6730 C   0  0  0  0  0  0  0  0  0  0  0  0
   35.0990   25.8110   31.0130 C   0  0  0  0  0  0  0  0  0  0  0  0
   35.1490   24.4440   31.0350 N   0  0  0  0  0  0  0  0  0  0  0  0
   36.1620   23.8100   31.6790 C   0  0  0  0  0  0  0  0  0  0  0  0
   37.1450   24.4770   32.3130 N   0  0  0  0  0  0  0  0  0  0  0  0
   36.1570   22.3640   31.6600 N   0  0  0  0  0  0  0  0  0  0  0  0
   35.0990   21.5520   32.2140 C   0  0  0  0  0  0  0  0  0  0  0  0
   35.3920   20.1700   31.7370 C   0  0  0  0  0  0  0  0  0  0  0  0
   36.5020   20.2950   30.7030 C   0  0  0  0  0  0  0  0  0  0  0  0
   37.2150   21.5360   31.0820 C   0  0  0  0  0  0  0  0  0  0  0  0
   37.8850   26.3940   32.8190 H   0  0  0  0  0  0  0  0  0  0  0  0
   34.2780   26.2700   30.4910 H   0  0  0  0  0  0  0  0  0  0  0  0
   35.0830   21.5670   33.3230 H   0  0  0  0  0  0  0  0  0  0  0  0
   34.0950   21.8960   31.8850 H   0  0  0  0  0  0  0  0  0  0  0  0
   34.4940   19.7310   31.2710 H   0  0  0  0  0  0  0  0  0  0  0  0
   35.6980   19.5120   32.5780 H   0  0  0  0  0  0  0  0  0  0  0  0
   36.0680   20.3190   29.6770 H   0  0  0  0  0  0  0  0  0  0  0  0
   37.1820   19.4170   30.8360 H   0  0  0  0  0  0  0  0  0  0  0  0
   38.0540   21.3820   31.7700 H   0  0  0  0  0  0  0  0  0  0  0  0
   37.6200   22.0150   30.1440 H   0  0  0  0  0  0  0  0  0  0  0  0
   35.9680   27.9580   31.5510 C   0  0  0  0  0  0  0  0  0  0  0  0
   35.1870   28.5490   32.4850 N   0  0  0  0  0  0  0  0  0  0  0  0
   34.9920   29.8740   32.4330 C   0  0  0  0  0  3  0  0  0  0  0  0
   35.5240   30.7100   31.4940 N   0  0  0  0  0  0  0  0  0  0  0  0
   36.3050   30.1530   30.5490 C   0  0  0  0  0  0  0  0  0  0  0  0
   36.8990   30.8960   29.5280 C   0  0  0  0  0  3  0  0  0  0  0  0
   37.6940   30.2840   28.5560 C   0  0  0  0  0  0  0  0  0  0  0  0
   38.1410   30.8830   27.7760 H   0  0  0  0  0  0  0  0  0  0  0  0
   37.8950   28.9000   28.6100 C   0  0  0  0  0  0  0  0  0  0  0  0
   38.5160   28.4260   27.8480 H   0  0  0  0  0  0  0  0  0  0  0  0
   37.2910   28.2020   29.6340 C   0  0  0  0  0  3  0  0  0  0  0  0
   36.5070   28.7950   30.6000 C   0  0  0  0  0  0  0  0  0  0  0  0
  1 12  1  0  0  0  0
  2  1  2  0  0  0  0
  3  4  2  0  0  0  0
  3  2  1  0  0  0  0
  4  5  1  0  0  0  0
  5  6  2  0  0  0  0
  6  1  1  0  0  0  0
  7  5  1  0  0  0  0
  7  8  1  0  0  0  0
  8 14  1  0  0  0  0
  9  8  1  0  0  0  0
  9 17  1  0  0  0  0
 10 19  1  0  0  0  0
 10 11  1  0  0  0  0
 10  9  1  0  0  0  0
 11  7  1  0  0  0  0
 11 20  1  0  0  0  0
 13  3  1  0  0  0  0
 15  8  1  0  0  0  0
 16  9  1  0  0  0  0
 18 10  1  0  0  0  0
 21 11  1  0  0  0  0
 22  2  1  0  0  0  0
 22 23  1  0  0  0  0
 24 23  2  0  0  0  0
 25 24  1  0  0  0  0
 26 33  1  0  0  0  0
 26 25  2  0  0  0  0
 27 26  1  0  0  0  0
 28 30  1  0  0  0  0
 28 27  2  0  0  0  0
 29 28  1  0  0  0  0
 30 32  2  0  0  0  0
 31 30  1  0  0  0  0
 32 33  1  0  0  0  0
 33 22  2  0  0  0  0
M  END
>  <minimizedAffinity>
-5.54993057

$$$$

 OpenBabel03272510073D

 33 36  0  0  0  0  0  0  0  0999 V2000
   35.0590   29.2350   32.5760 C   0  0  0  0  0  0  0  0  0  0  0  0
   35.4880   29.3720   33.8990 C   0  0  0  0  0  0  0  0  0  0  0  0
   36.3600   28.3910   34.4350 C   0  0  0  0  0  0  0  0  0  0  0  0
   36.7440   27.3520   33.6330 N   0  0  0  0  0  0  0  0  0  0  0  0
   36.2920   27.2740   32.3560 C   0  0  0  0  0  0  0  0  0  0  0  0
   35.4650   28.1940   31.8240 N   0  0  0  0  0  0  0  0  0  0  0  0
   36.7330   26.1470   31.5640 N   0  0  0  0  0  0  0  0  0  0  0  0
   38.1160   25.8720   31.2490 C   0  0  0  0  0  0  0  0  0  0  0  0
   38.1040   24.5030   30.6580 C   0  0  0  0  0  0  0  0  0  0  0  0
   36.7090   23.9430   30.8880 C   0  0  0  0  0  0  0  0  0  0  0  0
   35.8450   25.1420   30.9810 C   0  0  0  0  0  0  0  0  0  0  0  0
   34.4180   29.9960   32.1950 H   0  0  0  0  0  0  0  0  0  0  0  0
   36.7430   28.4120   35.4400 H   0  0  0  0  0  0  0  0  0  0  0  0
   38.5400   26.5900   30.5170 H   0  0  0  0  0  0  0  0  0  0  0  0
   38.7660   25.9260   32.1470 H   0  0  0  0  0  0  0  0  0  0  0  0
   38.8520   23.8670   31.1620 H   0  0  0  0  0  0  0  0  0  0  0  0
   38.3530   24.5320   29.5760 H   0  0  0  0  0  0  0  0  0  0  0  0
   36.6980   23.3070   31.8040 H   0  0  0  0  0  0  0  0  0  0  0  0
   36.4320   23.3520   29.9800 H   0  0  0  0  0  0  0  0  0  0  0  0
   35.4150   25.4620   30.0250 H   0  0  0  0  0  0  0  0  0  0  0  0
   34.9940   24.9150   31.6850 H   0  0  0  0  0  0  0  0  0  0  0  0
   35.1420   30.3910   34.8500 C   0  0  0  0  0  0  0  0  0  0  0  0
   36.1150   31.2870   35.1350 N   0  0  0  0  0  0  0  0  0  0  0  0
   35.8670   32.2650   36.0180 C   0  0  0  0  0  3  0  0  0  0  0  0
   34.6860   32.4460   36.6770 N   0  0  0  0  0  0  0  0  0  0  0  0
   33.6970   31.5700   36.4170 C   0  0  0  0  0  0  0  0  0  0  0  0
   32.4470   31.6400   37.0340 C   0  0  0  0  0  3  0  0  0  0  0  0
   31.4470   30.7070   36.7490 C   0  0  0  0  0  0  0  0  0  0  0  0
   30.4890   30.7840   37.2410 H   0  0  0  0  0  0  0  0  0  0  0  0
   31.7080   29.6850   35.8290 C   0  0  0  0  0  0  0  0  0  0  0  0
   30.9240   28.9580   35.6110 H   0  0  0  0  0  0  0  0  0  0  0  0
   32.9550   29.6510   35.2410 C   0  0  0  0  0  3  0  0  0  0  0  0
   33.9490   30.5670   35.5130 C   0  0  0  0  0  0  0  0  0  0  0  0
  1  2  1  0  0  0  0
  2  3  2  0  0  0  0
  2 22  1  0  0  0  0
  3 13  1  0  0  0  0
  4  3  1  0  0  0  0
  5  4  2  0  0  0  0
  6  5  1  0  0  0  0
  6  1  2  0  0  0  0
  7  5  1  0  0  0  0
  8  7  1  0  0  0  0
  8 15  1  0  0  0  0
  9 10  1  0  0  0  0
  9 16  1  0  0  0  0
  9  8  1  0  0  0  0
 10 11  1  0  0  0  0
 10 18  1  0  0  0  0
 11  7  1  0  0  0  0
 11 21  1  0  0  0  0
 12  1  1  0  0  0  0
 14  8  1  0  0  0  0
 17  9  1  0  0  0  0
 19 10  1  0  0  0  0
 20 11  1  0  0  0  0
 22 23  2  0  0  0  0
 22 33  1  0  0  0  0
 23 24  1  0  0  0  0
 24 25  2  0  0  0  0
 26 25  1  0  0  0  0
 26 27  1  0  0  0  0
 28 27  2  0  0  0  0
 28 29  1  0  0  0  0
 30 28  1  0  0  0  0
 31 30  1  0  0  0  0
 32 33  1  0  0  0  0
 32 30  2  0  0  0  0
 33 26  2  0  0  0  0
M  END
>  <minimizedAffinity>
-5.54465723

$$$$

 OpenBabel03272510073D

 33 36  0  0  0  0  0  0  0  0999 V2000
   37.6400   25.2440   33.0540 C   0  0  0  0  0  0  0  0  0  0  0  0
   38.3420   26.4430   32.9010 C   0  0  0  0  0  0  0  0  0  0  0  0
   39.3510   26.7640   33.8440 C   0  0  0  0  0  0  0  0  0  0  0  0
   39.5920   25.8860   34.8640 N   0  0  0  0  0  0  0  0  0  0  0  0
   38.8760   24.7380   34.9590 C   0  0  0  0  0  0  0  0  0  0  0  0
   37.9140   24.4110   34.0760 N   0  0  0  0  0  0  0  0  0  0  0  0
   39.1790   23.8570   36.0650 N   0  0  0  0  0  0  0  0  0  0  0  0
   40.4690   23.2430   36.2800 C   0  0  0  0  0  0  0  0  0  0  0  0
   40.3850   22.6540   37.6470 C   0  0  0  0  0  0  0  0  0  0  0  0
   39.0990   23.1780   38.2670 C   0  0  0  0  0  0  0  0  0  0  0  0
   38.2270   23.4700   37.1060 C   0  0  0  0  0  0  0  0  0  0  0  0
   36.9000   25.0220   32.3210 H   0  0  0  0  0  0  0  0  0  0  0  0
   39.9440   27.6610   33.8090 H   0  0  0  0  0  0  0  0  0  0  0  0
   40.6920   22.4440   35.5430 H   0  0  0  0  0  0  0  0  0  0  0  0
   41.2980   23.9780   36.1990 H   0  0  0  0  0  0  0  0  0  0  0  0
   41.2510   22.9740   38.2510 H   0  0  0  0  0  0  0  0  0  0  0  0
   40.3890   21.5440   37.6060 H   0  0  0  0  0  0  0  0  0  0  0  0
   39.3160   24.0660   38.9040 H   0  0  0  0  0  0  0  0  0  0  0  0
   38.6550   22.3460   38.8680 H   0  0  0  0  0  0  0  0  0  0  0  0
   37.5850   22.6360   36.8030 H   0  0  0  0  0  0  0  0  0  0  0  0
   37.5610   24.3410   37.3710 H   0  0  0  0  0  0  0  0  0  0  0  0
   38.1710   27.4580   31.9000 C   0  0  0  0  0  0  0  0  0  0  0  0
   39.1000   27.4800   30.9160 N   0  0  0  0  0  0  0  0  0  0  0  0
   39.0080   28.4030   29.9480 C   0  0  0  0  0  3  0  0  0  0  0  0
   38.0340   29.3540   29.8600 N   0  0  0  0  0  0  0  0  0  0  0  0
   37.0940   29.3600   30.8250 C   0  0  0  0  0  0  0  0  0  0  0  0
   36.0510   30.2880   30.8550 C   0  0  0  0  0  3  0  0  0  0  0  0
   35.1000   30.2740   31.8770 C   0  0  0  0  0  0  0  0  0  0  0  0
   34.3030   31.0030   31.8770 H   0  0  0  0  0  0  0  0  0  0  0  0
   35.1980   29.3110   32.8880 C   0  0  0  0  0  0  0  0  0  0  0  0
   34.4530   29.3040   33.6860 H   0  0  0  0  0  0  0  0  0  0  0  0
   36.2420   28.4130   32.8230 C   0  0  0  0  0  3  0  0  0  0  0  0
   37.1860   28.4160   31.8180 C   0  0  0  0  0  0  0  0  0  0  0  0
  1  6  1  0  0  0  0
  2  1  2  0  0  0  0
  2  3  1  0  0  0  0
  3  4  2  0  0  0  0
  4  5  1  0  0  0  0
  5  7  1  0  0  0  0
  6  5  2  0  0  0  0
  7  8  1  0  0  0  0
  7 11  1  0  0  0  0
  8  9  1  0  0  0  0
  9 16  1  0  0  0  0
  9 10  1  0  0  0  0
 10 19  1  0  0  0  0
 10 18  1  0  0  0  0
 11 21  1  0  0  0  0
 11 10  1  0  0  0  0
 12  1  1  0  0  0  0
 13  3  1  0  0  0  0
 14  8  1  0  0  0  0
 15  8  1  0  0  0  0
 17  9  1  0  0  0  0
 20 11  1  0  0  0  0
 22  2  1  0  0  0  0
 23 22  2  0  0  0  0
 24 23  1  0  0  0  0
 25 24  2  0  0  0  0
 25 26  1  0  0  0  0
 26 27  2  0  0  0  0
 26 33  1  0  0  0  0
 27 28  1  0  0  0  0
 28 30  2  0  0  0  0
 29 28  1  0  0  0  0
 30 31  1  0  0  0  0
 32 30  1  0  0  0  0
 33 22  1  0  0  0  0
 33 32  2  0  0  0  0
M  END
>  <minimizedAffinity>
-5.51471043

$$$$

 OpenBabel03272510073D

 33 36  0  0  0  0  0  0  0  0999 V2000
   39.5480   27.0050   34.0850 C   0  0  0  0  0  0  0  0  0  0  0  0
   38.4610   26.6390   33.2870 C   0  0  0  0  0  0  0  0  0  0  0  0
   37.9760   25.3100   33.3670 C   0  0  0  0  0  0  0  0  0  0  0  0
   38.5950   24.4410   34.2220 N   0  0  0  0  0  0  0  0  0  0  0  0
   39.6470   24.8560   34.9710 C   0  0  0  0  0  0  0  0  0  0  0  0
   40.1250   26.1130   34.9130 N   0  0  0  0  0  0  0  0  0  0  0  0
   40.2580   23.8850   35.8520 N   0  0  0  0  0  0  0  0  0  0  0  0
   39.5630   23.2200   36.9300 C   0  0  0  0  0  0  0  0  0  0  0  0
   40.4940   22.1440   37.3740 C   0  0  0  0  0  0  0  0  0  0  0  0
   41.6120   22.0840   36.3440 C   0  0  0  0  0  0  0  0  0  0  0  0
   41.6520   23.4480   35.7700 C   0  0  0  0  0  0  0  0  0  0  0  0
   39.8800   28.0150   34.0160 H   0  0  0  0  0  0  0  0  0  0  0  0
   37.1460   24.9370   32.7930 H   0  0  0  0  0  0  0  0  0  0  0  0
   39.3440   23.8980   37.7810 H   0  0  0  0  0  0  0  0  0  0  0  0
   38.5850   22.8090   36.6030 H   0  0  0  0  0  0  0  0  0  0  0  0
   39.9650   21.1770   37.4110 H   0  0  0  0  0  0  0  0  0  0  0  0
   40.8940   22.3540   38.3890 H   0  0  0  0  0  0  0  0  0  0  0  0
   41.4000   21.2860   35.5960 H   0  0  0  0  0  0  0  0  0  0  0  0
   42.5640   21.8820   36.8950 H   0  0  0  0  0  0  0  0  0  0  0  0
   42.3400   24.1320   36.2810 H   0  0  0  0  0  0  0  0  0  0  0  0
   41.9760   23.3720   34.6920 H   0  0  0  0  0  0  0  0  0  0  0  0
   37.7420   27.4380   32.3340 C   0  0  0  0  0  0  0  0  0  0  0  0
   38.1480   27.3330   31.0480 N   0  0  0  0  0  0  0  0  0  0  0  0
   37.5270   28.0520   30.1030 C   0  0  0  0  0  3  0  0  0  0  0  0
   36.4890   28.9100   30.3250 N   0  0  0  0  0  0  0  0  0  0  0  0
   36.0610   29.0400   31.5950 C   0  0  0  0  0  0  0  0  0  0  0  0
   35.0160   29.8920   31.9550 C   0  0  0  0  0  3  0  0  0  0  0  0
   34.6050   30.0120   33.2840 C   0  0  0  0  0  0  0  0  0  0  0  0
   33.7950   30.6790   33.5360 H   0  0  0  0  0  0  0  0  0  0  0  0
   35.2570   29.2610   34.2710 C   0  0  0  0  0  0  0  0  0  0  0  0
   34.9330   29.3580   35.3080 H   0  0  0  0  0  0  0  0  0  0  0  0
   36.2830   28.4300   33.8740 C   0  0  0  0  0  3  0  0  0  0  0  0
   36.6960   28.3030   32.5660 C   0  0  0  0  0  0  0  0  0  0  0  0
  1  6  1  0  0  0  0
  2  3  1  0  0  0  0
  2  1  2  0  0  0  0
  3  4  2  0  0  0  0
  4  5  1  0  0  0  0
  5  7  1  0  0  0  0
  6  5  2  0  0  0  0
  7  8  1  0  0  0  0
  8  9  1  0  0  0  0
  8 14  1  0  0  0  0
  9 16  1  0  0  0  0
  9 17  1  0  0  0  0
 10 19  1  0  0  0  0
 10  9  1  0  0  0  0
 11  7  1  0  0  0  0
 11 20  1  0  0  0  0
 11 10  1  0  0  0  0
 12  1  1  0  0  0  0
 13  3  1  0  0  0  0
 15  8  1  0  0  0  0
 18 10  1  0  0  0  0
 21 11  1  0  0  0  0
 22 33  1  0  0  0  0
 22  2  1  0  0  0  0
 23 22  2  0  0  0  0
 24 25  2  0  0  0  0
 24 23  1  0  0  0  0
 25 26  1  0  0  0  0
 26 27  2  0  0  0  0
 26 33  1  0  0  0  0
 27 28  1  0  0  0  0
 28 29  1  0  0  0  0
 28 30  2  0  0  0  0
 30 31  1  0  0  0  0
 32 30  1  0  0  0  0
 33 32  2  0  0  0  0
M  END
>  <minimizedAffinity>
-5.4277792

$$$$
