
 OpenBabel03262521183D

 32 34  0  0  0  0  0  0  0  0999 V2000
   38.2910   32.1280   46.9260 C   0  0  0  0  0  0  0  0  0  0  0  0
   39.4530   32.7990   47.2130 C   0  0  0  0  0  0  0  0  0  0  0  0
   40.1450   33.3910   46.1660 C   0  0  0  0  0  0  0  0  0  0  0  0
   39.6300   33.2690   44.9190 N   0  0  0  0  0  0  0  0  0  0  0  0
   38.4930   32.6110   44.6380 C   0  0  0  0  0  0  0  0  0  0  0  0
   37.8960   32.0810   45.6650 N   0  0  0  0  0  0  0  0  0  0  0  0
   39.9170   32.9350   48.1690 H   0  0  0  0  0  0  0  0  0  0  0  0
   41.0500   33.9380   46.2440 H   0  0  0  0  0  0  0  0  0  0  0  0
   37.7680   32.3560   43.3800 C   0  0  0  0  0  0  0  0  0  0  0  0
   36.4650   32.6340   43.2040 N   0  0  0  0  0  0  0  0  0  0  0  0
   35.8500   32.3880   42.0500 C   0  0  0  0  0  0  0  0  0  0  0  0
   36.4560   31.8500   40.9780 N   0  0  0  0  0  0  0  0  0  0  0  0
   37.7780   31.5370   41.0690 C   0  0  0  0  0  0  0  0  0  0  0  0
   38.3960   30.9860   39.9730 C   0  0  0  0  0  0  0  0  0  0  0  0
   39.7330   30.6610   40.0470 C   0  0  0  0  0  0  0  0  0  0  0  0
   40.1260   30.2360   39.1370 H   0  0  0  0  0  0  0  0  0  0  0  0
   40.4050   30.9060   41.2350 C   0  0  0  0  0  0  0  0  0  0  0  0
   41.4340   30.6350   41.2330 H   0  0  0  0  0  0  0  0  0  0  0  0
   39.7110   31.4600   42.2850 C   0  0  0  0  0  0  0  0  0  0  0  0
   38.3800   31.8060   42.2760 C   0  0  0  0  0  0  0  0  0  0  0  0
   37.6550   31.5640   48.0180 O   0  0  0  0  0  0  0  0  0  0  0  0
   36.6000   30.7070   47.8010 C   0  0  0  0  0  0  0  0  0  0  0  0
   35.6500   31.2890   47.8610 H   0  0  0  0  0  0  0  0  0  0  0  0
   36.5780   30.2340   46.7840 H   0  0  0  0  0  0  0  0  0  0  0  0
   36.8390   29.8540   48.8190 C   0  0  0  0  0  0  0  0  0  0  0  0
   37.1360   28.8130   48.5160 H   0  0  0  0  0  0  0  0  0  0  0  0
   35.8660   29.6120   49.3580 H   0  0  0  0  0  0  0  0  0  0  0  0
   37.8090   30.2630   49.8770 C   0  0  0  0  0  0  0  0  0  0  0  0
   37.9260   31.3840   49.7910 H   0  0  0  0  0  0  0  0  0  0  0  0
   38.8400   29.8640   49.7070 H   0  0  0  0  0  0  0  0  0  0  0  0
   37.2370   29.9250   51.5290 S   0  0  0  0  0  0  0  0  0  0  0  0
   38.0790   28.9510   52.0990 H   0  0  0  0  0  0  0  0  0  0  0  0
  1  2  1  0  0  0  0
  1 21  1  0  0  0  0
  2  7  1  0  0  0  0
  3  8  1  0  0  0  0
  3  2  2  0  0  0  0
  4  3  1  0  0  0  0
  5  4  2  0  0  0  0
  5  6  1  0  0  0  0
  6  1  2  0  0  0  0
  9  5  1  0  0  0  0
 10  9  1  0  0  0  0
 11 10  2  0  0  0  0
 12 13  2  0  0  0  0
 12 11  1  0  0  0  0
 13 20  1  0  0  0  0
 14 15  2  0  0  0  0
 14 13  1  0  0  0  0
 15 17  1  0  0  0  0
 16 15  1  0  0  0  0
 17 19  2  0  0  0  0
 18 17  1  0  0  0  0
 20 19  1  0  0  0  0
 20  9  2  0  0  0  0
 22 23  1  0  0  0  0
 22 21  1  0  0  0  0
 22 25  1  0  0  0  0
 24 22  1  0  0  0  0
 25 27  1  0  0  0  0
 25 28  1  0  0  0  0
 26 25  1  0  0  0  0
 28 31  1  0  0  0  0
 29 28  1  0  0  0  0
 30 28  1  0  0  0  0
 31 32  1  0  0  0  0
M  END
>  <minimizedAffinity>
-4.69553995

>  <minimizedRMSD>
1.26302779

$$$$
