
 OpenBabel03272503273D

 33 36  0  0  1  0  0  0  0  0999 V2000
   32.1910   28.3660   47.3490 N   0  0  0  0  0  0  0  0  0  0  0  0
   33.5350   28.0840   46.9120 C   0  0  0  0  0  0  0  0  0  0  0  0
   34.3470   28.1220   48.1970 C   0  0  2  0  0  0  0  0  0  0  0  0
   33.3260   28.4420   49.3010 C   0  0  0  0  0  0  0  0  0  0  0  0
   32.0830   27.8400   48.6880 C   0  0  0  0  0  0  0  0  0  0  0  0
   33.9450   28.8650   46.2400 H   0  0  0  0  0  0  0  0  0  0  0  0
   33.6250   27.1200   46.3740 H   0  0  0  0  0  0  0  0  0  0  0  0
   34.7750   27.1250   48.3390 H   0  0  0  0  0  0  0  0  0  0  0  0
   33.2290   29.5430   49.2770 H   0  0  0  0  0  0  0  0  0  0  0  0
   33.6080   28.0270   50.2670 H   0  0  0  0  0  0  0  0  0  0  0  0
   32.1780   26.7260   48.7000 H   0  0  0  0  0  0  0  0  0  0  0  0
   31.1470   28.1660   49.1900 H   0  0  0  0  0  0  0  0  0  0  0  0
   35.3840   29.1880   48.1430 C   0  0  0  0  0  0  0  0  0  0  0  0
   35.5700   29.7860   46.9300 N   0  0  0  0  0  0  0  0  0  0  0  0
   36.4580   30.7640   46.7180 C   0  0  0  0  0  3  0  0  0  0  0  0
   37.2310   31.2070   47.7460 N   0  0  0  0  0  0  0  0  0  0  0  0
   37.0940   30.6560   48.9660 C   0  0  0  0  0  0  0  0  0  0  0  0
   37.8430   31.0480   50.0620 C   0  0  0  0  0  3  0  0  0  0  0  0
   37.6880   30.4660   51.3180 C   0  0  0  0  0  0  0  0  0  0  0  0
   38.2750   30.7740   52.1750 H   0  0  0  0  0  0  0  0  0  0  0  0
   36.7420   29.4510   51.4630 C   0  0  0  0  0  0  0  0  0  0  0  0
   36.6410   29.0100   52.4620 H   0  0  0  0  0  0  0  0  0  0  0  0
   35.9860   29.0450   50.3820 C   0  0  0  0  0  3  0  0  0  0  0  0
   36.1710   29.6500   49.1580 C   0  0  0  0  0  0  0  0  0  0  0  0
   31.1740   29.0320   46.5990 C   0  0  0  0  0  0  0  0  0  0  0  0
   31.5730   30.0360   45.7210 C   0  0  0  0  0  0  0  0  0  0  0  0
   30.5820   30.6880   44.9890 C   0  0  0  0  0  0  0  0  0  0  0  0
   29.2750   30.3020   45.1760 N   0  0  0  0  0  0  0  0  0  0  0  0
   28.9330   29.3290   46.0330 C   0  0  0  0  0  0  0  0  0  0  0  0
   29.8930   28.6790   46.7600 N   0  0  0  0  0  0  0  0  0  0  0  0
   32.5690   30.3570   45.5530 H   0  0  0  0  0  0  0  0  0  0  0  0
   30.8110   31.4730   44.2920 H   0  0  0  0  0  0  0  0  0  0  0  0
   27.9060   29.0230   46.1820 H   0  0  0  0  0  0  0  0  0  0  0  0
  1  5  1  0  0  0  0
  2  1  1  0  0  0  0
  2  3  1  0  0  0  0
  3  8  1  1  0  0  0
  3  4  1  0  0  0  0
  4 10  1  0  0  0  0
  5 11  1  0  0  0  0
  5 12  1  0  0  0  0
  5  4  1  0  0  0  0
  6  2  1  0  0  0  0
  7  2  1  0  0  0  0
  9  4  1  0  0  0  0
 13  3  1  0  0  0  0
 13 24  1  0  0  0  0
 14 13  2  0  0  0  0
 15 14  1  0  0  0  0
 15 16  2  0  0  0  0
 16 17  1  0  0  0  0
 17 24  2  0  0  0  0
 17 18  1  0  0  0  0
 18 19  2  0  0  0  0
 19 21  1  0  0  0  0
 19 20  1  0  0  0  0
 21 22  1  0  0  0  0
 23 21  2  0  0  0  0
 24 23  1  0  0  0  0
 25 30  1  0  0  0  0
 25  1  1  0  0  0  0
 26 25  2  0  0  0  0
 27 28  2  0  0  0  0
 27 26  1  0  0  0  0
 28 29  1  0  0  0  0
 29 33  1  0  0  0  0
 29 30  2  0  0  0  0
 31 26  1  0  0  0  0
 32 27  1  0  0  0  0
M  END
>  <minimizedAffinity>
-5.70337963

>  <minimizedRMSD>
4.86020041

$$$$
