
 OpenBabel03272506463D

 41 43  0  0  1  0  0  0  0  0999 V2000
   32.1500   28.5350   47.4370 C   0  0  2  0  0  0  0  0  0  0  0  0
   33.4020   28.3430   48.2430 C   0  0  1  0  0  0  0  0  0  0  0  0
   33.7790   27.0380   48.1320 O   0  0  0  0  0  0  0  0  0  0  0  0
   33.0490   26.4320   47.1150 C   0  0  0  0  0  0  0  0  0  0  0  0
   32.4460   27.5330   46.2810 C   0  0  1  0  0  0  0  0  0  0  0  0
   31.2180   28.2770   47.9270 H   0  0  0  0  0  0  0  0  0  0  0  0
   33.2970   28.6960   49.2950 H   0  0  0  0  0  0  0  0  0  0  0  0
   33.8240   25.9000   46.4890 H   0  0  0  0  0  0  0  0  0  0  0  0
   32.3610   25.7480   47.5860 H   0  0  0  0  0  0  0  0  0  0  0  0
   33.1790   28.0230   45.6500 H   0  0  0  0  0  0  0  0  0  0  0  0
   32.0890   29.8410   46.9150 O   0  0  0  0  0  0  0  0  0  0  0  0
   32.8750   29.9600   46.3460 H   0  0  0  0  0  0  0  0  0  0  0  0
   34.7130   29.3730   47.4740 S   0  0  0  0  0  0  0  0  0  0  0  0
   37.1250   29.3110   50.6130 C   0  0  0  0  0  0  0  0  0  0  0  0
   37.6320   30.5960   50.7120 C   0  0  0  0  0  0  0  0  0  0  0  0
   37.2090   31.5360   49.7580 C   0  0  0  0  0  0  0  0  0  0  0  0
   36.3360   31.1370   48.8050 N   0  0  0  0  0  0  0  0  0  0  0  0
   35.8670   29.8770   48.7440 C   0  0  0  0  0  0  0  0  0  0  0  0
   36.2520   28.9380   49.6490 N   0  0  0  0  0  0  0  0  0  0  0  0
   37.3770   28.4930   51.2960 H   0  0  0  0  0  0  0  0  0  0  0  0
   38.3200   30.7900   51.5130 H   0  0  0  0  0  0  0  0  0  0  0  0
   37.6000   32.5410   49.8330 H   0  0  0  0  0  0  0  0  0  0  0  0
   31.2870   27.0810   45.7050 O   0  0  0  0  0  0  0  0  0  0  0  0
   29.7100   29.1460   44.3280 Cl  0  0  0  0  0  0  0  0  0  0  0  0
   29.2340   28.1190   45.6610 C   0  0  0  0  0  0  0  0  0  0  0  0
   30.0640   27.1760   46.2240 C   0  0  0  0  0  0  0  0  0  0  0  0
   29.5610   26.4050   47.2740 C   0  0  0  0  0  0  0  0  0  0  0  0
   28.2760   26.5860   47.7270 C   0  0  0  0  0  0  0  0  0  0  0  0
   27.4360   27.5260   47.1730 C   0  0  0  0  0  0  0  0  0  0  0  0
   27.9190   28.3000   46.1310 C   0  0  0  0  0  0  0  0  0  0  0  0
   30.1430   25.6430   47.7640 H   0  0  0  0  0  0  0  0  0  0  0  0
   27.9020   25.9870   48.5370 H   0  0  0  0  0  0  0  0  0  0  0  0
   26.4480   27.6210   47.5620 H   0  0  0  0  0  0  0  0  0  0  0  0
   25.5040   27.9340   44.5300 N   0  0  0  0  0  0  0  0  0  0  0  0
   26.2720   28.9860   44.3890 C   0  0  0  0  0  0  0  0  0  0  0  0
   27.0820   29.2800   45.4950 N   0  0  0  0  0  0  0  0  0  0  0  0
   26.2750   29.7950   43.2000 N   0  0  0  0  0  0  0  0  0  0  0  0
   25.9990   30.6100   42.6420 H   0  0  0  0  0  0  0  0  0  0  0  0
   24.8540   27.5860   43.8070 H   0  0  0  0  0  0  0  0  0  0  0  0
   27.0490   30.2750   45.8330 H   0  0  0  0  0  0  0  0  0  0  0  0
   26.8200   29.5390   42.3270 H   0  0  0  0  0  0  0  0  0  0  0  0
  1  6  1  1  0  0  0
  1  2  1  0  0  0  0
  2  7  1  1  0  0  0
  3  2  1  0  0  0  0
  4  9  1  0  0  0  0
  4  3  1  0  0  0  0
  5 10  1  6  0  0  0
  5  4  1  0  0  0  0
  5  1  1  0  0  0  0
  8  4  1  0  0  0  0
 11  1  1  0  0  0  0
 12 11  1  0  0  0  0
 13  2  1  0  0  0  0
 13 18  1  0  0  0  0
 14 15  1  0  0  0  0
 14 20  1  0  0  0  0
 15 21  1  0  0  0  0
 16 22  1  0  0  0  0
 16 15  2  0  0  0  0
 17 16  1  0  0  0  0
 18 17  2  0  0  0  0
 18 19  1  0  0  0  0
 19 14  2  0  0  0  0
 23 26  1  0  0  0  0
 23  5  1  0  0  0  0
 24 25  1  0  0  0  0
 25 30  2  0  0  0  0
 25 26  1  0  0  0  0
 26 27  2  0  0  0  0
 27 28  1  0  0  0  0
 27 31  1  0  0  0  0
 28 32  1  0  0  0  0
 29 33  1  0  0  0  0
 29 28  2  0  0  0  0
 30 29  1  0  0  0  0
 35 34  2  0  0  0  0
 35 36  1  0  0  0  0
 36 40  1  0  0  0  0
 36 30  1  0  0  0  0
 37 35  1  0  0  0  0
 38 37  1  0  0  0  0
 39 34  1  0  0  0  0
 41 37  1  0  0  0  0
M  END
>  <minimizedAffinity>
-4.95971584

>  <minimizedRMSD>
0.271937937

$$$$
