
 OpenBabel03272507063D

 38 41  0  0  0  0  0  0  0  0999 V2000
   38.3550   32.5560   49.1850 C   0  0  0  0  0  0  0  0  0  0  0  0
   39.0070   32.7060   47.9560 C   0  0  0  0  0  0  0  0  0  0  0  0
   38.5250   31.9340   46.8800 C   0  0  0  0  0  0  0  0  0  0  0  0
   37.4790   31.1080   47.0910 N   0  0  0  0  0  0  0  0  0  0  0  0
   36.8800   30.9950   48.2910 C   0  0  0  0  0  0  0  0  0  0  0  0
   37.3110   31.7120   49.3330 N   0  0  0  0  0  0  0  0  0  0  0  0
   38.7410   33.1520   49.9810 H   0  0  0  0  0  0  0  0  0  0  0  0
   39.8260   33.3440   47.7710 H   0  0  0  0  0  0  0  0  0  0  0  0
   39.0860   31.9690   45.5440 C   0  0  0  0  0  0  0  0  0  0  0  0
   38.9740   33.0370   44.6890 C   0  0  0  0  0  0  0  0  0  0  0  0
   39.5000   33.0890   43.4170 C   0  0  0  0  0  0  0  0  0  0  0  0
   40.1720   32.0080   42.9900 N   0  0  0  0  0  0  0  0  0  0  0  0
   40.3000   30.9460   43.7990 C   0  0  0  0  0  0  0  0  0  0  0  0
   39.7820   30.9340   45.0120 N   0  0  0  0  0  0  0  0  0  0  0  0
   38.4330   33.9240   45.0170 H   0  0  0  0  0  0  0  0  0  0  0  0
   39.4120   33.9240   42.7500 H   0  0  0  0  0  0  0  0  0  0  0  0
   39.1170   28.9620   42.1510 N   0  0  0  0  0  0  0  0  0  0  0  0
   40.3950   28.9600   42.3270 C   0  0  0  0  0  0  0  0  0  0  0  0
   41.0240   29.8190   43.3000 N   0  0  0  0  0  0  0  0  0  0  0  0
   41.1070   28.0530   41.4930 N   0  0  0  0  0  0  0  0  0  0  0  0
   41.8970   27.7640   40.8770 H   0  0  0  0  0  0  0  0  0  0  0  0
   38.5850   28.3910   41.4890 H   0  0  0  0  0  0  0  0  0  0  0  0
   41.9750   29.5710   43.5870 H   0  0  0  0  0  0  0  0  0  0  0  0
   40.7300   27.0810   41.3090 H   0  0  0  0  0  0  0  0  0  0  0  0
   35.7810   29.1180   49.4350 C   0  0  0  0  0  0  0  0  0  0  0  0
   35.7500   30.0710   48.4200 C   0  0  0  0  0  0  0  0  0  0  0  0
   34.6820   30.1340   47.5660 C   0  0  0  0  0  0  0  0  0  0  0  0
   33.6280   29.2630   47.6970 C   0  0  0  0  0  0  0  0  0  0  0  0
   32.4790   29.1190   46.9990 N   0  0  0  0  0  0  0  0  0  0  0  0
   31.8500   28.0820   47.6140 C   0  0  0  0  0  0  0  0  0  0  0  0
   32.5760   27.6040   48.6480 N   0  0  0  0  0  0  0  0  0  0  0  0
   33.7050   28.3320   48.7220 C   0  0  0  0  0  0  0  0  0  0  0  0
   34.7390   28.2300   49.5900 C   0  0  0  0  0  0  0  0  0  0  0  0
   36.6530   29.1050   50.0910 H   0  0  0  0  0  0  0  0  0  0  0  0
   34.6550   30.8770   46.7730 H   0  0  0  0  0  0  0  0  0  0  0  0
   32.1390   29.6550   46.1890 H   0  0  0  0  0  0  0  0  0  0  0  0
   30.8800   27.6960   47.3010 H   0  0  0  0  0  0  0  0  0  0  0  0
   34.8080   27.5140   50.3870 H   0  0  0  0  0  0  0  0  0  0  0  0
  1  6  1  0  0  0  0
  1  7  1  0  0  0  0
  2  1  2  0  0  0  0
  3  4  2  0  0  0  0
  3  2  1  0  0  0  0
  4  5  1  0  0  0  0
  5 26  1  0  0  0  0
  5  6  2  0  0  0  0
  8  2  1  0  0  0  0
  9  3  1  0  0  0  0
 10 15  1  0  0  0  0
 10  9  2  0  0  0  0
 11 10  1  0  0  0  0
 12 11  2  0  0  0  0
 12 13  1  0  0  0  0
 13 14  2  0  0  0  0
 14  9  1  0  0  0  0
 16 11  1  0  0  0  0
 17 18  2  0  0  0  0
 18 19  1  0  0  0  0
 19 23  1  0  0  0  0
 19 13  1  0  0  0  0
 20 18  1  0  0  0  0
 21 20  1  0  0  0  0
 22 17  1  0  0  0  0
 24 20  1  0  0  0  0
 25 33  1  0  0  0  0
 25 34  1  0  0  0  0
 26 25  2  0  0  0  0
 27 28  2  0  0  0  0
 27 26  1  0  0  0  0
 28 32  1  0  0  0  0
 29 30  1  0  0  0  0
 29 28  1  0  0  0  0
 30 31  2  0  0  0  0
 31 32  1  0  0  0  0
 32 33  2  0  0  0  0
 33 38  1  0  0  0  0
 35 27  1  0  0  0  0
 36 29  1  0  0  0  0
 37 30  1  0  0  0  0
M  END
>  <minimizedAffinity>
-7.59890318

>  <minimizedRMSD>
0.713549793

$$$$
