
 OpenBabel03272507013D

 45 47  0  0  1  0  0  0  0  0999 V2000
   35.0120   29.8930   49.3750 C   0  0  2  0  0  0  0  0  0  0  0  0
   35.9320   30.7350   48.5630 C   0  0  0  0  0  0  0  0  0  0  0  0
   37.3660   30.2380   48.5980 C   0  0  2  0  0  0  0  0  0  0  0  0
   37.9060   30.1330   49.9770 C   0  0  0  0  0  0  0  0  0  0  0  0
   36.9110   29.5780   50.9720 C   0  0  0  0  0  0  0  0  0  0  0  0
   35.7380   28.9310   50.2840 C   0  0  0  0  0  0  0  0  0  0  0  0
   34.3450   30.4810   50.0720 H   0  0  0  0  0  0  0  0  0  0  0  0
   35.7220   30.8430   47.4940 H   0  0  0  0  0  0  0  0  0  0  0  0
   35.8980   31.7620   49.0510 H   0  0  0  0  0  0  0  0  0  0  0  0
   37.3430   29.2100   48.1540 H   0  0  0  0  0  0  0  0  0  0  0  0
   38.7430   29.3750   49.9370 H   0  0  0  0  0  0  0  0  0  0  0  0
   38.3330   31.0140   50.4330 H   0  0  0  0  0  0  0  0  0  0  0  0
   37.3600   28.8770   51.6740 H   0  0  0  0  0  0  0  0  0  0  0  0
   36.4920   30.4100   51.5870 H   0  0  0  0  0  0  0  0  0  0  0  0
   35.0390   28.5640   51.0410 H   0  0  0  0  0  0  0  0  0  0  0  0
   36.1200   28.0660   49.6980 H   0  0  0  0  0  0  0  0  0  0  0  0
   38.2240   31.0420   47.8040 N   0  0  1  0  0  0  0  0  0  0  0  0
   38.7590   30.3370   46.6490 C   0  0  0  0  0  0  0  0  0  0  0  0
   39.6890   31.4140   46.0890 C   0  0  0  0  0  0  0  0  0  0  0  0
   38.7850   32.6420   46.2280 C   0  0  0  0  0  0  0  0  0  0  0  0
   37.7760   32.2730   47.3340 C   0  0  2  0  0  0  0  0  0  0  0  0
   39.3440   29.4400   46.9660 H   0  0  0  0  0  0  0  0  0  0  0  0
   37.9790   30.1130   45.9050 H   0  0  0  0  0  0  0  0  0  0  0  0
   40.5510   31.4820   46.7820 H   0  0  0  0  0  0  0  0  0  0  0  0
   39.9650   31.2150   45.0500 H   0  0  0  0  0  0  0  0  0  0  0  0
   38.2890   32.8170   45.2550 H   0  0  0  0  0  0  0  0  0  0  0  0
   39.4510   33.4590   46.5140 H   0  0  0  0  0  0  0  0  0  0  0  0
   36.8000   32.2110   46.8460 H   0  0  0  0  0  0  0  0  0  0  0  0
   40.2480   32.8410   48.7060 N   0  0  0  0  0  0  0  0  0  0  0  0
   39.0990   33.4280   48.9020 C   0  0  0  0  0  0  0  0  0  0  0  0
   37.8200   33.4040   48.2330 N   0  0  0  0  0  0  0  0  0  0  0  0
   39.5740   34.1300   50.0450 N   0  0  0  0  0  0  0  0  0  0  0  0
   39.8820   35.1340   49.8720 H   0  0  0  0  0  0  0  0  0  0  0  0
   40.4600   32.1830   47.9490 H   0  0  0  0  0  0  0  0  0  0  0  0
   37.3890   34.2460   48.6710 H   0  0  0  0  0  0  0  0  0  0  0  0
   39.6680   33.7990   51.0500 H   0  0  0  0  0  0  0  0  0  0  0  0
   34.0830   29.0910   48.5440 C   0  0  0  0  0  0  0  0  0  0  0  0
   33.8490   29.6260   47.2750 C   0  0  0  0  0  0  0  0  0  0  0  0
   32.9800   28.8920   46.4380 C   0  0  0  0  0  0  0  0  0  0  0  0
   32.4220   27.7180   46.9020 N   0  0  0  0  0  0  0  0  0  0  0  0
   32.6890   27.2470   48.1500 C   0  0  0  0  0  0  0  0  0  0  0  0
   33.5020   27.9330   48.9330 N   0  0  0  0  0  0  0  0  0  0  0  0
   34.1150   30.4750   46.6800 H   0  0  0  0  0  0  0  0  0  0  0  0
   32.6450   29.0870   45.4320 H   0  0  0  0  0  0  0  0  0  0  0  0
   32.2340   26.3250   48.4810 H   0  0  0  0  0  0  0  0  0  0  0  0
  1  7  1  1  0  0  0
  1  6  1  0  0  0  0
  2  3  1  0  0  0  0
  2  9  1  0  0  0  0
  2  1  1  0  0  0  0
  3 10  1  6  0  0  0
  3  4  1  0  0  0  0
  4 12  1  0  0  0  0
  4  5  1  0  0  0  0
  5 14  1  0  0  0  0
  5 13  1  0  0  0  0
  6  5  1  0  0  0  0
  6 15  1  0  0  0  0
  8  2  1  0  0  0  0
 11  4  1  0  0  0  0
 16  6  1  0  0  0  0
 17 18  1  6  0  0  0
 17  3  1  0  0  0  0
 18 22  1  0  0  0  0
 19 20  1  0  0  0  0
 19 18  1  0  0  0  0
 19 24  1  0  0  0  0
 20 27  1  0  0  0  0
 20 21  1  0  0  0  0
 21 28  1  6  0  0  0
 21 17  1  0  0  0  0
 21 31  1  0  0  0  0
 23 18  1  0  0  0  0
 25 19  1  0  0  0  0
 26 20  1  0  0  0  0
 29 30  2  0  0  0  0
 30 32  1  0  0  0  0
 31 35  1  0  0  0  0
 31 30  1  0  0  0  0
 32 36  1  0  0  0  0
 33 32  1  0  0  0  0
 34 29  1  0  0  0  0
 37 42  1  0  0  0  0
 37  1  1  0  0  0  0
 38 37  2  0  0  0  0
 39 40  2  0  0  0  0
 39 38  1  0  0  0  0
 40 41  1  0  0  0  0
 41 45  1  0  0  0  0
 41 42  2  0  0  0  0
 43 38  1  0  0  0  0
 44 39  1  0  0  0  0
M  END
>  <minimizedAffinity>
-3.821908

>  <minimizedRMSD>
1.10374856

$$$$
