
 OpenBabel03272507013D

 45 47  0  0  1  0  0  0  0  0999 V2000
   34.8280   31.7080   42.2630 C   0  0  2  0  0  0  0  0  0  0  0  0
   34.0110   31.3990   43.4690 C   0  0  0  0  0  0  0  0  0  0  0  0
   33.0640   30.2330   43.2530 C   0  0  2  0  0  0  0  0  0  0  0  0
   32.1530   30.4380   42.0980 C   0  0  0  0  0  0  0  0  0  0  0  0
   32.8310   31.0660   40.9010 C   0  0  0  0  0  0  0  0  0  0  0  0
   34.3320   31.0130   41.0190 C   0  0  0  0  0  0  0  0  0  0  0  0
   34.8370   32.8030   41.9820 H   0  0  0  0  0  0  0  0  0  0  0  0
   34.5380   31.1370   44.3930 H   0  0  0  0  0  0  0  0  0  0  0  0
   33.3910   32.3350   43.6510 H   0  0  0  0  0  0  0  0  0  0  0  0
   33.7150   29.3500   43.0310 H   0  0  0  0  0  0  0  0  0  0  0  0
   31.8350   29.4100   41.7550 H   0  0  0  0  0  0  0  0  0  0  0  0
   31.2380   30.9900   42.2540 H   0  0  0  0  0  0  0  0  0  0  0  0
   32.5190   30.6230   39.9560 H   0  0  0  0  0  0  0  0  0  0  0  0
   32.5610   32.1480   40.8420 H   0  0  0  0  0  0  0  0  0  0  0  0
   34.7760   31.4940   40.1430 H   0  0  0  0  0  0  0  0  0  0  0  0
   34.6350   29.9420   41.0330 H   0  0  0  0  0  0  0  0  0  0  0  0
   32.3080   29.9420   44.4180 N   0  0  1  0  0  0  0  0  0  0  0  0
   30.8720   30.0360   44.2040 C   0  0  0  0  0  0  0  0  0  0  0  0
   30.3760   29.7760   45.6270 C   0  0  0  0  0  0  0  0  0  0  0  0
   31.2920   28.6140   46.0180 C   0  0  0  0  0  0  0  0  0  0  0  0
   32.5220   28.7470   45.0980 C   0  0  2  0  0  0  0  0  0  0  0  0
   30.5860   31.0640   43.8710 H   0  0  0  0  0  0  0  0  0  0  0  0
   30.5010   29.2400   43.5420 H   0  0  0  0  0  0  0  0  0  0  0  0
   30.6170   30.6810   46.2190 H   0  0  0  0  0  0  0  0  0  0  0  0
   29.3190   29.4980   45.6460 H   0  0  0  0  0  0  0  0  0  0  0  0
   30.7440   27.6690   45.8450 H   0  0  0  0  0  0  0  0  0  0  0  0
   31.5290   28.7760   47.0720 H   0  0  0  0  0  0  0  0  0  0  0  0
   32.5040   27.8750   44.4380 H   0  0  0  0  0  0  0  0  0  0  0  0
   33.0610   31.0030   46.8110 N   0  0  0  0  0  0  0  0  0  0  0  0
   33.8060   29.9400   46.6690 C   0  0  0  0  0  0  0  0  0  0  0  0
   33.6430   28.6690   46.0060 N   0  0  0  0  0  0  0  0  0  0  0  0
   34.8680   30.4990   47.4330 N   0  0  0  0  0  0  0  0  0  0  0  0
   34.9070   30.1990   48.4530 H   0  0  0  0  0  0  0  0  0  0  0  0
   32.1180   31.1260   46.4260 H   0  0  0  0  0  0  0  0  0  0  0  0
   34.4330   28.1510   46.4480 H   0  0  0  0  0  0  0  0  0  0  0  0
   35.6320   31.1740   47.1340 H   0  0  0  0  0  0  0  0  0  0  0  0
   36.2540   31.3440   42.4270 C   0  0  0  0  0  0  0  0  0  0  0  0
   36.6630   31.2250   43.7580 C   0  0  0  0  0  0  0  0  0  0  0  0
   38.0120   30.8670   43.9680 C   0  0  0  0  0  0  0  0  0  0  0  0
   38.8360   30.6570   42.8810 N   0  0  0  0  0  0  0  0  0  0  0  0
   38.3800   30.7870   41.6060 C   0  0  0  0  0  0  0  0  0  0  0  0
   37.1180   31.1230   41.4090 N   0  0  0  0  0  0  0  0  0  0  0  0
   36.2740   31.3340   44.7490 H   0  0  0  0  0  0  0  0  0  0  0  0
   38.5630   30.7130   44.8830 H   0  0  0  0  0  0  0  0  0  0  0  0
   39.0520   30.6160   40.7780 H   0  0  0  0  0  0  0  0  0  0  0  0
  1  7  1  6  0  0  0
  1 37  1  0  0  0  0
  1  2  1  0  0  0  0
  2  9  1  0  0  0  0
  2  8  1  0  0  0  0
  3 10  1  6  0  0  0
  3  2  1  0  0  0  0
  3 17  1  0  0  0  0
  4 12  1  0  0  0  0
  4  3  1  0  0  0  0
  5  6  1  0  0  0  0
  5  4  1  0  0  0  0
  6 16  1  0  0  0  0
  6  1  1  0  0  0  0
 11  4  1  0  0  0  0
 13  5  1  0  0  0  0
 14  5  1  0  0  0  0
 15  6  1  0  0  0  0
 17 18  1  6  0  0  0
 17 21  1  0  0  0  0
 18 19  1  0  0  0  0
 19 25  1  0  0  0  0
 19 20  1  0  0  0  0
 19 24  1  0  0  0  0
 20 27  1  0  0  0  0
 21 28  1  6  0  0  0
 21 31  1  0  0  0  0
 21 20  1  0  0  0  0
 22 18  1  0  0  0  0
 23 18  1  0  0  0  0
 26 20  1  0  0  0  0
 30 29  2  0  0  0  0
 30 32  1  0  0  0  0
 31 35  1  0  0  0  0
 31 30  1  0  0  0  0
 32 33  1  0  0  0  0
 34 29  1  0  0  0  0
 36 32  1  0  0  0  0
 37 38  1  0  0  0  0
 38 39  2  0  0  0  0
 38 43  1  0  0  0  0
 39 44  1  0  0  0  0
 40 39  1  0  0  0  0
 41 40  2  0  0  0  0
 42 41  1  0  0  0  0
 42 37  2  0  0  0  0
 45 41  1  0  0  0  0
M  END
>  <minimizedAffinity>
-3.11450958

>  <minimizedRMSD>
8.01278687

$$$$
