
 OpenBabel03272507013D

 45 47  0  0  1  0  0  0  0  0999 V2000
   34.9880   30.1080   49.5340 C   0  0  2  0  0  0  0  0  0  0  0  0
   36.0050   30.8140   48.7090 C   0  0  0  0  0  0  0  0  0  0  0  0
   37.3910   30.2100   48.8420 C   0  0  2  0  0  0  0  0  0  0  0  0
   37.8660   30.1630   50.2480 C   0  0  0  0  0  0  0  0  0  0  0  0
   36.7910   29.7610   51.2330 C   0  0  0  0  0  0  0  0  0  0  0  0
   35.5970   29.1600   50.5390 C   0  0  0  0  0  0  0  0  0  0  0  0
   34.3440   30.7950   50.1580 H   0  0  0  0  0  0  0  0  0  0  0  0
   35.8470   30.8600   47.6260 H   0  0  0  0  0  0  0  0  0  0  0  0
   36.0350   31.8730   49.1220 H   0  0  0  0  0  0  0  0  0  0  0  0
   37.3020   29.1580   48.4690 H   0  0  0  0  0  0  0  0  0  0  0  0
   38.6390   29.3400   50.2980 H   0  0  0  0  0  0  0  0  0  0  0  0
   38.3450   31.0390   50.6610 H   0  0  0  0  0  0  0  0  0  0  0  0
   37.1530   29.0790   52.0010 H   0  0  0  0  0  0  0  0  0  0  0  0
   36.4170   30.6650   51.7690 H   0  0  0  0  0  0  0  0  0  0  0  0
   34.8410   28.9040   51.2870 H   0  0  0  0  0  0  0  0  0  0  0  0
   35.9300   28.2270   50.0320 H   0  0  0  0  0  0  0  0  0  0  0  0
   38.3430   30.8850   48.0340 N   0  0  1  0  0  0  0  0  0  0  0  0
   38.4490   30.3300   46.6940 C   0  0  0  0  0  0  0  0  0  0  0  0
   39.5900   31.1860   46.1430 C   0  0  0  0  0  0  0  0  0  0  0  0
   39.1650   32.5610   46.6650 C   0  0  0  0  0  0  0  0  0  0  0  0
   38.2580   32.2650   47.8770 C   0  0  2  0  0  0  0  0  0  0  0  0
   38.7500   29.2540   46.7320 H   0  0  0  0  0  0  0  0  0  0  0  0
   37.5420   30.5130   46.0980 H   0  0  0  0  0  0  0  0  0  0  0  0
   40.5160   30.8450   46.6470 H   0  0  0  0  0  0  0  0  0  0  0  0
   39.6360   31.1500   45.0510 H   0  0  0  0  0  0  0  0  0  0  0  0
   38.6200   33.0830   45.8570 H   0  0  0  0  0  0  0  0  0  0  0  0
   40.0940   33.0640   46.9400 H   0  0  0  0  0  0  0  0  0  0  0  0
   37.2560   32.5990   47.5950 H   0  0  0  0  0  0  0  0  0  0  0  0
   40.0050   34.4360   47.1340 N   0  0  0  0  0  0  0  0  0  0  0  0
   39.7340   34.0370   48.3470 C   0  0  0  0  0  0  0  0  0  0  0  0
   38.7950   33.1060   48.9220 N   0  0  0  0  0  0  0  0  0  0  0  0
   40.7230   34.8850   48.9210 N   0  0  0  0  0  0  0  0  0  0  0  0
   40.3670   35.8090   49.3100 H   0  0  0  0  0  0  0  0  0  0  0  0
   39.5360   34.1110   46.2820 H   0  0  0  0  0  0  0  0  0  0  0  0
   38.8620   33.3990   49.9220 H   0  0  0  0  0  0  0  0  0  0  0  0
   41.7700   34.7320   49.0160 H   0  0  0  0  0  0  0  0  0  0  0  0
   34.0310   29.3240   48.7190 C   0  0  0  0  0  0  0  0  0  0  0  0
   33.9320   29.7470   47.3910 C   0  0  0  0  0  0  0  0  0  0  0  0
   33.0420   29.0240   46.5690 C   0  0  0  0  0  0  0  0  0  0  0  0
   32.3350   27.9650   47.1010 N   0  0  0  0  0  0  0  0  0  0  0  0
   32.4730   27.5990   48.4040 C   0  0  0  0  0  0  0  0  0  0  0  0
   33.3060   28.2750   49.1730 N   0  0  0  0  0  0  0  0  0  0  0  0
   34.3230   30.5000   46.7390 H   0  0  0  0  0  0  0  0  0  0  0  0
   32.7910   29.1480   45.5280 H   0  0  0  0  0  0  0  0  0  0  0  0
   31.9030   26.7650   48.7880 H   0  0  0  0  0  0  0  0  0  0  0  0
  1  7  1  1  0  0  0
  1  6  1  0  0  0  0
  2  3  1  0  0  0  0
  2  9  1  0  0  0  0
  2  1  1  0  0  0  0
  3 10  1  6  0  0  0
  3  4  1  0  0  0  0
  4 11  1  0  0  0  0
  4 12  1  0  0  0  0
  4  5  1  0  0  0  0
  5 14  1  0  0  0  0
  5 13  1  0  0  0  0
  6  5  1  0  0  0  0
  6 15  1  0  0  0  0
  8  2  1  0  0  0  0
 16  6  1  0  0  0  0
 17 18  1  6  0  0  0
 17  3  1  0  0  0  0
 18 22  1  0  0  0  0
 19 24  1  0  0  0  0
 19 20  1  0  0  0  0
 19 18  1  0  0  0  0
 20 27  1  0  0  0  0
 20 21  1  0  0  0  0
 21 28  1  6  0  0  0
 21 17  1  0  0  0  0
 21 31  1  0  0  0  0
 23 18  1  0  0  0  0
 25 19  1  0  0  0  0
 26 20  1  0  0  0  0
 29 30  2  0  0  0  0
 30 32  1  0  0  0  0
 30 31  1  0  0  0  0
 31 35  1  0  0  0  0
 32 36  1  0  0  0  0
 32 33  1  0  0  0  0
 34 29  1  0  0  0  0
 37 42  1  0  0  0  0
 37  1  1  0  0  0  0
 38 37  2  0  0  0  0
 39 40  2  0  0  0  0
 39 38  1  0  0  0  0
 40 41  1  0  0  0  0
 41 45  1  0  0  0  0
 41 42  2  0  0  0  0
 43 38  1  0  0  0  0
 44 39  1  0  0  0  0
M  END
>  <minimizedAffinity>
-5.50654173

>  <minimizedRMSD>
0.410852492

$$$$
