
 OpenBabel03272507013D

 45 47  0  0  1  0  0  0  0  0999 V2000
   35.0070   30.0160   49.0290 C   0  0  2  0  0  0  0  0  0  0  0  0
   35.8190   30.6890   47.9790 C   0  0  0  0  0  0  0  0  0  0  0  0
   37.2040   30.0860   47.8330 C   0  0  2  0  0  0  0  0  0  0  0  0
   37.9700   30.0880   49.1040 C   0  0  0  0  0  0  0  0  0  0  0  0
   37.1340   29.7250   50.3110 C   0  0  0  0  0  0  0  0  0  0  0  0
   35.8220   29.1030   49.9120 C   0  0  0  0  0  0  0  0  0  0  0  0
   34.5080   30.7270   49.7520 H   0  0  0  0  0  0  0  0  0  0  0  0
   35.4310   30.6970   46.9540 H   0  0  0  0  0  0  0  0  0  0  0  0
   35.9320   31.7620   48.3380 H   0  0  0  0  0  0  0  0  0  0  0  0
   37.0420   29.0220   47.5260 H   0  0  0  0  0  0  0  0  0  0  0  0
   38.7400   29.2660   49.0170 H   0  0  0  0  0  0  0  0  0  0  0  0
   38.5220   30.9770   49.3730 H   0  0  0  0  0  0  0  0  0  0  0  0
   37.6560   29.0710   51.0080 H   0  0  0  0  0  0  0  0  0  0  0  0
   36.8800   30.6500   50.8830 H   0  0  0  0  0  0  0  0  0  0  0  0
   35.2460   28.8770   50.8140 H   0  0  0  0  0  0  0  0  0  0  0  0
   36.0430   28.1520   49.3790 H   0  0  0  0  0  0  0  0  0  0  0  0
   37.9560   30.7280   46.8150 N   0  0  1  0  0  0  0  0  0  0  0  0
   37.3920   30.5460   45.4870 C   0  0  0  0  0  0  0  0  0  0  0  0
   38.4600   31.2470   44.6470 C   0  0  0  0  0  0  0  0  0  0  0  0
   38.7010   32.4890   45.5100 C   0  0  0  0  0  0  0  0  0  0  0  0
   38.2530   32.0840   46.9280 C   0  0  2  0  0  0  0  0  0  0  0  0
   37.3370   29.4610   45.2240 H   0  0  0  0  0  0  0  0  0  0  0  0
   36.4350   31.0770   45.3690 H   0  0  0  0  0  0  0  0  0  0  0  0
   39.3520   30.5890   44.6510 H   0  0  0  0  0  0  0  0  0  0  0  0
   38.0930   31.4990   43.6480 H   0  0  0  0  0  0  0  0  0  0  0  0
   38.0910   33.3160   45.1020 H   0  0  0  0  0  0  0  0  0  0  0  0
   39.7730   32.6830   45.4410 H   0  0  0  0  0  0  0  0  0  0  0  0
   37.3730   32.6920   47.1540 H   0  0  0  0  0  0  0  0  0  0  0  0
   37.7140   33.6780   49.2700 N   0  0  0  0  0  0  0  0  0  0  0  0
   38.8910   33.3620   48.7990 C   0  0  0  0  0  0  0  0  0  0  0  0
   39.3640   32.4720   47.7660 N   0  0  0  0  0  0  0  0  0  0  0  0
   39.5620   34.2320   49.7030 N   0  0  0  0  0  0  0  0  0  0  0  0
   39.9580   33.7690   50.5760 H   0  0  0  0  0  0  0  0  0  0  0  0
   36.8190   33.2980   48.9430 H   0  0  0  0  0  0  0  0  0  0  0  0
   40.3740   32.4450   48.0220 H   0  0  0  0  0  0  0  0  0  0  0  0
   39.7270   35.2790   49.6350 H   0  0  0  0  0  0  0  0  0  0  0  0
   33.9000   29.2060   48.4670 C   0  0  0  0  0  0  0  0  0  0  0  0
   33.6040   29.4930   47.1320 C   0  0  0  0  0  0  0  0  0  0  0  0
   32.5650   28.7380   46.5460 C   0  0  0  0  0  0  0  0  0  0  0  0
   31.9130   27.7830   47.2990 N   0  0  0  0  0  0  0  0  0  0  0  0
   32.2460   27.5480   48.5960 C   0  0  0  0  0  0  0  0  0  0  0  0
   33.2190   28.2540   49.1450 N   0  0  0  0  0  0  0  0  0  0  0  0
   33.9140   30.1500   46.3460 H   0  0  0  0  0  0  0  0  0  0  0  0
   32.1540   28.7670   45.5500 H   0  0  0  0  0  0  0  0  0  0  0  0
   31.7140   26.7930   49.1560 H   0  0  0  0  0  0  0  0  0  0  0  0
  1  7  1  1  0  0  0
  1  6  1  0  0  0  0
  2  9  1  0  0  0  0
  2  1  1  0  0  0  0
  3 10  1  6  0  0  0
  3  2  1  0  0  0  0
  3  4  1  0  0  0  0
  4 12  1  0  0  0  0
  4  5  1  0  0  0  0
  5 14  1  0  0  0  0
  5 13  1  0  0  0  0
  6  5  1  0  0  0  0
  6 15  1  0  0  0  0
  8  2  1  0  0  0  0
 11  4  1  0  0  0  0
 16  6  1  0  0  0  0
 17 18  1  6  0  0  0
 17 21  1  0  0  0  0
 17  3  1  0  0  0  0
 19 24  1  0  0  0  0
 19 18  1  0  0  0  0
 19 20  1  0  0  0  0
 20 21  1  0  0  0  0
 21 28  1  1  0  0  0
 21 31  1  0  0  0  0
 22 18  1  0  0  0  0
 23 18  1  0  0  0  0
 25 19  1  0  0  0  0
 26 20  1  0  0  0  0
 27 20  1  0  0  0  0
 30 29  2  0  0  0  0
 30 32  1  0  0  0  0
 31 35  1  0  0  0  0
 31 30  1  0  0  0  0
 32 33  1  0  0  0  0
 34 29  1  0  0  0  0
 36 32  1  0  0  0  0
 37  1  1  0  0  0  0
 37 42  1  0  0  0  0
 38 37  2  0  0  0  0
 39 38  1  0  0  0  0
 39 40  2  0  0  0  0
 40 41  1  0  0  0  0
 41 42  2  0  0  0  0
 41 45  1  0  0  0  0
 43 38  1  0  0  0  0
 44 39  1  0  0  0  0
M  END
>  <minimizedAffinity>
-5.81143284

>  <minimizedRMSD>
1.14836395

$$$$
