
 OpenBabel03272507013D

 45 47  0  0  1  0  0  0  0  0999 V2000
   34.4770   29.7500   49.2470 C   0  0  2  0  0  0  0  0  0  0  0  0
   35.5850   30.4690   48.5620 C   0  0  0  0  0  0  0  0  0  0  0  0
   36.9450   29.8580   48.8460 C   0  0  2  0  0  0  0  0  0  0  0  0
   37.2500   29.7820   50.2970 C   0  0  0  0  0  0  0  0  0  0  0  0
   36.0650   29.3640   51.1400 C   0  0  0  0  0  0  0  0  0  0  0  0
   34.9610   28.7810   50.2970 C   0  0  0  0  0  0  0  0  0  0  0  0
   33.7640   30.4270   49.8040 H   0  0  0  0  0  0  0  0  0  0  0  0
   35.5560   30.5370   47.4690 H   0  0  0  0  0  0  0  0  0  0  0  0
   35.5670   31.5200   48.9970 H   0  0  0  0  0  0  0  0  0  0  0  0
   36.9000   28.8140   48.4450 H   0  0  0  0  0  0  0  0  0  0  0  0
   38.0110   28.9560   50.4230 H   0  0  0  0  0  0  0  0  0  0  0  0
   37.6770   30.6480   50.7820 H   0  0  0  0  0  0  0  0  0  0  0  0
   36.3340   28.6670   51.9320 H   0  0  0  0  0  0  0  0  0  0  0  0
   35.6320   30.2590   51.6460 H   0  0  0  0  0  0  0  0  0  0  0  0
   34.1220   28.5130   50.9460 H   0  0  0  0  0  0  0  0  0  0  0  0
   35.3520   27.8570   49.8150 H   0  0  0  0  0  0  0  0  0  0  0  0
   37.9870   30.5460   48.1700 N   0  0  1  0  0  0  0  0  0  0  0  0
   37.9110   30.4150   46.7240 C   0  0  0  0  0  0  0  0  0  0  0  0
   39.1870   31.1560   46.3240 C   0  0  0  0  0  0  0  0  0  0  0  0
   39.0980   32.3620   47.2630 C   0  0  0  0  0  0  0  0  0  0  0  0
   38.2010   31.8960   48.4280 C   0  0  2  0  0  0  0  0  0  0  0  0
   37.9680   29.3420   46.4170 H   0  0  0  0  0  0  0  0  0  0  0  0
   37.0410   30.9460   46.3070 H   0  0  0  0  0  0  0  0  0  0  0  0
   40.0370   30.5020   46.6060 H   0  0  0  0  0  0  0  0  0  0  0  0
   39.1770   31.4470   45.2700 H   0  0  0  0  0  0  0  0  0  0  0  0
   38.6470   33.2020   46.7030 H   0  0  0  0  0  0  0  0  0  0  0  0
   40.1260   32.5640   47.5700 H   0  0  0  0  0  0  0  0  0  0  0  0
   37.2860   32.4910   48.3630 H   0  0  0  0  0  0  0  0  0  0  0  0
   38.7260   34.6870   48.9260 N   0  0  0  0  0  0  0  0  0  0  0  0
   39.2080   33.6750   49.5950 C   0  0  0  0  0  0  0  0  0  0  0  0
   38.9540   32.2550   49.6080 N   0  0  0  0  0  0  0  0  0  0  0  0
   40.0980   34.5010   50.3370 N   0  0  0  0  0  0  0  0  0  0  0  0
   39.7630   34.7820   51.3070 H   0  0  0  0  0  0  0  0  0  0  0  0
   37.9950   34.6340   48.2090 H   0  0  0  0  0  0  0  0  0  0  0  0
   39.4340   32.0100   50.5020 H   0  0  0  0  0  0  0  0  0  0  0  0
   41.0530   34.8800   50.0650 H   0  0  0  0  0  0  0  0  0  0  0  0
   33.6220   28.9850   48.3090 C   0  0  0  0  0  0  0  0  0  0  0  0
   33.6970   29.4230   46.9840 C   0  0  0  0  0  0  0  0  0  0  0  0
   32.9100   28.7180   46.0480 C   0  0  0  0  0  0  0  0  0  0  0  0
   32.1300   27.6620   46.4750 N   0  0  0  0  0  0  0  0  0  0  0  0
   32.0990   27.2820   47.7800 C   0  0  0  0  0  0  0  0  0  0  0  0
   32.8350   27.9420   48.6560 N   0  0  0  0  0  0  0  0  0  0  0  0
   34.1750   30.1770   46.3950 H   0  0  0  0  0  0  0  0  0  0  0  0
   32.7940   28.8550   44.9850 H   0  0  0  0  0  0  0  0  0  0  0  0
   31.4760   26.4520   48.0800 H   0  0  0  0  0  0  0  0  0  0  0  0
  1  7  1  1  0  0  0
  1  6  1  0  0  0  0
  2  3  1  0  0  0  0
  2  9  1  0  0  0  0
  2  1  1  0  0  0  0
  3 10  1  6  0  0  0
  3  4  1  0  0  0  0
  4 11  1  0  0  0  0
  4 12  1  0  0  0  0
  4  5  1  0  0  0  0
  5 14  1  0  0  0  0
  5 13  1  0  0  0  0
  6 15  1  0  0  0  0
  6  5  1  0  0  0  0
  8  2  1  0  0  0  0
 16  6  1  0  0  0  0
 17 18  1  6  0  0  0
 17 21  1  0  0  0  0
 17  3  1  0  0  0  0
 19 24  1  0  0  0  0
 19 18  1  0  0  0  0
 19 20  1  0  0  0  0
 20 27  1  0  0  0  0
 20 21  1  0  0  0  0
 21 28  1  6  0  0  0
 21 31  1  0  0  0  0
 22 18  1  0  0  0  0
 23 18  1  0  0  0  0
 25 19  1  0  0  0  0
 26 20  1  0  0  0  0
 29 30  2  0  0  0  0
 30 31  1  0  0  0  0
 30 32  1  0  0  0  0
 31 35  1  0  0  0  0
 32 33  1  0  0  0  0
 34 29  1  0  0  0  0
 36 32  1  0  0  0  0
 37 42  1  0  0  0  0
 37  1  1  0  0  0  0
 38 37  2  0  0  0  0
 39 40  2  0  0  0  0
 39 38  1  0  0  0  0
 40 41  1  0  0  0  0
 41 45  1  0  0  0  0
 41 42  2  0  0  0  0
 43 38  1  0  0  0  0
 44 39  1  0  0  0  0
M  END
>  <minimizedAffinity>
-5.69545889

>  <minimizedRMSD>
1.01965094

$$$$
