
 OpenBabel03272507073D

 38 41  0  0  0  0  0  0  0  0999 V2000
   38.2840   32.4480   49.1790 C   0  0  0  0  0  0  0  0  0  0  0  0
   38.9240   32.6210   47.9470 C   0  0  0  0  0  0  0  0  0  0  0  0
   38.4230   31.8780   46.8580 C   0  0  0  0  0  0  0  0  0  0  0  0
   37.3720   31.0560   47.0620 N   0  0  0  0  0  0  0  0  0  0  0  0
   36.7860   30.9200   48.2660 C   0  0  0  0  0  0  0  0  0  0  0  0
   37.2350   31.6090   49.3200 N   0  0  0  0  0  0  0  0  0  0  0  0
   38.6850   33.0220   49.9850 H   0  0  0  0  0  0  0  0  0  0  0  0
   39.7460   33.2570   47.7660 H   0  0  0  0  0  0  0  0  0  0  0  0
   38.9690   31.9400   45.5180 C   0  0  0  0  0  0  0  0  0  0  0  0
   38.6540   32.9120   44.6010 C   0  0  0  0  0  0  0  0  0  0  0  0
   39.1620   32.9880   43.3230 C   0  0  0  0  0  0  0  0  0  0  0  0
   40.0300   32.0330   42.9540 N   0  0  0  0  0  0  0  0  0  0  0  0
   40.3610   31.0660   43.8250 C   0  0  0  0  0  0  0  0  0  0  0  0
   39.8520   31.0290   45.0410 N   0  0  0  0  0  0  0  0  0  0  0  0
   37.9500   33.6970   44.8810 H   0  0  0  0  0  0  0  0  0  0  0  0
   38.9150   33.7480   42.6080 H   0  0  0  0  0  0  0  0  0  0  0  0
   39.7380   29.1530   41.8240 N   0  0  0  0  0  0  0  0  0  0  0  0
   40.9530   29.2580   42.2440 C   0  0  0  0  0  0  0  0  0  0  0  0
   41.2890   30.0720   43.3860 N   0  0  0  0  0  0  0  0  0  0  0  0
   41.9060   28.5140   41.4940 N   0  0  0  0  0  0  0  0  0  0  0  0
   42.8260   28.3680   41.0210 H   0  0  0  0  0  0  0  0  0  0  0  0
   39.4060   28.6010   41.0280 H   0  0  0  0  0  0  0  0  0  0  0  0
   42.1940   29.8920   43.8310 H   0  0  0  0  0  0  0  0  0  0  0  0
   41.6860   27.5340   41.1630 H   0  0  0  0  0  0  0  0  0  0  0  0
   35.6760   29.0380   49.3900 C   0  0  0  0  0  0  0  0  0  0  0  0
   35.6490   30.0030   48.3870 C   0  0  0  0  0  0  0  0  0  0  0  0
   34.5810   30.0830   47.5360 C   0  0  0  0  0  0  0  0  0  0  0  0
   33.5210   29.2180   47.6590 C   0  0  0  0  0  0  0  0  0  0  0  0
   32.3690   29.0910   46.9610 N   0  0  0  0  0  0  0  0  0  0  0  0
   31.7340   28.0520   47.5660 C   0  0  0  0  0  0  0  0  0  0  0  0
   32.4580   27.5560   48.5930 N   0  0  0  0  0  0  0  0  0  0  0  0
   33.5930   28.2760   48.6730 C   0  0  0  0  0  0  0  0  0  0  0  0
   34.6270   28.1560   49.5380 C   0  0  0  0  0  0  0  0  0  0  0  0
   36.5490   29.0110   50.0450 H   0  0  0  0  0  0  0  0  0  0  0  0
   34.5580   30.8350   46.7520 H   0  0  0  0  0  0  0  0  0  0  0  0
   32.0310   29.6380   46.1590 H   0  0  0  0  0  0  0  0  0  0  0  0
   30.7600   27.6760   47.2510 H   0  0  0  0  0  0  0  0  0  0  0  0
   34.6930   27.4300   50.3270 H   0  0  0  0  0  0  0  0  0  0  0  0
  1  6  1  0  0  0  0
  1  7  1  0  0  0  0
  2  1  2  0  0  0  0
  3  4  2  0  0  0  0
  3  2  1  0  0  0  0
  4  5  1  0  0  0  0
  5 26  1  0  0  0  0
  5  6  2  0  0  0  0
  8  2  1  0  0  0  0
  9  3  1  0  0  0  0
 10 15  1  0  0  0  0
 10  9  2  0  0  0  0
 11 10  1  0  0  0  0
 12 11  2  0  0  0  0
 12 13  1  0  0  0  0
 13 14  2  0  0  0  0
 14  9  1  0  0  0  0
 16 11  1  0  0  0  0
 17 18  2  0  0  0  0
 18 19  1  0  0  0  0
 19 13  1  0  0  0  0
 19 23  1  0  0  0  0
 20 18  1  0  0  0  0
 21 20  1  0  0  0  0
 22 17  1  0  0  0  0
 24 20  1  0  0  0  0
 25 33  1  0  0  0  0
 25 34  1  0  0  0  0
 26 25  2  0  0  0  0
 27 28  2  0  0  0  0
 27 26  1  0  0  0  0
 28 32  1  0  0  0  0
 29 30  1  0  0  0  0
 29 28  1  0  0  0  0
 30 31  2  0  0  0  0
 31 32  1  0  0  0  0
 32 33  2  0  0  0  0
 33 38  1  0  0  0  0
 35 27  1  0  0  0  0
 36 29  1  0  0  0  0
 37 30  1  0  0  0  0
M  END
>  <minimizedAffinity>
-7.64672852

>  <minimizedRMSD>
0.531473815

$$$$
