
 OpenBabel03272502283D

 22 22  0  0  0  0  0  0  0  0999 V2000
   37.6630   30.4390   48.0260 C   0  0  0  0  0  3  0  0  0  0  0  0
   37.5960   31.6610   47.5430 C   0  0  0  0  0  3  0  0  0  0  0  0
   36.8980   29.7330   51.5660 C   0  0  0  0  0  0  0  0  0  0  0  0
   37.5600   30.1840   50.4130 C   0  0  0  0  0  0  0  0  0  0  0  0
   36.9730   29.9760   49.1790 C   0  0  0  0  0  0  0  0  0  0  0  0
   35.7830   29.3480   49.1020 N   0  0  0  0  0  0  0  0  0  0  0  0
   35.1580   28.9190   50.2180 C   0  0  0  0  0  0  0  0  0  0  0  0
   35.6960   29.1040   51.4400 N   0  0  0  0  0  0  0  0  0  0  0  0
   37.4070   29.9250   52.4980 H   0  0  0  0  0  0  0  0  0  0  0  0
   38.5320   30.6940   50.5170 H   0  0  0  0  0  0  0  0  0  0  0  0
   34.1930   28.4090   50.1880 H   0  0  0  0  0  0  0  0  0  0  0  0
   38.3380   32.1040   46.3330 C   0  0  0  0  0  0  0  0  0  0  0  0
   38.5610   31.2170   45.7270 H   0  0  0  0  0  0  0  0  0  0  0  0
   37.7470   32.7710   45.6720 H   0  0  0  0  0  0  0  0  0  0  0  0
   38.3880   33.7080   48.7000 N   0  0  0  0  0  0  0  0  0  0  0  0
   39.3550   33.7350   47.8520 C   0  0  0  0  0  0  0  0  0  0  0  0
   39.5250   32.7850   46.8040 N   0  0  0  0  0  0  0  0  0  0  0  0
   40.3090   34.8050   47.9970 N   0  0  0  0  0  0  0  0  0  0  0  0
   41.1950   34.3790   48.3420 H   0  0  0  0  0  0  0  0  0  0  0  0
   37.6420   32.9860   48.6960 H   0  0  0  0  0  0  0  0  0  0  0  0
   40.4810   32.6050   46.4110 H   0  0  0  0  0  0  0  0  0  0  0  0
   40.4180   35.8490   47.8770 H   0  0  0  0  0  0  0  0  0  0  0  0
  1  5  1  0  0  0  0
  2  1  2  0  0  0  0
  3  9  1  0  0  0  0
  4 10  1  0  0  0  0
  4  3  2  0  0  0  0
  5  4  1  0  0  0  0
  6  5  2  0  0  0  0
  6  7  1  0  0  0  0
  7  8  2  0  0  0  0
  8  3  1  0  0  0  0
 11  7  1  0  0  0  0
 12 17  1  0  0  0  0
 12  2  1  0  0  0  0
 13 12  1  0  0  0  0
 14 12  1  0  0  0  0
 16 18  1  0  0  0  0
 16 15  2  0  0  0  0
 17 16  1  0  0  0  0
 18 19  1  0  0  0  0
 20 15  1  0  0  0  0
 21 17  1  0  0  0  0
 22 18  1  0  0  0  0
M  END
>  <minimizedAffinity>
-4.3598156

>  <minimizedRMSD>
1.22735691

$$$$
