
 OpenBabel03262521013D

 36 37  0  0  1  0  0  0  0  0999 V2000
   38.3250   30.5830   46.1270 S   0  0  0  0  0  0  0  0  0  0  0  0
   39.5370   33.0150   46.2740 N   0  0  0  0  0  0  0  0  0  0  0  0
   38.2860   32.4070   45.9450 C   0  0  1  0  0  0  0  0  0  0  0  0
   37.9430   32.6680   44.5020 C   0  0  0  0  0  0  0  0  0  0  0  0
   39.0170   32.1080   43.6940 N   0  0  0  0  0  0  0  0  0  0  0  0
   40.1690   32.9810   43.9600 C   0  0  0  0  0  0  0  0  0  0  0  0
   40.6010   32.6630   45.3860 C   0  0  2  0  0  0  0  0  0  0  0  0
   39.7570   33.0670   47.2660 H   0  0  0  0  0  0  0  0  0  0  0  0
   37.4900   32.8160   46.5870 H   0  0  0  0  0  0  0  0  0  0  0  0
   37.0280   32.0870   44.2280 H   0  0  0  0  0  0  0  0  0  0  0  0
   37.8410   33.7410   44.2490 H   0  0  0  0  0  0  0  0  0  0  0  0
   38.7740   32.0570   42.6970 H   0  0  0  0  0  0  0  0  0  0  0  0
   39.7690   34.0160   43.9120 H   0  0  0  0  0  0  0  0  0  0  0  0
   40.9960   32.7960   43.2730 H   0  0  0  0  0  0  0  0  0  0  0  0
   41.4680   33.3030   45.6490 H   0  0  0  0  0  0  0  0  0  0  0  0
   40.9940   31.2690   45.4550 N   0  0  0  0  0  0  0  0  0  0  0  0
   41.0590   30.9190   46.4270 H   0  0  0  0  0  0  0  0  0  0  0  0
   40.5110   30.6520   44.7930 H   0  0  0  0  0  0  0  0  0  0  0  0
   37.4440   30.0230   50.0400 C   0  0  0  0  0  0  0  0  0  0  0  0
   38.1110   30.4410   48.9090 C   0  0  0  0  0  0  0  0  0  0  0  0
   37.5940   30.1240   47.6770 C   0  0  0  0  0  0  0  0  0  0  0  0
   36.4120   29.3890   47.6360 N   0  0  0  0  0  0  0  0  0  0  0  0
   35.8190   29.0180   48.7690 C   0  0  0  0  0  0  0  0  0  0  0  0
   36.3170   29.3230   49.9720 N   0  0  0  0  0  0  0  0  0  0  0  0
   37.8490   30.2710   51.0330 H   0  0  0  0  0  0  0  0  0  0  0  0
   39.0220   31.0070   48.9440 H   0  0  0  0  0  0  0  0  0  0  0  0
   34.5760   28.2450   48.6880 C   0  0  0  0  0  0  0  0  0  0  0  0
   34.4670   27.1760   48.0560 O   0  0  0  0  0  0  0  0  0  0  0  0
   34.6980   29.7870   51.0130 N   0  0  0  0  0  0  0  0  0  0  0  0
   33.5130   29.5520   50.5630 C   0  0  0  0  0  0  0  0  0  0  0  0
   33.4300   28.7710   49.3850 N   0  0  0  0  0  0  0  0  0  0  0  0
   32.3230   30.0240   51.1760 N   0  0  0  0  0  0  0  0  0  0  0  0
   31.4230   29.5830   50.9580 H   0  0  0  0  0  0  0  0  0  0  0  0
   34.7450   30.3690   51.8890 H   0  0  0  0  0  0  0  0  0  0  0  0
   32.4760   28.5690   49.0050 H   0  0  0  0  0  0  0  0  0  0  0  0
   32.4180   30.8070   51.8280 H   0  0  0  0  0  0  0  0  0  0  0  0
  1 21  1  0  0  0  0
  2  8  1  0  0  0  0
  3  1  1  0  0  0  0
  3  2  1  0  0  0  0
  3  9  1  1  0  0  0
  4  3  1  0  0  0  0
  5  6  1  0  0  0  0
  5  4  1  0  0  0  0
  6  7  1  0  0  0  0
  7 16  1  0  0  0  0
  7 15  1  1  0  0  0
  7  2  1  0  0  0  0
 10  4  1  0  0  0  0
 11  4  1  0  0  0  0
 12  5  1  0  0  0  0
 13  6  1  0  0  0  0
 14  6  1  0  0  0  0
 16 17  1  0  0  0  0
 18 16  1  0  0  0  0
 19 25  1  0  0  0  0
 20 26  1  0  0  0  0
 20 19  2  0  0  0  0
 21 20  1  0  0  0  0
 22 21  2  0  0  0  0
 22 23  1  0  0  0  0
 23 24  2  0  0  0  0
 24 19  1  0  0  0  0
 27 23  1  0  0  0  0
 27 31  1  0  0  0  0
 28 27  2  0  0  0  0
 29 34  1  0  0  0  0
 30 29  2  0  0  0  0
 30 32  1  0  0  0  0
 31 30  1  0  0  0  0
 32 36  1  0  0  0  0
 33 32  1  0  0  0  0
 35 31  1  0  0  0  0
M  END
>  <minimizedAffinity>
-3.40028238

>  <minimizedRMSD>
1.3343966

$$$$
