
 OpenBabel03262521013D

 36 37  0  0  1  0  0  0  0  0999 V2000
   39.0400   30.7650   46.0500 S   0  0  0  0  0  0  0  0  0  0  0  0
   38.0650   32.7060   44.4120 N   0  0  0  0  0  0  0  0  0  0  0  0
   37.9610   31.3040   44.6700 C   0  0  1  0  0  0  0  0  0  0  0  0
   38.4100   30.5180   43.4670 C   0  0  0  0  0  0  0  0  0  0  0  0
   39.7910   30.8910   43.1970 N   0  0  0  0  0  0  0  0  0  0  0  0
   39.7080   32.2780   42.7170 C   0  0  0  0  0  0  0  0  0  0  0  0
   39.3530   33.1120   43.9420 C   0  0  2  0  0  0  0  0  0  0  0  0
   37.6010   33.3160   45.0810 H   0  0  0  0  0  0  0  0  0  0  0  0
   36.9170   31.0420   44.9050 H   0  0  0  0  0  0  0  0  0  0  0  0
   38.4390   29.4300   43.7240 H   0  0  0  0  0  0  0  0  0  0  0  0
   37.8130   30.7090   42.5540 H   0  0  0  0  0  0  0  0  0  0  0  0
   40.2450   30.2600   42.5240 H   0  0  0  0  0  0  0  0  0  0  0  0
   38.8620   32.2890   41.9980 H   0  0  0  0  0  0  0  0  0  0  0  0
   40.6510   32.6260   42.2930 H   0  0  0  0  0  0  0  0  0  0  0  0
   39.2660   34.1750   43.6380 H   0  0  0  0  0  0  0  0  0  0  0  0
   40.4120   32.9760   44.9230 N   0  0  0  0  0  0  0  0  0  0  0  0
   40.1310   33.3050   45.8630 H   0  0  0  0  0  0  0  0  0  0  0  0
   40.9120   32.0800   44.8960 H   0  0  0  0  0  0  0  0  0  0  0  0
   37.9190   32.8010   49.3660 C   0  0  0  0  0  0  0  0  0  0  0  0
   38.5220   32.5220   48.1590 C   0  0  0  0  0  0  0  0  0  0  0  0
   38.3370   31.2840   47.5940 C   0  0  0  0  0  0  0  0  0  0  0  0
   37.5420   30.3680   48.2780 N   0  0  0  0  0  0  0  0  0  0  0  0
   36.9890   30.7040   49.4410 C   0  0  0  0  0  0  0  0  0  0  0  0
   37.1650   31.9080   49.9970 N   0  0  0  0  0  0  0  0  0  0  0  0
   38.0600   33.7900   49.8280 H   0  0  0  0  0  0  0  0  0  0  0  0
   39.1340   33.2300   47.6350 H   0  0  0  0  0  0  0  0  0  0  0  0
   36.1580   29.7150   50.1330 C   0  0  0  0  0  0  0  0  0  0  0  0
   36.2350   29.4820   51.3550 O   0  0  0  0  0  0  0  0  0  0  0  0
   33.3960   29.7310   50.5400 N   0  0  0  0  0  0  0  0  0  0  0  0
   33.8090   29.0030   49.5570 C   0  0  0  0  0  0  0  0  0  0  0  0
   35.2070   28.9820   49.3360 N   0  0  0  0  0  0  0  0  0  0  0  0
   32.9550   28.2470   48.7150 N   0  0  0  0  0  0  0  0  0  0  0  0
   33.3360   27.4800   48.1510 H   0  0  0  0  0  0  0  0  0  0  0  0
   32.3530   29.7380   50.6940 H   0  0  0  0  0  0  0  0  0  0  0  0
   35.5620   28.3980   48.5430 H   0  0  0  0  0  0  0  0  0  0  0  0
   31.9640   28.5070   48.7070 H   0  0  0  0  0  0  0  0  0  0  0  0
  1 21  1  0  0  0  0
  2  3  1  0  0  0  0
  2  8  1  0  0  0  0
  3  9  1  1  0  0  0
  3  1  1  0  0  0  0
  4 10  1  0  0  0  0
  4  3  1  0  0  0  0
  5  4  1  0  0  0  0
  6  5  1  0  0  0  0
  6  7  1  0  0  0  0
  7 15  1  6  0  0  0
  7  2  1  0  0  0  0
  7 16  1  0  0  0  0
 11  4  1  0  0  0  0
 12  5  1  0  0  0  0
 13  6  1  0  0  0  0
 14  6  1  0  0  0  0
 16 17  1  0  0  0  0
 18 16  1  0  0  0  0
 19 25  1  0  0  0  0
 19 24  1  0  0  0  0
 20 19  2  0  0  0  0
 21 20  1  0  0  0  0
 21 22  2  0  0  0  0
 22 23  1  0  0  0  0
 23 24  2  0  0  0  0
 23 27  1  0  0  0  0
 26 20  1  0  0  0  0
 27 28  2  0  0  0  0
 29 34  1  0  0  0  0
 30 29  2  0  0  0  0
 31 30  1  0  0  0  0
 31 27  1  0  0  0  0
 32 30  1  0  0  0  0
 33 32  1  0  0  0  0
 35 31  1  0  0  0  0
 36 32  1  0  0  0  0
M  END
>  <minimizedAffinity>
-6.13689947

>  <minimizedRMSD>
2.28306365

$$$$
