
 OpenBabel03262521013D

 36 37  0  0  1  0  0  0  0  0999 V2000
   38.6640   30.6600   45.8670 S   0  0  0  0  0  0  0  0  0  0  0  0
   38.4300   33.0750   44.6340 N   0  0  0  0  0  0  0  0  0  0  0  0
   37.7910   31.7990   44.7270 C   0  0  1  0  0  0  0  0  0  0  0  0
   37.7940   31.1170   43.3840 C   0  0  0  0  0  0  0  0  0  0  0  0
   39.1840   30.9700   42.9760 N   0  0  0  0  0  0  0  0  0  0  0  0
   39.6290   32.3410   42.6900 C   0  0  0  0  0  0  0  0  0  0  0  0
   39.7320   33.0260   44.0470 C   0  0  2  0  0  0  0  0  0  0  0  0
   38.3020   33.6930   45.4320 H   0  0  0  0  0  0  0  0  0  0  0  0
   36.7520   31.9240   45.0680 H   0  0  0  0  0  0  0  0  0  0  0  0
   37.4030   30.0760   43.4960 H   0  0  0  0  0  0  0  0  0  0  0  0
   37.2560   31.6760   42.5930 H   0  0  0  0  0  0  0  0  0  0  0  0
   39.2930   30.3370   42.1740 H   0  0  0  0  0  0  0  0  0  0  0  0
   38.8060   32.7990   42.1010 H   0  0  0  0  0  0  0  0  0  0  0  0
   40.5970   32.3660   42.1880 H   0  0  0  0  0  0  0  0  0  0  0  0
   40.0580   34.0760   43.8940 H   0  0  0  0  0  0  0  0  0  0  0  0
   40.7190   32.3280   44.8490 N   0  0  0  0  0  0  0  0  0  0  0  0
   40.6660   32.5750   45.8520 H   0  0  0  0  0  0  0  0  0  0  0  0
   40.8130   31.3280   44.6420 H   0  0  0  0  0  0  0  0  0  0  0  0
   38.5670   32.7170   49.3540 C   0  0  0  0  0  0  0  0  0  0  0  0
   38.8090   32.4220   48.0300 C   0  0  0  0  0  0  0  0  0  0  0  0
   38.4270   31.1960   47.5410 C   0  0  0  0  0  0  0  0  0  0  0  0
   37.8100   30.3090   48.4180 N   0  0  0  0  0  0  0  0  0  0  0  0
   37.6070   30.6590   49.6870 C   0  0  0  0  0  0  0  0  0  0  0  0
   37.9760   31.8500   50.1700 N   0  0  0  0  0  0  0  0  0  0  0  0
   38.8690   33.6950   49.7570 H   0  0  0  0  0  0  0  0  0  0  0  0
   39.2850   33.1080   47.3570 H   0  0  0  0  0  0  0  0  0  0  0  0
   36.9540   29.6990   50.5820 C   0  0  0  0  0  0  0  0  0  0  0  0
   37.5690   28.8230   51.2210 O   0  0  0  0  0  0  0  0  0  0  0  0
   35.1160   28.3440   48.9740 N   0  0  0  0  0  0  0  0  0  0  0  0
   34.6070   29.0980   49.8880 C   0  0  0  0  0  0  0  0  0  0  0  0
   35.5220   29.7930   50.7140 N   0  0  0  0  0  0  0  0  0  0  0  0
   33.2130   29.2570   50.0990 N   0  0  0  0  0  0  0  0  0  0  0  0
   32.8610   30.0630   50.6280 H   0  0  0  0  0  0  0  0  0  0  0  0
   34.4240   27.8330   48.3670 H   0  0  0  0  0  0  0  0  0  0  0  0
   35.1280   30.4100   51.4620 H   0  0  0  0  0  0  0  0  0  0  0  0
   32.5990   28.5380   49.7030 H   0  0  0  0  0  0  0  0  0  0  0  0
  1 21  1  0  0  0  0
  2  3  1  0  0  0  0
  2  8  1  0  0  0  0
  3  9  1  1  0  0  0
  3  1  1  0  0  0  0
  4 10  1  0  0  0  0
  4  3  1  0  0  0  0
  5  4  1  0  0  0  0
  6  5  1  0  0  0  0
  6  7  1  0  0  0  0
  7 15  1  6  0  0  0
  7  2  1  0  0  0  0
  7 16  1  0  0  0  0
 11  4  1  0  0  0  0
 12  5  1  0  0  0  0
 13  6  1  0  0  0  0
 14  6  1  0  0  0  0
 16 17  1  0  0  0  0
 18 16  1  0  0  0  0
 19 25  1  0  0  0  0
 19 24  1  0  0  0  0
 20 19  2  0  0  0  0
 21 20  1  0  0  0  0
 21 22  2  0  0  0  0
 22 23  1  0  0  0  0
 23 24  2  0  0  0  0
 23 27  1  0  0  0  0
 26 20  1  0  0  0  0
 27 31  1  0  0  0  0
 27 28  2  0  0  0  0
 29 30  2  0  0  0  0
 30 32  1  0  0  0  0
 30 31  1  0  0  0  0
 31 35  1  0  0  0  0
 32 33  1  0  0  0  0
 34 29  1  0  0  0  0
 36 32  1  0  0  0  0
M  END
>  <minimizedAffinity>
-5.97749186

>  <minimizedRMSD>
2.09376669

$$$$
