
 OpenBabel03262521013D

 36 37  0  0  1  0  0  0  0  0999 V2000
   37.5640   30.6980   45.5760 S   0  0  0  0  0  0  0  0  0  0  0  0
   39.2440   32.6750   46.3970 N   0  0  0  0  0  0  0  0  0  0  0  0
   38.0490   32.4640   45.6410 C   0  0  1  0  0  0  0  0  0  0  0  0
   38.2590   32.8850   44.2100 C   0  0  0  0  0  0  0  0  0  0  0  0
   39.3530   32.0840   43.6790 N   0  0  0  0  0  0  0  0  0  0  0  0
   40.5440   32.5800   44.3840 C   0  0  0  0  0  0  0  0  0  0  0  0
   40.4070   32.0810   45.8160 C   0  0  2  0  0  0  0  0  0  0  0  0
   39.1450   32.6120   47.4080 H   0  0  0  0  0  0  0  0  0  0  0  0
   37.2230   33.0500   46.0730 H   0  0  0  0  0  0  0  0  0  0  0  0
   37.3610   32.6030   43.6060 H   0  0  0  0  0  0  0  0  0  0  0  0
   38.5180   33.9540   44.0860 H   0  0  0  0  0  0  0  0  0  0  0  0
   39.4330   32.1550   42.6570 H   0  0  0  0  0  0  0  0  0  0  0  0
   40.4570   33.6870   44.3630 H   0  0  0  0  0  0  0  0  0  0  0  0
   41.4700   32.2030   43.9470 H   0  0  0  0  0  0  0  0  0  0  0  0
   41.2800   32.4340   46.4040 H   0  0  0  0  0  0  0  0  0  0  0  0
   40.3900   30.6300   45.8050 N   0  0  0  0  0  0  0  0  0  0  0  0
   40.0540   30.2280   46.6970 H   0  0  0  0  0  0  0  0  0  0  0  0
   40.0010   30.2100   44.9540 H   0  0  0  0  0  0  0  0  0  0  0  0
   37.4930   29.9120   49.5480 C   0  0  0  0  0  0  0  0  0  0  0  0
   37.9060   30.4170   48.3350 C   0  0  0  0  0  0  0  0  0  0  0  0
   37.1720   30.1280   47.2100 C   0  0  0  0  0  0  0  0  0  0  0  0
   36.0390   29.3330   47.3580 N   0  0  0  0  0  0  0  0  0  0  0  0
   35.6970   28.8780   48.5620 C   0  0  0  0  0  0  0  0  0  0  0  0
   36.4070   29.1540   49.6610 N   0  0  0  0  0  0  0  0  0  0  0  0
   38.0740   30.1360   50.4560 H   0  0  0  0  0  0  0  0  0  0  0  0
   38.7800   31.0290   48.2240 H   0  0  0  0  0  0  0  0  0  0  0  0
   34.4980   28.0430   48.6800 C   0  0  0  0  0  0  0  0  0  0  0  0
   34.3790   26.9260   48.1400 O   0  0  0  0  0  0  0  0  0  0  0  0
   34.7060   30.1890   50.4550 N   0  0  0  0  0  0  0  0  0  0  0  0
   33.5370   29.6530   50.3630 C   0  0  0  0  0  0  0  0  0  0  0  0
   33.4100   28.5640   49.4680 N   0  0  0  0  0  0  0  0  0  0  0  0
   32.4030   30.0930   51.0960 N   0  0  0  0  0  0  0  0  0  0  0  0
   31.5920   29.4750   51.2080 H   0  0  0  0  0  0  0  0  0  0  0  0
   34.7860   30.9980   51.1240 H   0  0  0  0  0  0  0  0  0  0  0  0
   32.4690   28.1170   49.3810 H   0  0  0  0  0  0  0  0  0  0  0  0
   32.4460   31.0370   51.4930 H   0  0  0  0  0  0  0  0  0  0  0  0
  1  3  1  0  0  0  0
  1 21  1  0  0  0  0
  2  8  1  0  0  0  0
  3  9  1  1  0  0  0
  3  2  1  0  0  0  0
  4  3  1  0  0  0  0
  5  4  1  0  0  0  0
  5  6  1  0  0  0  0
  6  7  1  0  0  0  0
  7  2  1  0  0  0  0
  7 15  1  1  0  0  0
 10  4  1  0  0  0  0
 11  4  1  0  0  0  0
 12  5  1  0  0  0  0
 13  6  1  0  0  0  0
 14  6  1  0  0  0  0
 16  7  1  0  0  0  0
 16 17  1  0  0  0  0
 18 16  1  0  0  0  0
 19 24  1  0  0  0  0
 19 25  1  0  0  0  0
 20 19  2  0  0  0  0
 21 22  2  0  0  0  0
 21 20  1  0  0  0  0
 22 23  1  0  0  0  0
 23 27  1  0  0  0  0
 23 24  2  0  0  0  0
 26 20  1  0  0  0  0
 27 31  1  0  0  0  0
 28 27  2  0  0  0  0
 29 34  1  0  0  0  0
 30 29  2  0  0  0  0
 30 32  1  0  0  0  0
 31 30  1  0  0  0  0
 32 33  1  0  0  0  0
 32 36  1  0  0  0  0
 35 31  1  0  0  0  0
M  END
>  <minimizedAffinity>
-3.15540981

>  <minimizedRMSD>
1.48308432

$$$$
