
 OpenBabel03262521013D

 36 37  0  0  1  0  0  0  0  0999 V2000
   38.6230   30.6740   46.3900 S   0  0  0  0  0  0  0  0  0  0  0  0
   39.7030   33.1460   46.0380 N   0  0  0  0  0  0  0  0  0  0  0  0
   38.4520   32.4560   45.9950 C   0  0  1  0  0  0  0  0  0  0  0  0
   37.8720   32.5140   44.6070 C   0  0  0  0  0  0  0  0  0  0  0  0
   38.8350   31.8930   43.7090 N   0  0  0  0  0  0  0  0  0  0  0  0
   39.9630   32.8350   43.6740 C   0  0  0  0  0  0  0  0  0  0  0  0
   40.6310   32.7210   45.0380 C   0  0  2  0  0  0  0  0  0  0  0  0
   40.0730   33.3350   46.9670 H   0  0  0  0  0  0  0  0  0  0  0  0
   37.7450   32.9160   46.7030 H   0  0  0  0  0  0  0  0  0  0  0  0
   36.9600   31.8700   44.5590 H   0  0  0  0  0  0  0  0  0  0  0  0
   37.6700   33.5410   44.2440 H   0  0  0  0  0  0  0  0  0  0  0  0
   38.4410   31.7050   42.7780 H   0  0  0  0  0  0  0  0  0  0  0  0
   39.5020   33.8400   43.5650 H   0  0  0  0  0  0  0  0  0  0  0  0
   40.6810   32.5930   42.8890 H   0  0  0  0  0  0  0  0  0  0  0  0
   41.4910   33.4210   45.0760 H   0  0  0  0  0  0  0  0  0  0  0  0
   41.1090   31.3630   45.2120 N   0  0  0  0  0  0  0  0  0  0  0  0
   41.3460   31.1450   46.1950 H   0  0  0  0  0  0  0  0  0  0  0  0
   40.5640   30.6480   44.7180 H   0  0  0  0  0  0  0  0  0  0  0  0
   37.7320   30.5450   50.3380 C   0  0  0  0  0  0  0  0  0  0  0  0
   38.3710   30.8790   49.1650 C   0  0  0  0  0  0  0  0  0  0  0  0
   37.9150   30.3470   47.9840 C   0  0  0  0  0  0  0  0  0  0  0  0
   36.8200   29.4890   48.0360 N   0  0  0  0  0  0  0  0  0  0  0  0
   36.2490   29.2080   49.2050 C   0  0  0  0  0  0  0  0  0  0  0  0
   36.6880   29.7220   50.3600 N   0  0  0  0  0  0  0  0  0  0  0  0
   38.0880   30.9650   51.2910 H   0  0  0  0  0  0  0  0  0  0  0  0
   39.2150   31.5410   49.1280 H   0  0  0  0  0  0  0  0  0  0  0  0
   35.0990   28.3000   49.2230 C   0  0  0  0  0  0  0  0  0  0  0  0
   34.9980   27.2980   48.4880 O   0  0  0  0  0  0  0  0  0  0  0  0
   34.0170   30.8430   49.6240 N   0  0  0  0  0  0  0  0  0  0  0  0
   33.5020   29.9000   50.3380 C   0  0  0  0  0  0  0  0  0  0  0  0
   34.0370   28.6030   50.1490 N   0  0  0  0  0  0  0  0  0  0  0  0
   32.4550   30.0960   51.2760 N   0  0  0  0  0  0  0  0  0  0  0  0
   32.2820   29.3980   52.0070 H   0  0  0  0  0  0  0  0  0  0  0  0
   33.6090   31.8030   49.7750 H   0  0  0  0  0  0  0  0  0  0  0  0
   33.6320   27.8260   50.7200 H   0  0  0  0  0  0  0  0  0  0  0  0
   31.9020   30.9530   51.1790 H   0  0  0  0  0  0  0  0  0  0  0  0
  1 21  1  0  0  0  0
  2  8  1  0  0  0  0
  3  2  1  0  0  0  0
  3  1  1  0  0  0  0
  3  9  1  1  0  0  0
  4  3  1  0  0  0  0
  5  4  1  0  0  0  0
  6  5  1  0  0  0  0
  6  7  1  0  0  0  0
  7 15  1  1  0  0  0
  7 16  1  0  0  0  0
  7  2  1  0  0  0  0
 10  4  1  0  0  0  0
 11  4  1  0  0  0  0
 12  5  1  0  0  0  0
 13  6  1  0  0  0  0
 14  6  1  0  0  0  0
 16 17  1  0  0  0  0
 18 16  1  0  0  0  0
 19 24  1  0  0  0  0
 19 25  1  0  0  0  0
 20 19  2  0  0  0  0
 21 22  2  0  0  0  0
 21 20  1  0  0  0  0
 22 23  1  0  0  0  0
 23 27  1  0  0  0  0
 23 24  2  0  0  0  0
 26 20  1  0  0  0  0
 27 31  1  0  0  0  0
 28 27  2  0  0  0  0
 29 34  1  0  0  0  0
 29 30  2  0  0  0  0
 30 32  1  0  0  0  0
 31 30  1  0  0  0  0
 31 35  1  0  0  0  0
 32 33  1  0  0  0  0
 36 32  1  0  0  0  0
M  END
>  <minimizedAffinity>
-3.47482109

>  <minimizedRMSD>
0.922485411

$$$$
