
 OpenBabel03262521013D

 36 37  0  0  1  0  0  0  0  0999 V2000
   38.6530   30.6590   45.8570 S   0  0  0  0  0  0  0  0  0  0  0  0
   38.4490   33.0930   44.6580 N   0  0  0  0  0  0  0  0  0  0  0  0
   37.7850   31.8300   44.7460 C   0  0  1  0  0  0  0  0  0  0  0  0
   37.7520   31.1650   43.3950 C   0  0  0  0  0  0  0  0  0  0  0  0
   39.1310   30.9940   42.9630 N   0  0  0  0  0  0  0  0  0  0  0  0
   39.6000   32.3600   42.6860 C   0  0  0  0  0  0  0  0  0  0  0  0
   39.7400   33.0250   44.0490 C   0  0  2  0  0  0  0  0  0  0  0  0
   38.3470   33.7040   45.4660 H   0  0  0  0  0  0  0  0  0  0  0  0
   36.7540   31.9720   45.1060 H   0  0  0  0  0  0  0  0  0  0  0  0
   37.3410   30.1310   43.5010 H   0  0  0  0  0  0  0  0  0  0  0  0
   37.2130   31.7440   42.6200 H   0  0  0  0  0  0  0  0  0  0  0  0
   39.2150   30.3690   42.1500 H   0  0  0  0  0  0  0  0  0  0  0  0
   38.7780   32.8410   42.1160 H   0  0  0  0  0  0  0  0  0  0  0  0
   40.5600   32.3710   42.1680 H   0  0  0  0  0  0  0  0  0  0  0  0
   40.0850   34.0700   43.9030 H   0  0  0  0  0  0  0  0  0  0  0  0
   40.7250   32.2970   44.8260 N   0  0  0  0  0  0  0  0  0  0  0  0
   40.6940   32.5330   45.8330 H   0  0  0  0  0  0  0  0  0  0  0  0
   40.7950   31.2980   44.6050 H   0  0  0  0  0  0  0  0  0  0  0  0
   38.5450   32.6670   49.3720 C   0  0  0  0  0  0  0  0  0  0  0  0
   38.7680   32.3990   48.0400 C   0  0  0  0  0  0  0  0  0  0  0  0
   38.4320   31.1630   47.5440 C   0  0  0  0  0  0  0  0  0  0  0  0
   37.8770   30.2380   48.4230 N   0  0  0  0  0  0  0  0  0  0  0  0
   37.6880   30.5630   49.7000 C   0  0  0  0  0  0  0  0  0  0  0  0
   38.0140   31.7640   50.1900 N   0  0  0  0  0  0  0  0  0  0  0  0
   38.8100   33.6530   49.7810 H   0  0  0  0  0  0  0  0  0  0  0  0
   39.1960   33.1150   47.3650 H   0  0  0  0  0  0  0  0  0  0  0  0
   37.1020   29.5630   50.5980 C   0  0  0  0  0  0  0  0  0  0  0  0
   37.7520   28.6320   51.1120 O   0  0  0  0  0  0  0  0  0  0  0  0
   35.0520   28.8880   48.8260 N   0  0  0  0  0  0  0  0  0  0  0  0
   34.6710   29.3350   49.9730 C   0  0  0  0  0  0  0  0  0  0  0  0
   35.6950   29.6830   50.8860 N   0  0  0  0  0  0  0  0  0  0  0  0
   33.3120   29.4910   50.3530 N   0  0  0  0  0  0  0  0  0  0  0  0
   33.0640   30.1040   51.1380 H   0  0  0  0  0  0  0  0  0  0  0  0
   34.2790   28.6320   48.1560 H   0  0  0  0  0  0  0  0  0  0  0  0
   35.4050   30.0490   51.8230 H   0  0  0  0  0  0  0  0  0  0  0  0
   32.6170   28.9690   49.8100 H   0  0  0  0  0  0  0  0  0  0  0  0
  1 21  1  0  0  0  0
  2  3  1  0  0  0  0
  2  8  1  0  0  0  0
  3  9  1  1  0  0  0
  3  1  1  0  0  0  0
  4 10  1  0  0  0  0
  4  3  1  0  0  0  0
  5  4  1  0  0  0  0
  6  5  1  0  0  0  0
  6  7  1  0  0  0  0
  7 15  1  6  0  0  0
  7  2  1  0  0  0  0
  7 16  1  0  0  0  0
 11  4  1  0  0  0  0
 12  5  1  0  0  0  0
 13  6  1  0  0  0  0
 14  6  1  0  0  0  0
 16 17  1  0  0  0  0
 18 16  1  0  0  0  0
 19 25  1  0  0  0  0
 19 24  1  0  0  0  0
 20 19  2  0  0  0  0
 21 20  1  0  0  0  0
 21 22  2  0  0  0  0
 22 23  1  0  0  0  0
 23 24  2  0  0  0  0
 23 27  1  0  0  0  0
 26 20  1  0  0  0  0
 27 31  1  0  0  0  0
 27 28  2  0  0  0  0
 29 30  2  0  0  0  0
 30 32  1  0  0  0  0
 30 31  1  0  0  0  0
 31 35  1  0  0  0  0
 32 33  1  0  0  0  0
 34 29  1  0  0  0  0
 36 32  1  0  0  0  0
M  END
>  <minimizedAffinity>
-6.02647591

>  <minimizedRMSD>
2.05314922

$$$$
