
 OpenBabel03272502173D

 32 33  0  0  1  0  0  0  0  0999 V2000
   36.1090   29.4280   49.2320 S   0  0  0  0  0  0  0  0  0  0  0  0
   37.1600   30.8090   48.8740 C   0  0  0  0  0  0  0  0  0  0  0  0
   36.9990   31.8800   49.7690 C   0  0  0  0  0  0  0  0  0  0  0  0
   37.7650   33.0230   49.5970 C   0  0  0  0  0  0  0  0  0  0  0  0
   38.6470   33.0430   48.5490 N   0  0  0  0  0  0  0  0  0  0  0  0
   38.7830   32.0010   47.7040 C   0  0  0  0  0  0  0  0  0  0  0  0
   38.0470   30.9050   47.8690 N   0  0  0  0  0  0  0  0  0  0  0  0
   36.3040   31.8820   50.6050 H   0  0  0  0  0  0  0  0  0  0  0  0
   37.6730   33.8700   50.2630 H   0  0  0  0  0  0  0  0  0  0  0  0
   38.8880   30.2250   45.4900 N   0  0  0  0  0  0  0  0  0  0  0  0
   39.8800   31.0050   45.7320 C   0  0  0  0  0  0  0  0  0  0  0  0
   39.7210   32.0930   46.6360 N   0  0  0  0  0  0  0  0  0  0  0  0
   41.1420   30.7990   45.1090 N   0  0  0  0  0  0  0  0  0  0  0  0
   42.0530   30.5660   44.6760 H   0  0  0  0  0  0  0  0  0  0  0  0
   38.9930   29.4270   44.8300 H   0  0  0  0  0  0  0  0  0  0  0  0
   40.2980   32.9520   46.5050 H   0  0  0  0  0  0  0  0  0  0  0  0
   41.6590   31.6010   44.6780 H   0  0  0  0  0  0  0  0  0  0  0  0
   33.5500   28.6270   48.9620 N   0  0  0  0  0  0  0  0  0  0  0  0
   34.3600   29.8150   48.8720 C   0  0  2  0  0  0  0  0  0  0  0  0
   34.2710   30.3410   47.4520 C   0  0  0  0  0  0  0  0  0  0  0  0
   33.1650   29.7870   46.7700 O   0  0  0  0  0  0  0  0  0  0  0  0
   33.5030   28.4350   46.5840 C   0  0  0  0  0  0  0  0  0  0  0  0
   33.9010   27.7610   47.8600 C   0  0  2  0  0  0  0  0  0  0  0  0
   32.5600   28.9110   48.8140 H   0  0  0  0  0  0  0  0  0  0  0  0
   34.0790   30.5940   49.6170 H   0  0  0  0  0  0  0  0  0  0  0  0
   35.1600   30.0650   46.8540 H   0  0  0  0  0  0  0  0  0  0  0  0
   34.1420   31.4390   47.4500 H   0  0  0  0  0  0  0  0  0  0  0  0
   32.5650   27.9500   46.2120 H   0  0  0  0  0  0  0  0  0  0  0  0
   34.3240   28.3210   45.8590 H   0  0  0  0  0  0  0  0  0  0  0  0
   34.9680   27.4740   47.8990 H   0  0  0  0  0  0  0  0  0  0  0  0
   33.1750   26.5610   48.0260 O   0  0  0  0  0  0  0  0  0  0  0  0
   32.9660   26.4480   48.9870 H   0  0  0  0  0  0  0  0  0  0  0  0
  2  1  1  0  0  0  0
  2  3  1  0  0  0  0
  3  8  1  0  0  0  0
  4  3  2  0  0  0  0
  4  9  1  0  0  0  0
  5  4  1  0  0  0  0
  6  7  1  0  0  0  0
  6  5  2  0  0  0  0
  7  2  2  0  0  0  0
 10 11  2  0  0  0  0
 11 12  1  0  0  0  0
 12  6  1  0  0  0  0
 13 11  1  0  0  0  0
 14 13  1  0  0  0  0
 15 10  1  0  0  0  0
 16 12  1  0  0  0  0
 17 13  1  0  0  0  0
 19 18  1  0  0  0  0
 19  1  1  0  0  0  0
 19 25  1  1  0  0  0
 20 19  1  0  0  0  0
 21 20  1  0  0  0  0
 22 21  1  0  0  0  0
 22 23  1  0  0  0  0
 23 30  1  1  0  0  0
 23 31  1  0  0  0  0
 23 18  1  0  0  0  0
 24 18  1  0  0  0  0
 26 20  1  0  0  0  0
 27 20  1  0  0  0  0
 28 22  1  0  0  0  0
 29 22  1  0  0  0  0
 31 32  1  0  0  0  0
M  END
>  <minimizedAffinity>
-5.61218357

>  <minimizedRMSD>
0.292507023

$$$$
