
 OpenBabel03272502173D

 32 33  0  0  1  0  0  0  0  0999 V2000
   36.0670   29.3530   49.3720 S   0  0  0  0  0  0  0  0  0  0  0  0
   37.1810   30.6520   48.9090 C   0  0  0  0  0  0  0  0  0  0  0  0
   37.0630   31.8010   49.7090 C   0  0  0  0  0  0  0  0  0  0  0  0
   37.8790   32.8910   49.4490 C   0  0  0  0  0  0  0  0  0  0  0  0
   38.7680   32.7830   48.4120 N   0  0  0  0  0  0  0  0  0  0  0  0
   38.8620   31.6680   47.6590 C   0  0  0  0  0  0  0  0  0  0  0  0
   38.0780   30.6230   47.9080 N   0  0  0  0  0  0  0  0  0  0  0  0
   36.3630   31.9040   50.5350 H   0  0  0  0  0  0  0  0  0  0  0  0
   37.8210   33.7940   50.0400 H   0  0  0  0  0  0  0  0  0  0  0  0
   38.5350   32.9600   45.1500 N   0  0  0  0  0  0  0  0  0  0  0  0
   39.4380   32.0580   45.2920 C   0  0  0  0  0  0  0  0  0  0  0  0
   39.8100   31.6280   46.5970 N   0  0  0  0  0  0  0  0  0  0  0  0
   40.0760   31.4780   44.1600 N   0  0  0  0  0  0  0  0  0  0  0  0
   40.4630   31.0480   43.3030 H   0  0  0  0  0  0  0  0  0  0  0  0
   38.2540   33.2830   44.2020 H   0  0  0  0  0  0  0  0  0  0  0  0
   40.7820   31.2840   46.7610 H   0  0  0  0  0  0  0  0  0  0  0  0
   41.1170   31.3720   44.1350 H   0  0  0  0  0  0  0  0  0  0  0  0
   33.5090   28.6010   48.9830 N   0  0  0  0  0  0  0  0  0  0  0  0
   34.3420   29.7760   48.9430 C   0  0  2  0  0  0  0  0  0  0  0  0
   34.3230   30.3190   47.5270 C   0  0  0  0  0  0  0  0  0  0  0  0
   33.2380   29.7930   46.7910 O   0  0  0  0  0  0  0  0  0  0  0  0
   33.5610   28.4370   46.6030 C   0  0  0  0  0  0  0  0  0  0  0  0
   33.8920   27.7420   47.8870 C   0  0  2  0  0  0  0  0  0  0  0  0
   32.5310   28.9040   48.7970 H   0  0  0  0  0  0  0  0  0  0  0  0
   34.0420   30.5500   49.6840 H   0  0  0  0  0  0  0  0  0  0  0  0
   35.2320   30.0350   46.9640 H   0  0  0  0  0  0  0  0  0  0  0  0
   34.2130   31.4190   47.5330 H   0  0  0  0  0  0  0  0  0  0  0  0
   32.6310   27.9730   46.1850 H   0  0  0  0  0  0  0  0  0  0  0  0
   34.4100   28.3170   45.9120 H   0  0  0  0  0  0  0  0  0  0  0  0
   34.9520   27.4360   47.9670 H   0  0  0  0  0  0  0  0  0  0  0  0
   33.1400   26.5520   48.0070 O   0  0  0  0  0  0  0  0  0  0  0  0
   32.8870   26.4320   48.9560 H   0  0  0  0  0  0  0  0  0  0  0  0
  2  1  1  0  0  0  0
  2  3  1  0  0  0  0
  3  8  1  0  0  0  0
  4  3  2  0  0  0  0
  4  9  1  0  0  0  0
  5  4  1  0  0  0  0
  6  7  1  0  0  0  0
  6  5  2  0  0  0  0
  7  2  2  0  0  0  0
 10 11  2  0  0  0  0
 11 12  1  0  0  0  0
 12 16  1  0  0  0  0
 12  6  1  0  0  0  0
 13 11  1  0  0  0  0
 14 13  1  0  0  0  0
 15 10  1  0  0  0  0
 17 13  1  0  0  0  0
 19 18  1  0  0  0  0
 19  1  1  0  0  0  0
 19 25  1  1  0  0  0
 20 27  1  0  0  0  0
 20 19  1  0  0  0  0
 21 20  1  0  0  0  0
 22 21  1  0  0  0  0
 22 23  1  0  0  0  0
 23 30  1  1  0  0  0
 23 31  1  0  0  0  0
 23 18  1  0  0  0  0
 24 18  1  0  0  0  0
 26 20  1  0  0  0  0
 28 22  1  0  0  0  0
 29 22  1  0  0  0  0
 31 32  1  0  0  0  0
M  END
>  <minimizedAffinity>
-5.61453247

>  <minimizedRMSD>
0.183408335

$$$$
