
 OpenBabel03272502173D

 32 33  0  0  1  0  0  0  0  0999 V2000
   36.1950   29.2440   49.5460 S   0  0  0  0  0  0  0  0  0  0  0  0
   37.1030   30.6370   48.9320 C   0  0  0  0  0  0  0  0  0  0  0  0
   37.0950   31.7380   49.8030 C   0  0  0  0  0  0  0  0  0  0  0  0
   37.7690   32.8930   49.4380 C   0  0  0  0  0  0  0  0  0  0  0  0
   38.4160   32.8940   48.2310 N   0  0  0  0  0  0  0  0  0  0  0  0
   38.4090   31.8220   47.4110 C   0  0  0  0  0  0  0  0  0  0  0  0
   37.7610   30.7150   47.7620 N   0  0  0  0  0  0  0  0  0  0  0  0
   36.5870   31.7550   50.7650 H   0  0  0  0  0  0  0  0  0  0  0  0
   37.7880   33.7630   50.0800 H   0  0  0  0  0  0  0  0  0  0  0  0
   40.2780   33.8480   46.7210 N   0  0  0  0  0  0  0  0  0  0  0  0
   39.7930   33.0870   45.8070 C   0  0  0  0  0  0  0  0  0  0  0  0
   39.1040   31.8960   46.1700 N   0  0  0  0  0  0  0  0  0  0  0  0
   39.9330   33.4170   44.4310 N   0  0  0  0  0  0  0  0  0  0  0  0
   40.0110   33.7360   43.4490 H   0  0  0  0  0  0  0  0  0  0  0  0
   40.7830   34.7220   46.4690 H   0  0  0  0  0  0  0  0  0  0  0  0
   39.1160   31.0820   45.5160 H   0  0  0  0  0  0  0  0  0  0  0  0
   40.2410   32.6940   43.7400 H   0  0  0  0  0  0  0  0  0  0  0  0
   33.7790   28.1350   49.1050 N   0  0  0  0  0  0  0  0  0  0  0  0
   34.4060   29.4270   49.2280 C   0  0  2  0  0  0  0  0  0  0  0  0
   34.2280   30.1650   47.9140 C   0  0  0  0  0  0  0  0  0  0  0  0
   33.2090   29.5780   47.1320 O   0  0  0  0  0  0  0  0  0  0  0  0
   33.7400   28.3400   46.7270 C   0  0  0  0  0  0  0  0  0  0  0  0
   34.2430   27.5270   47.8800 C   0  0  2  0  0  0  0  0  0  0  0  0
   32.7570   28.2930   48.9910 H   0  0  0  0  0  0  0  0  0  0  0  0
   34.0200   30.0200   50.0870 H   0  0  0  0  0  0  0  0  0  0  0  0
   35.1430   30.1250   47.2930 H   0  0  0  0  0  0  0  0  0  0  0  0
   33.9400   31.2170   48.0940 H   0  0  0  0  0  0  0  0  0  0  0  0
   32.8800   27.7920   46.2650 H   0  0  0  0  0  0  0  0  0  0  0  0
   34.5630   28.4690   46.0070 H   0  0  0  0  0  0  0  0  0  0  0  0
   35.3420   27.3960   47.8870 H   0  0  0  0  0  0  0  0  0  0  0  0
   33.7030   26.2230   47.8310 O   0  0  0  0  0  0  0  0  0  0  0  0
   33.5210   25.9210   48.7560 H   0  0  0  0  0  0  0  0  0  0  0  0
  2  1  1  0  0  0  0
  2  3  1  0  0  0  0
  3  8  1  0  0  0  0
  4  3  2  0  0  0  0
  4  9  1  0  0  0  0
  5  4  1  0  0  0  0
  6  7  1  0  0  0  0
  6  5  2  0  0  0  0
  7  2  2  0  0  0  0
 11 12  1  0  0  0  0
 11 10  2  0  0  0  0
 12  6  1  0  0  0  0
 13 11  1  0  0  0  0
 14 13  1  0  0  0  0
 15 10  1  0  0  0  0
 16 12  1  0  0  0  0
 17 13  1  0  0  0  0
 18 19  1  0  0  0  0
 19  1  1  0  0  0  0
 19 25  1  1  0  0  0
 20 27  1  0  0  0  0
 20 19  1  0  0  0  0
 21 20  1  0  0  0  0
 22 21  1  0  0  0  0
 22 23  1  0  0  0  0
 23 30  1  6  0  0  0
 23 18  1  0  0  0  0
 24 18  1  0  0  0  0
 26 20  1  0  0  0  0
 28 22  1  0  0  0  0
 29 22  1  0  0  0  0
 31 23  1  0  0  0  0
 31 32  1  0  0  0  0
M  END
>  <minimizedAffinity>
-5.4208045

>  <minimizedRMSD>
0.583979428

$$$$
