
 OpenBabel03272502173D

 32 33  0  0  1  0  0  0  0  0999 V2000
   36.0330   29.4330   49.6580 S   0  0  0  0  0  0  0  0  0  0  0  0
   37.1740   30.6510   49.0640 C   0  0  0  0  0  0  0  0  0  0  0  0
   37.1440   31.8500   49.7960 C   0  0  0  0  0  0  0  0  0  0  0  0
   37.9910   32.8850   49.4310 C   0  0  0  0  0  0  0  0  0  0  0  0
   38.8210   32.6780   48.3620 N   0  0  0  0  0  0  0  0  0  0  0  0
   38.8310   31.5170   47.6750 C   0  0  0  0  0  0  0  0  0  0  0  0
   38.0180   30.5240   48.0250 N   0  0  0  0  0  0  0  0  0  0  0  0
   36.4920   32.0320   50.6470 H   0  0  0  0  0  0  0  0  0  0  0  0
   37.9990   33.8230   49.9690 H   0  0  0  0  0  0  0  0  0  0  0  0
   38.0290   30.9330   45.0130 N   0  0  0  0  0  0  0  0  0  0  0  0
   39.2600   30.8040   45.3530 C   0  0  0  0  0  0  0  0  0  0  0  0
   39.7220   31.3730   46.5730 N   0  0  0  0  0  0  0  0  0  0  0  0
   40.1760   30.0960   44.5240 N   0  0  0  0  0  0  0  0  0  0  0  0
   40.7840   29.5210   43.9160 H   0  0  0  0  0  0  0  0  0  0  0  0
   37.6780   30.5210   44.1240 H   0  0  0  0  0  0  0  0  0  0  0  0
   40.7160   31.6790   46.6460 H   0  0  0  0  0  0  0  0  0  0  0  0
   41.1170   30.5020   44.3080 H   0  0  0  0  0  0  0  0  0  0  0  0
   33.5190   28.6220   49.1260 N   0  0  0  0  0  0  0  0  0  0  0  0
   34.3240   29.8170   49.1390 C   0  0  2  0  0  0  0  0  0  0  0  0
   34.3680   30.3710   47.7270 C   0  0  0  0  0  0  0  0  0  0  0  0
   33.3370   29.8250   46.9310 O   0  0  0  0  0  0  0  0  0  0  0  0
   33.7020   28.4790   46.7510 C   0  0  0  0  0  0  0  0  0  0  0  0
   33.9810   27.7810   48.0460 C   0  0  2  0  0  0  0  0  0  0  0  0
   32.5450   28.9040   48.8890 H   0  0  0  0  0  0  0  0  0  0  0  0
   33.9660   30.5780   49.8670 H   0  0  0  0  0  0  0  0  0  0  0  0
   35.3130   30.1130   47.2120 H   0  0  0  0  0  0  0  0  0  0  0  0
   34.2310   31.4680   47.7340 H   0  0  0  0  0  0  0  0  0  0  0  0
   32.8090   27.9960   46.2810 H   0  0  0  0  0  0  0  0  0  0  0  0
   34.5910   28.3840   46.1060 H   0  0  0  0  0  0  0  0  0  0  0  0
   35.0420   27.5000   48.1820 H   0  0  0  0  0  0  0  0  0  0  0  0
   33.2520   26.5730   48.1180 O   0  0  0  0  0  0  0  0  0  0  0  0
   32.9520   26.4390   49.0510 H   0  0  0  0  0  0  0  0  0  0  0  0
  2  1  1  0  0  0  0
  2  3  1  0  0  0  0
  3  8  1  0  0  0  0
  4  3  2  0  0  0  0
  4  9  1  0  0  0  0
  5  4  1  0  0  0  0
  6  7  1  0  0  0  0
  6  5  2  0  0  0  0
  7  2  2  0  0  0  0
 10 11  2  0  0  0  0
 11 12  1  0  0  0  0
 12 16  1  0  0  0  0
 12  6  1  0  0  0  0
 13 11  1  0  0  0  0
 14 13  1  0  0  0  0
 15 10  1  0  0  0  0
 17 13  1  0  0  0  0
 18 19  1  0  0  0  0
 19  1  1  0  0  0  0
 19 25  1  1  0  0  0
 20 27  1  0  0  0  0
 20 19  1  0  0  0  0
 21 20  1  0  0  0  0
 22 21  1  0  0  0  0
 22 23  1  0  0  0  0
 23 31  1  0  0  0  0
 23 30  1  1  0  0  0
 23 18  1  0  0  0  0
 24 18  1  0  0  0  0
 26 20  1  0  0  0  0
 28 22  1  0  0  0  0
 29 22  1  0  0  0  0
 31 32  1  0  0  0  0
M  END
>  <minimizedAffinity>
-5.56287479

>  <minimizedRMSD>
0.320996314

$$$$
