
 OpenBabel03272502173D

 32 33  0  0  1  0  0  0  0  0999 V2000
   36.3160   29.3810   49.2270 S   0  0  0  0  0  0  0  0  0  0  0  0
   37.2280   30.8660   48.9030 C   0  0  0  0  0  0  0  0  0  0  0  0
   37.0360   31.8630   49.8730 C   0  0  0  0  0  0  0  0  0  0  0  0
   37.6940   33.0750   49.7340 C   0  0  0  0  0  0  0  0  0  0  0  0
   38.5080   33.2330   48.6430 N   0  0  0  0  0  0  0  0  0  0  0  0
   38.6760   32.2590   47.7250 C   0  0  0  0  0  0  0  0  0  0  0  0
   38.0430   31.0970   47.8590 N   0  0  0  0  0  0  0  0  0  0  0  0
   36.3940   31.7550   50.7440 H   0  0  0  0  0  0  0  0  0  0  0  0
   37.5740   33.8690   50.4580 H   0  0  0  0  0  0  0  0  0  0  0  0
   37.7950   32.7230   45.0650 N   0  0  0  0  0  0  0  0  0  0  0  0
   39.0260   32.4300   45.2900 C   0  0  0  0  0  0  0  0  0  0  0  0
   39.5370   32.4950   46.6160 N   0  0  0  0  0  0  0  0  0  0  0  0
   39.8910   32.0420   44.2290 N   0  0  0  0  0  0  0  0  0  0  0  0
   40.4580   31.7070   43.4310 H   0  0  0  0  0  0  0  0  0  0  0  0
   37.4090   32.6790   44.0990 H   0  0  0  0  0  0  0  0  0  0  0  0
   40.5480   32.7150   46.7620 H   0  0  0  0  0  0  0  0  0  0  0  0
   40.8460   32.4620   44.1420 H   0  0  0  0  0  0  0  0  0  0  0  0
   33.8240   28.3810   49.0020 N   0  0  0  0  0  0  0  0  0  0  0  0
   34.5230   29.6410   48.9930 C   0  0  2  0  0  0  0  0  0  0  0  0
   34.3080   30.2900   47.6390 C   0  0  0  0  0  0  0  0  0  0  0  0
   33.2160   29.7060   46.9590 O   0  0  0  0  0  0  0  0  0  0  0  0
   33.6580   28.4140   46.6220 C   0  0  0  0  0  0  0  0  0  0  0  0
   34.1840   27.6600   47.8030 C   0  0  2  0  0  0  0  0  0  0  0  0
   32.8070   28.5870   48.9320 H   0  0  0  0  0  0  0  0  0  0  0  0
   34.2190   30.3160   49.8250 H   0  0  0  0  0  0  0  0  0  0  0  0
   35.1820   30.1540   46.9740 H   0  0  0  0  0  0  0  0  0  0  0  0
   34.0860   31.3670   47.7540 H   0  0  0  0  0  0  0  0  0  0  0  0
   32.7450   27.8830   46.2490 H   0  0  0  0  0  0  0  0  0  0  0  0
   34.4430   28.4440   45.8500 H   0  0  0  0  0  0  0  0  0  0  0  0
   35.2730   27.4690   47.7610 H   0  0  0  0  0  0  0  0  0  0  0  0
   33.5750   26.3880   47.8830 O   0  0  0  0  0  0  0  0  0  0  0  0
   33.4310   26.1650   48.8360 H   0  0  0  0  0  0  0  0  0  0  0  0
  2  1  1  0  0  0  0
  2  3  1  0  0  0  0
  3  8  1  0  0  0  0
  4  3  2  0  0  0  0
  4  9  1  0  0  0  0
  5  4  1  0  0  0  0
  6  7  1  0  0  0  0
  6  5  2  0  0  0  0
  7  2  2  0  0  0  0
 10 11  2  0  0  0  0
 11 12  1  0  0  0  0
 12 16  1  0  0  0  0
 12  6  1  0  0  0  0
 13 11  1  0  0  0  0
 14 13  1  0  0  0  0
 15 10  1  0  0  0  0
 17 13  1  0  0  0  0
 19 18  1  0  0  0  0
 19  1  1  0  0  0  0
 19 25  1  1  0  0  0
 20 27  1  0  0  0  0
 20 19  1  0  0  0  0
 21 20  1  0  0  0  0
 22 21  1  0  0  0  0
 22 23  1  0  0  0  0
 23 30  1  6  0  0  0
 23 31  1  0  0  0  0
 23 18  1  0  0  0  0
 24 18  1  0  0  0  0
 26 20  1  0  0  0  0
 28 22  1  0  0  0  0
 29 22  1  0  0  0  0
 31 32  1  0  0  0  0
M  END
>  <minimizedAffinity>
-5.57429075

>  <minimizedRMSD>
0.552158773

$$$$
