
 OpenBabel03272502173D

 32 33  0  0  1  0  0  0  0  0999 V2000
   36.0140   29.4380   49.6890 S   0  0  0  0  0  0  0  0  0  0  0  0
   37.1380   30.6650   49.0810 C   0  0  0  0  0  0  0  0  0  0  0  0
   37.0740   31.8800   49.7830 C   0  0  0  0  0  0  0  0  0  0  0  0
   37.9040   32.9230   49.4050 C   0  0  0  0  0  0  0  0  0  0  0  0
   38.7540   32.7080   48.3520 N   0  0  0  0  0  0  0  0  0  0  0  0
   38.7970   31.5310   47.6930 C   0  0  0  0  0  0  0  0  0  0  0  0
   37.9990   30.5300   48.0570 N   0  0  0  0  0  0  0  0  0  0  0  0
   36.4060   32.0690   50.6210 H   0  0  0  0  0  0  0  0  0  0  0  0
   37.8860   33.8740   49.9190 H   0  0  0  0  0  0  0  0  0  0  0  0
   40.0750   33.6770   46.3420 N   0  0  0  0  0  0  0  0  0  0  0  0
   40.0680   32.5040   45.8180 C   0  0  0  0  0  0  0  0  0  0  0  0
   39.7050   31.3790   46.6080 N   0  0  0  0  0  0  0  0  0  0  0  0
   40.4190   32.3120   44.4520 N   0  0  0  0  0  0  0  0  0  0  0  0
   40.6230   32.2380   43.4400 H   0  0  0  0  0  0  0  0  0  0  0  0
   40.3390   34.5100   45.7750 H   0  0  0  0  0  0  0  0  0  0  0  0
   40.1130   30.4450   46.3800 H   0  0  0  0  0  0  0  0  0  0  0  0
   41.0820   31.5510   44.1770 H   0  0  0  0  0  0  0  0  0  0  0  0
   33.5250   28.5740   49.1230 N   0  0  0  0  0  0  0  0  0  0  0  0
   34.3010   29.7870   49.1570 C   0  0  2  0  0  0  0  0  0  0  0  0
   34.3450   30.3580   47.7520 C   0  0  0  0  0  0  0  0  0  0  0  0
   33.3360   29.7960   46.9400 O   0  0  0  0  0  0  0  0  0  0  0  0
   33.7350   28.4610   46.7490 C   0  0  0  0  0  0  0  0  0  0  0  0
   34.0170   27.7560   48.0390 C   0  0  2  0  0  0  0  0  0  0  0  0
   32.5470   28.8350   48.8800 H   0  0  0  0  0  0  0  0  0  0  0  0
   33.9180   30.5320   49.8910 H   0  0  0  0  0  0  0  0  0  0  0  0
   35.3010   30.1270   47.2440 H   0  0  0  0  0  0  0  0  0  0  0  0
   34.1830   31.4510   47.7700 H   0  0  0  0  0  0  0  0  0  0  0  0
   32.8570   27.9620   46.2650 H   0  0  0  0  0  0  0  0  0  0  0  0
   34.6310   28.3950   46.1120 H   0  0  0  0  0  0  0  0  0  0  0  0
   35.0830   27.4990   48.1820 H   0  0  0  0  0  0  0  0  0  0  0  0
   33.3170   26.5300   48.0910 O   0  0  0  0  0  0  0  0  0  0  0  0
   33.0110   26.3790   49.0190 H   0  0  0  0  0  0  0  0  0  0  0  0
  2  1  1  0  0  0  0
  2  3  1  0  0  0  0
  3  8  1  0  0  0  0
  4  3  2  0  0  0  0
  4  9  1  0  0  0  0
  5  4  1  0  0  0  0
  6  7  1  0  0  0  0
  6  5  2  0  0  0  0
  7  2  2  0  0  0  0
 11 10  2  0  0  0  0
 11 12  1  0  0  0  0
 12  6  1  0  0  0  0
 13 11  1  0  0  0  0
 14 13  1  0  0  0  0
 15 10  1  0  0  0  0
 16 12  1  0  0  0  0
 17 13  1  0  0  0  0
 18 19  1  0  0  0  0
 19  1  1  0  0  0  0
 19 25  1  1  0  0  0
 20 27  1  0  0  0  0
 20 19  1  0  0  0  0
 21 20  1  0  0  0  0
 22 21  1  0  0  0  0
 22 23  1  0  0  0  0
 23 31  1  0  0  0  0
 23 30  1  1  0  0  0
 23 18  1  0  0  0  0
 24 18  1  0  0  0  0
 26 20  1  0  0  0  0
 28 22  1  0  0  0  0
 29 22  1  0  0  0  0
 31 32  1  0  0  0  0
M  END
>  <minimizedAffinity>
-5.90284824

>  <minimizedRMSD>
0.319022715

$$$$
