
 OpenBabel03272505373D

 30 31  0  0  0  0  0  0  0  0999 V2000
   36.4310   30.4780   46.5640 C   0  0  0  0  0  0  0  0  0  0  0  0
   35.1030   30.0670   46.5000 C   0  0  0  0  0  0  0  0  0  0  0  0
   34.4800   29.7820   45.3220 C   0  0  0  0  0  0  0  0  0  0  0  0
   35.1590   29.8930   44.1090 C   0  0  0  0  0  0  0  0  0  0  0  0
   36.4660   30.2960   44.1580 C   0  0  0  0  0  0  0  0  0  0  0  0
   37.0980   30.5860   45.3560 C   0  0  0  0  0  0  0  0  0  0  0  0
   34.5910   29.9880   47.4730 H   0  0  0  0  0  0  0  0  0  0  0  0
   33.4510   29.4750   45.4270 H   0  0  0  0  0  0  0  0  0  0  0  0
   34.5790   29.6460   43.2340 H   0  0  0  0  0  0  0  0  0  0  0  0
   36.8610   30.3480   43.1650 H   0  0  0  0  0  0  0  0  0  0  0  0
   37.4350   30.2770   50.0740 C   0  0  0  0  0  0  0  0  0  0  0  0
   38.2450   31.4040   50.2270 C   0  0  0  0  0  0  0  0  0  0  0  0
   38.4330   32.2240   49.1150 C   0  0  0  0  0  0  0  0  0  0  0  0
   37.8170   31.8680   47.9660 N   0  0  0  0  0  0  0  0  0  0  0  0
   37.0450   30.7820   47.8430 C   0  0  0  0  0  0  0  0  0  0  0  0
   36.8610   29.9920   48.9050 N   0  0  0  0  0  0  0  0  0  0  0  0
   38.6930   31.6010   51.1900 H   0  0  0  0  0  0  0  0  0  0  0  0
   39.0570   33.0930   49.2290 H   0  0  0  0  0  0  0  0  0  0  0  0
   37.2290   29.4030   51.2830 C   0  0  0  0  0  0  0  0  0  0  0  0
   35.8550   29.1650   51.4490 F   0  0  0  0  0  0  0  0  0  0  0  0
   37.9230   28.2610   51.1060 F   0  0  0  0  0  0  0  0  0  0  0  0
   37.6350   30.1120   52.3940 F   0  0  0  0  0  0  0  0  0  0  0  0
   38.2950   32.9660   44.1200 N   0  0  0  0  0  0  0  0  0  0  0  0
   38.9130   32.3080   45.0550 C   0  0  0  0  0  0  0  0  0  0  0  0
   38.4560   30.9800   45.2890 N   0  0  0  0  0  0  0  0  0  0  0  0
   39.9990   32.9280   45.7830 N   0  0  0  0  0  0  0  0  0  0  0  0
   39.6600   33.8520   46.1470 H   0  0  0  0  0  0  0  0  0  0  0  0
   38.5900   33.9220   43.9200 H   0  0  0  0  0  0  0  0  0  0  0  0
   39.3130   30.3980   45.3950 H   0  0  0  0  0  0  0  0  0  0  0  0
   40.9530   32.6130   45.9690 H   0  0  0  0  0  0  0  0  0  0  0  0
  1 15  1  0  0  0  0
  2  1  1  0  0  0  0
  2  7  1  0  0  0  0
  3  8  1  0  0  0  0
  3  2  2  0  0  0  0
  4  5  2  0  0  0  0
  4  3  1  0  0  0  0
  5  6  1  0  0  0  0
  6  1  2  0  0  0  0
  9  4  1  0  0  0  0
 10  5  1  0  0  0  0
 11 12  1  0  0  0  0
 11 19  1  0  0  0  0
 12 17  1  0  0  0  0
 13 18  1  0  0  0  0
 13 12  2  0  0  0  0
 14 13  1  0  0  0  0
 15 14  2  0  0  0  0
 15 16  1  0  0  0  0
 16 11  2  0  0  0  0
 19 20  1  0  0  0  0
 19 22  1  0  0  0  0
 21 19  1  0  0  0  0
 23 24  2  0  0  0  0
 24 25  1  0  0  0  0
 24 26  1  0  0  0  0
 25  6  1  0  0  0  0
 25 29  1  0  0  0  0
 26 30  1  0  0  0  0
 26 27  1  0  0  0  0
 28 23  1  0  0  0  0
M  END
>  <minimizedAffinity>
-6.1783824

>  <minimizedRMSD>
0.408726722

$$$$
