
 OpenBabel03272502133D

 38 40  0  0  1  0  0  0  0  0999 V2000
   38.2360   25.3240   34.4320 C   0  0  2  0  0  0  0  0  0  0  0  0
   39.0390   26.5400   34.2480 C   0  0  0  0  0  0  0  0  0  0  0  0
   38.7680   27.2940   35.5330 C   0  0  0  0  0  0  0  0  0  0  0  0
   38.2380   26.3440   36.5200 C   0  0  0  0  0  0  0  0  0  0  0  0
   38.3100   24.9710   35.8550 C   0  0  2  0  0  0  0  0  0  0  0  0
   37.1810   25.5900   34.1100 H   0  0  0  0  0  0  0  0  0  0  0  0
   40.0860   26.4430   33.9730 H   0  0  0  0  0  0  0  0  0  0  0  0
   38.5950   27.1170   33.3680 H   0  0  0  0  0  0  0  0  0  0  0  0
   39.6260   27.9070   35.8570 H   0  0  0  0  0  0  0  0  0  0  0  0
   37.9650   28.0270   35.3050 H   0  0  0  0  0  0  0  0  0  0  0  0
   37.2460   26.6040   36.9000 H   0  0  0  0  0  0  0  0  0  0  0  0
   38.8900   26.2380   37.4330 H   0  0  0  0  0  0  0  0  0  0  0  0
   37.2650   24.5630   36.0830 H   0  0  0  0  0  0  0  0  0  0  0  0
   37.9360   22.1300   32.6480 C   0  0  0  0  0  0  0  0  0  0  0  0
   39.2140   22.0450   32.1250 C   0  0  0  0  0  0  0  0  0  0  0  0
   40.2010   23.0110   32.3420 C   0  0  0  0  0  0  0  0  0  0  0  0
   39.8680   24.0890   33.1140 N   0  0  0  0  0  0  0  0  0  0  0  0
   38.6190   24.1540   33.6130 C   0  0  0  0  0  0  0  0  0  0  0  0
   37.6970   23.2300   33.3990 N   0  0  0  0  0  0  0  0  0  0  0  0
   39.4960   21.1970   31.5120 H   0  0  0  0  0  0  0  0  0  0  0  0
   41.1950   22.9270   31.9240 H   0  0  0  0  0  0  0  0  0  0  0  0
   37.1890   19.8050   32.1020 C   0  0  0  0  0  0  0  0  0  0  0  0
   36.9350   21.1370   32.4090 C   0  0  0  0  0  0  0  0  0  0  0  0
   35.6040   21.5050   32.4850 C   0  0  0  0  0  0  0  0  0  0  0  0
   34.6390   20.5820   32.2620 N   0  0  0  0  0  0  0  0  0  0  0  0
   34.9360   19.2870   31.9630 C   0  0  0  0  0  0  0  0  0  0  0  0
   36.2360   18.9030   31.8840 N   0  0  0  0  0  0  0  0  0  0  0  0
   38.2160   19.5010   32.0380 H   0  0  0  0  0  0  0  0  0  0  0  0
   35.3160   22.5190   32.7180 H   0  0  0  0  0  0  0  0  0  0  0  0
   34.1810   18.5440   31.7840 H   0  0  0  0  0  0  0  0  0  0  0  0
   37.9680   23.0240   37.9960 N   0  0  0  0  0  0  0  0  0  0  0  0
   39.0920   23.1100   37.4250 C   0  0  0  0  0  0  0  0  0  0  0  0
   39.2180   24.0940   36.4070 N   0  0  0  0  0  0  0  0  0  0  0  0
   40.0750   22.1920   37.8830 N   0  0  0  0  0  0  0  0  0  0  0  0
   40.9750   22.0330   38.3890 H   0  0  0  0  0  0  0  0  0  0  0  0
   37.6890   22.3850   38.7430 H   0  0  0  0  0  0  0  0  0  0  0  0
   40.2440   24.0630   36.0800 H   0  0  0  0  0  0  0  0  0  0  0  0
   39.7900   21.2160   37.5910 H   0  0  0  0  0  0  0  0  0  0  0  0
  1  6  1  6  0  0  0
  1  5  1  0  0  0  0
  2  1  1  0  0  0  0
  2  3  1  0  0  0  0
  3  9  1  0  0  0  0
  3  4  1  0  0  0  0
  4 11  1  0  0  0  0
  4 12  1  0  0  0  0
  5 13  1  1  0  0  0
  5 33  1  0  0  0  0
  5  4  1  0  0  0  0
  7  2  1  0  0  0  0
  8  2  1  0  0  0  0
 10  3  1  0  0  0  0
 14 19  1  0  0  0  0
 15 16  1  0  0  0  0
 15 14  2  0  0  0  0
 16 17  2  0  0  0  0
 17 18  1  0  0  0  0
 18  1  1  0  0  0  0
 19 18  2  0  0  0  0
 20 15  1  0  0  0  0
 21 16  1  0  0  0  0
 22 23  1  0  0  0  0
 23 24  2  0  0  0  0
 23 14  1  0  0  0  0
 24 29  1  0  0  0  0
 25 24  1  0  0  0  0
 26 25  2  0  0  0  0
 27 26  1  0  0  0  0
 27 22  2  0  0  0  0
 28 22  1  0  0  0  0
 30 26  1  0  0  0  0
 31 36  1  0  0  0  0
 32 34  1  0  0  0  0
 32 31  2  0  0  0  0
 33 32  1  0  0  0  0
 34 35  1  0  0  0  0
 37 33  1  0  0  0  0
 38 34  1  0  0  0  0
M  END
>  <minimizedAffinity>
-5.42443895

$$$$

 OpenBabel03272502133D

 38 40  0  0  1  0  0  0  0  0999 V2000
   37.9090   23.2260   36.6380 C   0  0  2  0  0  0  0  0  0  0  0  0
   37.6180   24.6060   37.0500 C   0  0  0  0  0  0  0  0  0  0  0  0
   38.0160   24.5890   38.5110 C   0  0  0  0  0  0  0  0  0  0  0  0
   38.8860   23.4280   38.7370 C   0  0  0  0  0  0  0  0  0  0  0  0
   39.1170   22.8080   37.3610 C   0  0  2  0  0  0  0  0  0  0  0  0
   37.0010   22.6110   36.9280 H   0  0  0  0  0  0  0  0  0  0  0  0
   38.0210   25.4270   36.4630 H   0  0  0  0  0  0  0  0  0  0  0  0
   36.4890   24.7600   36.9660 H   0  0  0  0  0  0  0  0  0  0  0  0
   38.3990   25.5630   38.8600 H   0  0  0  0  0  0  0  0  0  0  0  0
   37.0820   24.4280   39.0910 H   0  0  0  0  0  0  0  0  0  0  0  0
   38.5080   22.7260   39.4850 H   0  0  0  0  0  0  0  0  0  0  0  0
   39.9210   23.7070   39.0860 H   0  0  0  0  0  0  0  0  0  0  0  0
   38.9240   21.7030   37.5840 H   0  0  0  0  0  0  0  0  0  0  0  0
   37.6380   21.6280   33.3460 C   0  0  0  0  0  0  0  0  0  0  0  0
   38.3560   22.5410   32.5940 C   0  0  0  0  0  0  0  0  0  0  0  0
   38.9490   23.6860   33.1330 C   0  0  0  0  0  0  0  0  0  0  0  0
   38.8000   23.8990   34.4750 N   0  0  0  0  0  0  0  0  0  0  0  0
   38.0980   22.9990   35.1900 C   0  0  0  0  0  0  0  0  0  0  0  0
   37.5440   21.9190   34.6640 N   0  0  0  0  0  0  0  0  0  0  0  0
   38.4850   22.3870   31.5290 H   0  0  0  0  0  0  0  0  0  0  0  0
   39.5060   24.3890   32.5290 H   0  0  0  0  0  0  0  0  0  0  0  0
   35.7610   19.9940   33.0850 C   0  0  0  0  0  0  0  0  0  0  0  0
   37.0310   20.4640   32.7760 C   0  0  0  0  0  0  0  0  0  0  0  0
   37.7440   19.7350   31.8420 C   0  0  0  0  0  0  0  0  0  0  0  0
   37.1900   18.6310   31.2880 N   0  0  0  0  0  0  0  0  0  0  0  0
   35.9400   18.2060   31.6230 C   0  0  0  0  0  0  0  0  0  0  0  0
   35.2220   18.9070   32.5380 N   0  0  0  0  0  0  0  0  0  0  0  0
   35.1930   20.5470   33.8090 H   0  0  0  0  0  0  0  0  0  0  0  0
   38.7390   20.0290   31.5430 H   0  0  0  0  0  0  0  0  0  0  0  0
   35.4880   17.3330   31.1930 H   0  0  0  0  0  0  0  0  0  0  0  0
   41.4280   21.0960   37.8260 N   0  0  0  0  0  0  0  0  0  0  0  0
   41.5500   22.0840   37.0490 C   0  0  0  0  0  0  0  0  0  0  0  0
   40.4040   22.9060   36.8760 N   0  0  0  0  0  0  0  0  0  0  0  0
   42.8290   22.2260   36.4450 N   0  0  0  0  0  0  0  0  0  0  0  0
   43.7160   22.7700   36.3620 H   0  0  0  0  0  0  0  0  0  0  0  0
   42.1340   20.4000   38.0740 H   0  0  0  0  0  0  0  0  0  0  0  0
   40.7050   23.7190   36.2360 H   0  0  0  0  0  0  0  0  0  0  0  0
   42.9710   21.4310   35.7620 H   0  0  0  0  0  0  0  0  0  0  0  0
  1  6  1  1  0  0  0
  1  2  1  0  0  0  0
  1  5  1  0  0  0  0
  2  3  1  0  0  0  0
  3  4  1  0  0  0  0
  3  9  1  0  0  0  0
  3 10  1  0  0  0  0
  4 12  1  0  0  0  0
  4 11  1  0  0  0  0
  5 13  1  1  0  0  0
  5  4  1  0  0  0  0
  7  2  1  0  0  0  0
  8  2  1  0  0  0  0
 14 19  1  0  0  0  0
 15 16  1  0  0  0  0
 15 14  2  0  0  0  0
 16 17  2  0  0  0  0
 17 18  1  0  0  0  0
 18  1  1  0  0  0  0
 19 18  2  0  0  0  0
 20 15  1  0  0  0  0
 21 16  1  0  0  0  0
 22 28  1  0  0  0  0
 23 22  1  0  0  0  0
 23 14  1  0  0  0  0
 24 23  2  0  0  0  0
 25 26  2  0  0  0  0
 25 24  1  0  0  0  0
 26 27  1  0  0  0  0
 27 22  2  0  0  0  0
 29 24  1  0  0  0  0
 30 26  1  0  0  0  0
 31 36  1  0  0  0  0
 32 31  2  0  0  0  0
 33 32  1  0  0  0  0
 33  5  1  0  0  0  0
 34 32  1  0  0  0  0
 35 34  1  0  0  0  0
 37 33  1  0  0  0  0
 38 34  1  0  0  0  0
M  END
>  <minimizedAffinity>
-5.32928371

$$$$

 OpenBabel03272502133D

 38 40  0  0  1  0  0  0  0  0999 V2000
   36.4220   26.4960   32.3930 C   0  0  2  0  0  0  0  0  0  0  0  0
   36.2990   27.6390   31.4790 C   0  0  0  0  0  0  0  0  0  0  0  0
   36.0850   28.7890   32.4400 C   0  0  0  0  0  0  0  0  0  0  0  0
   36.5270   28.3620   33.7740 C   0  0  0  0  0  0  0  0  0  0  0  0
   37.1340   26.9730   33.5860 C   0  0  2  0  0  0  0  0  0  0  0  0
   35.3630   26.1640   32.6300 H   0  0  0  0  0  0  0  0  0  0  0  0
   37.0660   27.7940   30.7240 H   0  0  0  0  0  0  0  0  0  0  0  0
   35.3540   27.4820   30.8570 H   0  0  0  0  0  0  0  0  0  0  0  0
   36.5040   29.7400   32.0680 H   0  0  0  0  0  0  0  0  0  0  0  0
   34.9890   28.9610   32.4870 H   0  0  0  0  0  0  0  0  0  0  0  0
   35.7460   28.4080   34.5380 H   0  0  0  0  0  0  0  0  0  0  0  0
   37.3790   28.9780   34.1800 H   0  0  0  0  0  0  0  0  0  0  0  0
   36.6360   26.4000   34.4410 H   0  0  0  0  0  0  0  0  0  0  0  0
   37.0890   22.9630   31.6550 C   0  0  0  0  0  0  0  0  0  0  0  0
   38.2430   23.1050   30.9050 C   0  0  0  0  0  0  0  0  0  0  0  0
   38.8340   24.3410   30.6270 C   0  0  0  0  0  0  0  0  0  0  0  0
   38.2260   25.4570   31.1320 N   0  0  0  0  0  0  0  0  0  0  0  0
   37.1040   25.2980   31.8590 C   0  0  0  0  0  0  0  0  0  0  0  0
   36.5580   24.1200   32.1130 N   0  0  0  0  0  0  0  0  0  0  0  0
   38.7390   22.2310   30.4980 H   0  0  0  0  0  0  0  0  0  0  0  0
   39.7360   24.4330   30.0380 H   0  0  0  0  0  0  0  0  0  0  0  0
   36.1970   20.7300   30.9630 C   0  0  0  0  0  0  0  0  0  0  0  0
   36.4930   21.6910   31.9230 C   0  0  0  0  0  0  0  0  0  0  0  0
   36.1790   21.3680   33.2300 C   0  0  0  0  0  0  0  0  0  0  0  0
   35.6140   20.1690   33.5080 N   0  0  0  0  0  0  0  0  0  0  0  0
   35.3410   19.2580   32.5330 C   0  0  0  0  0  0  0  0  0  0  0  0
   35.6420   19.5530   31.2420 N   0  0  0  0  0  0  0  0  0  0  0  0
   36.4340   20.9630   29.9430 H   0  0  0  0  0  0  0  0  0  0  0  0
   36.3740   22.0550   34.0390 H   0  0  0  0  0  0  0  0  0  0  0  0
   34.8940   18.3030   32.7380 H   0  0  0  0  0  0  0  0  0  0  0  0
   38.7170   27.4940   35.9750 N   0  0  0  0  0  0  0  0  0  0  0  0
   39.3070   27.1050   34.9280 C   0  0  0  0  0  0  0  0  0  0  0  0
   38.4960   26.8920   33.7800 N   0  0  0  0  0  0  0  0  0  0  0  0
   40.7110   26.9240   35.0540 N   0  0  0  0  0  0  0  0  0  0  0  0
   41.6730   27.2400   34.8010 H   0  0  0  0  0  0  0  0  0  0  0  0
   39.1280   27.6980   36.8890 H   0  0  0  0  0  0  0  0  0  0  0  0
   39.1660   26.6240   32.9800 H   0  0  0  0  0  0  0  0  0  0  0  0
   40.8900   26.0980   35.6890 H   0  0  0  0  0  0  0  0  0  0  0  0
  1  6  1  1  0  0  0
  1  5  1  0  0  0  0
  2  1  1  0  0  0  0
  2  3  1  0  0  0  0
  3 10  1  0  0  0  0
  3  4  1  0  0  0  0
  4 12  1  0  0  0  0
  4 11  1  0  0  0  0
  5  4  1  0  0  0  0
  5 33  1  0  0  0  0
  5 13  1  1  0  0  0
  7  2  1  0  0  0  0
  8  2  1  0  0  0  0
  9  3  1  0  0  0  0
 14 23  1  0  0  0  0
 14 19  1  0  0  0  0
 15 14  2  0  0  0  0
 16 15  1  0  0  0  0
 16 17  2  0  0  0  0
 17 18  1  0  0  0  0
 18 19  2  0  0  0  0
 18  1  1  0  0  0  0
 20 15  1  0  0  0  0
 21 16  1  0  0  0  0
 22 27  2  0  0  0  0
 22 23  1  0  0  0  0
 23 24  2  0  0  0  0
 24 25  1  0  0  0  0
 24 29  1  0  0  0  0
 26 30  1  0  0  0  0
 26 25  2  0  0  0  0
 27 26  1  0  0  0  0
 28 22  1  0  0  0  0
 31 36  1  0  0  0  0
 32 34  1  0  0  0  0
 32 31  2  0  0  0  0
 33 32  1  0  0  0  0
 34 38  1  0  0  0  0
 35 34  1  0  0  0  0
 37 33  1  0  0  0  0
M  END
>  <minimizedAffinity>
-5.25475025

$$$$

 OpenBabel03272502133D

 38 40  0  0  1  0  0  0  0  0999 V2000
   40.7910   22.0040   36.4060 C   0  0  2  0  0  0  0  0  0  0  0  0
   41.5090   21.3970   37.5350 C   0  0  0  0  0  0  0  0  0  0  0  0
   42.7850   20.9170   36.8750 C   0  0  0  0  0  0  0  0  0  0  0  0
   42.9370   21.6270   35.5980 C   0  0  0  0  0  0  0  0  0  0  0  0
   41.7970   22.6430   35.5490 C   0  0  2  0  0  0  0  0  0  0  0  0
   40.2550   21.1540   35.8790 H   0  0  0  0  0  0  0  0  0  0  0  0
   41.6410   21.9740   38.4460 H   0  0  0  0  0  0  0  0  0  0  0  0
   40.9010   20.4960   37.8860 H   0  0  0  0  0  0  0  0  0  0  0  0
   43.6530   20.9440   37.5550 H   0  0  0  0  0  0  0  0  0  0  0  0
   42.6360   19.8400   36.6460 H   0  0  0  0  0  0  0  0  0  0  0  0
   42.9860   20.9690   34.7250 H   0  0  0  0  0  0  0  0  0  0  0  0
   43.8670   22.2600   35.5470 H   0  0  0  0  0  0  0  0  0  0  0  0
   41.3960   22.4700   34.4920 H   0  0  0  0  0  0  0  0  0  0  0  0
   38.3090   24.6730   35.9750 C   0  0  0  0  0  0  0  0  0  0  0  0
   37.8290   24.7440   37.2700 C   0  0  0  0  0  0  0  0  0  0  0  0
   38.3000   23.9380   38.3110 C   0  0  0  0  0  0  0  0  0  0  0  0
   39.2860   23.0400   38.0150 N   0  0  0  0  0  0  0  0  0  0  0  0
   39.7400   22.9860   36.7480 C   0  0  0  0  0  0  0  0  0  0  0  0
   39.2840   23.7560   35.7750 N   0  0  0  0  0  0  0  0  0  0  0  0
   37.0480   25.4510   37.5230 H   0  0  0  0  0  0  0  0  0  0  0  0
   37.9110   24.0080   39.3180 H   0  0  0  0  0  0  0  0  0  0  0  0
   37.7610   25.1390   33.5780 C   0  0  0  0  0  0  0  0  0  0  0  0
   37.8100   25.4990   34.9190 C   0  0  0  0  0  0  0  0  0  0  0  0
   37.3320   26.7590   35.2330 C   0  0  0  0  0  0  0  0  0  0  0  0
   36.8540   27.5590   34.2510 N   0  0  0  0  0  0  0  0  0  0  0  0
   36.8270   27.1630   32.9480 C   0  0  0  0  0  0  0  0  0  0  0  0
   37.2910   25.9300   32.6170 N   0  0  0  0  0  0  0  0  0  0  0  0
   38.1290   24.1650   33.3150 H   0  0  0  0  0  0  0  0  0  0  0  0
   37.3320   27.1200   36.2500 H   0  0  0  0  0  0  0  0  0  0  0  0
   36.4510   27.7860   32.1580 H   0  0  0  0  0  0  0  0  0  0  0  0
   41.5150   24.7910   33.6020 N   0  0  0  0  0  0  0  0  0  0  0  0
   42.0370   25.0510   34.7220 C   0  0  0  0  0  0  0  0  0  0  0  0
   42.1800   23.9650   35.6270 N   0  0  0  0  0  0  0  0  0  0  0  0
   42.4010   26.4100   34.9210 N   0  0  0  0  0  0  0  0  0  0  0  0
   43.1600   27.1190   35.0360 H   0  0  0  0  0  0  0  0  0  0  0  0
   41.3320   25.4340   32.8290 H   0  0  0  0  0  0  0  0  0  0  0  0
   42.6890   24.3550   36.4930 H   0  0  0  0  0  0  0  0  0  0  0  0
   41.5200   26.9910   34.9850 H   0  0  0  0  0  0  0  0  0  0  0  0
  1  6  1  6  0  0  0
  1 18  1  0  0  0  0
  1  2  1  0  0  0  0
  2  8  1  0  0  0  0
  2  7  1  0  0  0  0
  3  2  1  0  0  0  0
  3  9  1  0  0  0  0
  4  3  1  0  0  0  0
  5 13  1  6  0  0  0
  5  4  1  0  0  0  0
  5 33  1  0  0  0  0
  5  1  1  0  0  0  0
 10  3  1  0  0  0  0
 11  4  1  0  0  0  0
 12  4  1  0  0  0  0
 14 15  1  0  0  0  0
 15 20  1  0  0  0  0
 15 16  2  0  0  0  0
 16 21  1  0  0  0  0
 17 16  1  0  0  0  0
 18 17  2  0  0  0  0
 19 14  2  0  0  0  0
 19 18  1  0  0  0  0
 22 23  1  0  0  0  0
 23 24  2  0  0  0  0
 23 14  1  0  0  0  0
 24 29  1  0  0  0  0
 25 24  1  0  0  0  0
 26 25  2  0  0  0  0
 27 26  1  0  0  0  0
 27 22  2  0  0  0  0
 28 22  1  0  0  0  0
 30 26  1  0  0  0  0
 31 32  2  0  0  0  0
 32 34  1  0  0  0  0
 32 33  1  0  0  0  0
 33 37  1  0  0  0  0
 34 38  1  0  0  0  0
 34 35  1  0  0  0  0
 36 31  1  0  0  0  0
M  END
>  <minimizedAffinity>
-5.2505393

$$$$

 OpenBabel03272502133D

 38 40  0  0  1  0  0  0  0  0999 V2000
   38.1880   26.4560   33.3540 C   0  0  2  0  0  0  0  0  0  0  0  0
   39.5210   26.6650   32.7740 C   0  0  0  0  0  0  0  0  0  0  0  0
   40.3460   27.0120   33.9950 C   0  0  0  0  0  0  0  0  0  0  0  0
   39.6130   26.5650   35.1870 C   0  0  0  0  0  0  0  0  0  0  0  0
   38.3840   25.8240   34.6650 C   0  0  2  0  0  0  0  0  0  0  0  0
   37.7160   27.4840   33.4410 H   0  0  0  0  0  0  0  0  0  0  0  0
   39.9400   25.8980   32.1270 H   0  0  0  0  0  0  0  0  0  0  0  0
   39.4590   27.5750   32.0860 H   0  0  0  0  0  0  0  0  0  0  0  0
   41.3940   26.6770   33.9120 H   0  0  0  0  0  0  0  0  0  0  0  0
   40.4050   28.1210   34.0310 H   0  0  0  0  0  0  0  0  0  0  0  0
   39.3840   27.3660   35.8950 H   0  0  0  0  0  0  0  0  0  0  0  0
   40.1660   25.7860   35.7850 H   0  0  0  0  0  0  0  0  0  0  0  0
   37.5600   26.2860   35.3100 H   0  0  0  0  0  0  0  0  0  0  0  0
   36.6480   23.5160   31.7880 C   0  0  0  0  0  0  0  0  0  0  0  0
   35.5710   24.1290   31.1730 C   0  0  0  0  0  0  0  0  0  0  0  0
   35.3220   25.5020   31.2440 C   0  0  0  0  0  0  0  0  0  0  0  0
   36.2000   26.2640   31.9630 N   0  0  0  0  0  0  0  0  0  0  0  0
   37.2420   25.6500   32.5540 C   0  0  0  0  0  0  0  0  0  0  0  0
   37.4630   24.3480   32.4770 N   0  0  0  0  0  0  0  0  0  0  0  0
   34.8660   23.5400   30.5980 H   0  0  0  0  0  0  0  0  0  0  0  0
   34.4740   25.9630   30.7560 H   0  0  0  0  0  0  0  0  0  0  0  0
   37.9850   21.4510   32.2480 C   0  0  0  0  0  0  0  0  0  0  0  0
   36.8830   22.1070   31.7120 C   0  0  0  0  0  0  0  0  0  0  0  0
   35.9550   21.3150   31.0600 C   0  0  0  0  0  0  0  0  0  0  0  0
   36.1560   19.9790   30.9750 N   0  0  0  0  0  0  0  0  0  0  0  0
   37.2520   19.3790   31.5170 C   0  0  0  0  0  0  0  0  0  0  0  0
   38.1760   20.1370   32.1620 N   0  0  0  0  0  0  0  0  0  0  0  0
   38.7150   22.0500   32.7580 H   0  0  0  0  0  0  0  0  0  0  0  0
   35.0700   21.7410   30.6140 H   0  0  0  0  0  0  0  0  0  0  0  0
   37.4250   18.3210   31.4580 H   0  0  0  0  0  0  0  0  0  0  0  0
   37.6890   24.3470   37.0790 N   0  0  0  0  0  0  0  0  0  0  0  0
   38.0110   23.7010   36.0420 C   0  0  0  0  0  0  0  0  0  0  0  0
   38.3690   24.4650   34.8980 N   0  0  0  0  0  0  0  0  0  0  0  0
   37.9570   22.2870   36.1680 N   0  0  0  0  0  0  0  0  0  0  0  0
   38.4700   21.3780   36.2090 H   0  0  0  0  0  0  0  0  0  0  0  0
   37.4050   23.9770   37.9880 H   0  0  0  0  0  0  0  0  0  0  0  0
   38.6650   23.7590   34.1410 H   0  0  0  0  0  0  0  0  0  0  0  0
   36.9450   21.9940   36.2660 H   0  0  0  0  0  0  0  0  0  0  0  0
  1  6  1  1  0  0  0
  1  5  1  0  0  0  0
  2  1  1  0  0  0  0
  2  3  1  0  0  0  0
  3 10  1  0  0  0  0
  3  4  1  0  0  0  0
  4 12  1  0  0  0  0
  4 11  1  0  0  0  0
  5 33  1  0  0  0  0
  5  4  1  0  0  0  0
  5 13  1  1  0  0  0
  7  2  1  0  0  0  0
  8  2  1  0  0  0  0
  9  3  1  0  0  0  0
 14 19  1  0  0  0  0
 15 16  1  0  0  0  0
 15 14  2  0  0  0  0
 16 17  2  0  0  0  0
 17 18  1  0  0  0  0
 18  1  1  0  0  0  0
 19 18  2  0  0  0  0
 20 15  1  0  0  0  0
 21 16  1  0  0  0  0
 22 28  1  0  0  0  0
 23 14  1  0  0  0  0
 23 22  2  0  0  0  0
 24 23  1  0  0  0  0
 25 24  2  0  0  0  0
 25 26  1  0  0  0  0
 26 27  2  0  0  0  0
 27 22  1  0  0  0  0
 29 24  1  0  0  0  0
 30 26  1  0  0  0  0
 31 36  1  0  0  0  0
 32 34  1  0  0  0  0
 32 31  2  0  0  0  0
 33 32  1  0  0  0  0
 34 35  1  0  0  0  0
 34 38  1  0  0  0  0
 37 33  1  0  0  0  0
M  END
>  <minimizedAffinity>
-5.2373414

$$$$

 OpenBabel03272502133D

 38 40  0  0  1  0  0  0  0  0999 V2000
   36.9540   26.0760   32.4110 C   0  0  2  0  0  0  0  0  0  0  0  0
   36.8810   26.2250   30.9520 C   0  0  0  0  0  0  0  0  0  0  0  0
   36.8450   27.7300   30.7900 C   0  0  0  0  0  0  0  0  0  0  0  0
   37.3330   28.3380   32.0350 C   0  0  0  0  0  0  0  0  0  0  0  0
   37.7880   27.1750   32.9140 C   0  0  2  0  0  0  0  0  0  0  0  0
   35.8870   26.1390   32.7900 H   0  0  0  0  0  0  0  0  0  0  0  0
   37.6060   25.7030   30.3320 H   0  0  0  0  0  0  0  0  0  0  0  0
   35.8850   25.7820   30.6100 H   0  0  0  0  0  0  0  0  0  0  0  0
   37.3280   28.0710   29.8590 H   0  0  0  0  0  0  0  0  0  0  0  0
   35.7760   28.0090   30.6750 H   0  0  0  0  0  0  0  0  0  0  0  0
   36.6130   29.0060   32.5170 H   0  0  0  0  0  0  0  0  0  0  0  0
   38.2660   28.9540   31.8960 H   0  0  0  0  0  0  0  0  0  0  0  0
   37.2960   27.4480   33.9100 H   0  0  0  0  0  0  0  0  0  0  0  0
   38.2270   23.5700   34.7710 C   0  0  0  0  0  0  0  0  0  0  0  0
   38.3880   22.5050   33.9020 C   0  0  0  0  0  0  0  0  0  0  0  0
   38.0960   22.5750   32.5370 C   0  0  0  0  0  0  0  0  0  0  0  0
   37.6290   23.7650   32.0530 N   0  0  0  0  0  0  0  0  0  0  0  0
   37.4800   24.7880   32.9140 C   0  0  0  0  0  0  0  0  0  0  0  0
   37.7610   24.7060   34.2040 N   0  0  0  0  0  0  0  0  0  0  0  0
   38.7580   21.5540   34.2690 H   0  0  0  0  0  0  0  0  0  0  0  0
   38.2280   21.7310   31.8730 H   0  0  0  0  0  0  0  0  0  0  0  0
   39.6340   22.8440   36.7090 C   0  0  0  0  0  0  0  0  0  0  0  0
   38.5220   23.4780   36.1680 C   0  0  0  0  0  0  0  0  0  0  0  0
   37.6490   24.0600   37.0690 C   0  0  0  0  0  0  0  0  0  0  0  0
   37.9070   23.9870   38.3960 N   0  0  0  0  0  0  0  0  0  0  0  0
   39.0110   23.3530   38.8820 C   0  0  0  0  0  0  0  0  0  0  0  0
   39.8820   22.7760   38.0150 N   0  0  0  0  0  0  0  0  0  0  0  0
   40.3230   22.3870   36.0250 H   0  0  0  0  0  0  0  0  0  0  0  0
   36.7600   24.5730   36.7360 H   0  0  0  0  0  0  0  0  0  0  0  0
   39.2290   23.2870   39.9310 H   0  0  0  0  0  0  0  0  0  0  0  0
   39.2790   27.2670   35.4160 N   0  0  0  0  0  0  0  0  0  0  0  0
   39.9140   27.1090   34.3350 C   0  0  0  0  0  0  0  0  0  0  0  0
   39.1460   27.0990   33.1390 N   0  0  0  0  0  0  0  0  0  0  0  0
   41.3200   26.9520   34.4740 N   0  0  0  0  0  0  0  0  0  0  0  0
   42.2760   27.3420   34.3220 H   0  0  0  0  0  0  0  0  0  0  0  0
   39.6540   27.3020   36.3650 H   0  0  0  0  0  0  0  0  0  0  0  0
   39.8490   27.0140   32.3270 H   0  0  0  0  0  0  0  0  0  0  0  0
   41.5110   26.0230   34.9430 H   0  0  0  0  0  0  0  0  0  0  0  0
  1  6  1  1  0  0  0
  1  5  1  0  0  0  0
  1 18  1  0  0  0  0
  2  1  1  0  0  0  0
  3  2  1  0  0  0  0
  3  4  1  0  0  0  0
  4 11  1  0  0  0  0
  4  5  1  0  0  0  0
  5 33  1  0  0  0  0
  5 13  1  1  0  0  0
  7  2  1  0  0  0  0
  8  2  1  0  0  0  0
  9  3  1  0  0  0  0
 10  3  1  0  0  0  0
 12  4  1  0  0  0  0
 14 23  1  0  0  0  0
 15 20  1  0  0  0  0
 15 14  2  0  0  0  0
 16 15  1  0  0  0  0
 17 16  2  0  0  0  0
 17 18  1  0  0  0  0
 18 19  2  0  0  0  0
 19 14  1  0  0  0  0
 21 16  1  0  0  0  0
 22 27  1  0  0  0  0
 23 22  2  0  0  0  0
 23 24  1  0  0  0  0
 24 25  2  0  0  0  0
 25 26  1  0  0  0  0
 26 30  1  0  0  0  0
 27 26  2  0  0  0  0
 28 22  1  0  0  0  0
 29 24  1  0  0  0  0
 31 36  1  0  0  0  0
 32 34  1  0  0  0  0
 32 31  2  0  0  0  0
 33 32  1  0  0  0  0
 34 38  1  0  0  0  0
 35 34  1  0  0  0  0
 37 33  1  0  0  0  0
M  END
>  <minimizedAffinity>
-5.21989536

$$$$

 OpenBabel03272502133D

 38 40  0  0  1  0  0  0  0  0999 V2000
   37.6070   27.4020   32.7170 C   0  0  2  0  0  0  0  0  0  0  0  0
   36.8740   28.0570   33.8080 C   0  0  0  0  0  0  0  0  0  0  0  0
   35.6960   28.6650   33.0750 C   0  0  0  0  0  0  0  0  0  0  0  0
   35.5650   27.9910   31.7770 C   0  0  0  0  0  0  0  0  0  0  0  0
   36.6050   26.8730   31.7820 C   0  0  2  0  0  0  0  0  0  0  0  0
   38.2540   28.2040   32.2430 H   0  0  0  0  0  0  0  0  0  0  0  0
   36.6280   27.4820   34.6970 H   0  0  0  0  0  0  0  0  0  0  0  0
   37.5380   28.8910   34.2170 H   0  0  0  0  0  0  0  0  0  0  0  0
   34.7850   28.7110   33.6960 H   0  0  0  0  0  0  0  0  0  0  0  0
   35.9600   29.7260   32.8790 H   0  0  0  0  0  0  0  0  0  0  0  0
   35.6360   28.6630   30.9170 H   0  0  0  0  0  0  0  0  0  0  0  0
   34.5850   27.4490   31.6520 H   0  0  0  0  0  0  0  0  0  0  0  0
   37.0910   27.0220   30.7580 H   0  0  0  0  0  0  0  0  0  0  0  0
   39.1990   24.8140   34.7760 C   0  0  0  0  0  0  0  0  0  0  0  0
   40.1370   24.3530   33.8700 C   0  0  0  0  0  0  0  0  0  0  0  0
   40.2810   24.8700   32.5790 C   0  0  0  0  0  0  0  0  0  0  0  0
   39.4420   25.8850   32.2110 N   0  0  0  0  0  0  0  0  0  0  0  0
   38.5360   26.3200   33.1070 C   0  0  0  0  0  0  0  0  0  0  0  0
   38.4140   25.8190   34.3250 N   0  0  0  0  0  0  0  0  0  0  0  0
   40.8110   23.5490   34.1450 H   0  0  0  0  0  0  0  0  0  0  0  0
   41.0200   24.4960   31.8840 H   0  0  0  0  0  0  0  0  0  0  0  0
   39.8730   23.2810   36.6350 C   0  0  0  0  0  0  0  0  0  0  0  0
   39.0600   24.2670   36.0900 C   0  0  0  0  0  0  0  0  0  0  0  0
   38.0450   24.7420   36.9010 C   0  0  0  0  0  0  0  0  0  0  0  0
   37.8930   24.2390   38.1490 N   0  0  0  0  0  0  0  0  0  0  0  0
   38.7150   23.2710   38.6410 C   0  0  0  0  0  0  0  0  0  0  0  0
   39.7190   22.7910   37.8630 N   0  0  0  0  0  0  0  0  0  0  0  0
   40.6660   22.9010   36.0200 H   0  0  0  0  0  0  0  0  0  0  0  0
   37.3660   25.5070   36.5590 H   0  0  0  0  0  0  0  0  0  0  0  0
   38.6080   22.8630   39.6290 H   0  0  0  0  0  0  0  0  0  0  0  0
   37.3590   24.5280   30.2270 N   0  0  0  0  0  0  0  0  0  0  0  0
   36.4490   24.4150   31.0950 C   0  0  0  0  0  0  0  0  0  0  0  0
   36.0960   25.5920   31.8080 N   0  0  0  0  0  0  0  0  0  0  0  0
   35.9110   23.1070   31.2420 N   0  0  0  0  0  0  0  0  0  0  0  0
   35.0980   22.4630   31.1230 H   0  0  0  0  0  0  0  0  0  0  0  0
   37.7440   23.8010   29.6200 H   0  0  0  0  0  0  0  0  0  0  0  0
   35.2770   25.3230   32.4540 H   0  0  0  0  0  0  0  0  0  0  0  0
   36.6520   22.4810   31.6630 H   0  0  0  0  0  0  0  0  0  0  0  0
  1  6  1  6  0  0  0
  1 18  1  0  0  0  0
  1  2  1  0  0  0  0
  2  8  1  0  0  0  0
  2  7  1  0  0  0  0
  3  9  1  0  0  0  0
  3  2  1  0  0  0  0
  4  5  1  0  0  0  0
  4  3  1  0  0  0  0
  5 13  1  6  0  0  0
  5 33  1  0  0  0  0
  5  1  1  0  0  0  0
 10  3  1  0  0  0  0
 11  4  1  0  0  0  0
 12  4  1  0  0  0  0
 14 23  1  0  0  0  0
 15 20  1  0  0  0  0
 15 14  2  0  0  0  0
 16 15  1  0  0  0  0
 17 16  2  0  0  0  0
 17 18  1  0  0  0  0
 18 19  2  0  0  0  0
 19 14  1  0  0  0  0
 21 16  1  0  0  0  0
 22 27  1  0  0  0  0
 23 22  2  0  0  0  0
 23 24  1  0  0  0  0
 24 25  2  0  0  0  0
 25 26  1  0  0  0  0
 26 30  1  0  0  0  0
 27 26  2  0  0  0  0
 28 22  1  0  0  0  0
 29 24  1  0  0  0  0
 31 32  2  0  0  0  0
 32 34  1  0  0  0  0
 32 33  1  0  0  0  0
 33 37  1  0  0  0  0
 34 38  1  0  0  0  0
 35 34  1  0  0  0  0
 36 31  1  0  0  0  0
M  END
>  <minimizedAffinity>
-5.19718361

$$$$

 OpenBabel03272502133D

 38 40  0  0  1  0  0  0  0  0999 V2000
   38.0480   23.3350   36.5180 C   0  0  2  0  0  0  0  0  0  0  0  0
   37.7260   24.6440   37.1010 C   0  0  0  0  0  0  0  0  0  0  0  0
   38.0650   24.4310   38.5610 C   0  0  0  0  0  0  0  0  0  0  0  0
   38.9380   23.2540   38.6630 C   0  0  0  0  0  0  0  0  0  0  0  0
   39.2300   22.8280   37.2260 C   0  0  2  0  0  0  0  0  0  0  0  0
   37.1360   22.6810   36.6840 H   0  0  0  0  0  0  0  0  0  0  0  0
   38.1440   25.5390   36.6480 H   0  0  0  0  0  0  0  0  0  0  0  0
   36.6000   24.8020   36.9920 H   0  0  0  0  0  0  0  0  0  0  0  0
   38.4240   25.3500   39.0550 H   0  0  0  0  0  0  0  0  0  0  0  0
   37.1100   24.1880   39.0750 H   0  0  0  0  0  0  0  0  0  0  0  0
   38.5370   22.4550   39.2930 H   0  0  0  0  0  0  0  0  0  0  0  0
   39.9550   23.4880   39.0890 H   0  0  0  0  0  0  0  0  0  0  0  0
   39.0400   21.7020   37.2890 H   0  0  0  0  0  0  0  0  0  0  0  0
   38.1240   24.4520   33.0230 C   0  0  0  0  0  0  0  0  0  0  0  0
   38.7430   23.3550   32.4510 C   0  0  0  0  0  0  0  0  0  0  0  0
   39.1420   22.2300   33.1780 C   0  0  0  0  0  0  0  0  0  0  0  0
   38.9000   22.2310   34.5230 N   0  0  0  0  0  0  0  0  0  0  0  0
   38.2970   23.3080   35.0610 C   0  0  0  0  0  0  0  0  0  0  0  0
   37.9250   24.3660   34.3580 N   0  0  0  0  0  0  0  0  0  0  0  0
   38.9420   23.3370   31.3850 H   0  0  0  0  0  0  0  0  0  0  0  0
   39.6250   21.3820   32.7120 H   0  0  0  0  0  0  0  0  0  0  0  0
   36.5750   25.6920   31.4980 C   0  0  0  0  0  0  0  0  0  0  0  0
   37.7300   25.6000   32.2650 C   0  0  0  0  0  0  0  0  0  0  0  0
   38.5450   26.7170   32.2830 C   0  0  0  0  0  0  0  0  0  0  0  0
   38.1930   27.8160   31.5740 N   0  0  0  0  0  0  0  0  0  0  0  0
   37.0500   27.8600   30.8340 C   0  0  0  0  0  0  0  0  0  0  0  0
   36.2340   26.7750   30.8030 N   0  0  0  0  0  0  0  0  0  0  0  0
   35.9310   24.8340   31.4720 H   0  0  0  0  0  0  0  0  0  0  0  0
   39.4610   26.7330   32.8530 H   0  0  0  0  0  0  0  0  0  0  0  0
   36.7570   28.7240   30.2670 H   0  0  0  0  0  0  0  0  0  0  0  0
   41.5280   21.0580   37.5040 N   0  0  0  0  0  0  0  0  0  0  0  0
   41.6760   22.1560   36.8970 C   0  0  0  0  0  0  0  0  0  0  0  0
   40.5340   22.9980   36.8120 N   0  0  0  0  0  0  0  0  0  0  0  0
   42.9760   22.3880   36.3720 N   0  0  0  0  0  0  0  0  0  0  0  0
   43.8640   22.9350   36.4100 H   0  0  0  0  0  0  0  0  0  0  0  0
   42.2260   20.3300   37.6650 H   0  0  0  0  0  0  0  0  0  0  0  0
   40.8570   23.9010   36.3210 H   0  0  0  0  0  0  0  0  0  0  0  0
   43.1470   21.7100   35.5790 H   0  0  0  0  0  0  0  0  0  0  0  0
  1  6  1  1  0  0  0
  1  2  1  0  0  0  0
  1  5  1  0  0  0  0
  2  3  1  0  0  0  0
  3  4  1  0  0  0  0
  3  9  1  0  0  0  0
  3 10  1  0  0  0  0
  4 12  1  0  0  0  0
  4 11  1  0  0  0  0
  5 13  1  1  0  0  0
  5  4  1  0  0  0  0
  7  2  1  0  0  0  0
  8  2  1  0  0  0  0
 14 19  1  0  0  0  0
 15 14  2  0  0  0  0
 15 16  1  0  0  0  0
 16 17  2  0  0  0  0
 17 18  1  0  0  0  0
 18  1  1  0  0  0  0
 19 18  2  0  0  0  0
 20 15  1  0  0  0  0
 21 16  1  0  0  0  0
 22 23  1  0  0  0  0
 23 24  2  0  0  0  0
 23 14  1  0  0  0  0
 24 29  1  0  0  0  0
 25 24  1  0  0  0  0
 26 25  2  0  0  0  0
 27 26  1  0  0  0  0
 27 22  2  0  0  0  0
 28 22  1  0  0  0  0
 30 26  1  0  0  0  0
 31 36  1  0  0  0  0
 32 31  2  0  0  0  0
 33 32  1  0  0  0  0
 33  5  1  0  0  0  0
 34 35  1  0  0  0  0
 34 32  1  0  0  0  0
 37 33  1  0  0  0  0
 38 34  1  0  0  0  0
M  END
>  <minimizedAffinity>
-5.19676828

$$$$

 OpenBabel03272502133D

 38 40  0  0  1  0  0  0  0  0999 V2000
   35.3640   31.0850   34.2580 C   0  0  2  0  0  0  0  0  0  0  0  0
   35.8390   30.9390   35.6400 C   0  0  0  0  0  0  0  0  0  0  0  0
   34.8620   31.8080   36.4030 C   0  0  0  0  0  0  0  0  0  0  0  0
   33.6810   32.0230   35.5560 C   0  0  0  0  0  0  0  0  0  0  0  0
   33.8990   31.1640   34.3130 C   0  0  2  0  0  0  0  0  0  0  0  0
   35.8310   32.0400   33.8620 H   0  0  0  0  0  0  0  0  0  0  0  0
   35.9920   29.9410   36.0420 H   0  0  0  0  0  0  0  0  0  0  0  0
   36.8830   31.4010   35.6970 H   0  0  0  0  0  0  0  0  0  0  0  0
   34.6700   31.4400   37.4250 H   0  0  0  0  0  0  0  0  0  0  0  0
   35.3590   32.7920   36.5440 H   0  0  0  0  0  0  0  0  0  0  0  0
   33.4730   33.0760   35.3410 H   0  0  0  0  0  0  0  0  0  0  0  0
   32.7310   31.6160   36.0040 H   0  0  0  0  0  0  0  0  0  0  0  0
   33.6410   31.9100   33.4840 H   0  0  0  0  0  0  0  0  0  0  0  0
   36.6220   27.8590   33.0410 C   0  0  0  0  0  0  0  0  0  0  0  0
   36.4700   28.0580   31.6800 C   0  0  0  0  0  0  0  0  0  0  0  0
   35.9650   29.2380   31.1270 C   0  0  0  0  0  0  0  0  0  0  0  0
   35.6090   30.2370   31.9890 N   0  0  0  0  0  0  0  0  0  0  0  0
   35.7650   30.0240   33.3100 C   0  0  0  0  0  0  0  0  0  0  0  0
   36.2450   28.9010   33.8180 N   0  0  0  0  0  0  0  0  0  0  0  0
   36.7480   27.2780   30.9820 H   0  0  0  0  0  0  0  0  0  0  0  0
   35.8520   29.3750   30.0600 H   0  0  0  0  0  0  0  0  0  0  0  0
   37.4480   25.5040   32.8580 C   0  0  0  0  0  0  0  0  0  0  0  0
   37.1330   26.6420   33.5920 C   0  0  0  0  0  0  0  0  0  0  0  0
   37.3370   26.5670   34.9570 C   0  0  0  0  0  0  0  0  0  0  0  0
   37.8200   25.4240   35.5010 N   0  0  0  0  0  0  0  0  0  0  0  0
   38.1150   24.3330   34.7420 C   0  0  0  0  0  0  0  0  0  0  0  0
   37.9220   24.3840   33.3990 N   0  0  0  0  0  0  0  0  0  0  0  0
   37.2950   25.5440   31.7970 H   0  0  0  0  0  0  0  0  0  0  0  0
   37.1190   27.4030   35.6030 H   0  0  0  0  0  0  0  0  0  0  0  0
   38.4980   23.4200   35.1590 H   0  0  0  0  0  0  0  0  0  0  0  0
   32.2790   30.3410   32.0350 N   0  0  0  0  0  0  0  0  0  0  0  0
   32.2590   29.6360   33.0830 C   0  0  0  0  0  0  0  0  0  0  0  0
   33.0430   30.0930   34.1770 N   0  0  0  0  0  0  0  0  0  0  0  0
   31.4530   28.4670   33.0110 N   0  0  0  0  0  0  0  0  0  0  0  0
   30.6000   27.9560   33.3270 H   0  0  0  0  0  0  0  0  0  0  0  0
   31.7850   30.1760   31.1560 H   0  0  0  0  0  0  0  0  0  0  0  0
   32.8600   29.4090   34.9890 H   0  0  0  0  0  0  0  0  0  0  0  0
   31.9010   27.7880   32.3350 H   0  0  0  0  0  0  0  0  0  0  0  0
  1  6  1  6  0  0  0
  1  5  1  0  0  0  0
  1  2  1  0  0  0  0
  2  8  1  0  0  0  0
  2  7  1  0  0  0  0
  2  3  1  0  0  0  0
  3 10  1  0  0  0  0
  3  9  1  0  0  0  0
  4 12  1  0  0  0  0
  4  3  1  0  0  0  0
  5 13  1  6  0  0  0
  5  4  1  0  0  0  0
 11  4  1  0  0  0  0
 14 23  1  0  0  0  0
 14 19  1  0  0  0  0
 15 14  2  0  0  0  0
 16 15  1  0  0  0  0
 16 17  2  0  0  0  0
 17 18  1  0  0  0  0
 18 19  2  0  0  0  0
 18  1  1  0  0  0  0
 20 15  1  0  0  0  0
 21 16  1  0  0  0  0
 22 27  2  0  0  0  0
 22 23  1  0  0  0  0
 23 24  2  0  0  0  0
 24 25  1  0  0  0  0
 24 29  1  0  0  0  0
 26 30  1  0  0  0  0
 26 25  2  0  0  0  0
 27 26  1  0  0  0  0
 28 22  1  0  0  0  0
 31 32  2  0  0  0  0
 32 33  1  0  0  0  0
 33  5  1  0  0  0  0
 33 37  1  0  0  0  0
 34 32  1  0  0  0  0
 34 35  1  0  0  0  0
 36 31  1  0  0  0  0
 38 34  1  0  0  0  0
M  END
>  <minimizedAffinity>
-5.16868734

$$$$
