
 OpenBabel03272502053D

 38 40  0  0  0  0  0  0  0  0999 V2000
   34.4410   30.5010   47.5090 F   0  0  0  0  0  0  0  0  0  0  0  0
   34.8110   30.0030   46.2850 C   0  0  0  0  0  0  0  0  0  0  0  0
   33.9100   29.3640   45.4590 C   0  0  0  0  0  0  0  0  0  0  0  0
   34.3480   28.9020   44.2380 C   0  0  0  0  0  0  0  0  0  0  0  0
   35.6800   29.0780   43.8430 C   0  0  0  0  0  0  0  0  0  0  0  0
   36.5280   29.7260   44.7200 C   0  0  0  0  0  0  0  0  0  0  0  0
   36.1430   30.1910   45.9200 C   0  0  0  0  0  0  0  0  0  0  0  0
   33.6200   28.4110   43.6240 H   0  0  0  0  0  0  0  0  0  0  0  0
   35.9880   28.7060   42.8840 H   0  0  0  0  0  0  0  0  0  0  0  0
   37.5340   29.8220   44.3430 H   0  0  0  0  0  0  0  0  0  0  0  0
   32.3650   28.2950   46.9680 C   0  0  0  0  0  0  0  0  0  0  0  0
   32.5790   29.2470   45.9770 C   0  0  0  0  0  0  0  0  0  0  0  0
   31.4940   30.0130   45.5720 C   0  0  0  0  0  0  0  0  0  0  0  0
   30.2830   29.8170   46.1390 N   0  0  0  0  0  0  0  0  0  0  0  0
   30.0990   28.8970   47.0870 C   0  0  0  0  0  0  0  0  0  0  0  0
   31.1230   28.1520   47.4910 N   0  0  0  0  0  0  0  0  0  0  0  0
   33.1730   27.6600   47.3310 H   0  0  0  0  0  0  0  0  0  0  0  0
   31.6820   30.7550   44.7940 H   0  0  0  0  0  0  0  0  0  0  0  0
   29.5850   27.5320   49.4980 N   0  0  0  0  0  0  0  0  0  0  0  0
   28.6640   28.2810   49.0080 C   0  0  0  0  0  0  0  0  0  0  0  0
   28.8070   28.7220   47.6580 N   0  0  0  0  0  0  0  0  0  0  0  0
   27.5200   28.6740   49.7660 N   0  0  0  0  0  0  0  0  0  0  0  0
   26.9310   29.2480   50.3820 H   0  0  0  0  0  0  0  0  0  0  0  0
   29.4790   27.2110   50.4840 H   0  0  0  0  0  0  0  0  0  0  0  0
   27.9480   28.9200   47.0820 H   0  0  0  0  0  0  0  0  0  0  0  0
   27.6450   29.6010   50.2690 H   0  0  0  0  0  0  0  0  0  0  0  0
   37.9620   32.4230   44.6910 Br  0  0  0  0  0  0  0  0  0  0  0  0
   37.9520   31.8750   46.5160 C   0  0  0  0  0  0  0  0  0  0  0  0
   37.0850   30.8560   46.8030 C   0  0  0  0  0  0  0  0  0  0  0  0
   37.0510   30.3720   48.1240 C   0  0  0  0  0  0  0  0  0  0  0  0
   37.8540   30.9040   49.0790 C   0  0  0  0  0  0  0  0  0  0  0  0
   38.7110   31.9370   48.7230 C   0  0  0  0  0  0  0  0  0  0  0  0
   38.7680   32.4380   47.4240 C   0  0  0  0  0  0  0  0  0  0  0  0
   36.3960   29.5690   48.4360 H   0  0  0  0  0  0  0  0  0  0  0  0
   37.8510   30.5540   50.1020 H   0  0  0  0  0  0  0  0  0  0  0  0
   39.3660   32.3860   49.4600 H   0  0  0  0  0  0  0  0  0  0  0  0
   39.5760   33.4470   46.9980 O   0  0  0  0  0  0  0  0  0  0  0  0
   39.1340   34.2730   46.5920 H   0  0  0  0  0  0  0  0  0  0  0  0
  2  1  1  0  0  0  0
  3 12  1  0  0  0  0
  3  2  2  0  0  0  0
  4  3  1  0  0  0  0
  5  4  2  0  0  0  0
  5  6  1  0  0  0  0
  6  7  2  0  0  0  0
  7  2  1  0  0  0  0
  7 29  1  0  0  0  0
  8  4  1  0  0  0  0
  9  5  1  0  0  0  0
 10  6  1  0  0  0  0
 11 17  1  0  0  0  0
 11 16  1  0  0  0  0
 12 11  2  0  0  0  0
 13 12  1  0  0  0  0
 13 14  2  0  0  0  0
 14 15  1  0  0  0  0
 15 16  2  0  0  0  0
 15 21  1  0  0  0  0
 18 13  1  0  0  0  0
 19 24  1  0  0  0  0
 20 19  2  0  0  0  0
 20 22  1  0  0  0  0
 21 20  1  0  0  0  0
 22 26  1  0  0  0  0
 22 23  1  0  0  0  0
 25 21  1  0  0  0  0
 27 28  1  0  0  0  0
 28 29  2  0  0  0  0
 28 33  1  0  0  0  0
 29 30  1  0  0  0  0
 30 34  1  0  0  0  0
 30 31  2  0  0  0  0
 31 35  1  0  0  0  0
 32 31  1  0  0  0  0
 32 36  1  0  0  0  0
 33 32  2  0  0  0  0
 37 33  1  0  0  0  0
 38 37  1  0  0  0  0
M  END
>  <minimizedAffinity>
-6.31928587

>  <minimizedRMSD>
0.249187425

$$$$
