
 OpenBabel03272505373D

 30 31  0  0  0  0  0  0  0  0999 V2000
   36.4440   30.4920   46.5790 C   0  0  0  0  0  0  0  0  0  0  0  0
   35.1520   29.9810   46.5080 C   0  0  0  0  0  0  0  0  0  0  0  0
   34.5450   29.6870   45.3230 C   0  0  0  0  0  0  0  0  0  0  0  0
   35.2060   29.8880   44.1120 C   0  0  0  0  0  0  0  0  0  0  0  0
   36.4780   30.3900   44.1690 C   0  0  0  0  0  0  0  0  0  0  0  0
   37.0940   30.6890   45.3730 C   0  0  0  0  0  0  0  0  0  0  0  0
   34.6530   29.8320   47.4790 H   0  0  0  0  0  0  0  0  0  0  0  0
   33.5440   29.2990   45.4220 H   0  0  0  0  0  0  0  0  0  0  0  0
   34.6410   29.6250   43.2310 H   0  0  0  0  0  0  0  0  0  0  0  0
   36.8610   30.5040   43.1770 H   0  0  0  0  0  0  0  0  0  0  0  0
   37.4220   30.2920   50.0970 C   0  0  0  0  0  0  0  0  0  0  0  0
   38.2090   31.4330   50.2630 C   0  0  0  0  0  0  0  0  0  0  0  0
   38.3910   32.2620   49.1560 C   0  0  0  0  0  0  0  0  0  0  0  0
   37.7920   31.9010   47.9990 N   0  0  0  0  0  0  0  0  0  0  0  0
   37.0420   30.8000   47.8650 C   0  0  0  0  0  0  0  0  0  0  0  0
   36.8640   30.0020   48.9220 N   0  0  0  0  0  0  0  0  0  0  0  0
   38.6450   31.6350   51.2300 H   0  0  0  0  0  0  0  0  0  0  0  0
   38.9970   33.1420   49.2790 H   0  0  0  0  0  0  0  0  0  0  0  0
   37.2220   29.4090   51.3000 C   0  0  0  0  0  0  0  0  0  0  0  0
   35.8490   29.1660   51.4690 F   0  0  0  0  0  0  0  0  0  0  0  0
   37.9180   28.2710   51.1130 F   0  0  0  0  0  0  0  0  0  0  0  0
   37.6290   30.1110   52.4160 F   0  0  0  0  0  0  0  0  0  0  0  0
   38.1440   33.0360   43.9550 N   0  0  0  0  0  0  0  0  0  0  0  0
   38.7730   32.5230   44.9680 C   0  0  0  0  0  0  0  0  0  0  0  0
   38.4170   31.1890   45.3130 N   0  0  0  0  0  0  0  0  0  0  0  0
   39.7740   33.2980   45.6700 N   0  0  0  0  0  0  0  0  0  0  0  0
   39.3470   34.2190   45.9310 H   0  0  0  0  0  0  0  0  0  0  0  0
   38.3690   33.9910   43.6720 H   0  0  0  0  0  0  0  0  0  0  0  0
   39.3130   30.6940   45.5040 H   0  0  0  0  0  0  0  0  0  0  0  0
   40.7430   33.0830   45.9160 H   0  0  0  0  0  0  0  0  0  0  0  0
  1 15  1  0  0  0  0
  2  1  1  0  0  0  0
  2  7  1  0  0  0  0
  3  8  1  0  0  0  0
  3  2  2  0  0  0  0
  4  5  2  0  0  0  0
  4  3  1  0  0  0  0
  5  6  1  0  0  0  0
  6  1  2  0  0  0  0
  9  4  1  0  0  0  0
 10  5  1  0  0  0  0
 11 12  1  0  0  0  0
 11 19  1  0  0  0  0
 12 17  1  0  0  0  0
 13 18  1  0  0  0  0
 13 12  2  0  0  0  0
 14 13  1  0  0  0  0
 15 14  2  0  0  0  0
 15 16  1  0  0  0  0
 16 11  2  0  0  0  0
 19 20  1  0  0  0  0
 19 22  1  0  0  0  0
 21 19  1  0  0  0  0
 23 24  2  0  0  0  0
 24 25  1  0  0  0  0
 24 26  1  0  0  0  0
 25  6  1  0  0  0  0
 25 29  1  0  0  0  0
 26 30  1  0  0  0  0
 26 27  1  0  0  0  0
 28 23  1  0  0  0  0
M  END
>  <minimizedAffinity>
-6.35751009

>  <minimizedRMSD>
0.27442351

$$$$
