
 OpenBabel03272505373D

 30 31  0  0  0  0  0  0  0  0999 V2000
   36.4620   30.4960   46.6020 C   0  0  0  0  0  0  0  0  0  0  0  0
   35.1360   30.0830   46.5190 C   0  0  0  0  0  0  0  0  0  0  0  0
   34.5300   29.8000   45.3320 C   0  0  0  0  0  0  0  0  0  0  0  0
   35.2250   29.9150   44.1290 C   0  0  0  0  0  0  0  0  0  0  0  0
   36.5300   30.3200   44.1970 C   0  0  0  0  0  0  0  0  0  0  0  0
   37.1460   30.6070   45.4040 C   0  0  0  0  0  0  0  0  0  0  0  0
   34.6100   30.0010   47.4850 H   0  0  0  0  0  0  0  0  0  0  0  0
   33.5000   29.4920   45.4220 H   0  0  0  0  0  0  0  0  0  0  0  0
   34.6570   29.6690   43.2450 H   0  0  0  0  0  0  0  0  0  0  0  0
   36.9390   30.3750   43.2100 H   0  0  0  0  0  0  0  0  0  0  0  0
   37.4310   30.2780   50.1220 C   0  0  0  0  0  0  0  0  0  0  0  0
   38.2220   31.4150   50.2930 C   0  0  0  0  0  0  0  0  0  0  0  0
   38.4100   32.2470   49.1910 C   0  0  0  0  0  0  0  0  0  0  0  0
   37.8120   31.8930   48.0310 N   0  0  0  0  0  0  0  0  0  0  0  0
   37.0580   30.7960   47.8900 C   0  0  0  0  0  0  0  0  0  0  0  0
   36.8740   29.9940   48.9440 N   0  0  0  0  0  0  0  0  0  0  0  0
   38.6570   31.6100   51.2620 H   0  0  0  0  0  0  0  0  0  0  0  0
   39.0200   33.1240   49.3190 H   0  0  0  0  0  0  0  0  0  0  0  0
   37.2250   29.3900   51.3200 C   0  0  0  0  0  0  0  0  0  0  0  0
   35.8520   29.1440   51.4800 F   0  0  0  0  0  0  0  0  0  0  0  0
   37.9240   28.2530   51.1340 F   0  0  0  0  0  0  0  0  0  0  0  0
   37.6240   30.0890   52.4410 F   0  0  0  0  0  0  0  0  0  0  0  0
   38.3370   33.0790   44.3570 N   0  0  0  0  0  0  0  0  0  0  0  0
   38.9620   32.3450   45.2300 C   0  0  0  0  0  0  0  0  0  0  0  0
   38.5030   31.0040   45.3570 N   0  0  0  0  0  0  0  0  0  0  0  0
   40.0560   32.9020   45.9960 N   0  0  0  0  0  0  0  0  0  0  0  0
   39.7230   33.7930   46.4380 H   0  0  0  0  0  0  0  0  0  0  0  0
   38.6330   34.0480   44.2330 H   0  0  0  0  0  0  0  0  0  0  0  0
   39.3600   30.4130   45.4070 H   0  0  0  0  0  0  0  0  0  0  0  0
   41.0110   32.5710   46.1450 H   0  0  0  0  0  0  0  0  0  0  0  0
  1 15  1  0  0  0  0
  2  1  1  0  0  0  0
  2  7  1  0  0  0  0
  3  8  1  0  0  0  0
  3  2  2  0  0  0  0
  4  5  2  0  0  0  0
  4  3  1  0  0  0  0
  5  6  1  0  0  0  0
  6  1  2  0  0  0  0
  9  4  1  0  0  0  0
 10  5  1  0  0  0  0
 11 12  1  0  0  0  0
 11 19  1  0  0  0  0
 12 17  1  0  0  0  0
 13 18  1  0  0  0  0
 13 12  2  0  0  0  0
 14 13  1  0  0  0  0
 15 14  2  0  0  0  0
 15 16  1  0  0  0  0
 16 11  2  0  0  0  0
 19 20  1  0  0  0  0
 19 22  1  0  0  0  0
 21 19  1  0  0  0  0
 23 24  2  0  0  0  0
 24 25  1  0  0  0  0
 24 26  1  0  0  0  0
 25  6  1  0  0  0  0
 25 29  1  0  0  0  0
 26 30  1  0  0  0  0
 26 27  1  0  0  0  0
 28 23  1  0  0  0  0
M  END
>  <minimizedAffinity>
-6.20381355

>  <minimizedRMSD>
0.268962502

$$$$
