
 OpenBabel03272505373D

 30 31  0  0  0  0  0  0  0  0999 V2000
   36.4050   30.5580   46.5250 C   0  0  0  0  0  0  0  0  0  0  0  0
   35.1470   29.9650   46.4800 C   0  0  0  0  0  0  0  0  0  0  0  0
   34.5030   29.7020   45.3090 C   0  0  0  0  0  0  0  0  0  0  0  0
   35.0870   30.0200   44.0840 C   0  0  0  0  0  0  0  0  0  0  0  0
   36.3250   30.6030   44.1130 C   0  0  0  0  0  0  0  0  0  0  0  0
   36.9800   30.8710   45.3050 C   0  0  0  0  0  0  0  0  0  0  0  0
   34.7090   29.7240   47.4620 H   0  0  0  0  0  0  0  0  0  0  0  0
   33.5350   29.2400   45.4290 H   0  0  0  0  0  0  0  0  0  0  0  0
   34.4970   29.7730   43.2150 H   0  0  0  0  0  0  0  0  0  0  0  0
   36.6500   30.8030   43.1140 H   0  0  0  0  0  0  0  0  0  0  0  0
   37.4430   30.2910   50.0210 C   0  0  0  0  0  0  0  0  0  0  0  0
   38.2930   31.3880   50.1730 C   0  0  0  0  0  0  0  0  0  0  0  0
   38.4960   32.2110   49.0660 C   0  0  0  0  0  0  0  0  0  0  0  0
   37.8550   31.8870   47.9210 N   0  0  0  0  0  0  0  0  0  0  0  0
   37.0450   30.8280   47.7990 C   0  0  0  0  0  0  0  0  0  0  0  0
   36.8460   30.0360   48.8570 N   0  0  0  0  0  0  0  0  0  0  0  0
   38.7590   31.5620   51.1320 H   0  0  0  0  0  0  0  0  0  0  0  0
   39.1500   33.0580   49.1800 H   0  0  0  0  0  0  0  0  0  0  0  0
   37.2220   29.4150   51.2250 C   0  0  0  0  0  0  0  0  0  0  0  0
   35.8460   29.1800   51.3760 F   0  0  0  0  0  0  0  0  0  0  0  0
   37.9140   28.2710   51.0530 F   0  0  0  0  0  0  0  0  0  0  0  0
   37.6170   30.1190   52.3430 F   0  0  0  0  0  0  0  0  0  0  0  0
   39.5740   29.6320   44.7040 N   0  0  0  0  0  0  0  0  0  0  0  0
   39.3760   30.9050   44.5290 C   0  0  0  0  0  0  0  0  0  0  0  0
   38.2620   31.4630   45.2160 N   0  0  0  0  0  0  0  0  0  0  0  0
   40.2670   31.6690   43.6820 N   0  0  0  0  0  0  0  0  0  0  0  0
   40.3370   31.1770   42.7570 H   0  0  0  0  0  0  0  0  0  0  0  0
   40.3630   29.1910   44.2290 H   0  0  0  0  0  0  0  0  0  0  0  0
   38.5960   32.3640   45.6170 H   0  0  0  0  0  0  0  0  0  0  0  0
   40.7820   32.5340   43.8530 H   0  0  0  0  0  0  0  0  0  0  0  0
  1 15  1  0  0  0  0
  2  1  1  0  0  0  0
  2  7  1  0  0  0  0
  3  8  1  0  0  0  0
  3  2  2  0  0  0  0
  4  5  2  0  0  0  0
  4  3  1  0  0  0  0
  5  6  1  0  0  0  0
  6  1  2  0  0  0  0
  9  4  1  0  0  0  0
 10  5  1  0  0  0  0
 11 12  1  0  0  0  0
 11 19  1  0  0  0  0
 12 17  1  0  0  0  0
 13 18  1  0  0  0  0
 13 12  2  0  0  0  0
 14 13  1  0  0  0  0
 15 14  2  0  0  0  0
 15 16  1  0  0  0  0
 16 11  2  0  0  0  0
 19 20  1  0  0  0  0
 19 22  1  0  0  0  0
 21 19  1  0  0  0  0
 24 23  2  0  0  0  0
 24 25  1  0  0  0  0
 25  6  1  0  0  0  0
 25 29  1  0  0  0  0
 26 30  1  0  0  0  0
 26 24  1  0  0  0  0
 27 26  1  0  0  0  0
 28 23  1  0  0  0  0
M  END
>  <minimizedAffinity>
-6.19021368

>  <minimizedRMSD>
0.544966698

$$$$
