
 OpenBabel03272505373D

 30 31  0  0  0  0  0  0  0  0999 V2000
   36.3170   30.4360   46.6050 C   0  0  0  0  0  0  0  0  0  0  0  0
   35.0250   29.9220   46.5850 C   0  0  0  0  0  0  0  0  0  0  0  0
   34.3740   29.6210   45.4260 C   0  0  0  0  0  0  0  0  0  0  0  0
   34.9860   29.8190   44.1890 C   0  0  0  0  0  0  0  0  0  0  0  0
   36.2580   30.3240   44.1950 C   0  0  0  0  0  0  0  0  0  0  0  0
   36.9190   30.6300   45.3740 C   0  0  0  0  0  0  0  0  0  0  0  0
   34.5640   29.7750   47.5750 H   0  0  0  0  0  0  0  0  0  0  0  0
   33.3780   29.2300   45.5650 H   0  0  0  0  0  0  0  0  0  0  0  0
   34.3890   29.5510   43.3320 H   0  0  0  0  0  0  0  0  0  0  0  0
   36.6030   30.4350   43.1890 H   0  0  0  0  0  0  0  0  0  0  0  0
   37.4040   30.2700   50.0920 C   0  0  0  0  0  0  0  0  0  0  0  0
   38.2200   31.3960   50.2130 C   0  0  0  0  0  0  0  0  0  0  0  0
   38.3830   32.2040   49.0890 C   0  0  0  0  0  0  0  0  0  0  0  0
   37.7390   31.8370   47.9580 N   0  0  0  0  0  0  0  0  0  0  0  0
   36.9630   30.7510   47.8650 C   0  0  0  0  0  0  0  0  0  0  0  0
   36.8020   29.9730   48.9400 N   0  0  0  0  0  0  0  0  0  0  0  0
   38.6910   31.6030   51.1630 H   0  0  0  0  0  0  0  0  0  0  0  0
   39.0110   33.0730   49.1780 H   0  0  0  0  0  0  0  0  0  0  0  0
   37.2260   29.4100   51.3150 C   0  0  0  0  0  0  0  0  0  0  0  0
   35.8570   29.1630   51.5070 F   0  0  0  0  0  0  0  0  0  0  0  0
   37.9260   28.2710   51.1410 F   0  0  0  0  0  0  0  0  0  0  0  0
   37.6430   30.1360   52.4110 F   0  0  0  0  0  0  0  0  0  0  0  0
   37.9110   32.9610   43.8860 N   0  0  0  0  0  0  0  0  0  0  0  0
   38.5770   32.4630   44.8860 C   0  0  0  0  0  0  0  0  0  0  0  0
   38.2370   31.1330   45.2610 N   0  0  0  0  0  0  0  0  0  0  0  0
   39.5980   33.2520   45.5400 N   0  0  0  0  0  0  0  0  0  0  0  0
   39.1770   34.1760   45.8040 H   0  0  0  0  0  0  0  0  0  0  0  0
   38.1210   33.9120   43.5840 H   0  0  0  0  0  0  0  0  0  0  0  0
   39.1410   30.6440   45.4270 H   0  0  0  0  0  0  0  0  0  0  0  0
   40.5750   33.0440   45.7560 H   0  0  0  0  0  0  0  0  0  0  0  0
  1 15  1  0  0  0  0
  2  1  1  0  0  0  0
  2  7  1  0  0  0  0
  3  8  1  0  0  0  0
  3  2  2  0  0  0  0
  4  5  2  0  0  0  0
  4  3  1  0  0  0  0
  5  6  1  0  0  0  0
  6  1  2  0  0  0  0
  9  4  1  0  0  0  0
 10  5  1  0  0  0  0
 11 12  1  0  0  0  0
 11 19  1  0  0  0  0
 12 17  1  0  0  0  0
 13 18  1  0  0  0  0
 13 12  2  0  0  0  0
 14 13  1  0  0  0  0
 15 14  2  0  0  0  0
 15 16  1  0  0  0  0
 16 11  2  0  0  0  0
 19 20  1  0  0  0  0
 19 22  1  0  0  0  0
 21 19  1  0  0  0  0
 23 24  2  0  0  0  0
 24 25  1  0  0  0  0
 24 26  1  0  0  0  0
 25  6  1  0  0  0  0
 25 29  1  0  0  0  0
 26 30  1  0  0  0  0
 26 27  1  0  0  0  0
 28 23  1  0  0  0  0
M  END
>  <minimizedAffinity>
-6.40231323

>  <minimizedRMSD>
0.133816883

$$$$
