
 OpenBabel03272509333D

 40 43  0  0  1  0  0  0  0  0999 V2000
   37.4350   31.8910   48.1630 C   0  0  1  0  0  0  0  0  0  0  0  0
   38.7030   32.6300   48.3000 C   0  0  0  0  0  0  0  0  0  0  0  0
   38.6940   31.4960   47.3390 C   0  0  2  0  0  0  0  0  0  0  0  0
   36.6640   32.2530   47.5050 H   0  0  0  0  0  0  0  0  0  0  0  0
   39.2600   32.4290   49.2650 H   0  0  0  0  0  0  0  0  0  0  0  0
   38.5860   33.6850   48.1330 H   0  0  0  0  0  0  0  0  0  0  0  0
   38.8470   30.4340   47.4410 H   0  0  0  0  0  0  0  0  0  0  0  0
   38.8180   31.9980   45.9440 C   0  0  0  0  0  0  0  0  0  0  0  0
   39.8260   32.9660   45.8590 C   0  0  0  0  0  0  0  0  0  0  0  0
   40.1790   33.5210   44.6470 C   0  0  0  0  0  0  0  0  0  0  0  0
   39.5400   33.1270   43.4660 C   0  0  0  0  0  0  0  0  0  0  0  0
   38.5540   32.1720   43.5760 C   0  0  0  0  0  0  0  0  0  0  0  0
   37.8310   31.7030   42.5040 C   0  0  0  0  0  0  0  0  0  0  0  0
   36.8290   30.7560   42.6130 C   0  0  0  0  0  0  0  0  0  0  0  0
   36.5220   30.2390   43.8480 C   0  0  0  0  0  0  0  0  0  0  0  0
   37.2360   30.6970   44.9320 C   0  0  0  0  0  0  0  0  0  0  0  0
   38.2240   31.6400   44.7860 C   0  0  0  0  0  0  0  0  0  0  0  0
   40.5000   33.4590   46.5270 H   0  0  0  0  0  0  0  0  0  0  0  0
   40.9190   34.2650   44.4060 H   0  0  0  0  0  0  0  0  0  0  0  0
   39.6940   33.4580   42.4470 H   0  0  0  0  0  0  0  0  0  0  0  0
   38.0410   32.0870   41.5020 H   0  0  0  0  0  0  0  0  0  0  0  0
   36.2780   30.4110   41.7400 H   0  0  0  0  0  0  0  0  0  0  0  0
   35.7580   29.5040   43.9930 H   0  0  0  0  0  0  0  0  0  0  0  0
   36.9790   30.2720   45.9190 H   0  0  0  0  0  0  0  0  0  0  0  0
   35.4560   29.9000   50.6730 C   0  0  0  0  0  0  0  0  0  0  0  0
   35.7790   30.8680   49.6690 C   0  0  0  0  0  0  0  0  0  0  0  0
   37.0730   30.8950   49.1900 C   0  0  0  0  0  0  0  0  0  0  0  0
   37.9710   29.9860   49.7130 N   0  0  0  0  0  0  0  0  0  0  0  0
   37.6360   29.0960   50.6480 C   0  0  0  0  0  0  0  0  0  0  0  0
   36.3860   29.0330   51.1450 N   0  0  0  0  0  0  0  0  0  0  0  0
   34.4500   29.8810   51.0440 H   0  0  0  0  0  0  0  0  0  0  0  0
   35.0010   31.5330   49.3290 H   0  0  0  0  0  0  0  0  0  0  0  0
   38.4700   28.9040   53.3500 N   0  0  0  0  0  0  0  0  0  0  0  0
   38.7470   27.9150   52.5340 C   0  0  0  0  0  0  0  0  0  0  0  0
   38.6120   28.1750   51.1510 N   0  0  0  0  0  0  0  0  0  0  0  0
   39.1720   26.6050   52.9640 N   0  0  0  0  0  0  0  0  0  0  0  0
   40.0150   26.1200   52.5830 H   0  0  0  0  0  0  0  0  0  0  0  0
   38.5860   28.6580   54.3740 H   0  0  0  0  0  0  0  0  0  0  0  0
   39.2470   27.6760   50.4720 H   0  0  0  0  0  0  0  0  0  0  0  0
   38.5370   26.2020   53.6970 H   0  0  0  0  0  0  0  0  0  0  0  0
  1  4  1  6  0  0  0
  1  2  1  0  0  0  0
  1 27  1  0  0  0  0
  2  5  1  0  0  0  0
  3  7  1  1  0  0  0
  3  1  1  0  0  0  0
  3  2  1  0  0  0  0
  6  2  1  0  0  0  0
  8  3  1  0  0  0  0
  9  8  1  0  0  0  0
  9 18  1  0  0  0  0
 10  9  2  0  0  0  0
 11 12  2  0  0  0  0
 11 10  1  0  0  0  0
 12 17  1  0  0  0  0
 13 14  2  0  0  0  0
 13 12  1  0  0  0  0
 14 15  1  0  0  0  0
 15 23  1  0  0  0  0
 15 16  2  0  0  0  0
 16 24  1  0  0  0  0
 17 16  1  0  0  0  0
 17  8  2  0  0  0  0
 19 10  1  0  0  0  0
 20 11  1  0  0  0  0
 21 13  1  0  0  0  0
 22 14  1  0  0  0  0
 25 31  1  0  0  0  0
 25 30  1  0  0  0  0
 26 25  2  0  0  0  0
 27 26  1  0  0  0  0
 27 28  2  0  0  0  0
 28 29  1  0  0  0  0
 29 30  2  0  0  0  0
 29 35  1  0  0  0  0
 32 26  1  0  0  0  0
 33 38  1  0  0  0  0
 34 36  1  0  0  0  0
 34 33  2  0  0  0  0
 35 34  1  0  0  0  0
 36 40  1  0  0  0  0
 37 36  1  0  0  0  0
 39 35  1  0  0  0  0
M  END
>  <minimizedAffinity>
-5.51292181

>  <minimizedRMSD>
1.64750981

$$$$
