
 OpenBabel03272509333D

 40 43  0  0  1  0  0  0  0  0999 V2000
   37.2900   31.5790   47.5350 C   0  0  1  0  0  0  0  0  0  0  0  0
   38.5290   32.2300   47.9970 C   0  0  0  0  0  0  0  0  0  0  0  0
   38.6860   31.1020   47.0410 C   0  0  2  0  0  0  0  0  0  0  0  0
   36.7320   31.9950   46.7150 H   0  0  0  0  0  0  0  0  0  0  0  0
   38.8140   31.9880   49.0660 H   0  0  0  0  0  0  0  0  0  0  0  0
   38.5260   33.2900   47.8290 H   0  0  0  0  0  0  0  0  0  0  0  0
   38.7390   30.0320   47.1560 H   0  0  0  0  0  0  0  0  0  0  0  0
   39.1850   31.6000   45.7310 C   0  0  0  0  0  0  0  0  0  0  0  0
   39.5630   32.9450   45.8290 C   0  0  0  0  0  0  0  0  0  0  0  0
   40.1320   33.6040   44.7590 C   0  0  0  0  0  0  0  0  0  0  0  0
   40.3500   32.9420   43.5450 C   0  0  0  0  0  0  0  0  0  0  0  0
   39.9720   31.6210   43.4750 C   0  0  0  0  0  0  0  0  0  0  0  0
   40.1110   30.8530   42.3420 C   0  0  0  0  0  0  0  0  0  0  0  0
   39.7180   29.5300   42.2630 C   0  0  0  0  0  0  0  0  0  0  0  0
   39.1560   28.9260   43.3630 C   0  0  0  0  0  0  0  0  0  0  0  0
   39.0100   29.6800   44.5050 C   0  0  0  0  0  0  0  0  0  0  0  0
   39.4110   30.9930   44.5470 C   0  0  0  0  0  0  0  0  0  0  0  0
   39.5580   33.7100   46.5770 H   0  0  0  0  0  0  0  0  0  0  0  0
   40.4740   34.6200   44.6650 H   0  0  0  0  0  0  0  0  0  0  0  0
   40.7800   33.3080   42.6220 H   0  0  0  0  0  0  0  0  0  0  0  0
   40.5530   31.2920   41.4440 H   0  0  0  0  0  0  0  0  0  0  0  0
   39.8430   28.9550   41.3480 H   0  0  0  0  0  0  0  0  0  0  0  0
   38.8340   27.9060   43.3610 H   0  0  0  0  0  0  0  0  0  0  0  0
   38.5580   29.1820   45.3820 H   0  0  0  0  0  0  0  0  0  0  0  0
   34.9690   28.8900   48.7870 C   0  0  0  0  0  0  0  0  0  0  0  0
   35.6100   29.8190   47.9050 C   0  0  0  0  0  0  0  0  0  0  0  0
   36.6210   30.6060   48.4200 C   0  0  0  0  0  0  0  0  0  0  0  0
   36.9450   30.4450   49.7530 N   0  0  0  0  0  0  0  0  0  0  0  0
   36.3270   29.5690   50.5460 C   0  0  0  0  0  0  0  0  0  0  0  0
   35.3360   28.7810   50.0880 N   0  0  0  0  0  0  0  0  0  0  0  0
   34.1840   28.2800   48.3850 H   0  0  0  0  0  0  0  0  0  0  0  0
   35.2800   29.8640   46.8790 H   0  0  0  0  0  0  0  0  0  0  0  0
   38.3040   27.8020   51.5480 N   0  0  0  0  0  0  0  0  0  0  0  0
   37.9020   28.7910   52.3070 C   0  0  0  0  0  0  0  0  0  0  0  0
   36.7100   29.4460   51.9220 N   0  0  0  0  0  0  0  0  0  0  0  0
   38.5950   29.2390   53.4900 N   0  0  0  0  0  0  0  0  0  0  0  0
   38.1290   29.3720   54.4160 H   0  0  0  0  0  0  0  0  0  0  0  0
   39.2010   27.3460   51.8790 H   0  0  0  0  0  0  0  0  0  0  0  0
   36.0840   29.8540   52.6670 H   0  0  0  0  0  0  0  0  0  0  0  0
   39.6150   29.4130   53.3110 H   0  0  0  0  0  0  0  0  0  0  0  0
  1  4  1  6  0  0  0
  1  2  1  0  0  0  0
  1 27  1  0  0  0  0
  2  5  1  0  0  0  0
  3  7  1  1  0  0  0
  3  1  1  0  0  0  0
  3  2  1  0  0  0  0
  6  2  1  0  0  0  0
  8  9  1  0  0  0  0
  8  3  1  0  0  0  0
  9 18  1  0  0  0  0
 10  9  2  0  0  0  0
 11 10  1  0  0  0  0
 12 11  2  0  0  0  0
 12 17  1  0  0  0  0
 13 12  1  0  0  0  0
 14 13  2  0  0  0  0
 14 15  1  0  0  0  0
 15 16  2  0  0  0  0
 16 17  1  0  0  0  0
 16 24  1  0  0  0  0
 17  8  2  0  0  0  0
 19 10  1  0  0  0  0
 20 11  1  0  0  0  0
 21 13  1  0  0  0  0
 22 14  1  0  0  0  0
 23 15  1  0  0  0  0
 25 30  1  0  0  0  0
 26 27  1  0  0  0  0
 26 25  2  0  0  0  0
 27 28  2  0  0  0  0
 28 29  1  0  0  0  0
 29 35  1  0  0  0  0
 30 29  2  0  0  0  0
 31 25  1  0  0  0  0
 32 26  1  0  0  0  0
 33 38  1  0  0  0  0
 33 34  2  0  0  0  0
 34 36  1  0  0  0  0
 35 34  1  0  0  0  0
 35 39  1  0  0  0  0
 36 37  1  0  0  0  0
 40 36  1  0  0  0  0
M  END
>  <minimizedAffinity>
-5.23748255

>  <minimizedRMSD>
1.14994895

$$$$
