
 OpenBabel03272507363D

 18 18  0  0  0  0  0  0  0  0999 V2000
   37.0180   29.9890   51.1130 C   0  0  0  0  0  0  0  0  0  0  0  0
   37.2270   30.9250   50.0990 C   0  0  0  0  0  0  0  0  0  0  0  0
   36.1610   31.0890   49.2340 C   0  0  0  0  0  0  0  0  0  0  0  0
   35.0080   30.3810   49.3790 N   0  0  0  0  0  0  0  0  0  0  0  0
   34.8460   29.4820   50.3770 C   0  0  0  0  0  0  0  0  0  0  0  0
   35.8630   29.3180   51.2120 N   0  0  0  0  0  0  0  0  0  0  0  0
   36.1690   31.7770   48.4060 H   0  0  0  0  0  0  0  0  0  0  0  0
   33.9660   28.8860   50.5550 H   0  0  0  0  0  0  0  0  0  0  0  0
   38.1140   32.5870   47.8870 N   0  0  0  0  0  0  0  0  0  0  0  0
   38.6070   32.7830   49.0890 C   0  0  0  0  0  0  0  0  0  0  0  0
   38.4260   31.6700   49.9510 N   0  0  0  0  0  0  0  0  0  0  0  0
   39.2880   33.9390   49.6260 N   0  0  0  0  0  0  0  0  0  0  0  0
   40.1180   33.7250   50.2270 H   0  0  0  0  0  0  0  0  0  0  0  0
   38.2420   33.4000   47.2460 H   0  0  0  0  0  0  0  0  0  0  0  0
   39.2470   31.3520   50.5530 H   0  0  0  0  0  0  0  0  0  0  0  0
   38.8160   34.8390   49.3120 H   0  0  0  0  0  0  0  0  0  0  0  0
   38.1000   29.8490   51.9600 O   0  0  0  0  0  0  0  0  0  0  0  0
   38.1860   29.1450   52.6880 H   0  0  0  0  0  0  0  0  0  0  0  0
  1  6  1  0  0  0  0
  1 17  1  0  0  0  0
  2  1  2  0  0  0  0
  3  4  2  0  0  0  0
  3  2  1  0  0  0  0
  4  5  1  0  0  0  0
  5  8  1  0  0  0  0
  5  6  2  0  0  0  0
  7  3  1  0  0  0  0
  9 10  2  0  0  0  0
 10 12  1  0  0  0  0
 10 11  1  0  0  0  0
 11  2  1  0  0  0  0
 11 15  1  0  0  0  0
 12 13  1  0  0  0  0
 14  9  1  0  0  0  0
 16 12  1  0  0  0  0
 17 18  1  0  0  0  0
M  END
>  <minimizedAffinity>
-4.58082676

>  <minimizedRMSD>
1.2259593

$$$$
