
 OpenBabel03272509333D

 40 43  0  0  1  0  0  0  0  0999 V2000
   37.6070   32.1260   48.1940 C   0  0  1  0  0  0  0  0  0  0  0  0
   38.9420   32.6900   48.4610 C   0  0  0  0  0  0  0  0  0  0  0  0
   38.8780   31.5610   47.4970 C   0  0  2  0  0  0  0  0  0  0  0  0
   36.9600   32.5830   47.4650 H   0  0  0  0  0  0  0  0  0  0  0  0
   39.3680   32.4220   49.4760 H   0  0  0  0  0  0  0  0  0  0  0  0
   38.9840   33.7490   48.2920 H   0  0  0  0  0  0  0  0  0  0  0  0
   38.8760   30.4880   47.6060 H   0  0  0  0  0  0  0  0  0  0  0  0
   39.2050   32.0330   46.1250 C   0  0  0  0  0  0  0  0  0  0  0  0
   39.8620   33.2690   46.1750 C   0  0  0  0  0  0  0  0  0  0  0  0
   40.3360   33.8690   45.0270 C   0  0  0  0  0  0  0  0  0  0  0  0
   40.1760   33.2560   43.7790 C   0  0  0  0  0  0  0  0  0  0  0  0
   39.5290   32.0410   43.7570 C   0  0  0  0  0  0  0  0  0  0  0  0
   39.2860   31.3340   42.6030 C   0  0  0  0  0  0  0  0  0  0  0  0
   38.6220   30.1210   42.5740 C   0  0  0  0  0  0  0  0  0  0  0  0
   38.1730   29.5710   43.7510 C   0  0  0  0  0  0  0  0  0  0  0  0
   38.4080   30.2660   44.9160 C   0  0  0  0  0  0  0  0  0  0  0  0
   39.0700   31.4690   44.9060 C   0  0  0  0  0  0  0  0  0  0  0  0
   40.1580   33.9710   46.9250 H   0  0  0  0  0  0  0  0  0  0  0  0
   40.8550   34.8020   44.8890 H   0  0  0  0  0  0  0  0  0  0  0  0
   40.4850   33.5870   42.7970 H   0  0  0  0  0  0  0  0  0  0  0  0
   39.6260   31.7330   41.6430 H   0  0  0  0  0  0  0  0  0  0  0  0
   38.4480   29.5920   41.6390 H   0  0  0  0  0  0  0  0  0  0  0  0
   37.6550   28.6360   43.7910 H   0  0  0  0  0  0  0  0  0  0  0  0
   38.0410   29.8120   45.8540 H   0  0  0  0  0  0  0  0  0  0  0  0
   35.1320   29.9500   50.0170 C   0  0  0  0  0  0  0  0  0  0  0  0
   35.6840   30.8480   49.0490 C   0  0  0  0  0  0  0  0  0  0  0  0
   37.0150   31.1930   49.1740 C   0  0  0  0  0  0  0  0  0  0  0  0
   37.7240   30.6500   50.2270 N   0  0  0  0  0  0  0  0  0  0  0  0
   37.1780   29.8160   51.1110 C   0  0  0  0  0  0  0  0  0  0  0  0
   35.8840   29.4510   51.0300 N   0  0  0  0  0  0  0  0  0  0  0  0
   34.0980   29.6830   49.9190 H   0  0  0  0  0  0  0  0  0  0  0  0
   35.0420   31.2150   48.2630 H   0  0  0  0  0  0  0  0  0  0  0  0
   37.1850   27.1080   51.9510 N   0  0  0  0  0  0  0  0  0  0  0  0
   38.1620   27.8900   52.3410 C   0  0  0  0  0  0  0  0  0  0  0  0
   37.9660   29.2820   52.1830 N   0  0  0  0  0  0  0  0  0  0  0  0
   39.4010   27.4180   52.9090 N   0  0  0  0  0  0  0  0  0  0  0  0
   39.8000   27.7820   53.8050 H   0  0  0  0  0  0  0  0  0  0  0  0
   37.3810   26.0770   52.0910 H   0  0  0  0  0  0  0  0  0  0  0  0
   38.4100   29.9450   52.8730 H   0  0  0  0  0  0  0  0  0  0  0  0
   39.8490   26.6720   52.3220 H   0  0  0  0  0  0  0  0  0  0  0  0
  1  4  1  6  0  0  0
  1  2  1  0  0  0  0
  1 27  1  0  0  0  0
  2  5  1  0  0  0  0
  3  7  1  1  0  0  0
  3  1  1  0  0  0  0
  3  2  1  0  0  0  0
  6  2  1  0  0  0  0
  8  9  1  0  0  0  0
  8  3  1  0  0  0  0
  9 18  1  0  0  0  0
 10  9  2  0  0  0  0
 11 10  1  0  0  0  0
 12 11  2  0  0  0  0
 12 17  1  0  0  0  0
 13 12  1  0  0  0  0
 14 13  2  0  0  0  0
 14 15  1  0  0  0  0
 15 23  1  0  0  0  0
 15 16  2  0  0  0  0
 16 24  1  0  0  0  0
 17 16  1  0  0  0  0
 17  8  2  0  0  0  0
 19 10  1  0  0  0  0
 20 11  1  0  0  0  0
 21 13  1  0  0  0  0
 22 14  1  0  0  0  0
 25 30  1  0  0  0  0
 26 27  1  0  0  0  0
 26 25  2  0  0  0  0
 27 28  2  0  0  0  0
 28 29  1  0  0  0  0
 29 35  1  0  0  0  0
 30 29  2  0  0  0  0
 31 25  1  0  0  0  0
 32 26  1  0  0  0  0
 33 38  1  0  0  0  0
 33 34  2  0  0  0  0
 34 36  1  0  0  0  0
 35 34  1  0  0  0  0
 35 39  1  0  0  0  0
 36 37  1  0  0  0  0
 40 36  1  0  0  0  0
M  END
>  <minimizedAffinity>
-2.5830133

>  <minimizedRMSD>
0.585608065

$$$$
