
 OpenBabel03272509333D

 40 43  0  0  1  0  0  0  0  0999 V2000
   36.8690   31.0420   45.8610 C   0  0  1  0  0  0  0  0  0  0  0  0
   38.1450   31.7660   46.0090 C   0  0  0  0  0  0  0  0  0  0  0  0
   38.2210   30.3910   45.4500 C   0  0  2  0  0  0  0  0  0  0  0  0
   36.2550   31.1950   44.9910 H   0  0  0  0  0  0  0  0  0  0  0  0
   38.5060   31.8630   47.0780 H   0  0  0  0  0  0  0  0  0  0  0  0
   38.1370   32.7190   45.5150 H   0  0  0  0  0  0  0  0  0  0  0  0
   38.2740   29.4090   45.8930 H   0  0  0  0  0  0  0  0  0  0  0  0
   38.6250   30.4360   44.0190 C   0  0  0  0  0  0  0  0  0  0  0  0
   39.5780   31.4400   43.8090 C   0  0  0  0  0  0  0  0  0  0  0  0
   40.1620   31.6200   42.5730 C   0  0  0  0  0  0  0  0  0  0  0  0
   39.8200   30.7980   41.4930 C   0  0  0  0  0  0  0  0  0  0  0  0
   38.8830   29.8180   41.7250 C   0  0  0  0  0  0  0  0  0  0  0  0
   38.4380   28.9500   40.7540 C   0  0  0  0  0  0  0  0  0  0  0  0
   37.4850   27.9740   40.9790 C   0  0  0  0  0  0  0  0  0  0  0  0
   36.9380   27.8420   42.2330 C   0  0  0  0  0  0  0  0  0  0  0  0
   37.3720   28.7020   43.2170 C   0  0  0  0  0  0  0  0  0  0  0  0
   38.3200   29.6610   42.9560 C   0  0  0  0  0  0  0  0  0  0  0  0
   40.0630   32.1960   44.3900 H   0  0  0  0  0  0  0  0  0  0  0  0
   40.9000   32.3330   42.2440 H   0  0  0  0  0  0  0  0  0  0  0  0
   40.1790   30.8060   40.4730 H   0  0  0  0  0  0  0  0  0  0  0  0
   38.8460   29.0190   39.7420 H   0  0  0  0  0  0  0  0  0  0  0  0
   37.1590   27.3070   40.1840 H   0  0  0  0  0  0  0  0  0  0  0  0
   36.1990   27.1050   42.4660 H   0  0  0  0  0  0  0  0  0  0  0  0
   36.9240   28.5840   44.2200 H   0  0  0  0  0  0  0  0  0  0  0  0
   34.3190   29.6890   48.2800 C   0  0  0  0  0  0  0  0  0  0  0  0
   34.8860   30.2880   47.1100 C   0  0  0  0  0  0  0  0  0  0  0  0
   36.2600   30.4170   47.0520 C   0  0  0  0  0  0  0  0  0  0  0  0
   36.9940   29.9600   48.1280 N   0  0  0  0  0  0  0  0  0  0  0  0
   36.4330   29.4060   49.2030 C   0  0  0  0  0  0  0  0  0  0  0  0
   35.0980   29.2590   49.3040 N   0  0  0  0  0  0  0  0  0  0  0  0
   33.2520   29.5890   48.3230 H   0  0  0  0  0  0  0  0  0  0  0  0
   34.2210   30.6110   46.3250 H   0  0  0  0  0  0  0  0  0  0  0  0
   38.1930   31.0210   50.7290 N   0  0  0  0  0  0  0  0  0  0  0  0
   37.8500   29.8470   51.1990 C   0  0  0  0  0  0  0  0  0  0  0  0
   37.2480   28.9480   50.2890 N   0  0  0  0  0  0  0  0  0  0  0  0
   38.0480   29.4320   52.5660 N   0  0  0  0  0  0  0  0  0  0  0  0
   38.5100   28.5330   52.8340 H   0  0  0  0  0  0  0  0  0  0  0  0
   38.6370   31.6570   51.4500 H   0  0  0  0  0  0  0  0  0  0  0  0
   37.4040   27.9110   50.4120 H   0  0  0  0  0  0  0  0  0  0  0  0
   37.6760   30.1340   53.2520 H   0  0  0  0  0  0  0  0  0  0  0  0
  1  4  1  6  0  0  0
  1  2  1  0  0  0  0
  1 27  1  0  0  0  0
  2  5  1  0  0  0  0
  3  1  1  0  0  0  0
  3  7  1  1  0  0  0
  3  2  1  0  0  0  0
  6  2  1  0  0  0  0
  8  3  1  0  0  0  0
  9  8  1  0  0  0  0
  9 18  1  0  0  0  0
 10  9  2  0  0  0  0
 11 12  2  0  0  0  0
 11 10  1  0  0  0  0
 12 17  1  0  0  0  0
 13 14  2  0  0  0  0
 13 12  1  0  0  0  0
 14 15  1  0  0  0  0
 15 23  1  0  0  0  0
 15 16  2  0  0  0  0
 16 24  1  0  0  0  0
 17 16  1  0  0  0  0
 17  8  2  0  0  0  0
 19 10  1  0  0  0  0
 20 11  1  0  0  0  0
 21 13  1  0  0  0  0
 22 14  1  0  0  0  0
 25 31  1  0  0  0  0
 25 30  1  0  0  0  0
 26 25  2  0  0  0  0
 27 26  1  0  0  0  0
 27 28  2  0  0  0  0
 28 29  1  0  0  0  0
 29 30  2  0  0  0  0
 29 35  1  0  0  0  0
 32 26  1  0  0  0  0
 33 34  2  0  0  0  0
 33 38  1  0  0  0  0
 34 36  1  0  0  0  0
 35 39  1  0  0  0  0
 35 34  1  0  0  0  0
 36 37  1  0  0  0  0
 36 40  1  0  0  0  0
M  END
>  <minimizedAffinity>
-5.2460928

>  <minimizedRMSD>
2.99522233

$$$$
