
 OpenBabel03272509333D

 40 43  0  0  1  0  0  0  0  0999 V2000
   37.3170   31.8350   47.3220 C   0  0  1  0  0  0  0  0  0  0  0  0
   38.7000   32.3170   47.4860 C   0  0  0  0  0  0  0  0  0  0  0  0
   38.4460   31.3980   46.3460 C   0  0  2  0  0  0  0  0  0  0  0  0
   36.5910   32.4340   46.8000 H   0  0  0  0  0  0  0  0  0  0  0  0
   39.2570   31.8520   48.3550 H   0  0  0  0  0  0  0  0  0  0  0  0
   38.7620   33.3890   47.5160 H   0  0  0  0  0  0  0  0  0  0  0  0
   38.4140   30.3250   46.2490 H   0  0  0  0  0  0  0  0  0  0  0  0
   38.5900   32.1220   45.0550 C   0  0  0  0  0  0  0  0  0  0  0  0
   39.7240   32.9440   45.0770 C   0  0  0  0  0  0  0  0  0  0  0  0
   40.1080   33.6550   43.9600 C   0  0  0  0  0  0  0  0  0  0  0  0
   39.3750   33.5720   42.7700 C   0  0  0  0  0  0  0  0  0  0  0  0
   38.2660   32.7570   42.7740 C   0  0  0  0  0  0  0  0  0  0  0  0
   37.4440   32.5930   41.6840 C   0  0  0  0  0  0  0  0  0  0  0  0
   36.3200   31.7870   41.6880 C   0  0  0  0  0  0  0  0  0  0  0  0
   35.9870   31.1010   42.8310 C   0  0  0  0  0  0  0  0  0  0  0  0
   36.7990   31.2540   43.9320 C   0  0  0  0  0  0  0  0  0  0  0  0
   37.9080   32.0640   43.8920 C   0  0  0  0  0  0  0  0  0  0  0  0
   40.4860   33.2120   45.7770 H   0  0  0  0  0  0  0  0  0  0  0  0
   40.9390   34.3240   43.8070 H   0  0  0  0  0  0  0  0  0  0  0  0
   39.5380   34.0580   41.8180 H   0  0  0  0  0  0  0  0  0  0  0  0
   37.6700   33.1190   40.7520 H   0  0  0  0  0  0  0  0  0  0  0  0
   35.6930   31.6840   40.8050 H   0  0  0  0  0  0  0  0  0  0  0  0
   35.1310   30.4630   42.8940 H   0  0  0  0  0  0  0  0  0  0  0  0
   36.5200   30.6960   44.8450 H   0  0  0  0  0  0  0  0  0  0  0  0
   35.0620   29.3060   48.9680 C   0  0  0  0  0  0  0  0  0  0  0  0
   35.5080   30.3640   48.1130 C   0  0  0  0  0  0  0  0  0  0  0  0
   36.8350   30.7390   48.1860 C   0  0  0  0  0  0  0  0  0  0  0  0
   37.6440   30.0670   49.0800 N   0  0  0  0  0  0  0  0  0  0  0  0
   37.1960   29.0840   49.8620 C   0  0  0  0  0  0  0  0  0  0  0  0
   35.9100   28.6850   49.8260 N   0  0  0  0  0  0  0  0  0  0  0  0
   34.0320   29.0170   48.9100 H   0  0  0  0  0  0  0  0  0  0  0  0
   34.7920   30.8230   47.4490 H   0  0  0  0  0  0  0  0  0  0  0  0
   38.1690   30.1710   52.2930 N   0  0  0  0  0  0  0  0  0  0  0  0
   38.2740   28.8800   52.0940 C   0  0  0  0  0  0  0  0  0  0  0  0
   38.0860   28.4210   50.7700 N   0  0  0  0  0  0  0  0  0  0  0  0
   38.5660   27.9210   53.1320 N   0  0  0  0  0  0  0  0  0  0  0  0
   39.3200   27.2030   53.0570 H   0  0  0  0  0  0  0  0  0  0  0  0
   38.3190   30.4630   53.3000 H   0  0  0  0  0  0  0  0  0  0  0  0
   38.6130   27.5690   50.4420 H   0  0  0  0  0  0  0  0  0  0  0  0
   37.9340   28.0320   53.9640 H   0  0  0  0  0  0  0  0  0  0  0  0
  1  4  1  6  0  0  0
  1  2  1  0  0  0  0
  1 27  1  0  0  0  0
  2  6  1  0  0  0  0
  2  5  1  0  0  0  0
  3  7  1  1  0  0  0
  3  1  1  0  0  0  0
  3  2  1  0  0  0  0
  8  9  1  0  0  0  0
  8  3  1  0  0  0  0
  9 18  1  0  0  0  0
 10  9  2  0  0  0  0
 11 12  2  0  0  0  0
 11 10  1  0  0  0  0
 12 17  1  0  0  0  0
 13 14  2  0  0  0  0
 13 12  1  0  0  0  0
 14 15  1  0  0  0  0
 15 23  1  0  0  0  0
 15 16  2  0  0  0  0
 16 24  1  0  0  0  0
 17 16  1  0  0  0  0
 17  8  2  0  0  0  0
 19 10  1  0  0  0  0
 20 11  1  0  0  0  0
 21 13  1  0  0  0  0
 22 14  1  0  0  0  0
 25 30  1  0  0  0  0
 26 27  1  0  0  0  0
 26 25  2  0  0  0  0
 27 28  2  0  0  0  0
 28 29  1  0  0  0  0
 29 35  1  0  0  0  0
 30 29  2  0  0  0  0
 31 25  1  0  0  0  0
 32 26  1  0  0  0  0
 33 38  1  0  0  0  0
 34 33  2  0  0  0  0
 34 36  1  0  0  0  0
 35 34  1  0  0  0  0
 36 40  1  0  0  0  0
 37 36  1  0  0  0  0
 39 35  1  0  0  0  0
M  END
>  <minimizedAffinity>
-4.30717421

>  <minimizedRMSD>
2.16245294

$$$$
