
 OpenBabel03272509333D

 40 43  0  0  1  0  0  0  0  0999 V2000
   37.4150   31.7100   47.6780 C   0  0  1  0  0  0  0  0  0  0  0  0
   38.5970   32.4730   48.1170 C   0  0  0  0  0  0  0  0  0  0  0  0
   38.8440   31.3350   47.1930 C   0  0  2  0  0  0  0  0  0  0  0  0
   36.8230   32.0550   46.8480 H   0  0  0  0  0  0  0  0  0  0  0  0
   38.9030   32.2860   49.1910 H   0  0  0  0  0  0  0  0  0  0  0  0
   38.5070   33.5240   47.9180 H   0  0  0  0  0  0  0  0  0  0  0  0
   38.9850   30.2760   47.3380 H   0  0  0  0  0  0  0  0  0  0  0  0
   39.2990   31.8340   45.8670 C   0  0  0  0  0  0  0  0  0  0  0  0
   39.6980   33.1730   45.9570 C   0  0  0  0  0  0  0  0  0  0  0  0
   40.2330   33.8300   44.8700 C   0  0  0  0  0  0  0  0  0  0  0  0
   40.3960   33.1730   43.6450 C   0  0  0  0  0  0  0  0  0  0  0  0
   39.9980   31.8570   43.5820 C   0  0  0  0  0  0  0  0  0  0  0  0
   40.0830   31.0940   42.4410 C   0  0  0  0  0  0  0  0  0  0  0  0
   39.6690   29.7770   42.3700 C   0  0  0  0  0  0  0  0  0  0  0  0
   39.1430   29.1740   43.4870 C   0  0  0  0  0  0  0  0  0  0  0  0
   39.0510   29.9230   44.6390 C   0  0  0  0  0  0  0  0  0  0  0  0
   39.4710   31.2310   44.6720 C   0  0  0  0  0  0  0  0  0  0  0  0
   39.7310   33.9340   46.7080 H   0  0  0  0  0  0  0  0  0  0  0  0
   40.5850   34.8430   44.7670 H   0  0  0  0  0  0  0  0  0  0  0  0
   40.7940   33.5390   42.7070 H   0  0  0  0  0  0  0  0  0  0  0  0
   40.4950   31.5320   41.5280 H   0  0  0  0  0  0  0  0  0  0  0  0
   39.7520   29.2060   41.4470 H   0  0  0  0  0  0  0  0  0  0  0  0
   38.8080   28.1580   43.4930 H   0  0  0  0  0  0  0  0  0  0  0  0
   38.6270   29.4260   45.5290 H   0  0  0  0  0  0  0  0  0  0  0  0
   35.3300   28.8710   49.0130 C   0  0  0  0  0  0  0  0  0  0  0  0
   35.8920   29.8230   48.1030 C   0  0  0  0  0  0  0  0  0  0  0  0
   36.8290   30.7110   48.5940 C   0  0  0  0  0  0  0  0  0  0  0  0
   37.1610   30.6220   49.9310 N   0  0  0  0  0  0  0  0  0  0  0  0
   36.6180   29.7210   50.7510 C   0  0  0  0  0  0  0  0  0  0  0  0
   35.7010   28.8360   50.3180 N   0  0  0  0  0  0  0  0  0  0  0  0
   34.6030   28.1830   48.6310 H   0  0  0  0  0  0  0  0  0  0  0  0
   35.5630   29.8070   47.0760 H   0  0  0  0  0  0  0  0  0  0  0  0
   38.3010   27.7620   51.9200 N   0  0  0  0  0  0  0  0  0  0  0  0
   38.0820   28.8750   52.5760 C   0  0  0  0  0  0  0  0  0  0  0  0
   37.0050   29.6750   52.1310 N   0  0  0  0  0  0  0  0  0  0  0  0
   38.8640   29.3190   53.7030 N   0  0  0  0  0  0  0  0  0  0  0  0
   38.4460   29.6200   54.6120 H   0  0  0  0  0  0  0  0  0  0  0  0
   39.1180   27.2000   52.2920 H   0  0  0  0  0  0  0  0  0  0  0  0
   36.4700   30.2530   52.8330 H   0  0  0  0  0  0  0  0  0  0  0  0
   39.8940   29.3040   53.5030 H   0  0  0  0  0  0  0  0  0  0  0  0
  1  4  1  6  0  0  0
  1  2  1  0  0  0  0
  1 27  1  0  0  0  0
  2  5  1  0  0  0  0
  3  7  1  1  0  0  0
  3  1  1  0  0  0  0
  3  2  1  0  0  0  0
  6  2  1  0  0  0  0
  8  9  1  0  0  0  0
  8  3  1  0  0  0  0
  9 18  1  0  0  0  0
 10  9  2  0  0  0  0
 11 10  1  0  0  0  0
 12 11  2  0  0  0  0
 12 17  1  0  0  0  0
 13 12  1  0  0  0  0
 14 13  2  0  0  0  0
 14 15  1  0  0  0  0
 15 23  1  0  0  0  0
 15 16  2  0  0  0  0
 16 17  1  0  0  0  0
 16 24  1  0  0  0  0
 17  8  2  0  0  0  0
 19 10  1  0  0  0  0
 20 11  1  0  0  0  0
 21 13  1  0  0  0  0
 22 14  1  0  0  0  0
 25 30  1  0  0  0  0
 26 27  1  0  0  0  0
 26 25  2  0  0  0  0
 27 28  2  0  0  0  0
 28 29  1  0  0  0  0
 29 35  1  0  0  0  0
 30 29  2  0  0  0  0
 31 25  1  0  0  0  0
 32 26  1  0  0  0  0
 33 38  1  0  0  0  0
 33 34  2  0  0  0  0
 34 36  1  0  0  0  0
 35 34  1  0  0  0  0
 35 39  1  0  0  0  0
 36 37  1  0  0  0  0
 40 36  1  0  0  0  0
M  END
>  <minimizedAffinity>
-4.81482077

>  <minimizedRMSD>
0.90747565

$$$$
