
 OpenBabel03272509333D

 40 43  0  0  1  0  0  0  0  0999 V2000
   36.7620   30.9630   45.9410 C   0  0  1  0  0  0  0  0  0  0  0  0
   37.9640   31.6890   46.3890 C   0  0  0  0  0  0  0  0  0  0  0  0
   38.1880   30.3810   45.7200 C   0  0  2  0  0  0  0  0  0  0  0  0
   36.3080   31.1950   44.9940 H   0  0  0  0  0  0  0  0  0  0  0  0
   38.1250   31.6810   47.5100 H   0  0  0  0  0  0  0  0  0  0  0  0
   38.0120   32.6880   45.9980 H   0  0  0  0  0  0  0  0  0  0  0  0
   38.1950   29.3600   46.0660 H   0  0  0  0  0  0  0  0  0  0  0  0
   38.8390   30.5800   44.3980 C   0  0  0  0  0  0  0  0  0  0  0  0
   39.1030   31.9380   44.1800 C   0  0  0  0  0  0  0  0  0  0  0  0
   39.7780   32.3600   43.0540 C   0  0  0  0  0  0  0  0  0  0  0  0
   40.2200   31.4400   42.0970 C   0  0  0  0  0  0  0  0  0  0  0  0
   39.9500   30.1120   42.3340 C   0  0  0  0  0  0  0  0  0  0  0  0
   40.3090   29.1010   41.4730 C   0  0  0  0  0  0  0  0  0  0  0  0
   40.0250   27.7670   41.7000 C   0  0  0  0  0  0  0  0  0  0  0  0
   39.3500   27.4050   42.8420 C   0  0  0  0  0  0  0  0  0  0  0  0
   38.9840   28.4050   43.7150 C   0  0  0  0  0  0  0  0  0  0  0  0
   39.2810   29.7200   43.4550 C   0  0  0  0  0  0  0  0  0  0  0  0
   38.9340   32.8630   44.6910 H   0  0  0  0  0  0  0  0  0  0  0  0
   40.0580   33.3500   42.7360 H   0  0  0  0  0  0  0  0  0  0  0  0
   40.7550   31.6030   41.1710 H   0  0  0  0  0  0  0  0  0  0  0  0
   40.8470   29.3420   40.5520 H   0  0  0  0  0  0  0  0  0  0  0  0
   40.3250   26.9950   40.9930 H   0  0  0  0  0  0  0  0  0  0  0  0
   39.1050   26.3900   43.0710 H   0  0  0  0  0  0  0  0  0  0  0  0
   38.4420   28.1000   44.6280 H   0  0  0  0  0  0  0  0  0  0  0  0
   33.9870   28.9880   47.5490 C   0  0  0  0  0  0  0  0  0  0  0  0
   34.7400   29.7060   46.5650 C   0  0  0  0  0  0  0  0  0  0  0  0
   35.9720   30.2080   46.9340 C   0  0  0  0  0  0  0  0  0  0  0  0
   36.3960   29.9850   48.2290 N   0  0  0  0  0  0  0  0  0  0  0  0
   35.6700   29.3100   49.1200 C   0  0  0  0  0  0  0  0  0  0  0  0
   34.4620   28.8020   48.8060 N   0  0  0  0  0  0  0  0  0  0  0  0
   33.0310   28.5980   47.2610 H   0  0  0  0  0  0  0  0  0  0  0  0
   34.3160   29.8240   45.5800 H   0  0  0  0  0  0  0  0  0  0  0  0
   38.3560   29.6770   49.9470 N   0  0  0  0  0  0  0  0  0  0  0  0
   37.4200   29.6080   50.8620 C   0  0  0  0  0  0  0  0  0  0  0  0
   36.1640   29.1070   50.4500 N   0  0  0  0  0  0  0  0  0  0  0  0
   37.6010   30.0040   52.2370 N   0  0  0  0  0  0  0  0  0  0  0  0
   37.3480   29.3970   53.0490 H   0  0  0  0  0  0  0  0  0  0  0  0
   39.2770   30.0580   50.3050 H   0  0  0  0  0  0  0  0  0  0  0  0
   35.5740   28.5710   51.1410 H   0  0  0  0  0  0  0  0  0  0  0  0
   38.0110   30.9670   52.3220 H   0  0  0  0  0  0  0  0  0  0  0  0
  1  4  1  6  0  0  0
  1  2  1  0  0  0  0
  1 27  1  0  0  0  0
  2  5  1  0  0  0  0
  3  1  1  0  0  0  0
  3  7  1  1  0  0  0
  3  2  1  0  0  0  0
  6  2  1  0  0  0  0
  8  3  1  0  0  0  0
  9  8  1  0  0  0  0
  9 18  1  0  0  0  0
 10  9  2  0  0  0  0
 11 12  2  0  0  0  0
 11 10  1  0  0  0  0
 12 17  1  0  0  0  0
 13 14  2  0  0  0  0
 13 12  1  0  0  0  0
 14 15  1  0  0  0  0
 15 23  1  0  0  0  0
 15 16  2  0  0  0  0
 16 24  1  0  0  0  0
 17 16  1  0  0  0  0
 17  8  2  0  0  0  0
 19 10  1  0  0  0  0
 20 11  1  0  0  0  0
 21 13  1  0  0  0  0
 22 14  1  0  0  0  0
 25 30  1  0  0  0  0
 26 27  1  0  0  0  0
 26 25  2  0  0  0  0
 27 28  2  0  0  0  0
 28 29  1  0  0  0  0
 29 35  1  0  0  0  0
 30 29  2  0  0  0  0
 31 25  1  0  0  0  0
 32 26  1  0  0  0  0
 33 38  1  0  0  0  0
 33 34  2  0  0  0  0
 34 36  1  0  0  0  0
 35 34  1  0  0  0  0
 35 39  1  0  0  0  0
 36 40  1  0  0  0  0
 36 37  1  0  0  0  0
M  END
>  <minimizedAffinity>
-6.21860504

>  <minimizedRMSD>
2.80004168

$$$$
