
 OpenBabel03262522263D

 44 46  0  0  0  0  0  0  0  0999 V2000
   36.2390   27.8650   32.4630 C   0  0  0  0  0  0  0  0  0  0  0  0
   36.0190   28.6080   33.6170 C   0  0  0  0  0  0  0  0  0  0  0  0
   36.7210   28.2490   34.7360 C   0  0  0  0  0  0  0  0  0  0  0  0
   37.5820   27.1950   34.6490 N   0  0  0  0  0  0  0  0  0  0  0  0
   37.7600   26.5240   33.5470 C   0  0  0  0  0  0  0  0  0  0  0  0
   37.0850   26.8360   32.3880 N   0  0  0  0  0  0  0  0  0  0  0  0
   35.7250   28.0840   31.5400 H   0  0  0  0  0  0  0  0  0  0  0  0
   36.5970   28.7960   35.6720 H   0  0  0  0  0  0  0  0  0  0  0  0
   35.1300   29.6350   33.5660 O   0  0  0  0  0  0  0  0  0  0  0  0
   34.9760   30.4640   34.6690 C   0  0  0  0  0  0  0  0  0  0  0  0
   35.8820   31.3730   35.1790 C   0  0  0  0  0  0  0  0  0  0  0  0
   35.5520   32.0960   36.2660 C   0  0  0  0  0  0  0  0  0  0  0  0
   34.3240   31.9100   36.8400 C   0  0  0  0  0  0  0  0  0  0  0  0
   33.4160   30.9910   36.3200 C   0  0  0  0  0  0  0  0  0  0  0  0
   33.7710   30.2740   35.2230 N   0  0  0  0  0  0  0  0  0  0  0  0
   36.8270   31.4370   34.6530 H   0  0  0  0  0  0  0  0  0  0  0  0
   36.2670   32.7960   36.6490 H   0  0  0  0  0  0  0  0  0  0  0  0
   34.0640   32.4970   37.7210 H   0  0  0  0  0  0  0  0  0  0  0  0
   32.0640   30.8000   36.9760 C   0  0  0  0  0  0  0  0  0  0  0  0
   32.1230   29.8790   37.5910 H   0  0  0  0  0  0  0  0  0  0  0  0
   31.7830   31.7040   37.5210 H   0  0  0  0  0  0  0  0  0  0  0  0
   31.3490   30.5900   36.1610 H   0  0  0  0  0  0  0  0  0  0  0  0
   38.9620   25.1840   33.7400 S   0  0  0  0  0  0  0  0  0  0  0  0
   37.9950   23.7930   34.3930 C   0  0  0  0  0  0  0  0  0  0  0  0
   36.9450   24.0180   34.1860 H   0  0  0  0  0  0  0  0  0  0  0  0
   38.2320   22.8360   33.8930 H   0  0  0  0  0  0  0  0  0  0  0  0
   39.8680   21.9710   35.2350 F   0  0  0  0  0  0  0  0  0  0  0  0
   39.2450   22.7680   36.1730 C   0  0  0  0  0  0  0  0  0  0  0  0
   38.2920   23.7190   35.8650 C   0  0  0  0  0  0  0  0  0  0  0  0
   37.7080   24.4830   36.8270 C   0  0  0  0  0  0  0  0  0  0  0  0
   38.0580   24.3310   38.1750 C   0  0  0  0  0  0  0  0  0  0  0  0
   39.0140   23.3800   38.4930 C   0  0  0  0  0  0  0  0  0  0  0  0
   39.5980   22.6120   37.5170 C   0  0  0  0  0  0  0  0  0  0  0  0
   36.9790   25.1860   36.4420 H   0  0  0  0  0  0  0  0  0  0  0  0
   37.5500   24.9760   38.8840 H   0  0  0  0  0  0  0  0  0  0  0  0
   39.2320   23.3230   39.5250 H   0  0  0  0  0  0  0  0  0  0  0  0
   42.4630   22.6470   37.0050 N   0  0  0  0  0  0  0  0  0  0  0  0
   41.8300   21.5140   37.2090 C   0  0  0  0  0  0  0  0  0  0  0  0
   40.5860   21.6400   37.8440 N   0  0  0  0  0  0  0  0  0  0  0  0
   42.3350   20.2280   36.8320 N   0  0  0  0  0  0  0  0  0  0  0  0
   42.4360   19.5110   36.0520 H   0  0  0  0  0  0  0  0  0  0  0  0
   43.3820   22.5340   36.5340 H   0  0  0  0  0  0  0  0  0  0  0  0
   40.3860   20.9400   38.6240 H   0  0  0  0  0  0  0  0  0  0  0  0
   42.7750   19.9150   37.7420 H   0  0  0  0  0  0  0  0  0  0  0  0
  1  2  1  0  0  0  0
  2  3  2  0  0  0  0
  3  8  1  0  0  0  0
  4  3  1  0  0  0  0
  5 23  1  0  0  0  0
  5  4  2  0  0  0  0
  6  1  2  0  0  0  0
  6  5  1  0  0  0  0
  7  1  1  0  0  0  0
  9  2  1  0  0  0  0
  9 10  1  0  0  0  0
 10 11  2  0  0  0  0
 10 15  1  0  0  0  0
 11 12  1  0  0  0  0
 12 17  1  0  0  0  0
 12 13  2  0  0  0  0
 13 18  1  0  0  0  0
 14 13  1  0  0  0  0
 14 19  1  0  0  0  0
 15 14  2  0  0  0  0
 16 11  1  0  0  0  0
 19 21  1  0  0  0  0
 19 20  1  0  0  0  0
 22 19  1  0  0  0  0
 23 24  1  0  0  0  0
 24 29  1  0  0  0  0
 25 24  1  0  0  0  0
 26 24  1  0  0  0  0
 27 28  1  0  0  0  0
 28 33  1  0  0  0  0
 29 28  2  0  0  0  0
 29 30  1  0  0  0  0
 30 31  2  0  0  0  0
 31 32  1  0  0  0  0
 31 35  1  0  0  0  0
 32 36  1  0  0  0  0
 33 39  1  0  0  0  0
 33 32  2  0  0  0  0
 34 30  1  0  0  0  0
 37 38  2  0  0  0  0
 38 39  1  0  0  0  0
 39 43  1  0  0  0  0
 40 38  1  0  0  0  0
 40 44  1  0  0  0  0
 41 40  1  0  0  0  0
 42 37  1  0  0  0  0
M  END
>  <minimizedAffinity>
-6.57553291

$$$$

 OpenBabel03262522263D

 44 46  0  0  0  0  0  0  0  0999 V2000
   36.1470   25.1800   31.7480 C   0  0  0  0  0  0  0  0  0  0  0  0
   36.5370   23.9890   31.1480 C   0  0  0  0  0  0  0  0  0  0  0  0
   37.8660   23.8420   30.8520 C   0  0  0  0  0  0  0  0  0  0  0  0
   38.7130   24.8650   31.1600 N   0  0  0  0  0  0  0  0  0  0  0  0
   38.3080   25.9670   31.7230 C   0  0  0  0  0  0  0  0  0  0  0  0
   36.9850   26.1750   32.0460 N   0  0  0  0  0  0  0  0  0  0  0  0
   35.1190   25.3730   32.0130 H   0  0  0  0  0  0  0  0  0  0  0  0
   38.2360   22.9280   30.3850 H   0  0  0  0  0  0  0  0  0  0  0  0
   35.5870   23.0500   30.8940 O   0  0  0  0  0  0  0  0  0  0  0  0
   35.7300   21.7720   31.4150 C   0  0  0  0  0  0  0  0  0  0  0  0
   35.9540   20.5960   30.7260 C   0  0  0  0  0  0  0  0  0  0  0  0
   36.0680   19.4410   31.4100 C   0  0  0  0  0  0  0  0  0  0  0  0
   35.9580   19.4620   32.7740 C   0  0  0  0  0  0  0  0  0  0  0  0
   35.7320   20.6520   33.4620 C   0  0  0  0  0  0  0  0  0  0  0  0
   35.6210   21.8030   32.7500 N   0  0  0  0  0  0  0  0  0  0  0  0
   36.0180   20.6900   29.6500 H   0  0  0  0  0  0  0  0  0  0  0  0
   36.2410   18.5380   30.8600 H   0  0  0  0  0  0  0  0  0  0  0  0
   36.0510   18.5240   33.3210 H   0  0  0  0  0  0  0  0  0  0  0  0
   35.6100   20.6490   34.9710 C   0  0  0  0  0  0  0  0  0  0  0  0
   34.5300   20.7010   35.2140 H   0  0  0  0  0  0  0  0  0  0  0  0
   36.1380   19.7880   35.3870 H   0  0  0  0  0  0  0  0  0  0  0  0
   36.0580   21.5950   35.3220 H   0  0  0  0  0  0  0  0  0  0  0  0
   39.6600   27.1370   32.0080 S   0  0  0  0  0  0  0  0  0  0  0  0
   40.6940   26.3400   33.2690 C   0  0  0  0  0  0  0  0  0  0  0  0
   41.0830   25.4230   32.8210 H   0  0  0  0  0  0  0  0  0  0  0  0
   41.5620   26.9590   33.5630 H   0  0  0  0  0  0  0  0  0  0  0  0
   40.7010   23.8120   34.3410 F   0  0  0  0  0  0  0  0  0  0  0  0
   39.8840   24.7720   34.9030 C   0  0  0  0  0  0  0  0  0  0  0  0
   39.8010   26.0740   34.4500 C   0  0  0  0  0  0  0  0  0  0  0  0
   38.9820   26.9850   35.0410 C   0  0  0  0  0  0  0  0  0  0  0  0
   38.1880   26.6300   36.1390 C   0  0  0  0  0  0  0  0  0  0  0  0
   38.2640   25.3260   36.6000 C   0  0  0  0  0  0  0  0  0  0  0  0
   39.0930   24.4120   35.9990 C   0  0  0  0  0  0  0  0  0  0  0  0
   39.0190   27.9660   34.5810 H   0  0  0  0  0  0  0  0  0  0  0  0
   37.5600   27.4110   36.5570 H   0  0  0  0  0  0  0  0  0  0  0  0
   37.6440   25.1300   37.4320 H   0  0  0  0  0  0  0  0  0  0  0  0
   39.4650   23.4450   38.7190 N   0  0  0  0  0  0  0  0  0  0  0  0
   39.7720   22.6900   37.6880 C   0  0  0  0  0  0  0  0  0  0  0  0
   39.1770   23.0740   36.4780 N   0  0  0  0  0  0  0  0  0  0  0  0
   40.6400   21.5530   37.7520 N   0  0  0  0  0  0  0  0  0  0  0  0
   41.6450   21.2040   37.7360 H   0  0  0  0  0  0  0  0  0  0  0  0
   39.9140   23.1460   39.6060 H   0  0  0  0  0  0  0  0  0  0  0  0
   38.7680   22.2860   35.8870 H   0  0  0  0  0  0  0  0  0  0  0  0
   39.9330   20.7720   37.8600 H   0  0  0  0  0  0  0  0  0  0  0  0
  1  7  1  0  0  0  0
  1  6  1  0  0  0  0
  2  1  2  0  0  0  0
  3  2  1  0  0  0  0
  3  4  2  0  0  0  0
  4  5  1  0  0  0  0
  5 23  1  0  0  0  0
  5  6  2  0  0  0  0
  8  3  1  0  0  0  0
  9  2  1  0  0  0  0
  9 10  1  0  0  0  0
 10 15  1  0  0  0  0
 11 12  1  0  0  0  0
 11 10  2  0  0  0  0
 12 13  2  0  0  0  0
 13 18  1  0  0  0  0
 13 14  1  0  0  0  0
 14 19  1  0  0  0  0
 15 14  2  0  0  0  0
 16 11  1  0  0  0  0
 17 12  1  0  0  0  0
 19 20  1  0  0  0  0
 19 22  1  0  0  0  0
 19 21  1  0  0  0  0
 23 24  1  0  0  0  0
 24 26  1  0  0  0  0
 24 29  1  0  0  0  0
 25 24  1  0  0  0  0
 27 28  1  0  0  0  0
 28 33  1  0  0  0  0
 29 28  2  0  0  0  0
 29 30  1  0  0  0  0
 30 31  2  0  0  0  0
 31 35  1  0  0  0  0
 31 32  1  0  0  0  0
 32 36  1  0  0  0  0
 33 39  1  0  0  0  0
 33 32  2  0  0  0  0
 34 30  1  0  0  0  0
 37 42  1  0  0  0  0
 38 40  1  0  0  0  0
 38 37  2  0  0  0  0
 39 38  1  0  0  0  0
 40 44  1  0  0  0  0
 41 40  1  0  0  0  0
 43 39  1  0  0  0  0
M  END
>  <minimizedAffinity>
-6.50561476

$$$$

 OpenBabel03262522263D

 44 46  0  0  0  0  0  0  0  0999 V2000
   37.5360   25.3350   30.9270 C   0  0  0  0  0  0  0  0  0  0  0  0
   36.2450   25.8350   31.0510 C   0  0  0  0  0  0  0  0  0  0  0  0
   35.2380   24.9270   31.2440 C   0  0  0  0  0  0  0  0  0  0  0  0
   35.5630   23.6040   31.3000 N   0  0  0  0  0  0  0  0  0  0  0  0
   36.7860   23.1760   31.1780 C   0  0  0  0  0  0  0  0  0  0  0  0
   37.8430   24.0370   30.9830 N   0  0  0  0  0  0  0  0  0  0  0  0
   38.3830   25.9840   30.7720 H   0  0  0  0  0  0  0  0  0  0  0  0
   34.2040   25.2560   31.3550 H   0  0  0  0  0  0  0  0  0  0  0  0
   36.0610   27.1790   30.9750 O   0  0  0  0  0  0  0  0  0  0  0  0
   35.8790   27.9130   32.1390 C   0  0  0  0  0  0  0  0  0  0  0  0
   34.9610   28.9180   32.3730 C   0  0  0  0  0  0  0  0  0  0  0  0
   34.9320   29.5190   33.5780 C   0  0  0  0  0  0  0  0  0  0  0  0
   35.8170   29.1190   34.5420 C   0  0  0  0  0  0  0  0  0  0  0  0
   36.7410   28.1050   34.2980 C   0  0  0  0  0  0  0  0  0  0  0  0
   36.7500   27.5140   33.0760 N   0  0  0  0  0  0  0  0  0  0  0  0
   34.3120   29.1610   31.5410 H   0  0  0  0  0  0  0  0  0  0  0  0
   34.2140   30.2970   33.7430 H   0  0  0  0  0  0  0  0  0  0  0  0
   35.7890   29.6110   35.5140 H   0  0  0  0  0  0  0  0  0  0  0  0
   37.7120   27.6830   35.3810 C   0  0  0  0  0  0  0  0  0  0  0  0
   38.6870   28.1590   35.1520 H   0  0  0  0  0  0  0  0  0  0  0  0
   37.3010   27.9180   36.3640 H   0  0  0  0  0  0  0  0  0  0  0  0
   37.8570   26.5950   35.2620 H   0  0  0  0  0  0  0  0  0  0  0  0
   36.9040   21.3720   31.2950 S   0  0  0  0  0  0  0  0  0  0  0  0
   37.0670   21.0400   33.0720 C   0  0  0  0  0  0  0  0  0  0  0  0
   36.2860   21.6180   33.5720 H   0  0  0  0  0  0  0  0  0  0  0  0
   36.9030   19.9760   33.3250 H   0  0  0  0  0  0  0  0  0  0  0  0
   37.3740   22.3370   35.4730 F   0  0  0  0  0  0  0  0  0  0  0  0
   38.4860   22.1190   34.6860 C   0  0  0  0  0  0  0  0  0  0  0  0
   38.4520   21.4770   33.4640 C   0  0  0  0  0  0  0  0  0  0  0  0
   39.5780   21.2830   32.7270 C   0  0  0  0  0  0  0  0  0  0  0  0
   40.8230   21.7330   33.1870 C   0  0  0  0  0  0  0  0  0  0  0  0
   40.8670   22.3790   34.4110 C   0  0  0  0  0  0  0  0  0  0  0  0
   39.7260   22.5700   35.1500 C   0  0  0  0  0  0  0  0  0  0  0  0
   39.4030   20.7660   31.7910 H   0  0  0  0  0  0  0  0  0  0  0  0
   41.6760   21.5420   32.5430 H   0  0  0  0  0  0  0  0  0  0  0  0
   41.8360   22.6860   34.6970 H   0  0  0  0  0  0  0  0  0  0  0  0
   40.7160   21.5900   37.7050 N   0  0  0  0  0  0  0  0  0  0  0  0
   39.8530   22.5790   37.6520 C   0  0  0  0  0  0  0  0  0  0  0  0
   39.7730   23.2280   36.4120 N   0  0  0  0  0  0  0  0  0  0  0  0
   39.0370   22.9960   38.7530 N   0  0  0  0  0  0  0  0  0  0  0  0
   38.1390   22.8360   39.3000 H   0  0  0  0  0  0  0  0  0  0  0  0
   40.7610   21.1230   38.6310 H   0  0  0  0  0  0  0  0  0  0  0  0
   39.7420   24.2930   36.4430 H   0  0  0  0  0  0  0  0  0  0  0  0
   39.6200   23.7910   39.1390 H   0  0  0  0  0  0  0  0  0  0  0  0
  1  6  2  0  0  0  0
  1  2  1  0  0  0  0
  2  3  2  0  0  0  0
  3  4  1  0  0  0  0
  3  8  1  0  0  0  0
  5 23  1  0  0  0  0
  5  4  2  0  0  0  0
  6  5  1  0  0  0  0
  7  1  1  0  0  0  0
  9  2  1  0  0  0  0
  9 10  1  0  0  0  0
 10 11  2  0  0  0  0
 10 15  1  0  0  0  0
 11 12  1  0  0  0  0
 12 17  1  0  0  0  0
 12 13  2  0  0  0  0
 13 18  1  0  0  0  0
 14 13  1  0  0  0  0
 14 19  1  0  0  0  0
 15 14  2  0  0  0  0
 16 11  1  0  0  0  0
 19 21  1  0  0  0  0
 20 19  1  0  0  0  0
 22 19  1  0  0  0  0
 23 24  1  0  0  0  0
 24 26  1  0  0  0  0
 24 29  1  0  0  0  0
 24 25  1  0  0  0  0
 28 33  1  0  0  0  0
 28 27  1  0  0  0  0
 29 28  2  0  0  0  0
 30 31  2  0  0  0  0
 30 29  1  0  0  0  0
 31 32  1  0  0  0  0
 32 36  1  0  0  0  0
 32 33  2  0  0  0  0
 33 39  1  0  0  0  0
 34 30  1  0  0  0  0
 35 31  1  0  0  0  0
 37 42  1  0  0  0  0
 38 37  2  0  0  0  0
 38 40  1  0  0  0  0
 39 43  1  0  0  0  0
 39 38  1  0  0  0  0
 40 44  1  0  0  0  0
 40 41  1  0  0  0  0
M  END
>  <minimizedAffinity>
-6.200284

$$$$

 OpenBabel03262522263D

 44 46  0  0  0  0  0  0  0  0999 V2000
   37.4420   25.6240   31.1910 C   0  0  0  0  0  0  0  0  0  0  0  0
   36.2800   26.3740   31.0680 C   0  0  0  0  0  0  0  0  0  0  0  0
   35.0950   25.6890   31.0130 C   0  0  0  0  0  0  0  0  0  0  0  0
   35.1320   24.3280   31.0790 N   0  0  0  0  0  0  0  0  0  0  0  0
   36.2450   23.6610   31.1940 C   0  0  0  0  0  0  0  0  0  0  0  0
   37.4680   24.2910   31.2560 N   0  0  0  0  0  0  0  0  0  0  0  0
   38.4150   26.0880   31.2420 H   0  0  0  0  0  0  0  0  0  0  0  0
   34.1470   26.2210   30.9220 H   0  0  0  0  0  0  0  0  0  0  0  0
   36.3850   27.7280   31.0130 O   0  0  0  0  0  0  0  0  0  0  0  0
   36.0340   28.4890   32.1190 C   0  0  0  0  0  0  0  0  0  0  0  0
   36.3480   28.2560   33.4430 C   0  0  0  0  0  0  0  0  0  0  0  0
   35.9160   29.1150   34.3860 C   0  0  0  0  0  0  0  0  0  0  0  0
   35.1720   30.1990   34.0070 C   0  0  0  0  0  0  0  0  0  0  0  0
   34.8580   30.4280   32.6690 C   0  0  0  0  0  0  0  0  0  0  0  0
   35.3060   29.5480   31.7370 N   0  0  0  0  0  0  0  0  0  0  0  0
   36.9350   27.3670   33.6350 H   0  0  0  0  0  0  0  0  0  0  0  0
   36.1680   28.9190   35.4080 H   0  0  0  0  0  0  0  0  0  0  0  0
   34.8240   30.8890   34.7750 H   0  0  0  0  0  0  0  0  0  0  0  0
   34.0300   31.6330   32.2750 C   0  0  0  0  0  0  0  0  0  0  0  0
   32.9940   31.2780   32.1040 H   0  0  0  0  0  0  0  0  0  0  0  0
   34.1330   32.4190   33.0260 H   0  0  0  0  0  0  0  0  0  0  0  0
   34.4150   31.9680   31.2960 H   0  0  0  0  0  0  0  0  0  0  0  0
   35.9760   21.8710   31.2560 S   0  0  0  0  0  0  0  0  0  0  0  0
   37.3770   21.2330   32.2200 C   0  0  0  0  0  0  0  0  0  0  0  0
   37.5480   20.2080   31.8820 H   0  0  0  0  0  0  0  0  0  0  0  0
   38.3100   21.7990   32.0430 H   0  0  0  0  0  0  0  0  0  0  0  0
   38.8710   22.8140   33.8950 F   0  0  0  0  0  0  0  0  0  0  0  0
   37.7930   22.1260   34.4140 C   0  0  0  0  0  0  0  0  0  0  0  0
   36.9710   21.3060   33.6660 C   0  0  0  0  0  0  0  0  0  0  0  0
   35.9170   20.6520   34.2240 C   0  0  0  0  0  0  0  0  0  0  0  0
   35.6270   20.7900   35.5870 C   0  0  0  0  0  0  0  0  0  0  0  0
   36.4460   21.6100   36.3450 C   0  0  0  0  0  0  0  0  0  0  0  0
   37.5080   22.2670   35.7760 C   0  0  0  0  0  0  0  0  0  0  0  0
   35.3600   20.0450   33.5190 H   0  0  0  0  0  0  0  0  0  0  0  0
   34.7700   20.2370   35.9590 H   0  0  0  0  0  0  0  0  0  0  0  0
   36.1660   21.6710   37.3610 H   0  0  0  0  0  0  0  0  0  0  0  0
   40.0530   21.6770   37.0590 N   0  0  0  0  0  0  0  0  0  0  0  0
   39.3040   22.6720   37.4750 C   0  0  0  0  0  0  0  0  0  0  0  0
   38.3450   23.1160   36.5530 N   0  0  0  0  0  0  0  0  0  0  0  0
   39.4250   23.2880   38.7630 N   0  0  0  0  0  0  0  0  0  0  0  0
   39.1580   23.2470   39.7920 H   0  0  0  0  0  0  0  0  0  0  0  0
   40.7560   21.3620   37.7540 H   0  0  0  0  0  0  0  0  0  0  0  0
   38.2520   24.1730   36.4480 H   0  0  0  0  0  0  0  0  0  0  0  0
   40.0430   24.1140   38.5280 H   0  0  0  0  0  0  0  0  0  0  0  0
  1  7  1  0  0  0  0
  1  6  1  0  0  0  0
  2  1  2  0  0  0  0
  3  2  1  0  0  0  0
  3  4  2  0  0  0  0
  4  5  1  0  0  0  0
  5 23  1  0  0  0  0
  5  6  2  0  0  0  0
  8  3  1  0  0  0  0
  9  2  1  0  0  0  0
  9 10  1  0  0  0  0
 10 11  1  0  0  0  0
 11 16  1  0  0  0  0
 11 12  2  0  0  0  0
 12 17  1  0  0  0  0
 13 12  1  0  0  0  0
 13 18  1  0  0  0  0
 14 13  2  0  0  0  0
 15 10  2  0  0  0  0
 15 14  1  0  0  0  0
 19 14  1  0  0  0  0
 19 21  1  0  0  0  0
 20 19  1  0  0  0  0
 22 19  1  0  0  0  0
 23 24  1  0  0  0  0
 24 29  1  0  0  0  0
 25 24  1  0  0  0  0
 26 24  1  0  0  0  0
 27 28  1  0  0  0  0
 28 33  1  0  0  0  0
 29 30  1  0  0  0  0
 29 28  2  0  0  0  0
 30 31  2  0  0  0  0
 31 35  1  0  0  0  0
 31 32  1  0  0  0  0
 32 36  1  0  0  0  0
 33 32  2  0  0  0  0
 33 39  1  0  0  0  0
 34 30  1  0  0  0  0
 37 38  2  0  0  0  0
 37 42  1  0  0  0  0
 38 40  1  0  0  0  0
 39 38  1  0  0  0  0
 40 41  1  0  0  0  0
 43 39  1  0  0  0  0
 44 40  1  0  0  0  0
M  END
>  <minimizedAffinity>
-6.12812233

$$$$

 OpenBabel03262522263D

 44 46  0  0  0  0  0  0  0  0999 V2000
   37.9410   27.2990   32.5770 C   0  0  0  0  0  0  0  0  0  0  0  0
   38.0910   26.8560   33.8850 C   0  0  0  0  0  0  0  0  0  0  0  0
   37.2710   27.4100   34.8320 C   0  0  0  0  0  0  0  0  0  0  0  0
   36.3710   28.3540   34.4350 N   0  0  0  0  0  0  0  0  0  0  0  0
   36.2620   28.7430   33.1980 C   0  0  0  0  0  0  0  0  0  0  0  0
   37.0550   28.2240   32.1990 N   0  0  0  0  0  0  0  0  0  0  0  0
   38.5470   26.9130   31.7730 H   0  0  0  0  0  0  0  0  0  0  0  0
   37.3360   27.1010   35.8770 H   0  0  0  0  0  0  0  0  0  0  0  0
   39.0300   25.9080   34.1440 O   0  0  0  0  0  0  0  0  0  0  0  0
   38.6370   24.6670   34.6260 C   0  0  0  0  0  0  0  0  0  0  0  0
   38.1140   23.6080   33.9120 C   0  0  0  0  0  0  0  0  0  0  0  0
   37.7900   22.4710   34.5570 C   0  0  0  0  0  0  0  0  0  0  0  0
   37.9870   22.3950   35.9090 C   0  0  0  0  0  0  0  0  0  0  0  0
   38.5150   23.4680   36.6230 C   0  0  0  0  0  0  0  0  0  0  0  0
   38.8340   24.6030   35.9500 N   0  0  0  0  0  0  0  0  0  0  0  0
   37.9920   23.7750   32.8490 H   0  0  0  0  0  0  0  0  0  0  0  0
   37.3840   21.6590   33.9880 H   0  0  0  0  0  0  0  0  0  0  0  0
   37.7210   21.4720   36.4260 H   0  0  0  0  0  0  0  0  0  0  0  0
   38.7200   23.3610   38.1200 C   0  0  0  0  0  0  0  0  0  0  0  0
   37.8780   23.8930   38.6060 H   0  0  0  0  0  0  0  0  0  0  0  0
   38.8350   22.3140   38.4070 H   0  0  0  0  0  0  0  0  0  0  0  0
   39.6330   23.9370   38.3510 H   0  0  0  0  0  0  0  0  0  0  0  0
   34.9820   30.0050   32.9790 S   0  0  0  0  0  0  0  0  0  0  0  0
   33.4610   29.2220   33.5850 C   0  0  0  0  0  0  0  0  0  0  0  0
   32.6900   29.4150   32.8350 H   0  0  0  0  0  0  0  0  0  0  0  0
   33.5560   28.1250   33.6870 H   0  0  0  0  0  0  0  0  0  0  0  0
   31.4440   28.1290   35.0940 F   0  0  0  0  0  0  0  0  0  0  0  0
   32.1190   29.2300   35.5810 C   0  0  0  0  0  0  0  0  0  0  0  0
   33.1500   29.8590   34.9110 C   0  0  0  0  0  0  0  0  0  0  0  0
   33.7870   30.9400   35.4360 C   0  0  0  0  0  0  0  0  0  0  0  0
   33.4170   31.4560   36.6840 C   0  0  0  0  0  0  0  0  0  0  0  0
   32.3840   30.8320   37.3630 C   0  0  0  0  0  0  0  0  0  0  0  0
   31.7450   29.7410   36.8280 C   0  0  0  0  0  0  0  0  0  0  0  0
   34.5750   31.3310   34.8020 H   0  0  0  0  0  0  0  0  0  0  0  0
   33.9710   32.3200   37.0360 H   0  0  0  0  0  0  0  0  0  0  0  0
   32.1610   31.2690   38.2980 H   0  0  0  0  0  0  0  0  0  0  0  0
   31.8160   28.3080   39.3600 N   0  0  0  0  0  0  0  0  0  0  0  0
   30.8600   28.0850   38.4870 C   0  0  0  0  0  0  0  0  0  0  0  0
   30.6880   29.0950   37.5290 N   0  0  0  0  0  0  0  0  0  0  0  0
   30.0310   26.9170   38.4800 N   0  0  0  0  0  0  0  0  0  0  0  0
   29.9330   25.9030   38.1720 H   0  0  0  0  0  0  0  0  0  0  0  0
   31.9280   27.5500   40.0610 H   0  0  0  0  0  0  0  0  0  0  0  0
   29.6810   29.3790   37.3250 H   0  0  0  0  0  0  0  0  0  0  0  0
   29.1880   27.2710   39.0130 H   0  0  0  0  0  0  0  0  0  0  0  0
  1  2  1  0  0  0  0
  2  9  1  0  0  0  0
  2  3  2  0  0  0  0
  3  8  1  0  0  0  0
  4  3  1  0  0  0  0
  5  4  2  0  0  0  0
  6  1  2  0  0  0  0
  6  5  1  0  0  0  0
  7  1  1  0  0  0  0
  9 10  1  0  0  0  0
 10 15  1  0  0  0  0
 11 12  1  0  0  0  0
 11 10  2  0  0  0  0
 12 13  2  0  0  0  0
 13 18  1  0  0  0  0
 13 14  1  0  0  0  0
 14 19  1  0  0  0  0
 15 14  2  0  0  0  0
 16 11  1  0  0  0  0
 17 12  1  0  0  0  0
 19 22  1  0  0  0  0
 19 21  1  0  0  0  0
 19 20  1  0  0  0  0
 23  5  1  0  0  0  0
 23 24  1  0  0  0  0
 24 26  1  0  0  0  0
 24 29  1  0  0  0  0
 25 24  1  0  0  0  0
 27 28  1  0  0  0  0
 28 33  1  0  0  0  0
 29 30  1  0  0  0  0
 29 28  2  0  0  0  0
 30 31  2  0  0  0  0
 31 35  1  0  0  0  0
 31 32  1  0  0  0  0
 32 36  1  0  0  0  0
 33 32  2  0  0  0  0
 33 39  1  0  0  0  0
 34 30  1  0  0  0  0
 37 42  1  0  0  0  0
 38 37  2  0  0  0  0
 39 38  1  0  0  0  0
 40 38  1  0  0  0  0
 40 44  1  0  0  0  0
 41 40  1  0  0  0  0
 43 39  1  0  0  0  0
M  END
>  <minimizedAffinity>
-6.0712204

$$$$

 OpenBabel03262522263D

 44 46  0  0  0  0  0  0  0  0999 V2000
   36.3440   25.2540   31.3150 C   0  0  0  0  0  0  0  0  0  0  0  0
   37.1250   24.1950   31.7610 C   0  0  0  0  0  0  0  0  0  0  0  0
   37.7500   24.3430   32.9710 C   0  0  0  0  0  0  0  0  0  0  0  0
   37.5690   25.5100   33.6520 N   0  0  0  0  0  0  0  0  0  0  0  0
   36.8280   26.4800   33.1990 C   0  0  0  0  0  0  0  0  0  0  0  0
   36.1720   26.3920   31.9910 N   0  0  0  0  0  0  0  0  0  0  0  0
   35.8190   25.2150   30.3730 H   0  0  0  0  0  0  0  0  0  0  0  0
   38.3730   23.5460   33.3790 H   0  0  0  0  0  0  0  0  0  0  0  0
   37.2210   23.0870   30.9800 O   0  0  0  0  0  0  0  0  0  0  0  0
   36.4760   21.9590   31.2950 C   0  0  0  0  0  0  0  0  0  0  0  0
   35.4090   21.8650   32.1670 C   0  0  0  0  0  0  0  0  0  0  0  0
   34.8040   20.6740   32.3450 C   0  0  0  0  0  0  0  0  0  0  0  0
   35.2640   19.5850   31.6560 C   0  0  0  0  0  0  0  0  0  0  0  0
   36.3410   19.6880   30.7780 C   0  0  0  0  0  0  0  0  0  0  0  0
   36.9340   20.8990   30.6150 N   0  0  0  0  0  0  0  0  0  0  0  0
   35.1300   22.7840   32.6660 H   0  0  0  0  0  0  0  0  0  0  0  0
   33.9790   20.6180   33.0260 H   0  0  0  0  0  0  0  0  0  0  0  0
   34.7710   18.6250   31.8060 H   0  0  0  0  0  0  0  0  0  0  0  0
   36.8340   18.4670   30.0300 C   0  0  0  0  0  0  0  0  0  0  0  0
   37.7380   18.1010   30.5570 H   0  0  0  0  0  0  0  0  0  0  0  0
   36.0270   17.7380   29.9320 H   0  0  0  0  0  0  0  0  0  0  0  0
   37.1680   18.8230   29.0400 H   0  0  0  0  0  0  0  0  0  0  0  0
   36.7790   27.8980   34.3240 S   0  0  0  0  0  0  0  0  0  0  0  0
   35.6520   29.0760   33.5240 C   0  0  0  0  0  0  0  0  0  0  0  0
   36.2260   29.5730   32.7380 H   0  0  0  0  0  0  0  0  0  0  0  0
   34.7900   28.5820   33.0410 H   0  0  0  0  0  0  0  0  0  0  0  0
   32.9670   29.1840   34.0850 F   0  0  0  0  0  0  0  0  0  0  0  0
   33.8280   29.9990   34.7900 C   0  0  0  0  0  0  0  0  0  0  0  0
   35.1950   30.0270   34.5960 C   0  0  0  0  0  0  0  0  0  0  0  0
   36.0020   30.8470   35.3200 C   0  0  0  0  0  0  0  0  0  0  0  0
   35.4700   31.6970   36.2980 C   0  0  0  0  0  0  0  0  0  0  0  0
   34.1010   31.6760   36.5000 C   0  0  0  0  0  0  0  0  0  0  0  0
   33.2920   30.8460   35.7650 C   0  0  0  0  0  0  0  0  0  0  0  0
   37.0520   30.7640   35.0610 H   0  0  0  0  0  0  0  0  0  0  0  0
   36.1780   32.3220   36.8350 H   0  0  0  0  0  0  0  0  0  0  0  0
   33.7700   32.3370   37.2540 H   0  0  0  0  0  0  0  0  0  0  0  0
   31.7650   29.4970   37.8440 N   0  0  0  0  0  0  0  0  0  0  0  0
   31.2010   29.8350   36.7070 C   0  0  0  0  0  0  0  0  0  0  0  0
   31.8840   30.8190   35.9790 N   0  0  0  0  0  0  0  0  0  0  0  0
   29.9820   29.2680   36.2130 N   0  0  0  0  0  0  0  0  0  0  0  0
   29.5310   28.4650   35.6810 H   0  0  0  0  0  0  0  0  0  0  0  0
   31.2460   28.7680   38.3700 H   0  0  0  0  0  0  0  0  0  0  0  0
   31.2810   31.5930   35.5590 H   0  0  0  0  0  0  0  0  0  0  0  0
   29.2820   29.9900   36.5440 H   0  0  0  0  0  0  0  0  0  0  0  0
  1  2  2  0  0  0  0
  1  6  1  0  0  0  0
  2  3  1  0  0  0  0
  3  8  1  0  0  0  0
  3  4  2  0  0  0  0
  5  4  1  0  0  0  0
  5 23  1  0  0  0  0
  6  5  2  0  0  0  0
  7  1  1  0  0  0  0
  9 10  1  0  0  0  0
  9  2  1  0  0  0  0
 10 11  1  0  0  0  0
 11 12  2  0  0  0  0
 11 16  1  0  0  0  0
 12 17  1  0  0  0  0
 13 18  1  0  0  0  0
 13 12  1  0  0  0  0
 14 13  2  0  0  0  0
 15 14  1  0  0  0  0
 15 10  2  0  0  0  0
 19 20  1  0  0  0  0
 19 14  1  0  0  0  0
 21 19  1  0  0  0  0
 22 19  1  0  0  0  0
 24 23  1  0  0  0  0
 24 29  1  0  0  0  0
 25 24  1  0  0  0  0
 26 24  1  0  0  0  0
 27 28  1  0  0  0  0
 28 33  1  0  0  0  0
 29 28  2  0  0  0  0
 29 30  1  0  0  0  0
 30 31  2  0  0  0  0
 31 32  1  0  0  0  0
 31 35  1  0  0  0  0
 32 36  1  0  0  0  0
 33 39  1  0  0  0  0
 33 32  2  0  0  0  0
 34 30  1  0  0  0  0
 37 42  1  0  0  0  0
 38 37  2  0  0  0  0
 39 38  1  0  0  0  0
 40 44  1  0  0  0  0
 40 38  1  0  0  0  0
 41 40  1  0  0  0  0
 43 39  1  0  0  0  0
M  END
>  <minimizedAffinity>
-6.03204298

$$$$

 OpenBabel03262522263D

 44 46  0  0  0  0  0  0  0  0999 V2000
   35.9910   28.5770   33.7380 C   0  0  0  0  0  0  0  0  0  0  0  0
   35.6560   29.5710   32.8270 C   0  0  0  0  0  0  0  0  0  0  0  0
   36.2750   29.5350   31.6060 C   0  0  0  0  0  0  0  0  0  0  0  0
   37.1730   28.5370   31.3660 N   0  0  0  0  0  0  0  0  0  0  0  0
   37.4600   27.6230   32.2480 C   0  0  0  0  0  0  0  0  0  0  0  0
   36.8710   27.6040   33.4930 N   0  0  0  0  0  0  0  0  0  0  0  0
   35.5480   28.5350   34.7210 H   0  0  0  0  0  0  0  0  0  0  0  0
   36.0520   30.2840   30.8450 H   0  0  0  0  0  0  0  0  0  0  0  0
   34.7440   30.5080   33.1970 O   0  0  0  0  0  0  0  0  0  0  0  0
   34.8630   31.1310   34.4320 C   0  0  0  0  0  0  0  0  0  0  0  0
   35.8980   31.9240   34.8850 C   0  0  0  0  0  0  0  0  0  0  0  0
   35.8360   32.4470   36.1240 C   0  0  0  0  0  0  0  0  0  0  0  0
   34.7460   32.1780   36.9060 C   0  0  0  0  0  0  0  0  0  0  0  0
   33.7050   31.3760   36.4420 C   0  0  0  0  0  0  0  0  0  0  0  0
   33.7910   30.8610   35.1890 N   0  0  0  0  0  0  0  0  0  0  0  0
   36.7160   32.0680   34.1900 H   0  0  0  0  0  0  0  0  0  0  0  0
   36.6480   33.0600   36.4610 H   0  0  0  0  0  0  0  0  0  0  0  0
   34.7020   32.6040   37.9080 H   0  0  0  0  0  0  0  0  0  0  0  0
   32.5100   31.0900   37.3270 C   0  0  0  0  0  0  0  0  0  0  0  0
   32.6500   30.0740   37.7490 H   0  0  0  0  0  0  0  0  0  0  0  0
   32.3930   31.8860   38.0650 H   0  0  0  0  0  0  0  0  0  0  0  0
   31.6330   31.0360   36.6590 H   0  0  0  0  0  0  0  0  0  0  0  0
   38.6840   26.4350   31.6410 S   0  0  0  0  0  0  0  0  0  0  0  0
   39.7130   26.0620   33.0900 C   0  0  0  0  0  0  0  0  0  0  0  0
   40.7300   25.9100   32.7210 H   0  0  0  0  0  0  0  0  0  0  0  0
   39.7470   26.8950   33.8160 H   0  0  0  0  0  0  0  0  0  0  0  0
   39.3550   26.0500   35.8120 F   0  0  0  0  0  0  0  0  0  0  0  0
   39.0030   24.9290   35.0890 C   0  0  0  0  0  0  0  0  0  0  0  0
   39.1350   24.8240   33.7190 C   0  0  0  0  0  0  0  0  0  0  0  0
   38.7690   23.6970   33.0510 C   0  0  0  0  0  0  0  0  0  0  0  0
   38.2400   22.5960   33.7360 C   0  0  0  0  0  0  0  0  0  0  0  0
   38.1030   22.6930   35.1110 C   0  0  0  0  0  0  0  0  0  0  0  0
   38.4750   23.8330   35.7780 C   0  0  0  0  0  0  0  0  0  0  0  0
   38.9290   23.7550   31.9800 H   0  0  0  0  0  0  0  0  0  0  0  0
   37.9710   21.7340   33.1350 H   0  0  0  0  0  0  0  0  0  0  0  0
   37.6940   21.8300   35.5610 H   0  0  0  0  0  0  0  0  0  0  0  0
   40.0190   22.5610   37.8920 N   0  0  0  0  0  0  0  0  0  0  0  0
   38.8000   22.9950   38.1180 C   0  0  0  0  0  0  0  0  0  0  0  0
   38.3270   23.9350   37.1910 N   0  0  0  0  0  0  0  0  0  0  0  0
   37.9820   22.5690   39.2140 N   0  0  0  0  0  0  0  0  0  0  0  0
   37.3060   21.8340   39.5800 H   0  0  0  0  0  0  0  0  0  0  0  0
   40.3520   21.8660   38.5880 H   0  0  0  0  0  0  0  0  0  0  0  0
   37.8180   24.7790   37.5990 H   0  0  0  0  0  0  0  0  0  0  0  0
   38.1720   23.3420   39.9120 H   0  0  0  0  0  0  0  0  0  0  0  0
  1  7  1  0  0  0  0
  2  9  1  0  0  0  0
  2  1  2  0  0  0  0
  3  2  1  0  0  0  0
  4  3  2  0  0  0  0
  4  5  1  0  0  0  0
  5  6  2  0  0  0  0
  6  1  1  0  0  0  0
  8  3  1  0  0  0  0
  9 10  1  0  0  0  0
 10 11  2  0  0  0  0
 10 15  1  0  0  0  0
 11 12  1  0  0  0  0
 12 17  1  0  0  0  0
 12 13  2  0  0  0  0
 13 18  1  0  0  0  0
 14 13  1  0  0  0  0
 14 19  1  0  0  0  0
 15 14  2  0  0  0  0
 16 11  1  0  0  0  0
 19 20  1  0  0  0  0
 19 21  1  0  0  0  0
 22 19  1  0  0  0  0
 23  5  1  0  0  0  0
 23 24  1  0  0  0  0
 24 29  1  0  0  0  0
 24 26  1  0  0  0  0
 25 24  1  0  0  0  0
 28 33  1  0  0  0  0
 28 27  1  0  0  0  0
 29 28  2  0  0  0  0
 30 29  1  0  0  0  0
 30 31  2  0  0  0  0
 31 32  1  0  0  0  0
 32 36  1  0  0  0  0
 32 33  2  0  0  0  0
 33 39  1  0  0  0  0
 34 30  1  0  0  0  0
 35 31  1  0  0  0  0
 37 38  2  0  0  0  0
 37 42  1  0  0  0  0
 38 40  1  0  0  0  0
 39 43  1  0  0  0  0
 39 38  1  0  0  0  0
 40 41  1  0  0  0  0
 40 44  1  0  0  0  0
M  END
>  <minimizedAffinity>
-6.00199175

$$$$

 OpenBabel03262522263D

 44 46  0  0  0  0  0  0  0  0999 V2000
   36.1840   25.0580   31.6140 C   0  0  0  0  0  0  0  0  0  0  0  0
   36.5750   23.7690   31.2740 C   0  0  0  0  0  0  0  0  0  0  0  0
   37.9200   23.5060   31.2580 C   0  0  0  0  0  0  0  0  0  0  0  0
   38.7790   24.5170   31.5720 N   0  0  0  0  0  0  0  0  0  0  0  0
   38.3720   25.7130   31.8850 C   0  0  0  0  0  0  0  0  0  0  0  0
   37.0350   26.0400   31.9200 N   0  0  0  0  0  0  0  0  0  0  0  0
   35.1450   25.3450   31.6490 H   0  0  0  0  0  0  0  0  0  0  0  0
   38.2910   22.5120   31.0040 H   0  0  0  0  0  0  0  0  0  0  0  0
   35.6120   22.8550   30.9820 O   0  0  0  0  0  0  0  0  0  0  0  0
   35.6670   21.5940   31.5580 C   0  0  0  0  0  0  0  0  0  0  0  0
   35.3420   21.2390   32.8520 C   0  0  0  0  0  0  0  0  0  0  0  0
   35.4570   19.9520   33.2330 C   0  0  0  0  0  0  0  0  0  0  0  0
   35.8970   19.0270   32.3250 C   0  0  0  0  0  0  0  0  0  0  0  0
   36.2230   19.3930   31.0210 C   0  0  0  0  0  0  0  0  0  0  0  0
   36.0970   20.6960   30.6610 N   0  0  0  0  0  0  0  0  0  0  0  0
   35.0110   22.0480   33.4910 H   0  0  0  0  0  0  0  0  0  0  0  0
   35.2020   19.6930   34.2410 H   0  0  0  0  0  0  0  0  0  0  0  0
   35.9890   17.9870   32.6410 H   0  0  0  0  0  0  0  0  0  0  0  0
   36.7100   18.3510   30.0360 C   0  0  0  0  0  0  0  0  0  0  0  0
   37.8130   18.4460   29.9760 H   0  0  0  0  0  0  0  0  0  0  0  0
   36.3450   17.3640   30.3260 H   0  0  0  0  0  0  0  0  0  0  0  0
   36.3140   18.6460   29.0490 H   0  0  0  0  0  0  0  0  0  0  0  0
   39.7430   26.8380   32.2510 S   0  0  0  0  0  0  0  0  0  0  0  0
   39.6230   27.1370   34.0380 C   0  0  0  0  0  0  0  0  0  0  0  0
   40.3630   27.9040   34.2770 H   0  0  0  0  0  0  0  0  0  0  0  0
   38.6330   27.5270   34.3400 H   0  0  0  0  0  0  0  0  0  0  0  0
   37.6050   25.9650   35.4850 F   0  0  0  0  0  0  0  0  0  0  0  0
   38.8280   25.3300   35.4120 C   0  0  0  0  0  0  0  0  0  0  0  0
   39.9110   25.8240   34.7120 C   0  0  0  0  0  0  0  0  0  0  0  0
   41.0970   25.1580   34.6680 C   0  0  0  0  0  0  0  0  0  0  0  0
   41.2590   23.9380   35.3360 C   0  0  0  0  0  0  0  0  0  0  0  0
   40.1790   23.4340   36.0400 C   0  0  0  0  0  0  0  0  0  0  0  0
   38.9860   24.1120   36.0810 C   0  0  0  0  0  0  0  0  0  0  0  0
   41.8570   25.6620   34.0830 H   0  0  0  0  0  0  0  0  0  0  0  0
   42.2340   23.4660   35.2540 H   0  0  0  0  0  0  0  0  0  0  0  0
   40.3700   22.5100   36.5140 H   0  0  0  0  0  0  0  0  0  0  0  0
   38.0680   24.7360   38.7710 N   0  0  0  0  0  0  0  0  0  0  0  0
   37.7400   23.6020   38.1950 C   0  0  0  0  0  0  0  0  0  0  0  0
   37.8720   23.5900   36.7990 N   0  0  0  0  0  0  0  0  0  0  0  0
   37.2760   22.4450   38.8990 N   0  0  0  0  0  0  0  0  0  0  0  0
   37.5480   21.5710   39.4410 H   0  0  0  0  0  0  0  0  0  0  0  0
   37.9640   24.7260   39.8040 H   0  0  0  0  0  0  0  0  0  0  0  0
   37.0670   23.1480   36.2570 H   0  0  0  0  0  0  0  0  0  0  0  0
   36.2280   22.5650   38.8050 H   0  0  0  0  0  0  0  0  0  0  0  0
  1  7  1  0  0  0  0
  1  6  1  0  0  0  0
  2  1  2  0  0  0  0
  3  2  1  0  0  0  0
  3  4  2  0  0  0  0
  4  5  1  0  0  0  0
  5  6  2  0  0  0  0
  5 23  1  0  0  0  0
  8  3  1  0  0  0  0
  9  2  1  0  0  0  0
  9 10  1  0  0  0  0
 10 11  1  0  0  0  0
 11 12  2  0  0  0  0
 11 16  1  0  0  0  0
 12 17  1  0  0  0  0
 13 18  1  0  0  0  0
 13 12  1  0  0  0  0
 14 13  2  0  0  0  0
 15 14  1  0  0  0  0
 15 10  2  0  0  0  0
 19 21  1  0  0  0  0
 19 14  1  0  0  0  0
 20 19  1  0  0  0  0
 22 19  1  0  0  0  0
 23 24  1  0  0  0  0
 24 25  1  0  0  0  0
 24 26  1  0  0  0  0
 24 29  1  0  0  0  0
 28 27  1  0  0  0  0
 28 33  1  0  0  0  0
 29 28  2  0  0  0  0
 30 29  1  0  0  0  0
 30 31  2  0  0  0  0
 31 32  1  0  0  0  0
 32 33  2  0  0  0  0
 32 36  1  0  0  0  0
 33 39  1  0  0  0  0
 34 30  1  0  0  0  0
 35 31  1  0  0  0  0
 37 42  1  0  0  0  0
 38 37  2  0  0  0  0
 38 40  1  0  0  0  0
 39 38  1  0  0  0  0
 40 41  1  0  0  0  0
 43 39  1  0  0  0  0
 44 40  1  0  0  0  0
M  END
>  <minimizedAffinity>
-5.97337341

$$$$

 OpenBabel03262522263D

 44 46  0  0  0  0  0  0  0  0999 V2000
   37.9880   27.2310   33.1860 C   0  0  0  0  0  0  0  0  0  0  0  0
   37.3870   27.6210   34.3760 C   0  0  0  0  0  0  0  0  0  0  0  0
   38.1330   27.5100   35.5200 C   0  0  0  0  0  0  0  0  0  0  0  0
   39.4040   27.0280   35.4180 N   0  0  0  0  0  0  0  0  0  0  0  0
   39.9310   26.6730   34.2820 C   0  0  0  0  0  0  0  0  0  0  0  0
   39.2340   26.7610   33.0970 N   0  0  0  0  0  0  0  0  0  0  0  0
   37.4680   27.2870   32.2430 H   0  0  0  0  0  0  0  0  0  0  0  0
   37.7200   27.8050   36.4860 H   0  0  0  0  0  0  0  0  0  0  0  0
   36.1090   28.0840   34.3360 O   0  0  0  0  0  0  0  0  0  0  0  0
   35.8730   29.4170   34.0330 C   0  0  0  0  0  0  0  0  0  0  0  0
   35.7330   29.9910   32.7850 C   0  0  0  0  0  0  0  0  0  0  0  0
   35.5030   31.3150   32.6880 C   0  0  0  0  0  0  0  0  0  0  0  0
   35.4160   32.0600   33.8330 C   0  0  0  0  0  0  0  0  0  0  0  0
   35.5590   31.4740   35.0890 C   0  0  0  0  0  0  0  0  0  0  0  0
   35.7890   30.1380   35.1600 N   0  0  0  0  0  0  0  0  0  0  0  0
   35.8260   29.3140   31.9460 H   0  0  0  0  0  0  0  0  0  0  0  0
   35.3980   31.7440   31.7130 H   0  0  0  0  0  0  0  0  0  0  0  0
   35.2320   33.1310   33.7470 H   0  0  0  0  0  0  0  0  0  0  0  0
   35.4620   32.3210   36.3410 C   0  0  0  0  0  0  0  0  0  0  0  0
   36.4970   32.5120   36.6890 H   0  0  0  0  0  0  0  0  0  0  0  0
   34.8670   33.2140   36.1420 H   0  0  0  0  0  0  0  0  0  0  0  0
   34.9830   31.6880   37.1080 H   0  0  0  0  0  0  0  0  0  0  0  0
   41.6300   26.0740   34.4640 S   0  0  0  0  0  0  0  0  0  0  0  0
   41.5630   24.3430   33.9220 C   0  0  0  0  0  0  0  0  0  0  0  0
   40.7120   24.2600   33.2420 H   0  0  0  0  0  0  0  0  0  0  0  0
   42.4650   24.0360   33.3600 H   0  0  0  0  0  0  0  0  0  0  0  0
   39.0100   23.8580   34.8070 F   0  0  0  0  0  0  0  0  0  0  0  0
   40.0720   23.3350   35.5160 C   0  0  0  0  0  0  0  0  0  0  0  0
   41.3950   23.5110   35.1630 C   0  0  0  0  0  0  0  0  0  0  0  0
   42.4070   22.9710   35.8940 C   0  0  0  0  0  0  0  0  0  0  0  0
   42.1390   22.2100   37.0390 C   0  0  0  0  0  0  0  0  0  0  0  0
   40.8140   22.0280   37.4010 C   0  0  0  0  0  0  0  0  0  0  0  0
   39.7980   22.5760   36.6590 C   0  0  0  0  0  0  0  0  0  0  0  0
   43.3930   23.1900   35.5010 H   0  0  0  0  0  0  0  0  0  0  0  0
   42.9980   21.8120   37.5700 H   0  0  0  0  0  0  0  0  0  0  0  0
   40.6860   21.4420   38.2690 H   0  0  0  0  0  0  0  0  0  0  0  0
   38.0060   24.3550   38.1060 N   0  0  0  0  0  0  0  0  0  0  0  0
   37.7800   23.0620   38.0630 C   0  0  0  0  0  0  0  0  0  0  0  0
   38.4360   22.3820   37.0270 N   0  0  0  0  0  0  0  0  0  0  0  0
   36.9340   22.3610   38.9810 N   0  0  0  0  0  0  0  0  0  0  0  0
   36.8600   21.8870   39.9310 H   0  0  0  0  0  0  0  0  0  0  0  0
   37.5120   24.8420   38.8790 H   0  0  0  0  0  0  0  0  0  0  0  0
   37.8520   21.6680   36.4920 H   0  0  0  0  0  0  0  0  0  0  0  0
   36.0290   22.3350   38.4340 H   0  0  0  0  0  0  0  0  0  0  0  0
  1  2  1  0  0  0  0
  2  3  2  0  0  0  0
  3  8  1  0  0  0  0
  4  3  1  0  0  0  0
  5 23  1  0  0  0  0
  5  4  2  0  0  0  0
  6  1  2  0  0  0  0
  6  5  1  0  0  0  0
  7  1  1  0  0  0  0
  9  2  1  0  0  0  0
 10  9  1  0  0  0  0
 10 15  1  0  0  0  0
 11 10  2  0  0  0  0
 12 11  1  0  0  0  0
 12 13  2  0  0  0  0
 13 14  1  0  0  0  0
 14 15  2  0  0  0  0
 14 19  1  0  0  0  0
 16 11  1  0  0  0  0
 17 12  1  0  0  0  0
 18 13  1  0  0  0  0
 19 20  1  0  0  0  0
 19 22  1  0  0  0  0
 21 19  1  0  0  0  0
 24 23  1  0  0  0  0
 24 29  1  0  0  0  0
 25 24  1  0  0  0  0
 26 24  1  0  0  0  0
 27 28  1  0  0  0  0
 28 33  1  0  0  0  0
 29 28  2  0  0  0  0
 29 30  1  0  0  0  0
 30 31  2  0  0  0  0
 31 32  1  0  0  0  0
 31 35  1  0  0  0  0
 32 36  1  0  0  0  0
 33 39  1  0  0  0  0
 33 32  2  0  0  0  0
 34 30  1  0  0  0  0
 37 42  1  0  0  0  0
 38 37  2  0  0  0  0
 38 40  1  0  0  0  0
 39 38  1  0  0  0  0
 40 41  1  0  0  0  0
 43 39  1  0  0  0  0
 44 40  1  0  0  0  0
M  END
>  <minimizedAffinity>
-5.95443344

$$$$
