
 OpenBabel03272502063D

 40 43  0  0  0  0  0  0  0  0999 V2000
   34.0600   30.3010   47.7240 F   0  0  0  0  0  0  0  0  0  0  0  0
   34.4900   29.8700   46.4930 C   0  0  0  0  0  0  0  0  0  0  0  0
   33.6400   29.2610   45.5840 C   0  0  0  0  0  0  0  0  0  0  0  0
   34.1400   28.8730   44.3630 C   0  0  0  0  0  0  0  0  0  0  0  0
   35.4840   29.0880   44.0400 C   0  0  0  0  0  0  0  0  0  0  0  0
   36.2790   29.6990   44.9920 C   0  0  0  0  0  0  0  0  0  0  0  0
   35.8330   30.0940   46.1970 C   0  0  0  0  0  0  0  0  0  0  0  0
   33.4440   28.4090   43.7000 H   0  0  0  0  0  0  0  0  0  0  0  0
   35.8360   28.7670   43.0680 H   0  0  0  0  0  0  0  0  0  0  0  0
   37.3010   29.8280   44.6650 H   0  0  0  0  0  0  0  0  0  0  0  0
   32.0980   28.4760   47.2630 C   0  0  0  0  0  0  0  0  0  0  0  0
   32.2840   29.0980   46.0360 C   0  0  0  0  0  0  0  0  0  0  0  0
   31.1600   29.5270   45.3470 C   0  0  0  0  0  0  0  0  0  0  0  0
   29.9230   29.3360   45.8760 N   0  0  0  0  0  0  0  0  0  0  0  0
   29.7860   28.7330   47.0620 C   0  0  0  0  0  0  0  0  0  0  0  0
   30.8390   28.3100   47.7450 N   0  0  0  0  0  0  0  0  0  0  0  0
   32.9240   28.1110   47.8620 H   0  0  0  0  0  0  0  0  0  0  0  0
   31.3230   30.0130   44.3870 H   0  0  0  0  0  0  0  0  0  0  0  0
   28.4700   28.5490   47.5920 N   0  0  0  0  0  0  0  0  0  0  0  0
   28.1400   27.2700   47.8510 C   0  0  0  0  0  3  0  0  0  0  0  0
   26.8600   27.0500   48.3700 C   0  0  0  0  0  3  0  0  0  0  0  0
   26.0730   28.1860   48.5570 C   0  0  0  0  0  0  0  0  0  0  0  0
   24.7540   28.0550   49.0800 N   0  0  0  0  0  0  0  0  0  0  0  0
   26.4810   29.4310   48.2700 N   0  0  0  0  0  0  0  0  0  0  0  0
   27.6940   29.6330   47.7790 C   0  0  0  0  0  0  0  0  0  0  0  0
   28.1640   30.7610   47.4800 O   0  0  0  0  0  0  0  0  0  0  0  0
   24.0810   27.8430   49.8480 H   0  0  0  0  0  0  0  0  0  0  0  0
   24.0320   28.2800   48.3490 H   0  0  0  0  0  0  0  0  0  0  0  0
   37.8550   32.2340   45.1290 Br  0  0  0  0  0  0  0  0  0  0  0  0
   37.6620   31.6950   46.9460 C   0  0  0  0  0  0  0  0  0  0  0  0
   36.7250   30.7160   47.1540 C   0  0  0  0  0  0  0  0  0  0  0  0
   36.5600   30.2360   48.4630 C   0  0  0  0  0  0  0  0  0  0  0  0
   37.3070   30.7320   49.4890 C   0  0  0  0  0  0  0  0  0  0  0  0
   38.2320   31.7200   49.2150 C   0  0  0  0  0  0  0  0  0  0  0  0
   38.4230   32.2220   47.9170 C   0  0  0  0  0  0  0  0  0  0  0  0
   35.8490   29.4650   48.7240 H   0  0  0  0  0  0  0  0  0  0  0  0
   37.2080   30.3860   50.5070 H   0  0  0  0  0  0  0  0  0  0  0  0
   38.8480   32.1440   49.9970 H   0  0  0  0  0  0  0  0  0  0  0  0
   39.3080   33.1930   47.5640 O   0  0  0  0  0  0  0  0  0  0  0  0
   39.0380   34.1660   47.6710 H   0  0  0  0  0  0  0  0  0  0  0  0
  2  1  1  0  0  0  0
  3 12  1  0  0  0  0
  3  2  2  0  0  0  0
  4  3  1  0  0  0  0
  5  4  2  0  0  0  0
  5  6  1  0  0  0  0
  6  7  2  0  0  0  0
  7  2  1  0  0  0  0
  7 31  1  0  0  0  0
  8  4  1  0  0  0  0
  9  5  1  0  0  0  0
 10  6  1  0  0  0  0
 11 16  1  0  0  0  0
 11 17  1  0  0  0  0
 12 11  2  0  0  0  0
 13 14  2  0  0  0  0
 13 12  1  0  0  0  0
 14 15  1  0  0  0  0
 15 19  1  0  0  0  0
 15 16  2  0  0  0  0
 18 13  1  0  0  0  0
 19 25  1  0  0  0  0
 19 20  1  0  0  0  0
 20 21  2  0  0  0  0
 21 22  1  0  0  0  0
 22 23  1  0  0  0  0
 23 27  1  0  0  0  0
 24 22  2  0  0  0  0
 25 24  1  0  0  0  0
 26 25  2  0  0  0  0
 28 23  1  0  0  0  0
 29 30  1  0  0  0  0
 30 31  2  0  0  0  0
 30 35  1  0  0  0  0
 31 32  1  0  0  0  0
 32 36  1  0  0  0  0
 32 33  2  0  0  0  0
 33 37  1  0  0  0  0
 34 33  1  0  0  0  0
 34 38  1  0  0  0  0
 35 34  2  0  0  0  0
 39 40  1  0  0  0  0
 39 35  1  0  0  0  0
M  END
>  <minimizedAffinity>
-7.33163118

>  <minimizedRMSD>
0.449548811

$$$$
