
 OpenBabel03272508053D

 36 39  0  0  0  0  0  0  0  0999 V2000
   38.8930   30.9110   45.7790 C   0  0  0  0  0  0  0  0  0  0  0  0
   40.0620   31.6060   46.0150 C   0  0  0  0  0  0  0  0  0  0  0  0
   40.9040   31.5480   44.9200 C   0  0  0  0  0  0  0  0  0  0  0  0
   40.1990   30.8020   44.0390 N   0  0  0  0  0  0  0  0  0  0  0  0
   39.0300   30.4300   44.5350 N   0  0  0  0  0  0  0  0  0  0  0  0
   40.3110   32.1390   46.9350 H   0  0  0  0  0  0  0  0  0  0  0  0
   41.8860   31.9620   44.7360 H   0  0  0  0  0  0  0  0  0  0  0  0
   37.7830   30.7560   46.6960 C   0  0  0  0  0  0  0  0  0  0  0  0
   37.9990   30.9720   48.0730 C   0  0  0  0  0  0  0  0  0  0  0  0
   36.9220   30.8200   48.9380 C   0  0  0  0  0  0  0  0  0  0  0  0
   35.7150   30.4710   48.4010 N   0  0  0  0  0  0  0  0  0  0  0  0
   35.5270   30.2680   47.0750 C   0  0  0  0  0  0  0  0  0  0  0  0
   36.5750   30.4160   46.2350 N   0  0  0  0  0  0  0  0  0  0  0  0
   39.0000   31.2490   48.4080 H   0  0  0  0  0  0  0  0  0  0  0  0
   34.5490   29.9910   46.6960 H   0  0  0  0  0  0  0  0  0  0  0  0
   37.1240   31.0420   50.3920 C   0  0  0  0  0  0  0  0  0  0  0  0
   36.6070   32.2860   50.6570 F   0  0  0  0  0  0  0  0  0  0  0  0
   36.4590   30.1090   51.1750 F   0  0  0  0  0  0  0  0  0  0  0  0
   38.4790   31.0590   50.7250 F   0  0  0  0  0  0  0  0  0  0  0  0
   40.5870   30.4010   42.6790 C   0  0  0  0  0  0  0  0  0  0  0  0
   40.2220   31.1600   41.5550 C   0  0  0  0  0  0  0  0  0  0  0  0
   40.5970   30.7560   40.3340 C   0  0  0  0  0  0  0  0  0  0  0  0
   41.3620   29.5630   40.1920 C   0  0  0  0  0  0  0  0  0  0  0  0
   41.5270   29.0230   41.9600 S   0  0  0  0  0  0  0  0  0  0  0  0
   39.6380   32.0740   41.6300 H   0  0  0  0  0  0  0  0  0  0  0  0
   40.4190   31.1920   39.3650 H   0  0  0  0  0  0  0  0  0  0  0  0
   41.9160   28.8460   39.1650 N   0  0  0  0  0  0  0  0  0  0  0  0
   43.0990   29.1160   38.6380 C   0  0  0  0  0  3  0  0  0  0  0  0
   43.5740   28.3260   37.5950 C   0  0  0  0  0  3  0  0  0  0  0  0
   42.8070   27.2780   37.1290 C   0  0  0  0  0  0  0  0  0  0  0  0
   43.1880   26.3970   36.0640 N   0  0  0  0  0  0  0  0  0  0  0  0
   41.5920   27.0220   37.6900 N   0  0  0  0  0  0  0  0  0  0  0  0
   41.1520   27.8120   38.7090 C   0  0  0  0  0  0  0  0  0  0  0  0
   40.0230   27.5120   39.1730 O   0  0  0  0  0  0  0  0  0  0  0  0
   42.4580   26.0520   35.3990 H   0  0  0  0  0  0  0  0  0  0  0  0
   44.2140   26.2150   36.1080 H   0  0  0  0  0  0  0  0  0  0  0  0
  1  2  1  0  0  0  0
  1  8  1  0  0  0  0
  2  6  1  0  0  0  0
  3  2  2  0  0  0  0
  4  5  1  0  0  0  0
  4  3  1  0  0  0  0
  5  1  2  0  0  0  0
  7  3  1  0  0  0  0
  8  9  1  0  0  0  0
  9 14  1  0  0  0  0
  9 10  2  0  0  0  0
 10 16  1  0  0  0  0
 11 10  1  0  0  0  0
 12 11  2  0  0  0  0
 13  8  2  0  0  0  0
 13 12  1  0  0  0  0
 15 12  1  0  0  0  0
 16 17  1  0  0  0  0
 16 19  1  0  0  0  0
 16 18  1  0  0  0  0
 20  4  1  0  0  0  0
 21 25  1  0  0  0  0
 21 20  2  0  0  0  0
 22 21  1  0  0  0  0
 23 22  2  0  0  0  0
 23 24  1  0  0  0  0
 24 20  1  0  0  0  0
 26 22  1  0  0  0  0
 27 23  1  0  0  0  0
 28 27  1  0  0  0  0
 29 28  2  0  0  0  0
 30 29  1  0  0  0  0
 30 32  2  0  0  0  0
 31 36  1  0  0  0  0
 31 30  1  0  0  0  0
 32 33  1  0  0  0  0
 33 27  1  0  0  0  0
 33 34  2  0  0  0  0
 35 31  1  0  0  0  0
M  END
>  <minimizedAffinity>
-6.42558861

>  <minimizedRMSD>
0.771436989

$$$$
