
 OpenBabel03272501413D

 46 50  0  0  1  0  0  0  0  0999 V2000
   35.7680   25.4480   30.9350 C   0  0  0  0  0  0  0  0  0  0  0  0
   36.9880   24.8980   31.2580 C   0  0  0  0  0  0  0  0  0  0  0  0
   37.9310   25.5660   32.0540 C   0  0  0  0  0  0  0  0  0  0  0  0
   37.6050   26.7500   32.4920 N   0  0  0  0  0  0  0  0  0  0  0  0
   36.3870   27.2890   32.1650 C   0  0  0  0  0  0  0  0  0  0  0  0
   35.4980   26.6570   31.4090 N   0  0  0  0  0  0  0  0  0  0  0  0
   35.0560   24.9280   30.3270 H   0  0  0  0  0  0  0  0  0  0  0  0
   37.1680   23.8930   30.8460 H   0  0  0  0  0  0  0  0  0  0  0  0
   35.9960   28.6030   32.6700 C   0  0  0  0  0  0  0  0  0  0  0  0
   35.6150   29.7490   32.0230 C   0  0  0  0  0  0  0  0  0  0  0  0
   35.2750   30.8490   32.7110 C   0  0  0  0  0  0  0  0  0  0  0  0
   35.3400   30.7370   34.1070 C   0  0  0  0  0  0  0  0  0  0  0  0
   35.9020   29.0050   34.3920 S   0  0  0  0  0  0  0  0  0  0  0  0
   35.6060   29.7070   30.9350 H   0  0  0  0  0  0  0  0  0  0  0  0
   34.9660   31.7880   32.3230 H   0  0  0  0  0  0  0  0  0  0  0  0
   35.0700   31.6430   35.1510 N   0  0  0  0  0  0  0  0  0  0  0  0
   34.0170   31.2950   35.9330 C   0  0  0  0  0  3  0  0  0  0  0  0
   33.6630   32.1190   36.9950 C   0  0  0  0  0  3  0  0  0  0  0  0
   34.4210   33.2730   37.2020 C   0  0  0  0  0  0  0  0  0  0  0  0
   34.0680   34.1370   38.2950 N   0  0  0  0  0  0  0  0  0  0  0  0
   35.4640   33.5830   36.3980 N   0  0  0  0  0  0  0  0  0  0  0  0
   35.7900   32.7620   35.3670 C   0  0  0  0  0  0  0  0  0  0  0  0
   36.7670   33.0310   34.5970 O   0  0  0  0  0  0  0  0  0  0  0  0
   33.2500   34.6920   37.9070 H   0  0  0  0  0  0  0  0  0  0  0  0
   34.4250   34.2930   39.2740 H   0  0  0  0  0  0  0  0  0  0  0  0
   39.1900   24.8890   32.2010 C   0  0  1  0  0  0  0  0  0  0  0  0
   39.8920   25.7960   32.0000 H   0  0  0  0  0  0  0  0  0  0  0  0
   39.5370   24.4160   33.5990 C   0  0  2  0  0  0  0  0  0  0  0  0
   39.1040   22.9550   33.6900 C   0  0  0  0  0  0  0  0  0  0  0  0
   38.4970   24.0290   34.5190 C   0  0  1  0  0  0  0  0  0  0  0  0
   40.5580   24.6630   33.9220 H   0  0  0  0  0  0  0  0  0  0  0  0
   39.8610   22.2870   34.1370 H   0  0  0  0  0  0  0  0  0  0  0  0
   38.4200   22.4740   32.9950 H   0  0  0  0  0  0  0  0  0  0  0  0
   37.5030   24.4650   34.2890 H   0  0  0  0  0  0  0  0  0  0  0  0
   38.6690   23.8250   35.9650 C   0  0  0  0  0  0  0  0  0  0  0  0
   37.7800   24.4460   36.8050 C   0  0  0  0  0  0  0  0  0  0  0  0
   37.9420   24.2200   38.1480 C   0  0  0  0  0  0  0  0  0  0  0  0
   38.9370   23.4150   38.6710 C   0  0  0  0  0  0  0  0  0  0  0  0
   39.8170   22.8040   37.7870 C   0  0  0  0  0  0  0  0  0  0  0  0
   39.6650   23.0200   36.4690 N   0  0  0  0  0  0  0  0  0  0  0  0
   36.9920   25.0770   36.4750 H   0  0  0  0  0  0  0  0  0  0  0  0
   37.2560   24.6950   38.8630 H   0  0  0  0  0  0  0  0  0  0  0  0
   39.0370   23.2580   39.7210 H   0  0  0  0  0  0  0  0  0  0  0  0
   40.6220   22.1600   38.1050 H   0  0  0  0  0  0  0  0  0  0  0  0
   39.6920   24.1440   31.2580 O   0  0  0  0  0  0  0  0  0  0  0  0
   39.3490   24.2930   30.3510 H   0  0  0  0  0  0  0  0  0  0  0  0
  1  2  2  0  0  0  0
  1  6  1  0  0  0  0
  2  3  1  0  0  0  0
  3 26  1  0  0  0  0
  3  4  2  0  0  0  0
  5  4  1  0  0  0  0
  5  9  1  0  0  0  0
  6  5  2  0  0  0  0
  7  1  1  0  0  0  0
  8  2  1  0  0  0  0
  9 13  1  0  0  0  0
 10  9  2  0  0  0  0
 10 11  1  0  0  0  0
 11 12  2  0  0  0  0
 12 13  1  0  0  0  0
 12 16  1  0  0  0  0
 14 10  1  0  0  0  0
 15 11  1  0  0  0  0
 16 22  1  0  0  0  0
 16 17  1  0  0  0  0
 17 18  2  0  0  0  0
 18 19  1  0  0  0  0
 19 20  1  0  0  0  0
 20 25  1  0  0  0  0
 21 19  2  0  0  0  0
 22 21  1  0  0  0  0
 23 22  2  0  0  0  0
 24 20  1  0  0  0  0
 26 27  1  6  0  0  0
 26 28  1  0  0  0  0
 28 29  1  0  0  0  0
 28 31  1  1  0  0  0
 28 30  1  0  0  0  0
 29 32  1  0  0  0  0
 29 30  1  0  0  0  0
 30 34  1  6  0  0  0
 30 35  1  0  0  0  0
 33 29  1  0  0  0  0
 35 40  2  0  0  0  0
 35 36  1  0  0  0  0
 36 37  2  0  0  0  0
 37 38  1  0  0  0  0
 37 42  1  0  0  0  0
 38 43  1  0  0  0  0
 39 44  1  0  0  0  0
 39 38  2  0  0  0  0
 40 39  1  0  0  0  0
 41 36  1  0  0  0  0
 45 26  1  0  0  0  0
 46 45  1  0  0  0  0
M  END
>  <minimizedAffinity>
-6.50020695

$$$$

 OpenBabel03272501413D

 46 50  0  0  1  0  0  0  0  0999 V2000
   38.2140   27.3630   29.9610 C   0  0  0  0  0  0  0  0  0  0  0  0
   37.1910   28.2210   30.2970 C   0  0  0  0  0  0  0  0  0  0  0  0
   36.8450   28.5000   31.6280 C   0  0  0  0  0  0  0  0  0  0  0  0
   37.5420   27.9090   32.5590 N   0  0  0  0  0  0  0  0  0  0  0  0
   38.5590   27.0560   32.2130 C   0  0  0  0  0  0  0  0  0  0  0  0
   38.8830   26.7920   30.9550 N   0  0  0  0  0  0  0  0  0  0  0  0
   38.4690   27.1580   28.9420 H   0  0  0  0  0  0  0  0  0  0  0  0
   36.6650   28.6730   29.4420 H   0  0  0  0  0  0  0  0  0  0  0  0
   39.3670   26.4090   33.2440 C   0  0  0  0  0  0  0  0  0  0  0  0
   40.3590   26.8910   34.0570 C   0  0  0  0  0  0  0  0  0  0  0  0
   40.9550   26.0990   34.9610 C   0  0  0  0  0  0  0  0  0  0  0  0
   40.4970   24.7750   35.0060 C   0  0  0  0  0  0  0  0  0  0  0  0
   39.1870   24.7100   33.7110 S   0  0  0  0  0  0  0  0  0  0  0  0
   40.6240   27.9380   33.9240 H   0  0  0  0  0  0  0  0  0  0  0  0
   41.7290   26.3580   35.6400 H   0  0  0  0  0  0  0  0  0  0  0  0
   40.8580   23.6650   35.7940 N   0  0  0  0  0  0  0  0  0  0  0  0
   42.0870   23.1600   35.5160 C   0  0  0  0  0  3  0  0  0  0  0  0
   42.5450   22.0620   36.2360 C   0  0  0  0  0  3  0  0  0  0  0  0
   41.7040   21.5340   37.2180 C   0  0  0  0  0  0  0  0  0  0  0  0
   42.1610   20.3980   37.9720 N   0  0  0  0  0  0  0  0  0  0  0  0
   40.4850   22.0680   37.4630 N   0  0  0  0  0  0  0  0  0  0  0  0
   40.0610   23.1400   36.7450 C   0  0  0  0  0  0  0  0  0  0  0  0
   38.9190   23.6610   36.9570 O   0  0  0  0  0  0  0  0  0  0  0  0
   41.9750   19.5850   37.3140 H   0  0  0  0  0  0  0  0  0  0  0  0
   42.5880   20.2510   38.9240 H   0  0  0  0  0  0  0  0  0  0  0  0
   35.6860   29.3330   31.7930 C   0  0  1  0  0  0  0  0  0  0  0  0
   34.8730   28.5490   31.5070 H   0  0  0  0  0  0  0  0  0  0  0  0
   35.3570   29.7520   33.2120 C   0  0  2  0  0  0  0  0  0  0  0  0
   33.8970   29.3770   33.4560 C   0  0  0  0  0  0  0  0  0  0  0  0
   34.3820   30.7830   33.4630 C   0  0  1  0  0  0  0  0  0  0  0  0
   36.0950   29.4330   33.9620 H   0  0  0  0  0  0  0  0  0  0  0  0
   33.7190   28.8610   34.4150 H   0  0  0  0  0  0  0  0  0  0  0  0
   33.1850   29.1440   32.6680 H   0  0  0  0  0  0  0  0  0  0  0  0
   34.2180   31.4700   32.6060 H   0  0  0  0  0  0  0  0  0  0  0  0
   34.1760   31.4700   34.7460 C   0  0  0  0  0  0  0  0  0  0  0  0
   35.1910   31.4150   35.6670 C   0  0  0  0  0  0  0  0  0  0  0  0
   34.9880   32.0860   36.8460 C   0  0  0  0  0  0  0  0  0  0  0  0
   33.8350   32.7930   37.1330 C   0  0  0  0  0  0  0  0  0  0  0  0
   32.8300   32.8230   36.1740 C   0  0  0  0  0  0  0  0  0  0  0  0
   33.0210   32.1690   35.0150 N   0  0  0  0  0  0  0  0  0  0  0  0
   36.1030   30.8940   35.5150 H   0  0  0  0  0  0  0  0  0  0  0  0
   35.7710   32.0730   37.6170 H   0  0  0  0  0  0  0  0  0  0  0  0
   33.7070   33.3040   38.0600 H   0  0  0  0  0  0  0  0  0  0  0  0
   31.8990   33.3490   36.3120 H   0  0  0  0  0  0  0  0  0  0  0  0
   35.3230   30.2050   30.8940 O   0  0  0  0  0  0  0  0  0  0  0  0
   35.6750   30.0720   29.9880 H   0  0  0  0  0  0  0  0  0  0  0  0
  1  2  2  0  0  0  0
  1  6  1  0  0  0  0
  2  3  1  0  0  0  0
  3 26  1  0  0  0  0
  3  4  2  0  0  0  0
  5  4  1  0  0  0  0
  5  9  1  0  0  0  0
  6  5  2  0  0  0  0
  7  1  1  0  0  0  0
  8  2  1  0  0  0  0
  9 13  1  0  0  0  0
  9 10  2  0  0  0  0
 10 11  1  0  0  0  0
 11 12  2  0  0  0  0
 11 15  1  0  0  0  0
 12 16  1  0  0  0  0
 13 12  1  0  0  0  0
 14 10  1  0  0  0  0
 16 22  1  0  0  0  0
 17 16  1  0  0  0  0
 17 18  2  0  0  0  0
 18 19  1  0  0  0  0
 19 21  2  0  0  0  0
 19 20  1  0  0  0  0
 20 25  1  0  0  0  0
 22 23  2  0  0  0  0
 22 21  1  0  0  0  0
 24 20  1  0  0  0  0
 26 27  1  6  0  0  0
 26 28  1  0  0  0  0
 28 29  1  0  0  0  0
 28 30  1  0  0  0  0
 28 31  1  1  0  0  0
 29 30  1  0  0  0  0
 29 32  1  0  0  0  0
 30 34  1  6  0  0  0
 30 35  1  0  0  0  0
 33 29  1  0  0  0  0
 35 40  2  0  0  0  0
 35 36  1  0  0  0  0
 36 37  2  0  0  0  0
 37 38  1  0  0  0  0
 37 42  1  0  0  0  0
 38 43  1  0  0  0  0
 39 44  1  0  0  0  0
 39 38  2  0  0  0  0
 40 39  1  0  0  0  0
 41 36  1  0  0  0  0
 45 26  1  0  0  0  0
 46 45  1  0  0  0  0
M  END
>  <minimizedAffinity>
-6.4911623

$$$$

 OpenBabel03272501413D

 46 50  0  0  1  0  0  0  0  0999 V2000
   38.2880   29.0760   29.8720 C   0  0  0  0  0  0  0  0  0  0  0  0
   37.2530   29.7540   30.4750 C   0  0  0  0  0  0  0  0  0  0  0  0
   36.2260   29.1000   31.1740 C   0  0  0  0  0  0  0  0  0  0  0  0
   36.2880   27.7990   31.2400 N   0  0  0  0  0  0  0  0  0  0  0  0
   37.3240   27.1330   30.6350 C   0  0  0  0  0  0  0  0  0  0  0  0
   38.2920   27.7520   29.9720 N   0  0  0  0  0  0  0  0  0  0  0  0
   39.0650   29.5850   29.3410 H   0  0  0  0  0  0  0  0  0  0  0  0
   37.2910   30.8490   30.3680 H   0  0  0  0  0  0  0  0  0  0  0  0
   37.4230   25.6780   30.7230 C   0  0  0  0  0  0  0  0  0  0  0  0
   38.4860   24.8280   30.5680 C   0  0  0  0  0  0  0  0  0  0  0  0
   38.3380   23.5030   30.7180 C   0  0  0  0  0  0  0  0  0  0  0  0
   37.0440   23.0690   31.0380 C   0  0  0  0  0  0  0  0  0  0  0  0
   36.0550   24.6220   31.1140 S   0  0  0  0  0  0  0  0  0  0  0  0
   39.4400   25.2900   30.3190 H   0  0  0  0  0  0  0  0  0  0  0  0
   39.0820   22.7520   30.6240 H   0  0  0  0  0  0  0  0  0  0  0  0
   36.4950   21.7930   31.2720 N   0  0  0  0  0  0  0  0  0  0  0  0
   35.4200   21.7910   32.0990 C   0  0  0  0  0  3  0  0  0  0  0  0
   34.7990   20.5830   32.3970 C   0  0  0  0  0  3  0  0  0  0  0  0
   35.3230   19.4250   31.8210 C   0  0  0  0  0  0  0  0  0  0  0  0
   34.6930   18.1670   32.1200 N   0  0  0  0  0  0  0  0  0  0  0  0
   36.3980   19.4710   31.0010 N   0  0  0  0  0  0  0  0  0  0  0  0
   36.9860   20.6630   30.7250 C   0  0  0  0  0  0  0  0  0  0  0  0
   37.9990   20.7330   29.9560 O   0  0  0  0  0  0  0  0  0  0  0  0
   35.0890   17.9220   33.0740 H   0  0  0  0  0  0  0  0  0  0  0  0
   34.0060   17.5360   31.6290 H   0  0  0  0  0  0  0  0  0  0  0  0
   35.1730   29.9550   31.6480 C   0  0  1  0  0  0  0  0  0  0  0  0
   34.3230   29.1620   31.6980 H   0  0  0  0  0  0  0  0  0  0  0  0
   35.3200   30.4780   33.0630 C   0  0  2  0  0  0  0  0  0  0  0  0
   34.5600   29.5130   33.9700 C   0  0  0  0  0  0  0  0  0  0  0  0
   34.1660   30.9370   33.7960 C   0  0  1  0  0  0  0  0  0  0  0  0
   36.3490   30.7370   33.3480 H   0  0  0  0  0  0  0  0  0  0  0  0
   35.1160   29.2120   34.8740 H   0  0  0  0  0  0  0  0  0  0  0  0
   33.8270   28.7910   33.6190 H   0  0  0  0  0  0  0  0  0  0  0  0
   33.3130   31.2410   33.1540 H   0  0  0  0  0  0  0  0  0  0  0  0
   34.2000   31.7140   35.0430 C   0  0  0  0  0  0  0  0  0  0  0  0
   33.3760   31.3140   36.0640 C   0  0  0  0  0  0  0  0  0  0  0  0
   33.4440   32.0370   37.2280 C   0  0  0  0  0  0  0  0  0  0  0  0
   34.2850   33.1200   37.4050 C   0  0  0  0  0  0  0  0  0  0  0  0
   35.1030   33.4940   36.3460 C   0  0  0  0  0  0  0  0  0  0  0  0
   35.0430   32.7900   35.2020 N   0  0  0  0  0  0  0  0  0  0  0  0
   32.7070   30.4920   36.0000 H   0  0  0  0  0  0  0  0  0  0  0  0
   32.8040   31.7560   38.0770 H   0  0  0  0  0  0  0  0  0  0  0  0
   34.3140   33.6620   38.3230 H   0  0  0  0  0  0  0  0  0  0  0  0
   35.7890   34.3240   36.3950 H   0  0  0  0  0  0  0  0  0  0  0  0
   34.5270   30.7640   30.8570 O   0  0  0  0  0  0  0  0  0  0  0  0
   34.5660   30.5640   29.8970 H   0  0  0  0  0  0  0  0  0  0  0  0
  1  6  2  0  0  0  0
  1  2  1  0  0  0  0
  2  3  2  0  0  0  0
  3  4  1  0  0  0  0
  3 26  1  0  0  0  0
  5  9  1  0  0  0  0
  5  4  2  0  0  0  0
  6  5  1  0  0  0  0
  7  1  1  0  0  0  0
  8  2  1  0  0  0  0
  9 13  1  0  0  0  0
 10 11  1  0  0  0  0
 10  9  2  0  0  0  0
 11 12  2  0  0  0  0
 12 13  1  0  0  0  0
 12 16  1  0  0  0  0
 14 10  1  0  0  0  0
 15 11  1  0  0  0  0
 16 17  1  0  0  0  0
 17 18  2  0  0  0  0
 19 20  1  0  0  0  0
 19 18  1  0  0  0  0
 20 24  1  0  0  0  0
 21 19  2  0  0  0  0
 22 21  1  0  0  0  0
 22 16  1  0  0  0  0
 23 22  2  0  0  0  0
 25 20  1  0  0  0  0
 26 27  1  1  0  0  0
 26 28  1  0  0  0  0
 28 31  1  1  0  0  0
 28 30  1  0  0  0  0
 28 29  1  0  0  0  0
 29 32  1  0  0  0  0
 30 34  1  6  0  0  0
 30 29  1  0  0  0  0
 30 35  1  0  0  0  0
 33 29  1  0  0  0  0
 35 40  2  0  0  0  0
 35 36  1  0  0  0  0
 36 37  2  0  0  0  0
 37 38  1  0  0  0  0
 37 42  1  0  0  0  0
 38 43  1  0  0  0  0
 39 44  1  0  0  0  0
 39 38  2  0  0  0  0
 40 39  1  0  0  0  0
 41 36  1  0  0  0  0
 45 26  1  0  0  0  0
 46 45  1  0  0  0  0
M  END
>  <minimizedAffinity>
-6.44974613

$$$$

 OpenBabel03272501413D

 46 50  0  0  1  0  0  0  0  0999 V2000
   37.3300   28.5730   30.3150 C   0  0  0  0  0  0  0  0  0  0  0  0
   36.2450   29.4070   30.4640 C   0  0  0  0  0  0  0  0  0  0  0  0
   35.5970   29.5910   31.6960 C   0  0  0  0  0  0  0  0  0  0  0  0
   36.0690   28.9340   32.7180 N   0  0  0  0  0  0  0  0  0  0  0  0
   37.1510   28.1050   32.5580 C   0  0  0  0  0  0  0  0  0  0  0  0
   37.7600   27.9310   31.3930 N   0  0  0  0  0  0  0  0  0  0  0  0
   37.8160   28.4400   29.3700 H   0  0  0  0  0  0  0  0  0  0  0  0
   35.9230   29.9200   29.5450 H   0  0  0  0  0  0  0  0  0  0  0  0
   37.7090   27.3840   33.7000 C   0  0  0  0  0  0  0  0  0  0  0  0
   37.7870   27.7080   35.0290 C   0  0  0  0  0  0  0  0  0  0  0  0
   38.3360   26.8620   35.9130 C   0  0  0  0  0  0  0  0  0  0  0  0
   38.8110   25.6530   35.3850 C   0  0  0  0  0  0  0  0  0  0  0  0
   38.4420   25.7760   33.5830 S   0  0  0  0  0  0  0  0  0  0  0  0
   37.3820   28.6780   35.3130 H   0  0  0  0  0  0  0  0  0  0  0  0
   38.4510   27.0020   36.9600 H   0  0  0  0  0  0  0  0  0  0  0  0
   39.4350   24.5350   35.9700 N   0  0  0  0  0  0  0  0  0  0  0  0
   38.6980   23.9240   36.9310 C   0  0  0  0  0  3  0  0  0  0  0  0
   39.2200   22.8070   37.5750 C   0  0  0  0  0  3  0  0  0  0  0  0
   40.4890   22.3710   37.1920 C   0  0  0  0  0  0  0  0  0  0  0  0
   41.0450   21.2180   37.8480 N   0  0  0  0  0  0  0  0  0  0  0  0
   41.1910   23.0100   36.2270 N   0  0  0  0  0  0  0  0  0  0  0  0
   40.6600   24.0980   35.6140 C   0  0  0  0  0  0  0  0  0  0  0  0
   41.3000   24.7170   34.7030 O   0  0  0  0  0  0  0  0  0  0  0  0
   41.4110   21.6170   38.7610 H   0  0  0  0  0  0  0  0  0  0  0  0
   41.1370   20.1950   37.6160 H   0  0  0  0  0  0  0  0  0  0  0  0
   34.4190   30.4130   31.6460 C   0  0  1  0  0  0  0  0  0  0  0  0
   33.6430   29.5790   31.4060 H   0  0  0  0  0  0  0  0  0  0  0  0
   33.9670   31.0170   32.9610 C   0  0  2  0  0  0  0  0  0  0  0  0
   33.6450   32.4830   32.6840 C   0  0  0  0  0  0  0  0  0  0  0  0
   34.7420   32.0550   33.5930 C   0  0  1  0  0  0  0  0  0  0  0  0
   33.2130   30.4240   33.4980 H   0  0  0  0  0  0  0  0  0  0  0  0
   32.6870   32.8230   33.1140 H   0  0  0  0  0  0  0  0  0  0  0  0
   33.9700   33.0260   31.8000 H   0  0  0  0  0  0  0  0  0  0  0  0
   35.8080   32.0770   33.2840 H   0  0  0  0  0  0  0  0  0  0  0  0
   34.5760   32.5220   34.9770 C   0  0  0  0  0  0  0  0  0  0  0  0
   34.9660   33.8050   35.2660 C   0  0  0  0  0  0  0  0  0  0  0  0
   34.7780   34.2280   36.5570 C   0  0  0  0  0  0  0  0  0  0  0  0
   34.2270   33.4360   37.5460 C   0  0  0  0  0  0  0  0  0  0  0  0
   33.8450   32.1420   37.2130 C   0  0  0  0  0  0  0  0  0  0  0  0
   34.0260   31.7190   35.9500 N   0  0  0  0  0  0  0  0  0  0  0  0
   35.3950   34.4700   34.5580 H   0  0  0  0  0  0  0  0  0  0  0  0
   35.0740   35.2490   36.8400 H   0  0  0  0  0  0  0  0  0  0  0  0
   34.0930   33.7940   38.5420 H   0  0  0  0  0  0  0  0  0  0  0  0
   33.4080   31.4550   37.9200 H   0  0  0  0  0  0  0  0  0  0  0  0
   34.1260   31.1430   30.6080 O   0  0  0  0  0  0  0  0  0  0  0  0
   34.5540   30.8950   29.7610 H   0  0  0  0  0  0  0  0  0  0  0  0
  1  2  2  0  0  0  0
  1  6  1  0  0  0  0
  2  3  1  0  0  0  0
  3  4  2  0  0  0  0
  5  4  1  0  0  0  0
  5  9  1  0  0  0  0
  6  5  2  0  0  0  0
  7  1  1  0  0  0  0
  8  2  1  0  0  0  0
  9 10  2  0  0  0  0
 10 14  1  0  0  0  0
 10 11  1  0  0  0  0
 11 15  1  0  0  0  0
 12 11  2  0  0  0  0
 12 16  1  0  0  0  0
 13  9  1  0  0  0  0
 13 12  1  0  0  0  0
 16 17  1  0  0  0  0
 17 18  2  0  0  0  0
 19 18  1  0  0  0  0
 19 20  1  0  0  0  0
 20 24  1  0  0  0  0
 21 19  2  0  0  0  0
 22 16  1  0  0  0  0
 22 21  1  0  0  0  0
 23 22  2  0  0  0  0
 25 20  1  0  0  0  0
 26 27  1  6  0  0  0
 26  3  1  0  0  0  0
 26 28  1  0  0  0  0
 28 31  1  1  0  0  0
 28 30  1  0  0  0  0
 29 28  1  0  0  0  0
 29 32  1  0  0  0  0
 29 30  1  0  0  0  0
 30 34  1  6  0  0  0
 30 35  1  0  0  0  0
 33 29  1  0  0  0  0
 35 36  2  0  0  0  0
 35 40  1  0  0  0  0
 36 37  1  0  0  0  0
 37 42  1  0  0  0  0
 37 38  2  0  0  0  0
 38 43  1  0  0  0  0
 39 38  1  0  0  0  0
 39 44  1  0  0  0  0
 40 39  2  0  0  0  0
 41 36  1  0  0  0  0
 45 26  1  0  0  0  0
 46 45  1  0  0  0  0
M  END
>  <minimizedAffinity>
-6.38076687

$$$$

 OpenBabel03272501413D

 46 50  0  0  1  0  0  0  0  0999 V2000
   35.8920   24.2290   31.3950 C   0  0  0  0  0  0  0  0  0  0  0  0
   35.6220   25.5660   31.2100 C   0  0  0  0  0  0  0  0  0  0  0  0
   36.3700   26.5810   31.8260 C   0  0  0  0  0  0  0  0  0  0  0  0
   37.3550   26.2080   32.5950 N   0  0  0  0  0  0  0  0  0  0  0  0
   37.6160   24.8730   32.7730 C   0  0  0  0  0  0  0  0  0  0  0  0
   36.9060   23.9150   32.1920 N   0  0  0  0  0  0  0  0  0  0  0  0
   35.3140   23.4630   30.9200 H   0  0  0  0  0  0  0  0  0  0  0  0
   34.7740   25.7800   30.5400 H   0  0  0  0  0  0  0  0  0  0  0  0
   38.7330   24.4400   33.6090 C   0  0  0  0  0  0  0  0  0  0  0  0
   39.7610   25.1400   34.1840 C   0  0  0  0  0  0  0  0  0  0  0  0
   40.6770   24.5190   34.9430 C   0  0  0  0  0  0  0  0  0  0  0  0
   40.5050   23.1360   35.0960 C   0  0  0  0  0  0  0  0  0  0  0  0
   38.9890   22.7630   34.1160 S   0  0  0  0  0  0  0  0  0  0  0  0
   39.7840   26.2100   33.9890 H   0  0  0  0  0  0  0  0  0  0  0  0
   41.5120   24.9520   35.4370 H   0  0  0  0  0  0  0  0  0  0  0  0
   41.2330   22.1540   35.7950 N   0  0  0  0  0  0  0  0  0  0  0  0
   42.1010   21.4500   35.0260 C   0  0  0  0  0  3  0  0  0  0  0  0
   42.8720   20.4540   35.6150 C   0  0  0  0  0  3  0  0  0  0  0  0
   42.7080   20.2320   36.9840 C   0  0  0  0  0  0  0  0  0  0  0  0
   43.4970   19.2060   37.6100 N   0  0  0  0  0  0  0  0  0  0  0  0
   41.8310   20.9580   37.7150 N   0  0  0  0  0  0  0  0  0  0  0  0
   41.0890   21.9240   37.1150 C   0  0  0  0  0  0  0  0  0  0  0  0
   40.2570   22.6210   37.7810 O   0  0  0  0  0  0  0  0  0  0  0  0
   42.9740   18.3160   37.3590 H   0  0  0  0  0  0  0  0  0  0  0  0
   44.3770   19.1840   38.1890 H   0  0  0  0  0  0  0  0  0  0  0  0
   35.8820   27.9140   31.6050 C   0  0  1  0  0  0  0  0  0  0  0  0
   34.7670   27.6520   31.3930 H   0  0  0  0  0  0  0  0  0  0  0  0
   35.8560   28.8270   32.8150 C   0  0  2  0  0  0  0  0  0  0  0  0
   34.4240   29.3390   32.9500 C   0  0  0  0  0  0  0  0  0  0  0  0
   35.5770   30.2330   32.6640 C   0  0  1  0  0  0  0  0  0  0  0  0
   36.3300   28.4060   33.7130 H   0  0  0  0  0  0  0  0  0  0  0  0
   34.0210   29.2860   33.9760 H   0  0  0  0  0  0  0  0  0  0  0  0
   33.6780   29.2900   32.1610 H   0  0  0  0  0  0  0  0  0  0  0  0
   35.7820   30.6290   31.6470 H   0  0  0  0  0  0  0  0  0  0  0  0
   35.7940   31.2620   33.6920 C   0  0  0  0  0  0  0  0  0  0  0  0
   36.0460   32.5420   33.2670 C   0  0  0  0  0  0  0  0  0  0  0  0
   36.2190   33.4900   34.2420 C   0  0  0  0  0  0  0  0  0  0  0  0
   36.1500   33.2140   35.5950 C   0  0  0  0  0  0  0  0  0  0  0  0
   35.8930   31.9060   35.9840 C   0  0  0  0  0  0  0  0  0  0  0  0
   35.7230   30.9690   35.0350 N   0  0  0  0  0  0  0  0  0  0  0  0
   36.1120   32.8270   32.2460 H   0  0  0  0  0  0  0  0  0  0  0  0
   36.4230   34.5320   33.9540 H   0  0  0  0  0  0  0  0  0  0  0  0
   36.2890   33.9750   36.3300 H   0  0  0  0  0  0  0  0  0  0  0  0
   35.8220   31.6000   37.0160 H   0  0  0  0  0  0  0  0  0  0  0  0
   36.0660   28.5440   30.4800 O   0  0  0  0  0  0  0  0  0  0  0  0
   36.2760   27.9920   29.6970 H   0  0  0  0  0  0  0  0  0  0  0  0
  1  6  1  0  0  0  0
  2  1  2  0  0  0  0
  2  3  1  0  0  0  0
  3  4  2  0  0  0  0
  4  5  1  0  0  0  0
  5  9  1  0  0  0  0
  6  5  2  0  0  0  0
  7  1  1  0  0  0  0
  8  2  1  0  0  0  0
  9 13  1  0  0  0  0
  9 10  2  0  0  0  0
 10 11  1  0  0  0  0
 11 12  2  0  0  0  0
 11 15  1  0  0  0  0
 12 16  1  0  0  0  0
 13 12  1  0  0  0  0
 14 10  1  0  0  0  0
 16 22  1  0  0  0  0
 17 18  2  0  0  0  0
 17 16  1  0  0  0  0
 18 19  1  0  0  0  0
 19 20  1  0  0  0  0
 19 21  2  0  0  0  0
 20 25  1  0  0  0  0
 22 21  1  0  0  0  0
 22 23  2  0  0  0  0
 24 20  1  0  0  0  0
 26 27  1  6  0  0  0
 26  3  1  0  0  0  0
 26 28  1  0  0  0  0
 28 29  1  0  0  0  0
 28 31  1  1  0  0  0
 29 32  1  0  0  0  0
 30 34  1  6  0  0  0
 30 28  1  0  0  0  0
 30 29  1  0  0  0  0
 30 35  1  0  0  0  0
 33 29  1  0  0  0  0
 35 40  1  0  0  0  0
 36 35  2  0  0  0  0
 36 37  1  0  0  0  0
 37 38  2  0  0  0  0
 38 39  1  0  0  0  0
 38 43  1  0  0  0  0
 39 44  1  0  0  0  0
 40 39  2  0  0  0  0
 41 36  1  0  0  0  0
 42 37  1  0  0  0  0
 45 26  1  0  0  0  0
 46 45  1  0  0  0  0
M  END
>  <minimizedAffinity>
-6.31349611

$$$$

 OpenBabel03272501413D

 46 50  0  0  1  0  0  0  0  0999 V2000
   37.3560   28.3040   30.4240 C   0  0  0  0  0  0  0  0  0  0  0  0
   36.2720   29.1410   30.5580 C   0  0  0  0  0  0  0  0  0  0  0  0
   35.6300   29.3570   31.7880 C   0  0  0  0  0  0  0  0  0  0  0  0
   36.1080   28.7260   32.8240 N   0  0  0  0  0  0  0  0  0  0  0  0
   37.1890   27.8930   32.6800 C   0  0  0  0  0  0  0  0  0  0  0  0
   37.7920   27.6890   31.5170 N   0  0  0  0  0  0  0  0  0  0  0  0
   37.8380   28.1470   29.4810 H   0  0  0  0  0  0  0  0  0  0  0  0
   35.9460   29.6320   29.6280 H   0  0  0  0  0  0  0  0  0  0  0  0
   37.7520   27.2010   33.8370 C   0  0  0  0  0  0  0  0  0  0  0  0
   37.9360   27.6010   35.1340 C   0  0  0  0  0  0  0  0  0  0  0  0
   38.4650   26.7690   36.0440 C   0  0  0  0  0  0  0  0  0  0  0  0
   38.8050   25.4930   35.5750 C   0  0  0  0  0  0  0  0  0  0  0  0
   38.3410   25.5310   33.7920 S   0  0  0  0  0  0  0  0  0  0  0  0
   37.6310   28.6190   35.3720 H   0  0  0  0  0  0  0  0  0  0  0  0
   38.6540   26.9650   37.0700 H   0  0  0  0  0  0  0  0  0  0  0  0
   39.3690   24.3640   36.2010 N   0  0  0  0  0  0  0  0  0  0  0  0
   40.5590   23.9730   35.6800 C   0  0  0  0  0  3  0  0  0  0  0  0
   41.2040   22.8680   36.2240 C   0  0  0  0  0  3  0  0  0  0  0  0
   40.5840   22.2140   37.2900 C   0  0  0  0  0  0  0  0  0  0  0  0
   41.2380   21.0690   37.8640 N   0  0  0  0  0  0  0  0  0  0  0  0
   39.3960   22.6370   37.7800 N   0  0  0  0  0  0  0  0  0  0  0  0
   38.7860   23.7190   37.2310 C   0  0  0  0  0  0  0  0  0  0  0  0
   37.6680   24.1370   37.6750 O   0  0  0  0  0  0  0  0  0  0  0  0
   40.9910   20.2890   37.1870 H   0  0  0  0  0  0  0  0  0  0  0  0
   41.8330   20.8930   38.7150 H   0  0  0  0  0  0  0  0  0  0  0  0
   34.4530   30.1770   31.7230 C   0  0  1  0  0  0  0  0  0  0  0  0
   33.7690   29.4420   31.1330 H   0  0  0  0  0  0  0  0  0  0  0  0
   33.7370   30.4270   33.0360 C   0  0  2  0  0  0  0  0  0  0  0  0
   32.4990   29.5340   33.0390 C   0  0  0  0  0  0  0  0  0  0  0  0
   32.4230   31.0190   33.0500 C   0  0  1  0  0  0  0  0  0  0  0  0
   34.3870   30.3960   33.9210 H   0  0  0  0  0  0  0  0  0  0  0  0
   32.3480   28.9770   33.9790 H   0  0  0  0  0  0  0  0  0  0  0  0
   32.0800   29.0620   32.1530 H   0  0  0  0  0  0  0  0  0  0  0  0
   32.1800   31.6060   32.1400 H   0  0  0  0  0  0  0  0  0  0  0  0
   31.7450   31.5650   34.2350 C   0  0  0  0  0  0  0  0  0  0  0  0
   32.1810   32.7730   34.7170 C   0  0  0  0  0  0  0  0  0  0  0  0
   31.5170   33.2760   35.8060 C   0  0  0  0  0  0  0  0  0  0  0  0
   30.4580   32.6310   36.4190 C   0  0  0  0  0  0  0  0  0  0  0  0
   30.0480   31.4090   35.9010 C   0  0  0  0  0  0  0  0  0  0  0  0
   30.6930   30.9090   34.8330 N   0  0  0  0  0  0  0  0  0  0  0  0
   32.9850   33.3240   34.2970 H   0  0  0  0  0  0  0  0  0  0  0  0
   31.8270   34.2420   36.2310 H   0  0  0  0  0  0  0  0  0  0  0  0
   29.9620   33.0490   37.2660 H   0  0  0  0  0  0  0  0  0  0  0  0
   29.2320   30.8370   36.3140 H   0  0  0  0  0  0  0  0  0  0  0  0
   34.3330   31.1540   30.8690 O   0  0  0  0  0  0  0  0  0  0  0  0
   34.9230   31.1270   30.0860 H   0  0  0  0  0  0  0  0  0  0  0  0
  1  2  2  0  0  0  0
  1  6  1  0  0  0  0
  2  3  1  0  0  0  0
  3  4  2  0  0  0  0
  5  4  1  0  0  0  0
  5  9  1  0  0  0  0
  6  5  2  0  0  0  0
  7  1  1  0  0  0  0
  8  2  1  0  0  0  0
  9 10  2  0  0  0  0
 10 14  1  0  0  0  0
 10 11  1  0  0  0  0
 11 15  1  0  0  0  0
 12 11  2  0  0  0  0
 12 16  1  0  0  0  0
 13  9  1  0  0  0  0
 13 12  1  0  0  0  0
 16 22  1  0  0  0  0
 17 16  1  0  0  0  0
 17 18  2  0  0  0  0
 18 19  1  0  0  0  0
 19 21  2  0  0  0  0
 19 20  1  0  0  0  0
 20 25  1  0  0  0  0
 22 23  2  0  0  0  0
 22 21  1  0  0  0  0
 24 20  1  0  0  0  0
 26 27  1  6  0  0  0
 26  3  1  0  0  0  0
 26 28  1  0  0  0  0
 28 29  1  0  0  0  0
 28 30  1  0  0  0  0
 28 31  1  1  0  0  0
 29 30  1  0  0  0  0
 29 32  1  0  0  0  0
 30 34  1  6  0  0  0
 30 35  1  0  0  0  0
 33 29  1  0  0  0  0
 35 36  2  0  0  0  0
 35 40  1  0  0  0  0
 36 37  1  0  0  0  0
 37 42  1  0  0  0  0
 37 38  2  0  0  0  0
 38 43  1  0  0  0  0
 39 44  1  0  0  0  0
 39 38  1  0  0  0  0
 40 39  2  0  0  0  0
 41 36  1  0  0  0  0
 45 26  1  0  0  0  0
 46 45  1  0  0  0  0
M  END
>  <minimizedAffinity>
-6.27749634

$$$$

 OpenBabel03272501413D

 46 50  0  0  1  0  0  0  0  0999 V2000
   38.0710   28.6780   29.0630 C   0  0  0  0  0  0  0  0  0  0  0  0
   37.0850   29.4360   29.6530 C   0  0  0  0  0  0  0  0  0  0  0  0
   36.5440   29.1270   30.9110 C   0  0  0  0  0  0  0  0  0  0  0  0
   37.0200   28.0760   31.5190 N   0  0  0  0  0  0  0  0  0  0  0  0
   38.0030   27.3280   30.9230 C   0  0  0  0  0  0  0  0  0  0  0  0
   38.5100   27.6190   29.7320 N   0  0  0  0  0  0  0  0  0  0  0  0
   38.4750   28.9230   28.1030 H   0  0  0  0  0  0  0  0  0  0  0  0
   36.7520   30.3050   29.0640 H   0  0  0  0  0  0  0  0  0  0  0  0
   38.5650   26.1640   31.6030 C   0  0  0  0  0  0  0  0  0  0  0  0
   39.2360   25.0690   31.1270 C   0  0  0  0  0  0  0  0  0  0  0  0
   39.6850   24.1180   31.9600 C   0  0  0  0  0  0  0  0  0  0  0  0
   39.4200   24.3280   33.3210 C   0  0  0  0  0  0  0  0  0  0  0  0
   38.5090   25.9300   33.3580 S   0  0  0  0  0  0  0  0  0  0  0  0
   39.3780   25.0230   30.0480 H   0  0  0  0  0  0  0  0  0  0  0  0
   40.2140   23.2320   31.7090 H   0  0  0  0  0  0  0  0  0  0  0  0
   39.7180   23.5830   34.4780 N   0  0  0  0  0  0  0  0  0  0  0  0
   40.9300   23.8580   35.0220 C   0  0  0  0  0  3  0  0  0  0  0  0
   41.3260   23.1790   36.1690 C   0  0  0  0  0  3  0  0  0  0  0  0
   40.4430   22.2400   36.7040 C   0  0  0  0  0  0  0  0  0  0  0  0
   40.8360   21.5270   37.8890 N   0  0  0  0  0  0  0  0  0  0  0  0
   39.2420   21.9950   36.1290 N   0  0  0  0  0  0  0  0  0  0  0  0
   38.8790   22.6720   35.0100 C   0  0  0  0  0  0  0  0  0  0  0  0
   37.7550   22.4600   34.4500 O   0  0  0  0  0  0  0  0  0  0  0  0
   41.4790   20.7710   37.5110 H   0  0  0  0  0  0  0  0  0  0  0  0
   40.6300   21.6120   38.9190 H   0  0  0  0  0  0  0  0  0  0  0  0
   35.4520   29.9640   31.3240 C   0  0  1  0  0  0  0  0  0  0  0  0
   34.5840   29.2100   31.1390 H   0  0  0  0  0  0  0  0  0  0  0  0
   35.3850   30.2980   32.8020 C   0  0  2  0  0  0  0  0  0  0  0  0
   34.2470   29.4670   33.3900 C   0  0  0  0  0  0  0  0  0  0  0  0
   34.2250   30.9540   33.3510 C   0  0  1  0  0  0  0  0  0  0  0  0
   36.3540   30.2670   33.3190 H   0  0  0  0  0  0  0  0  0  0  0  0
   34.5040   28.9540   34.3320 H   0  0  0  0  0  0  0  0  0  0  0  0
   33.4720   28.9840   32.8000 H   0  0  0  0  0  0  0  0  0  0  0  0
   33.6270   31.5180   32.6050 H   0  0  0  0  0  0  0  0  0  0  0  0
   34.1460   31.5760   34.6810 C   0  0  0  0  0  0  0  0  0  0  0  0
   35.1940   31.3720   35.5420 C   0  0  0  0  0  0  0  0  0  0  0  0
   35.1110   31.9840   36.7660 C   0  0  0  0  0  0  0  0  0  0  0  0
   34.0440   32.7740   37.1540 C   0  0  0  0  0  0  0  0  0  0  0  0
   33.0020   32.9550   36.2530 C   0  0  0  0  0  0  0  0  0  0  0  0
   33.0750   32.3590   35.0500 N   0  0  0  0  0  0  0  0  0  0  0  0
   36.0440   30.7800   35.3130 H   0  0  0  0  0  0  0  0  0  0  0  0
   35.9250   31.8520   37.4930 H   0  0  0  0  0  0  0  0  0  0  0  0
   34.0080   33.2360   38.1140 H   0  0  0  0  0  0  0  0  0  0  0  0
   32.1320   33.5540   36.4690 H   0  0  0  0  0  0  0  0  0  0  0  0
   34.9600   30.8950   30.5560 O   0  0  0  0  0  0  0  0  0  0  0  0
   35.1450   30.8140   29.5960 H   0  0  0  0  0  0  0  0  0  0  0  0
  1  2  2  0  0  0  0
  1  6  1  0  0  0  0
  2  3  1  0  0  0  0
  3 26  1  0  0  0  0
  3  4  2  0  0  0  0
  5  4  1  0  0  0  0
  5  9  1  0  0  0  0
  6  5  2  0  0  0  0
  7  1  1  0  0  0  0
  8  2  1  0  0  0  0
  9 13  1  0  0  0  0
 10  9  2  0  0  0  0
 10 11  1  0  0  0  0
 11 12  2  0  0  0  0
 12 13  1  0  0  0  0
 12 16  1  0  0  0  0
 14 10  1  0  0  0  0
 15 11  1  0  0  0  0
 16 22  1  0  0  0  0
 16 17  1  0  0  0  0
 17 18  2  0  0  0  0
 18 19  1  0  0  0  0
 19 20  1  0  0  0  0
 20 25  1  0  0  0  0
 21 19  2  0  0  0  0
 22 21  1  0  0  0  0
 23 22  2  0  0  0  0
 24 20  1  0  0  0  0
 26 27  1  6  0  0  0
 26 28  1  0  0  0  0
 28 31  1  1  0  0  0
 28 30  1  0  0  0  0
 28 29  1  0  0  0  0
 29 32  1  0  0  0  0
 30 34  1  6  0  0  0
 30 29  1  0  0  0  0
 30 35  1  0  0  0  0
 33 29  1  0  0  0  0
 35 40  2  0  0  0  0
 35 36  1  0  0  0  0
 36 37  2  0  0  0  0
 37 38  1  0  0  0  0
 37 42  1  0  0  0  0
 38 43  1  0  0  0  0
 39 44  1  0  0  0  0
 39 38  2  0  0  0  0
 40 39  1  0  0  0  0
 41 36  1  0  0  0  0
 45 26  1  0  0  0  0
 46 45  1  0  0  0  0
M  END
>  <minimizedAffinity>
-6.17742538

$$$$

 OpenBabel03272501413D

 46 50  0  0  1  0  0  0  0  0999 V2000
   37.9560   27.9660   29.6570 C   0  0  0  0  0  0  0  0  0  0  0  0
   37.1150   29.0550   29.7090 C   0  0  0  0  0  0  0  0  0  0  0  0
   36.5930   29.5500   30.9140 C   0  0  0  0  0  0  0  0  0  0  0  0
   36.9420   28.9330   32.0090 N   0  0  0  0  0  0  0  0  0  0  0  0
   37.7810   27.8500   31.9460 C   0  0  0  0  0  0  0  0  0  0  0  0
   38.2710   27.3820   30.8060 N   0  0  0  0  0  0  0  0  0  0  0  0
   38.3480   27.5980   28.7320 H   0  0  0  0  0  0  0  0  0  0  0  0
   36.8820   29.5090   28.7340 H   0  0  0  0  0  0  0  0  0  0  0  0
   38.2030   27.1660   33.1660 C   0  0  0  0  0  0  0  0  0  0  0  0
   38.0920   27.5130   34.4870 C   0  0  0  0  0  0  0  0  0  0  0  0
   38.5440   26.7010   35.4540 C   0  0  0  0  0  0  0  0  0  0  0  0
   39.1240   25.5010   35.0180 C   0  0  0  0  0  0  0  0  0  0  0  0
   38.9960   25.5830   33.1820 S   0  0  0  0  0  0  0  0  0  0  0  0
   37.6220   28.4730   34.6950 H   0  0  0  0  0  0  0  0  0  0  0  0
   38.5130   26.8610   36.5030 H   0  0  0  0  0  0  0  0  0  0  0  0
   39.7000   24.4140   35.7040 N   0  0  0  0  0  0  0  0  0  0  0  0
   38.8630   23.7980   36.5760 C   0  0  0  0  0  3  0  0  0  0  0  0
   39.3290   22.7110   37.3070 C   0  0  0  0  0  3  0  0  0  0  0  0
   40.6490   22.3080   37.1000 C   0  0  0  0  0  0  0  0  0  0  0  0
   41.1480   21.1860   37.8470 N   0  0  0  0  0  0  0  0  0  0  0  0
   41.4510   22.9510   36.2190 N   0  0  0  0  0  0  0  0  0  0  0  0
   40.9720   24.0100   35.5180 C   0  0  0  0  0  0  0  0  0  0  0  0
   41.7060   24.6310   34.6830 O   0  0  0  0  0  0  0  0  0  0  0  0
   41.3820   21.6130   38.7910 H   0  0  0  0  0  0  0  0  0  0  0  0
   41.3000   20.1620   37.6530 H   0  0  0  0  0  0  0  0  0  0  0  0
   35.6490   30.6240   30.7720 C   0  0  1  0  0  0  0  0  0  0  0  0
   35.3290   30.4200   29.6710 H   0  0  0  0  0  0  0  0  0  0  0  0
   34.3750   30.5090   31.5870 C   0  0  2  0  0  0  0  0  0  0  0  0
   34.5190   31.4700   32.7650 C   0  0  0  0  0  0  0  0  0  0  0  0
   34.4130   29.9970   32.9340 C   0  0  1  0  0  0  0  0  0  0  0  0
   33.4500   30.5660   30.9960 H   0  0  0  0  0  0  0  0  0  0  0  0
   33.6310   32.1010   32.9430 H   0  0  0  0  0  0  0  0  0  0  0  0
   35.4620   31.9010   33.0930 H   0  0  0  0  0  0  0  0  0  0  0  0
   35.2970   29.3610   33.1520 H   0  0  0  0  0  0  0  0  0  0  0  0
   33.2450   29.5770   33.7210 C   0  0  0  0  0  0  0  0  0  0  0  0
   33.2390   29.8770   35.0600 C   0  0  0  0  0  0  0  0  0  0  0  0
   32.1270   29.5000   35.7690 C   0  0  0  0  0  0  0  0  0  0  0  0
   31.0470   28.8470   35.2040 C   0  0  0  0  0  0  0  0  0  0  0  0
   31.0930   28.5610   33.8460 C   0  0  0  0  0  0  0  0  0  0  0  0
   32.1780   28.9270   33.1420 N   0  0  0  0  0  0  0  0  0  0  0  0
   34.0310   30.3760   35.5600 H   0  0  0  0  0  0  0  0  0  0  0  0
   32.0730   29.7170   36.8450 H   0  0  0  0  0  0  0  0  0  0  0  0
   30.1970   28.5660   35.7830 H   0  0  0  0  0  0  0  0  0  0  0  0
   30.2970   28.0560   33.3220 H   0  0  0  0  0  0  0  0  0  0  0  0
   36.0220   31.8530   30.5570 O   0  0  0  0  0  0  0  0  0  0  0  0
   36.9270   31.9810   30.2010 H   0  0  0  0  0  0  0  0  0  0  0  0
  1  2  2  0  0  0  0
  1  6  1  0  0  0  0
  2  3  1  0  0  0  0
  3  4  2  0  0  0  0
  5  4  1  0  0  0  0
  5  9  1  0  0  0  0
  6  5  2  0  0  0  0
  7  1  1  0  0  0  0
  8  2  1  0  0  0  0
  9 13  1  0  0  0  0
  9 10  2  0  0  0  0
 10 14  1  0  0  0  0
 10 11  1  0  0  0  0
 11 15  1  0  0  0  0
 12 11  2  0  0  0  0
 12 16  1  0  0  0  0
 13 12  1  0  0  0  0
 16 17  1  0  0  0  0
 17 18  2  0  0  0  0
 19 18  1  0  0  0  0
 19 20  1  0  0  0  0
 20 24  1  0  0  0  0
 21 19  2  0  0  0  0
 22 16  1  0  0  0  0
 22 21  1  0  0  0  0
 23 22  2  0  0  0  0
 25 20  1  0  0  0  0
 26 27  1  6  0  0  0
 26  3  1  0  0  0  0
 26 28  1  0  0  0  0
 28 31  1  6  0  0  0
 28 29  1  0  0  0  0
 28 30  1  0  0  0  0
 29 30  1  0  0  0  0
 29 32  1  0  0  0  0
 29 33  1  0  0  0  0
 30 34  1  1  0  0  0
 30 35  1  0  0  0  0
 35 36  1  0  0  0  0
 36 41  1  0  0  0  0
 36 37  2  0  0  0  0
 37 42  1  0  0  0  0
 38 37  1  0  0  0  0
 38 43  1  0  0  0  0
 39 38  2  0  0  0  0
 40 35  2  0  0  0  0
 40 39  1  0  0  0  0
 44 39  1  0  0  0  0
 45 26  1  0  0  0  0
 46 45  1  0  0  0  0
M  END
>  <minimizedAffinity>
-6.09291983

$$$$

 OpenBabel03272501413D

 46 50  0  0  1  0  0  0  0  0999 V2000
   35.6340   26.4810   31.3340 C   0  0  0  0  0  0  0  0  0  0  0  0
   35.2120   27.7760   31.5320 C   0  0  0  0  0  0  0  0  0  0  0  0
   35.7410   28.5980   32.5380 C   0  0  0  0  0  0  0  0  0  0  0  0
   36.6700   28.0850   33.2960 N   0  0  0  0  0  0  0  0  0  0  0  0
   37.0830   26.7930   33.0910 C   0  0  0  0  0  0  0  0  0  0  0  0
   36.5790   26.0160   32.1410 N   0  0  0  0  0  0  0  0  0  0  0  0
   35.2220   25.8620   30.5630 H   0  0  0  0  0  0  0  0  0  0  0  0
   34.4280   28.1200   30.8390 H   0  0  0  0  0  0  0  0  0  0  0  0
   38.1410   26.2120   33.9140 C   0  0  0  0  0  0  0  0  0  0  0  0
   39.2320   26.7760   34.5210 C   0  0  0  0  0  0  0  0  0  0  0  0
   40.0720   26.0340   35.2590 C   0  0  0  0  0  0  0  0  0  0  0  0
   39.7540   24.6720   35.3560 C   0  0  0  0  0  0  0  0  0  0  0  0
   38.2150   24.4990   34.3560 S   0  0  0  0  0  0  0  0  0  0  0  0
   39.3700   27.8450   34.3690 H   0  0  0  0  0  0  0  0  0  0  0  0
   40.9430   26.3570   35.7730 H   0  0  0  0  0  0  0  0  0  0  0  0
   40.3690   23.5920   36.0190 N   0  0  0  0  0  0  0  0  0  0  0  0
   41.5040   23.1470   35.4250 C   0  0  0  0  0  3  0  0  0  0  0  0
   42.1930   22.0830   35.9970 C   0  0  0  0  0  3  0  0  0  0  0  0
   41.6710   21.5260   37.1660 C   0  0  0  0  0  0  0  0  0  0  0  0
   42.3710   20.4240   37.7700 N   0  0  0  0  0  0  0  0  0  0  0  0
   40.5350   22.0010   37.7260 N   0  0  0  0  0  0  0  0  0  0  0  0
   39.8810   23.0410   37.1480 C   0  0  0  0  0  0  0  0  0  0  0  0
   38.8100   23.5070   37.6560 O   0  0  0  0  0  0  0  0  0  0  0  0
   42.0600   19.5940   37.1860 H   0  0  0  0  0  0  0  0  0  0  0  0
   43.0420   20.3120   38.5750 H   0  0  0  0  0  0  0  0  0  0  0  0
   35.1100   29.8830   32.6680 C   0  0  1  0  0  0  0  0  0  0  0  0
   34.1350   29.5370   33.2020 H   0  0  0  0  0  0  0  0  0  0  0  0
   35.7670   30.8590   33.6240 C   0  0  2  0  0  0  0  0  0  0  0  0
   34.9180   30.8720   34.8930 C   0  0  0  0  0  0  0  0  0  0  0  0
   35.0850   32.0650   34.0200 C   0  0  1  0  0  0  0  0  0  0  0  0
   36.8520   30.7200   33.7410 H   0  0  0  0  0  0  0  0  0  0  0  0
   35.5020   30.7980   35.8260 H   0  0  0  0  0  0  0  0  0  0  0  0
   33.9020   30.4900   34.9540 H   0  0  0  0  0  0  0  0  0  0  0  0
   34.2970   32.3940   33.3110 H   0  0  0  0  0  0  0  0  0  0  0  0
   35.7030   33.2110   34.7020 C   0  0  0  0  0  0  0  0  0  0  0  0
   37.0460   33.4170   34.5100 C   0  0  0  0  0  0  0  0  0  0  0  0
   37.5960   34.5070   35.1340 C   0  0  0  0  0  0  0  0  0  0  0  0
   36.8720   35.3790   35.9250 C   0  0  0  0  0  0  0  0  0  0  0  0
   35.5150   35.1360   36.0950 C   0  0  0  0  0  0  0  0  0  0  0  0
   34.9670   34.0690   35.4870 N   0  0  0  0  0  0  0  0  0  0  0  0
   37.6640   32.7900   33.9170 H   0  0  0  0  0  0  0  0  0  0  0  0
   38.6690   34.7160   35.0120 H   0  0  0  0  0  0  0  0  0  0  0  0
   37.3290   36.2190   36.3980 H   0  0  0  0  0  0  0  0  0  0  0  0
   34.8730   35.7630   36.6930 H   0  0  0  0  0  0  0  0  0  0  0  0
   34.4970   30.4590   31.6730 O   0  0  0  0  0  0  0  0  0  0  0  0
   34.2190   29.8780   30.9340 H   0  0  0  0  0  0  0  0  0  0  0  0
  1  2  2  0  0  0  0
  1  6  1  0  0  0  0
  2  3  1  0  0  0  0
  3 26  1  0  0  0  0
  3  4  2  0  0  0  0
  5  4  1  0  0  0  0
  5  9  1  0  0  0  0
  6  5  2  0  0  0  0
  7  1  1  0  0  0  0
  8  2  1  0  0  0  0
  9 13  1  0  0  0  0
  9 10  2  0  0  0  0
 10 11  1  0  0  0  0
 11 12  2  0  0  0  0
 11 15  1  0  0  0  0
 12 16  1  0  0  0  0
 13 12  1  0  0  0  0
 14 10  1  0  0  0  0
 16 22  1  0  0  0  0
 17 18  2  0  0  0  0
 17 16  1  0  0  0  0
 18 19  1  0  0  0  0
 19 21  2  0  0  0  0
 19 20  1  0  0  0  0
 20 25  1  0  0  0  0
 22 23  2  0  0  0  0
 22 21  1  0  0  0  0
 24 20  1  0  0  0  0
 26 27  1  1  0  0  0
 26 28  1  0  0  0  0
 28 31  1  1  0  0  0
 28 30  1  0  0  0  0
 28 29  1  0  0  0  0
 29 33  1  0  0  0  0
 29 32  1  0  0  0  0
 30 34  1  6  0  0  0
 30 35  1  0  0  0  0
 30 29  1  0  0  0  0
 35 40  1  0  0  0  0
 36 35  2  0  0  0  0
 36 37  1  0  0  0  0
 37 38  2  0  0  0  0
 38 39  1  0  0  0  0
 38 43  1  0  0  0  0
 39 44  1  0  0  0  0
 40 39  2  0  0  0  0
 41 36  1  0  0  0  0
 42 37  1  0  0  0  0
 45 26  1  0  0  0  0
 46 45  1  0  0  0  0
M  END
>  <minimizedAffinity>
-6.02607584

$$$$
