
 OpenBabel03272504323D

 41 44  0  0  0  0  0  0  0  0999 V2000
   35.2770   29.5810   47.6860 C   0  0  0  0  0  0  0  0  0  0  0  0
   35.4720   30.1050   46.4110 C   0  0  0  0  0  0  0  0  0  0  0  0
   34.4730   30.0260   45.4670 C   0  0  0  0  0  0  0  0  0  0  0  0
   33.3030   29.4190   45.8350 N   0  0  0  0  0  0  0  0  0  0  0  0
   33.1410   28.9200   47.0790 C   0  0  0  0  0  0  0  0  0  0  0  0
   34.1200   28.9940   48.0100 N   0  0  0  0  0  0  0  0  0  0  0  0
   36.4180   30.5730   46.1760 H   0  0  0  0  0  0  0  0  0  0  0  0
   34.5950   30.4250   44.4620 H   0  0  0  0  0  0  0  0  0  0  0  0
   31.8730   28.2790   47.4370 C   0  0  0  0  0  0  0  0  0  0  0  0
   31.7660   27.4960   48.5500 C   0  0  0  0  0  0  0  0  0  0  0  0
   30.5850   26.8720   48.9270 C   0  0  0  0  0  0  0  0  0  0  0  0
   29.5320   27.0910   48.1100 N   0  0  0  0  0  0  0  0  0  0  0  0
   29.6260   27.8560   47.0160 C   0  0  0  0  0  0  0  0  0  0  0  0
   30.7920   28.4540   46.6710 N   0  0  0  0  0  0  0  0  0  0  0  0
   32.6140   27.3250   49.2010 H   0  0  0  0  0  0  0  0  0  0  0  0
   30.5060   26.2550   49.8090 H   0  0  0  0  0  0  0  0  0  0  0  0
   28.5640   28.1360   46.1080 N   0  0  0  0  0  0  0  0  0  0  0  0
   27.3200   28.0120   46.6030 C   0  0  0  0  0  3  0  0  0  0  0  0
   26.2950   28.2850   45.7190 C   0  0  0  0  0  3  0  0  0  0  0  0
   26.6310   28.6510   44.4310 C   0  0  0  0  0  0  0  0  0  0  0  0
   25.6240   28.9460   43.4750 N   0  0  0  0  0  0  0  0  0  0  0  0
   27.9240   28.7530   44.0050 N   0  0  0  0  0  0  0  0  0  0  0  0
   28.9270   28.4890   44.8610 C   0  0  0  0  0  0  0  0  0  0  0  0
   30.1460   28.5600   44.5410 O   0  0  0  0  0  0  0  0  0  0  0  0
   24.9080   28.7190   42.7500 H   0  0  0  0  0  0  0  0  0  0  0  0
   25.3240   28.0040   43.0830 H   0  0  0  0  0  0  0  0  0  0  0  0
   36.2800   29.6340   48.7090 N   0  0  0  0  0  0  0  0  0  0  0  0
   36.1850   28.8660   49.9290 C   0  0  0  0  0  0  0  0  0  0  0  0
   36.5190   29.6240   51.1820 C   0  0  0  0  0  0  0  0  0  0  0  0
   37.4390   30.6840   51.0740 N   0  0  0  0  0  0  0  0  0  0  0  0
   37.3240   31.4270   49.8220 C   0  0  0  0  0  0  0  0  0  0  0  0
   37.4670   30.4010   48.7100 C   0  0  0  0  0  0  0  0  0  0  0  0
   35.1800   28.4040   50.0540 H   0  0  0  0  0  0  0  0  0  0  0  0
   36.9100   28.0050   49.8300 H   0  0  0  0  0  0  0  0  0  0  0  0
   36.8950   28.8720   51.9110 H   0  0  0  0  0  0  0  0  0  0  0  0
   35.5650   29.9950   51.6400 H   0  0  0  0  0  0  0  0  0  0  0  0
   37.2190   31.3960   51.8350 H   0  0  0  0  0  0  0  0  0  0  0  0
   36.3290   31.9110   49.8290 H   0  0  0  0  0  0  0  0  0  0  0  0
   38.1280   32.1820   49.7910 H   0  0  0  0  0  0  0  0  0  0  0  0
   37.5920   30.9550   47.7700 H   0  0  0  0  0  0  0  0  0  0  0  0
   38.3900   29.8220   48.9290 H   0  0  0  0  0  0  0  0  0  0  0  0
  1  6  1  0  0  0  0
  1 27  1  0  0  0  0
  2  1  2  0  0  0  0
  3  4  2  0  0  0  0
  3  2  1  0  0  0  0
  4  5  1  0  0  0  0
  5  9  1  0  0  0  0
  5  6  2  0  0  0  0
  7  2  1  0  0  0  0
  8  3  1  0  0  0  0
  9 10  1  0  0  0  0
 10 11  2  0  0  0  0
 10 15  1  0  0  0  0
 11 16  1  0  0  0  0
 12 11  1  0  0  0  0
 13 12  2  0  0  0  0
 14 13  1  0  0  0  0
 14  9  2  0  0  0  0
 17 18  1  0  0  0  0
 17 13  1  0  0  0  0
 19 18  2  0  0  0  0
 20 19  1  0  0  0  0
 21 20  1  0  0  0  0
 22 20  2  0  0  0  0
 22 23  1  0  0  0  0
 23 17  1  0  0  0  0
 24 23  2  0  0  0  0
 25 21  1  0  0  0  0
 26 21  1  0  0  0  0
 27 32  1  0  0  0  0
 27 28  1  0  0  0  0
 28 33  1  0  0  0  0
 28 29  1  0  0  0  0
 29 36  1  0  0  0  0
 29 35  1  0  0  0  0
 30 29  1  0  0  0  0
 30 37  1  0  0  0  0
 31 38  1  0  0  0  0
 31 30  1  0  0  0  0
 32 41  1  0  0  0  0
 32 31  1  0  0  0  0
 34 28  1  0  0  0  0
 39 31  1  0  0  0  0
 40 32  1  0  0  0  0
M  END
>  <minimizedAffinity>
-5.69412422

>  <minimizedRMSD>
0.571352661

$$$$
