
 OpenBabel03272504333D

 41 44  0  0  0  0  0  0  0  0999 V2000
   35.0320   29.5790   47.5680 C   0  0  0  0  0  0  0  0  0  0  0  0
   35.1820   29.9930   46.2470 C   0  0  0  0  0  0  0  0  0  0  0  0
   34.1520   29.8310   45.3470 C   0  0  0  0  0  0  0  0  0  0  0  0
   33.0000   29.2540   45.8040 N   0  0  0  0  0  0  0  0  0  0  0  0
   32.8820   28.8610   47.0900 C   0  0  0  0  0  0  0  0  0  0  0  0
   33.8900   29.0180   47.9790 N   0  0  0  0  0  0  0  0  0  0  0  0
   36.1160   30.4440   45.9410 H   0  0  0  0  0  0  0  0  0  0  0  0
   34.2380   30.1440   44.3080 H   0  0  0  0  0  0  0  0  0  0  0  0
   31.6300   28.2490   47.5430 C   0  0  0  0  0  0  0  0  0  0  0  0
   31.5510   27.6100   48.7480 C   0  0  0  0  0  0  0  0  0  0  0  0
   30.3870   27.0190   49.2150 C   0  0  0  0  0  0  0  0  0  0  0  0
   29.3200   27.1150   48.3930 N   0  0  0  0  0  0  0  0  0  0  0  0
   29.3870   27.7380   47.2100 C   0  0  0  0  0  0  0  0  0  0  0  0
   30.5370   28.3080   46.7770 N   0  0  0  0  0  0  0  0  0  0  0  0
   32.4090   27.5360   49.4020 H   0  0  0  0  0  0  0  0  0  0  0  0
   30.3300   26.5150   50.1690 H   0  0  0  0  0  0  0  0  0  0  0  0
   28.3090   27.8830   46.2890 N   0  0  0  0  0  0  0  0  0  0  0  0
   27.6620   29.0610   46.3240 C   0  0  0  0  0  3  0  0  0  0  0  0
   26.6200   29.1970   45.4270 C   0  0  0  0  0  3  0  0  0  0  0  0
   26.3410   28.1330   44.5930 C   0  0  0  0  0  0  0  0  0  0  0  0
   25.2820   28.2100   43.6500 N   0  0  0  0  0  0  0  0  0  0  0  0
   27.0490   26.9650   44.6210 N   0  0  0  0  0  0  0  0  0  0  0  0
   28.0630   26.8280   45.4910 C   0  0  0  0  0  0  0  0  0  0  0  0
   28.7630   25.7810   45.5760 O   0  0  0  0  0  0  0  0  0  0  0  0
   24.2920   28.1490   43.3290 H   0  0  0  0  0  0  0  0  0  0  0  0
   24.4020   27.9610   44.1920 H   0  0  0  0  0  0  0  0  0  0  0  0
   36.0680   29.7230   48.5480 N   0  0  0  0  0  0  0  0  0  0  0  0
   36.1600   28.8680   49.7090 C   0  0  0  0  0  0  0  0  0  0  0  0
   36.4390   29.5820   51.0010 C   0  0  0  0  0  0  0  0  0  0  0  0
   37.1740   30.7800   50.9340 N   0  0  0  0  0  0  0  0  0  0  0  0
   36.8780   31.5790   49.7490 C   0  0  0  0  0  0  0  0  0  0  0  0
   37.1190   30.6670   48.5560 C   0  0  0  0  0  0  0  0  0  0  0  0
   35.2490   28.2440   49.8410 H   0  0  0  0  0  0  0  0  0  0  0  0
   37.0040   28.1430   49.5140 H   0  0  0  0  0  0  0  0  0  0  0  0
   36.9670   28.8530   51.6540 H   0  0  0  0  0  0  0  0  0  0  0  0
   35.4640   29.7640   51.5250 H   0  0  0  0  0  0  0  0  0  0  0  0
   36.8880   31.3950   51.7560 H   0  0  0  0  0  0  0  0  0  0  0  0
   35.8200   31.8970   49.8340 H   0  0  0  0  0  0  0  0  0  0  0  0
   37.5510   32.4530   49.7400 H   0  0  0  0  0  0  0  0  0  0  0  0
   37.1050   31.2960   47.6570 H   0  0  0  0  0  0  0  0  0  0  0  0
   38.1320   30.2300   48.6920 H   0  0  0  0  0  0  0  0  0  0  0  0
  1  6  1  0  0  0  0
  1 27  1  0  0  0  0
  2  1  2  0  0  0  0
  3  4  2  0  0  0  0
  3  2  1  0  0  0  0
  4  5  1  0  0  0  0
  5  9  1  0  0  0  0
  5  6  2  0  0  0  0
  7  2  1  0  0  0  0
  8  3  1  0  0  0  0
  9 10  1  0  0  0  0
 10 11  2  0  0  0  0
 10 15  1  0  0  0  0
 11 16  1  0  0  0  0
 12 11  1  0  0  0  0
 13 12  2  0  0  0  0
 14 13  1  0  0  0  0
 14  9  2  0  0  0  0
 17 18  1  0  0  0  0
 17 13  1  0  0  0  0
 19 18  2  0  0  0  0
 20 22  2  0  0  0  0
 20 19  1  0  0  0  0
 21 26  1  0  0  0  0
 21 20  1  0  0  0  0
 22 23  1  0  0  0  0
 23 24  2  0  0  0  0
 23 17  1  0  0  0  0
 25 21  1  0  0  0  0
 27 32  1  0  0  0  0
 27 28  1  0  0  0  0
 28 33  1  0  0  0  0
 28 29  1  0  0  0  0
 29 36  1  0  0  0  0
 29 35  1  0  0  0  0
 30 29  1  0  0  0  0
 30 37  1  0  0  0  0
 31 38  1  0  0  0  0
 31 30  1  0  0  0  0
 32 41  1  0  0  0  0
 32 31  1  0  0  0  0
 34 28  1  0  0  0  0
 39 31  1  0  0  0  0
 40 32  1  0  0  0  0
M  END
>  <minimizedAffinity>
-5.74587679

>  <minimizedRMSD>
0.660488605

$$$$
