
 OpenBabel03272502083D

 40 43  0  0  0  0  0  0  0  0999 V2000
   36.7840   28.7110   35.8150 F   0  0  0  0  0  0  0  0  0  0  0  0
   36.5630   28.7710   34.4610 C   0  0  0  0  0  0  0  0  0  0  0  0
   37.1040   27.8480   33.5810 C   0  0  0  0  0  0  0  0  0  0  0  0
   36.8230   27.9630   32.2400 C   0  0  0  0  0  0  0  0  0  0  0  0
   36.0030   28.9930   31.7670 C   0  0  0  0  0  0  0  0  0  0  0  0
   35.4950   29.8820   32.6970 C   0  0  0  0  0  0  0  0  0  0  0  0
   35.7450   29.8080   34.0160 C   0  0  0  0  0  0  0  0  0  0  0  0
   37.2650   27.2260   31.6070 H   0  0  0  0  0  0  0  0  0  0  0  0
   35.8070   29.0450   30.7050 H   0  0  0  0  0  0  0  0  0  0  0  0
   34.8740   30.6450   32.2510 H   0  0  0  0  0  0  0  0  0  0  0  0
   37.3040   25.6640   34.5830 C   0  0  0  0  0  0  0  0  0  0  0  0
   37.9280   26.8400   34.1930 C   0  0  0  0  0  0  0  0  0  0  0  0
   39.2940   26.9520   34.4060 C   0  0  0  0  0  0  0  0  0  0  0  0
   39.9800   25.9300   34.9790 N   0  0  0  0  0  0  0  0  0  0  0  0
   39.3410   24.8110   35.3400 C   0  0  0  0  0  0  0  0  0  0  0  0
   38.0380   24.6720   35.1510 N   0  0  0  0  0  0  0  0  0  0  0  0
   36.2410   25.4980   34.4520 H   0  0  0  0  0  0  0  0  0  0  0  0
   39.7690   27.8810   34.0950 H   0  0  0  0  0  0  0  0  0  0  0  0
   40.0940   23.7530   35.9390 N   0  0  0  0  0  0  0  0  0  0  0  0
   41.2800   23.5010   35.3550 C   0  0  0  0  0  3  0  0  0  0  0  0
   42.0440   22.4730   35.9130 C   0  0  0  0  0  3  0  0  0  0  0  0
   41.4860   21.8260   37.0160 C   0  0  0  0  0  0  0  0  0  0  0  0
   42.1960   20.7670   37.6490 N   0  0  0  0  0  0  0  0  0  0  0  0
   40.2920   22.1410   37.5390 N   0  0  0  0  0  0  0  0  0  0  0  0
   39.5730   23.1160   37.0040 C   0  0  0  0  0  0  0  0  0  0  0  0
   38.4440   23.4820   37.4240 O   0  0  0  0  0  0  0  0  0  0  0  0
   42.9840   20.3920   38.2210 H   0  0  0  0  0  0  0  0  0  0  0  0
   41.7190   19.8410   37.4880 H   0  0  0  0  0  0  0  0  0  0  0  0
   32.8210   29.3510   35.0420 Br  0  0  0  0  0  0  0  0  0  0  0  0
   33.9660   30.7880   35.5470 C   0  0  0  0  0  0  0  0  0  0  0  0
   35.1910   30.7830   34.9340 C   0  0  0  0  0  0  0  0  0  0  0  0
   36.0720   31.8380   35.2220 C   0  0  0  0  0  0  0  0  0  0  0  0
   35.7140   32.8300   36.0850 C   0  0  0  0  0  0  0  0  0  0  0  0
   34.4660   32.7770   36.6720 C   0  0  0  0  0  0  0  0  0  0  0  0
   33.5620   31.7360   36.4060 C   0  0  0  0  0  0  0  0  0  0  0  0
   37.0570   31.9210   34.7870 H   0  0  0  0  0  0  0  0  0  0  0  0
   36.3650   33.6570   36.3290 H   0  0  0  0  0  0  0  0  0  0  0  0
   34.1390   33.5420   37.3640 H   0  0  0  0  0  0  0  0  0  0  0  0
   32.3190   31.6080   36.9430 O   0  0  0  0  0  0  0  0  0  0  0  0
   32.2200   31.1730   37.8560 H   0  0  0  0  0  0  0  0  0  0  0  0
  2  1  1  0  0  0  0
  3 12  1  0  0  0  0
  3  2  2  0  0  0  0
  4  3  1  0  0  0  0
  5  4  2  0  0  0  0
  5  6  1  0  0  0  0
  6  7  2  0  0  0  0
  7  2  1  0  0  0  0
  7 31  1  0  0  0  0
  8  4  1  0  0  0  0
  9  5  1  0  0  0  0
 10  6  1  0  0  0  0
 11 16  1  0  0  0  0
 12 13  1  0  0  0  0
 12 11  2  0  0  0  0
 13 14  2  0  0  0  0
 14 15  1  0  0  0  0
 15 19  1  0  0  0  0
 16 15  2  0  0  0  0
 17 11  1  0  0  0  0
 18 13  1  0  0  0  0
 19 25  1  0  0  0  0
 20 21  2  0  0  0  0
 20 19  1  0  0  0  0
 21 22  1  0  0  0  0
 22 24  2  0  0  0  0
 22 23  1  0  0  0  0
 23 27  1  0  0  0  0
 25 26  2  0  0  0  0
 25 24  1  0  0  0  0
 28 23  1  0  0  0  0
 29 30  1  0  0  0  0
 30 35  1  0  0  0  0
 31 32  1  0  0  0  0
 31 30  2  0  0  0  0
 32 33  2  0  0  0  0
 33 37  1  0  0  0  0
 33 34  1  0  0  0  0
 34 38  1  0  0  0  0
 35 34  2  0  0  0  0
 35 39  1  0  0  0  0
 36 32  1  0  0  0  0
 39 40  1  0  0  0  0
M  END
>  <minimizedAffinity>
-7.31598616

$$$$

 OpenBabel03272502083D

 40 43  0  0  0  0  0  0  0  0999 V2000
   35.8560   27.8140   34.7700 F   0  0  0  0  0  0  0  0  0  0  0  0
   36.2390   28.2420   33.5230 C   0  0  0  0  0  0  0  0  0  0  0  0
   37.3630   27.7440   32.8820 C   0  0  0  0  0  0  0  0  0  0  0  0
   37.6720   28.2090   31.6260 C   0  0  0  0  0  0  0  0  0  0  0  0
   36.8690   29.1680   31.0000 C   0  0  0  0  0  0  0  0  0  0  0  0
   35.7620   29.6240   31.6930 C   0  0  0  0  0  0  0  0  0  0  0  0
   35.4230   29.1980   32.9230 C   0  0  0  0  0  0  0  0  0  0  0  0
   38.5470   27.7940   31.1780 H   0  0  0  0  0  0  0  0  0  0  0  0
   37.1480   29.5050   30.0110 H   0  0  0  0  0  0  0  0  0  0  0  0
   35.1960   30.3610   31.1410 H   0  0  0  0  0  0  0  0  0  0  0  0
   37.6700   25.4490   33.5540 C   0  0  0  0  0  0  0  0  0  0  0  0
   38.1030   26.7650   33.6320 C   0  0  0  0  0  0  0  0  0  0  0  0
   39.2190   27.0370   34.4100 C   0  0  0  0  0  0  0  0  0  0  0  0
   39.8540   26.0310   35.0650 N   0  0  0  0  0  0  0  0  0  0  0  0
   39.4050   24.7750   34.9620 C   0  0  0  0  0  0  0  0  0  0  0  0
   38.3420   24.4810   34.2290 N   0  0  0  0  0  0  0  0  0  0  0  0
   36.8060   25.1540   32.9690 H   0  0  0  0  0  0  0  0  0  0  0  0
   39.5450   28.0740   34.4610 H   0  0  0  0  0  0  0  0  0  0  0  0
   40.0980   23.7380   35.6640 N   0  0  0  0  0  0  0  0  0  0  0  0
   41.4410   23.8110   35.5990 C   0  0  0  0  0  3  0  0  0  0  0  0
   42.1520   22.8150   36.2730 C   0  0  0  0  0  3  0  0  0  0  0  0
   41.3840   21.8590   36.9380 C   0  0  0  0  0  0  0  0  0  0  0  0
   42.0260   20.8080   37.6510 N   0  0  0  0  0  0  0  0  0  0  0  0
   40.0430   21.8600   36.9530 N   0  0  0  0  0  0  0  0  0  0  0  0
   39.3760   22.8060   36.3120 C   0  0  0  0  0  0  0  0  0  0  0  0
   38.1200   22.8890   36.2690 O   0  0  0  0  0  0  0  0  0  0  0  0
   42.6020   20.4410   38.4410 H   0  0  0  0  0  0  0  0  0  0  0  0
   41.8760   19.8790   37.1760 H   0  0  0  0  0  0  0  0  0  0  0  0
   35.8890   31.2000   35.2870 Br  0  0  0  0  0  0  0  0  0  0  0  0
   34.1940   30.6380   34.6220 C   0  0  0  0  0  0  0  0  0  0  0  0
   34.2560   29.7300   33.5980 C   0  0  0  0  0  0  0  0  0  0  0  0
   33.0450   29.2350   33.0880 C   0  0  0  0  0  0  0  0  0  0  0  0
   31.8510   29.6500   33.5960 C   0  0  0  0  0  0  0  0  0  0  0  0
   31.8560   30.5700   34.6260 C   0  0  0  0  0  0  0  0  0  0  0  0
   33.0480   31.0840   35.1600 C   0  0  0  0  0  0  0  0  0  0  0  0
   32.9930   28.5150   32.2830 H   0  0  0  0  0  0  0  0  0  0  0  0
   30.9010   29.2900   33.2300 H   0  0  0  0  0  0  0  0  0  0  0  0
   30.9330   30.9280   35.0620 H   0  0  0  0  0  0  0  0  0  0  0  0
   33.1400   31.9920   36.1680 O   0  0  0  0  0  0  0  0  0  0  0  0
   33.0630   32.9810   35.9490 H   0  0  0  0  0  0  0  0  0  0  0  0
  2  1  1  0  0  0  0
  3  2  2  0  0  0  0
  3 12  1  0  0  0  0
  4  3  1  0  0  0  0
  5  4  2  0  0  0  0
  5  6  1  0  0  0  0
  6  7  2  0  0  0  0
  7  2  1  0  0  0  0
  7 31  1  0  0  0  0
  8  4  1  0  0  0  0
  9  5  1  0  0  0  0
 10  6  1  0  0  0  0
 11 12  2  0  0  0  0
 11 16  1  0  0  0  0
 12 13  1  0  0  0  0
 13 18  1  0  0  0  0
 13 14  2  0  0  0  0
 15 14  1  0  0  0  0
 15 19  1  0  0  0  0
 16 15  2  0  0  0  0
 17 11  1  0  0  0  0
 19 25  1  0  0  0  0
 20 19  1  0  0  0  0
 20 21  2  0  0  0  0
 21 22  1  0  0  0  0
 22 24  2  0  0  0  0
 22 23  1  0  0  0  0
 23 27  1  0  0  0  0
 25 24  1  0  0  0  0
 26 25  2  0  0  0  0
 28 23  1  0  0  0  0
 30 35  1  0  0  0  0
 30 29  1  0  0  0  0
 31 30  2  0  0  0  0
 32 33  2  0  0  0  0
 32 31  1  0  0  0  0
 33 34  1  0  0  0  0
 34 38  1  0  0  0  0
 34 35  2  0  0  0  0
 35 39  1  0  0  0  0
 36 32  1  0  0  0  0
 37 33  1  0  0  0  0
 40 39  1  0  0  0  0
M  END
>  <minimizedAffinity>
-7.17343998

$$$$

 OpenBabel03272502083D

 40 43  0  0  0  0  0  0  0  0999 V2000
   35.8750   28.6650   33.9730 F   0  0  0  0  0  0  0  0  0  0  0  0
   36.2700   28.8450   32.6710 C   0  0  0  0  0  0  0  0  0  0  0  0
   37.2920   28.1050   32.0980 C   0  0  0  0  0  0  0  0  0  0  0  0
   37.6180   28.3300   30.7810 C   0  0  0  0  0  0  0  0  0  0  0  0
   36.9320   29.2890   30.0280 C   0  0  0  0  0  0  0  0  0  0  0  0
   35.9230   29.9940   30.6590 C   0  0  0  0  0  0  0  0  0  0  0  0
   35.5720   29.8070   31.9440 C   0  0  0  0  0  0  0  0  0  0  0  0
   38.4120   27.7340   30.3900 H   0  0  0  0  0  0  0  0  0  0  0  0
   37.2210   29.4330   28.9960 H   0  0  0  0  0  0  0  0  0  0  0  0
   35.4450   30.7130   30.0100 H   0  0  0  0  0  0  0  0  0  0  0  0
   37.1590   26.0570   33.3620 C   0  0  0  0  0  0  0  0  0  0  0  0
   37.9160   27.1530   32.9770 C   0  0  0  0  0  0  0  0  0  0  0  0
   39.2160   27.2450   33.4530 C   0  0  0  0  0  0  0  0  0  0  0  0
   39.7120   26.2790   34.2680 N   0  0  0  0  0  0  0  0  0  0  0  0
   38.9500   25.2360   34.6150 C   0  0  0  0  0  0  0  0  0  0  0  0
   37.7050   25.1190   34.1800 N   0  0  0  0  0  0  0  0  0  0  0  0
   36.1350   25.9120   33.0360 H   0  0  0  0  0  0  0  0  0  0  0  0
   39.7960   28.1120   33.1420 H   0  0  0  0  0  0  0  0  0  0  0  0
   39.5040   24.2350   35.4740 N   0  0  0  0  0  0  0  0  0  0  0  0
   40.7670   23.8730   35.1790 C   0  0  0  0  0  3  0  0  0  0  0  0
   41.3420   22.8970   35.9960 C   0  0  0  0  0  3  0  0  0  0  0  0
   40.5370   22.4110   37.0270 C   0  0  0  0  0  0  0  0  0  0  0  0
   41.0430   21.4150   37.9100 N   0  0  0  0  0  0  0  0  0  0  0  0
   39.2830   22.8290   37.2530 N   0  0  0  0  0  0  0  0  0  0  0  0
   38.7440   23.7540   36.4740 C   0  0  0  0  0  0  0  0  0  0  0  0
   37.5780   24.2070   36.6080 O   0  0  0  0  0  0  0  0  0  0  0  0
   41.6780   21.0870   38.6710 H   0  0  0  0  0  0  0  0  0  0  0  0
   40.5550   20.4930   37.7610 H   0  0  0  0  0  0  0  0  0  0  0  0
   36.3270   32.5980   33.1480 Br  0  0  0  0  0  0  0  0  0  0  0  0
   34.5790   31.8430   33.1000 C   0  0  0  0  0  0  0  0  0  0  0  0
   34.5130   30.5920   32.5460 C   0  0  0  0  0  0  0  0  0  0  0  0
   33.2630   29.9530   32.5190 C   0  0  0  0  0  0  0  0  0  0  0  0
   32.1560   30.5630   33.0250 C   0  0  0  0  0  0  0  0  0  0  0  0
   32.2870   31.8260   33.5680 C   0  0  0  0  0  0  0  0  0  0  0  0
   33.5220   32.4930   33.6110 C   0  0  0  0  0  0  0  0  0  0  0  0
   33.1130   28.9660   32.1050 H   0  0  0  0  0  0  0  0  0  0  0  0
   31.1790   30.1020   33.0220 H   0  0  0  0  0  0  0  0  0  0  0  0
   31.4350   32.3500   33.9820 H   0  0  0  0  0  0  0  0  0  0  0  0
   33.7360   33.7350   34.1230 O   0  0  0  0  0  0  0  0  0  0  0  0
   33.5610   34.5460   33.5370 H   0  0  0  0  0  0  0  0  0  0  0  0
  2  1  1  0  0  0  0
  3  2  1  0  0  0  0
  3 12  1  0  0  0  0
  4  3  2  0  0  0  0
  5  6  2  0  0  0  0
  5  4  1  0  0  0  0
  6  7  1  0  0  0  0
  7 31  1  0  0  0  0
  7  2  2  0  0  0  0
  8  4  1  0  0  0  0
  9  5  1  0  0  0  0
 10  6  1  0  0  0  0
 11 16  1  0  0  0  0
 12 11  2  0  0  0  0
 12 13  1  0  0  0  0
 13 14  2  0  0  0  0
 14 15  1  0  0  0  0
 15 19  1  0  0  0  0
 16 15  2  0  0  0  0
 17 11  1  0  0  0  0
 18 13  1  0  0  0  0
 19 25  1  0  0  0  0
 20 19  1  0  0  0  0
 20 21  2  0  0  0  0
 21 22  1  0  0  0  0
 22 24  2  0  0  0  0
 22 23  1  0  0  0  0
 23 27  1  0  0  0  0
 25 26  2  0  0  0  0
 25 24  1  0  0  0  0
 28 23  1  0  0  0  0
 30 29  1  0  0  0  0
 30 35  1  0  0  0  0
 31 30  2  0  0  0  0
 32 31  1  0  0  0  0
 32 33  2  0  0  0  0
 33 34  1  0  0  0  0
 34 35  2  0  0  0  0
 34 38  1  0  0  0  0
 35 39  1  0  0  0  0
 36 32  1  0  0  0  0
 37 33  1  0  0  0  0
 40 39  1  0  0  0  0
M  END
>  <minimizedAffinity>
-6.84142876

$$$$

 OpenBabel03272502083D

 40 43  0  0  0  0  0  0  0  0999 V2000
   40.7460   24.9480   34.5480 F   0  0  0  0  0  0  0  0  0  0  0  0
   40.1660   24.3360   35.6310 C   0  0  0  0  0  0  0  0  0  0  0  0
   38.8950   24.6660   36.0740 C   0  0  0  0  0  0  0  0  0  0  0  0
   38.3730   23.9950   37.1560 C   0  0  0  0  0  0  0  0  0  0  0  0
   39.1090   22.9950   37.8000 C   0  0  0  0  0  0  0  0  0  0  0  0
   40.3710   22.7150   37.3090 C   0  0  0  0  0  0  0  0  0  0  0  0
   40.9210   23.3460   36.2560 C   0  0  0  0  0  0  0  0  0  0  0  0
   37.3920   24.2880   37.4560 H   0  0  0  0  0  0  0  0  0  0  0  0
   38.6600   22.4930   38.6460 H   0  0  0  0  0  0  0  0  0  0  0  0
   40.8720   21.9320   37.8610 H   0  0  0  0  0  0  0  0  0  0  0  0
   37.7220   25.3670   34.0880 C   0  0  0  0  0  0  0  0  0  0  0  0
   38.2450   25.7090   35.3270 C   0  0  0  0  0  0  0  0  0  0  0  0
   38.0920   27.0180   35.7590 C   0  0  0  0  0  0  0  0  0  0  0  0
   37.4450   27.9210   34.9780 N   0  0  0  0  0  0  0  0  0  0  0  0
   36.9540   27.5510   33.7890 C   0  0  0  0  0  0  0  0  0  0  0  0
   37.0830   26.3100   33.3470 N   0  0  0  0  0  0  0  0  0  0  0  0
   37.8000   24.3660   33.6790 H   0  0  0  0  0  0  0  0  0  0  0  0
   38.5080   27.2700   36.7320 H   0  0  0  0  0  0  0  0  0  0  0  0
   36.2760   28.5270   32.9920 N   0  0  0  0  0  0  0  0  0  0  0  0
   35.4310   29.3250   33.6720 C   0  0  0  0  0  3  0  0  0  0  0  0
   34.7510   30.2910   32.9260 C   0  0  0  0  0  3  0  0  0  0  0  0
   35.0290   30.3160   31.5590 C   0  0  0  0  0  0  0  0  0  0  0  0
   34.3810   31.2680   30.7230 N   0  0  0  0  0  0  0  0  0  0  0  0
   35.8900   29.4810   30.9590 N   0  0  0  0  0  0  0  0  0  0  0  0
   36.5300   28.5670   31.6710 C   0  0  0  0  0  0  0  0  0  0  0  0
   37.3540   27.7420   31.1970 O   0  0  0  0  0  0  0  0  0  0  0  0
   34.2090   32.2420   30.3880 H   0  0  0  0  0  0  0  0  0  0  0  0
   33.6980   30.8000   30.0720 H   0  0  0  0  0  0  0  0  0  0  0  0
   41.1890   21.4960   33.7430 Br  0  0  0  0  0  0  0  0  0  0  0  0
   42.6340   22.2610   34.7200 C   0  0  0  0  0  0  0  0  0  0  0  0
   42.2550   23.0110   35.8030 C   0  0  0  0  0  0  0  0  0  0  0  0
   43.2690   23.5690   36.5980 C   0  0  0  0  0  0  0  0  0  0  0  0
   44.5830   23.3690   36.2980 C   0  0  0  0  0  0  0  0  0  0  0  0
   44.8990   22.6060   35.1910 C   0  0  0  0  0  0  0  0  0  0  0  0
   43.9100   22.0340   34.3750 C   0  0  0  0  0  0  0  0  0  0  0  0
   43.0700   24.1720   37.4720 H   0  0  0  0  0  0  0  0  0  0  0  0
   45.3880   23.7810   36.8880 H   0  0  0  0  0  0  0  0  0  0  0  0
   45.9280   22.4200   34.9140 H   0  0  0  0  0  0  0  0  0  0  0  0
   44.1360   21.2740   33.2690 O   0  0  0  0  0  0  0  0  0  0  0  0
   44.3000   21.7360   32.3800 H   0  0  0  0  0  0  0  0  0  0  0  0
  1  2  1  0  0  0  0
  2  3  2  0  0  0  0
  2  7  1  0  0  0  0
  3  4  1  0  0  0  0
  4  8  1  0  0  0  0
  4  5  2  0  0  0  0
  5  9  1  0  0  0  0
  6  5  1  0  0  0  0
  6 10  1  0  0  0  0
  7  6  2  0  0  0  0
 11 12  1  0  0  0  0
 12 13  2  0  0  0  0
 12  3  1  0  0  0  0
 13 18  1  0  0  0  0
 14 13  1  0  0  0  0
 15 14  2  0  0  0  0
 16 15  1  0  0  0  0
 16 11  2  0  0  0  0
 17 11  1  0  0  0  0
 19 20  1  0  0  0  0
 19 15  1  0  0  0  0
 21 20  2  0  0  0  0
 22 21  1  0  0  0  0
 23 22  1  0  0  0  0
 24 22  2  0  0  0  0
 24 25  1  0  0  0  0
 25 19  1  0  0  0  0
 26 25  2  0  0  0  0
 27 23  1  0  0  0  0
 28 23  1  0  0  0  0
 29 30  1  0  0  0  0
 30 31  1  0  0  0  0
 31  7  1  0  0  0  0
 31 32  2  0  0  0  0
 32 36  1  0  0  0  0
 33 32  1  0  0  0  0
 33 37  1  0  0  0  0
 34 33  2  0  0  0  0
 35 30  2  0  0  0  0
 35 34  1  0  0  0  0
 38 34  1  0  0  0  0
 39 35  1  0  0  0  0
 40 39  1  0  0  0  0
M  END
>  <minimizedAffinity>
-6.73537159

$$$$

 OpenBabel03272502083D

 40 43  0  0  0  0  0  0  0  0999 V2000
   35.5820   28.1920   34.2700 F   0  0  0  0  0  0  0  0  0  0  0  0
   35.8570   29.0030   33.1970 C   0  0  0  0  0  0  0  0  0  0  0  0
   36.4160   28.5160   32.0260 C   0  0  0  0  0  0  0  0  0  0  0  0
   36.6450   29.3870   30.9870 C   0  0  0  0  0  0  0  0  0  0  0  0
   36.3190   30.7420   31.1040 C   0  0  0  0  0  0  0  0  0  0  0  0
   35.7650   31.1640   32.2990 C   0  0  0  0  0  0  0  0  0  0  0  0
   35.5250   30.3480   33.3410 C   0  0  0  0  0  0  0  0  0  0  0  0
   37.0770   28.9600   30.1090 H   0  0  0  0  0  0  0  0  0  0  0  0
   36.5160   31.3910   30.2620 H   0  0  0  0  0  0  0  0  0  0  0  0
   35.5430   32.2220   32.3080 H   0  0  0  0  0  0  0  0  0  0  0  0
   35.8610   26.2860   31.2970 C   0  0  0  0  0  0  0  0  0  0  0  0
   36.7040   27.1070   32.0330 C   0  0  0  0  0  0  0  0  0  0  0  0
   37.7640   26.5160   32.7050 C   0  0  0  0  0  0  0  0  0  0  0  0
   37.9530   25.1730   32.6300 N   0  0  0  0  0  0  0  0  0  0  0  0
   37.1180   24.4160   31.9090 C   0  0  0  0  0  0  0  0  0  0  0  0
   36.0970   24.9490   31.2560 N   0  0  0  0  0  0  0  0  0  0  0  0
   35.0110   26.6690   30.7450 H   0  0  0  0  0  0  0  0  0  0  0  0
   38.4150   27.1740   33.2780 H   0  0  0  0  0  0  0  0  0  0  0  0
   37.3470   23.0050   31.8500 N   0  0  0  0  0  0  0  0  0  0  0  0
   38.6350   22.6470   31.6880 C   0  0  0  0  0  3  0  0  0  0  0  0
   38.8980   21.2770   31.6260 C   0  0  0  0  0  3  0  0  0  0  0  0
   37.7900   20.4360   31.7410 C   0  0  0  0  0  0  0  0  0  0  0  0
   37.9650   19.0240   31.6890 N   0  0  0  0  0  0  0  0  0  0  0  0
   36.5340   20.8770   31.9010 N   0  0  0  0  0  0  0  0  0  0  0  0
   36.2920   22.1770   31.9580 C   0  0  0  0  0  0  0  0  0  0  0  0
   35.1490   22.6840   32.1060 O   0  0  0  0  0  0  0  0  0  0  0  0
   38.3030   18.1180   32.0810 H   0  0  0  0  0  0  0  0  0  0  0  0
   37.5580   18.6230   30.8040 H   0  0  0  0  0  0  0  0  0  0  0  0
   32.4580   29.9250   33.8140 Br  0  0  0  0  0  0  0  0  0  0  0  0
   33.6640   30.7700   35.0230 C   0  0  0  0  0  0  0  0  0  0  0  0
   34.9540   30.8610   34.5700 C   0  0  0  0  0  0  0  0  0  0  0  0
   35.8900   31.5140   35.3880 C   0  0  0  0  0  0  0  0  0  0  0  0
   35.5230   32.0360   36.5910 C   0  0  0  0  0  0  0  0  0  0  0  0
   34.2080   31.9100   36.9920 C   0  0  0  0  0  0  0  0  0  0  0  0
   33.2460   31.2630   36.1990 C   0  0  0  0  0  0  0  0  0  0  0  0
   36.9290   31.6360   35.1160 H   0  0  0  0  0  0  0  0  0  0  0  0
   36.2150   32.5450   37.2450 H   0  0  0  0  0  0  0  0  0  0  0  0
   33.8690   32.3080   37.9390 H   0  0  0  0  0  0  0  0  0  0  0  0
   31.9350   31.0940   36.5200 O   0  0  0  0  0  0  0  0  0  0  0  0
   31.6700   30.3070   37.1050 H   0  0  0  0  0  0  0  0  0  0  0  0
  2  7  1  0  0  0  0
  2  1  1  0  0  0  0
  3 12  1  0  0  0  0
  3  2  2  0  0  0  0
  4  5  2  0  0  0  0
  4  3  1  0  0  0  0
  5  6  1  0  0  0  0
  6 10  1  0  0  0  0
  6  7  2  0  0  0  0
  7 31  1  0  0  0  0
  8  4  1  0  0  0  0
  9  5  1  0  0  0  0
 11 12  1  0  0  0  0
 12 13  2  0  0  0  0
 13 18  1  0  0  0  0
 14 13  1  0  0  0  0
 15 14  2  0  0  0  0
 16 11  2  0  0  0  0
 16 15  1  0  0  0  0
 17 11  1  0  0  0  0
 19 15  1  0  0  0  0
 19 25  1  0  0  0  0
 20 19  1  0  0  0  0
 21 20  2  0  0  0  0
 21 22  1  0  0  0  0
 22 24  2  0  0  0  0
 23 22  1  0  0  0  0
 23 27  1  0  0  0  0
 24 25  1  0  0  0  0
 25 26  2  0  0  0  0
 28 23  1  0  0  0  0
 29 30  1  0  0  0  0
 30 35  1  0  0  0  0
 31 30  2  0  0  0  0
 31 32  1  0  0  0  0
 32 33  2  0  0  0  0
 33 34  1  0  0  0  0
 33 37  1  0  0  0  0
 34 38  1  0  0  0  0
 35 39  1  0  0  0  0
 35 34  2  0  0  0  0
 36 32  1  0  0  0  0
 39 40  1  0  0  0  0
M  END
>  <minimizedAffinity>
-6.68395185

$$$$

 OpenBabel03272502083D

 40 43  0  0  0  0  0  0  0  0999 V2000
   36.4330   28.9690   33.9620 F   0  0  0  0  0  0  0  0  0  0  0  0
   36.6390   28.9580   32.6050 C   0  0  0  0  0  0  0  0  0  0  0  0
   37.3320   27.9400   31.9700 C   0  0  0  0  0  0  0  0  0  0  0  0
   37.4820   27.9900   30.6030 C   0  0  0  0  0  0  0  0  0  0  0  0
   36.9460   29.0480   29.8630 C   0  0  0  0  0  0  0  0  0  0  0  0
   36.2660   30.0320   30.5580 C   0  0  0  0  0  0  0  0  0  0  0  0
   36.0970   30.0250   31.8910 C   0  0  0  0  0  0  0  0  0  0  0  0
   38.0240   27.1810   30.1650 H   0  0  0  0  0  0  0  0  0  0  0  0
   37.0870   29.0470   28.7910 H   0  0  0  0  0  0  0  0  0  0  0  0
   35.8840   30.8120   29.9130 H   0  0  0  0  0  0  0  0  0  0  0  0
   39.1360   27.0520   33.3000 C   0  0  0  0  0  0  0  0  0  0  0  0
   37.8330   26.9120   32.8420 C   0  0  0  0  0  0  0  0  0  0  0  0
   37.1100   25.8080   33.2660 C   0  0  0  0  0  0  0  0  0  0  0  0
   37.6770   24.9040   34.1060 N   0  0  0  0  0  0  0  0  0  0  0  0
   38.9360   25.0750   34.5260 C   0  0  0  0  0  0  0  0  0  0  0  0
   39.6540   26.1180   34.1390 N   0  0  0  0  0  0  0  0  0  0  0  0
   39.7680   27.8850   33.0140 H   0  0  0  0  0  0  0  0  0  0  0  0
   36.0900   25.7130   32.8970 H   0  0  0  0  0  0  0  0  0  0  0  0
   39.5020   24.1050   35.4120 N   0  0  0  0  0  0  0  0  0  0  0  0
   38.6830   23.6920   36.3970 C   0  0  0  0  0  3  0  0  0  0  0  0
   39.2030   22.7440   37.2830 C   0  0  0  0  0  3  0  0  0  0  0  0
   40.5140   22.3340   37.0400 C   0  0  0  0  0  0  0  0  0  0  0  0
   41.1240   21.3700   37.8920 N   0  0  0  0  0  0  0  0  0  0  0  0
   41.2640   22.7980   36.0290 N   0  0  0  0  0  0  0  0  0  0  0  0
   40.7660   23.6970   35.1950 C   0  0  0  0  0  0  0  0  0  0  0  0
   41.3930   24.1900   34.2200 O   0  0  0  0  0  0  0  0  0  0  0  0
   41.2240   20.4050   38.2760 H   0  0  0  0  0  0  0  0  0  0  0  0
   41.8910   21.8050   38.4690 H   0  0  0  0  0  0  0  0  0  0  0  0
   33.1340   29.4950   32.7580 Br  0  0  0  0  0  0  0  0  0  0  0  0
   34.1110   31.1020   33.0610 C   0  0  0  0  0  0  0  0  0  0  0  0
   35.3850   31.0970   32.5560 C   0  0  0  0  0  0  0  0  0  0  0  0
   36.1500   32.2660   32.7010 C   0  0  0  0  0  0  0  0  0  0  0  0
   35.6380   33.3640   33.3240 C   0  0  0  0  0  0  0  0  0  0  0  0
   34.3480   33.3040   33.8130 C   0  0  0  0  0  0  0  0  0  0  0  0
   33.5560   32.1510   33.6860 C   0  0  0  0  0  0  0  0  0  0  0  0
   37.1630   32.3590   32.3350 H   0  0  0  0  0  0  0  0  0  0  0  0
   36.1960   34.2790   33.4520 H   0  0  0  0  0  0  0  0  0  0  0  0
   33.8990   34.1510   34.3160 H   0  0  0  0  0  0  0  0  0  0  0  0
   32.2820   32.0090   34.1400 O   0  0  0  0  0  0  0  0  0  0  0  0
   32.1320   31.7450   35.1090 H   0  0  0  0  0  0  0  0  0  0  0  0
  2  1  1  0  0  0  0
  3  2  1  0  0  0  0
  3 12  1  0  0  0  0
  4  3  2  0  0  0  0
  5  6  2  0  0  0  0
  5  4  1  0  0  0  0
  6  7  1  0  0  0  0
  7 31  1  0  0  0  0
  7  2  2  0  0  0  0
  8  4  1  0  0  0  0
  9  5  1  0  0  0  0
 10  6  1  0  0  0  0
 11 16  1  0  0  0  0
 12 13  1  0  0  0  0
 12 11  2  0  0  0  0
 13 14  2  0  0  0  0
 14 15  1  0  0  0  0
 15 19  1  0  0  0  0
 16 15  2  0  0  0  0
 17 11  1  0  0  0  0
 18 13  1  0  0  0  0
 19 20  1  0  0  0  0
 20 21  2  0  0  0  0
 22 21  1  0  0  0  0
 22 23  1  0  0  0  0
 23 27  1  0  0  0  0
 23 28  1  0  0  0  0
 24 22  2  0  0  0  0
 25 19  1  0  0  0  0
 25 24  1  0  0  0  0
 26 25  2  0  0  0  0
 29 30  1  0  0  0  0
 30 35  1  0  0  0  0
 31 32  1  0  0  0  0
 31 30  2  0  0  0  0
 32 33  2  0  0  0  0
 33 37  1  0  0  0  0
 33 34  1  0  0  0  0
 34 38  1  0  0  0  0
 35 34  2  0  0  0  0
 35 39  1  0  0  0  0
 36 32  1  0  0  0  0
 39 40  1  0  0  0  0
M  END
>  <minimizedAffinity>
-6.54387617

$$$$

 OpenBabel03272502083D

 40 43  0  0  0  0  0  0  0  0999 V2000
   36.0720   28.4780   34.8210 F   0  0  0  0  0  0  0  0  0  0  0  0
   35.8500   29.0750   33.6050 C   0  0  0  0  0  0  0  0  0  0  0  0
   36.3290   28.5390   32.4200 C   0  0  0  0  0  0  0  0  0  0  0  0
   36.0500   29.1860   31.2380 C   0  0  0  0  0  0  0  0  0  0  0  0
   35.2960   30.3640   31.2280 C   0  0  0  0  0  0  0  0  0  0  0  0
   34.8490   30.8460   32.4450 C   0  0  0  0  0  0  0  0  0  0  0  0
   35.0990   30.2470   33.6230 C   0  0  0  0  0  0  0  0  0  0  0  0
   36.4420   28.7310   30.3560 H   0  0  0  0  0  0  0  0  0  0  0  0
   35.1000   30.8390   30.2760 H   0  0  0  0  0  0  0  0  0  0  0  0
   34.2760   31.7570   32.3500 H   0  0  0  0  0  0  0  0  0  0  0  0
   38.4620   27.4570   32.7240 C   0  0  0  0  0  0  0  0  0  0  0  0
   37.0890   27.3270   32.5660 C   0  0  0  0  0  0  0  0  0  0  0  0
   36.5520   26.0490   32.5740 C   0  0  0  0  0  0  0  0  0  0  0  0
   37.3630   24.9710   32.7360 N   0  0  0  0  0  0  0  0  0  0  0  0
   38.6810   25.1390   32.8860 C   0  0  0  0  0  0  0  0  0  0  0  0
   39.2260   26.3460   32.8820 N   0  0  0  0  0  0  0  0  0  0  0  0
   38.9590   28.4210   32.7270 H   0  0  0  0  0  0  0  0  0  0  0  0
   35.4740   25.9640   32.4490 H   0  0  0  0  0  0  0  0  0  0  0  0
   39.5060   23.9820   33.0560 N   0  0  0  0  0  0  0  0  0  0  0  0
   39.0090   23.0500   33.8890 C   0  0  0  0  0  3  0  0  0  0  0  0
   39.7870   21.9050   34.0790 C   0  0  0  0  0  3  0  0  0  0  0  0
   40.9940   21.8630   33.3790 C   0  0  0  0  0  0  0  0  0  0  0  0
   41.8500   20.7340   33.5130 N   0  0  0  0  0  0  0  0  0  0  0  0
   41.4170   22.8400   32.5640 N   0  0  0  0  0  0  0  0  0  0  0  0
   40.6740   23.9220   32.3890 C   0  0  0  0  0  0  0  0  0  0  0  0
   40.9870   24.8890   31.6470 O   0  0  0  0  0  0  0  0  0  0  0  0
   42.0870   19.7280   33.3640 H   0  0  0  0  0  0  0  0  0  0  0  0
   42.7310   20.9840   34.0340 H   0  0  0  0  0  0  0  0  0  0  0  0
   32.2610   29.3690   34.6160 Br  0  0  0  0  0  0  0  0  0  0  0  0
   33.4350   30.5670   35.5200 C   0  0  0  0  0  0  0  0  0  0  0  0
   34.6110   30.8160   34.8630 C   0  0  0  0  0  0  0  0  0  0  0  0
   35.5070   31.7260   35.4480 C   0  0  0  0  0  0  0  0  0  0  0  0
   35.2110   32.3360   36.6300 C   0  0  0  0  0  0  0  0  0  0  0  0
   34.0100   32.0400   37.2440 C   0  0  0  0  0  0  0  0  0  0  0  0
   33.0930   31.1350   36.6870 C   0  0  0  0  0  0  0  0  0  0  0  0
   36.4570   31.9880   35.0040 H   0  0  0  0  0  0  0  0  0  0  0  0
   35.8750   33.0410   37.1070 H   0  0  0  0  0  0  0  0  0  0  0  0
   33.7330   32.4990   38.1830 H   0  0  0  0  0  0  0  0  0  0  0  0
   31.8940   30.7870   37.2260 O   0  0  0  0  0  0  0  0  0  0  0  0
   31.8650   30.0530   37.9280 H   0  0  0  0  0  0  0  0  0  0  0  0
  2  7  1  0  0  0  0
  2  1  1  0  0  0  0
  3 12  1  0  0  0  0
  3  2  2  0  0  0  0
  4  3  1  0  0  0  0
  5  4  2  0  0  0  0
  5  6  1  0  0  0  0
  6  7  2  0  0  0  0
  7 31  1  0  0  0  0
  8  4  1  0  0  0  0
  9  5  1  0  0  0  0
 10  6  1  0  0  0  0
 11 17  1  0  0  0  0
 11 16  1  0  0  0  0
 12 13  1  0  0  0  0
 12 11  2  0  0  0  0
 13 14  2  0  0  0  0
 14 15  1  0  0  0  0
 15 19  1  0  0  0  0
 16 15  2  0  0  0  0
 18 13  1  0  0  0  0
 19 20  1  0  0  0  0
 20 21  2  0  0  0  0
 22 23  1  0  0  0  0
 22 21  1  0  0  0  0
 23 28  1  0  0  0  0
 24 22  2  0  0  0  0
 25 24  1  0  0  0  0
 25 19  1  0  0  0  0
 26 25  2  0  0  0  0
 27 23  1  0  0  0  0
 29 30  1  0  0  0  0
 30 35  1  0  0  0  0
 31 32  1  0  0  0  0
 31 30  2  0  0  0  0
 32 33  2  0  0  0  0
 33 37  1  0  0  0  0
 33 34  1  0  0  0  0
 34 38  1  0  0  0  0
 35 39  1  0  0  0  0
 35 34  2  0  0  0  0
 36 32  1  0  0  0  0
 39 40  1  0  0  0  0
M  END
>  <minimizedAffinity>
-6.30213404

$$$$

 OpenBabel03272502083D

 40 43  0  0  0  0  0  0  0  0999 V2000
   38.5780   26.3240   34.9450 F   0  0  0  0  0  0  0  0  0  0  0  0
   38.0800   25.4670   33.9950 C   0  0  0  0  0  0  0  0  0  0  0  0
   37.1200   25.8580   33.0760 C   0  0  0  0  0  0  0  0  0  0  0  0
   36.6840   24.9460   32.1430 C   0  0  0  0  0  0  0  0  0  0  0  0
   37.1990   23.6460   32.1170 C   0  0  0  0  0  0  0  0  0  0  0  0
   38.1540   23.3200   33.0630 C   0  0  0  0  0  0  0  0  0  0  0  0
   38.6080   24.1780   33.9930 C   0  0  0  0  0  0  0  0  0  0  0  0
   35.9440   25.2980   31.4590 H   0  0  0  0  0  0  0  0  0  0  0  0
   36.8280   22.9620   31.3660 H   0  0  0  0  0  0  0  0  0  0  0  0
   38.4990   22.2990   32.9750 H   0  0  0  0  0  0  0  0  0  0  0  0
   36.4300   27.9200   32.0360 C   0  0  0  0  0  0  0  0  0  0  0  0
   36.6730   27.2180   33.2080 C   0  0  0  0  0  0  0  0  0  0  0  0
   36.4560   27.8690   34.4130 C   0  0  0  0  0  0  0  0  0  0  0  0
   36.0170   29.1540   34.4230 N   0  0  0  0  0  0  0  0  0  0  0  0
   35.7930   29.7960   33.2710 C   0  0  0  0  0  0  0  0  0  0  0  0
   35.9910   29.2040   32.1040 N   0  0  0  0  0  0  0  0  0  0  0  0
   36.5760   27.4840   31.0550 H   0  0  0  0  0  0  0  0  0  0  0  0
   36.6520   27.3050   35.3230 H   0  0  0  0  0  0  0  0  0  0  0  0
   35.3280   31.1490   33.3170 N   0  0  0  0  0  0  0  0  0  0  0  0
   34.3710   31.3880   34.2330 C   0  0  0  0  0  3  0  0  0  0  0  0
   33.8930   32.6980   34.3070 C   0  0  0  0  0  3  0  0  0  0  0  0
   34.4670   33.6100   33.4200 C   0  0  0  0  0  0  0  0  0  0  0  0
   34.0400   34.9680   33.4270 N   0  0  0  0  0  0  0  0  0  0  0  0
   35.4220   33.2870   32.5350 N   0  0  0  0  0  0  0  0  0  0  0  0
   35.8690   32.0430   32.4700 C   0  0  0  0  0  0  0  0  0  0  0  0
   36.7600   31.6470   31.6730 O   0  0  0  0  0  0  0  0  0  0  0  0
   33.9670   35.9140   33.8620 H   0  0  0  0  0  0  0  0  0  0  0  0
   33.5080   35.2030   32.5490 H   0  0  0  0  0  0  0  0  0  0  0  0
   37.5930   23.0210   36.7220 Br  0  0  0  0  0  0  0  0  0  0  0  0
   39.4160   23.1990   36.1980 C   0  0  0  0  0  0  0  0  0  0  0  0
   39.6020   23.7640   34.9640 C   0  0  0  0  0  0  0  0  0  0  0  0
   40.9220   23.9690   34.5300 C   0  0  0  0  0  0  0  0  0  0  0  0
   41.9780   23.6150   35.3140 C   0  0  0  0  0  0  0  0  0  0  0  0
   41.7240   23.0480   36.5470 C   0  0  0  0  0  0  0  0  0  0  0  0
   40.4170   22.8280   37.0110 C   0  0  0  0  0  0  0  0  0  0  0  0
   41.1680   24.4100   33.5740 H   0  0  0  0  0  0  0  0  0  0  0  0
   43.0050   23.7590   35.0140 H   0  0  0  0  0  0  0  0  0  0  0  0
   42.5310   22.7500   37.2040 H   0  0  0  0  0  0  0  0  0  0  0  0
   40.0820   22.2740   38.2070 O   0  0  0  0  0  0  0  0  0  0  0  0
   40.0510   21.2620   38.2890 H   0  0  0  0  0  0  0  0  0  0  0  0
  2  1  1  0  0  0  0
  3 12  1  0  0  0  0
  3  2  2  0  0  0  0
  4  3  1  0  0  0  0
  5  4  2  0  0  0  0
  5  6  1  0  0  0  0
  6  7  2  0  0  0  0
  7  2  1  0  0  0  0
  7 31  1  0  0  0  0
  8  4  1  0  0  0  0
  9  5  1  0  0  0  0
 10  6  1  0  0  0  0
 11 16  2  0  0  0  0
 11 12  1  0  0  0  0
 12 13  2  0  0  0  0
 13 14  1  0  0  0  0
 13 18  1  0  0  0  0
 15 19  1  0  0  0  0
 15 14  2  0  0  0  0
 16 15  1  0  0  0  0
 17 11  1  0  0  0  0
 19 20  1  0  0  0  0
 20 21  2  0  0  0  0
 22 23  1  0  0  0  0
 22 21  1  0  0  0  0
 23 27  1  0  0  0  0
 24 22  2  0  0  0  0
 25 24  1  0  0  0  0
 25 19  1  0  0  0  0
 26 25  2  0  0  0  0
 28 23  1  0  0  0  0
 30 29  1  0  0  0  0
 30 35  1  0  0  0  0
 31 30  2  0  0  0  0
 32 31  1  0  0  0  0
 32 33  2  0  0  0  0
 33 34  1  0  0  0  0
 34 35  2  0  0  0  0
 34 38  1  0  0  0  0
 35 39  1  0  0  0  0
 36 32  1  0  0  0  0
 37 33  1  0  0  0  0
 39 40  1  0  0  0  0
M  END
>  <minimizedAffinity>
-6.29034615

$$$$

 OpenBabel03272502083D

 40 43  0  0  0  0  0  0  0  0999 V2000
   38.8590   25.0530   33.8480 F   0  0  0  0  0  0  0  0  0  0  0  0
   38.0220   24.0960   33.3300 C   0  0  0  0  0  0  0  0  0  0  0  0
   36.9960   24.4070   32.4520 C   0  0  0  0  0  0  0  0  0  0  0  0
   36.2100   23.3900   31.9610 C   0  0  0  0  0  0  0  0  0  0  0  0
   36.4390   22.0630   32.3390 C   0  0  0  0  0  0  0  0  0  0  0  0
   37.4780   21.8210   33.2200 C   0  0  0  0  0  0  0  0  0  0  0  0
   38.2700   22.7830   33.7240 C   0  0  0  0  0  0  0  0  0  0  0  0
   35.4350   23.6840   31.2890 H   0  0  0  0  0  0  0  0  0  0  0  0
   35.7970   21.2950   31.9290 H   0  0  0  0  0  0  0  0  0  0  0  0
   37.5870   20.7730   33.4600 H   0  0  0  0  0  0  0  0  0  0  0  0
   36.9430   26.6970   33.2040 C   0  0  0  0  0  0  0  0  0  0  0  0
   36.8660   25.8060   32.1430 C   0  0  0  0  0  0  0  0  0  0  0  0
   36.6830   26.3250   30.8700 C   0  0  0  0  0  0  0  0  0  0  0  0
   36.5880   27.6670   30.6900 N   0  0  0  0  0  0  0  0  0  0  0  0
   36.6690   28.4930   31.7390 C   0  0  0  0  0  0  0  0  0  0  0  0
   36.8420   28.0300   32.9670 N   0  0  0  0  0  0  0  0  0  0  0  0
   37.0830   26.3720   34.2290 H   0  0  0  0  0  0  0  0  0  0  0  0
   36.6240   25.6120   30.0490 H   0  0  0  0  0  0  0  0  0  0  0  0
   36.5670   29.9030   31.5140 N   0  0  0  0  0  0  0  0  0  0  0  0
   37.2530   30.3560   30.4480 C   0  0  0  0  0  3  0  0  0  0  0  0
   37.1770   31.7290   30.1960 C   0  0  0  0  0  3  0  0  0  0  0  0
   36.3940   32.4700   31.0820 C   0  0  0  0  0  0  0  0  0  0  0  0
   36.2590   33.8760   30.9010 N   0  0  0  0  0  0  0  0  0  0  0  0
   35.7390   31.9360   32.1240 N   0  0  0  0  0  0  0  0  0  0  0  0
   35.8170   30.6360   32.3570 C   0  0  0  0  0  0  0  0  0  0  0  0
   35.2390   30.0460   33.3070 O   0  0  0  0  0  0  0  0  0  0  0  0
   35.9140   34.7140   30.3830 H   0  0  0  0  0  0  0  0  0  0  0  0
   36.7500   34.4070   31.6670 H   0  0  0  0  0  0  0  0  0  0  0  0
   37.6770   23.0890   36.7850 Br  0  0  0  0  0  0  0  0  0  0  0  0
   39.3120   22.4740   36.0240 C   0  0  0  0  0  0  0  0  0  0  0  0
   39.3330   22.4590   34.6550 C   0  0  0  0  0  0  0  0  0  0  0  0
   40.5230   22.0610   34.0230 C   0  0  0  0  0  0  0  0  0  0  0  0
   41.6140   21.7010   34.7530 C   0  0  0  0  0  0  0  0  0  0  0  0
   41.5280   21.7350   36.1310 C   0  0  0  0  0  0  0  0  0  0  0  0
   40.3550   22.1270   36.7940 C   0  0  0  0  0  0  0  0  0  0  0  0
   40.6360   22.0200   32.9490 H   0  0  0  0  0  0  0  0  0  0  0  0
   42.5450   21.3910   34.3010 H   0  0  0  0  0  0  0  0  0  0  0  0
   42.3700   21.4570   36.7520 H   0  0  0  0  0  0  0  0  0  0  0  0
   40.1860   22.1850   38.1420 O   0  0  0  0  0  0  0  0  0  0  0  0
   39.9310   21.3390   38.6430 H   0  0  0  0  0  0  0  0  0  0  0  0
  2  7  1  0  0  0  0
  2  1  1  0  0  0  0
  3  2  2  0  0  0  0
  4  5  2  0  0  0  0
  4  3  1  0  0  0  0
  5  6  1  0  0  0  0
  6 10  1  0  0  0  0
  6  7  2  0  0  0  0
  7 31  1  0  0  0  0
  8  4  1  0  0  0  0
  9  5  1  0  0  0  0
 11 17  1  0  0  0  0
 12  3  1  0  0  0  0
 12 11  2  0  0  0  0
 13 12  1  0  0  0  0
 14 13  2  0  0  0  0
 14 15  1  0  0  0  0
 15 16  2  0  0  0  0
 16 11  1  0  0  0  0
 18 13  1  0  0  0  0
 19 15  1  0  0  0  0
 19 25  1  0  0  0  0
 20 19  1  0  0  0  0
 21 20  2  0  0  0  0
 21 22  1  0  0  0  0
 22 24  2  0  0  0  0
 23 22  1  0  0  0  0
 23 28  1  0  0  0  0
 24 25  1  0  0  0  0
 25 26  2  0  0  0  0
 27 23  1  0  0  0  0
 30 29  1  0  0  0  0
 30 35  1  0  0  0  0
 31 30  2  0  0  0  0
 32 31  1  0  0  0  0
 32 33  2  0  0  0  0
 33 34  1  0  0  0  0
 34 38  1  0  0  0  0
 34 35  2  0  0  0  0
 35 39  1  0  0  0  0
 36 32  1  0  0  0  0
 37 33  1  0  0  0  0
 39 40  1  0  0  0  0
M  END
>  <minimizedAffinity>
-6.25806332

$$$$
