
 OpenBabel03272508043D

 36 39  0  0  0  0  0  0  0  0999 V2000
   38.8960   30.8990   45.7770 C   0  0  0  0  0  0  0  0  0  0  0  0
   40.0750   31.5710   46.0240 C   0  0  0  0  0  0  0  0  0  0  0  0
   40.9170   31.5150   44.9290 C   0  0  0  0  0  0  0  0  0  0  0  0
   40.2010   30.7940   44.0370 N   0  0  0  0  0  0  0  0  0  0  0  0
   39.0250   30.4340   44.5260 N   0  0  0  0  0  0  0  0  0  0  0  0
   40.3320   32.0860   46.9510 H   0  0  0  0  0  0  0  0  0  0  0  0
   41.9060   31.9160   44.7510 H   0  0  0  0  0  0  0  0  0  0  0  0
   37.7820   30.7490   46.6910 C   0  0  0  0  0  0  0  0  0  0  0  0
   37.9950   30.9650   48.0680 C   0  0  0  0  0  0  0  0  0  0  0  0
   36.9140   30.8170   48.9300 C   0  0  0  0  0  0  0  0  0  0  0  0
   35.7080   30.4720   48.3900 N   0  0  0  0  0  0  0  0  0  0  0  0
   35.5240   30.2680   47.0640 C   0  0  0  0  0  0  0  0  0  0  0  0
   36.5740   30.4110   46.2270 N   0  0  0  0  0  0  0  0  0  0  0  0
   38.9950   31.2390   48.4060 H   0  0  0  0  0  0  0  0  0  0  0  0
   34.5450   29.9940   46.6830 H   0  0  0  0  0  0  0  0  0  0  0  0
   37.1130   31.0400   50.3850 C   0  0  0  0  0  0  0  0  0  0  0  0
   36.5980   32.2860   50.6470 F   0  0  0  0  0  0  0  0  0  0  0  0
   36.4450   30.1100   51.1660 F   0  0  0  0  0  0  0  0  0  0  0  0
   38.4670   31.0550   50.7220 F   0  0  0  0  0  0  0  0  0  0  0  0
   40.5830   30.4070   42.6710 C   0  0  0  0  0  0  0  0  0  0  0  0
   40.2170   31.1790   41.5560 C   0  0  0  0  0  0  0  0  0  0  0  0
   40.5870   30.7880   40.3300 C   0  0  0  0  0  0  0  0  0  0  0  0
   41.3480   29.5940   40.1720 C   0  0  0  0  0  0  0  0  0  0  0  0
   41.5160   29.0330   41.9340 S   0  0  0  0  0  0  0  0  0  0  0  0
   39.6370   32.0950   41.6440 H   0  0  0  0  0  0  0  0  0  0  0  0
   40.4090   31.2360   39.3660 H   0  0  0  0  0  0  0  0  0  0  0  0
   41.8970   28.8870   39.1360 N   0  0  0  0  0  0  0  0  0  0  0  0
   43.1070   29.1140   38.6540 C   0  0  0  0  0  3  0  0  0  0  0  0
   43.5740   28.3370   37.5960 C   0  0  0  0  0  3  0  0  0  0  0  0
   42.7690   27.3470   37.0700 C   0  0  0  0  0  0  0  0  0  0  0  0
   43.1370   26.4870   35.9850 N   0  0  0  0  0  0  0  0  0  0  0  0
   41.5260   27.1340   37.5860 N   0  0  0  0  0  0  0  0  0  0  0  0
   41.0960   27.9090   38.6210 C   0  0  0  0  0  0  0  0  0  0  0  0
   39.9390   27.6510   39.0410 O   0  0  0  0  0  0  0  0  0  0  0  0
   42.4110   26.2020   35.2870 H   0  0  0  0  0  0  0  0  0  0  0  0
   44.1510   26.2490   36.0520 H   0  0  0  0  0  0  0  0  0  0  0  0
  1  2  1  0  0  0  0
  1  8  1  0  0  0  0
  2  6  1  0  0  0  0
  3  2  2  0  0  0  0
  4  5  1  0  0  0  0
  4  3  1  0  0  0  0
  5  1  2  0  0  0  0
  7  3  1  0  0  0  0
  8  9  1  0  0  0  0
  9 14  1  0  0  0  0
  9 10  2  0  0  0  0
 10 16  1  0  0  0  0
 11 10  1  0  0  0  0
 12 11  2  0  0  0  0
 13  8  2  0  0  0  0
 13 12  1  0  0  0  0
 15 12  1  0  0  0  0
 16 17  1  0  0  0  0
 16 19  1  0  0  0  0
 16 18  1  0  0  0  0
 20  4  1  0  0  0  0
 21 25  1  0  0  0  0
 21 20  2  0  0  0  0
 22 21  1  0  0  0  0
 23 22  2  0  0  0  0
 23 24  1  0  0  0  0
 24 20  1  0  0  0  0
 26 22  1  0  0  0  0
 27 23  1  0  0  0  0
 28 27  1  0  0  0  0
 29 28  2  0  0  0  0
 30 32  2  0  0  0  0
 30 29  1  0  0  0  0
 31 36  1  0  0  0  0
 31 30  1  0  0  0  0
 32 33  1  0  0  0  0
 33 34  2  0  0  0  0
 33 27  1  0  0  0  0
 35 31  1  0  0  0  0
M  END
>  <minimizedAffinity>
-6.41819477

>  <minimizedRMSD>
0.872013271

$$$$
