
 OpenBabel03272502063D

 40 43  0  0  0  0  0  0  0  0999 V2000
   34.2090   30.4390   47.6920 F   0  0  0  0  0  0  0  0  0  0  0  0
   34.6180   29.9710   46.4690 C   0  0  0  0  0  0  0  0  0  0  0  0
   33.7470   29.3600   45.5810 C   0  0  0  0  0  0  0  0  0  0  0  0
   34.2280   28.9330   44.3650 C   0  0  0  0  0  0  0  0  0  0  0  0
   35.5730   29.1110   44.0250 C   0  0  0  0  0  0  0  0  0  0  0  0
   36.3900   29.7260   44.9570 C   0  0  0  0  0  0  0  0  0  0  0  0
   35.9630   30.1580   46.1560 C   0  0  0  0  0  0  0  0  0  0  0  0
   33.5150   28.4700   43.7190 H   0  0  0  0  0  0  0  0  0  0  0  0
   35.9080   28.7600   43.0590 H   0  0  0  0  0  0  0  0  0  0  0  0
   37.4110   29.8240   44.6180 H   0  0  0  0  0  0  0  0  0  0  0  0
   32.1300   28.2340   46.9690 C   0  0  0  0  0  0  0  0  0  0  0  0
   32.3920   29.2380   46.0490 C   0  0  0  0  0  0  0  0  0  0  0  0
   31.3410   30.0540   45.6590 C   0  0  0  0  0  0  0  0  0  0  0  0
   30.1000   29.8600   46.1780 N   0  0  0  0  0  0  0  0  0  0  0  0
   29.8890   28.8810   47.0640 C   0  0  0  0  0  0  0  0  0  0  0  0
   30.8700   28.0840   47.4560 N   0  0  0  0  0  0  0  0  0  0  0  0
   32.8960   27.5530   47.3230 H   0  0  0  0  0  0  0  0  0  0  0  0
   31.5630   30.8370   44.9360 H   0  0  0  0  0  0  0  0  0  0  0  0
   28.5710   28.7050   47.5920 N   0  0  0  0  0  0  0  0  0  0  0  0
   27.5750   29.0190   46.7420 C   0  0  0  0  0  3  0  0  0  0  0  0
   26.2720   28.8600   47.2220 C   0  0  0  0  0  3  0  0  0  0  0  0
   26.1560   28.3910   48.5300 C   0  0  0  0  0  0  0  0  0  0  0  0
   24.8660   28.1980   49.1010 N   0  0  0  0  0  0  0  0  0  0  0  0
   27.2050   28.0990   49.3130 N   0  0  0  0  0  0  0  0  0  0  0  0
   28.4370   28.2530   48.8520 C   0  0  0  0  0  0  0  0  0  0  0  0
   29.4810   28.0070   49.5110 O   0  0  0  0  0  0  0  0  0  0  0  0
   23.9500   27.7040   49.1730 H   0  0  0  0  0  0  0  0  0  0  0  0
   24.6780   28.9020   49.8620 H   0  0  0  0  0  0  0  0  0  0  0  0
   37.9210   32.3370   45.0470 Br  0  0  0  0  0  0  0  0  0  0  0  0
   37.7940   31.7760   46.8640 C   0  0  0  0  0  0  0  0  0  0  0  0
   36.8780   30.7830   47.0900 C   0  0  0  0  0  0  0  0  0  0  0  0
   36.7610   30.2860   48.3990 C   0  0  0  0  0  0  0  0  0  0  0  0
   37.5350   30.7810   49.4050 C   0  0  0  0  0  0  0  0  0  0  0  0
   38.4370   31.7840   49.1120 C   0  0  0  0  0  0  0  0  0  0  0  0
   38.5790   32.3030   47.8150 C   0  0  0  0  0  0  0  0  0  0  0  0
   36.0700   29.5030   48.6740 H   0  0  0  0  0  0  0  0  0  0  0  0
   37.4730   30.4230   50.4220 H   0  0  0  0  0  0  0  0  0  0  0  0
   39.0720   32.2080   49.8790 H   0  0  0  0  0  0  0  0  0  0  0  0
   39.4390   33.2890   47.4450 O   0  0  0  0  0  0  0  0  0  0  0  0
   39.1600   34.2580   47.5710 H   0  0  0  0  0  0  0  0  0  0  0  0
  2  1  1  0  0  0  0
  3 12  1  0  0  0  0
  3  2  2  0  0  0  0
  4  3  1  0  0  0  0
  5  4  2  0  0  0  0
  5  6  1  0  0  0  0
  6  7  2  0  0  0  0
  7  2  1  0  0  0  0
  7 31  1  0  0  0  0
  8  4  1  0  0  0  0
  9  5  1  0  0  0  0
 10  6  1  0  0  0  0
 11 17  1  0  0  0  0
 11 16  1  0  0  0  0
 12 11  2  0  0  0  0
 13 12  1  0  0  0  0
 13 14  2  0  0  0  0
 14 15  1  0  0  0  0
 15 16  2  0  0  0  0
 15 19  1  0  0  0  0
 18 13  1  0  0  0  0
 19 25  1  0  0  0  0
 20 21  2  0  0  0  0
 20 19  1  0  0  0  0
 21 22  1  0  0  0  0
 22 23  1  0  0  0  0
 22 24  2  0  0  0  0
 23 27  1  0  0  0  0
 23 28  1  0  0  0  0
 25 24  1  0  0  0  0
 25 26  2  0  0  0  0
 29 30  1  0  0  0  0
 30 31  2  0  0  0  0
 30 35  1  0  0  0  0
 31 32  1  0  0  0  0
 32 36  1  0  0  0  0
 32 33  2  0  0  0  0
 33 37  1  0  0  0  0
 34 33  1  0  0  0  0
 34 38  1  0  0  0  0
 35 34  2  0  0  0  0
 39 40  1  0  0  0  0
 39 35  1  0  0  0  0
M  END
>  <minimizedAffinity>
-8.07949066

>  <minimizedRMSD>
0.16392681

$$$$
