
 OpenBabel03272502063D

 40 43  0  0  0  0  0  0  0  0999 V2000
   34.2050   30.4400   47.6920 F   0  0  0  0  0  0  0  0  0  0  0  0
   34.6130   29.9670   46.4700 C   0  0  0  0  0  0  0  0  0  0  0  0
   33.7400   29.3560   45.5840 C   0  0  0  0  0  0  0  0  0  0  0  0
   34.2210   28.9250   44.3690 C   0  0  0  0  0  0  0  0  0  0  0  0
   35.5660   29.0980   44.0290 C   0  0  0  0  0  0  0  0  0  0  0  0
   36.3850   29.7140   44.9590 C   0  0  0  0  0  0  0  0  0  0  0  0
   35.9590   30.1500   46.1570 C   0  0  0  0  0  0  0  0  0  0  0  0
   33.5070   28.4610   43.7250 H   0  0  0  0  0  0  0  0  0  0  0  0
   35.9010   28.7440   43.0640 H   0  0  0  0  0  0  0  0  0  0  0  0
   37.4070   29.8090   44.6200 H   0  0  0  0  0  0  0  0  0  0  0  0
   32.1040   28.1900   46.9150 C   0  0  0  0  0  0  0  0  0  0  0  0
   32.3860   29.2390   46.0520 C   0  0  0  0  0  0  0  0  0  0  0  0
   31.3520   30.1000   45.7160 C   0  0  0  0  0  0  0  0  0  0  0  0
   30.1100   29.9050   46.2290 N   0  0  0  0  0  0  0  0  0  0  0  0
   29.8790   28.8820   47.0600 C   0  0  0  0  0  0  0  0  0  0  0  0
   30.8440   28.0410   47.4000 N   0  0  0  0  0  0  0  0  0  0  0  0
   32.8560   27.4730   47.2250 H   0  0  0  0  0  0  0  0  0  0  0  0
   31.5890   30.9170   45.0370 H   0  0  0  0  0  0  0  0  0  0  0  0
   28.5600   28.7060   47.5840 N   0  0  0  0  0  0  0  0  0  0  0  0
   27.5740   28.7840   46.6710 C   0  0  0  0  0  3  0  0  0  0  0  0
   26.2700   28.6180   47.1460 C   0  0  0  0  0  3  0  0  0  0  0  0
   26.1440   28.3880   48.5160 C   0  0  0  0  0  0  0  0  0  0  0  0
   24.8510   28.2060   49.0850 N   0  0  0  0  0  0  0  0  0  0  0  0
   27.1830   28.3240   49.3590 N   0  0  0  0  0  0  0  0  0  0  0  0
   28.4150   28.4830   48.9030 C   0  0  0  0  0  0  0  0  0  0  0  0
   29.4510   28.4390   49.6180 O   0  0  0  0  0  0  0  0  0  0  0  0
   23.9700   27.6650   49.2290 H   0  0  0  0  0  0  0  0  0  0  0  0
   24.5890   29.0210   49.7000 H   0  0  0  0  0  0  0  0  0  0  0  0
   37.9120   32.3320   45.0460 Br  0  0  0  0  0  0  0  0  0  0  0  0
   37.7890   31.7700   46.8620 C   0  0  0  0  0  0  0  0  0  0  0  0
   36.8750   30.7750   47.0900 C   0  0  0  0  0  0  0  0  0  0  0  0
   36.7620   30.2780   48.3980 C   0  0  0  0  0  0  0  0  0  0  0  0
   37.5370   30.7730   49.4030 C   0  0  0  0  0  0  0  0  0  0  0  0
   38.4370   31.7770   49.1090 C   0  0  0  0  0  0  0  0  0  0  0  0
   38.5760   32.2970   47.8120 C   0  0  0  0  0  0  0  0  0  0  0  0
   36.0710   29.4930   48.6750 H   0  0  0  0  0  0  0  0  0  0  0  0
   37.4780   30.4140   50.4200 H   0  0  0  0  0  0  0  0  0  0  0  0
   39.0740   32.2010   49.8750 H   0  0  0  0  0  0  0  0  0  0  0  0
   39.4340   33.2850   47.4400 O   0  0  0  0  0  0  0  0  0  0  0  0
   39.1540   34.2530   47.5680 H   0  0  0  0  0  0  0  0  0  0  0  0
  2  1  1  0  0  0  0
  3 12  1  0  0  0  0
  3  2  2  0  0  0  0
  4  3  1  0  0  0  0
  5  4  2  0  0  0  0
  5  6  1  0  0  0  0
  6  7  2  0  0  0  0
  7  2  1  0  0  0  0
  7 31  1  0  0  0  0
  8  4  1  0  0  0  0
  9  5  1  0  0  0  0
 10  6  1  0  0  0  0
 11 17  1  0  0  0  0
 11 16  1  0  0  0  0
 12 11  2  0  0  0  0
 13 12  1  0  0  0  0
 13 14  2  0  0  0  0
 14 15  1  0  0  0  0
 15 16  2  0  0  0  0
 15 19  1  0  0  0  0
 18 13  1  0  0  0  0
 19 25  1  0  0  0  0
 20 21  2  0  0  0  0
 20 19  1  0  0  0  0
 21 22  1  0  0  0  0
 22 23  1  0  0  0  0
 22 24  2  0  0  0  0
 23 27  1  0  0  0  0
 23 28  1  0  0  0  0
 25 24  1  0  0  0  0
 25 26  2  0  0  0  0
 29 30  1  0  0  0  0
 30 31  2  0  0  0  0
 30 35  1  0  0  0  0
 31 32  1  0  0  0  0
 32 36  1  0  0  0  0
 32 33  2  0  0  0  0
 33 37  1  0  0  0  0
 34 33  1  0  0  0  0
 34 38  1  0  0  0  0
 35 34  2  0  0  0  0
 39 40  1  0  0  0  0
 39 35  1  0  0  0  0
M  END
>  <minimizedAffinity>
-8.09294128

>  <minimizedRMSD>
0.166725487

$$$$
