
 OpenBabel03272508053D

 36 39  0  0  0  0  0  0  0  0999 V2000
   38.8420   30.8940   45.8440 C   0  0  0  0  0  0  0  0  0  0  0  0
   40.0180   31.5670   46.1030 C   0  0  0  0  0  0  0  0  0  0  0  0
   40.8650   31.5260   45.0120 C   0  0  0  0  0  0  0  0  0  0  0  0
   40.1570   30.8110   44.1090 N   0  0  0  0  0  0  0  0  0  0  0  0
   38.9800   30.4420   44.5880 N   0  0  0  0  0  0  0  0  0  0  0  0
   40.2680   32.0740   47.0370 H   0  0  0  0  0  0  0  0  0  0  0  0
   41.8530   31.9330   44.8440 H   0  0  0  0  0  0  0  0  0  0  0  0
   37.7250   30.7300   46.7500 C   0  0  0  0  0  0  0  0  0  0  0  0
   37.9330   30.9210   48.1320 C   0  0  0  0  0  0  0  0  0  0  0  0
   36.8480   30.7600   48.9870 C   0  0  0  0  0  0  0  0  0  0  0  0
   35.6440   30.4270   48.4360 N   0  0  0  0  0  0  0  0  0  0  0  0
   35.4640   30.2480   47.1060 C   0  0  0  0  0  0  0  0  0  0  0  0
   36.5180   30.4040   46.2760 N   0  0  0  0  0  0  0  0  0  0  0  0
   38.9320   31.1860   48.4790 H   0  0  0  0  0  0  0  0  0  0  0  0
   34.4860   29.9840   46.7160 H   0  0  0  0  0  0  0  0  0  0  0  0
   37.0420   30.9570   50.4460 C   0  0  0  0  0  0  0  0  0  0  0  0
   36.5540   32.2090   50.7240 F   0  0  0  0  0  0  0  0  0  0  0  0
   36.3470   30.0300   51.2090 F   0  0  0  0  0  0  0  0  0  0  0  0
   38.3940   30.9350   50.7920 F   0  0  0  0  0  0  0  0  0  0  0  0
   40.5470   30.4400   42.7410 C   0  0  0  0  0  0  0  0  0  0  0  0
   40.1400   31.1930   41.6280 C   0  0  0  0  0  0  0  0  0  0  0  0
   40.5190   30.8160   40.4000 C   0  0  0  0  0  0  0  0  0  0  0  0
   41.3330   29.6580   40.2390 C   0  0  0  0  0  0  0  0  0  0  0  0
   41.5370   29.1090   42.0010 S   0  0  0  0  0  0  0  0  0  0  0  0
   39.5190   32.0820   41.7180 H   0  0  0  0  0  0  0  0  0  0  0  0
   40.3140   31.2540   39.4370 H   0  0  0  0  0  0  0  0  0  0  0  0
   41.9060   28.9750   39.2010 N   0  0  0  0  0  0  0  0  0  0  0  0
   41.4600   27.8120   38.7540 C   0  0  0  0  0  3  0  0  0  0  0  0
   42.1150   27.1960   37.6890 C   0  0  0  0  0  3  0  0  0  0  0  0
   43.2140   27.8070   37.1200 C   0  0  0  0  0  0  0  0  0  0  0  0
   43.9670   27.2730   36.0240 N   0  0  0  0  0  0  0  0  0  0  0  0
   43.6520   29.0050   37.6000 N   0  0  0  0  0  0  0  0  0  0  0  0
   42.9910   29.5840   38.6430 C   0  0  0  0  0  0  0  0  0  0  0  0
   43.4570   30.6860   39.0270 O   0  0  0  0  0  0  0  0  0  0  0  0
   45.0060   27.4060   36.0030 H   0  0  0  0  0  0  0  0  0  0  0  0
   43.3250   26.7950   35.3550 H   0  0  0  0  0  0  0  0  0  0  0  0
  1  2  1  0  0  0  0
  1  8  1  0  0  0  0
  2  6  1  0  0  0  0
  3  2  2  0  0  0  0
  4  5  1  0  0  0  0
  4  3  1  0  0  0  0
  5  1  2  0  0  0  0
  7  3  1  0  0  0  0
  8  9  1  0  0  0  0
  9 14  1  0  0  0  0
  9 10  2  0  0  0  0
 10 16  1  0  0  0  0
 11 10  1  0  0  0  0
 12 11  2  0  0  0  0
 13  8  2  0  0  0  0
 13 12  1  0  0  0  0
 15 12  1  0  0  0  0
 16 17  1  0  0  0  0
 16 19  1  0  0  0  0
 16 18  1  0  0  0  0
 20  4  1  0  0  0  0
 21 25  1  0  0  0  0
 21 20  2  0  0  0  0
 22 21  1  0  0  0  0
 23 22  2  0  0  0  0
 23 24  1  0  0  0  0
 24 20  1  0  0  0  0
 26 22  1  0  0  0  0
 27 23  1  0  0  0  0
 28 27  1  0  0  0  0
 29 28  2  0  0  0  0
 30 32  2  0  0  0  0
 30 29  1  0  0  0  0
 31 30  1  0  0  0  0
 32 33  1  0  0  0  0
 33 34  2  0  0  0  0
 33 27  1  0  0  0  0
 35 31  1  0  0  0  0
 36 31  1  0  0  0  0
M  END
>  <minimizedAffinity>
-6.56915998

>  <minimizedRMSD>
0.296163291

$$$$
