
 OpenBabel03272508043D

 36 39  0  0  0  0  0  0  0  0999 V2000
   38.8210   31.0650   45.6890 C   0  0  0  0  0  0  0  0  0  0  0  0
   39.8980   31.9120   45.8480 C   0  0  0  0  0  0  0  0  0  0  0  0
   40.7300   31.8690   44.7450 C   0  0  0  0  0  0  0  0  0  0  0  0
   40.1130   30.9770   43.9380 N   0  0  0  0  0  0  0  0  0  0  0  0
   39.0030   30.5070   44.4830 N   0  0  0  0  0  0  0  0  0  0  0  0
   40.0900   32.5420   46.7190 H   0  0  0  0  0  0  0  0  0  0  0  0
   41.6530   32.3830   44.5100 H   0  0  0  0  0  0  0  0  0  0  0  0
   37.7470   30.8510   46.6360 C   0  0  0  0  0  0  0  0  0  0  0  0
   37.9860   31.0880   48.0060 C   0  0  0  0  0  0  0  0  0  0  0  0
   36.9430   30.8780   48.9000 C   0  0  0  0  0  0  0  0  0  0  0  0
   35.7460   30.4540   48.3980 N   0  0  0  0  0  0  0  0  0  0  0  0
   35.5350   30.2310   47.0790 C   0  0  0  0  0  0  0  0  0  0  0  0
   36.5490   30.4360   46.2100 N   0  0  0  0  0  0  0  0  0  0  0  0
   38.9770   31.4260   48.3130 H   0  0  0  0  0  0  0  0  0  0  0  0
   34.5650   29.8950   46.7280 H   0  0  0  0  0  0  0  0  0  0  0  0
   37.1700   31.1210   50.3470 C   0  0  0  0  0  0  0  0  0  0  0  0
   36.6650   32.3720   50.6010 F   0  0  0  0  0  0  0  0  0  0  0  0
   36.5140   30.2050   51.1550 F   0  0  0  0  0  0  0  0  0  0  0  0
   38.5310   31.1360   50.6580 F   0  0  0  0  0  0  0  0  0  0  0  0
   40.5330   30.5200   42.6050 C   0  0  0  0  0  0  0  0  0  0  0  0
   40.1590   31.2060   41.4390 C   0  0  0  0  0  0  0  0  0  0  0  0
   40.5640   30.7530   40.2460 C   0  0  0  0  0  0  0  0  0  0  0  0
   41.3720   29.5800   40.1750 C   0  0  0  0  0  0  0  0  0  0  0  0
   41.5290   29.1390   41.9720 S   0  0  0  0  0  0  0  0  0  0  0  0
   39.5440   32.1030   41.4590 H   0  0  0  0  0  0  0  0  0  0  0  0
   40.3860   31.1320   39.2530 H   0  0  0  0  0  0  0  0  0  0  0  0
   41.9640   28.8310   39.1950 N   0  0  0  0  0  0  0  0  0  0  0  0
   41.5250   27.6410   38.8170 C   0  0  0  0  0  3  0  0  0  0  0  0
   42.1990   26.9570   37.8090 C   0  0  0  0  0  3  0  0  0  0  0  0
   43.3100   27.5290   37.2210 C   0  0  0  0  0  0  0  0  0  0  0  0
   44.0830   26.9250   36.1770 N   0  0  0  0  0  0  0  0  0  0  0  0
   43.7390   28.7560   37.6290 N   0  0  0  0  0  0  0  0  0  0  0  0
   43.0600   29.4020   38.6190 C   0  0  0  0  0  0  0  0  0  0  0  0
   43.5190   30.5280   38.9380 O   0  0  0  0  0  0  0  0  0  0  0  0
   45.1220   27.0560   36.1670 H   0  0  0  0  0  0  0  0  0  0  0  0
   43.4540   26.4020   35.5290 H   0  0  0  0  0  0  0  0  0  0  0  0
  1  2  1  0  0  0  0
  1  8  1  0  0  0  0
  2  6  1  0  0  0  0
  3  2  2  0  0  0  0
  4  5  1  0  0  0  0
  4  3  1  0  0  0  0
  5  1  2  0  0  0  0
  7  3  1  0  0  0  0
  8  9  1  0  0  0  0
  9 14  1  0  0  0  0
  9 10  2  0  0  0  0
 10 16  1  0  0  0  0
 11 10  1  0  0  0  0
 12 11  2  0  0  0  0
 13  8  2  0  0  0  0
 13 12  1  0  0  0  0
 15 12  1  0  0  0  0
 16 17  1  0  0  0  0
 16 19  1  0  0  0  0
 16 18  1  0  0  0  0
 20  4  1  0  0  0  0
 21 25  1  0  0  0  0
 21 20  2  0  0  0  0
 22 21  1  0  0  0  0
 23 22  2  0  0  0  0
 23 24  1  0  0  0  0
 24 20  1  0  0  0  0
 26 22  1  0  0  0  0
 27 23  1  0  0  0  0
 28 27  1  0  0  0  0
 29 28  2  0  0  0  0
 30 32  2  0  0  0  0
 30 29  1  0  0  0  0
 31 30  1  0  0  0  0
 32 33  1  0  0  0  0
 33 34  2  0  0  0  0
 33 27  1  0  0  0  0
 35 31  1  0  0  0  0
 36 31  1  0  0  0  0
M  END
>  <minimizedAffinity>
-6.53490305

>  <minimizedRMSD>
0.969850779

$$$$
