
 OpenBabel03272504333D

 41 44  0  0  0  0  0  0  0  0999 V2000
   35.3560   29.6140   47.7080 C   0  0  0  0  0  0  0  0  0  0  0  0
   35.5720   30.0850   46.4160 C   0  0  0  0  0  0  0  0  0  0  0  0
   34.5730   30.0070   45.4720 C   0  0  0  0  0  0  0  0  0  0  0  0
   33.3820   29.4540   45.8570 N   0  0  0  0  0  0  0  0  0  0  0  0
   33.2010   29.0040   47.1170 C   0  0  0  0  0  0  0  0  0  0  0  0
   34.1790   29.0790   48.0480 N   0  0  0  0  0  0  0  0  0  0  0  0
   36.5340   30.5130   46.1680 H   0  0  0  0  0  0  0  0  0  0  0  0
   34.7100   30.3660   44.4540 H   0  0  0  0  0  0  0  0  0  0  0  0
   31.9110   28.4200   47.4930 C   0  0  0  0  0  0  0  0  0  0  0  0
   31.7770   27.6700   48.6260 C   0  0  0  0  0  0  0  0  0  0  0  0
   30.5750   27.1000   49.0200 C   0  0  0  0  0  0  0  0  0  0  0  0
   29.5280   27.3370   48.1990 N   0  0  0  0  0  0  0  0  0  0  0  0
   29.6490   28.0700   47.0860 C   0  0  0  0  0  0  0  0  0  0  0  0
   30.8350   28.6150   46.7240 N   0  0  0  0  0  0  0  0  0  0  0  0
   32.6190   27.4840   49.2790 H   0  0  0  0  0  0  0  0  0  0  0  0
   30.4760   26.5080   49.9180 H   0  0  0  0  0  0  0  0  0  0  0  0
   28.5950   28.3650   46.1720 N   0  0  0  0  0  0  0  0  0  0  0  0
   28.6240   29.5920   45.6220 C   0  0  0  0  0  3  0  0  0  0  0  0
   27.6020   29.8720   44.7350 C   0  0  0  0  0  3  0  0  0  0  0  0
   26.6630   28.8880   44.4980 C   0  0  0  0  0  0  0  0  0  0  0  0
   25.5890   29.1150   43.5970 N   0  0  0  0  0  0  0  0  0  0  0  0
   26.7060   27.6640   45.1000 N   0  0  0  0  0  0  0  0  0  0  0  0
   27.6970   27.3850   45.9630 C   0  0  0  0  0  0  0  0  0  0  0  0
   27.8040   26.2780   46.5590 O   0  0  0  0  0  0  0  0  0  0  0  0
   24.6470   29.4630   43.3100 H   0  0  0  0  0  0  0  0  0  0  0  0
   24.8480   29.6260   44.1630 H   0  0  0  0  0  0  0  0  0  0  0  0
   36.3580   29.6700   48.7320 N   0  0  0  0  0  0  0  0  0  0  0  0
   36.2790   28.8780   49.9380 C   0  0  0  0  0  0  0  0  0  0  0  0
   36.5980   29.6200   51.2050 C   0  0  0  0  0  0  0  0  0  0  0  0
   37.4960   30.7000   51.1150 N   0  0  0  0  0  0  0  0  0  0  0  0
   37.3660   31.4630   49.8770 C   0  0  0  0  0  0  0  0  0  0  0  0
   37.5300   30.4590   48.7460 C   0  0  0  0  0  0  0  0  0  0  0  0
   35.2840   28.3940   50.0550 H   0  0  0  0  0  0  0  0  0  0  0  0
   37.0200   28.0340   49.8240 H   0  0  0  0  0  0  0  0  0  0  0  0
   36.9890   28.8630   51.9200 H   0  0  0  0  0  0  0  0  0  0  0  0
   35.6360   29.9640   51.6680 H   0  0  0  0  0  0  0  0  0  0  0  0
   37.2620   31.3940   51.8890 H   0  0  0  0  0  0  0  0  0  0  0  0
   36.3610   31.9270   49.8920 H   0  0  0  0  0  0  0  0  0  0  0  0
   38.1550   32.2340   49.8590 H   0  0  0  0  0  0  0  0  0  0  0  0
   37.6430   31.0320   47.8160 H   0  0  0  0  0  0  0  0  0  0  0  0
   38.4640   29.8950   48.9560 H   0  0  0  0  0  0  0  0  0  0  0  0
  1  6  1  0  0  0  0
  1 27  1  0  0  0  0
  2  1  2  0  0  0  0
  3  4  2  0  0  0  0
  3  2  1  0  0  0  0
  4  5  1  0  0  0  0
  5  9  1  0  0  0  0
  5  6  2  0  0  0  0
  7  2  1  0  0  0  0
  8  3  1  0  0  0  0
  9 10  1  0  0  0  0
 10 11  2  0  0  0  0
 10 15  1  0  0  0  0
 11 16  1  0  0  0  0
 12 11  1  0  0  0  0
 13 12  2  0  0  0  0
 14 13  1  0  0  0  0
 14  9  2  0  0  0  0
 17 13  1  0  0  0  0
 18 17  1  0  0  0  0
 19 18  2  0  0  0  0
 20 19  1  0  0  0  0
 20 22  2  0  0  0  0
 21 26  1  0  0  0  0
 21 20  1  0  0  0  0
 22 23  1  0  0  0  0
 23 17  1  0  0  0  0
 23 24  2  0  0  0  0
 25 21  1  0  0  0  0
 27 32  1  0  0  0  0
 27 28  1  0  0  0  0
 28 33  1  0  0  0  0
 28 29  1  0  0  0  0
 29 36  1  0  0  0  0
 29 35  1  0  0  0  0
 30 29  1  0  0  0  0
 30 37  1  0  0  0  0
 31 38  1  0  0  0  0
 31 30  1  0  0  0  0
 32 41  1  0  0  0  0
 32 31  1  0  0  0  0
 34 28  1  0  0  0  0
 39 31  1  0  0  0  0
 40 32  1  0  0  0  0
M  END
>  <minimizedAffinity>
-5.699018

>  <minimizedRMSD>
0.505170226

$$$$
