
 OpenBabel03272508053D

 36 39  0  0  0  0  0  0  0  0999 V2000
   38.8970   30.8970   45.7770 C   0  0  0  0  0  0  0  0  0  0  0  0
   40.0770   31.5670   46.0250 C   0  0  0  0  0  0  0  0  0  0  0  0
   40.9190   31.5110   44.9310 C   0  0  0  0  0  0  0  0  0  0  0  0
   40.2020   30.7920   44.0370 N   0  0  0  0  0  0  0  0  0  0  0  0
   39.0260   30.4330   44.5260 N   0  0  0  0  0  0  0  0  0  0  0  0
   40.3340   32.0810   46.9530 H   0  0  0  0  0  0  0  0  0  0  0  0
   41.9080   31.9120   44.7530 H   0  0  0  0  0  0  0  0  0  0  0  0
   37.7830   30.7480   46.6910 C   0  0  0  0  0  0  0  0  0  0  0  0
   37.9950   30.9640   48.0680 C   0  0  0  0  0  0  0  0  0  0  0  0
   36.9140   30.8170   48.9300 C   0  0  0  0  0  0  0  0  0  0  0  0
   35.7080   30.4720   48.3900 N   0  0  0  0  0  0  0  0  0  0  0  0
   35.5240   30.2680   47.0630 C   0  0  0  0  0  0  0  0  0  0  0  0
   36.5750   30.4100   46.2270 N   0  0  0  0  0  0  0  0  0  0  0  0
   38.9950   31.2380   48.4070 H   0  0  0  0  0  0  0  0  0  0  0  0
   34.5460   29.9940   46.6820 H   0  0  0  0  0  0  0  0  0  0  0  0
   37.1120   31.0400   50.3850 C   0  0  0  0  0  0  0  0  0  0  0  0
   36.5980   32.2860   50.6470 F   0  0  0  0  0  0  0  0  0  0  0  0
   36.4440   30.1100   51.1660 F   0  0  0  0  0  0  0  0  0  0  0  0
   38.4670   31.0550   50.7220 F   0  0  0  0  0  0  0  0  0  0  0  0
   40.5840   30.4060   42.6710 C   0  0  0  0  0  0  0  0  0  0  0  0
   40.2180   31.1790   41.5570 C   0  0  0  0  0  0  0  0  0  0  0  0
   40.5870   30.7890   40.3310 C   0  0  0  0  0  0  0  0  0  0  0  0
   41.3490   29.5950   40.1720 C   0  0  0  0  0  0  0  0  0  0  0  0
   41.5170   29.0330   41.9330 S   0  0  0  0  0  0  0  0  0  0  0  0
   39.6370   32.0950   41.6450 H   0  0  0  0  0  0  0  0  0  0  0  0
   40.4080   31.2370   39.3670 H   0  0  0  0  0  0  0  0  0  0  0  0
   41.8970   28.8880   39.1350 N   0  0  0  0  0  0  0  0  0  0  0  0
   43.1070   29.1160   38.6530 C   0  0  0  0  0  3  0  0  0  0  0  0
   43.5740   28.3400   37.5950 C   0  0  0  0  0  3  0  0  0  0  0  0
   42.7690   27.3500   37.0670 C   0  0  0  0  0  0  0  0  0  0  0  0
   43.1370   26.4910   35.9810 N   0  0  0  0  0  0  0  0  0  0  0  0
   41.5260   27.1380   37.5830 N   0  0  0  0  0  0  0  0  0  0  0  0
   41.0960   27.9120   38.6190 C   0  0  0  0  0  0  0  0  0  0  0  0
   39.9390   27.6530   39.0390 O   0  0  0  0  0  0  0  0  0  0  0  0
   42.4110   26.2060   35.2830 H   0  0  0  0  0  0  0  0  0  0  0  0
   44.1500   26.2540   36.0480 H   0  0  0  0  0  0  0  0  0  0  0  0
  1  2  1  0  0  0  0
  1  8  1  0  0  0  0
  2  6  1  0  0  0  0
  3  2  2  0  0  0  0
  4  5  1  0  0  0  0
  4  3  1  0  0  0  0
  5  1  2  0  0  0  0
  7  3  1  0  0  0  0
  8  9  1  0  0  0  0
  9 14  1  0  0  0  0
  9 10  2  0  0  0  0
 10 16  1  0  0  0  0
 11 10  1  0  0  0  0
 12 11  2  0  0  0  0
 13  8  2  0  0  0  0
 13 12  1  0  0  0  0
 15 12  1  0  0  0  0
 16 17  1  0  0  0  0
 16 19  1  0  0  0  0
 16 18  1  0  0  0  0
 20  4  1  0  0  0  0
 21 25  1  0  0  0  0
 21 20  2  0  0  0  0
 22 21  1  0  0  0  0
 23 22  2  0  0  0  0
 23 24  1  0  0  0  0
 24 20  1  0  0  0  0
 26 22  1  0  0  0  0
 27 23  1  0  0  0  0
 28 27  1  0  0  0  0
 29 28  2  0  0  0  0
 30 32  2  0  0  0  0
 30 29  1  0  0  0  0
 31 36  1  0  0  0  0
 31 30  1  0  0  0  0
 32 33  1  0  0  0  0
 33 34  2  0  0  0  0
 33 27  1  0  0  0  0
 35 31  1  0  0  0  0
M  END
>  <minimizedAffinity>
-6.41822147

>  <minimizedRMSD>
0.456493437

$$$$
