
 OpenBabel03272509283D

 28 29  0  0  1  0  0  0  0  0999 V2000
   35.4300   30.1500   48.7820 C   0  0  2  0  0  0  0  0  0  0  0  0
   36.5420   30.9020   48.0790 C   0  0  0  0  0  0  0  0  0  0  0  0
   37.9100   30.5400   48.5790 C   0  0  0  0  0  0  0  0  0  0  0  0
   38.0510   30.6800   50.0690 C   0  0  0  0  0  0  0  0  0  0  0  0
   36.8390   30.2320   50.8290 C   0  0  0  0  0  0  0  0  0  0  0  0
   35.9030   29.3970   49.9770 C   0  0  1  0  0  0  0  0  0  0  0  0
   34.5970   30.8410   49.0480 H   0  0  0  0  0  0  0  0  0  0  0  0
   36.4030   31.9850   48.3570 H   0  0  0  0  0  0  0  0  0  0  0  0
   36.5400   30.8140   46.9940 H   0  0  0  0  0  0  0  0  0  0  0  0
   38.1140   29.5110   48.2400 H   0  0  0  0  0  0  0  0  0  0  0  0
   38.6070   31.2660   48.0860 H   0  0  0  0  0  0  0  0  0  0  0  0
   38.4100   31.6960   50.3760 H   0  0  0  0  0  0  0  0  0  0  0  0
   38.8980   29.9950   50.3670 H   0  0  0  0  0  0  0  0  0  0  0  0
   37.0590   29.7180   51.7800 H   0  0  0  0  0  0  0  0  0  0  0  0
   36.2530   31.1670   51.0620 H   0  0  0  0  0  0  0  0  0  0  0  0
   36.4050   28.4480   49.7260 H   0  0  0  0  0  0  0  0  0  0  0  0
   34.8110   29.1730   47.8370 C   0  0  0  0  0  0  0  0  0  0  0  0
   34.6270   29.6070   46.5110 C   0  0  0  0  0  0  0  0  0  0  0  0
   34.0450   28.7070   45.6290 C   0  0  0  0  0  0  0  0  0  0  0  0
   33.6760   27.4520   46.0700 N   0  0  0  0  0  0  0  0  0  0  0  0
   33.8750   27.0770   47.3710 C   0  0  0  0  0  0  0  0  0  0  0  0
   34.4370   27.9420   48.2250 N   0  0  0  0  0  0  0  0  0  0  0  0
   34.8900   30.5670   46.1100 H   0  0  0  0  0  0  0  0  0  0  0  0
   33.8540   28.9200   44.5960 H   0  0  0  0  0  0  0  0  0  0  0  0
   33.5670   26.0850   47.6580 H   0  0  0  0  0  0  0  0  0  0  0  0
   34.7340   29.0820   50.8720 C   0  0  0  0  0  0  0  0  0  0  0  0
   34.7780   28.1500   51.4610 H   0  0  0  0  0  0  0  0  0  0  0  0
   33.8020   29.8950   50.8860 O   0  0  0  0  0  0  0  0  0  0  0  0
  1  7  1  1  0  0  0
  1  6  1  0  0  0  0
  2  8  1  0  0  0  0
  2  3  1  0  0  0  0
  2  1  1  0  0  0  0
  3  4  1  0  0  0  0
  4 13  1  0  0  0  0
  4 12  1  0  0  0  0
  4  5  1  0  0  0  0
  5 15  1  0  0  0  0
  5 14  1  0  0  0  0
  6 16  1  6  0  0  0
  6  5  1  0  0  0  0
  6 26  1  0  0  0  0
  9  2  1  0  0  0  0
 10  3  1  0  0  0  0
 11  3  1  0  0  0  0
 17 22  1  0  0  0  0
 17  1  1  0  0  0  0
 18 17  2  0  0  0  0
 19 20  2  0  0  0  0
 19 18  1  0  0  0  0
 20 21  1  0  0  0  0
 21 25  1  0  0  0  0
 21 22  2  0  0  0  0
 23 18  1  0  0  0  0
 24 19  1  0  0  0  0
 26 28  2  0  0  0  0
 26 27  1  0  0  0  0
M  END
>  <minimizedAffinity>
-4.44264555

>  <minimizedRMSD>
1.08535683

$$$$
