
 OpenBabel03272506573D

 22 23  0  0  0  0  0  0  0  0999 V2000
   36.9380   29.8740   48.9140 C   0  0  0  0  0  0  0  0  0  0  0  0
   37.4270   30.3070   50.1590 C   0  0  0  0  0  0  0  0  0  0  0  0
   38.3400   31.3950   50.1220 C   0  0  0  0  0  0  0  0  0  0  0  0
   38.6650   31.9250   48.9300 N   0  0  0  0  0  0  0  0  0  0  0  0
   38.1700   31.4780   47.7720 C   0  0  0  0  0  0  0  0  0  0  0  0
   37.2850   30.4300   47.7290 N   0  0  0  0  0  0  0  0  0  0  0  0
   36.2320   29.0420   48.8650 H   0  0  0  0  0  0  0  0  0  0  0  0
   38.7200   31.7320   51.0710 H   0  0  0  0  0  0  0  0  0  0  0  0
   38.5280   32.0570   46.4900 C   0  0  0  0  0  0  0  0  0  0  0  0
   39.7000   32.7330   46.2990 C   0  0  0  0  0  0  0  0  0  0  0  0
   40.1330   33.3180   45.1280 C   0  0  0  0  0  0  0  0  0  0  0  0
   39.2830   33.1980   44.0630 N   0  0  0  0  0  0  0  0  0  0  0  0
   38.1120   32.5350   44.2130 C   0  0  0  0  0  0  0  0  0  0  0  0
   37.7370   31.9770   45.3890 N   0  0  0  0  0  0  0  0  0  0  0  0
   40.3770   32.8340   47.1350 H   0  0  0  0  0  0  0  0  0  0  0  0
   41.0720   33.8340   45.0620 H   0  0  0  0  0  0  0  0  0  0  0  0
   37.2560   32.4440   43.0360 C   0  0  0  0  0  0  0  0  0  0  0  0
   37.6030   32.1060   42.0690 H   0  0  0  0  0  0  0  0  0  0  0  0
   36.0490   32.7790   43.1570 O   0  0  0  0  0  0  0  0  0  0  0  0
   37.0020   29.6580   51.3450 N   0  0  0  0  0  0  0  0  0  0  0  0
   37.7240   29.2700   52.0190 H   0  0  0  0  0  0  0  0  0  0  0  0
   35.9570   29.6030   51.4830 H   0  0  0  0  0  0  0  0  0  0  0  0
  1  2  1  0  0  0  0
  2 20  1  0  0  0  0
  3  2  2  0  0  0  0
  3  8  1  0  0  0  0
  4  3  1  0  0  0  0
  5  4  2  0  0  0  0
  6  5  1  0  0  0  0
  6  1  2  0  0  0  0
  7  1  1  0  0  0  0
  9  5  1  0  0  0  0
 10  9  1  0  0  0  0
 10 15  1  0  0  0  0
 11 10  2  0  0  0  0
 12 13  2  0  0  0  0
 12 11  1  0  0  0  0
 13 14  1  0  0  0  0
 14  9  2  0  0  0  0
 16 11  1  0  0  0  0
 17 19  2  0  0  0  0
 17 13  1  0  0  0  0
 18 17  1  0  0  0  0
 20 22  1  0  0  0  0
 20 21  1  0  0  0  0
M  END
>  <minimizedAffinity>
-4.79620886

>  <minimizedRMSD>
1.38261807

$$$$
