
 OpenBabel03262522493D

 19 20  0  0  0  0  0  0  0  0999 V2000
   37.1460   21.6560   34.9220 C   0  0  0  0  0  0  0  0  0  0  0  0
   36.0390   20.9100   34.8770 C   0  0  0  0  0  0  0  0  0  0  0  0
   35.5430   20.4640   33.6840 C   0  0  0  0  0  0  0  0  0  0  0  0
   36.2450   20.8270   32.5670 C   0  0  0  0  0  0  0  0  0  0  0  0
   37.6130   21.8080   33.2570 S   0  0  0  0  0  0  0  0  0  0  0  0
   35.5350   20.6630   35.8280 H   0  0  0  0  0  0  0  0  0  0  0  0
   34.6580   19.8590   33.5460 H   0  0  0  0  0  0  0  0  0  0  0  0
   39.8910   22.6290   37.1010 C   0  0  0  0  0  0  0  0  0  0  0  0
   39.2280   23.3160   38.1510 C   0  0  0  0  0  0  0  0  0  0  0  0
   37.8450   23.4320   38.0900 C   0  0  0  0  0  0  0  0  0  0  0  0
   37.1930   22.8800   37.0250 N   0  0  0  0  0  0  0  0  0  0  0  0
   37.8550   22.2400   36.0560 C   0  0  0  0  0  0  0  0  0  0  0  0
   39.1930   22.0990   36.0630 N   0  0  0  0  0  0  0  0  0  0  0  0
   40.9700   22.5660   37.1940 H   0  0  0  0  0  0  0  0  0  0  0  0
   39.7570   23.7420   38.9800 H   0  0  0  0  0  0  0  0  0  0  0  0
   37.3350   23.9530   38.8860 H   0  0  0  0  0  0  0  0  0  0  0  0
   36.0750   20.5780   31.1540 C   0  0  0  0  0  0  0  0  0  0  0  0
   35.0440   20.4090   30.8810 H   0  0  0  0  0  0  0  0  0  0  0  0
   37.0790   20.5790   30.4060 O   0  0  0  0  0  0  0  0  0  0  0  0
  1 12  1  0  0  0  0
  2  1  2  0  0  0  0
  2  6  1  0  0  0  0
  3  2  1  0  0  0  0
  4  5  1  0  0  0  0
  4  3  2  0  0  0  0
  5  1  1  0  0  0  0
  7  3  1  0  0  0  0
  8 14  1  0  0  0  0
  8  9  1  0  0  0  0
  9 15  1  0  0  0  0
 10  9  2  0  0  0  0
 10 16  1  0  0  0  0
 11 10  1  0  0  0  0
 12 13  1  0  0  0  0
 12 11  2  0  0  0  0
 13  8  2  0  0  0  0
 17  4  1  0  0  0  0
 18 17  1  0  0  0  0
 19 17  2  0  0  0  0
M  END
>  <minimizedAffinity>
-3.91942573

$$$$

 OpenBabel03262522493D

 19 20  0  0  0  0  0  0  0  0999 V2000
   37.9380   25.5550   35.0780 C   0  0  0  0  0  0  0  0  0  0  0  0
   37.4620   26.7910   35.2520 C   0  0  0  0  0  0  0  0  0  0  0  0
   36.9430   27.4950   34.2030 C   0  0  0  0  0  0  0  0  0  0  0  0
   36.9450   26.8600   32.9910 C   0  0  0  0  0  0  0  0  0  0  0  0
   37.6970   25.2520   33.3860 S   0  0  0  0  0  0  0  0  0  0  0  0
   37.5000   27.2280   36.2660 H   0  0  0  0  0  0  0  0  0  0  0  0
   36.5360   28.4970   34.2440 H   0  0  0  0  0  0  0  0  0  0  0  0
   38.4340   23.6390   38.1300 C   0  0  0  0  0  0  0  0  0  0  0  0
   39.6030   22.8870   37.8400 C   0  0  0  0  0  0  0  0  0  0  0  0
   40.2000   23.0540   36.5970 C   0  0  0  0  0  0  0  0  0  0  0  0
   39.6340   23.9310   35.7170 N   0  0  0  0  0  0  0  0  0  0  0  0
   38.5330   24.6210   36.0290 C   0  0  0  0  0  0  0  0  0  0  0  0
   37.9130   24.4990   37.2170 N   0  0  0  0  0  0  0  0  0  0  0  0
   38.0050   23.4730   39.1130 H   0  0  0  0  0  0  0  0  0  0  0  0
   40.0320   22.2040   38.5440 H   0  0  0  0  0  0  0  0  0  0  0  0
   41.0890   22.4850   36.3710 H   0  0  0  0  0  0  0  0  0  0  0  0
   36.5040   27.2310   31.6660 C   0  0  0  0  0  0  0  0  0  0  0  0
   37.0160   28.1010   31.2840 H   0  0  0  0  0  0  0  0  0  0  0  0
   35.6140   26.5520   31.1030 O   0  0  0  0  0  0  0  0  0  0  0  0
  1  2  2  0  0  0  0
  1 12  1  0  0  0  0
  2  6  1  0  0  0  0
  3  7  1  0  0  0  0
  3  2  1  0  0  0  0
  4  5  1  0  0  0  0
  4  3  2  0  0  0  0
  5  1  1  0  0  0  0
  8 14  1  0  0  0  0
  9  8  1  0  0  0  0
  9 15  1  0  0  0  0
 10  9  2  0  0  0  0
 11 12  2  0  0  0  0
 11 10  1  0  0  0  0
 12 13  1  0  0  0  0
 13  8  2  0  0  0  0
 16 10  1  0  0  0  0
 17  4  1  0  0  0  0
 18 17  1  0  0  0  0
 19 17  2  0  0  0  0
M  END
>  <minimizedAffinity>
-3.88165188

$$$$

 OpenBabel03262522493D

 19 20  0  0  0  0  0  0  0  0999 V2000
   37.8880   25.5630   35.0790 C   0  0  0  0  0  0  0  0  0  0  0  0
   37.3920   26.7950   35.2220 C   0  0  0  0  0  0  0  0  0  0  0  0
   36.9020   27.4820   34.1480 C   0  0  0  0  0  0  0  0  0  0  0  0
   36.9540   26.8340   32.9440 C   0  0  0  0  0  0  0  0  0  0  0  0
   37.7100   25.2390   33.3830 S   0  0  0  0  0  0  0  0  0  0  0  0
   37.3890   27.2430   36.2320 H   0  0  0  0  0  0  0  0  0  0  0  0
   36.4830   28.4790   34.1640 H   0  0  0  0  0  0  0  0  0  0  0  0
   40.1320   23.1180   36.5690 C   0  0  0  0  0  0  0  0  0  0  0  0
   39.5680   22.9210   37.8570 C   0  0  0  0  0  0  0  0  0  0  0  0
   38.4230   23.6340   38.1890 C   0  0  0  0  0  0  0  0  0  0  0  0
   37.8980   24.4880   37.2620 N   0  0  0  0  0  0  0  0  0  0  0  0
   38.4590   24.6460   36.0600 C   0  0  0  0  0  0  0  0  0  0  0  0
   39.5680   23.9820   35.6840 N   0  0  0  0  0  0  0  0  0  0  0  0
   41.0250   22.5390   36.3570 H   0  0  0  0  0  0  0  0  0  0  0  0
   39.9940   22.2450   38.5700 H   0  0  0  0  0  0  0  0  0  0  0  0
   37.9890   23.4880   39.1660 H   0  0  0  0  0  0  0  0  0  0  0  0
   36.5560   27.1860   31.6010 C   0  0  0  0  0  0  0  0  0  0  0  0
   37.1250   28.0110   31.1990 H   0  0  0  0  0  0  0  0  0  0  0  0
   35.6360   26.5430   31.0450 O   0  0  0  0  0  0  0  0  0  0  0  0
  1  2  2  0  0  0  0
  1 12  1  0  0  0  0
  2  6  1  0  0  0  0
  3  7  1  0  0  0  0
  3  2  1  0  0  0  0
  4  5  1  0  0  0  0
  4  3  2  0  0  0  0
  5  1  1  0  0  0  0
  8  9  1  0  0  0  0
  9 10  2  0  0  0  0
  9 15  1  0  0  0  0
 10 16  1  0  0  0  0
 11 10  1  0  0  0  0
 12 11  2  0  0  0  0
 13 12  1  0  0  0  0
 13  8  2  0  0  0  0
 14  8  1  0  0  0  0
 17  4  1  0  0  0  0
 18 17  1  0  0  0  0
 19 17  2  0  0  0  0
M  END
>  <minimizedAffinity>
-3.8578105

$$$$

 OpenBabel03262522493D

 19 20  0  0  0  0  0  0  0  0999 V2000
   38.3780   24.7480   35.8690 C   0  0  0  0  0  0  0  0  0  0  0  0
   38.0050   24.3850   37.0990 C   0  0  0  0  0  0  0  0  0  0  0  0
   38.7120   23.4480   37.7980 C   0  0  0  0  0  0  0  0  0  0  0  0
   39.8030   22.9200   37.1630 C   0  0  0  0  0  0  0  0  0  0  0  0
   39.7920   23.7880   35.5640 S   0  0  0  0  0  0  0  0  0  0  0  0
   37.1100   24.8630   37.5370 H   0  0  0  0  0  0  0  0  0  0  0  0
   38.4890   23.0900   38.7940 H   0  0  0  0  0  0  0  0  0  0  0  0
   36.9690   27.8550   34.6060 C   0  0  0  0  0  0  0  0  0  0  0  0
   36.6990   27.5460   33.2480 C   0  0  0  0  0  0  0  0  0  0  0  0
   37.0080   26.2710   32.7900 C   0  0  0  0  0  0  0  0  0  0  0  0
   37.5540   25.3800   33.6680 N   0  0  0  0  0  0  0  0  0  0  0  0
   37.7930   25.7100   34.9410 C   0  0  0  0  0  0  0  0  0  0  0  0
   37.5150   26.9290   35.4380 N   0  0  0  0  0  0  0  0  0  0  0  0
   36.7110   28.8630   34.9150 H   0  0  0  0  0  0  0  0  0  0  0  0
   36.2690   28.2590   32.5730 H   0  0  0  0  0  0  0  0  0  0  0  0
   36.8040   26.0300   31.7580 H   0  0  0  0  0  0  0  0  0  0  0  0
   40.7940   21.9350   37.5300 C   0  0  0  0  0  0  0  0  0  0  0  0
   40.7670   21.6850   38.5800 H   0  0  0  0  0  0  0  0  0  0  0  0
   41.5600   21.4780   36.6490 O   0  0  0  0  0  0  0  0  0  0  0  0
  1  2  2  0  0  0  0
  2  6  1  0  0  0  0
  2  3  1  0  0  0  0
  3  7  1  0  0  0  0
  4 17  1  0  0  0  0
  4  3  2  0  0  0  0
  5  1  1  0  0  0  0
  5  4  1  0  0  0  0
  8 14  1  0  0  0  0
  8 13  1  0  0  0  0
  9  8  2  0  0  0  0
 10  9  1  0  0  0  0
 10 11  2  0  0  0  0
 11 12  1  0  0  0  0
 12 13  2  0  0  0  0
 12  1  1  0  0  0  0
 15  9  1  0  0  0  0
 16 10  1  0  0  0  0
 17 18  1  0  0  0  0
 19 17  2  0  0  0  0
M  END
>  <minimizedAffinity>
-3.8267386

$$$$

 OpenBabel03262522493D

 19 20  0  0  0  0  0  0  0  0999 V2000
   37.9310   25.2710   34.8230 C   0  0  0  0  0  0  0  0  0  0  0  0
   37.8300   24.9630   33.5280 C   0  0  0  0  0  0  0  0  0  0  0  0
   37.3270   25.8640   32.6310 C   0  0  0  0  0  0  0  0  0  0  0  0
   36.9450   27.0740   33.1440 C   0  0  0  0  0  0  0  0  0  0  0  0
   37.3180   26.8920   34.9150 S   0  0  0  0  0  0  0  0  0  0  0  0
   38.1620   23.9620   33.2000 H   0  0  0  0  0  0  0  0  0  0  0  0
   37.2060   25.7080   31.5680 H   0  0  0  0  0  0  0  0  0  0  0  0
   38.1680   23.8890   38.1810 C   0  0  0  0  0  0  0  0  0  0  0  0
   39.3070   23.0470   38.0920 C   0  0  0  0  0  0  0  0  0  0  0  0
   39.9740   22.9700   36.8750 C   0  0  0  0  0  0  0  0  0  0  0  0
   39.5020   23.7070   35.8280 N   0  0  0  0  0  0  0  0  0  0  0  0
   38.4250   24.4890   35.9520 C   0  0  0  0  0  0  0  0  0  0  0  0
   37.7400   24.6010   37.1050 N   0  0  0  0  0  0  0  0  0  0  0  0
   37.6810   23.9150   39.1500 H   0  0  0  0  0  0  0  0  0  0  0  0
   39.6620   22.4770   38.9260 H   0  0  0  0  0  0  0  0  0  0  0  0
   40.8410   22.3320   36.8020 H   0  0  0  0  0  0  0  0  0  0  0  0
   36.3820   28.2720   32.5650 C   0  0  0  0  0  0  0  0  0  0  0  0
   37.1190   29.0440   32.4020 H   0  0  0  0  0  0  0  0  0  0  0  0
   35.1550   28.3130   32.3150 O   0  0  0  0  0  0  0  0  0  0  0  0
  1  5  1  0  0  0  0
  1 12  1  0  0  0  0
  2  1  2  0  0  0  0
  3  4  2  0  0  0  0
  3  2  1  0  0  0  0
  4  5  1  0  0  0  0
  6  2  1  0  0  0  0
  7  3  1  0  0  0  0
  8 14  1  0  0  0  0
  9  8  1  0  0  0  0
  9 15  1  0  0  0  0
 10  9  2  0  0  0  0
 11 12  2  0  0  0  0
 11 10  1  0  0  0  0
 12 13  1  0  0  0  0
 13  8  2  0  0  0  0
 16 10  1  0  0  0  0
 17  4  1  0  0  0  0
 18 17  1  0  0  0  0
 19 17  2  0  0  0  0
M  END
>  <minimizedAffinity>
-3.69189072

$$$$

 OpenBabel03262522493D

 19 20  0  0  0  0  0  0  0  0999 V2000
   38.2730   24.9910   35.5940 C   0  0  0  0  0  0  0  0  0  0  0  0
   37.7560   24.5240   36.7330 C   0  0  0  0  0  0  0  0  0  0  0  0
   38.4070   23.5640   37.4560 C   0  0  0  0  0  0  0  0  0  0  0  0
   39.5970   23.1280   36.9420 C   0  0  0  0  0  0  0  0  0  0  0  0
   39.7590   24.1110   35.4210 S   0  0  0  0  0  0  0  0  0  0  0  0
   36.7880   24.9330   37.0750 H   0  0  0  0  0  0  0  0  0  0  0  0
   38.0690   23.1250   38.3850 H   0  0  0  0  0  0  0  0  0  0  0  0
   37.6710   26.7560   32.4700 C   0  0  0  0  0  0  0  0  0  0  0  0
   36.8610   27.8480   32.8800 C   0  0  0  0  0  0  0  0  0  0  0  0
   36.5370   27.9570   34.2260 C   0  0  0  0  0  0  0  0  0  0  0  0
   37.0130   27.0100   35.0880 N   0  0  0  0  0  0  0  0  0  0  0  0
   37.7730   25.9970   34.6620 C   0  0  0  0  0  0  0  0  0  0  0  0
   38.1170   25.8410   33.3710 N   0  0  0  0  0  0  0  0  0  0  0  0
   37.8960   26.7140   31.4100 H   0  0  0  0  0  0  0  0  0  0  0  0
   36.4990   28.5810   32.1890 H   0  0  0  0  0  0  0  0  0  0  0  0
   35.9230   28.7850   34.5440 H   0  0  0  0  0  0  0  0  0  0  0  0
   40.5760   22.1560   37.3730 C   0  0  0  0  0  0  0  0  0  0  0  0
   40.1640   21.4170   38.0440 H   0  0  0  0  0  0  0  0  0  0  0  0
   41.7540   22.2470   36.9570 O   0  0  0  0  0  0  0  0  0  0  0  0
  1  2  2  0  0  0  0
  2  6  1  0  0  0  0
  2  3  1  0  0  0  0
  3  7  1  0  0  0  0
  4 17  1  0  0  0  0
  4  3  2  0  0  0  0
  5  1  1  0  0  0  0
  5  4  1  0  0  0  0
  8  9  2  0  0  0  0
  8 13  1  0  0  0  0
  9 10  1  0  0  0  0
 10 16  1  0  0  0  0
 10 11  2  0  0  0  0
 12 11  1  0  0  0  0
 12  1  1  0  0  0  0
 13 12  2  0  0  0  0
 14  8  1  0  0  0  0
 15  9  1  0  0  0  0
 17 18  1  0  0  0  0
 19 17  2  0  0  0  0
M  END
>  <minimizedAffinity>
-3.63410902

$$$$

 OpenBabel03262522493D

 19 20  0  0  0  0  0  0  0  0999 V2000
   37.6920   25.4930   34.3430 C   0  0  0  0  0  0  0  0  0  0  0  0
   37.6450   25.8120   35.6380 C   0  0  0  0  0  0  0  0  0  0  0  0
   38.1900   24.9880   36.5820 C   0  0  0  0  0  0  0  0  0  0  0  0
   38.7730   23.8410   36.1160 C   0  0  0  0  0  0  0  0  0  0  0  0
   38.5260   23.9710   34.3190 S   0  0  0  0  0  0  0  0  0  0  0  0
   37.1540   26.7590   35.9270 H   0  0  0  0  0  0  0  0  0  0  0  0
   38.2010   25.1590   37.6500 H   0  0  0  0  0  0  0  0  0  0  0  0
   37.0090   28.2110   32.0220 C   0  0  0  0  0  0  0  0  0  0  0  0
   36.2700   27.5660   30.9950 C   0  0  0  0  0  0  0  0  0  0  0  0
   36.0200   26.2050   31.1210 C   0  0  0  0  0  0  0  0  0  0  0  0
   36.4960   25.5570   32.2240 N   0  0  0  0  0  0  0  0  0  0  0  0
   37.1880   26.2000   33.1690 C   0  0  0  0  0  0  0  0  0  0  0  0
   37.4600   27.5160   33.0990 N   0  0  0  0  0  0  0  0  0  0  0  0
   37.1790   29.2730   31.8780 H   0  0  0  0  0  0  0  0  0  0  0  0
   35.9040   28.0930   30.1380 H   0  0  0  0  0  0  0  0  0  0  0  0
   35.4580   25.7100   30.3440 H   0  0  0  0  0  0  0  0  0  0  0  0
   39.4440   22.7310   36.7520 C   0  0  0  0  0  0  0  0  0  0  0  0
   39.4860   21.8530   36.1250 H   0  0  0  0  0  0  0  0  0  0  0  0
   39.8970   22.8710   37.9120 O   0  0  0  0  0  0  0  0  0  0  0  0
  1  2  2  0  0  0  0
  2  6  1  0  0  0  0
  2  3  1  0  0  0  0
  3  7  1  0  0  0  0
  4  3  2  0  0  0  0
  4 17  1  0  0  0  0
  5  1  1  0  0  0  0
  5  4  1  0  0  0  0
  8 13  1  0  0  0  0
  9 10  1  0  0  0  0
  9  8  2  0  0  0  0
 10 11  2  0  0  0  0
 11 12  1  0  0  0  0
 12  1  1  0  0  0  0
 13 12  2  0  0  0  0
 14  8  1  0  0  0  0
 15  9  1  0  0  0  0
 16 10  1  0  0  0  0
 17 19  2  0  0  0  0
 18 17  1  0  0  0  0
M  END
>  <minimizedAffinity>
-3.61242151

$$$$

 OpenBabel03262522493D

 19 20  0  0  0  0  0  0  0  0999 V2000
   36.0240   23.7440   31.6060 C   0  0  0  0  0  0  0  0  0  0  0  0
   35.2530   24.6810   31.0490 C   0  0  0  0  0  0  0  0  0  0  0  0
   35.5410   26.0080   31.2020 C   0  0  0  0  0  0  0  0  0  0  0  0
   36.6500   26.3000   31.9490 C   0  0  0  0  0  0  0  0  0  0  0  0
   37.2600   24.6530   32.4180 S   0  0  0  0  0  0  0  0  0  0  0  0
   34.3750   24.3550   30.4610 H   0  0  0  0  0  0  0  0  0  0  0  0
   34.9790   26.8350   30.7920 H   0  0  0  0  0  0  0  0  0  0  0  0
   36.7930   20.2750   30.8250 C   0  0  0  0  0  0  0  0  0  0  0  0
   35.7740   19.5670   31.5140 C   0  0  0  0  0  0  0  0  0  0  0  0
   34.8380   20.2980   32.2350 C   0  0  0  0  0  0  0  0  0  0  0  0
   34.9450   21.6590   32.2460 N   0  0  0  0  0  0  0  0  0  0  0  0
   35.9200   22.2880   31.5850 C   0  0  0  0  0  0  0  0  0  0  0  0
   36.8530   21.6320   30.8710 N   0  0  0  0  0  0  0  0  0  0  0  0
   37.5000   19.6600   30.2770 H   0  0  0  0  0  0  0  0  0  0  0  0
   35.7060   18.4980   31.4920 H   0  0  0  0  0  0  0  0  0  0  0  0
   34.0600   19.7650   32.7590 H   0  0  0  0  0  0  0  0  0  0  0  0
   37.2910   27.5320   32.3460 C   0  0  0  0  0  0  0  0  0  0  0  0
   38.1210   27.3740   33.0170 H   0  0  0  0  0  0  0  0  0  0  0  0
   36.8550   28.6210   31.9030 O   0  0  0  0  0  0  0  0  0  0  0  0
  1  5  1  0  0  0  0
  2  3  1  0  0  0  0
  2  1  2  0  0  0  0
  3  4  2  0  0  0  0
  4 17  1  0  0  0  0
  4  5  1  0  0  0  0
  6  2  1  0  0  0  0
  7  3  1  0  0  0  0
  8 13  2  0  0  0  0
  8  9  1  0  0  0  0
  9 10  2  0  0  0  0
 10 11  1  0  0  0  0
 10 16  1  0  0  0  0
 12  1  1  0  0  0  0
 12 11  2  0  0  0  0
 13 12  1  0  0  0  0
 14  8  1  0  0  0  0
 15  9  1  0  0  0  0
 17 18  1  0  0  0  0
 19 17  2  0  0  0  0
M  END
>  <minimizedAffinity>
-3.60937452

$$$$

 OpenBabel03262522493D

 19 20  0  0  0  0  0  0  0  0999 V2000
   35.3180   30.2640   34.9080 C   0  0  0  0  0  0  0  0  0  0  0  0
   36.0430   31.1220   35.6280 C   0  0  0  0  0  0  0  0  0  0  0  0
   35.4400   32.0590   36.4180 C   0  0  0  0  0  0  0  0  0  0  0  0
   34.0710   32.0540   36.4190 C   0  0  0  0  0  0  0  0  0  0  0  0
   33.6770   30.6940   35.2770 S   0  0  0  0  0  0  0  0  0  0  0  0
   37.1450   31.0560   35.5680 H   0  0  0  0  0  0  0  0  0  0  0  0
   35.9400   32.7940   37.0340 H   0  0  0  0  0  0  0  0  0  0  0  0
   36.9740   27.2580   33.7010 C   0  0  0  0  0  0  0  0  0  0  0  0
   36.5240   27.1710   32.3580 C   0  0  0  0  0  0  0  0  0  0  0  0
   35.6560   28.1510   31.8910 C   0  0  0  0  0  0  0  0  0  0  0  0
   35.2810   29.1470   32.7460 N   0  0  0  0  0  0  0  0  0  0  0  0
   35.7280   29.1930   34.0040 C   0  0  0  0  0  0  0  0  0  0  0  0
   36.5680   28.2720   34.5100 N   0  0  0  0  0  0  0  0  0  0  0  0
   37.6490   26.4700   34.0180 H   0  0  0  0  0  0  0  0  0  0  0  0
   36.8300   26.3820   31.7020 H   0  0  0  0  0  0  0  0  0  0  0  0
   35.3110   28.0900   30.8700 H   0  0  0  0  0  0  0  0  0  0  0  0
   33.0690   32.8490   37.0910 C   0  0  0  0  0  0  0  0  0  0  0  0
   32.0630   32.5140   36.8860 H   0  0  0  0  0  0  0  0  0  0  0  0
   33.4290   33.8060   37.8140 O   0  0  0  0  0  0  0  0  0  0  0  0
  1  5  1  0  0  0  0
  1  2  2  0  0  0  0
  2  3  1  0  0  0  0
  3  4  2  0  0  0  0
  3  7  1  0  0  0  0
  4 17  1  0  0  0  0
  5  4  1  0  0  0  0
  6  2  1  0  0  0  0
  8 14  1  0  0  0  0
  8 13  1  0  0  0  0
  9  8  2  0  0  0  0
 10  9  1  0  0  0  0
 10 11  2  0  0  0  0
 11 12  1  0  0  0  0
 12 13  2  0  0  0  0
 12  1  1  0  0  0  0
 15  9  1  0  0  0  0
 16 10  1  0  0  0  0
 17 19  2  0  0  0  0
 18 17  1  0  0  0  0
M  END
>  <minimizedAffinity>
-3.56099081

$$$$
