
 OpenBabel03272505583D

 38 40  0  0  1  0  0  0  0  0999 V2000
   35.3470   30.3700   49.9980 C   0  0  2  0  0  0  0  0  0  0  0  0
   36.2610   31.3640   49.3900 C   0  0  0  0  0  0  0  0  0  0  0  0
   37.7290   30.9160   49.4370 C   0  0  2  0  0  0  0  0  0  0  0  0
   38.2130   30.6000   50.7830 C   0  0  0  0  0  0  0  0  0  0  0  0
   37.1860   29.8760   51.6440 C   0  0  0  0  0  0  0  0  0  0  0  0
   36.0680   29.3110   50.8080 C   0  0  0  0  0  0  0  0  0  0  0  0
   34.6240   30.8280   50.7370 H   0  0  0  0  0  0  0  0  0  0  0  0
   36.1340   31.7390   48.4100 H   0  0  0  0  0  0  0  0  0  0  0  0
   36.2610   32.2650   50.0930 H   0  0  0  0  0  0  0  0  0  0  0  0
   37.8380   30.0840   48.7350 H   0  0  0  0  0  0  0  0  0  0  0  0
   39.1560   30.0220   50.7040 H   0  0  0  0  0  0  0  0  0  0  0  0
   38.4730   31.5150   51.3470 H   0  0  0  0  0  0  0  0  0  0  0  0
   37.7090   29.0090   52.0970 H   0  0  0  0  0  0  0  0  0  0  0  0
   36.7770   30.4950   52.4500 H   0  0  0  0  0  0  0  0  0  0  0  0
   36.4330   28.5510   50.0920 H   0  0  0  0  0  0  0  0  0  0  0  0
   35.3540   28.8260   51.4750 H   0  0  0  0  0  0  0  0  0  0  0  0
   38.5880   30.6200   46.6310 Cl  0  0  0  0  0  0  0  0  0  0  0  0
   38.9660   32.0410   47.5910 C   0  0  0  0  0  0  0  0  0  0  0  0
   38.4740   32.0880   48.8880 C   0  0  0  0  0  0  0  0  0  0  0  0
   38.7960   33.2490   49.5420 C   0  0  0  0  0  0  0  0  0  0  0  0
   39.5330   34.2650   48.9710 C   0  0  0  0  0  0  0  0  0  0  0  0
   39.9910   34.1390   47.6670 C   0  0  0  0  0  0  0  0  0  0  0  0
   39.6970   32.9890   46.9540 C   0  0  0  0  0  0  0  0  0  0  0  0
   38.4420   33.3620   50.5580 H   0  0  0  0  0  0  0  0  0  0  0  0
   39.7280   35.1410   49.5860 H   0  0  0  0  0  0  0  0  0  0  0  0
   40.5690   34.9370   47.2230 H   0  0  0  0  0  0  0  0  0  0  0  0
   40.1730   32.8470   45.5840 C   0  0  0  0  0  0  0  0  0  0  0  0
   40.6510   31.9260   45.2820 H   0  0  0  0  0  0  0  0  0  0  0  0
   40.0280   33.7890   44.7660 O   0  0  0  0  0  0  0  0  0  0  0  0
   34.5080   29.6720   49.0130 C   0  0  0  0  0  0  0  0  0  0  0  0
   34.5210   30.2190   47.7290 C   0  0  0  0  0  0  0  0  0  0  0  0
   33.7540   29.5880   46.7440 C   0  0  0  0  0  0  0  0  0  0  0  0
   33.0220   28.4570   47.0870 N   0  0  0  0  0  0  0  0  0  0  0  0
   33.0390   27.9640   48.3440 C   0  0  0  0  0  0  0  0  0  0  0  0
   33.7790   28.5860   49.2670 N   0  0  0  0  0  0  0  0  0  0  0  0
   34.9580   31.0430   47.1940 H   0  0  0  0  0  0  0  0  0  0  0  0
   33.5880   29.7860   45.7150 H   0  0  0  0  0  0  0  0  0  0  0  0
   32.4770   27.0900   48.6240 H   0  0  0  0  0  0  0  0  0  0  0  0
  1  7  1  1  0  0  0
  1  6  1  0  0  0  0
  2  3  1  0  0  0  0
  2  1  1  0  0  0  0
  2  9  1  0  0  0  0
  3 10  1  6  0  0  0
  3  4  1  0  0  0  0
  4 12  1  0  0  0  0
  4  5  1  0  0  0  0
  5 13  1  0  0  0  0
  5 14  1  0  0  0  0
  6 16  1  0  0  0  0
  6  5  1  0  0  0  0
  8  2  1  0  0  0  0
 11  4  1  0  0  0  0
 15  6  1  0  0  0  0
 17 18  1  0  0  0  0
 18 19  1  0  0  0  0
 19  3  1  0  0  0  0
 19 20  2  0  0  0  0
 20 24  1  0  0  0  0
 21 20  1  0  0  0  0
 21 25  1  0  0  0  0
 22 21  2  0  0  0  0
 23 18  2  0  0  0  0
 23 22  1  0  0  0  0
 26 22  1  0  0  0  0
 27 23  1  0  0  0  0
 28 27  1  0  0  0  0
 29 27  2  0  0  0  0
 30 35  1  0  0  0  0
 30  1  1  0  0  0  0
 31 30  2  0  0  0  0
 32 33  2  0  0  0  0
 32 31  1  0  0  0  0
 33 34  1  0  0  0  0
 34 38  1  0  0  0  0
 34 35  2  0  0  0  0
 36 31  1  0  0  0  0
 37 32  1  0  0  0  0
M  END
>  <minimizedAffinity>
-7.61648178

>  <minimizedRMSD>
0.354121089

$$$$
