
 OpenBabel03262522593D

 32 35  0  0  0  0  0  0  0  0999 V2000
   34.8100   29.0520   48.8430 C   0  0  0  0  0  0  0  0  0  0  0  0
   34.7320   28.4920   47.5680 C   0  0  0  0  0  0  0  0  0  0  0  0
   33.4670   27.9750   47.3970 C   0  0  0  0  0  0  0  0  0  0  0  0
   32.7950   28.2220   48.5580 N   0  0  0  0  0  0  0  0  0  0  0  0
   33.6290   28.8590   49.3800 N   0  0  0  0  0  0  0  0  0  0  0  0
   30.5820   27.5150   47.7680 N   0  0  0  0  0  0  0  0  0  0  0  0
   31.4410   27.8410   48.7820 C   0  0  0  0  0  0  0  0  0  0  0  0
   30.7390   27.7210   49.9070 N   0  0  0  0  0  0  0  0  0  0  0  0
   29.4740   27.3340   49.6570 C   0  0  0  0  0  0  0  0  0  0  0  0
   28.3420   27.0610   50.3670 C   0  0  0  0  0  0  0  0  0  0  0  0
   27.2260   26.6910   49.7280 N   0  0  0  0  0  0  0  0  0  0  0  0
   27.1770   26.5760   48.3830 C   0  0  0  0  0  0  0  0  0  0  0  0
   28.2610   26.8330   47.6430 N   0  0  0  0  0  0  0  0  0  0  0  0
   29.3850   27.2060   48.2810 C   0  0  0  0  0  0  0  0  0  0  0  0
   35.5360   28.4710   46.8380 H   0  0  0  0  0  0  0  0  0  0  0  0
   33.1110   27.4710   46.4910 H   0  0  0  0  0  0  0  0  0  0  0  0
   30.8170   27.5060   46.7300 H   0  0  0  0  0  0  0  0  0  0  0  0
   26.2260   26.2700   47.9790 H   0  0  0  0  0  0  0  0  0  0  0  0
   37.3890   30.0820   51.2260 C   0  0  0  0  0  0  0  0  0  0  0  0
   38.2090   30.9290   50.4180 C   0  0  0  0  0  0  0  0  0  0  0  0
   37.8570   31.1200   49.0950 C   0  0  0  0  0  0  0  0  0  0  0  0
   36.7550   30.5040   48.6100 N   0  0  0  0  0  0  0  0  0  0  0  0
   35.9810   29.6960   49.3940 C   0  0  0  0  0  0  0  0  0  0  0  0
   36.3120   29.5020   50.6760 N   0  0  0  0  0  0  0  0  0  0  0  0
   37.7040   29.9640   52.2490 H   0  0  0  0  0  0  0  0  0  0  0  0
   39.1020   31.4390   50.7820 H   0  0  0  0  0  0  0  0  0  0  0  0
   38.6620   31.9710   48.2460 C   0  0  0  0  0  0  0  0  0  0  0  0
   38.9920   31.6280   47.2740 H   0  0  0  0  0  0  0  0  0  0  0  0
   38.9930   33.1230   48.6280 O   0  0  0  0  0  0  0  0  0  0  0  0
   28.4070   27.1840   51.7800 N   0  0  0  0  0  0  0  0  0  0  0  0
   29.0000   26.6720   52.4920 H   0  0  0  0  0  0  0  0  0  0  0  0
   27.7510   27.9080   52.1620 H   0  0  0  0  0  0  0  0  0  0  0  0
  1  5  2  0  0  0  0
  1 23  1  0  0  0  0
  2  1  1  0  0  0  0
  3  2  2  0  0  0  0
  3  4  1  0  0  0  0
  4  7  1  0  0  0  0
  4  5  1  0  0  0  0
  6 14  1  0  0  0  0
  6  7  1  0  0  0  0
  7  8  2  0  0  0  0
  9  8  1  0  0  0  0
  9 10  1  0  0  0  0
 10 30  1  0  0  0  0
 11 10  2  0  0  0  0
 12 11  1  0  0  0  0
 13 14  1  0  0  0  0
 13 12  2  0  0  0  0
 14  9  2  0  0  0  0
 15  2  1  0  0  0  0
 16  3  1  0  0  0  0
 17  6  1  0  0  0  0
 18 12  1  0  0  0  0
 19 25  1  0  0  0  0
 20 26  1  0  0  0  0
 20 19  2  0  0  0  0
 21 20  1  0  0  0  0
 22 21  2  0  0  0  0
 22 23  1  0  0  0  0
 23 24  2  0  0  0  0
 24 19  1  0  0  0  0
 27 29  2  0  0  0  0
 27 21  1  0  0  0  0
 28 27  1  0  0  0  0
 30 32  1  0  0  0  0
 30 31  1  0  0  0  0
M  END
>  <minimizedAffinity>
-6.75482464

>  <minimizedRMSD>
0.594942391

$$$$
