
 OpenBabel03272510323D

 22 23  0  0  0  0  0  0  0  0999 V2000
   36.0780   30.2570   48.6700 C   0  0  0  0  0  0  0  0  0  0  0  0
   35.0730   30.2690   47.7490 C   0  0  0  0  0  0  0  0  0  0  0  0
   34.0500   29.3390   47.7900 C   0  0  0  0  0  0  0  0  0  0  0  0
   34.0640   28.3910   48.7830 C   0  0  0  0  0  0  0  0  0  0  0  0
   35.0790   28.3490   49.7430 C   0  0  0  0  0  0  0  0  0  0  0  0
   36.0860   29.2970   49.6690 C   0  0  0  0  0  0  0  0  0  0  0  0
   35.0540   31.0190   46.9560 H   0  0  0  0  0  0  0  0  0  0  0  0
   33.2410   29.3130   47.0860 H   0  0  0  0  0  0  0  0  0  0  0  0
   33.3220   27.6110   48.9210 H   0  0  0  0  0  0  0  0  0  0  0  0
   35.1270   27.6140   50.5470 H   0  0  0  0  0  0  0  0  0  0  0  0
   38.0410   33.2350   49.3990 C   0  0  0  0  0  0  0  0  0  0  0  0
   39.0550   33.2270   48.4200 C   0  0  0  0  0  0  0  0  0  0  0  0
   39.0410   32.1620   47.4990 C   0  0  0  0  0  0  0  0  0  0  0  0
   38.0740   31.2170   47.5980 N   0  0  0  0  0  0  0  0  0  0  0  0
   37.1160   31.2650   48.5590 C   0  0  0  0  0  0  0  0  0  0  0  0
   37.1230   32.2760   49.4410 N   0  0  0  0  0  0  0  0  0  0  0  0
   37.9660   34.0110   50.1530 H   0  0  0  0  0  0  0  0  0  0  0  0
   39.7830   34.0220   48.4190 H   0  0  0  0  0  0  0  0  0  0  0  0
   39.8120   32.1420   46.7410 H   0  0  0  0  0  0  0  0  0  0  0  0
   37.1510   29.2640   50.6640 C   0  0  0  0  0  0  0  0  0  0  0  0
   38.0920   28.7680   50.4890 H   0  0  0  0  0  0  0  0  0  0  0  0
   37.0540   29.8090   51.7950 O   0  0  0  0  0  0  0  0  0  0  0  0
  1  6  1  0  0  0  0
  2  3  1  0  0  0  0
  2  1  2  0  0  0  0
  3  4  2  0  0  0  0
  4  9  1  0  0  0  0
  4  5  1  0  0  0  0
  5 10  1  0  0  0  0
  6  5  2  0  0  0  0
  6 20  1  0  0  0  0
  7  2  1  0  0  0  0
  8  3  1  0  0  0  0
 11 16  1  0  0  0  0
 11 17  1  0  0  0  0
 12 11  2  0  0  0  0
 13 14  2  0  0  0  0
 13 12  1  0  0  0  0
 14 15  1  0  0  0  0
 15  1  1  0  0  0  0
 15 16  2  0  0  0  0
 18 12  1  0  0  0  0
 19 13  1  0  0  0  0
 20 22  2  0  0  0  0
 21 20  1  0  0  0  0
M  END
>  <minimizedAffinity>
-5.47323942

>  <minimizedRMSD>
0.366593599

$$$$
