
 OpenBabel03272509213D

 40 43  0  0  0  0  0  0  0  0999 V2000
   38.1510   31.3790   47.9140 C   0  0  0  0  0  0  0  0  0  0  0  0
   37.2270   31.5460   48.9210 C   0  0  0  0  0  0  0  0  0  0  0  0
   37.3470   32.7500   49.6280 C   0  0  0  0  0  0  0  0  0  0  0  0
   38.3390   33.6920   49.3120 C   0  0  0  0  0  0  0  0  0  0  0  0
   39.2430   33.4250   48.2580 C   0  0  0  0  0  0  0  0  0  0  0  0
   39.1260   32.2330   47.5560 C   0  0  0  0  0  0  0  0  0  0  0  0
   36.6770   32.9930   50.4410 H   0  0  0  0  0  0  0  0  0  0  0  0
   38.4060   34.6140   49.8770 H   0  0  0  0  0  0  0  0  0  0  0  0
   39.9930   34.1670   48.0390 H   0  0  0  0  0  0  0  0  0  0  0  0
   35.1440   30.3980   48.3830 C   0  0  0  0  0  0  0  0  0  0  0  0
   36.2160   30.5930   49.2480 C   0  0  0  0  0  0  0  0  0  0  0  0
   36.2580   29.8270   50.4290 C   0  0  0  0  0  0  0  0  0  0  0  0
   35.2570   28.9510   50.6530 N   0  0  0  0  0  0  0  0  0  0  0  0
   34.2180   28.7870   49.7750 C   0  0  0  0  0  0  0  0  0  0  0  0
   34.1710   29.5090   48.6550 N   0  0  0  0  0  0  0  0  0  0  0  0
   35.1130   30.9860   47.4760 H   0  0  0  0  0  0  0  0  0  0  0  0
   33.4890   28.0540   50.0800 H   0  0  0  0  0  0  0  0  0  0  0  0
   37.3820   29.9980   51.3840 C   0  0  0  0  0  0  0  0  0  0  0  0
   37.0860   30.8050   52.0890 H   0  0  0  0  0  0  0  0  0  0  0  0
   38.2410   30.3780   50.7840 H   0  0  0  0  0  0  0  0  0  0  0  0
   37.6350   29.0550   51.9120 H   0  0  0  0  0  0  0  0  0  0  0  0
   38.1080   30.2050   47.1550 O   0  0  0  0  0  0  0  0  0  0  0  0
   37.5790   30.1080   46.3020 H   0  0  0  0  0  0  0  0  0  0  0  0
   40.0430   32.0430   46.5410 O   0  0  0  0  0  0  0  0  0  0  0  0
   40.4280   31.1110   44.2610 C   0  0  0  0  0  0  0  0  0  0  0  0
   39.7680   31.8710   45.2110 C   0  0  0  0  0  0  0  0  0  0  0  0
   38.6390   32.6040   44.8290 C   0  0  0  0  0  0  0  0  0  0  0  0
   38.1830   32.5650   43.4960 C   0  0  0  0  0  0  0  0  0  0  0  0
   37.1730   33.1270   42.8280 N   0  0  0  0  0  0  0  0  0  0  0  0
   37.1840   32.7560   41.5450 C   0  0  0  0  0  0  0  0  0  0  0  0
   38.2540   31.9200   41.4040 N   0  0  0  0  0  0  0  0  0  0  0  0
   38.8810   31.7890   42.5880 C   0  0  0  0  0  0  0  0  0  0  0  0
   39.9880   31.0720   42.9630 C   0  0  0  0  0  0  0  0  0  0  0  0
   41.2860   30.5860   44.6570 H   0  0  0  0  0  0  0  0  0  0  0  0
   38.0320   33.2370   45.4760 H   0  0  0  0  0  0  0  0  0  0  0  0
   36.4790   33.7710   43.2790 H   0  0  0  0  0  0  0  0  0  0  0  0
   36.5100   33.0290   40.7400 H   0  0  0  0  0  0  0  0  0  0  0  0
   40.7030   30.2710   42.0100 C   0  0  0  0  0  0  0  0  0  0  0  0
   40.5440   30.3460   40.9460 H   0  0  0  0  0  0  0  0  0  0  0  0
   41.5730   29.4110   42.2910 O   0  0  0  0  0  0  0  0  0  0  0  0
  1  2  1  0  0  0  0
  2 11  1  0  0  0  0
  2  3  2  0  0  0  0
  3  7  1  0  0  0  0
  4  3  1  0  0  0  0
  4  8  1  0  0  0  0
  5  4  2  0  0  0  0
  6  1  2  0  0  0  0
  6  5  1  0  0  0  0
  9  5  1  0  0  0  0
 10 15  2  0  0  0  0
 10 11  1  0  0  0  0
 11 12  2  0  0  0  0
 12 13  1  0  0  0  0
 12 18  1  0  0  0  0
 14 17  1  0  0  0  0
 14 13  2  0  0  0  0
 15 14  1  0  0  0  0
 16 10  1  0  0  0  0
 18 21  1  0  0  0  0
 18 19  1  0  0  0  0
 20 18  1  0  0  0  0
 22  1  1  0  0  0  0
 23 22  1  0  0  0  0
 24  6  1  0  0  0  0
 25 34  1  0  0  0  0
 25 26  1  0  0  0  0
 26 24  1  0  0  0  0
 27 26  2  0  0  0  0
 27 35  1  0  0  0  0
 28 27  1  0  0  0  0
 29 36  1  0  0  0  0
 29 28  1  0  0  0  0
 30 29  1  0  0  0  0
 31 30  2  0  0  0  0
 31 32  1  0  0  0  0
 32 33  1  0  0  0  0
 32 28  2  0  0  0  0
 33 25  2  0  0  0  0
 37 30  1  0  0  0  0
 38 40  2  0  0  0  0
 38 33  1  0  0  0  0
 39 38  1  0  0  0  0
M  END
>  <minimizedAffinity>
-7.19487238

>  <minimizedRMSD>
0.513877749

$$$$
