
 OpenBabel03272510333D

 22 23  0  0  0  0  0  0  0  0999 V2000
   36.0770   30.2550   48.6680 C   0  0  0  0  0  0  0  0  0  0  0  0
   35.0720   30.2670   47.7470 C   0  0  0  0  0  0  0  0  0  0  0  0
   34.0500   29.3370   47.7870 C   0  0  0  0  0  0  0  0  0  0  0  0
   34.0620   28.3900   48.7800 C   0  0  0  0  0  0  0  0  0  0  0  0
   35.0760   28.3480   49.7410 C   0  0  0  0  0  0  0  0  0  0  0  0
   36.0840   29.2960   49.6680 C   0  0  0  0  0  0  0  0  0  0  0  0
   35.0550   31.0160   46.9530 H   0  0  0  0  0  0  0  0  0  0  0  0
   33.2400   29.3110   47.0820 H   0  0  0  0  0  0  0  0  0  0  0  0
   33.3200   27.6100   48.9180 H   0  0  0  0  0  0  0  0  0  0  0  0
   35.1230   27.6130   50.5450 H   0  0  0  0  0  0  0  0  0  0  0  0
   38.0400   33.2320   49.3980 C   0  0  0  0  0  0  0  0  0  0  0  0
   39.0540   33.2240   48.4200 C   0  0  0  0  0  0  0  0  0  0  0  0
   39.0400   32.1590   47.4980 C   0  0  0  0  0  0  0  0  0  0  0  0
   38.0730   31.2150   47.5970 N   0  0  0  0  0  0  0  0  0  0  0  0
   37.1150   31.2630   48.5580 C   0  0  0  0  0  0  0  0  0  0  0  0
   37.1220   32.2740   49.4390 N   0  0  0  0  0  0  0  0  0  0  0  0
   37.9650   34.0080   50.1520 H   0  0  0  0  0  0  0  0  0  0  0  0
   39.7820   34.0200   48.4190 H   0  0  0  0  0  0  0  0  0  0  0  0
   39.8120   32.1400   46.7410 H   0  0  0  0  0  0  0  0  0  0  0  0
   37.1470   29.2630   50.6630 C   0  0  0  0  0  0  0  0  0  0  0  0
   38.0900   28.7680   50.4890 H   0  0  0  0  0  0  0  0  0  0  0  0
   37.0490   29.8070   51.7930 O   0  0  0  0  0  0  0  0  0  0  0  0
  1  6  1  0  0  0  0
  2  3  1  0  0  0  0
  2  1  2  0  0  0  0
  3  4  2  0  0  0  0
  4  9  1  0  0  0  0
  4  5  1  0  0  0  0
  5 10  1  0  0  0  0
  6  5  2  0  0  0  0
  6 20  1  0  0  0  0
  7  2  1  0  0  0  0
  8  3  1  0  0  0  0
 11 16  1  0  0  0  0
 11 17  1  0  0  0  0
 12 11  2  0  0  0  0
 13 14  2  0  0  0  0
 13 12  1  0  0  0  0
 14 15  1  0  0  0  0
 15  1  1  0  0  0  0
 15 16  2  0  0  0  0
 18 12  1  0  0  0  0
 19 13  1  0  0  0  0
 20 22  2  0  0  0  0
 21 20  1  0  0  0  0
M  END
>  <minimizedAffinity>
-5.47358513

>  <minimizedRMSD>
0.35067457

$$$$
