
 OpenBabel03272505423D

 39 41  0  0  0  0  0  0  0  0999 V2000
   37.8920   23.4470   33.6400 C   0  0  0  0  0  0  0  0  0  0  0  0
   37.3540   22.4070   32.8840 C   0  0  0  0  0  0  0  0  0  0  0  0
   36.6520   22.7040   31.7280 C   0  0  0  0  0  0  0  0  0  0  0  0
   36.4490   23.9830   31.2740 C   0  0  0  0  0  0  0  0  0  0  0  0
   36.9830   25.0280   32.0230 C   0  0  0  0  0  0  0  0  0  0  0  0
   37.6830   24.7070   33.1790 C   0  0  0  0  0  0  0  0  0  0  0  0
   37.4930   21.3870   33.2080 H   0  0  0  0  0  0  0  0  0  0  0  0
   36.2520   21.8660   31.1720 H   0  0  0  0  0  0  0  0  0  0  0  0
   35.8900   24.1480   30.3610 H   0  0  0  0  0  0  0  0  0  0  0  0
   36.7970   25.9990   31.6270 H   0  0  0  0  0  0  0  0  0  0  0  0
   38.1520   25.8910   33.8130 N   0  0  0  0  0  0  0  0  0  0  0  0
   39.3780   26.6260   33.9160 C   0  0  0  0  0  0  0  0  0  0  0  0
   39.6860   26.7910   35.3870 C   0  0  0  0  0  0  0  0  0  0  0  0
   38.7120   27.6960   35.9510 N   0  0  0  0  0  0  0  0  0  0  0  0
   37.5050   27.7760   35.2050 C   0  0  0  0  0  0  0  0  0  0  0  0
   37.0860   26.5040   34.5400 C   0  0  0  0  0  0  0  0  0  0  0  0
   40.2250   26.1510   33.3780 H   0  0  0  0  0  0  0  0  0  0  0  0
   39.2020   27.6630   33.5270 H   0  0  0  0  0  0  0  0  0  0  0  0
   40.0840   26.0080   35.9500 H   0  0  0  0  0  0  0  0  0  0  0  0
   40.6030   27.4740   35.2920 H   0  0  0  0  0  0  0  0  0  0  0  0
   39.0390   28.6250   36.2120 H   0  0  0  0  0  0  0  0  0  0  0  0
   36.6840   28.0280   35.9340 H   0  0  0  0  0  0  0  0  0  0  0  0
   37.5070   28.6430   34.5050 H   0  0  0  0  0  0  0  0  0  0  0  0
   36.3900   26.8620   33.7140 H   0  0  0  0  0  0  0  0  0  0  0  0
   36.4380   25.8700   35.1330 H   0  0  0  0  0  0  0  0  0  0  0  0
   38.8250   23.2590   37.1650 C   0  0  0  0  0  0  0  0  0  0  0  0
   40.0690   22.6100   37.1180 C   0  0  0  0  0  0  0  0  0  0  0  0
   40.5640   22.2460   35.8660 C   0  0  0  0  0  0  0  0  0  0  0  0
   39.7970   22.5500   34.7920 N   0  0  0  0  0  0  0  0  0  0  0  0
   38.6250   23.1620   34.8480 C   0  0  0  0  0  0  0  0  0  0  0  0
   38.1290   23.5220   36.0480 N   0  0  0  0  0  0  0  0  0  0  0  0
   40.6190   22.4050   38.0380 H   0  0  0  0  0  0  0  0  0  0  0  0
   38.3090   23.6500   38.5280 C   0  0  0  0  0  0  0  0  0  0  0  0
   37.8760   24.9880   38.4580 F   0  0  0  0  0  0  0  0  0  0  0  0
   37.3190   22.8190   38.8680 F   0  0  0  0  0  0  0  0  0  0  0  0
   39.3700   23.6330   39.4040 F   0  0  0  0  0  0  0  0  0  0  0  0
   41.8280   21.5810   35.7380 C   0  0  0  0  0  0  0  0  0  0  0  0
   42.3160   21.5760   34.7680 H   0  0  0  0  0  0  0  0  0  0  0  0
   42.3470   21.0200   36.7400 O   0  0  0  0  0  0  0  0  0  0  0  0
  1 30  1  0  0  0  0
  2  7  1  0  0  0  0
  2  1  2  0  0  0  0
  3  2  1  0  0  0  0
  4  3  2  0  0  0  0
  4  5  1  0  0  0  0
  5  6  2  0  0  0  0
  6  1  1  0  0  0  0
  6 11  1  0  0  0  0
  8  3  1  0  0  0  0
  9  4  1  0  0  0  0
 10  5  1  0  0  0  0
 11 12  1  0  0  0  0
 11 16  1  0  0  0  0
 12 13  1  0  0  0  0
 13 19  1  0  0  0  0
 13 14  1  0  0  0  0
 14 21  1  0  0  0  0
 15 22  1  0  0  0  0
 15 14  1  0  0  0  0
 16 25  1  0  0  0  0
 16 15  1  0  0  0  0
 17 12  1  0  0  0  0
 18 12  1  0  0  0  0
 20 13  1  0  0  0  0
 23 15  1  0  0  0  0
 24 16  1  0  0  0  0
 26 33  1  0  0  0  0
 27 26  1  0  0  0  0
 27 32  1  0  0  0  0
 28 27  2  0  0  0  0
 29 30  2  0  0  0  0
 29 28  1  0  0  0  0
 30 31  1  0  0  0  0
 31 26  2  0  0  0  0
 33 35  1  0  0  0  0
 33 36  1  0  0  0  0
 34 33  1  0  0  0  0
 37 28  1  0  0  0  0
 37 39  2  0  0  0  0
 38 37  1  0  0  0  0
M  END
>  <minimizedAffinity>
-6.29470396

$$$$

 OpenBabel03272505423D

 39 41  0  0  0  0  0  0  0  0999 V2000
   36.8630   21.5690   33.6970 C   0  0  0  0  0  0  0  0  0  0  0  0
   36.1490   20.4020   33.9650 C   0  0  0  0  0  0  0  0  0  0  0  0
   35.1500   20.0060   33.0930 C   0  0  0  0  0  0  0  0  0  0  0  0
   34.8120   20.7040   31.9600 C   0  0  0  0  0  0  0  0  0  0  0  0
   35.5210   21.8700   31.6860 C   0  0  0  0  0  0  0  0  0  0  0  0
   36.5190   22.2500   32.5740 C   0  0  0  0  0  0  0  0  0  0  0  0
   36.3850   19.8250   34.8460 H   0  0  0  0  0  0  0  0  0  0  0  0
   34.6210   19.0940   33.3400 H   0  0  0  0  0  0  0  0  0  0  0  0
   34.0200   20.3400   31.3190 H   0  0  0  0  0  0  0  0  0  0  0  0
   35.2200   22.3740   30.7960 H   0  0  0  0  0  0  0  0  0  0  0  0
   37.1310   23.4580   32.1380 N   0  0  0  0  0  0  0  0  0  0  0  0
   37.2810   24.8020   32.6100 C   0  0  0  0  0  0  0  0  0  0  0  0
   36.7700   25.7240   31.5260 C   0  0  0  0  0  0  0  0  0  0  0  0
   37.6890   25.6610   30.4130 N   0  0  0  0  0  0  0  0  0  0  0  0
   38.4670   24.4720   30.3790 C   0  0  0  0  0  0  0  0  0  0  0  0
   37.7720   23.2460   30.8790 C   0  0  0  0  0  0  0  0  0  0  0  0
   36.7670   24.9920   33.5750 H   0  0  0  0  0  0  0  0  0  0  0  0
   38.3770   25.0250   32.7010 H   0  0  0  0  0  0  0  0  0  0  0  0
   35.7490   25.8690   31.3740 H   0  0  0  0  0  0  0  0  0  0  0  0
   37.0600   26.7250   32.0040 H   0  0  0  0  0  0  0  0  0  0  0  0
   38.2710   26.4810   30.2470 H   0  0  0  0  0  0  0  0  0  0  0  0
   38.7100   24.2700   29.2970 H   0  0  0  0  0  0  0  0  0  0  0  0
   39.4670   24.6180   30.8480 H   0  0  0  0  0  0  0  0  0  0  0  0
   38.6340   22.5530   31.1470 H   0  0  0  0  0  0  0  0  0  0  0  0
   37.2440   22.6790   30.1220 H   0  0  0  0  0  0  0  0  0  0  0  0
   38.5790   22.9560   36.6060 C   0  0  0  0  0  0  0  0  0  0  0  0
   39.9320   22.8290   36.2530 C   0  0  0  0  0  0  0  0  0  0  0  0
   40.2280   22.2630   35.0130 C   0  0  0  0  0  0  0  0  0  0  0  0
   39.1780   21.8790   34.2480 N   0  0  0  0  0  0  0  0  0  0  0  0
   37.9060   22.0030   34.5930 C   0  0  0  0  0  0  0  0  0  0  0  0
   37.5990   22.5480   35.7860 N   0  0  0  0  0  0  0  0  0  0  0  0
   40.7140   23.1670   36.9340 H   0  0  0  0  0  0  0  0  0  0  0  0
   38.2790   23.5760   37.9490 C   0  0  0  0  0  0  0  0  0  0  0  0
   39.4070   23.3920   38.7720 F   0  0  0  0  0  0  0  0  0  0  0  0
   37.9930   24.8690   37.7710 F   0  0  0  0  0  0  0  0  0  0  0  0
   37.2570   22.8580   38.5290 F   0  0  0  0  0  0  0  0  0  0  0  0
   41.5870   22.1010   34.5820 C   0  0  0  0  0  0  0  0  0  0  0  0
   41.9760   22.7790   33.8280 H   0  0  0  0  0  0  0  0  0  0  0  0
   42.2990   21.1880   35.0780 O   0  0  0  0  0  0  0  0  0  0  0  0
  1  2  1  0  0  0  0
  1 30  1  0  0  0  0
  2  7  1  0  0  0  0
  3  8  1  0  0  0  0
  3  2  2  0  0  0  0
  4  3  1  0  0  0  0
  5  4  2  0  0  0  0
  5  6  1  0  0  0  0
  6  1  2  0  0  0  0
  9  4  1  0  0  0  0
 10  5  1  0  0  0  0
 11  6  1  0  0  0  0
 11 12  1  0  0  0  0
 12 18  1  0  0  0  0
 12 17  1  0  0  0  0
 13 20  1  0  0  0  0
 13 12  1  0  0  0  0
 14 13  1  0  0  0  0
 15 14  1  0  0  0  0
 15 23  1  0  0  0  0
 15 16  1  0  0  0  0
 16 24  1  0  0  0  0
 16 11  1  0  0  0  0
 19 13  1  0  0  0  0
 21 14  1  0  0  0  0
 22 15  1  0  0  0  0
 25 16  1  0  0  0  0
 26 33  1  0  0  0  0
 27 26  1  0  0  0  0
 27 32  1  0  0  0  0
 28 27  2  0  0  0  0
 29 30  2  0  0  0  0
 29 28  1  0  0  0  0
 30 31  1  0  0  0  0
 31 26  2  0  0  0  0
 33 36  1  0  0  0  0
 33 34  1  0  0  0  0
 35 33  1  0  0  0  0
 37 28  1  0  0  0  0
 37 39  2  0  0  0  0
 38 37  1  0  0  0  0
M  END
>  <minimizedAffinity>
-5.94049883

$$$$

 OpenBabel03272505423D

 39 41  0  0  0  0  0  0  0  0999 V2000
   38.1240   24.4500   33.6990 C   0  0  0  0  0  0  0  0  0  0  0  0
   38.0010   25.5060   32.7980 C   0  0  0  0  0  0  0  0  0  0  0  0
   38.0990   26.8060   33.2620 C   0  0  0  0  0  0  0  0  0  0  0  0
   38.3140   27.1250   34.5800 C   0  0  0  0  0  0  0  0  0  0  0  0
   38.4380   26.0760   35.4870 C   0  0  0  0  0  0  0  0  0  0  0  0
   38.3360   24.7800   35.0000 C   0  0  0  0  0  0  0  0  0  0  0  0
   37.8320   25.2960   31.7530 H   0  0  0  0  0  0  0  0  0  0  0  0
   37.9980   27.5950   32.5280 H   0  0  0  0  0  0  0  0  0  0  0  0
   38.3810   28.1640   34.8790 H   0  0  0  0  0  0  0  0  0  0  0  0
   38.6030   26.3780   36.4950 H   0  0  0  0  0  0  0  0  0  0  0  0
   38.4850   23.8440   36.0610 N   0  0  0  0  0  0  0  0  0  0  0  0
   37.6430   23.1450   36.9860 C   0  0  0  0  0  0  0  0  0  0  0  0
   38.1530   23.4440   38.3780 C   0  0  0  0  0  0  0  0  0  0  0  0
   39.4310   22.7900   38.5370 N   0  0  0  0  0  0  0  0  0  0  0  0
   40.0900   22.5120   37.3090 C   0  0  0  0  0  0  0  0  0  0  0  0
   39.8670   23.5210   36.2280 C   0  0  0  0  0  0  0  0  0  0  0  0
   36.5680   23.4040   36.8880 H   0  0  0  0  0  0  0  0  0  0  0  0
   37.7950   22.0440   36.8400 H   0  0  0  0  0  0  0  0  0  0  0  0
   37.9510   24.3530   38.8470 H   0  0  0  0  0  0  0  0  0  0  0  0
   37.4640   22.7410   38.9650 H   0  0  0  0  0  0  0  0  0  0  0  0
   39.4640   21.9810   39.1570 H   0  0  0  0  0  0  0  0  0  0  0  0
   41.1970   22.5250   37.5190 H   0  0  0  0  0  0  0  0  0  0  0  0
   39.9020   21.4690   36.9650 H   0  0  0  0  0  0  0  0  0  0  0  0
   40.1080   22.9400   35.2800 H   0  0  0  0  0  0  0  0  0  0  0  0
   40.5900   24.3270   36.1980 H   0  0  0  0  0  0  0  0  0  0  0  0
   36.8260   21.1020   33.0410 C   0  0  0  0  0  0  0  0  0  0  0  0
   37.8890   20.4900   32.3570 C   0  0  0  0  0  0  0  0  0  0  0  0
   39.0370   21.2490   32.1320 C   0  0  0  0  0  0  0  0  0  0  0  0
   39.0310   22.5210   32.5960 N   0  0  0  0  0  0  0  0  0  0  0  0
   38.0230   23.0870   33.2390 C   0  0  0  0  0  0  0  0  0  0  0  0
   36.9040   22.3710   33.4670 N   0  0  0  0  0  0  0  0  0  0  0  0
   37.8050   19.4560   32.0190 H   0  0  0  0  0  0  0  0  0  0  0  0
   35.5940   20.2630   33.2790 C   0  0  0  0  0  0  0  0  0  0  0  0
   35.2870   20.3270   34.6520 F   0  0  0  0  0  0  0  0  0  0  0  0
   34.6000   20.7330   32.5200 F   0  0  0  0  0  0  0  0  0  0  0  0
   35.9170   18.9510   33.0170 F   0  0  0  0  0  0  0  0  0  0  0  0
   40.1650   20.6930   31.4410 C   0  0  0  0  0  0  0  0  0  0  0  0
   40.5350   21.2040   30.5570 H   0  0  0  0  0  0  0  0  0  0  0  0
   40.7010   19.6340   31.8640 O   0  0  0  0  0  0  0  0  0  0  0  0
  1  6  1  0  0  0  0
  2  3  1  0  0  0  0
  2  1  2  0  0  0  0
  3  4  2  0  0  0  0
  4  9  1  0  0  0  0
  4  5  1  0  0  0  0
  5 10  1  0  0  0  0
  6  5  2  0  0  0  0
  6 11  1  0  0  0  0
  7  2  1  0  0  0  0
  8  3  1  0  0  0  0
 11 16  1  0  0  0  0
 11 12  1  0  0  0  0
 12 13  1  0  0  0  0
 13 14  1  0  0  0  0
 13 19  1  0  0  0  0
 13 20  1  0  0  0  0
 14 21  1  0  0  0  0
 15 22  1  0  0  0  0
 15 14  1  0  0  0  0
 16 15  1  0  0  0  0
 17 12  1  0  0  0  0
 18 12  1  0  0  0  0
 23 15  1  0  0  0  0
 24 16  1  0  0  0  0
 25 16  1  0  0  0  0
 26 33  1  0  0  0  0
 26 31  1  0  0  0  0
 27 26  2  0  0  0  0
 28 27  1  0  0  0  0
 28 29  2  0  0  0  0
 29 30  1  0  0  0  0
 30 31  2  0  0  0  0
 30  1  1  0  0  0  0
 32 27  1  0  0  0  0
 33 34  1  0  0  0  0
 35 33  1  0  0  0  0
 36 33  1  0  0  0  0
 37 39  2  0  0  0  0
 37 28  1  0  0  0  0
 38 37  1  0  0  0  0
M  END
>  <minimizedAffinity>
-5.78145552

$$$$

 OpenBabel03272505423D

 39 41  0  0  0  0  0  0  0  0999 V2000
   39.5770   22.2610   33.9790 C   0  0  0  0  0  0  0  0  0  0  0  0
   40.9580   22.0920   33.8930 C   0  0  0  0  0  0  0  0  0  0  0  0
   41.4690   21.1170   33.0540 C   0  0  0  0  0  0  0  0  0  0  0  0
   40.6850   20.2910   32.2870 C   0  0  0  0  0  0  0  0  0  0  0  0
   39.3050   20.4530   32.3670 C   0  0  0  0  0  0  0  0  0  0  0  0
   38.8140   21.4370   33.2150 C   0  0  0  0  0  0  0  0  0  0  0  0
   41.6080   22.7220   34.4800 H   0  0  0  0  0  0  0  0  0  0  0  0
   42.5460   21.0200   33.0180 H   0  0  0  0  0  0  0  0  0  0  0  0
   41.1480   19.5480   31.6500 H   0  0  0  0  0  0  0  0  0  0  0  0
   38.7430   19.7880   31.7530 H   0  0  0  0  0  0  0  0  0  0  0  0
   37.3920   21.4590   33.1700 N   0  0  0  0  0  0  0  0  0  0  0  0
   36.2970   21.0680   34.0080 C   0  0  0  0  0  0  0  0  0  0  0  0
   35.4130   20.1450   33.2000 C   0  0  0  0  0  0  0  0  0  0  0  0
   34.7740   20.9270   32.1670 N   0  0  0  0  0  0  0  0  0  0  0  0
   35.4670   22.1250   31.8440 C   0  0  0  0  0  0  0  0  0  0  0  0
   36.9560   22.0410   31.9400 C   0  0  0  0  0  0  0  0  0  0  0  0
   36.6160   20.5890   34.9580 H   0  0  0  0  0  0  0  0  0  0  0  0
   35.6720   21.9740   34.2200 H   0  0  0  0  0  0  0  0  0  0  0  0
   35.6730   19.1480   33.0380 H   0  0  0  0  0  0  0  0  0  0  0  0
   34.5590   20.0240   33.9550 H   0  0  0  0  0  0  0  0  0  0  0  0
   33.7750   21.1020   32.2710 H   0  0  0  0  0  0  0  0  0  0  0  0
   35.2400   22.3550   30.7650 H   0  0  0  0  0  0  0  0  0  0  0  0
   35.0520   23.0040   32.3910 H   0  0  0  0  0  0  0  0  0  0  0  0
   37.2690   23.1290   32.0510 H   0  0  0  0  0  0  0  0  0  0  0  0
   37.4580   21.7460   31.0270 H   0  0  0  0  0  0  0  0  0  0  0  0
   38.4200   23.9990   36.9740 C   0  0  0  0  0  0  0  0  0  0  0  0
   37.9390   25.2120   36.4570 C   0  0  0  0  0  0  0  0  0  0  0  0
   38.0250   25.4100   35.0790 C   0  0  0  0  0  0  0  0  0  0  0  0
   38.5710   24.4080   34.3500 N   0  0  0  0  0  0  0  0  0  0  0  0
   39.0220   23.2680   34.8480 C   0  0  0  0  0  0  0  0  0  0  0  0
   38.9470   23.0570   36.1770 N   0  0  0  0  0  0  0  0  0  0  0  0
   37.5140   25.9650   37.1230 H   0  0  0  0  0  0  0  0  0  0  0  0
   38.3130   23.8010   38.4660 C   0  0  0  0  0  0  0  0  0  0  0  0
   37.3050   22.8470   38.7040 F   0  0  0  0  0  0  0  0  0  0  0  0
   39.5000   23.4040   38.9340 F   0  0  0  0  0  0  0  0  0  0  0  0
   37.8670   24.9800   39.0190 F   0  0  0  0  0  0  0  0  0  0  0  0
   37.5530   26.6240   34.4780 C   0  0  0  0  0  0  0  0  0  0  0  0
   37.4070   26.6470   33.4020 H   0  0  0  0  0  0  0  0  0  0  0  0
   37.3190   27.6310   35.1970 O   0  0  0  0  0  0  0  0  0  0  0  0
  1 30  1  0  0  0  0
  2  1  1  0  0  0  0
  2  7  1  0  0  0  0
  3  2  2  0  0  0  0
  4  5  2  0  0  0  0
  4  3  1  0  0  0  0
  5  6  1  0  0  0  0
  6  1  2  0  0  0  0
  8  3  1  0  0  0  0
  9  4  1  0  0  0  0
 10  5  1  0  0  0  0
 11  6  1  0  0  0  0
 11 12  1  0  0  0  0
 12 18  1  0  0  0  0
 12 17  1  0  0  0  0
 13 20  1  0  0  0  0
 13 12  1  0  0  0  0
 14 21  1  0  0  0  0
 14 13  1  0  0  0  0
 15 16  1  0  0  0  0
 15 14  1  0  0  0  0
 15 23  1  0  0  0  0
 16 24  1  0  0  0  0
 16 11  1  0  0  0  0
 19 13  1  0  0  0  0
 22 15  1  0  0  0  0
 25 16  1  0  0  0  0
 26 33  1  0  0  0  0
 27 26  1  0  0  0  0
 27 32  1  0  0  0  0
 28 27  2  0  0  0  0
 29 30  2  0  0  0  0
 29 28  1  0  0  0  0
 30 31  1  0  0  0  0
 31 26  2  0  0  0  0
 33 34  1  0  0  0  0
 33 35  1  0  0  0  0
 33 36  1  0  0  0  0
 37 28  1  0  0  0  0
 37 39  2  0  0  0  0
 38 37  1  0  0  0  0
M  END
>  <minimizedAffinity>
-5.57990837

$$$$

 OpenBabel03272505423D

 39 41  0  0  0  0  0  0  0  0999 V2000
   34.9750   30.8080   35.2080 C   0  0  0  0  0  0  0  0  0  0  0  0
   35.7520   31.7940   35.8130 C   0  0  0  0  0  0  0  0  0  0  0  0
   35.1760   32.6220   36.7610 C   0  0  0  0  0  0  0  0  0  0  0  0
   33.8620   32.5310   37.1480 C   0  0  0  0  0  0  0  0  0  0  0  0
   33.0790   31.5490   36.5480 C   0  0  0  0  0  0  0  0  0  0  0  0
   33.6760   30.7290   35.6000 C   0  0  0  0  0  0  0  0  0  0  0  0
   36.7900   31.8970   35.5360 H   0  0  0  0  0  0  0  0  0  0  0  0
   35.8170   33.3730   37.2050 H   0  0  0  0  0  0  0  0  0  0  0  0
   33.4730   33.2100   37.8960 H   0  0  0  0  0  0  0  0  0  0  0  0
   32.0680   31.5220   36.8840 H   0  0  0  0  0  0  0  0  0  0  0  0
   32.7320   29.7920   35.0960 N   0  0  0  0  0  0  0  0  0  0  0  0
   32.1940   29.4060   33.8260 C   0  0  0  0  0  0  0  0  0  0  0  0
   30.6890   29.5150   33.9170 C   0  0  0  0  0  0  0  0  0  0  0  0
   30.2170   28.4770   34.8040 N   0  0  0  0  0  0  0  0  0  0  0  0
   31.2050   28.0020   35.7080 C   0  0  0  0  0  0  0  0  0  0  0  0
   32.1830   29.0330   36.1750 C   0  0  0  0  0  0  0  0  0  0  0  0
   32.5900   30.0030   32.9780 H   0  0  0  0  0  0  0  0  0  0  0  0
   32.4070   28.3160   33.6670 H   0  0  0  0  0  0  0  0  0  0  0  0
   30.2070   30.4380   33.8650 H   0  0  0  0  0  0  0  0  0  0  0  0
   30.4240   29.0760   32.8920 H   0  0  0  0  0  0  0  0  0  0  0  0
   29.7110   27.7000   34.3790 H   0  0  0  0  0  0  0  0  0  0  0  0
   30.6640   27.6500   36.6310 H   0  0  0  0  0  0  0  0  0  0  0  0
   31.7040   27.0800   35.3300 H   0  0  0  0  0  0  0  0  0  0  0  0
   33.0690   28.4080   36.5210 H   0  0  0  0  0  0  0  0  0  0  0  0
   31.8990   29.5560   37.0790 H   0  0  0  0  0  0  0  0  0  0  0  0
   36.6040   27.9410   33.6420 C   0  0  0  0  0  0  0  0  0  0  0  0
   36.6550   28.3180   32.2900 C   0  0  0  0  0  0  0  0  0  0  0  0
   36.1210   29.5590   31.9430 C   0  0  0  0  0  0  0  0  0  0  0  0
   35.5940   30.3010   32.9460 N   0  0  0  0  0  0  0  0  0  0  0  0
   35.5520   29.9350   34.2160 C   0  0  0  0  0  0  0  0  0  0  0  0
   36.0620   28.7400   34.5730 N   0  0  0  0  0  0  0  0  0  0  0  0
   37.1000   27.6530   31.5490 H   0  0  0  0  0  0  0  0  0  0  0  0
   37.1920   26.5970   33.9980 C   0  0  0  0  0  0  0  0  0  0  0  0
   38.5830   26.6670   33.7970 F   0  0  0  0  0  0  0  0  0  0  0  0
   36.8820   26.3150   35.2680 F   0  0  0  0  0  0  0  0  0  0  0  0
   36.7170   25.6730   33.0950 F   0  0  0  0  0  0  0  0  0  0  0  0
   36.1380   30.0140   30.5830 C   0  0  0  0  0  0  0  0  0  0  0  0
   36.1230   29.2740   29.7880 H   0  0  0  0  0  0  0  0  0  0  0  0
   36.1680   31.2480   30.3330 O   0  0  0  0  0  0  0  0  0  0  0  0
  1  6  2  0  0  0  0
  1  2  1  0  0  0  0
  2  3  2  0  0  0  0
  3  4  1  0  0  0  0
  3  8  1  0  0  0  0
  4  9  1  0  0  0  0
  5 10  1  0  0  0  0
  5  4  2  0  0  0  0
  6  5  1  0  0  0  0
  7  2  1  0  0  0  0
 11  6  1  0  0  0  0
 11 16  1  0  0  0  0
 12 13  1  0  0  0  0
 12 11  1  0  0  0  0
 13 14  1  0  0  0  0
 14 15  1  0  0  0  0
 15 16  1  0  0  0  0
 15 22  1  0  0  0  0
 16 24  1  0  0  0  0
 16 25  1  0  0  0  0
 17 12  1  0  0  0  0
 18 12  1  0  0  0  0
 19 13  1  0  0  0  0
 20 13  1  0  0  0  0
 21 14  1  0  0  0  0
 23 15  1  0  0  0  0
 26 33  1  0  0  0  0
 26 31  1  0  0  0  0
 27 26  2  0  0  0  0
 28 27  1  0  0  0  0
 28 29  2  0  0  0  0
 29 30  1  0  0  0  0
 30 31  2  0  0  0  0
 30  1  1  0  0  0  0
 32 27  1  0  0  0  0
 33 35  1  0  0  0  0
 34 33  1  0  0  0  0
 36 33  1  0  0  0  0
 37 28  1  0  0  0  0
 38 37  1  0  0  0  0
 39 37  2  0  0  0  0
M  END
>  <minimizedAffinity>
-5.52375889

$$$$

 OpenBabel03272505423D

 39 41  0  0  0  0  0  0  0  0999 V2000
   37.3850   24.2370   33.0010 C   0  0  0  0  0  0  0  0  0  0  0  0
   37.1250   25.5540   32.6240 C   0  0  0  0  0  0  0  0  0  0  0  0
   36.2100   25.8010   31.6160 C   0  0  0  0  0  0  0  0  0  0  0  0
   35.5300   24.8110   30.9510 C   0  0  0  0  0  0  0  0  0  0  0  0
   35.7830   23.4930   31.3200 C   0  0  0  0  0  0  0  0  0  0  0  0
   36.7050   23.2680   32.3340 C   0  0  0  0  0  0  0  0  0  0  0  0
   37.6390   26.3610   33.1240 H   0  0  0  0  0  0  0  0  0  0  0  0
   36.0390   26.8380   31.3560 H   0  0  0  0  0  0  0  0  0  0  0  0
   34.8260   25.0720   30.1700 H   0  0  0  0  0  0  0  0  0  0  0  0
   35.2310   22.7650   30.7740 H   0  0  0  0  0  0  0  0  0  0  0  0
   36.8380   21.8720   32.5760 N   0  0  0  0  0  0  0  0  0  0  0  0
   37.8710   20.8800   32.5320 C   0  0  0  0  0  0  0  0  0  0  0  0
   37.3930   19.7670   31.6280 C   0  0  0  0  0  0  0  0  0  0  0  0
   36.3090   19.0820   32.2940 N   0  0  0  0  0  0  0  0  0  0  0  0
   35.6570   19.8690   33.2820 C   0  0  0  0  0  0  0  0  0  0  0  0
   35.5790   21.3300   32.9780 C   0  0  0  0  0  0  0  0  0  0  0  0
   38.8520   21.2780   32.1960 H   0  0  0  0  0  0  0  0  0  0  0  0
   37.9650   20.4220   33.5510 H   0  0  0  0  0  0  0  0  0  0  0  0
   37.4120   19.8630   30.5900 H   0  0  0  0  0  0  0  0  0  0  0  0
   38.2590   19.0330   31.7910 H   0  0  0  0  0  0  0  0  0  0  0  0
   36.4990   18.1450   32.6440 H   0  0  0  0  0  0  0  0  0  0  0  0
   34.5910   19.5080   33.3380 H   0  0  0  0  0  0  0  0  0  0  0  0
   36.0550   19.6650   34.3030 H   0  0  0  0  0  0  0  0  0  0  0  0
   35.4180   21.7980   34.0030 H   0  0  0  0  0  0  0  0  0  0  0  0
   34.6910   21.6390   32.4400 H   0  0  0  0  0  0  0  0  0  0  0  0
   38.8420   23.6750   36.3000 C   0  0  0  0  0  0  0  0  0  0  0  0
   40.1920   23.4300   36.0010 C   0  0  0  0  0  0  0  0  0  0  0  0
   40.5750   23.4620   34.6600 C   0  0  0  0  0  0  0  0  0  0  0  0
   39.6060   23.7270   33.7520 N   0  0  0  0  0  0  0  0  0  0  0  0
   38.3360   23.9550   34.0470 C   0  0  0  0  0  0  0  0  0  0  0  0
   37.9450   23.9300   35.3360 N   0  0  0  0  0  0  0  0  0  0  0  0
   40.9050   23.2250   36.8010 H   0  0  0  0  0  0  0  0  0  0  0  0
   38.4480   23.6420   37.7560 C   0  0  0  0  0  0  0  0  0  0  0  0
   37.2810   22.8630   37.8710 F   0  0  0  0  0  0  0  0  0  0  0  0
   39.4610   23.1340   38.4650 F   0  0  0  0  0  0  0  0  0  0  0  0
   38.0980   24.9200   38.1300 F   0  0  0  0  0  0  0  0  0  0  0  0
   41.9360   23.2220   34.2770 C   0  0  0  0  0  0  0  0  0  0  0  0
   42.1370   22.8650   33.2710 H   0  0  0  0  0  0  0  0  0  0  0  0
   42.8670   23.4280   35.1010 O   0  0  0  0  0  0  0  0  0  0  0  0
  1 30  1  0  0  0  0
  2  1  1  0  0  0  0
  2  7  1  0  0  0  0
  3  2  2  0  0  0  0
  4  5  2  0  0  0  0
  4  3  1  0  0  0  0
  5  6  1  0  0  0  0
  6 11  1  0  0  0  0
  6  1  2  0  0  0  0
  8  3  1  0  0  0  0
  9  4  1  0  0  0  0
 10  5  1  0  0  0  0
 11 16  1  0  0  0  0
 12 11  1  0  0  0  0
 12 18  1  0  0  0  0
 13 20  1  0  0  0  0
 13 14  1  0  0  0  0
 13 12  1  0  0  0  0
 14 21  1  0  0  0  0
 14 15  1  0  0  0  0
 15 22  1  0  0  0  0
 15 23  1  0  0  0  0
 16 15  1  0  0  0  0
 16 24  1  0  0  0  0
 17 12  1  0  0  0  0
 19 13  1  0  0  0  0
 25 16  1  0  0  0  0
 26 33  1  0  0  0  0
 27 26  1  0  0  0  0
 27 32  1  0  0  0  0
 28 27  2  0  0  0  0
 29 30  2  0  0  0  0
 29 28  1  0  0  0  0
 30 31  1  0  0  0  0
 31 26  2  0  0  0  0
 33 34  1  0  0  0  0
 33 36  1  0  0  0  0
 33 35  1  0  0  0  0
 37 28  1  0  0  0  0
 37 39  2  0  0  0  0
 38 37  1  0  0  0  0
M  END
>  <minimizedAffinity>
-5.48996353

$$$$

 OpenBabel03272505423D

 39 41  0  0  0  0  0  0  0  0999 V2000
   39.6080   26.3440   33.6020 C   0  0  0  0  0  0  0  0  0  0  0  0
   40.6730   27.0840   33.0910 C   0  0  0  0  0  0  0  0  0  0  0  0
   41.9440   26.8800   33.6000 C   0  0  0  0  0  0  0  0  0  0  0  0
   42.2250   25.9770   34.5950 C   0  0  0  0  0  0  0  0  0  0  0  0
   41.1670   25.2350   35.1120 C   0  0  0  0  0  0  0  0  0  0  0  0
   39.9010   25.4550   34.5870 C   0  0  0  0  0  0  0  0  0  0  0  0
   40.4930   27.8030   32.3060 H   0  0  0  0  0  0  0  0  0  0  0  0
   42.7410   27.4750   33.1730 H   0  0  0  0  0  0  0  0  0  0  0  0
   43.2420   25.8650   34.9500 H   0  0  0  0  0  0  0  0  0  0  0  0
   41.4390   24.5500   35.8810 H   0  0  0  0  0  0  0  0  0  0  0  0
   38.9490   24.6160   35.2310 N   0  0  0  0  0  0  0  0  0  0  0  0
   37.9020   24.7460   36.2000 C   0  0  0  0  0  0  0  0  0  0  0  0
   38.1860   23.7590   37.3100 C   0  0  0  0  0  0  0  0  0  0  0  0
   37.9870   22.4270   36.7880 N   0  0  0  0  0  0  0  0  0  0  0  0
   38.0970   22.3440   35.3740 C   0  0  0  0  0  0  0  0  0  0  0  0
   39.0930   23.2740   34.7600 C   0  0  0  0  0  0  0  0  0  0  0  0
   37.7930   25.7770   36.5970 H   0  0  0  0  0  0  0  0  0  0  0  0
   36.9420   24.4040   35.7320 H   0  0  0  0  0  0  0  0  0  0  0  0
   38.9110   23.9510   38.0350 H   0  0  0  0  0  0  0  0  0  0  0  0
   37.2270   23.9100   37.9200 H   0  0  0  0  0  0  0  0  0  0  0  0
   37.1690   21.9180   37.1190 H   0  0  0  0  0  0  0  0  0  0  0  0
   38.4570   21.3040   35.1330 H   0  0  0  0  0  0  0  0  0  0  0  0
   37.1010   22.3960   34.8770 H   0  0  0  0  0  0  0  0  0  0  0  0
   38.7460   23.3470   33.6790 H   0  0  0  0  0  0  0  0  0  0  0  0
   40.0930   22.8710   34.6570 H   0  0  0  0  0  0  0  0  0  0  0  0
   36.4450   25.7880   31.8650 C   0  0  0  0  0  0  0  0  0  0  0  0
   35.7410   26.9750   32.1240 C   0  0  0  0  0  0  0  0  0  0  0  0
   36.3730   27.9480   32.8980 C   0  0  0  0  0  0  0  0  0  0  0  0
   37.6220   27.6640   33.3390 N   0  0  0  0  0  0  0  0  0  0  0  0
   38.2750   26.5410   33.0900 C   0  0  0  0  0  0  0  0  0  0  0  0
   37.6830   25.5880   32.3430 N   0  0  0  0  0  0  0  0  0  0  0  0
   34.7360   27.1170   31.7250 H   0  0  0  0  0  0  0  0  0  0  0  0
   35.7470   24.7500   31.0220 C   0  0  0  0  0  0  0  0  0  0  0  0
   34.8210   25.4150   30.1960 F   0  0  0  0  0  0  0  0  0  0  0  0
   36.6640   24.0840   30.3120 F   0  0  0  0  0  0  0  0  0  0  0  0
   35.0090   23.9470   31.8620 F   0  0  0  0  0  0  0  0  0  0  0  0
   35.7180   29.1870   33.2030 C   0  0  0  0  0  0  0  0  0  0  0  0
   35.4770   29.8620   32.3870 H   0  0  0  0  0  0  0  0  0  0  0  0
   35.4350   29.4700   34.3970 O   0  0  0  0  0  0  0  0  0  0  0  0
  1  6  1  0  0  0  0
  2  3  1  0  0  0  0
  2  1  2  0  0  0  0
  3  4  2  0  0  0  0
  4  9  1  0  0  0  0
  4  5  1  0  0  0  0
  5 10  1  0  0  0  0
  6  5  2  0  0  0  0
  6 11  1  0  0  0  0
  7  2  1  0  0  0  0
  8  3  1  0  0  0  0
 11 12  1  0  0  0  0
 12 17  1  0  0  0  0
 12 13  1  0  0  0  0
 13 20  1  0  0  0  0
 13 19  1  0  0  0  0
 14 21  1  0  0  0  0
 14 13  1  0  0  0  0
 15 14  1  0  0  0  0
 16 11  1  0  0  0  0
 16 15  1  0  0  0  0
 18 12  1  0  0  0  0
 22 15  1  0  0  0  0
 23 15  1  0  0  0  0
 24 16  1  0  0  0  0
 25 16  1  0  0  0  0
 26 27  2  0  0  0  0
 26 31  1  0  0  0  0
 27 28  1  0  0  0  0
 28 37  1  0  0  0  0
 28 29  2  0  0  0  0
 30 29  1  0  0  0  0
 30  1  1  0  0  0  0
 31 30  2  0  0  0  0
 32 27  1  0  0  0  0
 33 36  1  0  0  0  0
 33 26  1  0  0  0  0
 34 33  1  0  0  0  0
 35 33  1  0  0  0  0
 37 39  2  0  0  0  0
 38 37  1  0  0  0  0
M  END
>  <minimizedAffinity>
-5.44271183

$$$$

 OpenBabel03272505423D

 39 41  0  0  0  0  0  0  0  0999 V2000
   37.5450   22.3960   33.9350 C   0  0  0  0  0  0  0  0  0  0  0  0
   36.7500   21.2680   33.7400 C   0  0  0  0  0  0  0  0  0  0  0  0
   36.0180   21.1490   32.5720 C   0  0  0  0  0  0  0  0  0  0  0  0
   36.0260   22.0920   31.5740 C   0  0  0  0  0  0  0  0  0  0  0  0
   36.8170   23.2220   31.7600 C   0  0  0  0  0  0  0  0  0  0  0  0
   37.5430   23.3210   32.9400 C   0  0  0  0  0  0  0  0  0  0  0  0
   36.7170   20.5030   34.5020 H   0  0  0  0  0  0  0  0  0  0  0  0
   35.4150   20.2570   32.4630 H   0  0  0  0  0  0  0  0  0  0  0  0
   35.4300   21.9390   30.6830 H   0  0  0  0  0  0  0  0  0  0  0  0
   36.7880   23.9220   30.9570 H   0  0  0  0  0  0  0  0  0  0  0  0
   38.2870   24.5340   32.9580 N   0  0  0  0  0  0  0  0  0  0  0  0
   39.6510   24.9450   32.8050 C   0  0  0  0  0  0  0  0  0  0  0  0
   40.0250   25.7460   34.0310 C   0  0  0  0  0  0  0  0  0  0  0  0
   39.2990   26.9940   33.9890 N   0  0  0  0  0  0  0  0  0  0  0  0
   38.1250   26.9480   33.1890 C   0  0  0  0  0  0  0  0  0  0  0  0
   37.4080   25.6350   33.1920 C   0  0  0  0  0  0  0  0  0  0  0  0
   40.3530   24.0990   32.6480 H   0  0  0  0  0  0  0  0  0  0  0  0
   39.7100   25.6630   31.9460 H   0  0  0  0  0  0  0  0  0  0  0  0
   40.2450   25.2810   34.9380 H   0  0  0  0  0  0  0  0  0  0  0  0
   41.0710   26.0810   33.7020 H   0  0  0  0  0  0  0  0  0  0  0  0
   39.8370   27.8370   33.7940 H   0  0  0  0  0  0  0  0  0  0  0  0
   37.4020   27.6950   33.6230 H   0  0  0  0  0  0  0  0  0  0  0  0
   38.3100   27.3310   32.1590 H   0  0  0  0  0  0  0  0  0  0  0  0
   36.7930   25.6760   32.2350 H   0  0  0  0  0  0  0  0  0  0  0  0
   36.6470   25.5320   33.9550 H   0  0  0  0  0  0  0  0  0  0  0  0
   40.3000   22.2700   36.3270 C   0  0  0  0  0  0  0  0  0  0  0  0
   39.7290   22.8290   37.4810 C   0  0  0  0  0  0  0  0  0  0  0  0
   38.3980   23.2440   37.4110 C   0  0  0  0  0  0  0  0  0  0  0  0
   37.7650   23.0710   36.2270 N   0  0  0  0  0  0  0  0  0  0  0  0
   38.3140   22.5430   35.1450 C   0  0  0  0  0  0  0  0  0  0  0  0
   39.5980   22.1360   35.1920 N   0  0  0  0  0  0  0  0  0  0  0  0
   40.3170   22.9300   38.3940 H   0  0  0  0  0  0  0  0  0  0  0  0
   41.7380   21.8230   36.4240 C   0  0  0  0  0  0  0  0  0  0  0  0
   42.5110   22.9350   36.8100 F   0  0  0  0  0  0  0  0  0  0  0  0
   41.8190   20.8240   37.3080 F   0  0  0  0  0  0  0  0  0  0  0  0
   42.1610   21.4790   35.1600 F   0  0  0  0  0  0  0  0  0  0  0  0
   37.7460   23.8230   38.5500 C   0  0  0  0  0  0  0  0  0  0  0  0
   36.9440   23.2680   39.0270 H   0  0  0  0  0  0  0  0  0  0  0  0
   38.1090   24.9530   38.9740 O   0  0  0  0  0  0  0  0  0  0  0  0
  1 30  1  0  0  0  0
  2  1  1  0  0  0  0
  2  7  1  0  0  0  0
  3  2  2  0  0  0  0
  4  5  2  0  0  0  0
  4  3  1  0  0  0  0
  5  6  1  0  0  0  0
  6 11  1  0  0  0  0
  6  1  2  0  0  0  0
  8  3  1  0  0  0  0
  9  4  1  0  0  0  0
 10  5  1  0  0  0  0
 11 16  1  0  0  0  0
 12 11  1  0  0  0  0
 12 13  1  0  0  0  0
 13 19  1  0  0  0  0
 14 13  1  0  0  0  0
 15 16  1  0  0  0  0
 15 22  1  0  0  0  0
 15 14  1  0  0  0  0
 16 25  1  0  0  0  0
 17 12  1  0  0  0  0
 18 12  1  0  0  0  0
 20 13  1  0  0  0  0
 21 14  1  0  0  0  0
 23 15  1  0  0  0  0
 24 16  1  0  0  0  0
 26 33  1  0  0  0  0
 26 27  1  0  0  0  0
 27 32  1  0  0  0  0
 28 27  2  0  0  0  0
 28 37  1  0  0  0  0
 29 28  1  0  0  0  0
 30 31  1  0  0  0  0
 30 29  2  0  0  0  0
 31 26  2  0  0  0  0
 33 34  1  0  0  0  0
 33 35  1  0  0  0  0
 36 33  1  0  0  0  0
 37 39  2  0  0  0  0
 37 38  1  0  0  0  0
M  END
>  <minimizedAffinity>
-5.43340921

$$$$

 OpenBabel03272505423D

 39 41  0  0  0  0  0  0  0  0999 V2000
   36.1900   29.1940   32.1380 C   0  0  0  0  0  0  0  0  0  0  0  0
   36.1560   29.8080   30.8870 C   0  0  0  0  0  0  0  0  0  0  0  0
   37.0320   29.3850   29.9020 C   0  0  0  0  0  0  0  0  0  0  0  0
   37.9490   28.3800   30.0850 C   0  0  0  0  0  0  0  0  0  0  0  0
   37.9890   27.7610   31.3310 C   0  0  0  0  0  0  0  0  0  0  0  0
   37.1020   28.2010   32.3050 C   0  0  0  0  0  0  0  0  0  0  0  0
   35.4490   30.6020   30.7040 H   0  0  0  0  0  0  0  0  0  0  0  0
   36.9710   29.8900   28.9460 H   0  0  0  0  0  0  0  0  0  0  0  0
   38.6060   28.0960   29.2730 H   0  0  0  0  0  0  0  0  0  0  0  0
   38.7170   26.9880   31.4200 H   0  0  0  0  0  0  0  0  0  0  0  0
   37.2850   27.4610   33.5060 N   0  0  0  0  0  0  0  0  0  0  0  0
   37.1730   27.6840   34.9170 C   0  0  0  0  0  0  0  0  0  0  0  0
   38.4970   27.3060   35.5420 C   0  0  0  0  0  0  0  0  0  0  0  0
   38.6460   25.8730   35.4470 N   0  0  0  0  0  0  0  0  0  0  0  0
   37.8640   25.2830   34.4170 C   0  0  0  0  0  0  0  0  0  0  0  0
   37.6870   26.1260   33.1950 C   0  0  0  0  0  0  0  0  0  0  0  0
   36.8860   28.7240   35.1790 H   0  0  0  0  0  0  0  0  0  0  0  0
   36.4270   26.9570   35.3320 H   0  0  0  0  0  0  0  0  0  0  0  0
   39.3240   27.9390   35.4870 H   0  0  0  0  0  0  0  0  0  0  0  0
   38.2060   27.4310   36.6450 H   0  0  0  0  0  0  0  0  0  0  0  0
   38.5670   25.3400   36.3120 H   0  0  0  0  0  0  0  0  0  0  0  0
   38.4120   24.3590   34.0770 H   0  0  0  0  0  0  0  0  0  0  0  0
   36.8980   24.8860   34.8050 H   0  0  0  0  0  0  0  0  0  0  0  0
   36.7550   25.6870   32.7120 H   0  0  0  0  0  0  0  0  0  0  0  0
   38.4380   25.9820   32.4270 H   0  0  0  0  0  0  0  0  0  0  0  0
   33.1970   29.5560   34.1980 C   0  0  0  0  0  0  0  0  0  0  0  0
   33.6090   30.4750   35.1760 C   0  0  0  0  0  0  0  0  0  0  0  0
   34.9180   30.9530   35.1080 C   0  0  0  0  0  0  0  0  0  0  0  0
   35.6880   30.4860   34.0960 N   0  0  0  0  0  0  0  0  0  0  0  0
   35.2890   29.6190   33.1800 C   0  0  0  0  0  0  0  0  0  0  0  0
   34.0280   29.1460   33.2270 N   0  0  0  0  0  0  0  0  0  0  0  0
   32.9170   30.7960   35.9560 H   0  0  0  0  0  0  0  0  0  0  0  0
   31.7770   29.0560   34.2850 C   0  0  0  0  0  0  0  0  0  0  0  0
   30.9290   30.1760   34.3840 F   0  0  0  0  0  0  0  0  0  0  0  0
   31.5120   28.3200   33.2010 F   0  0  0  0  0  0  0  0  0  0  0  0
   31.6420   28.3650   35.4680 F   0  0  0  0  0  0  0  0  0  0  0  0
   35.4100   31.8940   36.0720 C   0  0  0  0  0  0  0  0  0  0  0  0
   36.2920   32.4780   35.8240 H   0  0  0  0  0  0  0  0  0  0  0  0
   34.8200   32.0290   37.1760 O   0  0  0  0  0  0  0  0  0  0  0  0
  1  6  1  0  0  0  0
  1 30  1  0  0  0  0
  2  1  2  0  0  0  0
  3  4  2  0  0  0  0
  3  2  1  0  0  0  0
  4  5  1  0  0  0  0
  5 10  1  0  0  0  0
  5  6  2  0  0  0  0
  6 11  1  0  0  0  0
  7  2  1  0  0  0  0
  8  3  1  0  0  0  0
  9  4  1  0  0  0  0
 11 12  1  0  0  0  0
 12 17  1  0  0  0  0
 12 18  1  0  0  0  0
 12 13  1  0  0  0  0
 13 20  1  0  0  0  0
 14 13  1  0  0  0  0
 14 21  1  0  0  0  0
 15 23  1  0  0  0  0
 15 14  1  0  0  0  0
 16 11  1  0  0  0  0
 16 15  1  0  0  0  0
 19 13  1  0  0  0  0
 22 15  1  0  0  0  0
 24 16  1  0  0  0  0
 25 16  1  0  0  0  0
 26 33  1  0  0  0  0
 26 27  1  0  0  0  0
 27 32  1  0  0  0  0
 28 27  2  0  0  0  0
 28 37  1  0  0  0  0
 29 28  1  0  0  0  0
 30 31  1  0  0  0  0
 30 29  2  0  0  0  0
 31 26  2  0  0  0  0
 33 34  1  0  0  0  0
 33 36  1  0  0  0  0
 35 33  1  0  0  0  0
 37 39  2  0  0  0  0
 38 37  1  0  0  0  0
M  END
>  <minimizedAffinity>
-5.41674614

$$$$
