
 OpenBabel03272508173D

 19 20  0  0  0  0  0  0  0  0999 V2000
   37.8800   31.5230   48.5010 C   0  0  0  0  0  0  0  0  0  0  0  0
   38.7120   32.6200   48.2700 C   0  0  0  0  0  0  0  0  0  0  0  0
   39.4100   32.6710   47.0870 C   0  0  0  0  0  0  0  0  0  0  0  0
   39.2570   31.6630   46.2110 N   0  0  0  0  0  0  0  0  0  0  0  0
   38.4550   30.6050   46.4320 C   0  0  0  0  0  0  0  0  0  0  0  0
   37.7600   30.5300   47.5830 N   0  0  0  0  0  0  0  0  0  0  0  0
   40.0880   33.4730   46.7980 H   0  0  0  0  0  0  0  0  0  0  0  0
   38.2600   29.7510   45.8050 H   0  0  0  0  0  0  0  0  0  0  0  0
   37.0610   31.5610   49.7720 C   0  0  0  0  0  0  0  0  0  0  0  0
   36.2820   30.4040   50.1550 C   0  0  0  0  0  0  0  0  0  0  0  0
   37.6300   30.5610   50.8000 C   0  0  0  0  0  0  0  0  0  0  0  0
   37.0330   32.5900   50.2400 H   0  0  0  0  0  0  0  0  0  0  0  0
   35.4000   30.4670   50.8200 H   0  0  0  0  0  0  0  0  0  0  0  0
   36.1660   29.5730   49.4190 H   0  0  0  0  0  0  0  0  0  0  0  0
   37.6140   30.9130   51.8410 H   0  0  0  0  0  0  0  0  0  0  0  0
   38.4700   29.9290   50.5320 H   0  0  0  0  0  0  0  0  0  0  0  0
   38.9420   33.7370   49.1560 C   0  0  0  0  0  0  0  0  0  0  0  0
   38.4050   34.6430   49.1670 H   0  0  0  0  0  0  0  0  0  0  0  0
   39.6790   34.0850   50.0810 O   0  0  0  0  0  0  0  0  0  0  0  0
  1  9  1  0  0  0  0
  2  1  1  0  0  0  0
  2 17  1  0  0  0  0
  3  2  2  0  0  0  0
  4  5  2  0  0  0  0
  4  3  1  0  0  0  0
  5  6  1  0  0  0  0
  6  1  2  0  0  0  0
  7  3  1  0  0  0  0
  8  5  1  0  0  0  0
  9 10  1  0  0  0  0
  9 12  1  0  0  0  0
  9 11  1  0  0  0  0
 10 11  1  0  0  0  0
 10 13  1  0  0  0  0
 11 15  1  0  0  0  0
 14 10  1  0  0  0  0
 16 11  1  0  0  0  0
 17 18  1  0  0  0  0
 17 19  2  0  0  0  0
M  END
>  <minimizedAffinity>
-4.42176437

>  <minimizedRMSD>
2.02548265

$$$$
