
 OpenBabel03272506283D

 36 38  0  0  0  0  0  0  0  0999 V2000
   38.8780   25.2370   35.3330 C   0  0  0  0  0  0  0  0  0  0  0  0
   38.6990   26.4490   35.9650 C   0  0  0  0  0  0  0  0  0  0  0  0
   37.9840   27.5160   35.4230 C   0  0  0  0  0  0  0  0  0  0  0  0
   37.4050   27.3450   34.1450 C   0  0  0  0  0  0  0  0  0  0  0  0
   37.6000   26.1220   33.5390 C   0  0  0  0  0  0  0  0  0  0  0  0
   38.3010   25.0870   34.0780 C   0  0  0  0  0  0  0  0  0  0  0  0
   39.1380   26.6180   36.9630 H   0  0  0  0  0  0  0  0  0  0  0  0
   37.9110   28.4380   36.0260 H   0  0  0  0  0  0  0  0  0  0  0  0
   36.8870   28.2200   33.8360 H   0  0  0  0  0  0  0  0  0  0  0  0
   37.1100   26.1970   32.6160 H   0  0  0  0  0  0  0  0  0  0  0  0
   40.8990   23.9100   35.4980 C   0  0  0  0  0  0  0  0  0  0  0  0
   39.6490   24.2480   36.0480 C   0  0  0  0  0  0  0  0  0  0  0  0
   39.2510   23.6110   37.2270 C   0  0  0  0  0  0  0  0  0  0  0  0
   40.0810   22.6960   37.7950 N   0  0  0  0  0  0  0  0  0  0  0  0
   41.2900   22.3850   37.2430 C   0  0  0  0  0  0  0  0  0  0  0  0
   41.6930   22.9930   36.0970 N   0  0  0  0  0  0  0  0  0  0  0  0
   41.2310   24.3860   34.5900 H   0  0  0  0  0  0  0  0  0  0  0  0
   41.8590   21.6380   37.7940 H   0  0  0  0  0  0  0  0  0  0  0  0
   37.9540   23.8670   37.9150 C   0  0  0  0  0  0  0  0  0  0  0  0
   38.0920   24.9670   38.7820 F   0  0  0  0  0  0  0  0  0  0  0  0
   36.8920   24.0770   37.1160 F   0  0  0  0  0  0  0  0  0  0  0  0
   37.6660   22.8100   38.7820 F   0  0  0  0  0  0  0  0  0  0  0  0
   38.5340   23.5390   33.2850 S   0  0  0  0  0  0  0  0  0  0  0  0
   36.5460   22.5020   31.1250 Cl  0  0  0  0  0  0  0  0  0  0  0  0
   36.5110   21.8620   32.7540 C   0  0  0  0  0  0  0  0  0  0  0  0
   37.3570   22.3080   33.7620 C   0  0  0  0  0  0  0  0  0  0  0  0
   37.2630   21.7970   35.0220 C   0  0  0  0  0  0  0  0  0  0  0  0
   36.3120   20.8220   35.2770 C   0  0  0  0  0  0  0  0  0  0  0  0
   35.4650   20.3710   34.2750 C   0  0  0  0  0  0  0  0  0  0  0  0
   35.5510   20.8880   32.9870 C   0  0  0  0  0  0  0  0  0  0  0  0
   37.8320   22.0920   35.8660 H   0  0  0  0  0  0  0  0  0  0  0  0
   36.1500   20.3470   36.2360 H   0  0  0  0  0  0  0  0  0  0  0  0
   34.7090   19.6040   34.4570 H   0  0  0  0  0  0  0  0  0  0  0  0
   34.6620   20.4160   31.9310 C   0  0  0  0  0  0  0  0  0  0  0  0
   34.2940   21.0960   31.2040 H   0  0  0  0  0  0  0  0  0  0  0  0
   34.3520   19.2000   31.9080 O   0  0  0  0  0  0  0  0  0  0  0  0
  1  2  1  0  0  0  0
  1 12  1  0  0  0  0
  2  7  1  0  0  0  0
  3  2  2  0  0  0  0
  3  8  1  0  0  0  0
  4  3  1  0  0  0  0
  5  6  1  0  0  0  0
  5  4  2  0  0  0  0
  6  1  2  0  0  0  0
  9  4  1  0  0  0  0
 10  5  1  0  0  0  0
 11 12  2  0  0  0  0
 11 16  1  0  0  0  0
 12 13  1  0  0  0  0
 13 14  2  0  0  0  0
 13 19  1  0  0  0  0
 15 18  1  0  0  0  0
 15 14  1  0  0  0  0
 16 15  2  0  0  0  0
 17 11  1  0  0  0  0
 19 22  1  0  0  0  0
 19 20  1  0  0  0  0
 21 19  1  0  0  0  0
 23 26  1  0  0  0  0
 23  6  1  0  0  0  0
 24 25  1  0  0  0  0
 25 30  2  0  0  0  0
 25 26  1  0  0  0  0
 26 27  2  0  0  0  0
 27 28  1  0  0  0  0
 27 31  1  0  0  0  0
 28 32  1  0  0  0  0
 29 33  1  0  0  0  0
 29 28  2  0  0  0  0
 30 29  1  0  0  0  0
 34 30  1  0  0  0  0
 35 34  1  0  0  0  0
 36 34  2  0  0  0  0
M  END
>  <minimizedAffinity>
-6.57432508

$$$$

 OpenBabel03272506283D

 36 38  0  0  0  0  0  0  0  0999 V2000
   38.7130   26.4170   32.8070 C   0  0  0  0  0  0  0  0  0  0  0  0
   39.7150   26.9130   32.0020 C   0  0  0  0  0  0  0  0  0  0  0  0
   40.9510   27.3540   32.4720 C   0  0  0  0  0  0  0  0  0  0  0  0
   41.1930   27.2880   33.8630 C   0  0  0  0  0  0  0  0  0  0  0  0
   40.1720   26.7860   34.6430 C   0  0  0  0  0  0  0  0  0  0  0  0
   38.9680   26.3580   34.1720 C   0  0  0  0  0  0  0  0  0  0  0  0
   39.5600   26.9800   30.9120 H   0  0  0  0  0  0  0  0  0  0  0  0
   41.6740   27.7320   31.7280 H   0  0  0  0  0  0  0  0  0  0  0  0
   42.1630   27.6480   34.1040 H   0  0  0  0  0  0  0  0  0  0  0  0
   40.5370   26.8250   35.6240 H   0  0  0  0  0  0  0  0  0  0  0  0
   37.4290   24.6630   31.7340 C   0  0  0  0  0  0  0  0  0  0  0  0
   37.4980   26.0080   32.1430 C   0  0  0  0  0  0  0  0  0  0  0  0
   36.4030   26.8370   31.8800 C   0  0  0  0  0  0  0  0  0  0  0  0
   35.3200   26.3160   31.2450 N   0  0  0  0  0  0  0  0  0  0  0  0
   35.2760   25.0080   30.8580 C   0  0  0  0  0  0  0  0  0  0  0  0
   36.3300   24.1880   31.1050 N   0  0  0  0  0  0  0  0  0  0  0  0
   38.2570   24.0030   31.9250 H   0  0  0  0  0  0  0  0  0  0  0  0
   34.3530   24.7160   30.3590 H   0  0  0  0  0  0  0  0  0  0  0  0
   36.3420   28.2790   32.2510 C   0  0  0  0  0  0  0  0  0  0  0  0
   36.3910   28.4060   33.6510 F   0  0  0  0  0  0  0  0  0  0  0  0
   37.2900   29.0680   31.7120 F   0  0  0  0  0  0  0  0  0  0  0  0
   35.0850   28.7940   31.9250 F   0  0  0  0  0  0  0  0  0  0  0  0
   37.6850   25.7220   35.1870 S   0  0  0  0  0  0  0  0  0  0  0  0
   39.5850   23.3440   34.5350 Cl  0  0  0  0  0  0  0  0  0  0  0  0
   39.1290   23.6970   36.1870 C   0  0  0  0  0  0  0  0  0  0  0  0
   38.2640   24.7290   36.5310 C   0  0  0  0  0  0  0  0  0  0  0  0
   37.9170   24.9380   37.8320 C   0  0  0  0  0  0  0  0  0  0  0  0
   38.4460   24.1050   38.8060 C   0  0  0  0  0  0  0  0  0  0  0  0
   39.3110   23.0740   38.4700 C   0  0  0  0  0  0  0  0  0  0  0  0
   39.6690   22.8510   37.1440 C   0  0  0  0  0  0  0  0  0  0  0  0
   37.2410   25.6700   38.1950 H   0  0  0  0  0  0  0  0  0  0  0  0
   38.2420   24.1800   39.8660 H   0  0  0  0  0  0  0  0  0  0  0  0
   39.7380   22.4080   39.2220 H   0  0  0  0  0  0  0  0  0  0  0  0
   40.5780   21.7680   36.7880 C   0  0  0  0  0  0  0  0  0  0  0  0
   40.4950   21.2940   35.8420 H   0  0  0  0  0  0  0  0  0  0  0  0
   41.4500   21.4180   37.6210 O   0  0  0  0  0  0  0  0  0  0  0  0
  1  6  1  0  0  0  0
  2  3  1  0  0  0  0
  2  1  2  0  0  0  0
  3  4  2  0  0  0  0
  4  9  1  0  0  0  0
  4  5  1  0  0  0  0
  5 10  1  0  0  0  0
  6  5  2  0  0  0  0
  6 23  1  0  0  0  0
  7  2  1  0  0  0  0
  8  3  1  0  0  0  0
 11 17  1  0  0  0  0
 11 12  1  0  0  0  0
 12  1  1  0  0  0  0
 13 12  2  0  0  0  0
 13 19  1  0  0  0  0
 14 13  1  0  0  0  0
 15 16  1  0  0  0  0
 15 14  2  0  0  0  0
 16 11  2  0  0  0  0
 18 15  1  0  0  0  0
 19 20  1  0  0  0  0
 21 19  1  0  0  0  0
 22 19  1  0  0  0  0
 23 26  1  0  0  0  0
 24 25  1  0  0  0  0
 25 26  2  0  0  0  0
 25 30  1  0  0  0  0
 26 27  1  0  0  0  0
 27 31  1  0  0  0  0
 27 28  2  0  0  0  0
 28 32  1  0  0  0  0
 29 28  1  0  0  0  0
 29 33  1  0  0  0  0
 30 29  2  0  0  0  0
 34 30  1  0  0  0  0
 34 36  2  0  0  0  0
 35 34  1  0  0  0  0
M  END
>  <minimizedAffinity>
-6.19507456

$$$$

 OpenBabel03272506283D

 36 38  0  0  0  0  0  0  0  0999 V2000
   39.5910   24.4540   35.1220 C   0  0  0  0  0  0  0  0  0  0  0  0
   40.1750   25.6990   35.0260 C   0  0  0  0  0  0  0  0  0  0  0  0
   39.6240   26.7680   34.3200 C   0  0  0  0  0  0  0  0  0  0  0  0
   38.3890   26.5640   33.6630 C   0  0  0  0  0  0  0  0  0  0  0  0
   37.8300   25.3090   33.7790 C   0  0  0  0  0  0  0  0  0  0  0  0
   38.3770   24.2710   34.4710 C   0  0  0  0  0  0  0  0  0  0  0  0
   41.1390   25.8930   35.5250 H   0  0  0  0  0  0  0  0  0  0  0  0
   40.1870   27.7180   34.3150 H   0  0  0  0  0  0  0  0  0  0  0  0
   38.0690   27.4440   33.1610 H   0  0  0  0  0  0  0  0  0  0  0  0
   36.9410   25.3570   33.2270 H   0  0  0  0  0  0  0  0  0  0  0  0
   41.4000   22.8470   35.2630 C   0  0  0  0  0  0  0  0  0  0  0  0
   40.3070   23.4670   35.8950 C   0  0  0  0  0  0  0  0  0  0  0  0
   39.9990   23.0890   37.2060 C   0  0  0  0  0  0  0  0  0  0  0  0
   40.7620   22.1430   37.8160 N   0  0  0  0  0  0  0  0  0  0  0  0
   41.8180   21.5550   37.1810 C   0  0  0  0  0  0  0  0  0  0  0  0
   42.1320   21.9100   35.9080 N   0  0  0  0  0  0  0  0  0  0  0  0
   41.6600   23.1200   34.2540 H   0  0  0  0  0  0  0  0  0  0  0  0
   42.3480   20.8140   37.7790 H   0  0  0  0  0  0  0  0  0  0  0  0
   38.8690   23.6580   37.9930 C   0  0  0  0  0  0  0  0  0  0  0  0
   37.7090   22.8930   37.7680 F   0  0  0  0  0  0  0  0  0  0  0  0
   39.0670   23.7610   39.3210 F   0  0  0  0  0  0  0  0  0  0  0  0
   38.5290   24.9150   37.4870 F   0  0  0  0  0  0  0  0  0  0  0  0
   37.6440   22.6830   34.6030 S   0  0  0  0  0  0  0  0  0  0  0  0
   35.4190   20.5090   34.4760 Cl  0  0  0  0  0  0  0  0  0  0  0  0
   36.3030   20.9690   33.0370 C   0  0  0  0  0  0  0  0  0  0  0  0
   37.3220   21.9130   33.0430 C   0  0  0  0  0  0  0  0  0  0  0  0
   38.0000   22.2090   31.8980 C   0  0  0  0  0  0  0  0  0  0  0  0
   37.6510   21.5530   30.7280 C   0  0  0  0  0  0  0  0  0  0  0  0
   36.6330   20.6100   30.7150 C   0  0  0  0  0  0  0  0  0  0  0  0
   35.9380   20.3000   31.8780 C   0  0  0  0  0  0  0  0  0  0  0  0
   38.8130   22.8820   31.8030 H   0  0  0  0  0  0  0  0  0  0  0  0
   38.1180   21.7100   29.7650 H   0  0  0  0  0  0  0  0  0  0  0  0
   36.3430   20.0840   29.8030 H   0  0  0  0  0  0  0  0  0  0  0  0
   34.8670   19.3100   31.8670 C   0  0  0  0  0  0  0  0  0  0  0  0
   33.8890   19.5880   31.5610 H   0  0  0  0  0  0  0  0  0  0  0  0
   35.1330   18.1350   32.2230 O   0  0  0  0  0  0  0  0  0  0  0  0
  1 12  1  0  0  0  0
  2  1  1  0  0  0  0
  2  7  1  0  0  0  0
  3  2  2  0  0  0  0
  4  5  2  0  0  0  0
  4  3  1  0  0  0  0
  5  6  1  0  0  0  0
  6 23  1  0  0  0  0
  6  1  2  0  0  0  0
  8  3  1  0  0  0  0
  9  4  1  0  0  0  0
 10  5  1  0  0  0  0
 11 12  2  0  0  0  0
 11 16  1  0  0  0  0
 12 13  1  0  0  0  0
 13 14  2  0  0  0  0
 13 19  1  0  0  0  0
 15 18  1  0  0  0  0
 15 14  1  0  0  0  0
 16 15  2  0  0  0  0
 17 11  1  0  0  0  0
 19 21  1  0  0  0  0
 20 19  1  0  0  0  0
 22 19  1  0  0  0  0
 25 26  1  0  0  0  0
 25 24  1  0  0  0  0
 26 23  1  0  0  0  0
 27 26  2  0  0  0  0
 28 27  1  0  0  0  0
 29 28  2  0  0  0  0
 29 30  1  0  0  0  0
 30 25  2  0  0  0  0
 31 27  1  0  0  0  0
 32 28  1  0  0  0  0
 33 29  1  0  0  0  0
 34 30  1  0  0  0  0
 34 36  2  0  0  0  0
 35 34  1  0  0  0  0
M  END
>  <minimizedAffinity>
-5.89114714

$$$$

 OpenBabel03272506283D

 36 38  0  0  0  0  0  0  0  0999 V2000
   37.8510   22.2450   34.2040 C   0  0  0  0  0  0  0  0  0  0  0  0
   36.9630   21.2050   34.3790 C   0  0  0  0  0  0  0  0  0  0  0  0
   35.8760   20.9550   33.5430 C   0  0  0  0  0  0  0  0  0  0  0  0
   35.6700   21.8220   32.4460 C   0  0  0  0  0  0  0  0  0  0  0  0
   36.5740   22.8520   32.2960 C   0  0  0  0  0  0  0  0  0  0  0  0
   37.6340   23.0870   33.1200 C   0  0  0  0  0  0  0  0  0  0  0  0
   37.0930   20.5100   35.2250 H   0  0  0  0  0  0  0  0  0  0  0  0
   35.2340   20.0900   33.7870 H   0  0  0  0  0  0  0  0  0  0  0  0
   34.8160   21.5350   31.8820 H   0  0  0  0  0  0  0  0  0  0  0  0
   36.2510   23.3750   31.4480 H   0  0  0  0  0  0  0  0  0  0  0  0
   40.1850   21.8990   34.7570 C   0  0  0  0  0  0  0  0  0  0  0  0
   38.9170   22.3490   35.1700 C   0  0  0  0  0  0  0  0  0  0  0  0
   38.7860   22.8550   36.4670 C   0  0  0  0  0  0  0  0  0  0  0  0
   39.8800   22.8940   37.2740 N   0  0  0  0  0  0  0  0  0  0  0  0
   41.0990   22.4520   36.8500 C   0  0  0  0  0  0  0  0  0  0  0  0
   41.2460   21.9570   35.5940 N   0  0  0  0  0  0  0  0  0  0  0  0
   40.3140   21.5050   33.7630 H   0  0  0  0  0  0  0  0  0  0  0  0
   41.8930   22.5370   37.5910 H   0  0  0  0  0  0  0  0  0  0  0  0
   37.5060   23.3590   37.0390 C   0  0  0  0  0  0  0  0  0  0  0  0
   37.7130   23.7620   38.3710 F   0  0  0  0  0  0  0  0  0  0  0  0
   36.9160   24.3670   36.3700 F   0  0  0  0  0  0  0  0  0  0  0  0
   36.5970   22.3040   37.1600 F   0  0  0  0  0  0  0  0  0  0  0  0
   38.7710   24.4060   32.9060 S   0  0  0  0  0  0  0  0  0  0  0  0
   36.4500   26.3230   32.1130 Cl  0  0  0  0  0  0  0  0  0  0  0  0
   37.3900   26.6070   33.5620 C   0  0  0  0  0  0  0  0  0  0  0  0
   38.4520   25.7990   33.9470 C   0  0  0  0  0  0  0  0  0  0  0  0
   39.1710   26.0870   35.0690 C   0  0  0  0  0  0  0  0  0  0  0  0
   38.8200   27.1980   35.8200 C   0  0  0  0  0  0  0  0  0  0  0  0
   37.7600   28.0090   35.4410 C   0  0  0  0  0  0  0  0  0  0  0  0
   37.0220   27.7250   34.2970 C   0  0  0  0  0  0  0  0  0  0  0  0
   40.0160   25.5590   35.4290 H   0  0  0  0  0  0  0  0  0  0  0  0
   39.3170   27.5190   36.7250 H   0  0  0  0  0  0  0  0  0  0  0  0
   37.4680   28.8880   36.0190 H   0  0  0  0  0  0  0  0  0  0  0  0
   35.9070   28.5750   33.8970 C   0  0  0  0  0  0  0  0  0  0  0  0
   35.3500   28.3440   33.0230 H   0  0  0  0  0  0  0  0  0  0  0  0
   35.6290   29.5730   34.6060 O   0  0  0  0  0  0  0  0  0  0  0  0
  1  2  1  0  0  0  0
  1 12  1  0  0  0  0
  2  7  1  0  0  0  0
  3  8  1  0  0  0  0
  3  2  2  0  0  0  0
  4  3  1  0  0  0  0
  5  4  2  0  0  0  0
  5  6  1  0  0  0  0
  6  1  2  0  0  0  0
  9  4  1  0  0  0  0
 10  5  1  0  0  0  0
 11 12  2  0  0  0  0
 11 16  1  0  0  0  0
 12 13  1  0  0  0  0
 13 19  1  0  0  0  0
 13 14  2  0  0  0  0
 15 14  1  0  0  0  0
 15 18  1  0  0  0  0
 16 15  2  0  0  0  0
 17 11  1  0  0  0  0
 19 22  1  0  0  0  0
 19 20  1  0  0  0  0
 21 19  1  0  0  0  0
 23  6  1  0  0  0  0
 23 26  1  0  0  0  0
 24 25  1  0  0  0  0
 25 26  2  0  0  0  0
 25 30  1  0  0  0  0
 26 27  1  0  0  0  0
 27 31  1  0  0  0  0
 27 28  2  0  0  0  0
 28 32  1  0  0  0  0
 29 28  1  0  0  0  0
 29 33  1  0  0  0  0
 30 29  2  0  0  0  0
 34 30  1  0  0  0  0
 34 36  2  0  0  0  0
 35 34  1  0  0  0  0
M  END
>  <minimizedAffinity>
-5.83213425

$$$$

 OpenBabel03272506283D

 36 38  0  0  0  0  0  0  0  0999 V2000
   38.1200   22.6780   34.0490 C   0  0  0  0  0  0  0  0  0  0  0  0
   37.4270   21.5070   33.8300 C   0  0  0  0  0  0  0  0  0  0  0  0
   36.4270   21.3570   32.8720 C   0  0  0  0  0  0  0  0  0  0  0  0
   36.1010   22.4760   32.0710 C   0  0  0  0  0  0  0  0  0  0  0  0
   36.8120   23.6330   32.3130 C   0  0  0  0  0  0  0  0  0  0  0  0
   37.7880   23.7680   33.2530 C   0  0  0  0  0  0  0  0  0  0  0  0
   37.6540   20.6140   34.4370 H   0  0  0  0  0  0  0  0  0  0  0  0
   35.9430   20.3680   32.7910 H   0  0  0  0  0  0  0  0  0  0  0  0
   35.3290   22.2440   31.3790 H   0  0  0  0  0  0  0  0  0  0  0  0
   36.4250   24.3340   31.6370 H   0  0  0  0  0  0  0  0  0  0  0  0
   40.4160   22.2550   34.6980 C   0  0  0  0  0  0  0  0  0  0  0  0
   39.1220   22.6470   35.0870 C   0  0  0  0  0  0  0  0  0  0  0  0
   38.9060   22.9740   36.4290 C   0  0  0  0  0  0  0  0  0  0  0  0
   39.9460   22.9010   37.3020 N   0  0  0  0  0  0  0  0  0  0  0  0
   41.1930   22.5170   36.9010 C   0  0  0  0  0  0  0  0  0  0  0  0
   41.4220   22.1960   35.6010 N   0  0  0  0  0  0  0  0  0  0  0  0
   40.6110   21.9990   33.6700 H   0  0  0  0  0  0  0  0  0  0  0  0
   41.9370   22.4990   37.6950 H   0  0  0  0  0  0  0  0  0  0  0  0
   37.5890   23.3990   36.9810 C   0  0  0  0  0  0  0  0  0  0  0  0
   37.6890   23.5420   38.3780 F   0  0  0  0  0  0  0  0  0  0  0  0
   37.0710   24.5310   36.4680 F   0  0  0  0  0  0  0  0  0  0  0  0
   36.6600   22.3670   36.8290 F   0  0  0  0  0  0  0  0  0  0  0  0
   38.6770   25.2530   33.5400 S   0  0  0  0  0  0  0  0  0  0  0  0
   38.2210   26.6350   30.7880 Cl  0  0  0  0  0  0  0  0  0  0  0  0
   37.4800   27.2690   32.2410 C   0  0  0  0  0  0  0  0  0  0  0  0
   37.6720   26.7070   33.4970 C   0  0  0  0  0  0  0  0  0  0  0  0
   37.0950   27.2630   34.6000 C   0  0  0  0  0  0  0  0  0  0  0  0
   36.3120   28.3960   34.4450 C   0  0  0  0  0  0  0  0  0  0  0  0
   36.1150   28.9610   33.1930 C   0  0  0  0  0  0  0  0  0  0  0  0
   36.7010   28.4030   32.0630 C   0  0  0  0  0  0  0  0  0  0  0  0
   37.2070   26.9360   35.6030 H   0  0  0  0  0  0  0  0  0  0  0  0
   35.8070   28.9170   35.2470 H   0  0  0  0  0  0  0  0  0  0  0  0
   35.5020   29.8530   33.0510 H   0  0  0  0  0  0  0  0  0  0  0  0
   36.4960   28.9950   30.7450 C   0  0  0  0  0  0  0  0  0  0  0  0
   36.9330   28.5470   29.8880 H   0  0  0  0  0  0  0  0  0  0  0  0
   35.7970   30.0350   30.6570 O   0  0  0  0  0  0  0  0  0  0  0  0
  1 12  1  0  0  0  0
  2  1  1  0  0  0  0
  2  7  1  0  0  0  0
  3  2  2  0  0  0  0
  4  5  2  0  0  0  0
  4  3  1  0  0  0  0
  5  6  1  0  0  0  0
  6 23  1  0  0  0  0
  6  1  2  0  0  0  0
  8  3  1  0  0  0  0
  9  4  1  0  0  0  0
 10  5  1  0  0  0  0
 11 12  2  0  0  0  0
 11 16  1  0  0  0  0
 12 13  1  0  0  0  0
 13 19  1  0  0  0  0
 13 14  2  0  0  0  0
 15 14  1  0  0  0  0
 15 18  1  0  0  0  0
 16 15  2  0  0  0  0
 17 11  1  0  0  0  0
 19 20  1  0  0  0  0
 21 19  1  0  0  0  0
 22 19  1  0  0  0  0
 24 25  1  0  0  0  0
 25 26  1  0  0  0  0
 26 23  1  0  0  0  0
 26 27  2  0  0  0  0
 27 31  1  0  0  0  0
 28 27  1  0  0  0  0
 28 32  1  0  0  0  0
 29 28  2  0  0  0  0
 30 25  2  0  0  0  0
 30 29  1  0  0  0  0
 33 29  1  0  0  0  0
 34 30  1  0  0  0  0
 35 34  1  0  0  0  0
 36 34  2  0  0  0  0
M  END
>  <minimizedAffinity>
-5.71736574

$$$$

 OpenBabel03272506283D

 36 38  0  0  0  0  0  0  0  0999 V2000
   36.9640   21.7710   31.7420 C   0  0  0  0  0  0  0  0  0  0  0  0
   35.8090   21.2450   31.2030 C   0  0  0  0  0  0  0  0  0  0  0  0
   34.8860   20.4870   31.9210 C   0  0  0  0  0  0  0  0  0  0  0  0
   35.1490   20.2420   33.2880 C   0  0  0  0  0  0  0  0  0  0  0  0
   36.3110   20.7820   33.7990 C   0  0  0  0  0  0  0  0  0  0  0  0
   37.2060   21.5220   33.0870 C   0  0  0  0  0  0  0  0  0  0  0  0
   35.5730   21.4160   30.1390 H   0  0  0  0  0  0  0  0  0  0  0  0
   33.9980   20.1180   31.3790 H   0  0  0  0  0  0  0  0  0  0  0  0
   34.3800   19.6560   33.7300 H   0  0  0  0  0  0  0  0  0  0  0  0
   36.3270   20.4870   34.8040 H   0  0  0  0  0  0  0  0  0  0  0  0
   38.8420   21.8270   30.2110 C   0  0  0  0  0  0  0  0  0  0  0  0
   37.8020   22.5310   30.8460 C   0  0  0  0  0  0  0  0  0  0  0  0
   37.6590   23.8940   30.5670 C   0  0  0  0  0  0  0  0  0  0  0  0
   38.5240   24.4840   29.6980 N   0  0  0  0  0  0  0  0  0  0  0  0
   39.5250   23.7800   29.0950 C   0  0  0  0  0  0  0  0  0  0  0  0
   39.6790   22.4550   29.3540 N   0  0  0  0  0  0  0  0  0  0  0  0
   38.9740   20.7770   30.4070 H   0  0  0  0  0  0  0  0  0  0  0  0
   40.1470   24.3680   28.4220 H   0  0  0  0  0  0  0  0  0  0  0  0
   36.6090   24.7620   31.1700 C   0  0  0  0  0  0  0  0  0  0  0  0
   35.3630   24.4630   30.5890 F   0  0  0  0  0  0  0  0  0  0  0  0
   36.4880   24.7000   32.5090 F   0  0  0  0  0  0  0  0  0  0  0  0
   36.8270   26.0910   30.7970 F   0  0  0  0  0  0  0  0  0  0  0  0
   38.6770   22.1990   33.7620 S   0  0  0  0  0  0  0  0  0  0  0  0
   39.4350   25.1980   33.4170 Cl  0  0  0  0  0  0  0  0  0  0  0  0
   38.7330   24.6200   34.9110 C   0  0  0  0  0  0  0  0  0  0  0  0
   38.4010   23.2880   35.1280 C   0  0  0  0  0  0  0  0  0  0  0  0
   37.8870   22.8870   36.3250 C   0  0  0  0  0  0  0  0  0  0  0  0
   37.6980   23.8330   37.3200 C   0  0  0  0  0  0  0  0  0  0  0  0
   38.0260   25.1650   37.1100 C   0  0  0  0  0  0  0  0  0  0  0  0
   38.5530   25.5820   35.8930 C   0  0  0  0  0  0  0  0  0  0  0  0
   37.6360   21.8950   36.6030 H   0  0  0  0  0  0  0  0  0  0  0  0
   37.2970   23.6290   38.3040 H   0  0  0  0  0  0  0  0  0  0  0  0
   37.8840   25.9240   37.8820 H   0  0  0  0  0  0  0  0  0  0  0  0
   38.8990   26.9820   35.6700 C   0  0  0  0  0  0  0  0  0  0  0  0
   39.9110   27.2600   35.5120 H   0  0  0  0  0  0  0  0  0  0  0  0
   37.9770   27.8350   35.6700 O   0  0  0  0  0  0  0  0  0  0  0  0
  1  6  1  0  0  0  0
  2  1  2  0  0  0  0
  2  3  1  0  0  0  0
  3  4  2  0  0  0  0
  4  9  1  0  0  0  0
  4  5  1  0  0  0  0
  5 10  1  0  0  0  0
  6 23  1  0  0  0  0
  6  5  2  0  0  0  0
  7  2  1  0  0  0  0
  8  3  1  0  0  0  0
 11 17  1  0  0  0  0
 11 12  1  0  0  0  0
 12  1  1  0  0  0  0
 13 12  2  0  0  0  0
 13 19  1  0  0  0  0
 14 13  1  0  0  0  0
 15 16  1  0  0  0  0
 15 14  2  0  0  0  0
 16 11  2  0  0  0  0
 18 15  1  0  0  0  0
 19 21  1  0  0  0  0
 20 19  1  0  0  0  0
 22 19  1  0  0  0  0
 23 26  1  0  0  0  0
 24 25  1  0  0  0  0
 25 26  2  0  0  0  0
 25 30  1  0  0  0  0
 26 27  1  0  0  0  0
 27 31  1  0  0  0  0
 27 28  2  0  0  0  0
 28 32  1  0  0  0  0
 29 28  1  0  0  0  0
 29 33  1  0  0  0  0
 30 29  2  0  0  0  0
 34 36  2  0  0  0  0
 34 30  1  0  0  0  0
 35 34  1  0  0  0  0
M  END
>  <minimizedAffinity>
-5.70013189

$$$$

 OpenBabel03272506283D

 36 38  0  0  0  0  0  0  0  0999 V2000
   37.7160   25.9010   32.4430 C   0  0  0  0  0  0  0  0  0  0  0  0
   37.1470   26.9960   31.8280 C   0  0  0  0  0  0  0  0  0  0  0  0
   35.9530   26.9570   31.1100 C   0  0  0  0  0  0  0  0  0  0  0  0
   35.2810   25.7170   31.0060 C   0  0  0  0  0  0  0  0  0  0  0  0
   35.8740   24.6410   31.6320 C   0  0  0  0  0  0  0  0  0  0  0  0
   37.0420   24.6910   32.3320 C   0  0  0  0  0  0  0  0  0  0  0  0
   37.6440   27.9790   31.8880 H   0  0  0  0  0  0  0  0  0  0  0  0
   35.5970   27.9010   30.6610 H   0  0  0  0  0  0  0  0  0  0  0  0
   34.3880   25.8080   30.4390 H   0  0  0  0  0  0  0  0  0  0  0  0
   35.2410   23.8300   31.4360 H   0  0  0  0  0  0  0  0  0  0  0  0
   40.1400   25.8760   32.4240 C   0  0  0  0  0  0  0  0  0  0  0  0
   38.9570   26.1310   33.1430 C   0  0  0  0  0  0  0  0  0  0  0  0
   39.0690   26.5820   34.4620 C   0  0  0  0  0  0  0  0  0  0  0  0
   40.3080   26.7560   34.9960 N   0  0  0  0  0  0  0  0  0  0  0  0
   41.4400   26.5010   34.2790 C   0  0  0  0  0  0  0  0  0  0  0  0
   41.3510   26.0640   32.9960 N   0  0  0  0  0  0  0  0  0  0  0  0
   40.0820   25.5290   31.4060 H   0  0  0  0  0  0  0  0  0  0  0  0
   42.3680   26.6810   34.8210 H   0  0  0  0  0  0  0  0  0  0  0  0
   37.9050   26.8850   35.3410 C   0  0  0  0  0  0  0  0  0  0  0  0
   38.3600   27.1580   36.6440 F   0  0  0  0  0  0  0  0  0  0  0  0
   37.1100   27.8950   34.9400 F   0  0  0  0  0  0  0  0  0  0  0  0
   37.1280   25.7360   35.5050 F   0  0  0  0  0  0  0  0  0  0  0  0
   37.7750   23.3060   33.1210 S   0  0  0  0  0  0  0  0  0  0  0  0
   38.2220   21.9590   30.3500 Cl  0  0  0  0  0  0  0  0  0  0  0  0
   37.2000   21.2070   31.5560 C   0  0  0  0  0  0  0  0  0  0  0  0
   36.9460   21.7780   32.7970 C   0  0  0  0  0  0  0  0  0  0  0  0
   36.1140   21.1630   33.6850 C   0  0  0  0  0  0  0  0  0  0  0  0
   35.5310   19.9580   33.3290 C   0  0  0  0  0  0  0  0  0  0  0  0
   35.7810   19.3820   32.0920 C   0  0  0  0  0  0  0  0  0  0  0  0
   36.6260   20.0020   31.1780 C   0  0  0  0  0  0  0  0  0  0  0  0
   35.8270   21.5300   34.6380 H   0  0  0  0  0  0  0  0  0  0  0  0
   34.8590   19.3840   33.9530 H   0  0  0  0  0  0  0  0  0  0  0  0
   35.3310   18.4330   31.7930 H   0  0  0  0  0  0  0  0  0  0  0  0
   36.8910   19.3990   29.8770 C   0  0  0  0  0  0  0  0  0  0  0  0
   36.4290   19.7910   29.0050 H   0  0  0  0  0  0  0  0  0  0  0  0
   37.6720   18.4170   29.8190 O   0  0  0  0  0  0  0  0  0  0  0  0
  1 12  1  0  0  0  0
  2  7  1  0  0  0  0
  2  1  2  0  0  0  0
  3  2  1  0  0  0  0
  4  3  2  0  0  0  0
  4  5  1  0  0  0  0
  5  6  2  0  0  0  0
  6  1  1  0  0  0  0
  6 23  1  0  0  0  0
  8  3  1  0  0  0  0
  9  4  1  0  0  0  0
 10  5  1  0  0  0  0
 11 16  2  0  0  0  0
 11 12  1  0  0  0  0
 12 13  2  0  0  0  0
 13 14  1  0  0  0  0
 13 19  1  0  0  0  0
 15 18  1  0  0  0  0
 15 14  2  0  0  0  0
 16 15  1  0  0  0  0
 17 11  1  0  0  0  0
 19 22  1  0  0  0  0
 19 20  1  0  0  0  0
 21 19  1  0  0  0  0
 24 25  1  0  0  0  0
 25 26  1  0  0  0  0
 26 23  1  0  0  0  0
 26 27  2  0  0  0  0
 27 31  1  0  0  0  0
 28 27  1  0  0  0  0
 28 32  1  0  0  0  0
 29 28  2  0  0  0  0
 30 25  2  0  0  0  0
 30 29  1  0  0  0  0
 33 29  1  0  0  0  0
 34 30  1  0  0  0  0
 35 34  1  0  0  0  0
 36 34  2  0  0  0  0
M  END
>  <minimizedAffinity>
-5.62339067

$$$$

 OpenBabel03272506283D

 36 38  0  0  0  0  0  0  0  0999 V2000
   38.9940   25.4160   35.2160 C   0  0  0  0  0  0  0  0  0  0  0  0
   38.8300   26.5860   35.9260 C   0  0  0  0  0  0  0  0  0  0  0  0
   37.9270   27.5900   35.5820 C   0  0  0  0  0  0  0  0  0  0  0  0
   37.1260   27.3970   34.4330 C   0  0  0  0  0  0  0  0  0  0  0  0
   37.3110   26.2170   33.7440 C   0  0  0  0  0  0  0  0  0  0  0  0
   38.1980   25.2420   34.0900 C   0  0  0  0  0  0  0  0  0  0  0  0
   39.4390   26.7710   36.8270 H   0  0  0  0  0  0  0  0  0  0  0  0
   37.8870   28.4840   36.2290 H   0  0  0  0  0  0  0  0  0  0  0  0
   36.4780   28.2230   34.2700 H   0  0  0  0  0  0  0  0  0  0  0  0
   36.6450   26.2660   32.9380 H   0  0  0  0  0  0  0  0  0  0  0  0
   39.5290   23.5490   36.6670 C   0  0  0  0  0  0  0  0  0  0  0  0
   39.9790   24.4900   35.7220 C   0  0  0  0  0  0  0  0  0  0  0  0
   41.3260   24.4600   35.3480 C   0  0  0  0  0  0  0  0  0  0  0  0
   42.1450   23.5300   35.9060 N   0  0  0  0  0  0  0  0  0  0  0  0
   41.6850   22.6270   36.8210 C   0  0  0  0  0  0  0  0  0  0  0  0
   40.3800   22.6410   37.1960 N   0  0  0  0  0  0  0  0  0  0  0  0
   38.4970   23.5500   36.9720 H   0  0  0  0  0  0  0  0  0  0  0  0
   42.4410   21.9360   37.1920 H   0  0  0  0  0  0  0  0  0  0  0  0
   41.9390   25.3970   34.3650 C   0  0  0  0  0  0  0  0  0  0  0  0
   41.6270   26.7220   34.7230 F   0  0  0  0  0  0  0  0  0  0  0  0
   43.2710   25.2960   34.2020 F   0  0  0  0  0  0  0  0  0  0  0  0
   41.3180   25.2470   33.1220 F   0  0  0  0  0  0  0  0  0  0  0  0
   38.4130   23.7480   33.1960 S   0  0  0  0  0  0  0  0  0  0  0  0
   36.4870   22.5740   31.0510 Cl  0  0  0  0  0  0  0  0  0  0  0  0
   36.4900   21.9510   32.6860 C   0  0  0  0  0  0  0  0  0  0  0  0
   37.3100   22.4560   33.6880 C   0  0  0  0  0  0  0  0  0  0  0  0
   37.2480   21.9540   34.9540 C   0  0  0  0  0  0  0  0  0  0  0  0
   36.3550   20.9280   35.2210 C   0  0  0  0  0  0  0  0  0  0  0  0
   35.5340   20.4180   34.2250 C   0  0  0  0  0  0  0  0  0  0  0  0
   35.5890   20.9260   32.9320 C   0  0  0  0  0  0  0  0  0  0  0  0
   37.8000   22.2900   35.7940 H   0  0  0  0  0  0  0  0  0  0  0  0
   36.2220   20.4550   36.1850 H   0  0  0  0  0  0  0  0  0  0  0  0
   34.8250   19.6110   34.4160 H   0  0  0  0  0  0  0  0  0  0  0  0
   34.7280   20.3920   31.8830 C   0  0  0  0  0  0  0  0  0  0  0  0
   34.4030   21.0200   31.0910 H   0  0  0  0  0  0  0  0  0  0  0  0
   34.3870   19.1850   31.9420 O   0  0  0  0  0  0  0  0  0  0  0  0
  1 12  1  0  0  0  0
  1  2  1  0  0  0  0
  2  7  1  0  0  0  0
  3  2  2  0  0  0  0
  3  8  1  0  0  0  0
  4  3  1  0  0  0  0
  5  6  1  0  0  0  0
  5  4  2  0  0  0  0
  6  1  2  0  0  0  0
  9  4  1  0  0  0  0
 10  5  1  0  0  0  0
 11 17  1  0  0  0  0
 11 16  1  0  0  0  0
 12 11  2  0  0  0  0
 13 12  1  0  0  0  0
 13 14  2  0  0  0  0
 14 15  1  0  0  0  0
 15 18  1  0  0  0  0
 15 16  2  0  0  0  0
 19 20  1  0  0  0  0
 19 13  1  0  0  0  0
 21 19  1  0  0  0  0
 22 19  1  0  0  0  0
 23 26  1  0  0  0  0
 23  6  1  0  0  0  0
 24 25  1  0  0  0  0
 25 30  2  0  0  0  0
 25 26  1  0  0  0  0
 26 27  2  0  0  0  0
 27 28  1  0  0  0  0
 27 31  1  0  0  0  0
 28 32  1  0  0  0  0
 29 33  1  0  0  0  0
 29 28  2  0  0  0  0
 30 29  1  0  0  0  0
 34 36  2  0  0  0  0
 34 30  1  0  0  0  0
 35 34  1  0  0  0  0
M  END
>  <minimizedAffinity>
-5.57541418

$$$$

 OpenBabel03272506283D

 36 38  0  0  0  0  0  0  0  0999 V2000
   39.3150   23.9020   34.7580 C   0  0  0  0  0  0  0  0  0  0  0  0
   39.8100   25.1610   34.4920 C   0  0  0  0  0  0  0  0  0  0  0  0
   39.2120   26.0680   33.6190 C   0  0  0  0  0  0  0  0  0  0  0  0
   38.0230   25.6740   32.9650 C   0  0  0  0  0  0  0  0  0  0  0  0
   37.5520   24.4100   33.2510 C   0  0  0  0  0  0  0  0  0  0  0  0
   38.1450   23.5320   34.1070 C   0  0  0  0  0  0  0  0  0  0  0  0
   40.7360   25.5020   34.9840 H   0  0  0  0  0  0  0  0  0  0  0  0
   39.7030   27.0480   33.4870 H   0  0  0  0  0  0  0  0  0  0  0  0
   37.6600   26.4430   32.3270 H   0  0  0  0  0  0  0  0  0  0  0  0
   36.6850   24.3070   32.6730 H   0  0  0  0  0  0  0  0  0  0  0  0
   41.1680   22.3940   35.1660 C   0  0  0  0  0  0  0  0  0  0  0  0
   40.0690   23.1000   35.6910 C   0  0  0  0  0  0  0  0  0  0  0  0
   39.7930   22.9740   37.0550 C   0  0  0  0  0  0  0  0  0  0  0  0
   40.5900   22.1800   37.8190 N   0  0  0  0  0  0  0  0  0  0  0  0
   41.6510   21.5060   37.2880 C   0  0  0  0  0  0  0  0  0  0  0  0
   41.9350   21.6170   35.9640 N   0  0  0  0  0  0  0  0  0  0  0  0
   41.4040   22.4750   34.1190 H   0  0  0  0  0  0  0  0  0  0  0  0
   42.2090   20.9060   38.0050 H   0  0  0  0  0  0  0  0  0  0  0  0
   38.6610   23.6560   37.7430 C   0  0  0  0  0  0  0  0  0  0  0  0
   38.8910   23.6640   39.1310 F   0  0  0  0  0  0  0  0  0  0  0  0
   38.3980   24.9140   37.3420 F   0  0  0  0  0  0  0  0  0  0  0  0
   37.5010   22.8890   37.6130 F   0  0  0  0  0  0  0  0  0  0  0  0
   37.5240   21.9280   34.4540 S   0  0  0  0  0  0  0  0  0  0  0  0
   39.4320   20.7740   32.2820 Cl  0  0  0  0  0  0  0  0  0  0  0  0
   37.6970   20.6050   32.1290 C   0  0  0  0  0  0  0  0  0  0  0  0
   36.8000   21.1230   33.0550 C   0  0  0  0  0  0  0  0  0  0  0  0
   35.4570   20.9900   32.8690 C   0  0  0  0  0  0  0  0  0  0  0  0
   35.0020   20.3250   31.7420 C   0  0  0  0  0  0  0  0  0  0  0  0
   35.8920   19.8040   30.8130 C   0  0  0  0  0  0  0  0  0  0  0  0
   37.2640   19.9370   30.9940 C   0  0  0  0  0  0  0  0  0  0  0  0
   34.6920   21.3780   33.4930 H   0  0  0  0  0  0  0  0  0  0  0  0
   33.9620   20.1600   31.4940 H   0  0  0  0  0  0  0  0  0  0  0  0
   35.5530   19.2760   29.9190 H   0  0  0  0  0  0  0  0  0  0  0  0
   38.2020   19.3890   30.0200 C   0  0  0  0  0  0  0  0  0  0  0  0
   38.6440   18.4380   30.1840 H   0  0  0  0  0  0  0  0  0  0  0  0
   38.4670   20.0660   28.9950 O   0  0  0  0  0  0  0  0  0  0  0  0
  1 12  1  0  0  0  0
  2  1  1  0  0  0  0
  2  7  1  0  0  0  0
  3  2  2  0  0  0  0
  4  5  2  0  0  0  0
  4  3  1  0  0  0  0
  5  6  1  0  0  0  0
  6 23  1  0  0  0  0
  6  1  2  0  0  0  0
  8  3  1  0  0  0  0
  9  4  1  0  0  0  0
 10  5  1  0  0  0  0
 11 12  2  0  0  0  0
 11 16  1  0  0  0  0
 12 13  1  0  0  0  0
 13 19  1  0  0  0  0
 13 14  2  0  0  0  0
 15 14  1  0  0  0  0
 15 18  1  0  0  0  0
 16 15  2  0  0  0  0
 17 11  1  0  0  0  0
 19 20  1  0  0  0  0
 21 19  1  0  0  0  0
 22 19  1  0  0  0  0
 25 24  1  0  0  0  0
 25 26  1  0  0  0  0
 26 23  1  0  0  0  0
 27 26  2  0  0  0  0
 27 31  1  0  0  0  0
 28 27  1  0  0  0  0
 29 30  1  0  0  0  0
 29 28  2  0  0  0  0
 30 25  2  0  0  0  0
 32 28  1  0  0  0  0
 33 29  1  0  0  0  0
 34 35  1  0  0  0  0
 34 30  1  0  0  0  0
 36 34  2  0  0  0  0
M  END
>  <minimizedAffinity>
-5.5710988

$$$$
