
 OpenBabel03262523003D

 32 35  0  0  0  0  0  0  0  0999 V2000
   36.6500   27.9190   33.7440 C   0  0  0  0  0  0  0  0  0  0  0  0
   37.5950   27.7510   32.7310 C   0  0  0  0  0  0  0  0  0  0  0  0
   38.4450   26.7310   33.0960 C   0  0  0  0  0  0  0  0  0  0  0  0
   38.0140   26.2940   34.3140 N   0  0  0  0  0  0  0  0  0  0  0  0
   36.9540   27.0260   34.6540 N   0  0  0  0  0  0  0  0  0  0  0  0
   39.4810   24.3310   34.4540 N   0  0  0  0  0  0  0  0  0  0  0  0
   38.6350   25.2340   35.0370 C   0  0  0  0  0  0  0  0  0  0  0  0
   38.5560   24.8860   36.3200 N   0  0  0  0  0  0  0  0  0  0  0  0
   39.3140   23.8030   36.5800 C   0  0  0  0  0  0  0  0  0  0  0  0
   39.6210   23.0200   37.6540 C   0  0  0  0  0  0  0  0  0  0  0  0
   40.4520   21.9810   37.5060 N   0  0  0  0  0  0  0  0  0  0  0  0
   41.0060   21.6730   36.3140 C   0  0  0  0  0  0  0  0  0  0  0  0
   40.7360   22.4110   35.2320 N   0  0  0  0  0  0  0  0  0  0  0  0
   39.9020   23.4560   35.3750 C   0  0  0  0  0  0  0  0  0  0  0  0
   37.6460   28.3290   31.8140 H   0  0  0  0  0  0  0  0  0  0  0  0
   39.2890   26.3710   32.4960 H   0  0  0  0  0  0  0  0  0  0  0  0
   39.7670   24.3160   33.4290 H   0  0  0  0  0  0  0  0  0  0  0  0
   41.6590   20.8150   36.3150 H   0  0  0  0  0  0  0  0  0  0  0  0
   33.6620   29.7580   32.7040 C   0  0  0  0  0  0  0  0  0  0  0  0
   33.5740   30.7630   33.7150 C   0  0  0  0  0  0  0  0  0  0  0  0
   34.5300   30.7810   34.7130 C   0  0  0  0  0  0  0  0  0  0  0  0
   35.5140   29.8530   34.7010 N   0  0  0  0  0  0  0  0  0  0  0  0
   35.5860   28.8970   33.7270 C   0  0  0  0  0  0  0  0  0  0  0  0
   34.6650   28.8690   32.7560 N   0  0  0  0  0  0  0  0  0  0  0  0
   32.8950   29.7850   31.9480 H   0  0  0  0  0  0  0  0  0  0  0  0
   32.7920   31.5240   33.7500 H   0  0  0  0  0  0  0  0  0  0  0  0
   34.4720   31.7840   35.7540 C   0  0  0  0  0  0  0  0  0  0  0  0
   33.7760   32.6100   35.6880 H   0  0  0  0  0  0  0  0  0  0  0  0
   35.2340   31.7120   36.7520 O   0  0  0  0  0  0  0  0  0  0  0  0
   39.0320   23.3550   38.9010 N   0  0  0  0  0  0  0  0  0  0  0  0
   39.1150   24.2300   39.4920 H   0  0  0  0  0  0  0  0  0  0  0  0
   38.4170   22.5970   39.2850 H   0  0  0  0  0  0  0  0  0  0  0  0
  1  5  2  0  0  0  0
  2  3  2  0  0  0  0
  2  1  1  0  0  0  0
  3  4  1  0  0  0  0
  4  5  1  0  0  0  0
  4  7  1  0  0  0  0
  6  7  1  0  0  0  0
  6 14  1  0  0  0  0
  7  8  2  0  0  0  0
  8  9  1  0  0  0  0
  9 10  1  0  0  0  0
 10 30  1  0  0  0  0
 11 10  2  0  0  0  0
 12 18  1  0  0  0  0
 12 11  1  0  0  0  0
 13 14  1  0  0  0  0
 13 12  2  0  0  0  0
 14  9  2  0  0  0  0
 15  2  1  0  0  0  0
 16  3  1  0  0  0  0
 17  6  1  0  0  0  0
 19 24  2  0  0  0  0
 19 20  1  0  0  0  0
 20 26  1  0  0  0  0
 20 21  2  0  0  0  0
 21 27  1  0  0  0  0
 22 21  1  0  0  0  0
 23  1  1  0  0  0  0
 23 22  2  0  0  0  0
 24 23  1  0  0  0  0
 25 19  1  0  0  0  0
 27 29  2  0  0  0  0
 28 27  1  0  0  0  0
 30 32  1  0  0  0  0
 30 31  1  0  0  0  0
M  END
>  <minimizedAffinity>
-5.69141006

$$$$

 OpenBabel03262523003D

 32 35  0  0  0  0  0  0  0  0999 V2000
   37.8520   25.3280   35.0200 C   0  0  0  0  0  0  0  0  0  0  0  0
   37.9270   24.9300   33.6840 C   0  0  0  0  0  0  0  0  0  0  0  0
   37.3900   25.9280   32.9030 C   0  0  0  0  0  0  0  0  0  0  0  0
   36.9960   26.9130   33.7620 N   0  0  0  0  0  0  0  0  0  0  0  0
   37.2890   26.5120   34.9980 N   0  0  0  0  0  0  0  0  0  0  0  0
   36.4530   28.5880   32.0520 N   0  0  0  0  0  0  0  0  0  0  0  0
   36.3880   28.1310   33.3400 C   0  0  0  0  0  0  0  0  0  0  0  0
   35.6840   29.0370   34.0140 N   0  0  0  0  0  0  0  0  0  0  0  0
   35.2970   30.0500   33.2160 C   0  0  0  0  0  0  0  0  0  0  0  0
   34.5920   31.2120   33.3280 C   0  0  0  0  0  0  0  0  0  0  0  0
   34.4150   31.9920   32.2550 N   0  0  0  0  0  0  0  0  0  0  0  0
   34.9180   31.6670   31.0450 C   0  0  0  0  0  0  0  0  0  0  0  0
   35.6170   30.5380   30.8840 N   0  0  0  0  0  0  0  0  0  0  0  0
   35.7970   29.7510   31.9590 C   0  0  0  0  0  0  0  0  0  0  0  0
   38.3410   23.9910   33.3280 H   0  0  0  0  0  0  0  0  0  0  0  0
   37.3120   25.8980   31.8100 H   0  0  0  0  0  0  0  0  0  0  0  0
   36.9450   28.1040   31.2420 H   0  0  0  0  0  0  0  0  0  0  0  0
   34.7130   32.3700   30.2540 H   0  0  0  0  0  0  0  0  0  0  0  0
   38.2050   24.0450   38.4290 C   0  0  0  0  0  0  0  0  0  0  0  0
   39.2150   23.0490   38.2610 C   0  0  0  0  0  0  0  0  0  0  0  0
   39.7400   22.8490   36.9980 C   0  0  0  0  0  0  0  0  0  0  0  0
   39.2840   23.5960   35.9670 N   0  0  0  0  0  0  0  0  0  0  0  0
   38.3170   24.5460   36.1430 C   0  0  0  0  0  0  0  0  0  0  0  0
   37.8000   24.7490   37.3610 N   0  0  0  0  0  0  0  0  0  0  0  0
   37.8280   24.1650   39.4310 H   0  0  0  0  0  0  0  0  0  0  0  0
   39.6020   22.4320   39.0730 H   0  0  0  0  0  0  0  0  0  0  0  0
   40.7640   21.8480   36.7890 C   0  0  0  0  0  0  0  0  0  0  0  0
   40.9500   21.4460   35.8020 H   0  0  0  0  0  0  0  0  0  0  0  0
   41.4530   21.4300   37.7550 O   0  0  0  0  0  0  0  0  0  0  0  0
   34.0670   31.5410   34.6050 N   0  0  0  0  0  0  0  0  0  0  0  0
   33.3670   31.0350   35.2170 H   0  0  0  0  0  0  0  0  0  0  0  0
   34.4500   32.4390   34.9900 H   0  0  0  0  0  0  0  0  0  0  0  0
  1 23  1  0  0  0  0
  2  1  1  0  0  0  0
  3  2  2  0  0  0  0
  3  4  1  0  0  0  0
  4  5  1  0  0  0  0
  5  1  2  0  0  0  0
  6  7  1  0  0  0  0
  7  4  1  0  0  0  0
  7  8  2  0  0  0  0
  9 10  1  0  0  0  0
  9  8  1  0  0  0  0
 10 30  1  0  0  0  0
 11 10  2  0  0  0  0
 12 11  1  0  0  0  0
 13 12  2  0  0  0  0
 13 14  1  0  0  0  0
 14  6  1  0  0  0  0
 14  9  2  0  0  0  0
 15  2  1  0  0  0  0
 16  3  1  0  0  0  0
 17  6  1  0  0  0  0
 18 12  1  0  0  0  0
 19 25  1  0  0  0  0
 20 19  1  0  0  0  0
 20 26  1  0  0  0  0
 21 20  2  0  0  0  0
 22 23  2  0  0  0  0
 22 21  1  0  0  0  0
 23 24  1  0  0  0  0
 24 19  2  0  0  0  0
 27 21  1  0  0  0  0
 27 29  2  0  0  0  0
 28 27  1  0  0  0  0
 30 32  1  0  0  0  0
 30 31  1  0  0  0  0
M  END
>  <minimizedAffinity>
-5.63265133

$$$$

 OpenBabel03262523003D

 32 35  0  0  0  0  0  0  0  0999 V2000
   36.5560   28.2190   32.6540 C   0  0  0  0  0  0  0  0  0  0  0  0
   37.6870   27.9700   31.8760 C   0  0  0  0  0  0  0  0  0  0  0  0
   38.4450   27.0090   32.5060 C   0  0  0  0  0  0  0  0  0  0  0  0
   37.7750   26.6860   33.6500 N   0  0  0  0  0  0  0  0  0  0  0  0
   36.6680   27.4260   33.6920 N   0  0  0  0  0  0  0  0  0  0  0  0
   39.1830   24.7780   34.2810 N   0  0  0  0  0  0  0  0  0  0  0  0
   38.2350   25.7160   34.5870 C   0  0  0  0  0  0  0  0  0  0  0  0
   37.8980   25.4940   35.8550 N   0  0  0  0  0  0  0  0  0  0  0  0
   38.5860   24.4590   36.3720 C   0  0  0  0  0  0  0  0  0  0  0  0
   38.6680   23.7920   37.5580 C   0  0  0  0  0  0  0  0  0  0  0  0
   39.5120   22.7610   37.6880 N   0  0  0  0  0  0  0  0  0  0  0  0
   40.2970   22.3480   36.6700 C   0  0  0  0  0  0  0  0  0  0  0  0
   40.2530   22.9690   35.4870 N   0  0  0  0  0  0  0  0  0  0  0  0
   39.4070   24.0060   35.3510 C   0  0  0  0  0  0  0  0  0  0  0  0
   37.9240   28.4560   30.9340 H   0  0  0  0  0  0  0  0  0  0  0  0
   39.3940   26.6090   32.1300 H   0  0  0  0  0  0  0  0  0  0  0  0
   39.6720   24.6670   33.3420 H   0  0  0  0  0  0  0  0  0  0  0  0
   40.9370   21.5080   36.8900 H   0  0  0  0  0  0  0  0  0  0  0  0
   34.8430   31.0900   31.1660 C   0  0  0  0  0  0  0  0  0  0  0  0
   33.5290   30.9570   31.7090 C   0  0  0  0  0  0  0  0  0  0  0  0
   33.2710   29.8990   32.5600 C   0  0  0  0  0  0  0  0  0  0  0  0
   34.2640   29.0280   32.8510 N   0  0  0  0  0  0  0  0  0  0  0  0
   35.5170   29.1670   32.3230 C   0  0  0  0  0  0  0  0  0  0  0  0
   35.7790   30.1880   31.4970 N   0  0  0  0  0  0  0  0  0  0  0  0
   34.9960   31.9300   30.5090 H   0  0  0  0  0  0  0  0  0  0  0  0
   32.7090   31.6440   31.4940 H   0  0  0  0  0  0  0  0  0  0  0  0
   31.9510   29.7320   33.1300 C   0  0  0  0  0  0  0  0  0  0  0  0
   31.4200   30.5770   33.5490 H   0  0  0  0  0  0  0  0  0  0  0  0
   31.4040   28.6010   33.1500 O   0  0  0  0  0  0  0  0  0  0  0  0
   37.8380   24.2360   38.6200 N   0  0  0  0  0  0  0  0  0  0  0  0
   37.7980   25.1670   39.1240 H   0  0  0  0  0  0  0  0  0  0  0  0
   37.1570   23.5070   38.9460 H   0  0  0  0  0  0  0  0  0  0  0  0
  1  5  2  0  0  0  0
  2  3  2  0  0  0  0
  2  1  1  0  0  0  0
  3  4  1  0  0  0  0
  4  5  1  0  0  0  0
  4  7  1  0  0  0  0
  6  7  1  0  0  0  0
  6 14  1  0  0  0  0
  7  8  2  0  0  0  0
  8  9  1  0  0  0  0
  9 10  1  0  0  0  0
 10 11  2  0  0  0  0
 10 30  1  0  0  0  0
 12 18  1  0  0  0  0
 12 11  1  0  0  0  0
 13 12  2  0  0  0  0
 14 13  1  0  0  0  0
 14  9  2  0  0  0  0
 15  2  1  0  0  0  0
 16  3  1  0  0  0  0
 17  6  1  0  0  0  0
 19 24  2  0  0  0  0
 19 20  1  0  0  0  0
 20 21  2  0  0  0  0
 21 22  1  0  0  0  0
 21 27  1  0  0  0  0
 23  1  1  0  0  0  0
 23 22  2  0  0  0  0
 24 23  1  0  0  0  0
 25 19  1  0  0  0  0
 26 20  1  0  0  0  0
 27 29  2  0  0  0  0
 27 28  1  0  0  0  0
 30 32  1  0  0  0  0
 30 31  1  0  0  0  0
M  END
>  <minimizedAffinity>
-5.46234989

$$$$

 OpenBabel03262523003D

 32 35  0  0  0  0  0  0  0  0999 V2000
   37.1610   26.6740   34.0850 C   0  0  0  0  0  0  0  0  0  0  0  0
   36.6970   26.8890   32.7860 C   0  0  0  0  0  0  0  0  0  0  0  0
   36.1360   28.1450   32.7270 C   0  0  0  0  0  0  0  0  0  0  0  0
   36.2630   28.6770   33.9770 N   0  0  0  0  0  0  0  0  0  0  0  0
   36.8730   27.7720   34.7410 N   0  0  0  0  0  0  0  0  0  0  0  0
   35.5160   30.9430   33.4040 N   0  0  0  0  0  0  0  0  0  0  0  0
   35.8030   29.9780   34.3310 C   0  0  0  0  0  0  0  0  0  0  0  0
   35.5660   30.5310   35.5180 N   0  0  0  0  0  0  0  0  0  0  0  0
   35.1410   31.8020   35.3910 C   0  0  0  0  0  0  0  0  0  0  0  0
   34.7620   32.8270   36.2080 C   0  0  0  0  0  0  0  0  0  0  0  0
   34.3900   33.9990   35.6790 N   0  0  0  0  0  0  0  0  0  0  0  0
   34.3770   34.2090   34.3450 C   0  0  0  0  0  0  0  0  0  0  0  0
   34.7390   33.2360   33.5030 N   0  0  0  0  0  0  0  0  0  0  0  0
   35.1140   32.0560   34.0300 C   0  0  0  0  0  0  0  0  0  0  0  0
   36.7700   26.1810   31.9660 H   0  0  0  0  0  0  0  0  0  0  0  0
   35.6880   28.5920   31.8320 H   0  0  0  0  0  0  0  0  0  0  0  0
   35.5970   30.8380   32.3480 H   0  0  0  0  0  0  0  0  0  0  0  0
   34.0590   35.1920   34.0350 H   0  0  0  0  0  0  0  0  0  0  0  0
   39.0320   23.5290   34.0440 C   0  0  0  0  0  0  0  0  0  0  0  0
   39.0480   23.1840   35.4300 C   0  0  0  0  0  0  0  0  0  0  0  0
   38.4240   24.0290   36.3280 C   0  0  0  0  0  0  0  0  0  0  0  0
   37.8210   25.1500   35.8700 N   0  0  0  0  0  0  0  0  0  0  0  0
   37.8140   25.4680   34.5410 C   0  0  0  0  0  0  0  0  0  0  0  0
   38.4160   24.6580   33.6620 N   0  0  0  0  0  0  0  0  0  0  0  0
   39.5300   22.8400   33.3840 H   0  0  0  0  0  0  0  0  0  0  0  0
   39.5250   22.2870   35.8280 H   0  0  0  0  0  0  0  0  0  0  0  0
   38.4200   23.7120   37.7400 C   0  0  0  0  0  0  0  0  0  0  0  0
   37.5950   24.0160   38.3720 H   0  0  0  0  0  0  0  0  0  0  0  0
   39.3780   23.0800   38.2540 O   0  0  0  0  0  0  0  0  0  0  0  0
   34.7800   32.5920   37.6070 N   0  0  0  0  0  0  0  0  0  0  0  0
   34.2420   31.8970   38.1990 H   0  0  0  0  0  0  0  0  0  0  0  0
   35.4410   33.2220   38.1240 H   0  0  0  0  0  0  0  0  0  0  0  0
  1 23  1  0  0  0  0
  1  5  2  0  0  0  0
  2  1  1  0  0  0  0
  3  2  2  0  0  0  0
  3  4  1  0  0  0  0
  4  7  1  0  0  0  0
  4  5  1  0  0  0  0
  6 14  1  0  0  0  0
  6  7  1  0  0  0  0
  7  8  2  0  0  0  0
  9  8  1  0  0  0  0
  9 10  1  0  0  0  0
 10 30  1  0  0  0  0
 11 10  2  0  0  0  0
 12 11  1  0  0  0  0
 13 14  1  0  0  0  0
 13 12  2  0  0  0  0
 14  9  2  0  0  0  0
 15  2  1  0  0  0  0
 16  3  1  0  0  0  0
 17  6  1  0  0  0  0
 18 12  1  0  0  0  0
 19 20  1  0  0  0  0
 20 26  1  0  0  0  0
 20 21  2  0  0  0  0
 21 27  1  0  0  0  0
 22 21  1  0  0  0  0
 23 22  2  0  0  0  0
 24 19  2  0  0  0  0
 24 23  1  0  0  0  0
 25 19  1  0  0  0  0
 27 29  2  0  0  0  0
 27 28  1  0  0  0  0
 30 32  1  0  0  0  0
 30 31  1  0  0  0  0
M  END
>  <minimizedAffinity>
-5.36851072

$$$$

 OpenBabel03262523003D

 32 35  0  0  0  0  0  0  0  0999 V2000
   38.1610   25.7810   35.1060 C   0  0  0  0  0  0  0  0  0  0  0  0
   37.0950   26.6810   35.1500 C   0  0  0  0  0  0  0  0  0  0  0  0
   37.0880   27.4030   33.9770 C   0  0  0  0  0  0  0  0  0  0  0  0
   38.1390   26.9400   33.2390 N   0  0  0  0  0  0  0  0  0  0  0  0
   38.7400   25.9850   33.9480 N   0  0  0  0  0  0  0  0  0  0  0  0
   37.6000   28.1520   31.1750 N   0  0  0  0  0  0  0  0  0  0  0  0
   38.4730   27.4350   31.9460 C   0  0  0  0  0  0  0  0  0  0  0  0
   39.5930   27.3340   31.2320 N   0  0  0  0  0  0  0  0  0  0  0  0
   39.4730   27.9540   30.0430 C   0  0  0  0  0  0  0  0  0  0  0  0
   40.2410   28.1780   28.9380 C   0  0  0  0  0  0  0  0  0  0  0  0
   39.7420   28.8710   27.9070 N   0  0  0  0  0  0  0  0  0  0  0  0
   38.4840   29.3630   27.9190 C   0  0  0  0  0  0  0  0  0  0  0  0
   37.6920   29.1700   28.9790 N   0  0  0  0  0  0  0  0  0  0  0  0
   38.1890   28.4750   30.0180 C   0  0  0  0  0  0  0  0  0  0  0  0
   36.3940   26.7890   35.9710 H   0  0  0  0  0  0  0  0  0  0  0  0
   36.3640   28.1860   33.7250 H   0  0  0  0  0  0  0  0  0  0  0  0
   36.6050   28.4180   31.4430 H   0  0  0  0  0  0  0  0  0  0  0  0
   38.1910   29.9040   27.0340 H   0  0  0  0  0  0  0  0  0  0  0  0
   38.1700   24.0770   38.3450 C   0  0  0  0  0  0  0  0  0  0  0  0
   39.1530   23.0620   38.1350 C   0  0  0  0  0  0  0  0  0  0  0  0
   39.7760   22.9910   36.9040 C   0  0  0  0  0  0  0  0  0  0  0  0
   39.4390   23.8800   35.9410 N   0  0  0  0  0  0  0  0  0  0  0  0
   38.4970   24.8460   36.1560 C   0  0  0  0  0  0  0  0  0  0  0  0
   37.8860   24.9240   37.3440 N   0  0  0  0  0  0  0  0  0  0  0  0
   37.7130   24.0920   39.3200 H   0  0  0  0  0  0  0  0  0  0  0  0
   39.4450   22.3320   38.8920 H   0  0  0  0  0  0  0  0  0  0  0  0
   40.7770   21.9750   36.6550 C   0  0  0  0  0  0  0  0  0  0  0  0
   40.9930   21.6490   35.6460 H   0  0  0  0  0  0  0  0  0  0  0  0
   41.4080   21.4550   37.6100 O   0  0  0  0  0  0  0  0  0  0  0  0
   41.5610   27.6560   28.9390 N   0  0  0  0  0  0  0  0  0  0  0  0
   42.3830   27.8570   29.5760 H   0  0  0  0  0  0  0  0  0  0  0  0
   41.7290   26.9570   28.1750 H   0  0  0  0  0  0  0  0  0  0  0  0
  1  2  1  0  0  0  0
  1 23  1  0  0  0  0
  2 15  1  0  0  0  0
  3  2  2  0  0  0  0
  4  5  1  0  0  0  0
  4  3  1  0  0  0  0
  5  1  2  0  0  0  0
  6 17  1  0  0  0  0
  6  7  1  0  0  0  0
  7  4  1  0  0  0  0
  8  7  2  0  0  0  0
  9  8  1  0  0  0  0
 10 30  1  0  0  0  0
 10  9  2  0  0  0  0
 11 12  2  0  0  0  0
 11 10  1  0  0  0  0
 12 13  1  0  0  0  0
 13 14  2  0  0  0  0
 14  9  1  0  0  0  0
 14  6  1  0  0  0  0
 16  3  1  0  0  0  0
 18 12  1  0  0  0  0
 19 25  1  0  0  0  0
 20 19  1  0  0  0  0
 20 26  1  0  0  0  0
 21 20  2  0  0  0  0
 22 23  2  0  0  0  0
 22 21  1  0  0  0  0
 23 24  1  0  0  0  0
 24 19  2  0  0  0  0
 27 21  1  0  0  0  0
 27 29  2  0  0  0  0
 28 27  1  0  0  0  0
 30 31  1  0  0  0  0
 32 30  1  0  0  0  0
M  END
>  <minimizedAffinity>
-5.33050156

$$$$

 OpenBabel03262523003D

 32 35  0  0  0  0  0  0  0  0999 V2000
   37.5610   27.9030   31.7940 C   0  0  0  0  0  0  0  0  0  0  0  0
   36.5400   28.3180   32.6500 C   0  0  0  0  0  0  0  0  0  0  0  0
   36.6070   27.5680   33.8020 C   0  0  0  0  0  0  0  0  0  0  0  0
   37.6580   26.7120   33.6380 N   0  0  0  0  0  0  0  0  0  0  0  0
   38.1870   26.9490   32.4380 N   0  0  0  0  0  0  0  0  0  0  0  0
   37.6830   25.8400   35.9310 N   0  0  0  0  0  0  0  0  0  0  0  0
   38.0630   25.7620   34.6200 C   0  0  0  0  0  0  0  0  0  0  0  0
   38.8310   24.6790   34.5260 N   0  0  0  0  0  0  0  0  0  0  0  0
   38.9580   24.0640   35.7170 C   0  0  0  0  0  0  0  0  0  0  0  0
   39.5890   22.9670   36.2250 C   0  0  0  0  0  0  0  0  0  0  0  0
   39.4720   22.6710   37.5250 N   0  0  0  0  0  0  0  0  0  0  0  0
   38.7400   23.4320   38.3670 C   0  0  0  0  0  0  0  0  0  0  0  0
   38.1020   24.5180   37.9170 N   0  0  0  0  0  0  0  0  0  0  0  0
   38.2170   24.8190   36.6110 C   0  0  0  0  0  0  0  0  0  0  0  0
   35.8180   29.1000   32.4370 H   0  0  0  0  0  0  0  0  0  0  0  0
   35.9320   27.6690   34.6590 H   0  0  0  0  0  0  0  0  0  0  0  0
   37.0610   26.5920   36.3580 H   0  0  0  0  0  0  0  0  0  0  0  0
   38.7180   23.0970   39.3920 H   0  0  0  0  0  0  0  0  0  0  0  0
   37.4860   30.1740   28.9250 C   0  0  0  0  0  0  0  0  0  0  0  0
   38.3160   29.4860   27.9890 C   0  0  0  0  0  0  0  0  0  0  0  0
   38.8710   28.2770   28.3630 C   0  0  0  0  0  0  0  0  0  0  0  0
   38.6130   27.7860   29.5970 N   0  0  0  0  0  0  0  0  0  0  0  0
   37.8170   28.4560   30.4830 C   0  0  0  0  0  0  0  0  0  0  0  0
   37.2740   29.6280   30.1320 N   0  0  0  0  0  0  0  0  0  0  0  0
   37.0760   31.1120   28.5870 H   0  0  0  0  0  0  0  0  0  0  0  0
   38.5410   29.8570   26.9870 H   0  0  0  0  0  0  0  0  0  0  0  0
   39.7170   27.5500   27.4410 C   0  0  0  0  0  0  0  0  0  0  0  0
   40.0380   26.5410   27.6640 H   0  0  0  0  0  0  0  0  0  0  0  0
   40.0940   28.0840   26.3660 O   0  0  0  0  0  0  0  0  0  0  0  0
   40.3530   22.1750   35.3280 N   0  0  0  0  0  0  0  0  0  0  0  0
   40.0650   21.6330   34.4660 H   0  0  0  0  0  0  0  0  0  0  0  0
   41.3710   22.1330   35.5790 H   0  0  0  0  0  0  0  0  0  0  0  0
  1  5  2  0  0  0  0
  1  2  1  0  0  0  0
  2  3  2  0  0  0  0
  3 16  1  0  0  0  0
  4  3  1  0  0  0  0
  4  7  1  0  0  0  0
  5  4  1  0  0  0  0
  6 17  1  0  0  0  0
  6 14  1  0  0  0  0
  7  6  1  0  0  0  0
  8  7  2  0  0  0  0
  8  9  1  0  0  0  0
  9 10  2  0  0  0  0
  9 14  1  0  0  0  0
 10 11  1  0  0  0  0
 11 12  2  0  0  0  0
 12 18  1  0  0  0  0
 13 12  1  0  0  0  0
 14 13  2  0  0  0  0
 15  2  1  0  0  0  0
 19 24  1  0  0  0  0
 20 21  1  0  0  0  0
 20 19  2  0  0  0  0
 21 22  2  0  0  0  0
 22 23  1  0  0  0  0
 23  1  1  0  0  0  0
 24 23  2  0  0  0  0
 25 19  1  0  0  0  0
 26 20  1  0  0  0  0
 27 28  1  0  0  0  0
 27 21  1  0  0  0  0
 29 27  2  0  0  0  0
 30 32  1  0  0  0  0
 30 10  1  0  0  0  0
 31 30  1  0  0  0  0
M  END
>  <minimizedAffinity>
-5.29914761

$$$$

 OpenBabel03262523003D

 32 35  0  0  0  0  0  0  0  0999 V2000
   36.1630   27.6250   32.0470 C   0  0  0  0  0  0  0  0  0  0  0  0
   36.1190   28.4630   30.9330 C   0  0  0  0  0  0  0  0  0  0  0  0
   35.9740   29.7610   31.3710 C   0  0  0  0  0  0  0  0  0  0  0  0
   35.9310   29.6990   32.7330 N   0  0  0  0  0  0  0  0  0  0  0  0
   36.0460   28.4180   33.0840 N   0  0  0  0  0  0  0  0  0  0  0  0
   36.0300   32.1180   33.1360 N   0  0  0  0  0  0  0  0  0  0  0  0
   35.7890   30.8430   33.5710 C   0  0  0  0  0  0  0  0  0  0  0  0
   35.4310   30.9550   34.8480 N   0  0  0  0  0  0  0  0  0  0  0  0
   35.4320   32.2410   35.2470 C   0  0  0  0  0  0  0  0  0  0  0  0
   35.1710   32.9460   36.3850 C   0  0  0  0  0  0  0  0  0  0  0  0
   35.2940   34.2790   36.3870 N   0  0  0  0  0  0  0  0  0  0  0  0
   35.6740   34.9630   35.2870 C   0  0  0  0  0  0  0  0  0  0  0  0
   35.9420   34.3170   34.1470 N   0  0  0  0  0  0  0  0  0  0  0  0
   35.8200   32.9780   34.1390 C   0  0  0  0  0  0  0  0  0  0  0  0
   36.1890   28.1420   29.8980 H   0  0  0  0  0  0  0  0  0  0  0  0
   35.9100   30.6410   30.7210 H   0  0  0  0  0  0  0  0  0  0  0  0
   36.3390   32.3950   32.1560 H   0  0  0  0  0  0  0  0  0  0  0  0
   35.7380   36.0330   35.4070 H   0  0  0  0  0  0  0  0  0  0  0  0
   35.6460   24.1300   31.0920 C   0  0  0  0  0  0  0  0  0  0  0  0
   36.6030   23.4600   31.9140 C   0  0  0  0  0  0  0  0  0  0  0  0
   37.3890   24.2170   32.7620 C   0  0  0  0  0  0  0  0  0  0  0  0
   37.2290   25.5600   32.7870 N   0  0  0  0  0  0  0  0  0  0  0  0
   36.3090   26.1880   31.9950 C   0  0  0  0  0  0  0  0  0  0  0  0
   35.5420   25.4650   31.1690 N   0  0  0  0  0  0  0  0  0  0  0  0
   35.0570   23.4980   30.4480 H   0  0  0  0  0  0  0  0  0  0  0  0
   36.7540   22.3790   31.9150 H   0  0  0  0  0  0  0  0  0  0  0  0
   38.3700   23.5730   33.6090 C   0  0  0  0  0  0  0  0  0  0  0  0
   39.1590   22.9690   33.1800 H   0  0  0  0  0  0  0  0  0  0  0  0
   38.3170   23.7050   34.8590 O   0  0  0  0  0  0  0  0  0  0  0  0
   34.7710   32.2140   37.5330 N   0  0  0  0  0  0  0  0  0  0  0  0
   33.9270   31.5960   37.7000 H   0  0  0  0  0  0  0  0  0  0  0  0
   35.4340   32.3170   38.3400 H   0  0  0  0  0  0  0  0  0  0  0  0
  1  5  2  0  0  0  0
  2  3  2  0  0  0  0
  2  1  1  0  0  0  0
  3  4  1  0  0  0  0
  4  5  1  0  0  0  0
  4  7  1  0  0  0  0
  6  7  1  0  0  0  0
  6 14  1  0  0  0  0
  7  8  2  0  0  0  0
  8  9  1  0  0  0  0
  9 10  1  0  0  0  0
 10 11  2  0  0  0  0
 10 30  1  0  0  0  0
 12 18  1  0  0  0  0
 12 11  1  0  0  0  0
 13 12  2  0  0  0  0
 14 13  1  0  0  0  0
 14  9  2  0  0  0  0
 15  2  1  0  0  0  0
 16  3  1  0  0  0  0
 17  6  1  0  0  0  0
 19 24  2  0  0  0  0
 19 20  1  0  0  0  0
 20 26  1  0  0  0  0
 20 21  2  0  0  0  0
 21 22  1  0  0  0  0
 21 27  1  0  0  0  0
 23  1  1  0  0  0  0
 23 22  2  0  0  0  0
 24 23  1  0  0  0  0
 25 19  1  0  0  0  0
 27 29  2  0  0  0  0
 28 27  1  0  0  0  0
 30 31  1  0  0  0  0
 30 32  1  0  0  0  0
M  END
>  <minimizedAffinity>
-5.24503374

$$$$

 OpenBabel03262523003D

 32 35  0  0  0  0  0  0  0  0999 V2000
   35.9500   28.9890   33.3260 C   0  0  0  0  0  0  0  0  0  0  0  0
   36.7180   28.5760   32.2370 C   0  0  0  0  0  0  0  0  0  0  0  0
   37.4110   27.4430   32.5990 C   0  0  0  0  0  0  0  0  0  0  0  0
   37.0630   27.1810   33.8920 N   0  0  0  0  0  0  0  0  0  0  0  0
   36.2000   28.1210   34.2760 N   0  0  0  0  0  0  0  0  0  0  0  0
   38.1630   24.9940   34.0510 N   0  0  0  0  0  0  0  0  0  0  0  0
   37.5700   26.0780   34.6380 C   0  0  0  0  0  0  0  0  0  0  0  0
   37.5900   25.8410   35.9480 N   0  0  0  0  0  0  0  0  0  0  0  0
   38.1690   24.6570   36.2230 C   0  0  0  0  0  0  0  0  0  0  0  0
   38.4620   23.9070   37.3240 C   0  0  0  0  0  0  0  0  0  0  0  0
   39.0710   22.7230   37.1830 N   0  0  0  0  0  0  0  0  0  0  0  0
   39.4090   22.2340   35.9710 C   0  0  0  0  0  0  0  0  0  0  0  0
   39.1430   22.9310   34.8610 N   0  0  0  0  0  0  0  0  0  0  0  0
   38.5320   24.1220   34.9970 C   0  0  0  0  0  0  0  0  0  0  0  0
   36.7560   29.0680   31.2700 H   0  0  0  0  0  0  0  0  0  0  0  0
   38.0970   26.8900   31.9470 H   0  0  0  0  0  0  0  0  0  0  0  0
   38.3130   24.8530   33.0070 H   0  0  0  0  0  0  0  0  0  0  0  0
   39.8950   21.2710   35.9790 H   0  0  0  0  0  0  0  0  0  0  0  0
   34.5620   32.2630   34.1930 C   0  0  0  0  0  0  0  0  0  0  0  0
   33.4210   32.3300   33.3360 C   0  0  0  0  0  0  0  0  0  0  0  0
   33.1630   31.2630   32.4970 C   0  0  0  0  0  0  0  0  0  0  0  0
   33.9940   30.1950   32.5110 N   0  0  0  0  0  0  0  0  0  0  0  0
   35.0830   30.1450   33.3360 C   0  0  0  0  0  0  0  0  0  0  0  0
   35.3430   31.1730   34.1530 N   0  0  0  0  0  0  0  0  0  0  0  0
   34.7210   33.1170   34.8290 H   0  0  0  0  0  0  0  0  0  0  0  0
   32.7330   33.1760   33.3040 H   0  0  0  0  0  0  0  0  0  0  0  0
   32.0160   31.2950   31.6150 C   0  0  0  0  0  0  0  0  0  0  0  0
   31.0380   30.9990   31.9710 H   0  0  0  0  0  0  0  0  0  0  0  0
   32.1410   31.6650   30.4190 O   0  0  0  0  0  0  0  0  0  0  0  0
   38.1010   24.4340   38.5910 N   0  0  0  0  0  0  0  0  0  0  0  0
   38.4110   25.3170   39.0870 H   0  0  0  0  0  0  0  0  0  0  0  0
   37.4130   23.8330   39.1080 H   0  0  0  0  0  0  0  0  0  0  0  0
  1 23  1  0  0  0  0
  1  5  2  0  0  0  0
  2  3  2  0  0  0  0
  2  1  1  0  0  0  0
  3  4  1  0  0  0  0
  4  5  1  0  0  0  0
  4  7  1  0  0  0  0
  6  7  1  0  0  0  0
  6 14  1  0  0  0  0
  7  8  2  0  0  0  0
  8  9  1  0  0  0  0
  9 10  1  0  0  0  0
 10 30  1  0  0  0  0
 11 10  2  0  0  0  0
 12 18  1  0  0  0  0
 12 11  1  0  0  0  0
 13 14  1  0  0  0  0
 13 12  2  0  0  0  0
 14  9  2  0  0  0  0
 15  2  1  0  0  0  0
 16  3  1  0  0  0  0
 17  6  1  0  0  0  0
 19 25  1  0  0  0  0
 20 19  2  0  0  0  0
 21 22  2  0  0  0  0
 21 20  1  0  0  0  0
 22 23  1  0  0  0  0
 23 24  2  0  0  0  0
 24 19  1  0  0  0  0
 26 20  1  0  0  0  0
 27 28  1  0  0  0  0
 27 21  1  0  0  0  0
 29 27  2  0  0  0  0
 30 31  1  0  0  0  0
 30 32  1  0  0  0  0
M  END
>  <minimizedAffinity>
-5.21038485

$$$$

 OpenBabel03262523003D

 32 35  0  0  0  0  0  0  0  0999 V2000
   35.9000   29.0220   33.6130 C   0  0  0  0  0  0  0  0  0  0  0  0
   36.6310   28.6430   32.4860 C   0  0  0  0  0  0  0  0  0  0  0  0
   37.3330   27.4970   32.7890 C   0  0  0  0  0  0  0  0  0  0  0  0
   37.0260   27.1950   34.0840 N   0  0  0  0  0  0  0  0  0  0  0  0
   36.1780   28.1230   34.5260 N   0  0  0  0  0  0  0  0  0  0  0  0
   38.1260   25.0020   34.1380 N   0  0  0  0  0  0  0  0  0  0  0  0
   37.5540   26.0670   34.7770 C   0  0  0  0  0  0  0  0  0  0  0  0
   37.6160   25.7890   36.0780 N   0  0  0  0  0  0  0  0  0  0  0  0
   38.2000   24.5960   36.2960 C   0  0  0  0  0  0  0  0  0  0  0  0
   38.5270   23.8110   37.3620 C   0  0  0  0  0  0  0  0  0  0  0  0
   39.1270   22.6310   37.1640 N   0  0  0  0  0  0  0  0  0  0  0  0
   39.4260   22.1800   35.9260 C   0  0  0  0  0  0  0  0  0  0  0  0
   39.1260   22.9130   34.8490 N   0  0  0  0  0  0  0  0  0  0  0  0
   38.5230   24.1000   35.0430 C   0  0  0  0  0  0  0  0  0  0  0  0
   36.6400   29.1660   31.5350 H   0  0  0  0  0  0  0  0  0  0  0  0
   37.9960   26.9650   32.0980 H   0  0  0  0  0  0  0  0  0  0  0  0
   38.2410   24.8950   33.0850 H   0  0  0  0  0  0  0  0  0  0  0  0
   39.9090   21.2170   35.8890 H   0  0  0  0  0  0  0  0  0  0  0  0
   33.3720   31.5110   32.7160 C   0  0  0  0  0  0  0  0  0  0  0  0
   33.4050   32.3800   33.8490 C   0  0  0  0  0  0  0  0  0  0  0  0
   34.2840   32.0900   34.8760 C   0  0  0  0  0  0  0  0  0  0  0  0
   35.0790   31.0010   34.7770 N   0  0  0  0  0  0  0  0  0  0  0  0
   35.0360   30.1780   33.6870 C   0  0  0  0  0  0  0  0  0  0  0  0
   34.1890   30.4480   32.6860 N   0  0  0  0  0  0  0  0  0  0  0  0
   32.6720   31.7780   31.9410 H   0  0  0  0  0  0  0  0  0  0  0  0
   32.7770   33.2650   33.9560 H   0  0  0  0  0  0  0  0  0  0  0  0
   34.3450   32.9480   36.0410 C   0  0  0  0  0  0  0  0  0  0  0  0
   34.0390   33.9840   35.9800 H   0  0  0  0  0  0  0  0  0  0  0  0
   34.7600   32.5000   37.1410 O   0  0  0  0  0  0  0  0  0  0  0  0
   38.2080   24.2970   38.6570 N   0  0  0  0  0  0  0  0  0  0  0  0
   38.5360   25.1630   39.1710 H   0  0  0  0  0  0  0  0  0  0  0  0
   37.5360   23.6810   39.1760 H   0  0  0  0  0  0  0  0  0  0  0  0
  1 23  1  0  0  0  0
  1  5  2  0  0  0  0
  2  3  2  0  0  0  0
  2  1  1  0  0  0  0
  3  4  1  0  0  0  0
  4  5  1  0  0  0  0
  4  7  1  0  0  0  0
  6  7  1  0  0  0  0
  6 14  1  0  0  0  0
  7  8  2  0  0  0  0
  8  9  1  0  0  0  0
  9 10  1  0  0  0  0
 10 30  1  0  0  0  0
 11 10  2  0  0  0  0
 12 11  1  0  0  0  0
 13 14  1  0  0  0  0
 13 12  2  0  0  0  0
 14  9  2  0  0  0  0
 15  2  1  0  0  0  0
 16  3  1  0  0  0  0
 17  6  1  0  0  0  0
 18 12  1  0  0  0  0
 19 20  1  0  0  0  0
 20 26  1  0  0  0  0
 20 21  2  0  0  0  0
 21 27  1  0  0  0  0
 22 21  1  0  0  0  0
 23 22  2  0  0  0  0
 24 19  2  0  0  0  0
 24 23  1  0  0  0  0
 25 19  1  0  0  0  0
 27 29  2  0  0  0  0
 28 27  1  0  0  0  0
 30 31  1  0  0  0  0
 30 32  1  0  0  0  0
M  END
>  <minimizedAffinity>
-5.19794607

$$$$
