
 OpenBabel03262522263D

 39 41  0  0  0  0  0  0  0  0999 V2000
   37.1200   25.5440   32.6490 C   0  0  0  0  0  0  0  0  0  0  0  0
   37.7490   25.4820   33.8890 C   0  0  0  0  0  0  0  0  0  0  0  0
   37.7670   26.6360   34.6400 C   0  0  0  0  0  0  0  0  0  0  0  0
   37.1750   27.7530   34.1280 N   0  0  0  0  0  0  0  0  0  0  0  0
   36.5980   27.7650   32.9610 C   0  0  0  0  0  0  0  0  0  0  0  0
   36.5430   26.6440   32.1550 N   0  0  0  0  0  0  0  0  0  0  0  0
   37.0630   24.6700   31.9910 H   0  0  0  0  0  0  0  0  0  0  0  0
   38.2380   26.6520   35.6220 H   0  0  0  0  0  0  0  0  0  0  0  0
   38.2990   24.3100   34.2810 O   0  0  0  0  0  0  0  0  0  0  0  0
   38.4490   24.0300   35.6290 C   0  0  0  0  0  0  0  0  0  0  0  0
   37.6230   24.4220   36.6640 C   0  0  0  0  0  0  0  0  0  0  0  0
   37.9260   24.0550   37.9250 C   0  0  0  0  0  0  0  0  0  0  0  0
   39.0490   23.3020   38.1460 C   0  0  0  0  0  0  0  0  0  0  0  0
   39.8730   22.9150   37.0990 C   0  0  0  0  0  0  0  0  0  0  0  0
   39.5490   23.2950   35.8320 N   0  0  0  0  0  0  0  0  0  0  0  0
   36.7630   25.0190   36.3890 H   0  0  0  0  0  0  0  0  0  0  0  0
   37.2910   24.3500   38.7500 H   0  0  0  0  0  0  0  0  0  0  0  0
   39.3180   22.9910   39.1590 H   0  0  0  0  0  0  0  0  0  0  0  0
   41.1100   22.0870   37.3750 C   0  0  0  0  0  0  0  0  0  0  0  0
   41.5630   21.8410   36.4070 H   0  0  0  0  0  0  0  0  0  0  0  0
   41.7880   22.7360   37.9460 H   0  0  0  0  0  0  0  0  0  0  0  0
   40.8540   21.2140   38.0060 H   0  0  0  0  0  0  0  0  0  0  0  0
   35.9060   29.3830   32.5480 S   0  0  0  0  0  0  0  0  0  0  0  0
   34.3140   29.4410   33.4330 C   0  0  0  0  0  0  0  0  0  0  0  0
   33.5570   29.8370   32.7250 H   0  0  0  0  0  0  0  0  0  0  0  0
   34.0120   28.4300   33.7840 H   0  0  0  0  0  0  0  0  0  0  0  0
   32.0900   30.1940   34.8640 F   0  0  0  0  0  0  0  0  0  0  0  0
   33.3220   30.6510   35.2560 C   0  0  0  0  0  0  0  0  0  0  0  0
   34.5100   30.3380   34.6120 C   0  0  0  0  0  0  0  0  0  0  0  0
   35.7080   30.8200   35.0440 C   0  0  0  0  0  0  0  0  0  0  0  0
   35.7720   31.6590   36.1690 C   0  0  0  0  0  0  0  0  0  0  0  0
   34.5930   31.9830   36.8270 C   0  0  0  0  0  0  0  0  0  0  0  0
   33.3930   31.4790   36.3650 C   0  0  0  0  0  0  0  0  0  0  0  0
   36.5780   30.5150   34.4720 H   0  0  0  0  0  0  0  0  0  0  0  0
   36.7460   32.0190   36.4790 H   0  0  0  0  0  0  0  0  0  0  0  0
   34.6230   32.6250   37.6920 H   0  0  0  0  0  0  0  0  0  0  0  0
   32.1680   31.8360   37.0750 C   0  0  0  0  0  0  0  0  0  0  0  0
   31.7860   31.1910   37.8670 H   0  0  0  0  0  0  0  0  0  0  0  0
   31.5280   32.8830   36.7970 O   0  0  0  0  0  0  0  0  0  0  0  0
  1  2  1  0  0  0  0
  2  9  1  0  0  0  0
  2  3  2  0  0  0  0
  3  8  1  0  0  0  0
  4  3  1  0  0  0  0
  5  4  2  0  0  0  0
  6  1  2  0  0  0  0
  6  5  1  0  0  0  0
  7  1  1  0  0  0  0
  9 10  1  0  0  0  0
 10 15  2  0  0  0  0
 10 11  1  0  0  0  0
 11 12  2  0  0  0  0
 12 13  1  0  0  0  0
 12 17  1  0  0  0  0
 13 18  1  0  0  0  0
 14 19  1  0  0  0  0
 14 13  2  0  0  0  0
 15 14  1  0  0  0  0
 16 11  1  0  0  0  0
 19 21  1  0  0  0  0
 19 22  1  0  0  0  0
 20 19  1  0  0  0  0
 23  5  1  0  0  0  0
 23 24  1  0  0  0  0
 24 26  1  0  0  0  0
 24 29  1  0  0  0  0
 25 24  1  0  0  0  0
 27 28  1  0  0  0  0
 28 33  1  0  0  0  0
 29 30  1  0  0  0  0
 29 28  2  0  0  0  0
 30 31  2  0  0  0  0
 31 35  1  0  0  0  0
 31 32  1  0  0  0  0
 32 36  1  0  0  0  0
 33 32  2  0  0  0  0
 33 37  1  0  0  0  0
 34 30  1  0  0  0  0
 37 38  1  0  0  0  0
 39 37  2  0  0  0  0
M  END
>  <minimizedAffinity>
-6.03401947

$$$$

 OpenBabel03262522263D

 39 41  0  0  0  0  0  0  0  0999 V2000
   36.6510   28.4360   32.3890 C   0  0  0  0  0  0  0  0  0  0  0  0
   36.0470   28.8170   33.5830 C   0  0  0  0  0  0  0  0  0  0  0  0
   36.4220   28.1360   34.7190 C   0  0  0  0  0  0  0  0  0  0  0  0
   37.3500   27.1440   34.6050 N   0  0  0  0  0  0  0  0  0  0  0  0
   37.8900   26.8210   33.4650 C   0  0  0  0  0  0  0  0  0  0  0  0
   37.5600   27.4610   32.2860 N   0  0  0  0  0  0  0  0  0  0  0  0
   36.4080   28.9280   31.4400 H   0  0  0  0  0  0  0  0  0  0  0  0
   35.9900   28.3910   35.6870 H   0  0  0  0  0  0  0  0  0  0  0  0
   35.1380   29.8190   33.5600 O   0  0  0  0  0  0  0  0  0  0  0  0
   34.9880   30.6460   34.6620 C   0  0  0  0  0  0  0  0  0  0  0  0
   35.8990   31.5590   35.1550 C   0  0  0  0  0  0  0  0  0  0  0  0
   35.5820   32.2840   36.2470 C   0  0  0  0  0  0  0  0  0  0  0  0
   34.3600   32.0930   36.8380 C   0  0  0  0  0  0  0  0  0  0  0  0
   33.4530   31.1710   36.3340 C   0  0  0  0  0  0  0  0  0  0  0  0
   33.7920   30.4500   35.2310 N   0  0  0  0  0  0  0  0  0  0  0  0
   36.8380   31.6330   34.6220 H   0  0  0  0  0  0  0  0  0  0  0  0
   36.2800   33.0050   36.6480 H   0  0  0  0  0  0  0  0  0  0  0  0
   34.0780   32.6680   37.7240 H   0  0  0  0  0  0  0  0  0  0  0  0
   32.1130   30.9800   37.0130 C   0  0  0  0  0  0  0  0  0  0  0  0
   31.5400   30.2660   36.4100 H   0  0  0  0  0  0  0  0  0  0  0  0
   32.3310   30.5430   37.9970 H   0  0  0  0  0  0  0  0  0  0  0  0
   31.6200   31.9590   37.1700 H   0  0  0  0  0  0  0  0  0  0  0  0
   39.0820   25.4710   33.6230 S   0  0  0  0  0  0  0  0  0  0  0  0
   38.0880   24.0420   34.1620 C   0  0  0  0  0  0  0  0  0  0  0  0
   37.0210   24.3120   34.0240 H   0  0  0  0  0  0  0  0  0  0  0  0
   38.3300   23.1360   33.5640 H   0  0  0  0  0  0  0  0  0  0  0  0
   40.2030   22.3740   34.7170 F   0  0  0  0  0  0  0  0  0  0  0  0
   39.5100   22.9420   35.7550 C   0  0  0  0  0  0  0  0  0  0  0  0
   38.4290   23.7960   35.5950 C   0  0  0  0  0  0  0  0  0  0  0  0
   37.7760   24.3330   36.6630 C   0  0  0  0  0  0  0  0  0  0  0  0
   38.1860   24.0310   37.9720 C   0  0  0  0  0  0  0  0  0  0  0  0
   39.2670   23.1770   38.1510 C   0  0  0  0  0  0  0  0  0  0  0  0
   39.9090   22.6480   37.0490 C   0  0  0  0  0  0  0  0  0  0  0  0
   36.9440   24.9890   36.4310 H   0  0  0  0  0  0  0  0  0  0  0  0
   37.6390   24.4800   38.7920 H   0  0  0  0  0  0  0  0  0  0  0  0
   39.5960   22.9340   39.1490 H   0  0  0  0  0  0  0  0  0  0  0  0
   41.0430   21.7540   37.2660 C   0  0  0  0  0  0  0  0  0  0  0  0
   40.8770   20.7360   37.6200 H   0  0  0  0  0  0  0  0  0  0  0  0
   42.2250   22.1270   37.0530 O   0  0  0  0  0  0  0  0  0  0  0  0
  1  2  1  0  0  0  0
  2  3  2  0  0  0  0
  3  8  1  0  0  0  0
  4  3  1  0  0  0  0
  5 23  1  0  0  0  0
  5  4  2  0  0  0  0
  6  1  2  0  0  0  0
  6  5  1  0  0  0  0
  7  1  1  0  0  0  0
  9  2  1  0  0  0  0
  9 10  1  0  0  0  0
 10 11  2  0  0  0  0
 10 15  1  0  0  0  0
 11 12  1  0  0  0  0
 12 17  1  0  0  0  0
 12 13  2  0  0  0  0
 13 18  1  0  0  0  0
 14 13  1  0  0  0  0
 14 19  1  0  0  0  0
 15 14  2  0  0  0  0
 16 11  1  0  0  0  0
 19 22  1  0  0  0  0
 19 21  1  0  0  0  0
 20 19  1  0  0  0  0
 23 24  1  0  0  0  0
 24 29  1  0  0  0  0
 25 24  1  0  0  0  0
 26 24  1  0  0  0  0
 27 28  1  0  0  0  0
 28 33  1  0  0  0  0
 29 28  2  0  0  0  0
 29 30  1  0  0  0  0
 30 31  2  0  0  0  0
 31 32  1  0  0  0  0
 31 35  1  0  0  0  0
 32 36  1  0  0  0  0
 33 37  1  0  0  0  0
 33 32  2  0  0  0  0
 34 30  1  0  0  0  0
 37 38  1  0  0  0  0
 39 37  2  0  0  0  0
M  END
>  <minimizedAffinity>
-5.75861406

$$$$

 OpenBabel03262522263D

 39 41  0  0  0  0  0  0  0  0999 V2000
   36.6870   28.6250   32.2700 C   0  0  0  0  0  0  0  0  0  0  0  0
   36.0460   28.8540   33.4830 C   0  0  0  0  0  0  0  0  0  0  0  0
   36.4470   28.0910   34.5570 C   0  0  0  0  0  0  0  0  0  0  0  0
   37.4360   27.1720   34.3670 N   0  0  0  0  0  0  0  0  0  0  0  0
   38.0090   26.9910   33.2110 C   0  0  0  0  0  0  0  0  0  0  0  0
   37.6560   27.7210   32.0910 N   0  0  0  0  0  0  0  0  0  0  0  0
   36.4260   29.1900   31.3680 H   0  0  0  0  0  0  0  0  0  0  0  0
   35.9890   28.2260   35.5360 H   0  0  0  0  0  0  0  0  0  0  0  0
   35.0780   29.7970   33.5380 O   0  0  0  0  0  0  0  0  0  0  0  0
   34.9800   30.6270   34.6440 C   0  0  0  0  0  0  0  0  0  0  0  0
   35.9280   31.5150   35.1130 C   0  0  0  0  0  0  0  0  0  0  0  0
   35.6600   32.2470   36.2120 C   0  0  0  0  0  0  0  0  0  0  0  0
   34.4490   32.0900   36.8360 C   0  0  0  0  0  0  0  0  0  0  0  0
   33.5040   31.1940   36.3560 C   0  0  0  0  0  0  0  0  0  0  0  0
   33.7940   30.4640   35.2440 N   0  0  0  0  0  0  0  0  0  0  0  0
   36.8540   31.5630   34.5550 H   0  0  0  0  0  0  0  0  0  0  0  0
   36.3880   32.9490   36.5950 H   0  0  0  0  0  0  0  0  0  0  0  0
   34.2060   32.6720   37.7280 H   0  0  0  0  0  0  0  0  0  0  0  0
   32.1780   31.0390   37.0700 C   0  0  0  0  0  0  0  0  0  0  0  0
   31.5690   30.3410   36.4830 H   0  0  0  0  0  0  0  0  0  0  0  0
   32.4090   30.5960   38.0480 H   0  0  0  0  0  0  0  0  0  0  0  0
   31.7160   32.0310   37.2400 H   0  0  0  0  0  0  0  0  0  0  0  0
   39.2790   25.7060   33.2620 S   0  0  0  0  0  0  0  0  0  0  0  0
   38.3850   24.1960   33.7530 C   0  0  0  0  0  0  0  0  0  0  0  0
   37.3410   24.4920   33.9860 H   0  0  0  0  0  0  0  0  0  0  0  0
   38.3910   23.4420   32.9360 H   0  0  0  0  0  0  0  0  0  0  0  0
   37.2090   24.5130   36.2190 F   0  0  0  0  0  0  0  0  0  0  0  0
   38.4110   23.8610   36.1310 C   0  0  0  0  0  0  0  0  0  0  0  0
   39.0950   23.6430   34.9450 C   0  0  0  0  0  0  0  0  0  0  0  0
   40.2890   22.9890   34.9150 C   0  0  0  0  0  0  0  0  0  0  0  0
   40.8660   22.5090   36.1030 C   0  0  0  0  0  0  0  0  0  0  0  0
   40.1950   22.7170   37.3010 C   0  0  0  0  0  0  0  0  0  0  0  0
   38.9860   23.3860   37.2990 C   0  0  0  0  0  0  0  0  0  0  0  0
   40.7420   22.8690   33.9370 H   0  0  0  0  0  0  0  0  0  0  0  0
   41.8160   21.9930   36.0340 H   0  0  0  0  0  0  0  0  0  0  0  0
   40.6230   22.3570   38.2220 H   0  0  0  0  0  0  0  0  0  0  0  0
   38.3020   23.5910   38.5730 C   0  0  0  0  0  0  0  0  0  0  0  0
   37.9350   22.7370   39.1420 H   0  0  0  0  0  0  0  0  0  0  0  0
   38.1220   24.7450   39.0430 O   0  0  0  0  0  0  0  0  0  0  0  0
  1  2  1  0  0  0  0
  2  9  1  0  0  0  0
  2  3  2  0  0  0  0
  3  8  1  0  0  0  0
  4  3  1  0  0  0  0
  5 23  1  0  0  0  0
  5  4  2  0  0  0  0
  6  1  2  0  0  0  0
  6  5  1  0  0  0  0
  7  1  1  0  0  0  0
  9 10  1  0  0  0  0
 10 11  2  0  0  0  0
 10 15  1  0  0  0  0
 11 12  1  0  0  0  0
 12 17  1  0  0  0  0
 12 13  2  0  0  0  0
 13 18  1  0  0  0  0
 14 13  1  0  0  0  0
 14 19  1  0  0  0  0
 15 14  2  0  0  0  0
 16 11  1  0  0  0  0
 19 22  1  0  0  0  0
 19 21  1  0  0  0  0
 20 19  1  0  0  0  0
 23 24  1  0  0  0  0
 24 25  1  0  0  0  0
 24 29  1  0  0  0  0
 26 24  1  0  0  0  0
 28 27  1  0  0  0  0
 28 33  1  0  0  0  0
 29 28  2  0  0  0  0
 30 29  1  0  0  0  0
 30 31  2  0  0  0  0
 31 32  1  0  0  0  0
 32 36  1  0  0  0  0
 33 32  2  0  0  0  0
 33 37  1  0  0  0  0
 34 30  1  0  0  0  0
 35 31  1  0  0  0  0
 37 39  2  0  0  0  0
 37 38  1  0  0  0  0
M  END
>  <minimizedAffinity>
-5.66805601

$$$$

 OpenBabel03262522263D

 39 41  0  0  0  0  0  0  0  0999 V2000
   36.2850   24.9930   31.7370 C   0  0  0  0  0  0  0  0  0  0  0  0
   36.5770   23.7650   31.1530 C   0  0  0  0  0  0  0  0  0  0  0  0
   37.8910   23.5270   30.8180 C   0  0  0  0  0  0  0  0  0  0  0  0
   38.8130   24.4980   31.0760 N   0  0  0  0  0  0  0  0  0  0  0  0
   38.4940   25.6360   31.6240 C   0  0  0  0  0  0  0  0  0  0  0  0
   37.1950   25.9410   31.9860 N   0  0  0  0  0  0  0  0  0  0  0  0
   35.2640   25.2600   32.0330 H   0  0  0  0  0  0  0  0  0  0  0  0
   38.1860   22.5810   30.3630 H   0  0  0  0  0  0  0  0  0  0  0  0
   35.5680   22.8860   30.9510 O   0  0  0  0  0  0  0  0  0  0  0  0
   35.6090   21.6340   31.5440 C   0  0  0  0  0  0  0  0  0  0  0  0
   35.6490   20.4080   30.9110 C   0  0  0  0  0  0  0  0  0  0  0  0
   35.6850   19.2830   31.6530 C   0  0  0  0  0  0  0  0  0  0  0  0
   35.6820   19.3890   33.0200 C   0  0  0  0  0  0  0  0  0  0  0  0
   35.6410   20.6270   33.6450 C   0  0  0  0  0  0  0  0  0  0  0  0
   35.6050   21.7510   32.8770 N   0  0  0  0  0  0  0  0  0  0  0  0
   35.6420   20.4270   29.8290 H   0  0  0  0  0  0  0  0  0  0  0  0
   35.7180   18.3120   31.1770 H   0  0  0  0  0  0  0  0  0  0  0  0
   35.7110   18.4930   33.6450 H   0  0  0  0  0  0  0  0  0  0  0  0
   35.6330   20.7120   35.1570 C   0  0  0  0  0  0  0  0  0  0  0  0
   35.6710   21.7740   35.4260 H   0  0  0  0  0  0  0  0  0  0  0  0
   34.6750   20.2820   35.4800 H   0  0  0  0  0  0  0  0  0  0  0  0
   36.4500   20.0940   35.5790 H   0  0  0  0  0  0  0  0  0  0  0  0
   39.9210   26.7240   31.8390 S   0  0  0  0  0  0  0  0  0  0  0  0
   40.8240   26.0220   33.2570 C   0  0  0  0  0  0  0  0  0  0  0  0
   41.1450   24.9990   32.9700 H   0  0  0  0  0  0  0  0  0  0  0  0
   41.7130   26.6390   33.5130 H   0  0  0  0  0  0  0  0  0  0  0  0
   40.1160   23.5910   34.3320 F   0  0  0  0  0  0  0  0  0  0  0  0
   39.5910   24.7370   34.8690 C   0  0  0  0  0  0  0  0  0  0  0  0
   39.8750   26.0150   34.4110 C   0  0  0  0  0  0  0  0  0  0  0  0
   39.3240   27.1210   34.9830 C   0  0  0  0  0  0  0  0  0  0  0  0
   38.4410   26.9950   36.0680 C   0  0  0  0  0  0  0  0  0  0  0  0
   38.1450   25.7230   36.5410 C   0  0  0  0  0  0  0  0  0  0  0  0
   38.7190   24.6200   35.9400 C   0  0  0  0  0  0  0  0  0  0  0  0
   39.6120   28.0740   34.5510 H   0  0  0  0  0  0  0  0  0  0  0  0
   38.0270   27.9000   36.4940 H   0  0  0  0  0  0  0  0  0  0  0  0
   37.4690   25.6060   37.3730 H   0  0  0  0  0  0  0  0  0  0  0  0
   38.3900   23.2940   36.4570 C   0  0  0  0  0  0  0  0  0  0  0  0
   38.4130   22.4270   35.7960 H   0  0  0  0  0  0  0  0  0  0  0  0
   38.0760   23.1190   37.6630 O   0  0  0  0  0  0  0  0  0  0  0  0
  1  6  1  0  0  0  0
  1  7  1  0  0  0  0
  2  1  2  0  0  0  0
  3  4  2  0  0  0  0
  3  2  1  0  0  0  0
  4  5  1  0  0  0  0
  5 23  1  0  0  0  0
  5  6  2  0  0  0  0
  8  3  1  0  0  0  0
  9  2  1  0  0  0  0
  9 10  1  0  0  0  0
 10 15  1  0  0  0  0
 11 10  2  0  0  0  0
 11 12  1  0  0  0  0
 12 13  2  0  0  0  0
 13 18  1  0  0  0  0
 13 14  1  0  0  0  0
 14 19  1  0  0  0  0
 15 14  2  0  0  0  0
 16 11  1  0  0  0  0
 17 12  1  0  0  0  0
 19 20  1  0  0  0  0
 19 21  1  0  0  0  0
 19 22  1  0  0  0  0
 23 24  1  0  0  0  0
 24 26  1  0  0  0  0
 24 29  1  0  0  0  0
 25 24  1  0  0  0  0
 27 28  1  0  0  0  0
 28 33  1  0  0  0  0
 29 28  2  0  0  0  0
 29 30  1  0  0  0  0
 30 31  2  0  0  0  0
 31 35  1  0  0  0  0
 31 32  1  0  0  0  0
 32 36  1  0  0  0  0
 33 37  1  0  0  0  0
 33 32  2  0  0  0  0
 34 30  1  0  0  0  0
 37 39  2  0  0  0  0
 38 37  1  0  0  0  0
M  END
>  <minimizedAffinity>
-5.6188364

$$$$

 OpenBabel03262522263D

 39 41  0  0  0  0  0  0  0  0999 V2000
   36.1650   24.8880   31.7730 C   0  0  0  0  0  0  0  0  0  0  0  0
   36.5190   23.7270   31.0910 C   0  0  0  0  0  0  0  0  0  0  0  0
   37.8270   23.6180   30.6790 C   0  0  0  0  0  0  0  0  0  0  0  0
   38.6850   24.6400   30.9590 N   0  0  0  0  0  0  0  0  0  0  0  0
   38.3090   25.7100   31.5990 C   0  0  0  0  0  0  0  0  0  0  0  0
   37.0120   25.8860   32.0430 N   0  0  0  0  0  0  0  0  0  0  0  0
   35.1440   25.0520   32.1340 H   0  0  0  0  0  0  0  0  0  0  0  0
   38.1690   22.7300   30.1460 H   0  0  0  0  0  0  0  0  0  0  0  0
   35.5710   22.7850   30.8770 O   0  0  0  0  0  0  0  0  0  0  0  0
   35.6620   21.5530   31.5030 C   0  0  0  0  0  0  0  0  0  0  0  0
   35.3570   21.2560   32.8170 C   0  0  0  0  0  0  0  0  0  0  0  0
   35.5070   19.9910   33.2590 C   0  0  0  0  0  0  0  0  0  0  0  0
   35.9590   19.0330   32.3900 C   0  0  0  0  0  0  0  0  0  0  0  0
   36.2630   19.3440   31.0720 C   0  0  0  0  0  0  0  0  0  0  0  0
   36.1050   20.6260   30.6450 N   0  0  0  0  0  0  0  0  0  0  0  0
   35.0140   22.0810   33.4260 H   0  0  0  0  0  0  0  0  0  0  0  0
   35.2730   19.7370   34.2840 H   0  0  0  0  0  0  0  0  0  0  0  0
   36.0890   18.0000   32.7230 H   0  0  0  0  0  0  0  0  0  0  0  0
   36.7650   18.2640   30.1360 C   0  0  0  0  0  0  0  0  0  0  0  0
   36.8700   18.7140   29.1420 H   0  0  0  0  0  0  0  0  0  0  0  0
   37.7530   17.9690   30.5160 H   0  0  0  0  0  0  0  0  0  0  0  0
   36.1000   17.3800   30.1800 H   0  0  0  0  0  0  0  0  0  0  0  0
   39.6580   26.8920   31.8210 S   0  0  0  0  0  0  0  0  0  0  0  0
   40.6610   26.1960   33.1740 C   0  0  0  0  0  0  0  0  0  0  0  0
   41.0300   25.2060   32.8350 H   0  0  0  0  0  0  0  0  0  0  0  0
   41.5210   26.8570   33.4180 H   0  0  0  0  0  0  0  0  0  0  0  0
   40.0710   23.6840   34.1240 F   0  0  0  0  0  0  0  0  0  0  0  0
   39.5370   24.7780   34.7540 C   0  0  0  0  0  0  0  0  0  0  0  0
   39.7640   26.0890   34.3640 C   0  0  0  0  0  0  0  0  0  0  0  0
   39.2070   27.1410   35.0260 C   0  0  0  0  0  0  0  0  0  0  0  0
   38.3770   26.9210   36.1370 C   0  0  0  0  0  0  0  0  0  0  0  0
   38.1380   25.6150   36.5430 C   0  0  0  0  0  0  0  0  0  0  0  0
   38.7160   24.5690   35.8510 C   0  0  0  0  0  0  0  0  0  0  0  0
   39.4480   28.1270   34.6420 H   0  0  0  0  0  0  0  0  0  0  0  0
   37.9550   27.7860   36.6350 H   0  0  0  0  0  0  0  0  0  0  0  0
   37.5030   25.4270   37.3930 H   0  0  0  0  0  0  0  0  0  0  0  0
   38.4480   23.2050   36.2980 C   0  0  0  0  0  0  0  0  0  0  0  0
   39.1150   22.3920   36.0070 H   0  0  0  0  0  0  0  0  0  0  0  0
   37.4550   22.9330   37.0220 O   0  0  0  0  0  0  0  0  0  0  0  0
  1  6  1  0  0  0  0
  1  7  1  0  0  0  0
  2  1  2  0  0  0  0
  3  4  2  0  0  0  0
  3  2  1  0  0  0  0
  4  5  1  0  0  0  0
  5 23  1  0  0  0  0
  5  6  2  0  0  0  0
  8  3  1  0  0  0  0
  9  2  1  0  0  0  0
  9 10  1  0  0  0  0
 10 11  1  0  0  0  0
 11 12  2  0  0  0  0
 11 16  1  0  0  0  0
 12 17  1  0  0  0  0
 13 18  1  0  0  0  0
 13 12  1  0  0  0  0
 14 13  2  0  0  0  0
 15 14  1  0  0  0  0
 15 10  2  0  0  0  0
 19 22  1  0  0  0  0
 19 21  1  0  0  0  0
 19 14  1  0  0  0  0
 20 19  1  0  0  0  0
 23 24  1  0  0  0  0
 24 26  1  0  0  0  0
 24 29  1  0  0  0  0
 25 24  1  0  0  0  0
 27 28  1  0  0  0  0
 28 33  1  0  0  0  0
 29 28  2  0  0  0  0
 29 30  1  0  0  0  0
 30 31  2  0  0  0  0
 31 32  1  0  0  0  0
 31 35  1  0  0  0  0
 32 36  1  0  0  0  0
 33 37  1  0  0  0  0
 33 32  2  0  0  0  0
 34 30  1  0  0  0  0
 37 39  2  0  0  0  0
 38 37  1  0  0  0  0
M  END
>  <minimizedAffinity>
-5.5891757

$$$$

 OpenBabel03262522263D

 39 41  0  0  0  0  0  0  0  0999 V2000
   37.1520   27.1180   33.5720 C   0  0  0  0  0  0  0  0  0  0  0  0
   36.8350   26.8950   32.2360 C   0  0  0  0  0  0  0  0  0  0  0  0
   35.9500   27.7710   31.6480 C   0  0  0  0  0  0  0  0  0  0  0  0
   35.4470   28.7900   32.4020 N   0  0  0  0  0  0  0  0  0  0  0  0
   35.7720   28.9600   33.6510 C   0  0  0  0  0  0  0  0  0  0  0  0
   36.6530   28.1190   34.3050 N   0  0  0  0  0  0  0  0  0  0  0  0
   37.8470   26.4670   34.1130 H   0  0  0  0  0  0  0  0  0  0  0  0
   35.6660   27.6540   30.6020 H   0  0  0  0  0  0  0  0  0  0  0  0
   37.4040   25.8450   31.6000 O   0  0  0  0  0  0  0  0  0  0  0  0
   36.9000   24.5670   31.7810 C   0  0  0  0  0  0  0  0  0  0  0  0
   35.7350   24.0440   31.2570 C   0  0  0  0  0  0  0  0  0  0  0  0
   35.3980   22.7700   31.5410 C   0  0  0  0  0  0  0  0  0  0  0  0
   36.2250   22.0270   32.3430 C   0  0  0  0  0  0  0  0  0  0  0  0
   37.3930   22.5640   32.8650 C   0  0  0  0  0  0  0  0  0  0  0  0
   37.7160   23.8530   32.5660 N   0  0  0  0  0  0  0  0  0  0  0  0
   35.1470   24.7100   30.6400 H   0  0  0  0  0  0  0  0  0  0  0  0
   34.4900   22.3400   31.1390 H   0  0  0  0  0  0  0  0  0  0  0  0
   35.9760   20.9910   32.5880 H   0  0  0  0  0  0  0  0  0  0  0  0
   38.2840   21.7200   33.7520 C   0  0  0  0  0  0  0  0  0  0  0  0
   39.1740   22.3170   33.9860 H   0  0  0  0  0  0  0  0  0  0  0  0
   37.7100   21.5360   34.6710 H   0  0  0  0  0  0  0  0  0  0  0  0
   38.4900   20.7450   33.2710 H   0  0  0  0  0  0  0  0  0  0  0  0
   34.9470   30.3880   34.3920 S   0  0  0  0  0  0  0  0  0  0  0  0
   36.0470   30.9010   35.7500 C   0  0  0  0  0  0  0  0  0  0  0  0
   35.7370   30.3410   36.6560 H   0  0  0  0  0  0  0  0  0  0  0  0
   37.1100   30.6780   35.5120 H   0  0  0  0  0  0  0  0  0  0  0  0
   34.1270   31.7920   37.5060 F   0  0  0  0  0  0  0  0  0  0  0  0
   34.8800   32.7090   36.8190 C   0  0  0  0  0  0  0  0  0  0  0  0
   35.8740   32.3760   35.9100 C   0  0  0  0  0  0  0  0  0  0  0  0
   36.5930   33.3290   35.2540 C   0  0  0  0  0  0  0  0  0  0  0  0
   36.3440   34.6920   35.4850 C   0  0  0  0  0  0  0  0  0  0  0  0
   35.3530   35.0440   36.3910 C   0  0  0  0  0  0  0  0  0  0  0  0
   34.6400   34.0550   37.0410 C   0  0  0  0  0  0  0  0  0  0  0  0
   37.3480   32.9650   34.5650 H   0  0  0  0  0  0  0  0  0  0  0  0
   36.9400   35.4160   34.9420 H   0  0  0  0  0  0  0  0  0  0  0  0
   35.1470   36.0850   36.5810 H   0  0  0  0  0  0  0  0  0  0  0  0
   33.6030   34.4530   37.9890 C   0  0  0  0  0  0  0  0  0  0  0  0
   32.5550   34.2350   37.7790 H   0  0  0  0  0  0  0  0  0  0  0  0
   33.8860   35.0490   39.0610 O   0  0  0  0  0  0  0  0  0  0  0  0
  1  7  1  0  0  0  0
  1  6  1  0  0  0  0
  2  1  2  0  0  0  0
  3  2  1  0  0  0  0
  3  4  2  0  0  0  0
  4  5  1  0  0  0  0
  5  6  2  0  0  0  0
  5 23  1  0  0  0  0
  8  3  1  0  0  0  0
  9 10  1  0  0  0  0
  9  2  1  0  0  0  0
 10 15  1  0  0  0  0
 11 12  1  0  0  0  0
 11 10  2  0  0  0  0
 12 13  2  0  0  0  0
 13 18  1  0  0  0  0
 13 14  1  0  0  0  0
 14 19  1  0  0  0  0
 15 14  2  0  0  0  0
 16 11  1  0  0  0  0
 17 12  1  0  0  0  0
 19 20  1  0  0  0  0
 19 21  1  0  0  0  0
 22 19  1  0  0  0  0
 23 24  1  0  0  0  0
 24 29  1  0  0  0  0
 24 25  1  0  0  0  0
 26 24  1  0  0  0  0
 28 33  1  0  0  0  0
 28 27  1  0  0  0  0
 29 28  2  0  0  0  0
 30 31  2  0  0  0  0
 30 29  1  0  0  0  0
 31 32  1  0  0  0  0
 32 36  1  0  0  0  0
 32 33  2  0  0  0  0
 33 37  1  0  0  0  0
 34 30  1  0  0  0  0
 35 31  1  0  0  0  0
 37 39  2  0  0  0  0
 38 37  1  0  0  0  0
M  END
>  <minimizedAffinity>
-5.52179384

$$$$

 OpenBabel03262522263D

 39 41  0  0  0  0  0  0  0  0999 V2000
   37.8840   25.8270   31.2240 C   0  0  0  0  0  0  0  0  0  0  0  0
   36.7780   25.0030   31.0420 C   0  0  0  0  0  0  0  0  0  0  0  0
   35.5370   25.5800   31.1870 C   0  0  0  0  0  0  0  0  0  0  0  0
   35.4690   26.9060   31.4970 N   0  0  0  0  0  0  0  0  0  0  0  0
   36.5320   27.6400   31.6600 C   0  0  0  0  0  0  0  0  0  0  0  0
   37.8090   27.1270   31.5290 N   0  0  0  0  0  0  0  0  0  0  0  0
   38.9060   25.4450   31.1260 H   0  0  0  0  0  0  0  0  0  0  0  0
   34.6310   24.9890   31.0500 H   0  0  0  0  0  0  0  0  0  0  0  0
   36.9820   23.7000   30.7360 O   0  0  0  0  0  0  0  0  0  0  0  0
   36.5320   22.7080   31.5920 C   0  0  0  0  0  0  0  0  0  0  0  0
   35.5230   21.7940   31.3580 C   0  0  0  0  0  0  0  0  0  0  0  0
   35.2160   20.8920   32.3110 C   0  0  0  0  0  0  0  0  0  0  0  0
   35.9170   20.9060   33.4890 C   0  0  0  0  0  0  0  0  0  0  0  0
   36.9280   21.8300   33.7130 C   0  0  0  0  0  0  0  0  0  0  0  0
   37.2230   22.7330   32.7380 N   0  0  0  0  0  0  0  0  0  0  0  0
   35.0250   21.8670   30.4000 H   0  0  0  0  0  0  0  0  0  0  0  0
   34.4300   20.1670   32.1480 H   0  0  0  0  0  0  0  0  0  0  0  0
   35.6880   20.1860   34.2790 H   0  0  0  0  0  0  0  0  0  0  0  0
   37.6810   21.8240   35.0270 C   0  0  0  0  0  0  0  0  0  0  0  0
   38.4710   22.5810   34.9560 H   0  0  0  0  0  0  0  0  0  0  0  0
   36.9530   22.1200   35.7950 H   0  0  0  0  0  0  0  0  0  0  0  0
   38.0350   20.8010   35.2610 H   0  0  0  0  0  0  0  0  0  0  0  0
   36.1320   29.3550   32.0670 S   0  0  0  0  0  0  0  0  0  0  0  0
   34.5900   29.2500   33.0310 C   0  0  0  0  0  0  0  0  0  0  0  0
   33.7640   29.5840   32.3700 H   0  0  0  0  0  0  0  0  0  0  0  0
   34.4020   28.2100   33.3770 H   0  0  0  0  0  0  0  0  0  0  0  0
   32.4600   29.5440   34.7460 F   0  0  0  0  0  0  0  0  0  0  0  0
   33.6260   30.2150   35.0080 C   0  0  0  0  0  0  0  0  0  0  0  0
   34.7620   30.1440   34.2160 C   0  0  0  0  0  0  0  0  0  0  0  0
   35.8950   30.8330   34.5240 C   0  0  0  0  0  0  0  0  0  0  0  0
   35.9440   31.6460   35.6690 C   0  0  0  0  0  0  0  0  0  0  0  0
   34.8160   31.7300   36.4740 C   0  0  0  0  0  0  0  0  0  0  0  0
   33.6800   31.0190   36.1360 C   0  0  0  0  0  0  0  0  0  0  0  0
   36.7280   30.7090   33.8410 H   0  0  0  0  0  0  0  0  0  0  0  0
   36.8650   32.1760   35.8760 H   0  0  0  0  0  0  0  0  0  0  0  0
   34.8340   32.3500   37.3560 H   0  0  0  0  0  0  0  0  0  0  0  0
   32.5080   31.1260   37.0000 C   0  0  0  0  0  0  0  0  0  0  0  0
   31.9100   32.0380   37.0020 H   0  0  0  0  0  0  0  0  0  0  0  0
   32.1610   30.1810   37.7560 O   0  0  0  0  0  0  0  0  0  0  0  0
  1  6  1  0  0  0  0
  2  3  1  0  0  0  0
  2  1  2  0  0  0  0
  3  4  2  0  0  0  0
  4  5  1  0  0  0  0
  5 23  1  0  0  0  0
  6  5  2  0  0  0  0
  7  1  1  0  0  0  0
  8  3  1  0  0  0  0
  9  2  1  0  0  0  0
  9 10  1  0  0  0  0
 10 15  1  0  0  0  0
 11 10  2  0  0  0  0
 11 12  1  0  0  0  0
 12 13  2  0  0  0  0
 13 14  1  0  0  0  0
 13 18  1  0  0  0  0
 14 19  1  0  0  0  0
 15 14  2  0  0  0  0
 16 11  1  0  0  0  0
 17 12  1  0  0  0  0
 19 22  1  0  0  0  0
 19 21  1  0  0  0  0
 20 19  1  0  0  0  0
 23 24  1  0  0  0  0
 24 26  1  0  0  0  0
 24 29  1  0  0  0  0
 25 24  1  0  0  0  0
 27 28  1  0  0  0  0
 28 33  1  0  0  0  0
 29 30  1  0  0  0  0
 29 28  2  0  0  0  0
 30 31  2  0  0  0  0
 31 35  1  0  0  0  0
 31 32  1  0  0  0  0
 32 36  1  0  0  0  0
 33 32  2  0  0  0  0
 33 37  1  0  0  0  0
 34 30  1  0  0  0  0
 37 38  1  0  0  0  0
 37 39  2  0  0  0  0
M  END
>  <minimizedAffinity>
-5.48411608

$$$$

 OpenBabel03262522263D

 39 41  0  0  0  0  0  0  0  0999 V2000
   35.9450   28.8920   34.4890 C   0  0  0  0  0  0  0  0  0  0  0  0
   35.0240   29.3680   33.5610 C   0  0  0  0  0  0  0  0  0  0  0  0
   35.0030   28.7550   32.3280 C   0  0  0  0  0  0  0  0  0  0  0  0
   35.8760   27.7330   32.0970 N   0  0  0  0  0  0  0  0  0  0  0  0
   36.7220   27.3200   32.9960 C   0  0  0  0  0  0  0  0  0  0  0  0
   36.7980   27.8900   34.2530 N   0  0  0  0  0  0  0  0  0  0  0  0
   36.0250   29.3260   35.4920 H   0  0  0  0  0  0  0  0  0  0  0  0
   34.3010   29.0770   31.5600 H   0  0  0  0  0  0  0  0  0  0  0  0
   34.2130   30.3910   33.9170 O   0  0  0  0  0  0  0  0  0  0  0  0
   33.4510   30.3040   35.0710 C   0  0  0  0  0  0  0  0  0  0  0  0
   33.4510   31.1740   36.1430 C   0  0  0  0  0  0  0  0  0  0  0  0
   32.6380   30.9310   37.1900 C   0  0  0  0  0  0  0  0  0  0  0  0
   31.8310   29.8230   37.1610 C   0  0  0  0  0  0  0  0  0  0  0  0
   31.8410   28.9550   36.0790 C   0  0  0  0  0  0  0  0  0  0  0  0
   32.6690   29.2180   35.0310 N   0  0  0  0  0  0  0  0  0  0  0  0
   34.1270   32.0170   36.0740 H   0  0  0  0  0  0  0  0  0  0  0  0
   32.6210   31.6020   38.0390 H   0  0  0  0  0  0  0  0  0  0  0  0
   31.1630   29.6030   37.9970 H   0  0  0  0  0  0  0  0  0  0  0  0
   30.9420   27.7360   36.0790 C   0  0  0  0  0  0  0  0  0  0  0  0
   31.0610   27.2410   35.1080 H   0  0  0  0  0  0  0  0  0  0  0  0
   31.3190   27.0810   36.8770 H   0  0  0  0  0  0  0  0  0  0  0  0
   29.9040   28.0260   36.3310 H   0  0  0  0  0  0  0  0  0  0  0  0
   37.7500   25.9560   32.4040 S   0  0  0  0  0  0  0  0  0  0  0  0
   38.9680   25.6880   33.7320 C   0  0  0  0  0  0  0  0  0  0  0  0
   39.9610   25.5740   33.2510 H   0  0  0  0  0  0  0  0  0  0  0  0
   38.9870   26.5460   34.4390 H   0  0  0  0  0  0  0  0  0  0  0  0
   38.5760   25.8630   36.4480 F   0  0  0  0  0  0  0  0  0  0  0  0
   38.3790   24.6600   35.8210 C   0  0  0  0  0  0  0  0  0  0  0  0
   38.5460   24.4540   34.4600 C   0  0  0  0  0  0  0  0  0  0  0  0
   38.3370   23.2360   33.8880 C   0  0  0  0  0  0  0  0  0  0  0  0
   37.9400   22.1410   34.6730 C   0  0  0  0  0  0  0  0  0  0  0  0
   37.7670   22.3280   36.0390 C   0  0  0  0  0  0  0  0  0  0  0  0
   37.9870   23.5750   36.5900 C   0  0  0  0  0  0  0  0  0  0  0  0
   38.4940   23.1800   32.8160 H   0  0  0  0  0  0  0  0  0  0  0  0
   37.7830   21.1910   34.1780 H   0  0  0  0  0  0  0  0  0  0  0  0
   37.4630   21.5000   36.6570 H   0  0  0  0  0  0  0  0  0  0  0  0
   37.7990   23.7440   38.0280 C   0  0  0  0  0  0  0  0  0  0  0  0
   36.8180   24.0080   38.4250 H   0  0  0  0  0  0  0  0  0  0  0  0
   38.7500   23.5910   38.8380 O   0  0  0  0  0  0  0  0  0  0  0  0
  1  7  1  0  0  0  0
  2  9  1  0  0  0  0
  2  1  2  0  0  0  0
  3  2  1  0  0  0  0
  4  3  2  0  0  0  0
  4  5  1  0  0  0  0
  5  6  2  0  0  0  0
  6  1  1  0  0  0  0
  8  3  1  0  0  0  0
  9 10  1  0  0  0  0
 10 11  1  0  0  0  0
 11 12  2  0  0  0  0
 12 17  1  0  0  0  0
 13 12  1  0  0  0  0
 13 18  1  0  0  0  0
 14 13  2  0  0  0  0
 15 10  2  0  0  0  0
 15 14  1  0  0  0  0
 16 11  1  0  0  0  0
 19 14  1  0  0  0  0
 19 22  1  0  0  0  0
 19 21  1  0  0  0  0
 20 19  1  0  0  0  0
 23  5  1  0  0  0  0
 23 24  1  0  0  0  0
 24 26  1  0  0  0  0
 24 29  1  0  0  0  0
 25 24  1  0  0  0  0
 28 27  1  0  0  0  0
 28 33  1  0  0  0  0
 29 28  2  0  0  0  0
 30 29  1  0  0  0  0
 30 31  2  0  0  0  0
 31 32  1  0  0  0  0
 32 33  2  0  0  0  0
 32 36  1  0  0  0  0
 33 37  1  0  0  0  0
 34 30  1  0  0  0  0
 35 31  1  0  0  0  0
 37 38  1  0  0  0  0
 37 39  2  0  0  0  0
M  END
>  <minimizedAffinity>
-5.47907543

$$$$

 OpenBabel03262522263D

 39 41  0  0  0  0  0  0  0  0999 V2000
   35.9970   28.5800   32.0930 C   0  0  0  0  0  0  0  0  0  0  0  0
   35.7310   29.2340   33.2920 C   0  0  0  0  0  0  0  0  0  0  0  0
   36.1240   28.6010   34.4500 C   0  0  0  0  0  0  0  0  0  0  0  0
   36.7400   27.3890   34.3510 N   0  0  0  0  0  0  0  0  0  0  0  0
   36.9670   26.8130   33.2060 C   0  0  0  0  0  0  0  0  0  0  0  0
   36.6010   27.3900   32.0050 N   0  0  0  0  0  0  0  0  0  0  0  0
   35.7170   29.0160   31.1280 H   0  0  0  0  0  0  0  0  0  0  0  0
   35.9500   29.0640   35.4210 H   0  0  0  0  0  0  0  0  0  0  0  0
   35.1120   30.4360   33.2530 O   0  0  0  0  0  0  0  0  0  0  0  0
   35.4530   31.4230   34.1640 C   0  0  0  0  0  0  0  0  0  0  0  0
   35.0520   31.5210   35.4820 C   0  0  0  0  0  0  0  0  0  0  0  0
   35.4850   32.5570   36.2280 C   0  0  0  0  0  0  0  0  0  0  0  0
   36.3150   33.4860   35.6560 C   0  0  0  0  0  0  0  0  0  0  0  0
   36.7110   33.3770   34.3310 C   0  0  0  0  0  0  0  0  0  0  0  0
   36.2630   32.3240   33.5940 N   0  0  0  0  0  0  0  0  0  0  0  0
   34.3920   30.7420   35.8400 H   0  0  0  0  0  0  0  0  0  0  0  0
   35.1830   32.6520   37.2630 H   0  0  0  0  0  0  0  0  0  0  0  0
   36.6810   34.3350   36.2390 H   0  0  0  0  0  0  0  0  0  0  0  0
   37.6250   34.4220   33.7260 C   0  0  0  0  0  0  0  0  0  0  0  0
   37.8610   34.1000   32.7050 H   0  0  0  0  0  0  0  0  0  0  0  0
   37.0420   35.3530   33.6950 H   0  0  0  0  0  0  0  0  0  0  0  0
   38.5040   34.5860   34.3790 H   0  0  0  0  0  0  0  0  0  0  0  0
   37.7930   25.2150   33.3880 S   0  0  0  0  0  0  0  0  0  0  0  0
   39.2460   25.5660   34.4290 C   0  0  0  0  0  0  0  0  0  0  0  0
   40.1430   25.2330   33.8660 H   0  0  0  0  0  0  0  0  0  0  0  0
   39.3240   26.6510   34.6580 H   0  0  0  0  0  0  0  0  0  0  0  0
   40.9070   23.4260   34.9040 F   0  0  0  0  0  0  0  0  0  0  0  0
   39.9510   23.7470   35.8320 C   0  0  0  0  0  0  0  0  0  0  0  0
   39.0600   24.8020   35.6990 C   0  0  0  0  0  0  0  0  0  0  0  0
   38.1280   25.0770   36.6530 C   0  0  0  0  0  0  0  0  0  0  0  0
   38.0440   24.2890   37.8130 C   0  0  0  0  0  0  0  0  0  0  0  0
   38.9280   23.2280   37.9630 C   0  0  0  0  0  0  0  0  0  0  0  0
   39.8620   22.9740   36.9780 C   0  0  0  0  0  0  0  0  0  0  0  0
   37.4800   25.9240   36.4550 H   0  0  0  0  0  0  0  0  0  0  0  0
   37.2880   24.5430   38.5460 H   0  0  0  0  0  0  0  0  0  0  0  0
   38.8780   22.6120   38.8460 H   0  0  0  0  0  0  0  0  0  0  0  0
   40.7790   21.8520   37.1610 C   0  0  0  0  0  0  0  0  0  0  0  0
   40.3900   20.8480   37.3300 H   0  0  0  0  0  0  0  0  0  0  0  0
   42.0270   22.0120   37.1280 O   0  0  0  0  0  0  0  0  0  0  0  0
  1  2  1  0  0  0  0
  2  3  2  0  0  0  0
  3  8  1  0  0  0  0
  4  3  1  0  0  0  0
  5 23  1  0  0  0  0
  5  4  2  0  0  0  0
  6  1  2  0  0  0  0
  6  5  1  0  0  0  0
  7  1  1  0  0  0  0
  9  2  1  0  0  0  0
  9 10  1  0  0  0  0
 10 11  1  0  0  0  0
 11 16  1  0  0  0  0
 11 12  2  0  0  0  0
 12 17  1  0  0  0  0
 13 12  1  0  0  0  0
 13 18  1  0  0  0  0
 14 13  2  0  0  0  0
 15 10  2  0  0  0  0
 15 14  1  0  0  0  0
 19 14  1  0  0  0  0
 19 22  1  0  0  0  0
 20 19  1  0  0  0  0
 21 19  1  0  0  0  0
 23 24  1  0  0  0  0
 24 26  1  0  0  0  0
 24 29  1  0  0  0  0
 25 24  1  0  0  0  0
 27 28  1  0  0  0  0
 28 33  1  0  0  0  0
 29 28  2  0  0  0  0
 29 30  1  0  0  0  0
 30 31  2  0  0  0  0
 31 32  1  0  0  0  0
 31 35  1  0  0  0  0
 32 36  1  0  0  0  0
 33 37  1  0  0  0  0
 33 32  2  0  0  0  0
 34 30  1  0  0  0  0
 37 38  1  0  0  0  0
 39 37  2  0  0  0  0
M  END
>  <minimizedAffinity>
-5.45680475

$$$$
