
 OpenBabel03272505403D

 39 41  0  0  0  0  0  0  0  0999 V2000
   36.0920   30.4190   46.5460 C   0  0  0  0  0  0  0  0  0  0  0  0
   34.7750   29.9660   46.5920 C   0  0  0  0  0  0  0  0  0  0  0  0
   34.1290   29.6450   45.4100 C   0  0  0  0  0  0  0  0  0  0  0  0
   34.7160   29.7480   44.1740 C   0  0  0  0  0  0  0  0  0  0  0  0
   36.0320   30.2000   44.1190 C   0  0  0  0  0  0  0  0  0  0  0  0
   36.6610   30.5160   45.3160 C   0  0  0  0  0  0  0  0  0  0  0  0
   34.2780   29.8700   47.5450 H   0  0  0  0  0  0  0  0  0  0  0  0
   33.1070   29.2970   45.4930 H   0  0  0  0  0  0  0  0  0  0  0  0
   34.1560   29.4800   43.2870 H   0  0  0  0  0  0  0  0  0  0  0  0
   36.4400   30.2610   43.1370 H   0  0  0  0  0  0  0  0  0  0  0  0
   37.9910   30.9590   45.0700 N   0  0  0  0  0  0  0  0  0  0  0  0
   39.3100   30.4010   45.0600 C   0  0  0  0  0  0  0  0  0  0  0  0
   40.1620   31.2330   45.9900 C   0  0  0  0  0  0  0  0  0  0  0  0
   40.3500   32.5320   45.3860 N   0  0  0  0  0  0  0  0  0  0  0  0
   39.3500   32.8700   44.4340 C   0  0  0  0  0  0  0  0  0  0  0  0
   37.9830   32.3480   44.7390 C   0  0  0  0  0  0  0  0  0  0  0  0
   39.3390   29.3270   45.3410 H   0  0  0  0  0  0  0  0  0  0  0  0
   39.7480   30.5480   44.0380 H   0  0  0  0  0  0  0  0  0  0  0  0
   40.1020   31.1250   47.0260 H   0  0  0  0  0  0  0  0  0  0  0  0
   41.1750   30.7380   45.7810 H   0  0  0  0  0  0  0  0  0  0  0  0
   41.2790   32.7460   45.0280 H   0  0  0  0  0  0  0  0  0  0  0  0
   39.2600   33.9930   44.4370 H   0  0  0  0  0  0  0  0  0  0  0  0
   39.6740   32.6380   43.3930 H   0  0  0  0  0  0  0  0  0  0  0  0
   37.4690   32.3630   43.7230 H   0  0  0  0  0  0  0  0  0  0  0  0
   37.3600   33.0120   45.3250 H   0  0  0  0  0  0  0  0  0  0  0  0
   37.3340   30.3020   49.9770 C   0  0  0  0  0  0  0  0  0  0  0  0
   38.1090   31.4700   50.0620 C   0  0  0  0  0  0  0  0  0  0  0  0
   38.1910   32.2780   48.9280 C   0  0  0  0  0  0  0  0  0  0  0  0
   37.5120   31.8650   47.8320 N   0  0  0  0  0  0  0  0  0  0  0  0
   36.7840   30.7610   47.7630 C   0  0  0  0  0  0  0  0  0  0  0  0
   36.6920   29.9670   48.8480 N   0  0  0  0  0  0  0  0  0  0  0  0
   38.6240   31.7240   50.9900 H   0  0  0  0  0  0  0  0  0  0  0  0
   37.2540   29.4440   51.2160 C   0  0  0  0  0  0  0  0  0  0  0  0
   35.8940   29.1800   51.4710 F   0  0  0  0  0  0  0  0  0  0  0  0
   37.9520   28.3230   51.0100 F   0  0  0  0  0  0  0  0  0  0  0  0
   37.7080   30.1910   52.2800 F   0  0  0  0  0  0  0  0  0  0  0  0
   38.9630   33.4860   48.9380 C   0  0  0  0  0  0  0  0  0  0  0  0
   39.0900   34.0290   48.0060 H   0  0  0  0  0  0  0  0  0  0  0  0
   39.4750   33.8960   50.0140 O   0  0  0  0  0  0  0  0  0  0  0  0
  1  2  1  0  0  0  0
  1 30  1  0  0  0  0
  2  7  1  0  0  0  0
  3  8  1  0  0  0  0
  3  2  2  0  0  0  0
  4  3  1  0  0  0  0
  5  4  2  0  0  0  0
  5  6  1  0  0  0  0
  6  1  2  0  0  0  0
  9  4  1  0  0  0  0
 10  5  1  0  0  0  0
 11  6  1  0  0  0  0
 12 11  1  0  0  0  0
 12 17  1  0  0  0  0
 12 13  1  0  0  0  0
 13 19  1  0  0  0  0
 14 13  1  0  0  0  0
 15 22  1  0  0  0  0
 15 16  1  0  0  0  0
 15 14  1  0  0  0  0
 16 11  1  0  0  0  0
 16 25  1  0  0  0  0
 18 12  1  0  0  0  0
 20 13  1  0  0  0  0
 21 14  1  0  0  0  0
 23 15  1  0  0  0  0
 24 16  1  0  0  0  0
 26 27  1  0  0  0  0
 26 33  1  0  0  0  0
 27 32  1  0  0  0  0
 28 37  1  0  0  0  0
 28 27  2  0  0  0  0
 29 28  1  0  0  0  0
 30 29  2  0  0  0  0
 30 31  1  0  0  0  0
 31 26  2  0  0  0  0
 33 34  1  0  0  0  0
 33 36  1  0  0  0  0
 35 33  1  0  0  0  0
 37 39  2  0  0  0  0
 38 37  1  0  0  0  0
M  END
>  <minimizedAffinity>
-7.06430864

>  <minimizedRMSD>
0.281520903

$$$$
