
 OpenBabel03272509493D

 27 28  0  0  0  0  0  0  0  0999 V2000
   33.7190   28.5930   48.6990 C   0  0  0  0  0  0  0  0  0  0  0  0
   33.1900   29.5210   48.9870 H   0  0  0  0  0  0  0  0  0  0  0  0
   34.3590   28.8610   47.8160 H   0  0  0  0  0  0  0  0  0  0  0  0
   32.8060   27.4580   48.3460 C   0  0  0  0  0  0  0  0  0  0  0  0
   33.0350   27.0400   47.3250 H   0  0  0  0  0  0  0  0  0  0  0  0
   32.9420   26.6000   49.0400 H   0  0  0  0  0  0  0  0  0  0  0  0
   31.3680   27.8600   48.3500 C   0  0  0  0  0  0  0  0  0  0  0  0
   30.6920   27.7280   49.5370 C   0  0  0  0  0  0  0  0  0  0  0  0
   29.3610   28.0680   49.6640 C   0  0  0  0  0  0  0  0  0  0  0  0
   28.7150   28.5420   48.5830 N   0  0  0  0  0  0  0  0  0  0  0  0
   29.3860   28.6680   47.4200 C   0  0  0  0  0  0  0  0  0  0  0  0
   30.6850   28.3390   47.2930 N   0  0  0  0  0  0  0  0  0  0  0  0
   31.1600   27.3510   50.4450 H   0  0  0  0  0  0  0  0  0  0  0  0
   28.8110   27.9710   50.5900 H   0  0  0  0  0  0  0  0  0  0  0  0
   28.8320   29.0540   46.5720 H   0  0  0  0  0  0  0  0  0  0  0  0
   34.6170   28.2160   49.7350 O   0  0  0  0  0  0  0  0  0  0  0  0
   37.2370   30.1870   51.2730 C   0  0  0  0  0  0  0  0  0  0  0  0
   37.9010   30.6300   50.1110 C   0  0  0  0  0  0  0  0  0  0  0  0
   37.4140   30.2310   48.8800 C   0  0  0  0  0  0  0  0  0  0  0  0
   36.3090   29.4240   48.9000 N   0  0  0  0  0  0  0  0  0  0  0  0
   35.6960   29.0150   50.0040 C   0  0  0  0  0  0  0  0  0  0  0  0
   36.1700   29.4030   51.1970 N   0  0  0  0  0  0  0  0  0  0  0  0
   37.6230   30.5030   52.2450 H   0  0  0  0  0  0  0  0  0  0  0  0
   38.7600   31.2600   50.1280 H   0  0  0  0  0  0  0  0  0  0  0  0
   38.0460   30.6490   47.6180 C   0  0  0  0  0  0  0  0  0  0  0  0
   39.0780   30.3560   47.4800 H   0  0  0  0  0  0  0  0  0  0  0  0
   37.3380   31.3080   46.8150 O   0  0  0  0  0  0  0  0  0  0  0  0
  1  2  1  0  0  0  0
  1 16  1  0  0  0  0
  3  1  1  0  0  0  0
  4  7  1  0  0  0  0
  4  1  1  0  0  0  0
  4  6  1  0  0  0  0
  5  4  1  0  0  0  0
  7  8  1  0  0  0  0
  8  9  2  0  0  0  0
  8 13  1  0  0  0  0
  9 14  1  0  0  0  0
 10  9  1  0  0  0  0
 11 10  2  0  0  0  0
 12 11  1  0  0  0  0
 12  7  2  0  0  0  0
 15 11  1  0  0  0  0
 16 21  1  0  0  0  0
 17 23  1  0  0  0  0
 18 24  1  0  0  0  0
 18 17  2  0  0  0  0
 19 20  2  0  0  0  0
 19 18  1  0  0  0  0
 20 21  1  0  0  0  0
 21 22  2  0  0  0  0
 22 17  1  0  0  0  0
 25 19  1  0  0  0  0
 26 25  1  0  0  0  0
 27 25  2  0  0  0  0
M  END
>  <minimizedAffinity>
-4.68357515

>  <minimizedRMSD>
0.0140542099

$$$$
