
 OpenBabel03272509493D

 27 28  0  0  0  0  0  0  0  0999 V2000
   33.7390   28.6130   48.7290 C   0  0  0  0  0  0  0  0  0  0  0  0
   33.2020   29.5130   49.0840 H   0  0  0  0  0  0  0  0  0  0  0  0
   34.3550   28.9450   47.8500 H   0  0  0  0  0  0  0  0  0  0  0  0
   32.8370   27.4850   48.3260 C   0  0  0  0  0  0  0  0  0  0  0  0
   33.0770   27.1080   47.2920 H   0  0  0  0  0  0  0  0  0  0  0  0
   32.9730   26.6040   48.9890 H   0  0  0  0  0  0  0  0  0  0  0  0
   31.3960   27.8770   48.3340 C   0  0  0  0  0  0  0  0  0  0  0  0
   30.7220   27.7350   49.5200 C   0  0  0  0  0  0  0  0  0  0  0  0
   29.3890   28.0640   49.6490 C   0  0  0  0  0  0  0  0  0  0  0  0
   28.7390   28.5380   48.5720 N   0  0  0  0  0  0  0  0  0  0  0  0
   29.4070   28.6760   47.4080 C   0  0  0  0  0  0  0  0  0  0  0  0
   30.7090   28.3560   47.2790 N   0  0  0  0  0  0  0  0  0  0  0  0
   31.1940   27.3570   50.4260 H   0  0  0  0  0  0  0  0  0  0  0  0
   28.8400   27.9590   50.5760 H   0  0  0  0  0  0  0  0  0  0  0  0
   28.8500   29.0610   46.5620 H   0  0  0  0  0  0  0  0  0  0  0  0
   34.6650   28.1890   49.7210 O   0  0  0  0  0  0  0  0  0  0  0  0
   37.1720   30.1260   51.4740 C   0  0  0  0  0  0  0  0  0  0  0  0
   37.7520   30.7960   50.3780 C   0  0  0  0  0  0  0  0  0  0  0  0
   37.2520   30.5460   49.1130 C   0  0  0  0  0  0  0  0  0  0  0  0
   36.2190   29.6530   49.0370 N   0  0  0  0  0  0  0  0  0  0  0  0
   35.6850   29.0290   50.0810 C   0  0  0  0  0  0  0  0  0  0  0  0
   36.1710   29.2740   51.3070 N   0  0  0  0  0  0  0  0  0  0  0  0
   37.5690   30.3250   52.4730 H   0  0  0  0  0  0  0  0  0  0  0  0
   38.5570   31.4880   50.4690 H   0  0  0  0  0  0  0  0  0  0  0  0
   37.7980   31.2030   47.9140 C   0  0  0  0  0  0  0  0  0  0  0  0
   37.7100   32.2800   47.8750 H   0  0  0  0  0  0  0  0  0  0  0  0
   38.3190   30.4590   47.0430 O   0  0  0  0  0  0  0  0  0  0  0  0
  1  2  1  0  0  0  0
  1 16  1  0  0  0  0
  3  1  1  0  0  0  0
  4  7  1  0  0  0  0
  4  1  1  0  0  0  0
  4  6  1  0  0  0  0
  5  4  1  0  0  0  0
  7  8  1  0  0  0  0
  8  9  2  0  0  0  0
  8 13  1  0  0  0  0
  9 14  1  0  0  0  0
 10  9  1  0  0  0  0
 11 10  2  0  0  0  0
 12 11  1  0  0  0  0
 12  7  2  0  0  0  0
 15 11  1  0  0  0  0
 16 21  1  0  0  0  0
 17 23  1  0  0  0  0
 18 24  1  0  0  0  0
 18 17  2  0  0  0  0
 19 18  1  0  0  0  0
 20 19  2  0  0  0  0
 20 21  1  0  0  0  0
 21 22  2  0  0  0  0
 22 17  1  0  0  0  0
 25 19  1  0  0  0  0
 26 25  1  0  0  0  0
 27 25  2  0  0  0  0
M  END
>  <minimizedAffinity>
-4.55948734

>  <minimizedRMSD>
0.295853406

$$$$
