
 OpenBabel03272506043D

 32 34  0  0  0  0  0  0  0  0999 V2000
   38.5840   26.3840   33.7600 Cl  0  0  0  0  0  0  0  0  0  0  0  0
   37.6690   25.2120   32.8590 C   0  0  0  0  0  0  0  0  0  0  0  0
   37.7720   23.9140   33.2100 C   0  0  0  0  0  0  0  0  0  0  0  0
   37.0030   23.0260   32.4370 C   0  0  0  0  0  0  0  0  0  0  0  0
   36.2020   23.4690   31.3940 C   0  0  0  0  0  0  0  0  0  0  0  0
   36.1460   24.8260   31.0880 C   0  0  0  0  0  0  0  0  0  0  0  0
   36.9030   25.7090   31.8480 C   0  0  0  0  0  0  0  0  0  0  0  0
   37.0050   21.9530   32.6270 H   0  0  0  0  0  0  0  0  0  0  0  0
   35.6220   22.7580   30.8180 H   0  0  0  0  0  0  0  0  0  0  0  0
   35.5150   25.1490   30.2700 H   0  0  0  0  0  0  0  0  0  0  0  0
   38.9550   26.5880   29.9410 Cl  0  0  0  0  0  0  0  0  0  0  0  0
   37.7000   27.6180   30.5640 C   0  0  0  0  0  0  0  0  0  0  0  0
   36.7830   27.0930   31.4620 C   0  0  0  0  0  0  0  0  0  0  0  0
   35.7830   27.9090   31.9590 C   0  0  0  0  0  0  0  0  0  0  0  0
   35.7290   29.2410   31.5400 C   0  0  0  0  0  0  0  0  0  0  0  0
   36.6610   29.7390   30.6400 C   0  0  0  0  0  0  0  0  0  0  0  0
   36.5600   31.4240   30.1350 Cl  0  0  0  0  0  0  0  0  0  0  0  0
   37.6540   28.9340   30.1430 C   0  0  0  0  0  0  0  0  0  0  0  0
   35.0500   27.5250   32.6660 H   0  0  0  0  0  0  0  0  0  0  0  0
   34.9500   29.8850   31.9260 H   0  0  0  0  0  0  0  0  0  0  0  0
   38.3860   29.3200   29.4370 H   0  0  0  0  0  0  0  0  0  0  0  0
   38.1260   23.3110   35.6010 C   0  0  0  0  0  0  0  0  0  0  0  0
   38.5930   23.3880   34.2910 C   0  0  0  0  0  0  0  0  0  0  0  0
   39.8890   22.9380   34.0550 C   0  0  0  0  0  0  0  0  0  0  0  0
   40.6180   22.4570   35.0910 N   0  0  0  0  0  0  0  0  0  0  0  0
   40.1350   22.3980   36.3380 C   0  0  0  0  0  0  0  0  0  0  0  0
   38.8870   22.8280   36.5880 N   0  0  0  0  0  0  0  0  0  0  0  0
   37.1100   23.6670   35.7780 H   0  0  0  0  0  0  0  0  0  0  0  0
   40.3260   22.9610   33.0810 H   0  0  0  0  0  0  0  0  0  0  0  0
   40.8710   21.8930   37.4860 C   0  0  0  0  0  0  0  0  0  0  0  0
   40.6780   22.0440   38.5330 H   0  0  0  0  0  0  0  0  0  0  0  0
   41.8950   21.1660   37.4180 O   0  0  0  0  0  0  0  0  0  0  0  0
  2  3  1  0  0  0  0
  2  1  1  0  0  0  0
  3 23  1  0  0  0  0
  4  8  1  0  0  0  0
  4  3  2  0  0  0  0
  5  4  1  0  0  0  0
  6  5  2  0  0  0  0
  6  7  1  0  0  0  0
  7  2  2  0  0  0  0
  9  5  1  0  0  0  0
 10  6  1  0  0  0  0
 11 12  1  0  0  0  0
 12 13  1  0  0  0  0
 13  7  1  0  0  0  0
 13 14  2  0  0  0  0
 14 19  1  0  0  0  0
 15 20  1  0  0  0  0
 15 14  1  0  0  0  0
 16 15  2  0  0  0  0
 17 16  1  0  0  0  0
 18 12  2  0  0  0  0
 18 16  1  0  0  0  0
 21 18  1  0  0  0  0
 22 28  1  0  0  0  0
 22 27  1  0  0  0  0
 23 22  2  0  0  0  0
 24 23  1  0  0  0  0
 24 25  2  0  0  0  0
 25 26  1  0  0  0  0
 26 27  2  0  0  0  0
 26 30  1  0  0  0  0
 29 24  1  0  0  0  0
 30 31  1  0  0  0  0
 32 30  2  0  0  0  0
M  END
>  <minimizedAffinity>
-5.15224266

$$$$

 OpenBabel03272506043D

 32 34  0  0  0  0  0  0  0  0999 V2000
   36.3570   27.5550   34.7760 Cl  0  0  0  0  0  0  0  0  0  0  0  0
   36.3730   28.2960   33.2030 C   0  0  0  0  0  0  0  0  0  0  0  0
   36.9030   27.6010   32.1760 C   0  0  0  0  0  0  0  0  0  0  0  0
   36.8810   28.2630   30.9360 C   0  0  0  0  0  0  0  0  0  0  0  0
   36.3500   29.5370   30.7970 C   0  0  0  0  0  0  0  0  0  0  0  0
   35.8200   30.1950   31.9030 C   0  0  0  0  0  0  0  0  0  0  0  0
   35.8380   29.5460   33.1320 C   0  0  0  0  0  0  0  0  0  0  0  0
   37.2810   27.8010   30.0330 H   0  0  0  0  0  0  0  0  0  0  0  0
   36.3480   30.0200   29.8270 H   0  0  0  0  0  0  0  0  0  0  0  0
   35.4110   31.1890   31.7710 H   0  0  0  0  0  0  0  0  0  0  0  0
   32.9240   29.2690   33.3660 Cl  0  0  0  0  0  0  0  0  0  0  0  0
   33.8980   30.2440   34.4270 C   0  0  0  0  0  0  0  0  0  0  0  0
   35.2690   30.3000   34.2210 C   0  0  0  0  0  0  0  0  0  0  0  0
   36.0460   31.0740   35.0630 C   0  0  0  0  0  0  0  0  0  0  0  0
   35.4240   31.7770   36.0980 C   0  0  0  0  0  0  0  0  0  0  0  0
   34.0500   31.7030   36.2790 C   0  0  0  0  0  0  0  0  0  0  0  0
   33.3020   32.6050   37.5950 Cl  0  0  0  0  0  0  0  0  0  0  0  0
   33.2740   30.9360   35.4470 C   0  0  0  0  0  0  0  0  0  0  0  0
   37.1240   31.1370   34.9250 H   0  0  0  0  0  0  0  0  0  0  0  0
   36.0270   32.3850   36.7590 H   0  0  0  0  0  0  0  0  0  0  0  0
   32.1970   30.8750   35.5870 H   0  0  0  0  0  0  0  0  0  0  0  0
   36.6950   25.1180   32.1130 C   0  0  0  0  0  0  0  0  0  0  0  0
   37.4740   26.2630   32.2580 C   0  0  0  0  0  0  0  0  0  0  0  0
   38.8340   26.0770   32.4870 C   0  0  0  0  0  0  0  0  0  0  0  0
   39.3230   24.8150   32.5580 N   0  0  0  0  0  0  0  0  0  0  0  0
   38.5430   23.7370   32.4120 C   0  0  0  0  0  0  0  0  0  0  0  0
   37.2280   23.8950   32.1910 N   0  0  0  0  0  0  0  0  0  0  0  0
   35.6300   25.2730   31.9340 H   0  0  0  0  0  0  0  0  0  0  0  0
   39.5040   26.9000   32.6100 H   0  0  0  0  0  0  0  0  0  0  0  0
   39.0120   22.3630   32.4780 C   0  0  0  0  0  0  0  0  0  0  0  0
   39.7100   21.8550   31.8380 H   0  0  0  0  0  0  0  0  0  0  0  0
   38.6500   21.5220   33.3420 O   0  0  0  0  0  0  0  0  0  0  0  0
  2  1  1  0  0  0  0
  3 23  1  0  0  0  0
  3  2  2  0  0  0  0
  4  3  1  0  0  0  0
  5  4  2  0  0  0  0
  5  6  1  0  0  0  0
  6  7  2  0  0  0  0
  7  2  1  0  0  0  0
  7 13  1  0  0  0  0
  8  4  1  0  0  0  0
  9  5  1  0  0  0  0
 10  6  1  0  0  0  0
 11 12  1  0  0  0  0
 12 18  1  0  0  0  0
 13 12  2  0  0  0  0
 13 14  1  0  0  0  0
 14 15  2  0  0  0  0
 15 16  1  0  0  0  0
 15 20  1  0  0  0  0
 16 17  1  0  0  0  0
 18 21  1  0  0  0  0
 18 16  2  0  0  0  0
 19 14  1  0  0  0  0
 22 27  2  0  0  0  0
 22 23  1  0  0  0  0
 23 24  2  0  0  0  0
 24 25  1  0  0  0  0
 24 29  1  0  0  0  0
 26 30  1  0  0  0  0
 26 25  2  0  0  0  0
 27 26  1  0  0  0  0
 28 22  1  0  0  0  0
 30 32  2  0  0  0  0
 31 30  1  0  0  0  0
M  END
>  <minimizedAffinity>
-5.11307955

$$$$

 OpenBabel03272506043D

 32 34  0  0  0  0  0  0  0  0999 V2000
   35.5450   28.6330   34.4440 Cl  0  0  0  0  0  0  0  0  0  0  0  0
   35.8640   29.5160   32.9810 C   0  0  0  0  0  0  0  0  0  0  0  0
   36.2780   28.8280   31.8970 C   0  0  0  0  0  0  0  0  0  0  0  0
   36.5160   29.6080   30.7520 C   0  0  0  0  0  0  0  0  0  0  0  0
   36.3320   30.9830   30.7540 C   0  0  0  0  0  0  0  0  0  0  0  0
   35.9030   31.6270   31.9100 C   0  0  0  0  0  0  0  0  0  0  0  0
   35.6660   30.8610   33.0460 C   0  0  0  0  0  0  0  0  0  0  0  0
   36.8530   29.1630   29.8160 H   0  0  0  0  0  0  0  0  0  0  0  0
   36.5240   31.5560   29.8540 H   0  0  0  0  0  0  0  0  0  0  0  0
   35.7670   32.7010   31.8890 H   0  0  0  0  0  0  0  0  0  0  0  0
   32.7450   31.0540   33.2810 Cl  0  0  0  0  0  0  0  0  0  0  0  0
   33.8620   31.7660   34.4080 C   0  0  0  0  0  0  0  0  0  0  0  0
   35.2240   31.6100   34.1970 C   0  0  0  0  0  0  0  0  0  0  0  0
   36.1140   32.1740   35.0920 C   0  0  0  0  0  0  0  0  0  0  0  0
   35.6120   32.8860   36.1850 C   0  0  0  0  0  0  0  0  0  0  0  0
   34.2440   33.0260   36.3700 C   0  0  0  0  0  0  0  0  0  0  0  0
   33.6490   33.9320   37.7610 Cl  0  0  0  0  0  0  0  0  0  0  0  0
   33.3560   32.4680   35.4860 C   0  0  0  0  0  0  0  0  0  0  0  0
   37.1890   32.0680   34.9500 H   0  0  0  0  0  0  0  0  0  0  0  0
   36.3040   33.3300   36.8870 H   0  0  0  0  0  0  0  0  0  0  0  0
   32.2830   32.5750   35.6290 H   0  0  0  0  0  0  0  0  0  0  0  0
   35.5500   26.5300   31.2650 C   0  0  0  0  0  0  0  0  0  0  0  0
   36.4880   27.3880   31.8330 C   0  0  0  0  0  0  0  0  0  0  0  0
   37.6460   26.8080   32.3440 C   0  0  0  0  0  0  0  0  0  0  0  0
   37.8000   25.4640   32.2640 N   0  0  0  0  0  0  0  0  0  0  0  0
   36.8750   24.6710   31.7090 C   0  0  0  0  0  0  0  0  0  0  0  0
   35.7510   25.2100   31.2110 N   0  0  0  0  0  0  0  0  0  0  0  0
   34.6450   26.9920   30.8680 H   0  0  0  0  0  0  0  0  0  0  0  0
   38.4170   27.3920   32.7970 H   0  0  0  0  0  0  0  0  0  0  0  0
   36.9870   23.2260   31.5970 C   0  0  0  0  0  0  0  0  0  0  0  0
   37.8140   22.5890   31.8540 H   0  0  0  0  0  0  0  0  0  0  0  0
   36.0830   22.4690   31.1590 O   0  0  0  0  0  0  0  0  0  0  0  0
  2  7  1  0  0  0  0
  2  1  1  0  0  0  0
  3  2  2  0  0  0  0
  4  5  2  0  0  0  0
  4  3  1  0  0  0  0
  5  6  1  0  0  0  0
  6  7  2  0  0  0  0
  7 13  1  0  0  0  0
  8  4  1  0  0  0  0
  9  5  1  0  0  0  0
 10  6  1  0  0  0  0
 11 12  1  0  0  0  0
 12 18  1  0  0  0  0
 13 12  2  0  0  0  0
 13 14  1  0  0  0  0
 14 15  2  0  0  0  0
 15 16  1  0  0  0  0
 15 20  1  0  0  0  0
 16 17  1  0  0  0  0
 18 21  1  0  0  0  0
 18 16  2  0  0  0  0
 19 14  1  0  0  0  0
 22 23  1  0  0  0  0
 23  3  1  0  0  0  0
 23 24  2  0  0  0  0
 24 29  1  0  0  0  0
 25 24  1  0  0  0  0
 26 25  2  0  0  0  0
 27 22  2  0  0  0  0
 27 26  1  0  0  0  0
 28 22  1  0  0  0  0
 30 26  1  0  0  0  0
 30 31  1  0  0  0  0
 32 30  2  0  0  0  0
M  END
>  <minimizedAffinity>
-5.11224031

$$$$

 OpenBabel03272506043D

 32 34  0  0  0  0  0  0  0  0999 V2000
   36.7500   27.5320   34.6300 Cl  0  0  0  0  0  0  0  0  0  0  0  0
   36.5810   28.3020   33.0810 C   0  0  0  0  0  0  0  0  0  0  0  0
   35.8170   29.4110   32.9980 C   0  0  0  0  0  0  0  0  0  0  0  0
   35.7280   29.9770   31.7140 C   0  0  0  0  0  0  0  0  0  0  0  0
   36.3850   29.4250   30.6240 C   0  0  0  0  0  0  0  0  0  0  0  0
   37.1570   28.2780   30.7850 C   0  0  0  0  0  0  0  0  0  0  0  0
   37.2490   27.7120   32.0510 C   0  0  0  0  0  0  0  0  0  0  0  0
   35.1400   30.8750   31.5240 H   0  0  0  0  0  0  0  0  0  0  0  0
   36.2960   29.8870   29.6480 H   0  0  0  0  0  0  0  0  0  0  0  0
   37.6600   27.8640   29.9200 H   0  0  0  0  0  0  0  0  0  0  0  0
   35.7770   25.2200   31.5540 Cl  0  0  0  0  0  0  0  0  0  0  0  0
   37.4790   25.2930   31.9070 C   0  0  0  0  0  0  0  0  0  0  0  0
   38.0690   26.5290   32.1250 C   0  0  0  0  0  0  0  0  0  0  0  0
   39.4220   26.5900   32.4050 C   0  0  0  0  0  0  0  0  0  0  0  0
   40.1540   25.4000   32.4600 C   0  0  0  0  0  0  0  0  0  0  0  0
   39.5350   24.1770   32.2380 C   0  0  0  0  0  0  0  0  0  0  0  0
   40.4920   22.6990   32.3160 Cl  0  0  0  0  0  0  0  0  0  0  0  0
   38.1940   24.1110   31.9590 C   0  0  0  0  0  0  0  0  0  0  0  0
   39.9130   27.5460   32.5810 H   0  0  0  0  0  0  0  0  0  0  0  0
   41.2120   25.4420   32.6790 H   0  0  0  0  0  0  0  0  0  0  0  0
   37.7060   23.1550   31.7840 H   0  0  0  0  0  0  0  0  0  0  0  0
   35.7030   30.9950   34.9180 C   0  0  0  0  0  0  0  0  0  0  0  0
   35.1050   30.0370   34.1030 C   0  0  0  0  0  0  0  0  0  0  0  0
   33.7860   29.6990   34.3900 C   0  0  0  0  0  0  0  0  0  0  0  0
   33.1610   30.3050   35.4290 N   0  0  0  0  0  0  0  0  0  0  0  0
   33.7690   31.2230   36.1900 C   0  0  0  0  0  0  0  0  0  0  0  0
   35.0420   31.5640   35.9300 N   0  0  0  0  0  0  0  0  0  0  0  0
   36.7380   31.2540   34.6860 H   0  0  0  0  0  0  0  0  0  0  0  0
   33.2510   28.9740   33.8160 H   0  0  0  0  0  0  0  0  0  0  0  0
   33.1500   31.9050   37.3140 C   0  0  0  0  0  0  0  0  0  0  0  0
   32.4130   31.5390   38.0060 H   0  0  0  0  0  0  0  0  0  0  0  0
   33.4000   33.0890   37.6620 O   0  0  0  0  0  0  0  0  0  0  0  0
  2  1  1  0  0  0  0
  3  2  1  0  0  0  0
  3 23  1  0  0  0  0
  4  3  2  0  0  0  0
  5  6  2  0  0  0  0
  5  4  1  0  0  0  0
  6  7  1  0  0  0  0
  7 13  1  0  0  0  0
  7  2  2  0  0  0  0
  8  4  1  0  0  0  0
  9  5  1  0  0  0  0
 10  6  1  0  0  0  0
 11 12  1  0  0  0  0
 12 18  2  0  0  0  0
 12 13  1  0  0  0  0
 13 14  2  0  0  0  0
 14 15  1  0  0  0  0
 14 19  1  0  0  0  0
 15 20  1  0  0  0  0
 16 17  1  0  0  0  0
 16 15  2  0  0  0  0
 18 16  1  0  0  0  0
 21 18  1  0  0  0  0
 22 27  1  0  0  0  0
 23 24  1  0  0  0  0
 23 22  2  0  0  0  0
 24 25  2  0  0  0  0
 25 26  1  0  0  0  0
 26 30  1  0  0  0  0
 27 26  2  0  0  0  0
 28 22  1  0  0  0  0
 29 24  1  0  0  0  0
 30 32  2  0  0  0  0
 30 31  1  0  0  0  0
M  END
>  <minimizedAffinity>
-5.03722811

$$$$

 OpenBabel03272506043D

 32 34  0  0  0  0  0  0  0  0999 V2000
   38.7950   27.2920   32.8900 Cl  0  0  0  0  0  0  0  0  0  0  0  0
   37.5600   26.2240   32.2920 C   0  0  0  0  0  0  0  0  0  0  0  0
   37.5090   24.9690   32.7840 C   0  0  0  0  0  0  0  0  0  0  0  0
   36.4850   24.1640   32.2540 C   0  0  0  0  0  0  0  0  0  0  0  0
   35.6010   24.6410   31.2970 C   0  0  0  0  0  0  0  0  0  0  0  0
   35.7140   25.9490   30.8350 C   0  0  0  0  0  0  0  0  0  0  0  0
   36.7240   26.7510   31.3550 C   0  0  0  0  0  0  0  0  0  0  0  0
   36.3440   23.1320   32.5750 H   0  0  0  0  0  0  0  0  0  0  0  0
   34.8230   23.9950   30.9100 H   0  0  0  0  0  0  0  0  0  0  0  0
   35.0140   26.3000   30.0880 H   0  0  0  0  0  0  0  0  0  0  0  0
   35.3080   28.7270   33.0010 Cl  0  0  0  0  0  0  0  0  0  0  0  0
   36.1310   29.1060   31.5160 C   0  0  0  0  0  0  0  0  0  0  0  0
   36.7670   28.0890   30.8210 C   0  0  0  0  0  0  0  0  0  0  0  0
   37.4220   28.3870   29.6400 C   0  0  0  0  0  0  0  0  0  0  0  0
   37.4220   29.7080   29.1830 C   0  0  0  0  0  0  0  0  0  0  0  0
   36.7750   30.7050   29.9000 C   0  0  0  0  0  0  0  0  0  0  0  0
   36.7970   32.3590   29.2920 Cl  0  0  0  0  0  0  0  0  0  0  0  0
   36.1250   30.4150   31.0720 C   0  0  0  0  0  0  0  0  0  0  0  0
   37.9300   27.6090   29.0720 H   0  0  0  0  0  0  0  0  0  0  0  0
   37.9320   29.9470   28.2600 H   0  0  0  0  0  0  0  0  0  0  0  0
   35.6170   31.1940   31.6370 H   0  0  0  0  0  0  0  0  0  0  0  0
   39.5500   23.6990   33.4390 C   0  0  0  0  0  0  0  0  0  0  0  0
   38.4050   24.4110   33.7870 C   0  0  0  0  0  0  0  0  0  0  0  0
   38.1490   24.5700   35.1460 C   0  0  0  0  0  0  0  0  0  0  0  0
   39.0090   24.0340   36.0460 N   0  0  0  0  0  0  0  0  0  0  0  0
   40.1010   23.3550   35.6720 C   0  0  0  0  0  0  0  0  0  0  0  0
   40.3660   23.1900   34.3660 N   0  0  0  0  0  0  0  0  0  0  0  0
   39.7430   23.5780   32.3720 H   0  0  0  0  0  0  0  0  0  0  0  0
   37.2940   25.1020   35.5010 H   0  0  0  0  0  0  0  0  0  0  0  0
   41.0570   22.7590   36.5910 C   0  0  0  0  0  0  0  0  0  0  0  0
   42.1310   22.7410   36.5340 H   0  0  0  0  0  0  0  0  0  0  0  0
   40.7510   22.1450   37.6460 O   0  0  0  0  0  0  0  0  0  0  0  0
  2  3  1  0  0  0  0
  2  1  1  0  0  0  0
  3 23  1  0  0  0  0
  4  8  1  0  0  0  0
  4  3  2  0  0  0  0
  5  4  1  0  0  0  0
  6  5  2  0  0  0  0
  6  7  1  0  0  0  0
  7  2  2  0  0  0  0
  9  5  1  0  0  0  0
 10  6  1  0  0  0  0
 12 11  1  0  0  0  0
 13  7  1  0  0  0  0
 13 12  2  0  0  0  0
 14 13  1  0  0  0  0
 15 14  2  0  0  0  0
 15 16  1  0  0  0  0
 16 18  2  0  0  0  0
 17 16  1  0  0  0  0
 18 12  1  0  0  0  0
 18 21  1  0  0  0  0
 19 14  1  0  0  0  0
 20 15  1  0  0  0  0
 22 23  2  0  0  0  0
 22 27  1  0  0  0  0
 23 24  1  0  0  0  0
 24 29  1  0  0  0  0
 24 25  2  0  0  0  0
 26 25  1  0  0  0  0
 26 30  1  0  0  0  0
 27 26  2  0  0  0  0
 28 22  1  0  0  0  0
 30 32  2  0  0  0  0
 31 30  1  0  0  0  0
M  END
>  <minimizedAffinity>
-5.03073978

$$$$

 OpenBabel03272506043D

 32 34  0  0  0  0  0  0  0  0999 V2000
   35.4830   25.7010   30.7500 Cl  0  0  0  0  0  0  0  0  0  0  0  0
   36.5760   25.7630   32.1000 C   0  0  0  0  0  0  0  0  0  0  0  0
   37.1360   24.6100   32.5220 C   0  0  0  0  0  0  0  0  0  0  0  0
   38.0080   24.7380   33.6170 C   0  0  0  0  0  0  0  0  0  0  0  0
   38.2640   25.9670   34.2090 C   0  0  0  0  0  0  0  0  0  0  0  0
   37.6490   27.1160   33.7200 C   0  0  0  0  0  0  0  0  0  0  0  0
   36.7850   26.9970   32.6370 C   0  0  0  0  0  0  0  0  0  0  0  0
   38.5200   23.8760   34.0450 H   0  0  0  0  0  0  0  0  0  0  0  0
   38.9410   26.0310   35.0510 H   0  0  0  0  0  0  0  0  0  0  0  0
   37.8620   28.0640   34.1970 H   0  0  0  0  0  0  0  0  0  0  0  0
   38.2900   28.3310   30.4970 Cl  0  0  0  0  0  0  0  0  0  0  0  0
   36.8210   28.9530   31.1890 C   0  0  0  0  0  0  0  0  0  0  0  0
   36.1940   28.2360   32.1970 C   0  0  0  0  0  0  0  0  0  0  0  0
   35.0260   28.7280   32.7480 C   0  0  0  0  0  0  0  0  0  0  0  0
   34.5110   29.9370   32.2710 C   0  0  0  0  0  0  0  0  0  0  0  0
   35.1610   30.6330   31.2610 C   0  0  0  0  0  0  0  0  0  0  0  0
   34.4810   32.1540   30.6860 Cl  0  0  0  0  0  0  0  0  0  0  0  0
   36.3190   30.1490   30.7100 C   0  0  0  0  0  0  0  0  0  0  0  0
   34.5120   28.1870   33.5420 H   0  0  0  0  0  0  0  0  0  0  0  0
   33.5980   30.3270   32.6990 H   0  0  0  0  0  0  0  0  0  0  0  0
   36.8310   30.6920   29.9180 H   0  0  0  0  0  0  0  0  0  0  0  0
   37.8660   22.6580   31.1560 C   0  0  0  0  0  0  0  0  0  0  0  0
   36.9090   23.2930   31.9430 C   0  0  0  0  0  0  0  0  0  0  0  0
   35.7140   22.6120   32.1580 C   0  0  0  0  0  0  0  0  0  0  0  0
   35.5440   21.3880   31.6000 N   0  0  0  0  0  0  0  0  0  0  0  0
   36.4880   20.8090   30.8480 C   0  0  0  0  0  0  0  0  0  0  0  0
   37.6480   21.4490   30.6290 N   0  0  0  0  0  0  0  0  0  0  0  0
   38.7990   23.1990   30.9930 H   0  0  0  0  0  0  0  0  0  0  0  0
   34.9260   23.0260   32.7480 H   0  0  0  0  0  0  0  0  0  0  0  0
   36.3610   19.5010   30.2260 C   0  0  0  0  0  0  0  0  0  0  0  0
   35.9580   18.5930   30.6360 H   0  0  0  0  0  0  0  0  0  0  0  0
   36.7210   19.2270   29.0520 O   0  0  0  0  0  0  0  0  0  0  0  0
  1  2  1  0  0  0  0
  2  3  2  0  0  0  0
  2  7  1  0  0  0  0
  3  4  1  0  0  0  0
  4  8  1  0  0  0  0
  4  5  2  0  0  0  0
  5  9  1  0  0  0  0
  6 10  1  0  0  0  0
  6  5  1  0  0  0  0
  7  6  2  0  0  0  0
 11 12  1  0  0  0  0
 12 13  1  0  0  0  0
 13  7  1  0  0  0  0
 13 14  2  0  0  0  0
 14 19  1  0  0  0  0
 15 20  1  0  0  0  0
 15 14  1  0  0  0  0
 16 15  2  0  0  0  0
 17 16  1  0  0  0  0
 18 12  2  0  0  0  0
 18 16  1  0  0  0  0
 21 18  1  0  0  0  0
 22 23  1  0  0  0  0
 23 24  2  0  0  0  0
 23  3  1  0  0  0  0
 24 29  1  0  0  0  0
 25 24  1  0  0  0  0
 26 25  2  0  0  0  0
 27 26  1  0  0  0  0
 27 22  2  0  0  0  0
 28 22  1  0  0  0  0
 30 31  1  0  0  0  0
 30 26  1  0  0  0  0
 32 30  2  0  0  0  0
M  END
>  <minimizedAffinity>
-4.9954052

$$$$

 OpenBabel03272506043D

 32 34  0  0  0  0  0  0  0  0999 V2000
   38.1150   27.2090   33.7010 Cl  0  0  0  0  0  0  0  0  0  0  0  0
   37.2570   26.0230   32.7630 C   0  0  0  0  0  0  0  0  0  0  0  0
   36.3490   26.4550   31.8650 C   0  0  0  0  0  0  0  0  0  0  0  0
   35.6960   25.4400   31.1440 C   0  0  0  0  0  0  0  0  0  0  0  0
   35.9780   24.0970   31.3520 C   0  0  0  0  0  0  0  0  0  0  0  0
   36.9290   23.7250   32.2980 C   0  0  0  0  0  0  0  0  0  0  0  0
   37.5790   24.7240   33.0140 C   0  0  0  0  0  0  0  0  0  0  0  0
   34.9420   25.6670   30.3900 H   0  0  0  0  0  0  0  0  0  0  0  0
   35.4570   23.3400   30.7800 H   0  0  0  0  0  0  0  0  0  0  0  0
   37.1330   22.6720   32.4440 H   0  0  0  0  0  0  0  0  0  0  0  0
   40.3010   24.5100   31.9330 Cl  0  0  0  0  0  0  0  0  0  0  0  0
   39.8670   24.1070   33.5690 C   0  0  0  0  0  0  0  0  0  0  0  0
   38.5470   24.2480   33.9700 C   0  0  0  0  0  0  0  0  0  0  0  0
   38.2000   23.9290   35.2700 C   0  0  0  0  0  0  0  0  0  0  0  0
   39.1930   23.4730   36.1410 C   0  0  0  0  0  0  0  0  0  0  0  0
   40.5060   23.3420   35.7110 C   0  0  0  0  0  0  0  0  0  0  0  0
   41.7310   22.7640   36.8400 Cl  0  0  0  0  0  0  0  0  0  0  0  0
   40.8560   23.6570   34.4240 C   0  0  0  0  0  0  0  0  0  0  0  0
   37.1710   24.0290   35.6130 H   0  0  0  0  0  0  0  0  0  0  0  0
   38.9270   23.2210   37.1590 H   0  0  0  0  0  0  0  0  0  0  0  0
   41.8850   23.5560   34.0830 H   0  0  0  0  0  0  0  0  0  0  0  0
   35.0830   28.5400   32.3740 C   0  0  0  0  0  0  0  0  0  0  0  0
   36.0090   27.8460   31.6000 C   0  0  0  0  0  0  0  0  0  0  0  0
   36.6040   28.5430   30.5520 C   0  0  0  0  0  0  0  0  0  0  0  0
   36.2590   29.8360   30.3400 N   0  0  0  0  0  0  0  0  0  0  0  0
   35.3630   30.4710   31.1070 C   0  0  0  0  0  0  0  0  0  0  0  0
   34.7770   29.8170   32.1230 N   0  0  0  0  0  0  0  0  0  0  0  0
   34.6210   27.9870   33.1930 H   0  0  0  0  0  0  0  0  0  0  0  0
   37.3250   28.0880   29.9080 H   0  0  0  0  0  0  0  0  0  0  0  0
   34.9550   31.8540   30.9270 C   0  0  0  0  0  0  0  0  0  0  0  0
   35.5520   32.7470   30.9640 H   0  0  0  0  0  0  0  0  0  0  0  0
   33.7780   32.2290   30.6850 O   0  0  0  0  0  0  0  0  0  0  0  0
  2  7  1  0  0  0  0
  2  1  1  0  0  0  0
  3  2  2  0  0  0  0
  4  5  2  0  0  0  0
  4  3  1  0  0  0  0
  5  6  1  0  0  0  0
  6 10  1  0  0  0  0
  6  7  2  0  0  0  0
  7 13  1  0  0  0  0
  8  4  1  0  0  0  0
  9  5  1  0  0  0  0
 11 12  1  0  0  0  0
 12 13  2  0  0  0  0
 12 18  1  0  0  0  0
 13 14  1  0  0  0  0
 14 19  1  0  0  0  0
 14 15  2  0  0  0  0
 15 20  1  0  0  0  0
 16 15  1  0  0  0  0
 16 17  1  0  0  0  0
 18 16  2  0  0  0  0
 21 18  1  0  0  0  0
 22 28  1  0  0  0  0
 23  3  1  0  0  0  0
 23 22  2  0  0  0  0
 24 23  1  0  0  0  0
 25 24  2  0  0  0  0
 25 26  1  0  0  0  0
 26 27  2  0  0  0  0
 27 22  1  0  0  0  0
 29 24  1  0  0  0  0
 30 31  1  0  0  0  0
 30 26  1  0  0  0  0
 32 30  2  0  0  0  0
M  END
>  <minimizedAffinity>
-4.9949894

$$$$

 OpenBabel03272506043D

 32 34  0  0  0  0  0  0  0  0999 V2000
   38.0270   27.2850   35.0410 Cl  0  0  0  0  0  0  0  0  0  0  0  0
   37.4080   26.4020   33.6780 C   0  0  0  0  0  0  0  0  0  0  0  0
   36.6520   27.0640   32.7770 C   0  0  0  0  0  0  0  0  0  0  0  0
   36.1880   26.2850   31.7030 C   0  0  0  0  0  0  0  0  0  0  0  0
   36.4940   24.9360   31.5920 C   0  0  0  0  0  0  0  0  0  0  0  0
   37.2790   24.3190   32.5600 C   0  0  0  0  0  0  0  0  0  0  0  0
   37.7420   25.0830   33.6250 C   0  0  0  0  0  0  0  0  0  0  0  0
   35.5690   26.7110   30.9130 H   0  0  0  0  0  0  0  0  0  0  0  0
   36.1200   24.3650   30.7510 H   0  0  0  0  0  0  0  0  0  0  0  0
   37.5050   23.2650   32.4530 H   0  0  0  0  0  0  0  0  0  0  0  0
   40.6160   25.1380   33.0260 Cl  0  0  0  0  0  0  0  0  0  0  0  0
   39.9220   24.3220   34.3960 C   0  0  0  0  0  0  0  0  0  0  0  0
   38.5480   24.3630   34.5790 C   0  0  0  0  0  0  0  0  0  0  0  0
   37.9940   23.7140   35.6670 C   0  0  0  0  0  0  0  0  0  0  0  0
   38.8380   23.0360   36.5510 C   0  0  0  0  0  0  0  0  0  0  0  0
   40.2100   23.0120   36.3410 C   0  0  0  0  0  0  0  0  0  0  0  0
   41.2420   22.1450   37.4770 Cl  0  0  0  0  0  0  0  0  0  0  0  0
   40.7650   23.6530   35.2640 C   0  0  0  0  0  0  0  0  0  0  0  0
   36.9180   23.7290   35.8360 H   0  0  0  0  0  0  0  0  0  0  0  0
   38.4100   22.5260   37.4030 H   0  0  0  0  0  0  0  0  0  0  0  0
   41.8400   23.6370   35.0970 H   0  0  0  0  0  0  0  0  0  0  0  0
   36.6020   29.3580   31.8050 C   0  0  0  0  0  0  0  0  0  0  0  0
   36.2980   28.4750   32.8390 C   0  0  0  0  0  0  0  0  0  0  0  0
   35.6350   29.0010   33.9440 C   0  0  0  0  0  0  0  0  0  0  0  0
   35.3250   30.3210   33.9600 N   0  0  0  0  0  0  0  0  0  0  0  0
   35.6340   31.1390   32.9460 C   0  0  0  0  0  0  0  0  0  0  0  0
   36.2730   30.6520   31.8710 N   0  0  0  0  0  0  0  0  0  0  0  0
   37.1220   28.9380   30.9430 H   0  0  0  0  0  0  0  0  0  0  0  0
   35.3640   28.3960   34.7810 H   0  0  0  0  0  0  0  0  0  0  0  0
   35.3270   32.5590   32.9090 C   0  0  0  0  0  0  0  0  0  0  0  0
   35.6720   33.3090   32.2200 H   0  0  0  0  0  0  0  0  0  0  0  0
   34.5690   33.1510   33.7210 O   0  0  0  0  0  0  0  0  0  0  0  0
  2  1  1  0  0  0  0
  3 23  1  0  0  0  0
  3  2  2  0  0  0  0
  4  3  1  0  0  0  0
  5  4  2  0  0  0  0
  5  6  1  0  0  0  0
  6  7  2  0  0  0  0
  7  2  1  0  0  0  0
  7 13  1  0  0  0  0
  8  4  1  0  0  0  0
  9  5  1  0  0  0  0
 10  6  1  0  0  0  0
 11 12  1  0  0  0  0
 12 13  2  0  0  0  0
 12 18  1  0  0  0  0
 13 14  1  0  0  0  0
 14 19  1  0  0  0  0
 14 15  2  0  0  0  0
 15 20  1  0  0  0  0
 16 15  1  0  0  0  0
 16 17  1  0  0  0  0
 18 16  2  0  0  0  0
 21 18  1  0  0  0  0
 22 27  2  0  0  0  0
 22 23  1  0  0  0  0
 23 24  2  0  0  0  0
 24 25  1  0  0  0  0
 24 29  1  0  0  0  0
 26 25  2  0  0  0  0
 27 26  1  0  0  0  0
 28 22  1  0  0  0  0
 30 26  1  0  0  0  0
 30 32  2  0  0  0  0
 31 30  1  0  0  0  0
M  END
>  <minimizedAffinity>
-4.94734097

$$$$

 OpenBabel03272506043D

 32 34  0  0  0  0  0  0  0  0999 V2000
   35.3010   28.2090   34.3100 Cl  0  0  0  0  0  0  0  0  0  0  0  0
   35.8170   29.1870   32.9690 C   0  0  0  0  0  0  0  0  0  0  0  0
   35.7220   30.5280   33.0820 C   0  0  0  0  0  0  0  0  0  0  0  0
   36.1580   31.2530   31.9590 C   0  0  0  0  0  0  0  0  0  0  0  0
   36.6480   30.6200   30.8250 C   0  0  0  0  0  0  0  0  0  0  0  0
   36.7170   29.2300   30.7790 C   0  0  0  0  0  0  0  0  0  0  0  0
   36.2870   28.5080   31.8860 C   0  0  0  0  0  0  0  0  0  0  0  0
   36.1300   32.3420   31.9340 H   0  0  0  0  0  0  0  0  0  0  0  0
   36.9760   31.2080   29.9770 H   0  0  0  0  0  0  0  0  0  0  0  0
   37.1020   28.7580   29.8840 H   0  0  0  0  0  0  0  0  0  0  0  0
   38.7800   27.4010   32.9740 Cl  0  0  0  0  0  0  0  0  0  0  0  0
   37.5330   26.4440   32.2310 C   0  0  0  0  0  0  0  0  0  0  0  0
   36.3950   27.0760   31.7510 C   0  0  0  0  0  0  0  0  0  0  0  0
   35.4010   26.3180   31.1600 C   0  0  0  0  0  0  0  0  0  0  0  0
   35.5750   24.9350   31.0640 C   0  0  0  0  0  0  0  0  0  0  0  0
   36.7250   24.3300   31.5520 C   0  0  0  0  0  0  0  0  0  0  0  0
   36.9070   22.5830   31.4120 Cl  0  0  0  0  0  0  0  0  0  0  0  0
   37.7130   25.0770   32.1400 C   0  0  0  0  0  0  0  0  0  0  0  0
   34.4970   26.7880   30.7740 H   0  0  0  0  0  0  0  0  0  0  0  0
   34.8010   24.3370   30.6010 H   0  0  0  0  0  0  0  0  0  0  0  0
   38.6160   24.6060   32.5250 H   0  0  0  0  0  0  0  0  0  0  0  0
   33.9160   31.7370   34.3000 C   0  0  0  0  0  0  0  0  0  0  0  0
   35.2190   31.2500   34.2430 C   0  0  0  0  0  0  0  0  0  0  0  0
   36.0300   31.4830   35.3500 C   0  0  0  0  0  0  0  0  0  0  0  0
   35.5210   32.1600   36.4080 N   0  0  0  0  0  0  0  0  0  0  0  0
   34.2610   32.6130   36.4270 C   0  0  0  0  0  0  0  0  0  0  0  0
   33.4630   32.3980   35.3690 N   0  0  0  0  0  0  0  0  0  0  0  0
   33.2870   31.5500   33.4280 H   0  0  0  0  0  0  0  0  0  0  0  0
   37.0420   31.1450   35.3890 H   0  0  0  0  0  0  0  0  0  0  0  0
   33.6630   33.3430   37.5330 C   0  0  0  0  0  0  0  0  0  0  0  0
   32.6950   33.2180   37.9820 H   0  0  0  0  0  0  0  0  0  0  0  0
   34.2230   34.2790   38.1600 O   0  0  0  0  0  0  0  0  0  0  0  0
  2  3  1  0  0  0  0
  2  1  1  0  0  0  0
  3 23  1  0  0  0  0
  4  3  2  0  0  0  0
  5  4  1  0  0  0  0
  6  5  2  0  0  0  0
  6  7  1  0  0  0  0
  7  2  2  0  0  0  0
  8  4  1  0  0  0  0
  9  5  1  0  0  0  0
 10  6  1  0  0  0  0
 12 11  1  0  0  0  0
 13  7  1  0  0  0  0
 13 12  2  0  0  0  0
 14 13  1  0  0  0  0
 15 14  2  0  0  0  0
 15 16  1  0  0  0  0
 16 18  2  0  0  0  0
 17 16  1  0  0  0  0
 18 12  1  0  0  0  0
 18 21  1  0  0  0  0
 19 14  1  0  0  0  0
 20 15  1  0  0  0  0
 22 27  1  0  0  0  0
 23 22  2  0  0  0  0
 23 24  1  0  0  0  0
 24 29  1  0  0  0  0
 24 25  2  0  0  0  0
 25 26  1  0  0  0  0
 26 30  1  0  0  0  0
 27 26  2  0  0  0  0
 28 22  1  0  0  0  0
 30 31  1  0  0  0  0
 30 32  2  0  0  0  0
M  END
>  <minimizedAffinity>
-4.94257164

$$$$
