
 OpenBabel03272507013D

 40 42  0  0  1  0  0  0  0  0999 V2000
   35.2710   30.3710   49.6050 C   0  0  2  0  0  0  0  0  0  0  0  0
   36.2690   31.0450   48.7300 C   0  0  0  0  0  0  0  0  0  0  0  0
   37.6590   30.4430   48.8560 C   0  0  2  0  0  0  0  0  0  0  0  0
   38.1680   30.4400   50.2470 C   0  0  0  0  0  0  0  0  0  0  0  0
   37.1070   30.1250   51.2790 C   0  0  0  0  0  0  0  0  0  0  0  0
   35.9020   29.4760   50.6440 C   0  0  0  0  0  0  0  0  0  0  0  0
   34.6310   31.0820   50.2070 H   0  0  0  0  0  0  0  0  0  0  0  0
   36.0890   31.0620   47.6540 H   0  0  0  0  0  0  0  0  0  0  0  0
   36.3390   32.1080   49.1320 H   0  0  0  0  0  0  0  0  0  0  0  0
   37.5470   29.3930   48.5080 H   0  0  0  0  0  0  0  0  0  0  0  0
   38.7230   31.2920   50.6060 H   0  0  0  0  0  0  0  0  0  0  0  0
   38.8830   29.5680   50.3200 H   0  0  0  0  0  0  0  0  0  0  0  0
   36.7320   31.1230   51.6510 H   0  0  0  0  0  0  0  0  0  0  0  0
   37.4610   29.5690   52.1460 H   0  0  0  0  0  0  0  0  0  0  0  0
   36.2620   28.5630   50.1370 H   0  0  0  0  0  0  0  0  0  0  0  0
   35.1650   29.2760   51.4280 H   0  0  0  0  0  0  0  0  0  0  0  0
   38.5950   31.0850   48.0000 N   0  0  1  0  0  0  0  0  0  0  0  0
   38.6190   30.5440   46.6570 C   0  0  0  0  0  0  0  0  0  0  0  0
   39.7430   31.3880   46.0470 C   0  0  0  0  0  0  0  0  0  0  0  0
   39.4170   32.7480   46.6210 C   0  0  0  0  0  0  0  0  0  0  0  0
   38.5030   32.4730   47.8230 C   0  0  2  0  0  0  0  0  0  0  0  0
   38.8990   29.4880   46.6040 H   0  0  0  0  0  0  0  0  0  0  0  0
   37.6930   30.7470   46.0870 H   0  0  0  0  0  0  0  0  0  0  0  0
   40.7240   31.0060   46.3630 H   0  0  0  0  0  0  0  0  0  0  0  0
   39.6140   31.3830   44.9460 H   0  0  0  0  0  0  0  0  0  0  0  0
   38.9410   33.3930   45.8880 H   0  0  0  0  0  0  0  0  0  0  0  0
   40.3780   33.2110   46.9690 H   0  0  0  0  0  0  0  0  0  0  0  0
   37.4650   32.7220   47.4510 H   0  0  0  0  0  0  0  0  0  0  0  0
   38.9100   33.3790   48.8720 C   0  0  0  0  0  0  0  0  0  0  0  0
   39.1110   33.8260   49.8260 H   0  0  0  0  0  0  0  0  0  0  0  0
   39.4070   34.4920   48.8630 O   0  0  0  0  0  0  0  0  0  0  0  0
   34.3030   29.5490   48.8450 C   0  0  0  0  0  0  0  0  0  0  0  0
   34.1600   29.9110   47.5040 C   0  0  0  0  0  0  0  0  0  0  0  0
   33.2620   29.1540   46.7320 C   0  0  0  0  0  0  0  0  0  0  0  0
   32.5780   28.1070   47.3290 N   0  0  0  0  0  0  0  0  0  0  0  0
   32.7570   27.7970   48.6440 C   0  0  0  0  0  0  0  0  0  0  0  0
   33.6020   28.5160   49.3590 N   0  0  0  0  0  0  0  0  0  0  0  0
   34.5290   30.6410   46.8150 H   0  0  0  0  0  0  0  0  0  0  0  0
   32.9740   29.2150   45.7130 H   0  0  0  0  0  0  0  0  0  0  0  0
   32.2110   26.9770   49.0870 H   0  0  0  0  0  0  0  0  0  0  0  0
  1  7  1  1  0  0  0
  1  6  1  0  0  0  0
  2  3  1  0  0  0  0
  2  9  1  0  0  0  0
  2  1  1  0  0  0  0
  3 10  1  6  0  0  0
  3  4  1  0  0  0  0
  4 12  1  0  0  0  0
  4 11  1  0  0  0  0
  4  5  1  0  0  0  0
  5 13  1  0  0  0  0
  5 14  1  0  0  0  0
  6  5  1  0  0  0  0
  6 16  1  0  0  0  0
  8  2  1  0  0  0  0
 15  6  1  0  0  0  0
 17 18  1  6  0  0  0
 17  3  1  0  0  0  0
 19 24  1  0  0  0  0
 19 20  1  0  0  0  0
 19 18  1  0  0  0  0
 20 27  1  0  0  0  0
 20 21  1  0  0  0  0
 21 28  1  6  0  0  0
 21 17  1  0  0  0  0
 21 29  1  0  0  0  0
 22 18  1  0  0  0  0
 23 18  1  0  0  0  0
 25 19  1  0  0  0  0
 26 20  1  0  0  0  0
 29 30  1  0  0  0  0
 31 29  2  0  0  0  0
 32 37  1  0  0  0  0
 32  1  1  0  0  0  0
 33 32  2  0  0  0  0
 34 35  2  0  0  0  0
 34 33  1  0  0  0  0
 35 36  1  0  0  0  0
 36 40  1  0  0  0  0
 36 37  2  0  0  0  0
 38 33  1  0  0  0  0
 39 34  1  0  0  0  0
M  END
>  <minimizedAffinity>
-6.55422735

>  <minimizedRMSD>
0.198131129

$$$$
