
 OpenBabel03272509493D

 27 28  0  0  0  0  0  0  0  0999 V2000
   33.7270   28.5960   48.7070 C   0  0  0  0  0  0  0  0  0  0  0  0
   33.1960   29.5160   49.0190 H   0  0  0  0  0  0  0  0  0  0  0  0
   34.3530   28.8850   47.8200 H   0  0  0  0  0  0  0  0  0  0  0  0
   32.8160   27.4630   48.3440 C   0  0  0  0  0  0  0  0  0  0  0  0
   33.0480   27.0520   47.3200 H   0  0  0  0  0  0  0  0  0  0  0  0
   32.9520   26.6010   49.0320 H   0  0  0  0  0  0  0  0  0  0  0  0
   31.3770   27.8630   48.3480 C   0  0  0  0  0  0  0  0  0  0  0  0
   30.7020   27.7310   49.5350 C   0  0  0  0  0  0  0  0  0  0  0  0
   29.3700   28.0690   49.6610 C   0  0  0  0  0  0  0  0  0  0  0  0
   28.7240   28.5400   48.5800 N   0  0  0  0  0  0  0  0  0  0  0  0
   29.3940   28.6670   47.4170 C   0  0  0  0  0  0  0  0  0  0  0  0
   30.6940   28.3390   47.2900 N   0  0  0  0  0  0  0  0  0  0  0  0
   31.1700   27.3560   50.4430 H   0  0  0  0  0  0  0  0  0  0  0  0
   28.8200   27.9720   50.5880 H   0  0  0  0  0  0  0  0  0  0  0  0
   28.8390   29.0510   46.5680 H   0  0  0  0  0  0  0  0  0  0  0  0
   34.6400   28.2060   49.7230 O   0  0  0  0  0  0  0  0  0  0  0  0
   37.2390   30.1890   51.2810 C   0  0  0  0  0  0  0  0  0  0  0  0
   37.9030   30.6440   50.1240 C   0  0  0  0  0  0  0  0  0  0  0  0
   37.4240   30.2480   48.8880 C   0  0  0  0  0  0  0  0  0  0  0  0
   36.3260   29.4320   48.9000 N   0  0  0  0  0  0  0  0  0  0  0  0
   35.7120   29.0120   50.0000 C   0  0  0  0  0  0  0  0  0  0  0  0
   36.1780   29.3980   51.1970 N   0  0  0  0  0  0  0  0  0  0  0  0
   37.6190   30.5040   52.2560 H   0  0  0  0  0  0  0  0  0  0  0  0
   38.7580   31.2810   50.1470 H   0  0  0  0  0  0  0  0  0  0  0  0
   38.0580   30.6770   47.6310 C   0  0  0  0  0  0  0  0  0  0  0  0
   37.7760   30.1320   46.7410 H   0  0  0  0  0  0  0  0  0  0  0  0
   38.8690   31.6370   47.7010 O   0  0  0  0  0  0  0  0  0  0  0  0
  1  2  1  0  0  0  0
  1 16  1  0  0  0  0
  3  1  1  0  0  0  0
  4  7  1  0  0  0  0
  4  1  1  0  0  0  0
  4  6  1  0  0  0  0
  5  4  1  0  0  0  0
  7  8  1  0  0  0  0
  8  9  2  0  0  0  0
  8 13  1  0  0  0  0
  9 14  1  0  0  0  0
 10  9  1  0  0  0  0
 11 10  2  0  0  0  0
 12 11  1  0  0  0  0
 12  7  2  0  0  0  0
 15 11  1  0  0  0  0
 16 21  1  0  0  0  0
 17 23  1  0  0  0  0
 18 24  1  0  0  0  0
 18 17  2  0  0  0  0
 19 20  2  0  0  0  0
 19 18  1  0  0  0  0
 20 21  1  0  0  0  0
 21 22  2  0  0  0  0
 22 17  1  0  0  0  0
 25 27  2  0  0  0  0
 25 19  1  0  0  0  0
 26 25  1  0  0  0  0
M  END
>  <minimizedAffinity>
-4.73956966

>  <minimizedRMSD>
0.0795702785

$$$$
