
 OpenBabel03272509493D

 27 28  0  0  0  0  0  0  0  0999 V2000
   33.8980   28.5270   48.5780 C   0  0  0  0  0  0  0  0  0  0  0  0
   33.3980   29.5100   48.6770 H   0  0  0  0  0  0  0  0  0  0  0  0
   34.6360   28.6370   47.7380 H   0  0  0  0  0  0  0  0  0  0  0  0
   32.9600   27.3940   48.2910 C   0  0  0  0  0  0  0  0  0  0  0  0
   33.2340   26.8550   47.3400 H   0  0  0  0  0  0  0  0  0  0  0  0
   33.0130   26.6160   49.0830 H   0  0  0  0  0  0  0  0  0  0  0  0
   31.5430   27.8470   48.1540 C   0  0  0  0  0  0  0  0  0  0  0  0
   30.7200   27.6390   49.2310 C   0  0  0  0  0  0  0  0  0  0  0  0
   29.3930   28.0160   49.2220 C   0  0  0  0  0  0  0  0  0  0  0  0
   28.9010   28.6030   48.1170 N   0  0  0  0  0  0  0  0  0  0  0  0
   29.7160   28.8050   47.0620 C   0  0  0  0  0  0  0  0  0  0  0  0
   31.0130   28.4390   47.0670 N   0  0  0  0  0  0  0  0  0  0  0  0
   31.0590   27.1690   50.1530 H   0  0  0  0  0  0  0  0  0  0  0  0
   28.7280   27.8600   50.0610 H   0  0  0  0  0  0  0  0  0  0  0  0
   29.2840   29.2820   46.1890 H   0  0  0  0  0  0  0  0  0  0  0  0
   34.6670   28.2640   49.7450 O   0  0  0  0  0  0  0  0  0  0  0  0
   37.3030   30.2010   51.2970 C   0  0  0  0  0  0  0  0  0  0  0  0
   37.9630   30.6590   50.1380 C   0  0  0  0  0  0  0  0  0  0  0  0
   37.4680   30.2800   48.9040 C   0  0  0  0  0  0  0  0  0  0  0  0
   36.3600   29.4780   48.9180 N   0  0  0  0  0  0  0  0  0  0  0  0
   35.7510   29.0550   50.0200 C   0  0  0  0  0  0  0  0  0  0  0  0
   36.2330   29.4240   51.2150 N   0  0  0  0  0  0  0  0  0  0  0  0
   37.6960   30.5020   52.2710 H   0  0  0  0  0  0  0  0  0  0  0  0
   38.8250   31.2850   50.1600 H   0  0  0  0  0  0  0  0  0  0  0  0
   38.0950   30.7140   47.6450 C   0  0  0  0  0  0  0  0  0  0  0  0
   37.8150   30.1660   46.7560 H   0  0  0  0  0  0  0  0  0  0  0  0
   38.8970   31.6810   47.7120 O   0  0  0  0  0  0  0  0  0  0  0  0
  1  2  1  0  0  0  0
  1 16  1  0  0  0  0
  3  1  1  0  0  0  0
  4  1  1  0  0  0  0
  4  6  1  0  0  0  0
  5  4  1  0  0  0  0
  7  4  1  0  0  0  0
  7  8  1  0  0  0  0
  8 13  1  0  0  0  0
  9  8  2  0  0  0  0
  9 14  1  0  0  0  0
 10  9  1  0  0  0  0
 11 12  1  0  0  0  0
 11 10  2  0  0  0  0
 12  7  2  0  0  0  0
 15 11  1  0  0  0  0
 16 21  1  0  0  0  0
 17 23  1  0  0  0  0
 18 24  1  0  0  0  0
 18 17  2  0  0  0  0
 19 20  2  0  0  0  0
 19 18  1  0  0  0  0
 20 21  1  0  0  0  0
 21 22  2  0  0  0  0
 22 17  1  0  0  0  0
 25 27  2  0  0  0  0
 25 19  1  0  0  0  0
 26 25  1  0  0  0  0
M  END
>  <minimizedAffinity>
-4.73500395

>  <minimizedRMSD>
0.43294999

$$$$
