
 OpenBabel03272509493D

 27 28  0  0  0  0  0  0  0  0999 V2000
   33.7230   28.5970   48.7100 C   0  0  0  0  0  0  0  0  0  0  0  0
   33.1920   29.5140   49.0300 H   0  0  0  0  0  0  0  0  0  0  0  0
   34.3450   28.8920   47.8220 H   0  0  0  0  0  0  0  0  0  0  0  0
   32.8140   27.4630   48.3450 C   0  0  0  0  0  0  0  0  0  0  0  0
   33.0460   27.0540   47.3210 H   0  0  0  0  0  0  0  0  0  0  0  0
   32.9490   26.6000   49.0320 H   0  0  0  0  0  0  0  0  0  0  0  0
   31.3740   27.8630   48.3490 C   0  0  0  0  0  0  0  0  0  0  0  0
   30.6990   27.7310   49.5360 C   0  0  0  0  0  0  0  0  0  0  0  0
   29.3680   28.0680   49.6620 C   0  0  0  0  0  0  0  0  0  0  0  0
   28.7200   28.5390   48.5810 N   0  0  0  0  0  0  0  0  0  0  0  0
   29.3910   28.6660   47.4180 C   0  0  0  0  0  0  0  0  0  0  0  0
   30.6910   28.3390   47.2910 N   0  0  0  0  0  0  0  0  0  0  0  0
   31.1680   27.3560   50.4440 H   0  0  0  0  0  0  0  0  0  0  0  0
   28.8170   27.9710   50.5890 H   0  0  0  0  0  0  0  0  0  0  0  0
   28.8360   29.0500   46.5690 H   0  0  0  0  0  0  0  0  0  0  0  0
   34.6420   28.2030   49.7200 O   0  0  0  0  0  0  0  0  0  0  0  0
   37.2370   30.1900   51.2800 C   0  0  0  0  0  0  0  0  0  0  0  0
   37.9020   30.6460   50.1230 C   0  0  0  0  0  0  0  0  0  0  0  0
   37.4240   30.2490   48.8880 C   0  0  0  0  0  0  0  0  0  0  0  0
   36.3270   29.4320   48.8990 N   0  0  0  0  0  0  0  0  0  0  0  0
   35.7130   29.0110   49.9980 C   0  0  0  0  0  0  0  0  0  0  0  0
   36.1780   29.3970   51.1950 N   0  0  0  0  0  0  0  0  0  0  0  0
   37.6160   30.5050   52.2550 H   0  0  0  0  0  0  0  0  0  0  0  0
   38.7550   31.2840   50.1480 H   0  0  0  0  0  0  0  0  0  0  0  0
   38.0570   30.6800   47.6310 C   0  0  0  0  0  0  0  0  0  0  0  0
   37.7720   30.1390   46.7390 H   0  0  0  0  0  0  0  0  0  0  0  0
   38.8720   31.6360   47.7020 O   0  0  0  0  0  0  0  0  0  0  0  0
  1  2  1  0  0  0  0
  1 16  1  0  0  0  0
  3  1  1  0  0  0  0
  4  7  1  0  0  0  0
  4  1  1  0  0  0  0
  4  6  1  0  0  0  0
  5  4  1  0  0  0  0
  7  8  1  0  0  0  0
  8  9  2  0  0  0  0
  8 13  1  0  0  0  0
  9 14  1  0  0  0  0
 10  9  1  0  0  0  0
 11 10  2  0  0  0  0
 12 11  1  0  0  0  0
 12  7  2  0  0  0  0
 15 11  1  0  0  0  0
 16 21  1  0  0  0  0
 17 23  1  0  0  0  0
 18 24  1  0  0  0  0
 18 17  2  0  0  0  0
 19 20  2  0  0  0  0
 19 18  1  0  0  0  0
 20 21  1  0  0  0  0
 21 22  2  0  0  0  0
 22 17  1  0  0  0  0
 25 27  2  0  0  0  0
 25 19  1  0  0  0  0
 26 25  1  0  0  0  0
M  END
>  <minimizedAffinity>
-4.73929787

>  <minimizedRMSD>
0.0181784667

$$$$
