
 OpenBabel03272500483D

 33 36  0  0  1  0  0  0  0  0999 V2000
   34.7930   29.6550   49.4570 C   0  0  1  0  0  0  0  0  0  0  0  0
   35.6610   29.2110   50.6860 C   0  0  0  0  0  0  0  0  0  0  0  0
   36.2270   29.3410   49.3190 C   0  0  2  0  0  0  0  0  0  0  0  0
   34.5320   30.7330   49.4220 H   0  0  0  0  0  0  0  0  0  0  0  0
   35.3860   28.2340   51.0940 H   0  0  0  0  0  0  0  0  0  0  0  0
   35.9520   30.0300   51.3780 H   0  0  0  0  0  0  0  0  0  0  0  0
   36.4610   28.4020   48.8020 H   0  0  0  0  0  0  0  0  0  0  0  0
   31.8400   27.7050   48.7390 C   0  0  0  0  0  0  0  0  0  0  0  0
   32.7890   26.9800   48.0530 C   0  0  0  0  0  0  0  0  0  0  0  0
   34.0330   27.6100   48.2260 C   0  0  0  0  0  0  0  0  0  0  0  0
   33.8080   28.6860   49.0010 N   0  0  0  0  0  0  0  0  0  0  0  0
   32.5290   28.7080   49.2780 N   0  0  0  0  0  0  0  0  0  0  0  0
   32.6360   26.0660   47.4640 H   0  0  0  0  0  0  0  0  0  0  0  0
   34.9860   27.2790   47.8060 H   0  0  0  0  0  0  0  0  0  0  0  0
   29.6900   27.3740   49.9800 C   0  0  0  0  0  0  0  0  0  0  0  0
   30.4490   27.3660   48.7930 C   0  0  0  0  0  0  0  0  0  0  0  0
   29.7750   27.0030   47.6360 C   0  0  0  0  0  0  0  0  0  0  0  0
   28.4560   26.6860   47.7140 N   0  0  0  0  0  0  0  0  0  0  0  0
   27.7810   26.7100   48.8650 C   0  0  0  0  0  0  0  0  0  0  0  0
   28.3940   27.0570   50.0250 N   0  0  0  0  0  0  0  0  0  0  0  0
   30.2160   27.6580   50.8930 H   0  0  0  0  0  0  0  0  0  0  0  0
   30.2970   26.9730   46.6710 H   0  0  0  0  0  0  0  0  0  0  0  0
   26.7320   26.4520   48.8900 H   0  0  0  0  0  0  0  0  0  0  0  0
   37.1930   30.4440   49.0180 C   0  0  0  0  0  0  0  0  0  0  0  0
   38.0240   30.4610   47.8850 C   0  0  0  0  0  0  0  0  0  0  0  0
   38.7610   31.6010   47.9420 N   0  0  0  0  0  0  0  0  0  0  0  0
   38.4050   32.2750   49.0700 C   0  0  0  0  0  0  0  0  0  0  0  0
   37.4470   31.5700   49.7280 N   0  0  0  0  0  0  0  0  0  0  0  0
   38.0960   29.7190   47.0870 H   0  0  0  0  0  0  0  0  0  0  0  0
   39.4800   31.9230   47.2550 H   0  0  0  0  0  0  0  0  0  0  0  0
   38.9380   33.5650   49.5510 C   0  0  0  0  0  0  0  0  0  0  0  0
   38.6680   33.8720   50.5520 H   0  0  0  0  0  0  0  0  0  0  0  0
   39.6790   34.2810   48.8260 O   0  0  0  0  0  0  0  0  0  0  0  0
  1  4  1  6  0  0  0
  1  2  1  0  0  0  0
  2  5  1  0  0  0  0
  2  6  1  0  0  0  0
  3  7  1  6  0  0  0
  3  1  1  0  0  0  0
  3  2  1  0  0  0  0
  8 16  1  0  0  0  0
  8 12  2  0  0  0  0
  9 10  2  0  0  0  0
  9  8  1  0  0  0  0
 10 11  1  0  0  0  0
 11 12  1  0  0  0  0
 11  1  1  0  0  0  0
 13  9  1  0  0  0  0
 14 10  1  0  0  0  0
 15 20  1  0  0  0  0
 15 21  1  0  0  0  0
 16 15  2  0  0  0  0
 17 18  2  0  0  0  0
 17 16  1  0  0  0  0
 18 19  1  0  0  0  0
 19 23  1  0  0  0  0
 19 20  2  0  0  0  0
 22 17  1  0  0  0  0
 24  3  1  0  0  0  0
 24 28  1  0  0  0  0
 25 26  1  0  0  0  0
 25 24  2  0  0  0  0
 26 27  1  0  0  0  0
 27 31  1  0  0  0  0
 27 28  2  0  0  0  0
 29 25  1  0  0  0  0
 30 26  1  0  0  0  0
 31 32  1  0  0  0  0
 33 31  2  0  0  0  0
M  END
>  <minimizedAffinity>
-5.7403245

>  <minimizedRMSD>
2.47589588

$$$$
