
 OpenBabel03272509493D

 27 28  0  0  0  0  0  0  0  0999 V2000
   33.7710   28.6110   48.7240 C   0  0  0  0  0  0  0  0  0  0  0  0
   33.2330   29.5290   49.0290 H   0  0  0  0  0  0  0  0  0  0  0  0
   34.4040   28.8990   47.8420 H   0  0  0  0  0  0  0  0  0  0  0  0
   32.8690   27.4710   48.3580 C   0  0  0  0  0  0  0  0  0  0  0  0
   33.1440   27.0240   47.3610 H   0  0  0  0  0  0  0  0  0  0  0  0
   32.9660   26.6320   49.0810 H   0  0  0  0  0  0  0  0  0  0  0  0
   31.4340   27.8800   48.2820 C   0  0  0  0  0  0  0  0  0  0  0  0
   30.6850   27.7220   49.4200 C   0  0  0  0  0  0  0  0  0  0  0  0
   29.3500   28.0650   49.4710 C   0  0  0  0  0  0  0  0  0  0  0  0
   28.7750   28.5680   48.3640 N   0  0  0  0  0  0  0  0  0  0  0  0
   29.5180   28.7210   47.2490 C   0  0  0  0  0  0  0  0  0  0  0  0
   30.8220   28.3880   47.1960 N   0  0  0  0  0  0  0  0  0  0  0  0
   31.0930   27.3210   50.3460 H   0  0  0  0  0  0  0  0  0  0  0  0
   28.7420   27.9480   50.3580 H   0  0  0  0  0  0  0  0  0  0  0  0
   29.0200   29.1300   46.3770 H   0  0  0  0  0  0  0  0  0  0  0  0
   34.6780   28.2290   49.7510 O   0  0  0  0  0  0  0  0  0  0  0  0
   37.2900   30.2040   51.2940 C   0  0  0  0  0  0  0  0  0  0  0  0
   37.9470   30.6620   50.1340 C   0  0  0  0  0  0  0  0  0  0  0  0
   37.4570   30.2700   48.9010 C   0  0  0  0  0  0  0  0  0  0  0  0
   36.3590   29.4560   48.9190 N   0  0  0  0  0  0  0  0  0  0  0  0
   35.7520   29.0330   50.0220 C   0  0  0  0  0  0  0  0  0  0  0  0
   36.2280   29.4140   51.2160 N   0  0  0  0  0  0  0  0  0  0  0  0
   37.6780   30.5150   52.2670 H   0  0  0  0  0  0  0  0  0  0  0  0
   38.8020   31.2970   50.1530 H   0  0  0  0  0  0  0  0  0  0  0  0
   38.0820   30.7020   47.6410 C   0  0  0  0  0  0  0  0  0  0  0  0
   37.7990   30.1550   46.7520 H   0  0  0  0  0  0  0  0  0  0  0  0
   38.8870   31.6670   47.7040 O   0  0  0  0  0  0  0  0  0  0  0  0
  1  2  1  0  0  0  0
  1 16  1  0  0  0  0
  3  1  1  0  0  0  0
  4  1  1  0  0  0  0
  4  6  1  0  0  0  0
  5  4  1  0  0  0  0
  7  4  1  0  0  0  0
  7  8  1  0  0  0  0
  8  9  2  0  0  0  0
  8 13  1  0  0  0  0
  9 14  1  0  0  0  0
 10  9  1  0  0  0  0
 11 10  2  0  0  0  0
 12 11  1  0  0  0  0
 12  7  2  0  0  0  0
 15 11  1  0  0  0  0
 16 21  1  0  0  0  0
 17 23  1  0  0  0  0
 18 24  1  0  0  0  0
 18 17  2  0  0  0  0
 19 20  2  0  0  0  0
 19 18  1  0  0  0  0
 20 21  1  0  0  0  0
 21 22  2  0  0  0  0
 22 17  1  0  0  0  0
 25 27  2  0  0  0  0
 25 19  1  0  0  0  0
 26 25  1  0  0  0  0
M  END
>  <minimizedAffinity>
-4.74752283

>  <minimizedRMSD>
0.247122094

$$$$
