
 OpenBabel03272509493D

 27 28  0  0  0  0  0  0  0  0999 V2000
   33.7190   28.5910   48.6990 C   0  0  0  0  0  0  0  0  0  0  0  0
   33.1910   29.5220   48.9810 H   0  0  0  0  0  0  0  0  0  0  0  0
   34.3630   28.8540   47.8160 H   0  0  0  0  0  0  0  0  0  0  0  0
   32.8050   27.4560   48.3470 C   0  0  0  0  0  0  0  0  0  0  0  0
   33.0340   27.0370   47.3270 H   0  0  0  0  0  0  0  0  0  0  0  0
   32.9410   26.6000   49.0420 H   0  0  0  0  0  0  0  0  0  0  0  0
   31.3670   27.8600   48.3520 C   0  0  0  0  0  0  0  0  0  0  0  0
   30.6920   27.7320   49.5390 C   0  0  0  0  0  0  0  0  0  0  0  0
   29.3620   28.0730   49.6660 C   0  0  0  0  0  0  0  0  0  0  0  0
   28.7150   28.5440   48.5840 N   0  0  0  0  0  0  0  0  0  0  0  0
   29.3850   28.6660   47.4200 C   0  0  0  0  0  0  0  0  0  0  0  0
   30.6840   28.3350   47.2930 N   0  0  0  0  0  0  0  0  0  0  0  0
   31.1610   27.3580   50.4480 H   0  0  0  0  0  0  0  0  0  0  0  0
   28.8120   27.9800   50.5930 H   0  0  0  0  0  0  0  0  0  0  0  0
   28.8310   29.0500   46.5710 H   0  0  0  0  0  0  0  0  0  0  0  0
   34.6130   28.2170   49.7390 O   0  0  0  0  0  0  0  0  0  0  0  0
   37.2390   30.1810   51.2740 C   0  0  0  0  0  0  0  0  0  0  0  0
   37.9000   30.6280   50.1110 C   0  0  0  0  0  0  0  0  0  0  0  0
   37.4090   30.2320   48.8800 C   0  0  0  0  0  0  0  0  0  0  0  0
   36.3040   29.4260   48.9020 N   0  0  0  0  0  0  0  0  0  0  0  0
   35.6940   29.0140   50.0070 C   0  0  0  0  0  0  0  0  0  0  0  0
   36.1710   29.3990   51.1990 N   0  0  0  0  0  0  0  0  0  0  0  0
   37.6290   30.4950   52.2450 H   0  0  0  0  0  0  0  0  0  0  0  0
   38.7600   31.2560   50.1270 H   0  0  0  0  0  0  0  0  0  0  0  0
   38.0380   30.6520   47.6180 C   0  0  0  0  0  0  0  0  0  0  0  0
   39.1170   30.5910   47.5770 H   0  0  0  0  0  0  0  0  0  0  0  0
   37.2720   31.0430   46.7010 O   0  0  0  0  0  0  0  0  0  0  0  0
  1  2  1  0  0  0  0
  1 16  1  0  0  0  0
  3  1  1  0  0  0  0
  4  7  1  0  0  0  0
  4  1  1  0  0  0  0
  4  6  1  0  0  0  0
  5  4  1  0  0  0  0
  7  8  1  0  0  0  0
  8  9  2  0  0  0  0
  8 13  1  0  0  0  0
  9 14  1  0  0  0  0
 10  9  1  0  0  0  0
 11 10  2  0  0  0  0
 12 11  1  0  0  0  0
 12  7  2  0  0  0  0
 15 11  1  0  0  0  0
 16 21  1  0  0  0  0
 17 23  1  0  0  0  0
 18 24  1  0  0  0  0
 18 17  2  0  0  0  0
 19 20  2  0  0  0  0
 19 18  1  0  0  0  0
 20 21  1  0  0  0  0
 21 22  2  0  0  0  0
 22 17  1  0  0  0  0
 25 19  1  0  0  0  0
 26 25  1  0  0  0  0
 27 25  2  0  0  0  0
M  END
>  <minimizedAffinity>
-4.67736483

>  <minimizedRMSD>
0.212127626

$$$$
