
 OpenBabel03272509493D

 27 28  0  0  0  0  0  0  0  0999 V2000
   33.7200   28.5930   48.7040 C   0  0  0  0  0  0  0  0  0  0  0  0
   33.1910   29.5190   48.9990 H   0  0  0  0  0  0  0  0  0  0  0  0
   34.3550   28.8660   47.8180 H   0  0  0  0  0  0  0  0  0  0  0  0
   32.8070   27.4580   48.3500 C   0  0  0  0  0  0  0  0  0  0  0  0
   33.0380   27.0390   47.3300 H   0  0  0  0  0  0  0  0  0  0  0  0
   32.9410   26.6010   49.0450 H   0  0  0  0  0  0  0  0  0  0  0  0
   31.3690   27.8600   48.3510 C   0  0  0  0  0  0  0  0  0  0  0  0
   30.6900   27.7280   49.5360 C   0  0  0  0  0  0  0  0  0  0  0  0
   29.3600   28.0680   49.6600 C   0  0  0  0  0  0  0  0  0  0  0  0
   28.7160   28.5420   48.5790 N   0  0  0  0  0  0  0  0  0  0  0  0
   29.3890   28.6700   47.4170 C   0  0  0  0  0  0  0  0  0  0  0  0
   30.6890   28.3400   47.2930 N   0  0  0  0  0  0  0  0  0  0  0  0
   31.1560   27.3500   50.4450 H   0  0  0  0  0  0  0  0  0  0  0  0
   28.8070   27.9700   50.5850 H   0  0  0  0  0  0  0  0  0  0  0  0
   28.8380   29.0570   46.5680 H   0  0  0  0  0  0  0  0  0  0  0  0
   34.6240   28.2130   49.7330 O   0  0  0  0  0  0  0  0  0  0  0  0
   37.2410   30.1870   51.2700 C   0  0  0  0  0  0  0  0  0  0  0  0
   37.9010   30.6360   50.1090 C   0  0  0  0  0  0  0  0  0  0  0  0
   37.4130   30.2380   48.8770 C   0  0  0  0  0  0  0  0  0  0  0  0
   36.3110   29.4290   48.8970 N   0  0  0  0  0  0  0  0  0  0  0  0
   35.7010   29.0140   50.0020 C   0  0  0  0  0  0  0  0  0  0  0  0
   36.1760   29.4010   51.1940 N   0  0  0  0  0  0  0  0  0  0  0  0
   37.6290   30.5020   52.2420 H   0  0  0  0  0  0  0  0  0  0  0  0
   38.7590   31.2680   50.1260 H   0  0  0  0  0  0  0  0  0  0  0  0
   38.0420   30.6610   47.6150 C   0  0  0  0  0  0  0  0  0  0  0  0
   38.6880   29.9380   47.1360 H   0  0  0  0  0  0  0  0  0  0  0  0
   37.7760   31.8210   47.2070 O   0  0  0  0  0  0  0  0  0  0  0  0
  1  2  1  0  0  0  0
  1 16  1  0  0  0  0
  3  1  1  0  0  0  0
  4  7  1  0  0  0  0
  4  1  1  0  0  0  0
  4  6  1  0  0  0  0
  5  4  1  0  0  0  0
  7  8  1  0  0  0  0
  8  9  2  0  0  0  0
  8 13  1  0  0  0  0
  9 14  1  0  0  0  0
 10  9  1  0  0  0  0
 11 10  2  0  0  0  0
 12 11  1  0  0  0  0
 12  7  2  0  0  0  0
 15 11  1  0  0  0  0
 16 21  1  0  0  0  0
 17 23  1  0  0  0  0
 18 24  1  0  0  0  0
 18 17  2  0  0  0  0
 19 20  2  0  0  0  0
 19 18  1  0  0  0  0
 20 21  1  0  0  0  0
 21 22  2  0  0  0  0
 22 17  1  0  0  0  0
 25 19  1  0  0  0  0
 26 25  1  0  0  0  0
 27 25  2  0  0  0  0
M  END
>  <minimizedAffinity>
-4.70197916

>  <minimizedRMSD>
0.0488961749

$$$$
