
 OpenBabel03272505073D

 27 28  0  0  1  0  0  0  0  0999 V2000
   40.3710   27.0160   33.8590 C   0  0  0  0  0  0  0  0  0  0  0  0
   40.3560   26.1020   34.9130 C   0  0  0  0  0  0  0  0  0  0  0  0
   39.2560   25.2650   34.9910 C   0  0  0  0  0  0  0  0  0  0  0  0
   38.2630   25.3680   34.0610 N   0  0  0  0  0  0  0  0  0  0  0  0
   38.3300   26.2670   33.0670 C   0  0  0  0  0  0  0  0  0  0  0  0
   39.3960   27.1070   32.9570 N   0  0  0  0  0  0  0  0  0  0  0  0
   39.0250   24.2550   35.9770 N   0  0  0  0  0  0  0  0  0  0  0  0
   40.0050   23.3020   36.4150 C   0  0  0  0  0  0  0  0  0  0  0  0
   40.1150   23.0910   37.8770 C   0  0  0  0  0  0  0  0  0  0  0  0
   38.8340   23.1100   38.6500 C   0  0  0  0  0  0  0  0  0  0  0  0
   37.9960   24.2770   38.1720 C   0  0  0  0  0  0  0  0  0  0  0  0
   37.7910   24.0320   36.6800 C   0  0  2  0  0  0  0  0  0  0  0  0
   41.2350   27.6620   33.8100 H   0  0  0  0  0  0  0  0  0  0  0  0
   41.0970   25.9710   35.6700 H   0  0  0  0  0  0  0  0  0  0  0  0
   37.5100   26.3000   32.3610 H   0  0  0  0  0  0  0  0  0  0  0  0
   39.9380   22.3360   35.8720 H   0  0  0  0  0  0  0  0  0  0  0  0
   40.9940   23.7320   36.0740 H   0  0  0  0  0  0  0  0  0  0  0  0
   40.5730   22.0880   38.0500 H   0  0  0  0  0  0  0  0  0  0  0  0
   40.8000   23.8110   38.3720 H   0  0  0  0  0  0  0  0  0  0  0  0
   38.2320   22.1960   38.5690 H   0  0  0  0  0  0  0  0  0  0  0  0
   39.0620   23.3080   39.7200 H   0  0  0  0  0  0  0  0  0  0  0  0
   37.0270   24.2660   38.6990 H   0  0  0  0  0  0  0  0  0  0  0  0
   38.4570   25.2490   38.3720 H   0  0  0  0  0  0  0  0  0  0  0  0
   36.9660   24.6770   36.3230 H   0  0  0  0  0  0  0  0  0  0  0  0
   37.3770   22.6120   36.4880 C   0  0  0  0  0  0  0  0  0  0  0  0
   37.2290   21.9610   37.3570 H   0  0  0  0  0  0  0  0  0  0  0  0
   37.1030   21.7900   35.6010 O   0  0  0  0  0  0  0  0  0  0  0  0
  1  2  1  0  0  0  0
  2  3  2  0  0  0  0
  2 14  1  0  0  0  0
  3  7  1  0  0  0  0
  4  3  1  0  0  0  0
  5  4  2  0  0  0  0
  6  5  1  0  0  0  0
  6  1  2  0  0  0  0
  7  8  1  0  0  0  0
  7 12  1  0  0  0  0
  8  9  1  0  0  0  0
  9 18  1  0  0  0  0
  9 19  1  0  0  0  0
  9 10  1  0  0  0  0
 10 21  1  0  0  0  0
 11 23  1  0  0  0  0
 11 10  1  0  0  0  0
 11 22  1  0  0  0  0
 12 24  1  6  0  0  0
 12 11  1  0  0  0  0
 13  1  1  0  0  0  0
 15  5  1  0  0  0  0
 16  8  1  0  0  0  0
 17  8  1  0  0  0  0
 20 10  1  0  0  0  0
 25 12  1  0  0  0  0
 25 26  1  0  0  0  0
 27 25  2  0  0  0  0
M  END
>  <minimizedAffinity>
-4.11560822

$$$$

 OpenBabel03272505073D

 27 28  0  0  1  0  0  0  0  0999 V2000
   35.5240   20.5220   34.4150 C   0  0  0  0  0  0  0  0  0  0  0  0
   36.3100   21.1320   35.3920 C   0  0  0  0  0  0  0  0  0  0  0  0
   37.3810   21.8860   34.9430 C   0  0  0  0  0  0  0  0  0  0  0  0
   37.6130   21.9970   33.6020 N   0  0  0  0  0  0  0  0  0  0  0  0
   36.8220   21.3880   32.7060 C   0  0  0  0  0  0  0  0  0  0  0  0
   35.7600   20.6380   33.1100 N   0  0  0  0  0  0  0  0  0  0  0  0
   38.3180   22.6000   35.7550 N   0  0  0  0  0  0  0  0  0  0  0  0
   37.9640   23.4360   36.8660 C   0  0  0  0  0  0  0  0  0  0  0  0
   38.7620   23.2650   38.1030 C   0  0  0  0  0  0  0  0  0  0  0  0
   40.2250   23.0090   37.9200 C   0  0  0  0  0  0  0  0  0  0  0  0
   40.4040   21.9790   36.8240 C   0  0  0  0  0  0  0  0  0  0  0  0
   39.7460   22.5960   35.5920 C   0  0  2  0  0  0  0  0  0  0  0  0
   34.6920   19.9370   34.7790 H   0  0  0  0  0  0  0  0  0  0  0  0
   36.1840   21.0840   36.4510 H   0  0  0  0  0  0  0  0  0  0  0  0
   37.0580   21.5140   31.6580 H   0  0  0  0  0  0  0  0  0  0  0  0
   37.8770   24.5070   36.5870 H   0  0  0  0  0  0  0  0  0  0  0  0
   36.9030   23.1390   37.1210 H   0  0  0  0  0  0  0  0  0  0  0  0
   38.6790   24.2030   38.7020 H   0  0  0  0  0  0  0  0  0  0  0  0
   38.3750   22.4630   38.7650 H   0  0  0  0  0  0  0  0  0  0  0  0
   40.8210   23.8940   37.6640 H   0  0  0  0  0  0  0  0  0  0  0  0
   40.6280   22.5480   38.8480 H   0  0  0  0  0  0  0  0  0  0  0  0
   41.4810   21.8250   36.6460 H   0  0  0  0  0  0  0  0  0  0  0  0
   39.9780   21.0040   37.0740 H   0  0  0  0  0  0  0  0  0  0  0  0
   40.0790   22.0400   34.6950 H   0  0  0  0  0  0  0  0  0  0  0  0
   40.2200   24.0040   35.4600 C   0  0  0  0  0  0  0  0  0  0  0  0
   40.6990   24.5050   36.3080 H   0  0  0  0  0  0  0  0  0  0  0  0
   40.2820   24.9370   34.6450 O   0  0  0  0  0  0  0  0  0  0  0  0
  1 13  1  0  0  0  0
  1  2  1  0  0  0  0
  2 14  1  0  0  0  0
  3  2  2  0  0  0  0
  3  7  1  0  0  0  0
  4  3  1  0  0  0  0
  5  6  1  0  0  0  0
  5  4  2  0  0  0  0
  6  1  2  0  0  0  0
  7  8  1  0  0  0  0
  8 17  1  0  0  0  0
  8  9  1  0  0  0  0
  9 18  1  0  0  0  0
  9 19  1  0  0  0  0
 10  9  1  0  0  0  0
 10 21  1  0  0  0  0
 11 23  1  0  0  0  0
 11 10  1  0  0  0  0
 12 24  1  6  0  0  0
 12  7  1  0  0  0  0
 12 11  1  0  0  0  0
 15  5  1  0  0  0  0
 16  8  1  0  0  0  0
 20 10  1  0  0  0  0
 22 11  1  0  0  0  0
 25 12  1  0  0  0  0
 25 26  1  0  0  0  0
 27 25  2  0  0  0  0
M  END
>  <minimizedAffinity>
-4.08697319

$$$$

 OpenBabel03272505073D

 27 28  0  0  1  0  0  0  0  0999 V2000
   39.8950   23.0200   36.8260 C   0  0  0  0  0  0  0  0  0  0  0  0
   39.8520   23.9480   35.7850 C   0  0  0  0  0  0  0  0  0  0  0  0
   38.8400   24.8910   35.8380 C   0  0  0  0  0  0  0  0  0  0  0  0
   37.9550   24.8740   36.8780 N   0  0  0  0  0  0  0  0  0  0  0  0
   38.0450   23.9570   37.8530 C   0  0  0  0  0  0  0  0  0  0  0  0
   39.0260   23.0130   37.8350 N   0  0  0  0  0  0  0  0  0  0  0  0
   38.6010   25.9350   34.8900 N   0  0  0  0  0  0  0  0  0  0  0  0
   39.6150   26.7920   34.3460 C   0  0  0  0  0  0  0  0  0  0  0  0
   39.5770   27.0140   32.8810 C   0  0  0  0  0  0  0  0  0  0  0  0
   38.2210   27.1360   32.2630 C   0  0  0  0  0  0  0  0  0  0  0  0
   37.3290   26.0510   32.8290 C   0  0  0  0  0  0  0  0  0  0  0  0
   37.3230   26.2920   34.3360 C   0  0  2  0  0  0  0  0  0  0  0  0
   40.6880   22.2900   36.7720 H   0  0  0  0  0  0  0  0  0  0  0  0
   40.5100   24.0150   34.9470 H   0  0  0  0  0  0  0  0  0  0  0  0
   37.3130   23.9950   38.6490 H   0  0  0  0  0  0  0  0  0  0  0  0
   39.7090   27.7510   34.8970 H   0  0  0  0  0  0  0  0  0  0  0  0
   40.5880   26.2600   34.5680 H   0  0  0  0  0  0  0  0  0  0  0  0
   40.1110   27.9690   32.6610 H   0  0  0  0  0  0  0  0  0  0  0  0
   40.1240   26.2370   32.3070 H   0  0  0  0  0  0  0  0  0  0  0  0
   37.7270   28.1050   32.4170 H   0  0  0  0  0  0  0  0  0  0  0  0
   38.3030   26.9340   31.1720 H   0  0  0  0  0  0  0  0  0  0  0  0
   36.3120   26.1670   32.4180 H   0  0  0  0  0  0  0  0  0  0  0  0
   37.6630   25.0420   32.5740 H   0  0  0  0  0  0  0  0  0  0  0  0
   36.4840   25.7270   34.7840 H   0  0  0  0  0  0  0  0  0  0  0  0
   37.0800   27.7430   34.5800 C   0  0  0  0  0  0  0  0  0  0  0  0
   37.9190   28.4090   34.8100 H   0  0  0  0  0  0  0  0  0  0  0  0
   36.1690   28.5830   34.6260 O   0  0  0  0  0  0  0  0  0  0  0  0
  1  6  1  0  0  0  0
  2  3  1  0  0  0  0
  2  1  2  0  0  0  0
  3  4  2  0  0  0  0
  4  5  1  0  0  0  0
  5 15  1  0  0  0  0
  6  5  2  0  0  0  0
  7  3  1  0  0  0  0
  8 17  1  0  0  0  0
  8  7  1  0  0  0  0
  8 16  1  0  0  0  0
  9  8  1  0  0  0  0
 10 20  1  0  0  0  0
 10 11  1  0  0  0  0
 10  9  1  0  0  0  0
 11 12  1  0  0  0  0
 12 25  1  0  0  0  0
 12 24  1  1  0  0  0
 12  7  1  0  0  0  0
 13  1  1  0  0  0  0
 14  2  1  0  0  0  0
 18  9  1  0  0  0  0
 19  9  1  0  0  0  0
 21 10  1  0  0  0  0
 22 11  1  0  0  0  0
 23 11  1  0  0  0  0
 25 27  2  0  0  0  0
 25 26  1  0  0  0  0
M  END
>  <minimizedAffinity>
-4.04472876

$$$$

 OpenBabel03272505073D

 27 28  0  0  1  0  0  0  0  0999 V2000
   36.9600   22.5760   31.4830 C   0  0  0  0  0  0  0  0  0  0  0  0
   37.2050   23.2860   32.6580 C   0  0  0  0  0  0  0  0  0  0  0  0
   38.0320   22.6790   33.5870 C   0  0  0  0  0  0  0  0  0  0  0  0
   38.5580   21.4480   33.3200 N   0  0  0  0  0  0  0  0  0  0  0  0
   38.2880   20.8100   32.1700 C   0  0  0  0  0  0  0  0  0  0  0  0
   37.4780   21.3750   31.2330 N   0  0  0  0  0  0  0  0  0  0  0  0
   38.4250   23.2140   34.8540 N   0  0  0  0  0  0  0  0  0  0  0  0
   38.8740   24.5600   35.0680 C   0  0  0  0  0  0  0  0  0  0  0  0
   38.2960   25.2730   36.2320 C   0  0  0  0  0  0  0  0  0  0  0  0
   38.0700   24.4570   37.4660 C   0  0  0  0  0  0  0  0  0  0  0  0
   37.4390   23.1390   37.0690 C   0  0  0  0  0  0  0  0  0  0  0  0
   38.4330   22.5010   36.1030 C   0  0  2  0  0  0  0  0  0  0  0  0
   36.3120   23.0610   30.7680 H   0  0  0  0  0  0  0  0  0  0  0  0
   36.8270   24.2470   32.9280 H   0  0  0  0  0  0  0  0  0  0  0  0
   38.7350   19.8370   32.0180 H   0  0  0  0  0  0  0  0  0  0  0  0
   39.9800   24.6530   35.0480 H   0  0  0  0  0  0  0  0  0  0  0  0
   38.5410   25.1230   34.1460 H   0  0  0  0  0  0  0  0  0  0  0  0
   38.9960   26.0930   36.5200 H   0  0  0  0  0  0  0  0  0  0  0  0
   37.3360   25.7800   36.0020 H   0  0  0  0  0  0  0  0  0  0  0  0
   38.9740   24.2450   38.0520 H   0  0  0  0  0  0  0  0  0  0  0  0
   37.3270   24.9770   38.1100 H   0  0  0  0  0  0  0  0  0  0  0  0
   37.3190   22.5110   37.9660 H   0  0  0  0  0  0  0  0  0  0  0  0
   36.4470   23.2540   36.6240 H   0  0  0  0  0  0  0  0  0  0  0  0
   38.1830   21.4290   35.9910 H   0  0  0  0  0  0  0  0  0  0  0  0
   39.7970   22.5930   36.7010 C   0  0  0  0  0  0  0  0  0  0  0  0
   40.5240   23.3070   36.3010 H   0  0  0  0  0  0  0  0  0  0  0  0
   40.5020   22.1010   37.5940 O   0  0  0  0  0  0  0  0  0  0  0  0
  1  2  1  0  0  0  0
  2 14  1  0  0  0  0
  2  3  2  0  0  0  0
  3  7  1  0  0  0  0
  4  3  1  0  0  0  0
  5  4  2  0  0  0  0
  6  1  2  0  0  0  0
  6  5  1  0  0  0  0
  7  8  1  0  0  0  0
  7 12  1  0  0  0  0
  8  9  1  0  0  0  0
  9 18  1  0  0  0  0
  9 10  1  0  0  0  0
 10 20  1  0  0  0  0
 10 21  1  0  0  0  0
 11 10  1  0  0  0  0
 11 22  1  0  0  0  0
 12 24  1  6  0  0  0
 12 25  1  0  0  0  0
 12 11  1  0  0  0  0
 13  1  1  0  0  0  0
 15  5  1  0  0  0  0
 16  8  1  0  0  0  0
 17  8  1  0  0  0  0
 19  9  1  0  0  0  0
 23 11  1  0  0  0  0
 25 27  2  0  0  0  0
 26 25  1  0  0  0  0
M  END
>  <minimizedAffinity>
-3.84844828

$$$$

 OpenBabel03272505073D

 27 28  0  0  1  0  0  0  0  0999 V2000
   38.0380   24.0450   38.2150 C   0  0  0  0  0  0  0  0  0  0  0  0
   37.9560   24.7460   37.0120 C   0  0  0  0  0  0  0  0  0  0  0  0
   38.9010   24.4350   36.0490 C   0  0  0  0  0  0  0  0  0  0  0  0
   39.8440   23.4840   36.3120 N   0  0  0  0  0  0  0  0  0  0  0  0
   39.8750   22.8400   37.4890 C   0  0  0  0  0  0  0  0  0  0  0  0
   38.9620   23.1190   38.4590 N   0  0  0  0  0  0  0  0  0  0  0  0
   39.0120   25.0180   34.7480 N   0  0  0  0  0  0  0  0  0  0  0  0
   37.9120   25.2340   33.8530 C   0  0  0  0  0  0  0  0  0  0  0  0
   37.8500   26.5580   33.1880 C   0  0  0  0  0  0  0  0  0  0  0  0
   39.1560   27.1520   32.7690 C   0  0  0  0  0  0  0  0  0  0  0  0
   40.1520   26.9820   33.8970 C   0  0  0  0  0  0  0  0  0  0  0  0
   40.2290   25.4760   34.1320 C   0  0  2  0  0  0  0  0  0  0  0  0
   37.2940   24.2980   38.9570 H   0  0  0  0  0  0  0  0  0  0  0  0
   37.2480   25.4980   36.7450 H   0  0  0  0  0  0  0  0  0  0  0  0
   40.6470   22.0960   37.6360 H   0  0  0  0  0  0  0  0  0  0  0  0
   37.7840   24.4090   33.1210 H   0  0  0  0  0  0  0  0  0  0  0  0
   36.9920   25.1570   34.5070 H   0  0  0  0  0  0  0  0  0  0  0  0
   37.2390   26.4510   32.2610 H   0  0  0  0  0  0  0  0  0  0  0  0
   37.3260   27.3260   33.7930 H   0  0  0  0  0  0  0  0  0  0  0  0
   39.5900   26.7200   31.8570 H   0  0  0  0  0  0  0  0  0  0  0  0
   39.0260   28.2480   32.6320 H   0  0  0  0  0  0  0  0  0  0  0  0
   41.1330   27.3700   33.5750 H   0  0  0  0  0  0  0  0  0  0  0  0
   39.8750   27.5280   34.8030 H   0  0  0  0  0  0  0  0  0  0  0  0
   41.1300   25.2550   34.7350 H   0  0  0  0  0  0  0  0  0  0  0  0
   40.3840   24.8000   32.8120 C   0  0  0  0  0  0  0  0  0  0  0  0
   40.1330   25.3330   31.8890 H   0  0  0  0  0  0  0  0  0  0  0  0
   40.7370   23.7250   32.3050 O   0  0  0  0  0  0  0  0  0  0  0  0
  1  6  1  0  0  0  0
  1 13  1  0  0  0  0
  2  1  2  0  0  0  0
  3  4  2  0  0  0  0
  3  2  1  0  0  0  0
  4  5  1  0  0  0  0
  5 15  1  0  0  0  0
  5  6  2  0  0  0  0
  7  3  1  0  0  0  0
  8 17  1  0  0  0  0
  8  7  1  0  0  0  0
  9 19  1  0  0  0  0
  9  8  1  0  0  0  0
 10  9  1  0  0  0  0
 10 11  1  0  0  0  0
 11 12  1  0  0  0  0
 11 23  1  0  0  0  0
 12 24  1  1  0  0  0
 12  7  1  0  0  0  0
 14  2  1  0  0  0  0
 16  8  1  0  0  0  0
 18  9  1  0  0  0  0
 20 10  1  0  0  0  0
 21 10  1  0  0  0  0
 22 11  1  0  0  0  0
 25 12  1  0  0  0  0
 26 25  1  0  0  0  0
 27 25  2  0  0  0  0
M  END
>  <minimizedAffinity>
-3.8322289

$$$$

 OpenBabel03272505073D

 27 28  0  0  1  0  0  0  0  0999 V2000
   35.6660   24.0360   31.1150 C   0  0  0  0  0  0  0  0  0  0  0  0
   36.5110   24.8810   31.8350 C   0  0  0  0  0  0  0  0  0  0  0  0
   37.3270   24.2820   32.7790 C   0  0  0  0  0  0  0  0  0  0  0  0
   37.2700   22.9300   32.9600 N   0  0  0  0  0  0  0  0  0  0  0  0
   36.4360   22.1650   32.2380 C   0  0  0  0  0  0  0  0  0  0  0  0
   35.6190   22.7190   31.3000 N   0  0  0  0  0  0  0  0  0  0  0  0
   38.2700   24.9410   33.6280 N   0  0  0  0  0  0  0  0  0  0  0  0
   39.2070   25.9360   33.1910 C   0  0  0  0  0  0  0  0  0  0  0  0
   39.3270   27.1480   34.0360 C   0  0  0  0  0  0  0  0  0  0  0  0
   39.2430   26.9380   35.5140 C   0  0  0  0  0  0  0  0  0  0  0  0
   38.0970   25.9920   35.8070 C   0  0  0  0  0  0  0  0  0  0  0  0
   38.4330   24.7170   35.0400 C   0  0  2  0  0  0  0  0  0  0  0  0
   35.0350   24.5170   30.3820 H   0  0  0  0  0  0  0  0  0  0  0  0
   36.6040   25.9400   31.7420 H   0  0  0  0  0  0  0  0  0  0  0  0
   36.4370   21.1000   32.4290 H   0  0  0  0  0  0  0  0  0  0  0  0
   40.2040   25.5120   32.9500 H   0  0  0  0  0  0  0  0  0  0  0  0
   38.8120   26.2780   32.1880 H   0  0  0  0  0  0  0  0  0  0  0  0
   40.3230   27.6110   33.8390 H   0  0  0  0  0  0  0  0  0  0  0  0
   38.5860   27.9340   33.7800 H   0  0  0  0  0  0  0  0  0  0  0  0
   40.1520   26.5320   35.9770 H   0  0  0  0  0  0  0  0  0  0  0  0
   38.9810   27.9030   36.0010 H   0  0  0  0  0  0  0  0  0  0  0  0
   38.0620   25.7900   36.8900 H   0  0  0  0  0  0  0  0  0  0  0  0
   37.1210   26.3980   35.5260 H   0  0  0  0  0  0  0  0  0  0  0  0
   37.8000   23.8930   35.4230 H   0  0  0  0  0  0  0  0  0  0  0  0
   39.8560   24.3640   35.3110 C   0  0  0  0  0  0  0  0  0  0  0  0
   40.6620   24.8970   34.7940 H   0  0  0  0  0  0  0  0  0  0  0  0
   40.5570   23.5980   35.9880 O   0  0  0  0  0  0  0  0  0  0  0  0
  1  6  2  0  0  0  0
  1  2  1  0  0  0  0
  2  3  2  0  0  0  0
  3  4  1  0  0  0  0
  3  7  1  0  0  0  0
  5 15  1  0  0  0  0
  5  4  2  0  0  0  0
  6  5  1  0  0  0  0
  7 12  1  0  0  0  0
  8  7  1  0  0  0  0
  8  9  1  0  0  0  0
  9 10  1  0  0  0  0
 10 11  1  0  0  0  0
 10 20  1  0  0  0  0
 10 21  1  0  0  0  0
 11 22  1  0  0  0  0
 12 25  1  0  0  0  0
 12 24  1  1  0  0  0
 12 11  1  0  0  0  0
 13  1  1  0  0  0  0
 14  2  1  0  0  0  0
 16  8  1  0  0  0  0
 17  8  1  0  0  0  0
 18  9  1  0  0  0  0
 19  9  1  0  0  0  0
 23 11  1  0  0  0  0
 25 27  2  0  0  0  0
 26 25  1  0  0  0  0
M  END
>  <minimizedAffinity>
-3.82472849

$$$$

 OpenBabel03272505073D

 27 28  0  0  1  0  0  0  0  0999 V2000
   35.6840   24.4260   31.1190 C   0  0  0  0  0  0  0  0  0  0  0  0
   36.6730   24.1940   32.0740 C   0  0  0  0  0  0  0  0  0  0  0  0
   37.1810   25.3070   32.7210 C   0  0  0  0  0  0  0  0  0  0  0  0
   36.7050   26.5470   32.4060 N   0  0  0  0  0  0  0  0  0  0  0  0
   35.7500   26.7110   31.4770 C   0  0  0  0  0  0  0  0  0  0  0  0
   35.2270   25.6400   30.8190 N   0  0  0  0  0  0  0  0  0  0  0  0
   38.1920   25.3140   33.7330 N   0  0  0  0  0  0  0  0  0  0  0  0
   38.2300   24.4220   34.8560 C   0  0  0  0  0  0  0  0  0  0  0  0
   39.5400   23.8000   35.1620 C   0  0  0  0  0  0  0  0  0  0  0  0
   40.7460   24.6640   34.9760 C   0  0  0  0  0  0  0  0  0  0  0  0
   40.6140   25.4060   33.6620 C   0  0  0  0  0  0  0  0  0  0  0  0
   39.3200   26.2050   33.7890 C   0  0  2  0  0  0  0  0  0  0  0  0
   35.2970   23.5480   30.6210 H   0  0  0  0  0  0  0  0  0  0  0  0
   37.0870   23.2540   32.3660 H   0  0  0  0  0  0  0  0  0  0  0  0
   35.4150   27.7180   31.2720 H   0  0  0  0  0  0  0  0  0  0  0  0
   37.7680   24.8570   35.7670 H   0  0  0  0  0  0  0  0  0  0  0  0
   37.5290   23.5810   34.5770 H   0  0  0  0  0  0  0  0  0  0  0  0
   39.5350   23.4910   36.2350 H   0  0  0  0  0  0  0  0  0  0  0  0
   39.7230   22.8650   34.5930 H   0  0  0  0  0  0  0  0  0  0  0  0
   40.9160   25.4000   35.7730 H   0  0  0  0  0  0  0  0  0  0  0  0
   41.6430   24.0140   34.8780 H   0  0  0  0  0  0  0  0  0  0  0  0
   41.4740   26.0860   33.5430 H   0  0  0  0  0  0  0  0  0  0  0  0
   40.6080   24.7440   32.7920 H   0  0  0  0  0  0  0  0  0  0  0  0
   39.3010   26.9790   32.9980 H   0  0  0  0  0  0  0  0  0  0  0  0
   39.3210   26.8990   35.1090 C   0  0  0  0  0  0  0  0  0  0  0  0
   40.1940   26.8260   35.7670 H   0  0  0  0  0  0  0  0  0  0  0  0
   38.6150   27.6190   35.8300 O   0  0  0  0  0  0  0  0  0  0  0  0
  1  2  1  0  0  0  0
  2 14  1  0  0  0  0
  2  3  2  0  0  0  0
  3  7  1  0  0  0  0
  4  3  1  0  0  0  0
  5  4  2  0  0  0  0
  6  1  2  0  0  0  0
  6  5  1  0  0  0  0
  7 12  1  0  0  0  0
  7  8  1  0  0  0  0
  8  9  1  0  0  0  0
  8 16  1  0  0  0  0
  9 18  1  0  0  0  0
 10  9  1  0  0  0  0
 10 20  1  0  0  0  0
 11 12  1  0  0  0  0
 11 10  1  0  0  0  0
 12 24  1  6  0  0  0
 12 25  1  0  0  0  0
 13  1  1  0  0  0  0
 15  5  1  0  0  0  0
 17  8  1  0  0  0  0
 19  9  1  0  0  0  0
 21 10  1  0  0  0  0
 22 11  1  0  0  0  0
 23 11  1  0  0  0  0
 25 26  1  0  0  0  0
 25 27  2  0  0  0  0
M  END
>  <minimizedAffinity>
-3.7501111

$$$$

 OpenBabel03272505073D

 27 28  0  0  1  0  0  0  0  0999 V2000
   41.6590   21.7610   37.1390 C   0  0  0  0  0  0  0  0  0  0  0  0
   40.8570   22.8920   36.9930 C   0  0  0  0  0  0  0  0  0  0  0  0
   40.5840   23.2950   35.6980 C   0  0  0  0  0  0  0  0  0  0  0  0
   41.0960   22.5870   34.6490 N   0  0  0  0  0  0  0  0  0  0  0  0
   41.8630   21.5040   34.8480 C   0  0  0  0  0  0  0  0  0  0  0  0
   42.1530   21.0780   36.1080 N   0  0  0  0  0  0  0  0  0  0  0  0
   39.7880   24.4170   35.3060 N   0  0  0  0  0  0  0  0  0  0  0  0
   38.5090   24.7470   35.8680 C   0  0  0  0  0  0  0  0  0  0  0  0
   38.2910   26.1690   36.2240 C   0  0  0  0  0  0  0  0  0  0  0  0
   38.8750   27.1850   35.2940 C   0  0  0  0  0  0  0  0  0  0  0  0
   40.2850   26.7610   34.9370 C   0  0  0  0  0  0  0  0  0  0  0  0
   40.1330   25.3830   34.2990 C   0  0  2  0  0  0  0  0  0  0  0  0
   41.8640   21.4580   38.1550 H   0  0  0  0  0  0  0  0  0  0  0  0
   40.4270   23.4880   37.7680 H   0  0  0  0  0  0  0  0  0  0  0  0
   42.2390   20.9860   33.9760 H   0  0  0  0  0  0  0  0  0  0  0  0
   37.6610   24.3460   35.2740 H   0  0  0  0  0  0  0  0  0  0  0  0
   38.4610   24.1600   36.8330 H   0  0  0  0  0  0  0  0  0  0  0  0
   37.1910   26.3570   36.2450 H   0  0  0  0  0  0  0  0  0  0  0  0
   38.6480   26.4240   37.2440 H   0  0  0  0  0  0  0  0  0  0  0  0
   38.3140   27.3370   34.3630 H   0  0  0  0  0  0  0  0  0  0  0  0
   38.9680   28.1540   35.8320 H   0  0  0  0  0  0  0  0  0  0  0  0
   40.7040   27.4770   34.2090 H   0  0  0  0  0  0  0  0  0  0  0  0
   40.9620   26.7470   35.7950 H   0  0  0  0  0  0  0  0  0  0  0  0
   41.0680   25.1340   33.7620 H   0  0  0  0  0  0  0  0  0  0  0  0
   39.0320   25.4470   33.2940 C   0  0  0  0  0  0  0  0  0  0  0  0
   38.3330   26.2900   33.2990 H   0  0  0  0  0  0  0  0  0  0  0  0
   38.5530   24.8240   32.3350 O   0  0  0  0  0  0  0  0  0  0  0  0
  1 13  1  0  0  0  0
  2  1  1  0  0  0  0
  2 14  1  0  0  0  0
  3  2  2  0  0  0  0
  4  5  2  0  0  0  0
  4  3  1  0  0  0  0
  5  6  1  0  0  0  0
  6  1  2  0  0  0  0
  7  3  1  0  0  0  0
  7  8  1  0  0  0  0
  8  9  1  0  0  0  0
  8 17  1  0  0  0  0
  9 18  1  0  0  0  0
  9 19  1  0  0  0  0
 10 21  1  0  0  0  0
 10  9  1  0  0  0  0
 11 10  1  0  0  0  0
 11 23  1  0  0  0  0
 12 24  1  6  0  0  0
 12 11  1  0  0  0  0
 12  7  1  0  0  0  0
 15  5  1  0  0  0  0
 16  8  1  0  0  0  0
 20 10  1  0  0  0  0
 22 11  1  0  0  0  0
 25 26  1  0  0  0  0
 25 12  1  0  0  0  0
 27 25  2  0  0  0  0
M  END
>  <minimizedAffinity>
-3.69421554

$$$$

 OpenBabel03272505073D

 27 28  0  0  1  0  0  0  0  0999 V2000
   35.7600   26.8150   31.2420 C   0  0  0  0  0  0  0  0  0  0  0  0
   35.7530   25.4270   31.1030 C   0  0  0  0  0  0  0  0  0  0  0  0
   36.4690   24.7070   32.0440 C   0  0  0  0  0  0  0  0  0  0  0  0
   37.1320   25.3680   33.0380 N   0  0  0  0  0  0  0  0  0  0  0  0
   37.1040   26.7070   33.1230 C   0  0  0  0  0  0  0  0  0  0  0  0
   36.4100   27.4480   32.2160 N   0  0  0  0  0  0  0  0  0  0  0  0
   36.6030   23.2840   32.1050 N   0  0  0  0  0  0  0  0  0  0  0  0
   35.5200   22.3550   31.9570 C   0  0  0  0  0  0  0  0  0  0  0  0
   35.7610   21.1950   31.0670 C   0  0  0  0  0  0  0  0  0  0  0  0
   37.1300   20.5960   31.1120 C   0  0  0  0  0  0  0  0  0  0  0  0
   38.1510   21.7150   31.0930 C   0  0  0  0  0  0  0  0  0  0  0  0
   37.8290   22.5630   32.3200 C   0  0  2  0  0  0  0  0  0  0  0  0
   35.1980   27.3640   30.5010 H   0  0  0  0  0  0  0  0  0  0  0  0
   35.2590   24.8510   30.3530 H   0  0  0  0  0  0  0  0  0  0  0  0
   37.6490   27.1720   33.9330 H   0  0  0  0  0  0  0  0  0  0  0  0
   35.0920   22.0350   32.9300 H   0  0  0  0  0  0  0  0  0  0  0  0
   34.6880   22.9590   31.4850 H   0  0  0  0  0  0  0  0  0  0  0  0
   35.0520   20.3830   31.3570 H   0  0  0  0  0  0  0  0  0  0  0  0
   35.5370   21.4080   30.0010 H   0  0  0  0  0  0  0  0  0  0  0  0
   37.3300   19.9610   31.9850 H   0  0  0  0  0  0  0  0  0  0  0  0
   37.2960   20.0080   30.1830 H   0  0  0  0  0  0  0  0  0  0  0  0
   39.1620   21.2840   31.1800 H   0  0  0  0  0  0  0  0  0  0  0  0
   38.1320   22.3010   30.1700 H   0  0  0  0  0  0  0  0  0  0  0  0
   38.6900   23.2250   32.5320 H   0  0  0  0  0  0  0  0  0  0  0  0
   37.6520   21.6530   33.4890 C   0  0  0  0  0  0  0  0  0  0  0  0
   37.5010   20.5800   33.3320 H   0  0  0  0  0  0  0  0  0  0  0  0
   37.6080   21.6590   34.7290 O   0  0  0  0  0  0  0  0  0  0  0  0
  1  6  1  0  0  0  0
  2  1  2  0  0  0  0
  2  3  1  0  0  0  0
  3  7  1  0  0  0  0
  3  4  2  0  0  0  0
  4  5  1  0  0  0  0
  5 15  1  0  0  0  0
  6  5  2  0  0  0  0
  7 12  1  0  0  0  0
  8  7  1  0  0  0  0
  8 16  1  0  0  0  0
  9 10  1  0  0  0  0
  9 18  1  0  0  0  0
  9  8  1  0  0  0  0
 10 20  1  0  0  0  0
 11 10  1  0  0  0  0
 11 22  1  0  0  0  0
 11 12  1  0  0  0  0
 12 24  1  1  0  0  0
 12 25  1  0  0  0  0
 13  1  1  0  0  0  0
 14  2  1  0  0  0  0
 17  8  1  0  0  0  0
 19  9  1  0  0  0  0
 21 10  1  0  0  0  0
 23 11  1  0  0  0  0
 25 27  2  0  0  0  0
 26 25  1  0  0  0  0
M  END
>  <minimizedAffinity>
-3.65981722

$$$$
