
 OpenBabel03272507443D

 27 28  0  0  0  0  0  0  0  0999 V2000
   36.9460   29.9750   48.4930 N   0  0  0  0  0  0  0  0  0  0  0  0
   37.6180   30.0470   49.7450 C   0  0  0  0  0  0  0  0  0  0  0  0
   38.3020   31.3030   50.0950 C   0  0  0  0  0  0  0  0  0  0  0  0
   38.7970   32.1560   48.9990 C   0  0  0  0  0  0  0  0  0  0  0  0
   38.0890   31.9480   47.6830 C   0  0  0  0  0  0  0  0  0  0  0  0
   37.8420   30.4600   47.4680 C   0  0  0  0  0  0  0  0  0  0  0  0
   36.8890   29.7660   50.5460 H   0  0  0  0  0  0  0  0  0  0  0  0
   38.3720   29.2070   49.7470 H   0  0  0  0  0  0  0  0  0  0  0  0
   37.6330   31.8820   50.7810 H   0  0  0  0  0  0  0  0  0  0  0  0
   39.1860   31.0540   50.7520 H   0  0  0  0  0  0  0  0  0  0  0  0
   39.8930   32.0870   48.8390 H   0  0  0  0  0  0  0  0  0  0  0  0
   37.1190   32.4660   47.6350 H   0  0  0  0  0  0  0  0  0  0  0  0
   38.7880   32.2400   46.8730 H   0  0  0  0  0  0  0  0  0  0  0  0
   37.3730   30.3690   46.4500 H   0  0  0  0  0  0  0  0  0  0  0  0
   38.7820   29.8930   47.3920 H   0  0  0  0  0  0  0  0  0  0  0  0
   35.6130   29.5040   48.2800 C   0  0  0  0  0  0  0  0  0  0  0  0
   34.7810   29.9310   47.2330 C   0  0  0  0  0  0  0  0  0  0  0  0
   33.5030   29.3800   47.1550 C   0  0  0  0  0  0  0  0  0  0  0  0
   33.1380   28.4650   48.0920 N   0  0  0  0  0  0  0  0  0  0  0  0
   33.9670   28.0820   49.0810 C   0  0  0  0  0  0  0  0  0  0  0  0
   35.2030   28.6080   49.1670 N   0  0  0  0  0  0  0  0  0  0  0  0
   35.1820   30.6580   46.5550 H   0  0  0  0  0  0  0  0  0  0  0  0
   32.8640   29.7110   46.3470 H   0  0  0  0  0  0  0  0  0  0  0  0
   33.6470   27.3470   49.8190 H   0  0  0  0  0  0  0  0  0  0  0  0
   38.5440   33.5990   49.3580 C   0  0  0  0  0  0  0  0  0  0  0  0
   37.5520   33.9810   49.5650 H   0  0  0  0  0  0  0  0  0  0  0  0
   39.5700   34.2920   49.3940 O   0  0  0  0  0  0  0  0  0  0  0  0
  1  2  1  0  0  0  0
  2  8  1  0  0  0  0
  2  3  1  0  0  0  0
  2  7  1  0  0  0  0
  3 10  1  0  0  0  0
  3  9  1  0  0  0  0
  4 25  1  0  0  0  0
  4  3  1  0  0  0  0
  5  4  1  0  0  0  0
  6  5  1  0  0  0  0
  6  1  1  0  0  0  0
 11  4  1  0  0  0  0
 12  5  1  0  0  0  0
 13  5  1  0  0  0  0
 14  6  1  0  0  0  0
 15  6  1  0  0  0  0
 16  1  1  0  0  0  0
 16 21  1  0  0  0  0
 17 16  2  0  0  0  0
 18 17  1  0  0  0  0
 18 19  2  0  0  0  0
 19 20  1  0  0  0  0
 20 21  2  0  0  0  0
 20 24  1  0  0  0  0
 22 17  1  0  0  0  0
 23 18  1  0  0  0  0
 25 27  2  0  0  0  0
 25 26  1  0  0  0  0
M  END
>  <minimizedAffinity>
-4.88327932

>  <minimizedRMSD>
1.15722835

$$$$
