
 OpenBabel03272500443D

 27 28  0  0  1  0  0  0  0  0999 V2000
   37.3890   26.0400   35.2880 C   0  0  0  0  0  0  0  0  0  0  0  0
   38.1090   27.2120   35.0250 C   0  0  0  0  0  0  0  0  0  0  0  0
   39.4970   27.1340   34.9670 C   0  0  0  0  0  0  0  0  0  0  0  0
   40.0680   25.9180   35.1710 N   0  0  0  0  0  0  0  0  0  0  0  0
   39.3490   24.8050   35.4210 C   0  0  0  0  0  0  0  0  0  0  0  0
   38.0070   24.8490   35.4840 N   0  0  0  0  0  0  0  0  0  0  0  0
   40.0100   23.5450   35.6280 N   0  0  0  0  0  0  0  0  0  0  0  0
   39.6270   22.6850   36.7310 C   0  0  1  0  0  0  0  0  0  0  0  0
   40.7730   21.8840   37.2820 C   0  0  0  0  0  0  0  0  0  0  0  0
   42.0590   22.5440   36.8870 C   0  0  0  0  0  0  0  0  0  0  0  0
   42.1910   22.4080   35.3960 C   0  0  0  0  0  0  0  0  0  0  0  0
   41.0700   23.1340   34.7210 C   0  0  0  0  0  0  0  0  0  0  0  0
   36.3150   26.1600   35.3220 H   0  0  0  0  0  0  0  0  0  0  0  0
   37.6010   28.1550   34.8710 H   0  0  0  0  0  0  0  0  0  0  0  0
   40.0850   28.0090   34.7680 H   0  0  0  0  0  0  0  0  0  0  0  0
   38.9030   21.9550   36.3030 H   0  0  0  0  0  0  0  0  0  0  0  0
   40.7200   21.9360   38.4030 H   0  0  0  0  0  0  0  0  0  0  0  0
   40.7980   20.8310   36.9290 H   0  0  0  0  0  0  0  0  0  0  0  0
   42.9320   22.0150   37.3330 H   0  0  0  0  0  0  0  0  0  0  0  0
   42.0770   23.6160   37.1460 H   0  0  0  0  0  0  0  0  0  0  0  0
   43.1460   22.9060   35.1010 H   0  0  0  0  0  0  0  0  0  0  0  0
   42.2930   21.3520   35.0910 H   0  0  0  0  0  0  0  0  0  0  0  0
   41.4100   23.9910   34.1070 H   0  0  0  0  0  0  0  0  0  0  0  0
   40.5890   22.4190   34.0180 H   0  0  0  0  0  0  0  0  0  0  0  0
   38.9050   23.4190   37.7940 C   0  0  0  0  0  0  0  0  0  0  0  0
   38.1830   24.1940   37.5790 H   0  0  0  0  0  0  0  0  0  0  0  0
   38.8990   23.3840   38.9980 O   0  0  0  0  0  0  0  0  0  0  0  0
  1 13  1  0  0  0  0
  1  6  1  0  0  0  0
  2  1  2  0  0  0  0
  3  2  1  0  0  0  0
  3  4  2  0  0  0  0
  4  5  1  0  0  0  0
  5  6  2  0  0  0  0
  5  7  1  0  0  0  0
  7  8  1  0  0  0  0
  8 16  1  6  0  0  0
  8  9  1  0  0  0  0
  8 25  1  0  0  0  0
  9 17  1  0  0  0  0
 10 20  1  0  0  0  0
 10  9  1  0  0  0  0
 10 19  1  0  0  0  0
 11 10  1  0  0  0  0
 12 11  1  0  0  0  0
 12  7  1  0  0  0  0
 14  2  1  0  0  0  0
 15  3  1  0  0  0  0
 18  9  1  0  0  0  0
 21 11  1  0  0  0  0
 22 11  1  0  0  0  0
 23 12  1  0  0  0  0
 24 12  1  0  0  0  0
 25 27  2  0  0  0  0
 26 25  1  0  0  0  0
M  END
>  <minimizedAffinity>
-4.05584288

$$$$

 OpenBabel03272500443D

 27 28  0  0  1  0  0  0  0  0999 V2000
   35.9200   24.0780   31.4770 C   0  0  0  0  0  0  0  0  0  0  0  0
   37.2110   24.4690   31.0990 C   0  0  0  0  0  0  0  0  0  0  0  0
   38.1210   23.4790   30.7410 C   0  0  0  0  0  0  0  0  0  0  0  0
   37.6950   22.1890   30.7790 N   0  0  0  0  0  0  0  0  0  0  0  0
   36.4450   21.8420   31.1460 C   0  0  0  0  0  0  0  0  0  0  0  0
   35.5450   22.7760   31.4990 N   0  0  0  0  0  0  0  0  0  0  0  0
   36.0520   20.4590   31.1680 N   0  0  0  0  0  0  0  0  0  0  0  0
   35.3280   19.9160   32.3010 C   0  0  1  0  0  0  0  0  0  0  0  0
   35.6430   18.4720   32.5680 C   0  0  0  0  0  0  0  0  0  0  0  0
   36.9540   18.1350   31.9230 C   0  0  0  0  0  0  0  0  0  0  0  0
   36.7510   18.2060   30.4360 C   0  0  0  0  0  0  0  0  0  0  0  0
   36.3840   19.6020   30.0410 C   0  0  0  0  0  0  0  0  0  0  0  0
   35.2570   24.8890   31.7460 H   0  0  0  0  0  0  0  0  0  0  0  0
   37.4960   25.5120   31.0870 H   0  0  0  0  0  0  0  0  0  0  0  0
   39.1190   23.7360   30.4450 H   0  0  0  0  0  0  0  0  0  0  0  0
   34.2520   19.9640   32.0180 H   0  0  0  0  0  0  0  0  0  0  0  0
   35.7920   18.3520   33.6740 H   0  0  0  0  0  0  0  0  0  0  0  0
   34.8750   17.7660   32.1860 H   0  0  0  0  0  0  0  0  0  0  0  0
   37.2540   17.0870   32.1540 H   0  0  0  0  0  0  0  0  0  0  0  0
   37.7520   18.8430   32.2040 H   0  0  0  0  0  0  0  0  0  0  0  0
   37.7300   17.9620   29.9550 H   0  0  0  0  0  0  0  0  0  0  0  0
   36.0410   17.4370   30.0850 H   0  0  0  0  0  0  0  0  0  0  0  0
   37.1410   20.0870   29.3940 H   0  0  0  0  0  0  0  0  0  0  0  0
   35.4520   19.5400   29.4380 H   0  0  0  0  0  0  0  0  0  0  0  0
   35.4790   20.7480   33.5160 C   0  0  0  0  0  0  0  0  0  0  0  0
   35.5840   21.8220   33.4780 H   0  0  0  0  0  0  0  0  0  0  0  0
   35.5230   20.5240   34.7000 O   0  0  0  0  0  0  0  0  0  0  0  0
  1  6  1  0  0  0  0
  1 13  1  0  0  0  0
  2  1  2  0  0  0  0
  3  4  2  0  0  0  0
  3  2  1  0  0  0  0
  4  5  1  0  0  0  0
  5  7  1  0  0  0  0
  5  6  2  0  0  0  0
  7  8  1  0  0  0  0
  8 16  1  6  0  0  0
  8  9  1  0  0  0  0
  8 25  1  0  0  0  0
  9 17  1  0  0  0  0
 10 19  1  0  0  0  0
 10 20  1  0  0  0  0
 10  9  1  0  0  0  0
 11 10  1  0  0  0  0
 12 11  1  0  0  0  0
 12  7  1  0  0  0  0
 14  2  1  0  0  0  0
 15  3  1  0  0  0  0
 18  9  1  0  0  0  0
 21 11  1  0  0  0  0
 22 11  1  0  0  0  0
 23 12  1  0  0  0  0
 24 12  1  0  0  0  0
 25 27  2  0  0  0  0
 26 25  1  0  0  0  0
M  END
>  <minimizedAffinity>
-3.98989749

$$$$

 OpenBabel03272500443D

 27 28  0  0  1  0  0  0  0  0999 V2000
   41.9220   21.8890   35.5690 C   0  0  0  0  0  0  0  0  0  0  0  0
   41.6380   21.4510   36.8700 C   0  0  0  0  0  0  0  0  0  0  0  0
   40.6540   22.1230   37.5910 C   0  0  0  0  0  0  0  0  0  0  0  0
   40.0290   23.1650   36.9820 N   0  0  0  0  0  0  0  0  0  0  0  0
   40.3230   23.5630   35.7280 C   0  0  0  0  0  0  0  0  0  0  0  0
   41.2680   22.9350   35.0080 N   0  0  0  0  0  0  0  0  0  0  0  0
   39.6270   24.6730   35.1360 N   0  0  0  0  0  0  0  0  0  0  0  0
   40.3560   25.7110   34.4340 C   0  0  1  0  0  0  0  0  0  0  0  0
   39.7180   27.0660   34.5510 C   0  0  0  0  0  0  0  0  0  0  0  0
   38.8070   27.0710   35.7410 C   0  0  0  0  0  0  0  0  0  0  0  0
   37.6640   26.1450   35.4320 C   0  0  0  0  0  0  0  0  0  0  0  0
   38.1790   24.7520   35.2460 C   0  0  0  0  0  0  0  0  0  0  0  0
   42.6940   21.3310   35.0580 H   0  0  0  0  0  0  0  0  0  0  0  0
   42.1680   20.6150   37.3050 H   0  0  0  0  0  0  0  0  0  0  0  0
   40.4070   21.8200   38.5890 H   0  0  0  0  0  0  0  0  0  0  0  0
   40.3140   25.4280   33.3570 H   0  0  0  0  0  0  0  0  0  0  0  0
   40.5310   27.8100   34.7690 H   0  0  0  0  0  0  0  0  0  0  0  0
   39.1280   27.3650   33.6580 H   0  0  0  0  0  0  0  0  0  0  0  0
   38.3640   28.0810   35.8990 H   0  0  0  0  0  0  0  0  0  0  0  0
   39.3110   26.7160   36.6560 H   0  0  0  0  0  0  0  0  0  0  0  0
   36.9890   26.1430   36.3220 H   0  0  0  0  0  0  0  0  0  0  0  0
   37.0550   26.5170   34.5890 H   0  0  0  0  0  0  0  0  0  0  0  0
   37.8080   24.0420   36.0120 H   0  0  0  0  0  0  0  0  0  0  0  0
   37.7930   24.3850   34.2700 H   0  0  0  0  0  0  0  0  0  0  0  0
   41.7890   25.7410   34.8040 C   0  0  0  0  0  0  0  0  0  0  0  0
   42.1410   25.4820   35.7920 H   0  0  0  0  0  0  0  0  0  0  0  0
   42.8110   26.0120   34.2260 O   0  0  0  0  0  0  0  0  0  0  0  0
  1  2  1  0  0  0  0
  2 14  1  0  0  0  0
  2  3  2  0  0  0  0
  3 15  1  0  0  0  0
  4  3  1  0  0  0  0
  5  4  2  0  0  0  0
  6  1  2  0  0  0  0
  6  5  1  0  0  0  0
  7 12  1  0  0  0  0
  7  5  1  0  0  0  0
  8 16  1  6  0  0  0
  8  9  1  0  0  0  0
  8 25  1  0  0  0  0
  8  7  1  0  0  0  0
  9 17  1  0  0  0  0
  9 10  1  0  0  0  0
 10 19  1  0  0  0  0
 10 20  1  0  0  0  0
 11 10  1  0  0  0  0
 11 21  1  0  0  0  0
 12 11  1  0  0  0  0
 12 23  1  0  0  0  0
 13  1  1  0  0  0  0
 18  9  1  0  0  0  0
 22 11  1  0  0  0  0
 24 12  1  0  0  0  0
 25 26  1  0  0  0  0
 27 25  2  0  0  0  0
M  END
>  <minimizedAffinity>
-3.96369505

$$$$

 OpenBabel03272500443D

 27 28  0  0  1  0  0  0  0  0999 V2000
   39.8960   22.9140   37.3390 C   0  0  0  0  0  0  0  0  0  0  0  0
   38.9000   23.2510   38.2650 C   0  0  0  0  0  0  0  0  0  0  0  0
   37.9120   24.1500   37.8720 C   0  0  0  0  0  0  0  0  0  0  0  0
   37.9780   24.6440   36.6070 N   0  0  0  0  0  0  0  0  0  0  0  0
   38.9480   24.3000   35.7370 C   0  0  0  0  0  0  0  0  0  0  0  0
   39.9160   23.4360   36.0880 N   0  0  0  0  0  0  0  0  0  0  0  0
   38.9650   24.8560   34.4110 N   0  0  0  0  0  0  0  0  0  0  0  0
   40.1960   25.3740   33.8450 C   0  0  1  0  0  0  0  0  0  0  0  0
   39.9760   26.5290   32.9090 C   0  0  0  0  0  0  0  0  0  0  0  0
   38.6370   27.1360   33.1950 C   0  0  0  0  0  0  0  0  0  0  0  0
   37.5950   26.1280   32.7970 C   0  0  0  0  0  0  0  0  0  0  0  0
   37.7360   24.8970   33.6360 C   0  0  0  0  0  0  0  0  0  0  0  0
   40.6360   22.2130   37.6990 H   0  0  0  0  0  0  0  0  0  0  0  0
   38.8980   22.8270   39.2600 H   0  0  0  0  0  0  0  0  0  0  0  0
   37.1320   24.4340   38.5510 H   0  0  0  0  0  0  0  0  0  0  0  0
   40.6170   24.5420   33.2360 H   0  0  0  0  0  0  0  0  0  0  0  0
   40.7410   27.3150   33.1500 H   0  0  0  0  0  0  0  0  0  0  0  0
   40.0110   26.2500   31.8340 H   0  0  0  0  0  0  0  0  0  0  0  0
   38.4650   28.0380   32.5630 H   0  0  0  0  0  0  0  0  0  0  0  0
   38.5040   27.3750   34.2640 H   0  0  0  0  0  0  0  0  0  0  0  0
   36.5970   26.5780   33.0160 H   0  0  0  0  0  0  0  0  0  0  0  0
   37.6090   25.9370   31.7090 H   0  0  0  0  0  0  0  0  0  0  0  0
   36.8590   24.7080   34.2860 H   0  0  0  0  0  0  0  0  0  0  0  0
   37.8010   24.0310   32.9420 H   0  0  0  0  0  0  0  0  0  0  0  0
   41.2040   25.6880   34.8820 C   0  0  0  0  0  0  0  0  0  0  0  0
   40.9420   26.1110   35.8410 H   0  0  0  0  0  0  0  0  0  0  0  0
   42.4020   25.5860   34.9610 O   0  0  0  0  0  0  0  0  0  0  0  0
  1 13  1  0  0  0  0
  1  2  1  0  0  0  0
  2 14  1  0  0  0  0
  3  2  2  0  0  0  0
  3 15  1  0  0  0  0
  4  3  1  0  0  0  0
  5  6  1  0  0  0  0
  5  4  2  0  0  0  0
  6  1  2  0  0  0  0
  7  5  1  0  0  0  0
  8 16  1  6  0  0  0
  8  7  1  0  0  0  0
  8 25  1  0  0  0  0
  9 17  1  0  0  0  0
  9 10  1  0  0  0  0
  9  8  1  0  0  0  0
 10 20  1  0  0  0  0
 11 21  1  0  0  0  0
 11 10  1  0  0  0  0
 11 12  1  0  0  0  0
 12 23  1  0  0  0  0
 12  7  1  0  0  0  0
 18  9  1  0  0  0  0
 19 10  1  0  0  0  0
 22 11  1  0  0  0  0
 24 12  1  0  0  0  0
 25 27  2  0  0  0  0
 25 26  1  0  0  0  0
M  END
>  <minimizedAffinity>
-3.81428242

$$$$

 OpenBabel03272500443D

 27 28  0  0  1  0  0  0  0  0999 V2000
   30.8350   28.4050   34.2380 C   0  0  0  0  0  0  0  0  0  0  0  0
   30.6730   27.5990   35.3730 C   0  0  0  0  0  0  0  0  0  0  0  0
   31.4610   27.8670   36.4880 C   0  0  0  0  0  0  0  0  0  0  0  0
   32.3420   28.8990   36.4040 N   0  0  0  0  0  0  0  0  0  0  0  0
   32.4750   29.6580   35.2980 C   0  0  0  0  0  0  0  0  0  0  0  0
   31.7290   29.4230   34.2050 N   0  0  0  0  0  0  0  0  0  0  0  0
   33.4250   30.7370   35.2680 N   0  0  0  0  0  0  0  0  0  0  0  0
   34.3070   30.9110   34.1310 C   0  0  1  0  0  0  0  0  0  0  0  0
   35.6450   31.4860   34.5010 C   0  0  0  0  0  0  0  0  0  0  0  0
   35.8800   31.2600   35.9640 C   0  0  0  0  0  0  0  0  0  0  0  0
   34.8890   32.1060   36.7120 C   0  0  0  0  0  0  0  0  0  0  0  0
   33.4970   31.6590   36.3910 C   0  0  0  0  0  0  0  0  0  0  0  0
   30.1970   28.1510   33.4030 H   0  0  0  0  0  0  0  0  0  0  0  0
   29.9560   26.7900   35.3830 H   0  0  0  0  0  0  0  0  0  0  0  0
   31.3680   27.2740   37.3770 H   0  0  0  0  0  0  0  0  0  0  0  0
   33.8050   31.6610   33.4770 H   0  0  0  0  0  0  0  0  0  0  0  0
   36.4320   30.8990   33.9570 H   0  0  0  0  0  0  0  0  0  0  0  0
   35.7400   32.5730   34.2970 H   0  0  0  0  0  0  0  0  0  0  0  0
   36.8930   31.6150   36.2640 H   0  0  0  0  0  0  0  0  0  0  0  0
   35.7330   30.2060   36.2540 H   0  0  0  0  0  0  0  0  0  0  0  0
   35.0600   31.9320   37.8020 H   0  0  0  0  0  0  0  0  0  0  0  0
   35.0660   33.1840   36.5450 H   0  0  0  0  0  0  0  0  0  0  0  0
   32.9560   31.2490   37.2660 H   0  0  0  0  0  0  0  0  0  0  0  0
   32.9290   32.5570   36.0660 H   0  0  0  0  0  0  0  0  0  0  0  0
   34.4400   29.6760   33.3270 C   0  0  0  0  0  0  0  0  0  0  0  0
   33.6660   29.3300   32.6560 H   0  0  0  0  0  0  0  0  0  0  0  0
   35.2920   28.8340   33.1960 O   0  0  0  0  0  0  0  0  0  0  0  0
  1  2  1  0  0  0  0
  2 14  1  0  0  0  0
  2  3  2  0  0  0  0
  3 15  1  0  0  0  0
  4  3  1  0  0  0  0
  5  4  2  0  0  0  0
  6  1  2  0  0  0  0
  6  5  1  0  0  0  0
  7  5  1  0  0  0  0
  7 12  1  0  0  0  0
  8 16  1  6  0  0  0
  8  9  1  0  0  0  0
  8  7  1  0  0  0  0
  9 10  1  0  0  0  0
 10 20  1  0  0  0  0
 10 19  1  0  0  0  0
 10 11  1  0  0  0  0
 11 21  1  0  0  0  0
 12 11  1  0  0  0  0
 12 23  1  0  0  0  0
 13  1  1  0  0  0  0
 17  9  1  0  0  0  0
 18  9  1  0  0  0  0
 22 11  1  0  0  0  0
 24 12  1  0  0  0  0
 25  8  1  0  0  0  0
 26 25  1  0  0  0  0
 27 25  2  0  0  0  0
M  END
>  <minimizedAffinity>
-3.80914569

$$$$

 OpenBabel03272500443D

 27 28  0  0  1  0  0  0  0  0999 V2000
   35.9890   24.0090   31.2560 C   0  0  0  0  0  0  0  0  0  0  0  0
   35.1540   25.1090   31.0210 C   0  0  0  0  0  0  0  0  0  0  0  0
   35.5990   26.3690   31.4100 C   0  0  0  0  0  0  0  0  0  0  0  0
   36.8240   26.4510   31.9950 N   0  0  0  0  0  0  0  0  0  0  0  0
   37.6070   25.3750   32.2070 C   0  0  0  0  0  0  0  0  0  0  0  0
   37.2030   24.1450   31.8430 N   0  0  0  0  0  0  0  0  0  0  0  0
   38.8940   25.5240   32.8310 N   0  0  0  0  0  0  0  0  0  0  0  0
   39.3040   24.6320   33.8970 C   0  0  1  0  0  0  0  0  0  0  0  0
   40.1970   25.2900   34.9100 C   0  0  0  0  0  0  0  0  0  0  0  0
   40.0200   26.7760   34.8180 C   0  0  0  0  0  0  0  0  0  0  0  0
   40.5730   27.2110   33.4910 C   0  0  0  0  0  0  0  0  0  0  0  0
   39.7880   26.5800   32.3840 C   0  0  0  0  0  0  0  0  0  0  0  0
   35.5920   23.0570   30.9340 H   0  0  0  0  0  0  0  0  0  0  0  0
   34.1880   24.9850   30.5520 H   0  0  0  0  0  0  0  0  0  0  0  0
   34.9900   27.2370   31.2480 H   0  0  0  0  0  0  0  0  0  0  0  0
   39.9080   23.8360   33.4040 H   0  0  0  0  0  0  0  0  0  0  0  0
   39.8400   24.9880   35.9300 H   0  0  0  0  0  0  0  0  0  0  0  0
   41.2760   25.0590   34.7760 H   0  0  0  0  0  0  0  0  0  0  0  0
   40.6190   27.2970   35.6000 H   0  0  0  0  0  0  0  0  0  0  0  0
   38.9590   27.0750   34.8730 H   0  0  0  0  0  0  0  0  0  0  0  0
   40.4340   28.3170   33.4200 H   0  0  0  0  0  0  0  0  0  0  0  0
   41.6620   27.0370   33.4270 H   0  0  0  0  0  0  0  0  0  0  0  0
   39.2410   27.3150   31.7610 H   0  0  0  0  0  0  0  0  0  0  0  0
   40.5140   26.0790   31.7080 H   0  0  0  0  0  0  0  0  0  0  0  0
   38.1550   23.9510   34.5350 C   0  0  0  0  0  0  0  0  0  0  0  0
   37.2320   23.7500   34.0100 H   0  0  0  0  0  0  0  0  0  0  0  0
   37.9360   23.4960   35.6290 O   0  0  0  0  0  0  0  0  0  0  0  0
  1  6  1  0  0  0  0
  2  1  2  0  0  0  0
  2  3  1  0  0  0  0
  3  4  2  0  0  0  0
  4  5  1  0  0  0  0
  5  7  1  0  0  0  0
  6  5  2  0  0  0  0
  7  8  1  0  0  0  0
  8 16  1  6  0  0  0
  8 25  1  0  0  0  0
  8  9  1  0  0  0  0
  9 17  1  0  0  0  0
 10 20  1  0  0  0  0
 10  9  1  0  0  0  0
 10 19  1  0  0  0  0
 11 10  1  0  0  0  0
 12  7  1  0  0  0  0
 12 11  1  0  0  0  0
 13  1  1  0  0  0  0
 14  2  1  0  0  0  0
 15  3  1  0  0  0  0
 18  9  1  0  0  0  0
 21 11  1  0  0  0  0
 22 11  1  0  0  0  0
 23 12  1  0  0  0  0
 24 12  1  0  0  0  0
 25 27  2  0  0  0  0
 26 25  1  0  0  0  0
M  END
>  <minimizedAffinity>
-3.79943514

$$$$

 OpenBabel03272500443D

 27 28  0  0  1  0  0  0  0  0999 V2000
   37.7780   24.3550   37.1170 C   0  0  0  0  0  0  0  0  0  0  0  0
   38.6210   23.2440   37.2430 C   0  0  0  0  0  0  0  0  0  0  0  0
   39.7530   23.1820   36.4360 C   0  0  0  0  0  0  0  0  0  0  0  0
   39.9690   24.2100   35.5740 N   0  0  0  0  0  0  0  0  0  0  0  0
   39.1400   25.2690   35.4760 C   0  0  0  0  0  0  0  0  0  0  0  0
   38.0380   25.3560   36.2410 N   0  0  0  0  0  0  0  0  0  0  0  0
   39.4210   26.3270   34.5450 N   0  0  0  0  0  0  0  0  0  0  0  0
   38.3750   26.8540   33.6900 C   0  0  1  0  0  0  0  0  0  0  0  0
   38.8810   27.3200   32.3540 C   0  0  0  0  0  0  0  0  0  0  0  0
   40.2050   26.6720   32.0840 C   0  0  0  0  0  0  0  0  0  0  0  0
   41.1870   27.2330   33.0730 C   0  0  0  0  0  0  0  0  0  0  0  0
   40.7670   26.8720   34.4640 C   0  0  0  0  0  0  0  0  0  0  0  0
   36.9140   24.3490   37.7680 H   0  0  0  0  0  0  0  0  0  0  0  0
   38.3990   22.4530   37.9460 H   0  0  0  0  0  0  0  0  0  0  0  0
   40.4250   22.3480   36.5010 H   0  0  0  0  0  0  0  0  0  0  0  0
   37.9830   27.7540   34.2170 H   0  0  0  0  0  0  0  0  0  0  0  0
   38.1740   26.9400   31.5680 H   0  0  0  0  0  0  0  0  0  0  0  0
   39.0100   28.4210   32.2810 H   0  0  0  0  0  0  0  0  0  0  0  0
   40.5820   26.9420   31.0720 H   0  0  0  0  0  0  0  0  0  0  0  0
   40.1670   25.5760   32.2080 H   0  0  0  0  0  0  0  0  0  0  0  0
   42.1720   26.7440   32.8770 H   0  0  0  0  0  0  0  0  0  0  0  0
   41.3480   28.3140   32.9170 H   0  0  0  0  0  0  0  0  0  0  0  0
   41.4870   26.2070   34.9800 H   0  0  0  0  0  0  0  0  0  0  0  0
   40.7350   27.8140   35.0540 H   0  0  0  0  0  0  0  0  0  0  0  0
   37.2360   25.9190   33.5530 C   0  0  0  0  0  0  0  0  0  0  0  0
   36.5770   25.6800   34.3750 H   0  0  0  0  0  0  0  0  0  0  0  0
   36.7780   25.2620   32.6530 O   0  0  0  0  0  0  0  0  0  0  0  0
  1  2  1  0  0  0  0
  1 13  1  0  0  0  0
  2 14  1  0  0  0  0
  3 15  1  0  0  0  0
  3  2  2  0  0  0  0
  4  3  1  0  0  0  0
  5  4  2  0  0  0  0
  5  6  1  0  0  0  0
  6  1  2  0  0  0  0
  7  5  1  0  0  0  0
  8 16  1  1  0  0  0
  8  7  1  0  0  0  0
  9  8  1  0  0  0  0
 10 20  1  0  0  0  0
 10  9  1  0  0  0  0
 10 11  1  0  0  0  0
 11 12  1  0  0  0  0
 12  7  1  0  0  0  0
 12 23  1  0  0  0  0
 12 24  1  0  0  0  0
 17  9  1  0  0  0  0
 18  9  1  0  0  0  0
 19 10  1  0  0  0  0
 21 11  1  0  0  0  0
 22 11  1  0  0  0  0
 25  8  1  0  0  0  0
 25 26  1  0  0  0  0
 27 25  2  0  0  0  0
M  END
>  <minimizedAffinity>
-3.76420045

$$$$

 OpenBabel03272500443D

 27 28  0  0  1  0  0  0  0  0999 V2000
   37.2260   24.1660   30.7490 C   0  0  0  0  0  0  0  0  0  0  0  0
   38.4560   23.5280   30.5480 C   0  0  0  0  0  0  0  0  0  0  0  0
   39.4090   23.6010   31.5600 C   0  0  0  0  0  0  0  0  0  0  0  0
   39.0820   24.2920   32.6850 N   0  0  0  0  0  0  0  0  0  0  0  0
   37.8880   24.8960   32.8500 C   0  0  0  0  0  0  0  0  0  0  0  0
   36.9480   24.8430   31.8910 N   0  0  0  0  0  0  0  0  0  0  0  0
   37.5980   25.6120   34.0630 N   0  0  0  0  0  0  0  0  0  0  0  0
   36.9950   26.9290   34.0140 C   0  0  1  0  0  0  0  0  0  0  0  0
   37.4310   27.8220   35.1410 C   0  0  0  0  0  0  0  0  0  0  0  0
   38.7160   27.2960   35.7060 C   0  0  0  0  0  0  0  0  0  0  0  0
   38.4090   25.9820   36.3670 C   0  0  0  0  0  0  0  0  0  0  0  0
   37.9150   25.0050   35.3460 C   0  0  0  0  0  0  0  0  0  0  0  0
   36.5250   24.0770   29.9300 H   0  0  0  0  0  0  0  0  0  0  0  0
   38.6630   22.9930   29.6320 H   0  0  0  0  0  0  0  0  0  0  0  0
   40.3640   23.1260   31.4460 H   0  0  0  0  0  0  0  0  0  0  0  0
   35.9010   26.7610   34.1430 H   0  0  0  0  0  0  0  0  0  0  0  0
   37.6630   28.8320   34.7080 H   0  0  0  0  0  0  0  0  0  0  0  0
   36.6920   27.8980   35.9670 H   0  0  0  0  0  0  0  0  0  0  0  0
   39.1060   27.9700   36.5030 H   0  0  0  0  0  0  0  0  0  0  0  0
   39.4780   27.1280   34.9260 H   0  0  0  0  0  0  0  0  0  0  0  0
   39.3670   25.5870   36.7820 H   0  0  0  0  0  0  0  0  0  0  0  0
   37.7340   26.1100   37.2320 H   0  0  0  0  0  0  0  0  0  0  0  0
   38.5890   24.1370   35.2100 H   0  0  0  0  0  0  0  0  0  0  0  0
   36.9520   24.5960   35.7200 H   0  0  0  0  0  0  0  0  0  0  0  0
   37.1670   27.5800   32.6960 C   0  0  0  0  0  0  0  0  0  0  0  0
   37.6850   27.1040   31.8750 H   0  0  0  0  0  0  0  0  0  0  0  0
   36.8440   28.6390   32.2220 O   0  0  0  0  0  0  0  0  0  0  0  0
  1  6  1  0  0  0  0
  2  1  2  0  0  0  0
  2  3  1  0  0  0  0
  3  4  2  0  0  0  0
  4  5  1  0  0  0  0
  5  7  1  0  0  0  0
  6  5  2  0  0  0  0
  7 12  1  0  0  0  0
  8  7  1  0  0  0  0
  8 16  1  1  0  0  0
  8  9  1  0  0  0  0
  9 10  1  0  0  0  0
  9 18  1  0  0  0  0
 10 11  1  0  0  0  0
 10 19  1  0  0  0  0
 11 21  1  0  0  0  0
 11 22  1  0  0  0  0
 12 24  1  0  0  0  0
 12 11  1  0  0  0  0
 13  1  1  0  0  0  0
 14  2  1  0  0  0  0
 15  3  1  0  0  0  0
 17  9  1  0  0  0  0
 20 10  1  0  0  0  0
 23 12  1  0  0  0  0
 25  8  1  0  0  0  0
 26 25  1  0  0  0  0
 27 25  2  0  0  0  0
M  END
>  <minimizedAffinity>
-3.74490809

$$$$

 OpenBabel03272500443D

 27 28  0  0  1  0  0  0  0  0999 V2000
   37.9510   25.4080   34.4910 C   0  0  0  0  0  0  0  0  0  0  0  0
   38.6530   25.8550   35.6180 C   0  0  0  0  0  0  0  0  0  0  0  0
   38.4770   27.1750   36.0220 C   0  0  0  0  0  0  0  0  0  0  0  0
   37.6300   27.9490   35.2940 N   0  0  0  0  0  0  0  0  0  0  0  0
   36.9660   27.4910   34.2140 C   0  0  0  0  0  0  0  0  0  0  0  0
   37.1170   26.2210   33.7980 N   0  0  0  0  0  0  0  0  0  0  0  0
   36.0820   28.3570   33.4830 N   0  0  0  0  0  0  0  0  0  0  0  0
   36.1320   28.4080   32.0350 C   0  0  1  0  0  0  0  0  0  0  0  0
   35.7930   29.7630   31.4780 C   0  0  0  0  0  0  0  0  0  0  0  0
   35.9820   30.7890   32.5540 C   0  0  0  0  0  0  0  0  0  0  0  0
   34.9310   30.5400   33.5990 C   0  0  0  0  0  0  0  0  0  0  0  0
   35.1320   29.1870   34.2060 C   0  0  0  0  0  0  0  0  0  0  0  0
   38.1270   24.3750   34.2230 H   0  0  0  0  0  0  0  0  0  0  0  0
   39.3160   25.1940   36.1590 H   0  0  0  0  0  0  0  0  0  0  0  0
   38.9960   27.5570   36.8800 H   0  0  0  0  0  0  0  0  0  0  0  0
   35.3380   27.7100   31.6840 H   0  0  0  0  0  0  0  0  0  0  0  0
   36.5420   30.0000   30.6760 H   0  0  0  0  0  0  0  0  0  0  0  0
   34.7530   29.8450   31.0960 H   0  0  0  0  0  0  0  0  0  0  0  0
   35.8030   31.8160   32.1600 H   0  0  0  0  0  0  0  0  0  0  0  0
   36.9750   30.7190   33.0300 H   0  0  0  0  0  0  0  0  0  0  0  0
   35.0760   31.3000   34.4030 H   0  0  0  0  0  0  0  0  0  0  0  0
   33.9140   30.7090   33.2010 H   0  0  0  0  0  0  0  0  0  0  0  0
   35.3900   29.2250   35.2830 H   0  0  0  0  0  0  0  0  0  0  0  0
   34.1630   28.6470   34.1380 H   0  0  0  0  0  0  0  0  0  0  0  0
   37.4110   27.8940   31.4960 C   0  0  0  0  0  0  0  0  0  0  0  0
   38.3590   28.0630   31.9860 H   0  0  0  0  0  0  0  0  0  0  0  0
   37.7290   27.2500   30.5290 O   0  0  0  0  0  0  0  0  0  0  0  0
  1  2  1  0  0  0  0
  2  3  2  0  0  0  0
  2 14  1  0  0  0  0
  3 15  1  0  0  0  0
  4  3  1  0  0  0  0
  5  4  2  0  0  0  0
  6  5  1  0  0  0  0
  6  1  2  0  0  0  0
  7 12  1  0  0  0  0
  7  5  1  0  0  0  0
  8 16  1  6  0  0  0
  8  7  1  0  0  0  0
  9  8  1  0  0  0  0
  9 10  1  0  0  0  0
 10 20  1  0  0  0  0
 10 11  1  0  0  0  0
 11 12  1  0  0  0  0
 11 21  1  0  0  0  0
 12 23  1  0  0  0  0
 13  1  1  0  0  0  0
 17  9  1  0  0  0  0
 18  9  1  0  0  0  0
 19 10  1  0  0  0  0
 22 11  1  0  0  0  0
 24 12  1  0  0  0  0
 25 26  1  0  0  0  0
 25  8  1  0  0  0  0
 27 25  2  0  0  0  0
M  END
>  <minimizedAffinity>
-3.70669723

$$$$
