
 OpenBabel03272509493D

 27 28  0  0  0  0  0  0  0  0999 V2000
   33.7000   28.5870   48.6950 C   0  0  0  0  0  0  0  0  0  0  0  0
   33.1740   29.5200   48.9750 H   0  0  0  0  0  0  0  0  0  0  0  0
   34.3400   28.8460   47.8080 H   0  0  0  0  0  0  0  0  0  0  0  0
   32.7840   27.4520   48.3520 C   0  0  0  0  0  0  0  0  0  0  0  0
   33.0090   27.0260   47.3340 H   0  0  0  0  0  0  0  0  0  0  0  0
   32.9200   26.5990   49.0530 H   0  0  0  0  0  0  0  0  0  0  0  0
   31.3460   27.8570   48.3580 C   0  0  0  0  0  0  0  0  0  0  0  0
   30.6720   27.7310   49.5450 C   0  0  0  0  0  0  0  0  0  0  0  0
   29.3420   28.0740   49.6730 C   0  0  0  0  0  0  0  0  0  0  0  0
   28.6960   28.5450   48.5920 N   0  0  0  0  0  0  0  0  0  0  0  0
   29.3650   28.6660   47.4270 C   0  0  0  0  0  0  0  0  0  0  0  0
   30.6640   28.3330   47.3000 N   0  0  0  0  0  0  0  0  0  0  0  0
   31.1410   27.3560   50.4540 H   0  0  0  0  0  0  0  0  0  0  0  0
   28.7930   27.9810   50.6000 H   0  0  0  0  0  0  0  0  0  0  0  0
   28.8110   29.0500   46.5780 H   0  0  0  0  0  0  0  0  0  0  0  0
   34.5980   28.2170   49.7330 O   0  0  0  0  0  0  0  0  0  0  0  0
   37.1640   30.1600   51.3930 C   0  0  0  0  0  0  0  0  0  0  0  0
   37.6930   30.8410   50.2780 C   0  0  0  0  0  0  0  0  0  0  0  0
   37.1410   30.5960   49.0330 C   0  0  0  0  0  0  0  0  0  0  0  0
   36.1120   29.6960   48.9950 N   0  0  0  0  0  0  0  0  0  0  0  0
   35.6260   29.0620   50.0560 C   0  0  0  0  0  0  0  0  0  0  0  0
   36.1620   29.3010   51.2620 N   0  0  0  0  0  0  0  0  0  0  0  0
   37.6010   30.3550   52.3760 H   0  0  0  0  0  0  0  0  0  0  0  0
   38.4960   31.5380   50.3400 H   0  0  0  0  0  0  0  0  0  0  0  0
   37.6330   31.2640   47.8170 C   0  0  0  0  0  0  0  0  0  0  0  0
   37.2120   32.2370   47.6030 H   0  0  0  0  0  0  0  0  0  0  0  0
   38.4940   30.6500   47.1380 O   0  0  0  0  0  0  0  0  0  0  0  0
  1  2  1  0  0  0  0
  1 16  1  0  0  0  0
  3  1  1  0  0  0  0
  4  7  1  0  0  0  0
  4  1  1  0  0  0  0
  4  6  1  0  0  0  0
  5  4  1  0  0  0  0
  7  8  1  0  0  0  0
  8  9  2  0  0  0  0
  8 13  1  0  0  0  0
  9 14  1  0  0  0  0
 10  9  1  0  0  0  0
 11 10  2  0  0  0  0
 12 11  1  0  0  0  0
 12  7  2  0  0  0  0
 15 11  1  0  0  0  0
 16 21  1  0  0  0  0
 17 23  1  0  0  0  0
 18 24  1  0  0  0  0
 18 17  2  0  0  0  0
 19 18  1  0  0  0  0
 20 19  2  0  0  0  0
 20 21  1  0  0  0  0
 21 22  2  0  0  0  0
 22 17  1  0  0  0  0
 25 19  1  0  0  0  0
 26 25  1  0  0  0  0
 27 25  2  0  0  0  0
M  END
>  <minimizedAffinity>
-4.56380224

>  <minimizedRMSD>
0.33426398

$$$$
