
 OpenBabel03272510153D

 22 23  0  0  0  0  0  0  0  0999 V2000
   37.2700   29.3520   51.0620 Br  0  0  0  0  0  0  0  0  0  0  0  0
   35.9600   29.3170   49.6830 C   0  0  0  0  0  0  0  0  0  0  0  0
   36.0000   30.2160   48.6380 C   0  0  0  0  0  0  0  0  0  0  0  0
   35.0080   30.1250   47.6720 C   0  0  0  0  0  0  0  0  0  0  0  0
   33.9960   29.1860   47.7100 C   0  0  0  0  0  0  0  0  0  0  0  0
   33.9870   28.3030   48.7710 C   0  0  0  0  0  0  0  0  0  0  0  0
   34.9650   28.3800   49.7390 C   0  0  0  0  0  0  0  0  0  0  0  0
   35.0840   30.8470   46.8790 H   0  0  0  0  0  0  0  0  0  0  0  0
   33.2060   27.5580   48.8260 H   0  0  0  0  0  0  0  0  0  0  0  0
   34.9500   27.6810   50.5690 H   0  0  0  0  0  0  0  0  0  0  0  0
   37.9780   33.1700   49.4340 C   0  0  0  0  0  0  0  0  0  0  0  0
   39.0170   33.1650   48.4680 C   0  0  0  0  0  0  0  0  0  0  0  0
   39.0070   32.1230   47.5500 C   0  0  0  0  0  0  0  0  0  0  0  0
   38.0250   31.1700   47.6110 N   0  0  0  0  0  0  0  0  0  0  0  0
   37.0470   31.2180   48.5590 C   0  0  0  0  0  0  0  0  0  0  0  0
   37.0420   32.2180   49.4540 N   0  0  0  0  0  0  0  0  0  0  0  0
   37.8980   33.9520   50.2040 H   0  0  0  0  0  0  0  0  0  0  0  0
   39.7400   33.9550   48.5010 H   0  0  0  0  0  0  0  0  0  0  0  0
   39.7860   32.0960   46.8030 H   0  0  0  0  0  0  0  0  0  0  0  0
   32.9810   29.1500   46.6540 C   0  0  0  0  0  0  0  0  0  0  0  0
   31.9600   29.3710   46.9450 H   0  0  0  0  0  0  0  0  0  0  0  0
   33.4290   28.8590   45.5010 O   0  0  0  0  0  0  0  0  0  0  0  0
  2  7  1  0  0  0  0
  2  1  1  0  0  0  0
  3  2  2  0  0  0  0
  4  5  2  0  0  0  0
  4  3  1  0  0  0  0
  5  6  1  0  0  0  0
  6  9  1  0  0  0  0
  6  7  2  0  0  0  0
  7 10  1  0  0  0  0
  8  4  1  0  0  0  0
 11 16  1  0  0  0  0
 11 17  1  0  0  0  0
 12 18  1  0  0  0  0
 12 11  2  0  0  0  0
 13 14  2  0  0  0  0
 13 12  1  0  0  0  0
 14 15  1  0  0  0  0
 15  3  1  0  0  0  0
 15 16  2  0  0  0  0
 19 13  1  0  0  0  0
 20 21  1  0  0  0  0
 20  5  1  0  0  0  0
 22 20  2  0  0  0  0
M  END
>  <minimizedAffinity>
-5.37973976

>  <minimizedRMSD>
0.0300065074

$$$$
