
 OpenBabel03272510163D

 22 23  0  0  0  0  0  0  0  0999 V2000
   37.2790   29.3290   51.0380 Br  0  0  0  0  0  0  0  0  0  0  0  0
   35.9560   29.3190   49.6720 C   0  0  0  0  0  0  0  0  0  0  0  0
   35.9900   30.2330   48.6400 C   0  0  0  0  0  0  0  0  0  0  0  0
   34.9880   30.1600   47.6820 C   0  0  0  0  0  0  0  0  0  0  0  0
   33.9720   29.2250   47.7170 C   0  0  0  0  0  0  0  0  0  0  0  0
   33.9700   28.3270   48.7650 C   0  0  0  0  0  0  0  0  0  0  0  0
   34.9570   28.3850   49.7240 C   0  0  0  0  0  0  0  0  0  0  0  0
   35.0590   30.8930   46.8990 H   0  0  0  0  0  0  0  0  0  0  0  0
   33.1860   27.5840   48.8170 H   0  0  0  0  0  0  0  0  0  0  0  0
   34.9470   27.6750   50.5440 H   0  0  0  0  0  0  0  0  0  0  0  0
   37.9790   33.1760   49.4490 C   0  0  0  0  0  0  0  0  0  0  0  0
   39.0170   33.1730   48.4810 C   0  0  0  0  0  0  0  0  0  0  0  0
   39.0010   32.1360   47.5580 C   0  0  0  0  0  0  0  0  0  0  0  0
   38.0160   31.1850   47.6150 N   0  0  0  0  0  0  0  0  0  0  0  0
   37.0390   31.2320   48.5650 C   0  0  0  0  0  0  0  0  0  0  0  0
   37.0400   32.2270   49.4650 N   0  0  0  0  0  0  0  0  0  0  0  0
   37.9020   33.9540   50.2240 H   0  0  0  0  0  0  0  0  0  0  0  0
   39.7420   33.9600   48.5180 H   0  0  0  0  0  0  0  0  0  0  0  0
   39.7800   32.1100   46.8100 H   0  0  0  0  0  0  0  0  0  0  0  0
   32.9470   29.2080   46.6700 C   0  0  0  0  0  0  0  0  0  0  0  0
   32.5670   28.2380   46.3710 H   0  0  0  0  0  0  0  0  0  0  0  0
   32.6200   30.3550   46.2310 O   0  0  0  0  0  0  0  0  0  0  0  0
  2  7  1  0  0  0  0
  2  1  1  0  0  0  0
  3  2  2  0  0  0  0
  4  5  2  0  0  0  0
  4  3  1  0  0  0  0
  5  6  1  0  0  0  0
  6  9  1  0  0  0  0
  6  7  2  0  0  0  0
  7 10  1  0  0  0  0
  8  4  1  0  0  0  0
 11 16  1  0  0  0  0
 11 17  1  0  0  0  0
 12 18  1  0  0  0  0
 12 11  2  0  0  0  0
 13 14  2  0  0  0  0
 13 12  1  0  0  0  0
 14 15  1  0  0  0  0
 15  3  1  0  0  0  0
 15 16  2  0  0  0  0
 19 13  1  0  0  0  0
 20  5  1  0  0  0  0
 21 20  1  0  0  0  0
 22 20  2  0  0  0  0
M  END
>  <minimizedAffinity>
-5.48299599

>  <minimizedRMSD>
0.283050984

$$$$
