
 OpenBabel03272510153D

 22 23  0  0  0  0  0  0  0  0999 V2000
   37.2690   29.3400   51.0500 Br  0  0  0  0  0  0  0  0  0  0  0  0
   35.9560   29.3140   49.6740 C   0  0  0  0  0  0  0  0  0  0  0  0
   35.9950   30.2180   48.6330 C   0  0  0  0  0  0  0  0  0  0  0  0
   35.0010   30.1320   47.6690 C   0  0  0  0  0  0  0  0  0  0  0  0
   33.9870   29.1950   47.7050 C   0  0  0  0  0  0  0  0  0  0  0  0
   33.9800   28.3070   48.7600 C   0  0  0  0  0  0  0  0  0  0  0  0
   34.9590   28.3780   49.7270 C   0  0  0  0  0  0  0  0  0  0  0  0
   35.0760   30.8590   46.8790 H   0  0  0  0  0  0  0  0  0  0  0  0
   33.1980   27.5620   48.8140 H   0  0  0  0  0  0  0  0  0  0  0  0
   34.9450   27.6750   50.5540 H   0  0  0  0  0  0  0  0  0  0  0  0
   37.9770   33.1670   49.4360 C   0  0  0  0  0  0  0  0  0  0  0  0
   39.0160   33.1640   48.4700 C   0  0  0  0  0  0  0  0  0  0  0  0
   39.0040   32.1240   47.5500 C   0  0  0  0  0  0  0  0  0  0  0  0
   38.0200   31.1720   47.6080 N   0  0  0  0  0  0  0  0  0  0  0  0
   37.0430   31.2190   48.5570 C   0  0  0  0  0  0  0  0  0  0  0  0
   37.0390   32.2160   49.4540 N   0  0  0  0  0  0  0  0  0  0  0  0
   37.8980   33.9470   50.2090 H   0  0  0  0  0  0  0  0  0  0  0  0
   39.7390   33.9530   48.5050 H   0  0  0  0  0  0  0  0  0  0  0  0
   39.7830   32.0980   46.8020 H   0  0  0  0  0  0  0  0  0  0  0  0
   32.9700   29.1650   46.6500 C   0  0  0  0  0  0  0  0  0  0  0  0
   33.2380   29.6080   45.6970 H   0  0  0  0  0  0  0  0  0  0  0  0
   31.8760   28.6140   46.9860 O   0  0  0  0  0  0  0  0  0  0  0  0
  2  7  1  0  0  0  0
  2  1  1  0  0  0  0
  3  2  2  0  0  0  0
  4  5  2  0  0  0  0
  4  3  1  0  0  0  0
  5  6  1  0  0  0  0
  6  9  1  0  0  0  0
  6  7  2  0  0  0  0
  7 10  1  0  0  0  0
  8  4  1  0  0  0  0
 11 16  1  0  0  0  0
 11 17  1  0  0  0  0
 12 18  1  0  0  0  0
 12 11  2  0  0  0  0
 13 14  2  0  0  0  0
 13 12  1  0  0  0  0
 14 15  1  0  0  0  0
 15  3  1  0  0  0  0
 15 16  2  0  0  0  0
 19 13  1  0  0  0  0
 20 22  2  0  0  0  0
 20  5  1  0  0  0  0
 21 20  1  0  0  0  0
M  END
>  <minimizedAffinity>
-5.44708633

>  <minimizedRMSD>
0.276152492

$$$$
