
 OpenBabel03272506463D

 36 38  0  0  1  0  0  0  0  0999 V2000
   32.1690   28.5310   47.4360 C   0  0  2  0  0  0  0  0  0  0  0  0
   33.4190   28.3450   48.2450 C   0  0  1  0  0  0  0  0  0  0  0  0
   33.8020   27.0420   48.1330 O   0  0  0  0  0  0  0  0  0  0  0  0
   33.0800   26.4370   47.1120 C   0  0  0  0  0  0  0  0  0  0  0  0
   32.4800   27.5380   46.2730 C   0  0  1  0  0  0  0  0  0  0  0  0
   31.2460   28.1920   47.8960 H   0  0  0  0  0  0  0  0  0  0  0  0
   33.3040   28.6070   49.3150 H   0  0  0  0  0  0  0  0  0  0  0  0
   32.3840   25.7560   47.5810 H   0  0  0  0  0  0  0  0  0  0  0  0
   33.7610   25.8050   46.4860 H   0  0  0  0  0  0  0  0  0  0  0  0
   33.2040   28.0310   45.6190 H   0  0  0  0  0  0  0  0  0  0  0  0
   32.1050   29.8400   46.9130 O   0  0  0  0  0  0  0  0  0  0  0  0
   31.5860   30.3460   47.5800 H   0  0  0  0  0  0  0  0  0  0  0  0
   34.7330   29.3830   47.4790 S   0  0  0  0  0  0  0  0  0  0  0  0
   37.1300   29.3000   50.6360 C   0  0  0  0  0  0  0  0  0  0  0  0
   37.6350   30.5990   50.7350 C   0  0  0  0  0  0  0  0  0  0  0  0
   37.2160   31.5420   49.7830 C   0  0  0  0  0  0  0  0  0  0  0  0
   36.3490   31.1420   48.8250 N   0  0  0  0  0  0  0  0  0  0  0  0
   35.8810   29.8770   48.7590 C   0  0  0  0  0  0  0  0  0  0  0  0
   36.2640   28.9390   49.6640 N   0  0  0  0  0  0  0  0  0  0  0  0
   37.4750   28.6000   51.3870 H   0  0  0  0  0  0  0  0  0  0  0  0
   38.3290   30.8890   51.5160 H   0  0  0  0  0  0  0  0  0  0  0  0
   37.5860   32.5560   49.8280 H   0  0  0  0  0  0  0  0  0  0  0  0
   31.3200   27.0820   45.6930 O   0  0  0  0  0  0  0  0  0  0  0  0
   29.8420   29.2230   44.3180 Cl  0  0  0  0  0  0  0  0  0  0  0  0
   29.3060   28.1960   45.6260 C   0  0  0  0  0  0  0  0  0  0  0  0
   30.0910   27.2130   46.1820 C   0  0  0  0  0  0  0  0  0  0  0  0
   29.5410   26.4340   47.2020 C   0  0  0  0  0  0  0  0  0  0  0  0
   28.2500   26.6510   47.6330 C   0  0  0  0  0  0  0  0  0  0  0  0
   27.4520   27.6390   47.0810 C   0  0  0  0  0  0  0  0  0  0  0  0
   28.0060   28.4090   46.0660 C   0  0  0  0  0  0  0  0  0  0  0  0
   30.0720   25.6390   47.6950 H   0  0  0  0  0  0  0  0  0  0  0  0
   27.7590   26.0910   48.4160 H   0  0  0  0  0  0  0  0  0  0  0  0
   26.4480   27.8350   47.3900 H   0  0  0  0  0  0  0  0  0  0  0  0
   27.1820   29.4570   45.4690 C   0  0  0  0  0  0  0  0  0  0  0  0
   27.2810   30.4870   45.7840 H   0  0  0  0  0  0  0  0  0  0  0  0
   26.3400   29.1820   44.5770 O   0  0  0  0  0  0  0  0  0  0  0  0
  1  6  1  1  0  0  0
  1  2  1  0  0  0  0
  2  7  1  1  0  0  0
  3  2  1  0  0  0  0
  4  8  1  0  0  0  0
  4  3  1  0  0  0  0
  5 10  1  6  0  0  0
  5  4  1  0  0  0  0
  5  1  1  0  0  0  0
  9  4  1  0  0  0  0
 11  1  1  0  0  0  0
 11 12  1  0  0  0  0
 13  2  1  0  0  0  0
 13 18  1  0  0  0  0
 14 15  1  0  0  0  0
 14 20  1  0  0  0  0
 15 21  1  0  0  0  0
 16 22  1  0  0  0  0
 16 15  2  0  0  0  0
 17 16  1  0  0  0  0
 18 17  2  0  0  0  0
 18 19  1  0  0  0  0
 19 14  2  0  0  0  0
 23 26  1  0  0  0  0
 23  5  1  0  0  0  0
 24 25  1  0  0  0  0
 25 30  2  0  0  0  0
 25 26  1  0  0  0  0
 26 27  2  0  0  0  0
 27 28  1  0  0  0  0
 27 31  1  0  0  0  0
 28 32  1  0  0  0  0
 29 33  1  0  0  0  0
 29 28  2  0  0  0  0
 30 29  1  0  0  0  0
 34 35  1  0  0  0  0
 34 30  1  0  0  0  0
 36 34  2  0  0  0  0
M  END
>  <minimizedAffinity>
-4.59765577

>  <minimizedRMSD>
0.17556341

$$$$
