
 OpenBabel03272506463D

 36 38  0  0  1  0  0  0  0  0999 V2000
   32.1560   28.5450   47.4300 C   0  0  2  0  0  0  0  0  0  0  0  0
   33.4040   28.3510   48.2400 C   0  0  1  0  0  0  0  0  0  0  0  0
   33.7790   27.0470   48.1290 O   0  0  0  0  0  0  0  0  0  0  0  0
   33.0540   26.4460   47.1070 C   0  0  0  0  0  0  0  0  0  0  0  0
   32.4620   27.5500   46.2670 C   0  0  1  0  0  0  0  0  0  0  0  0
   31.2300   28.2120   47.8890 H   0  0  0  0  0  0  0  0  0  0  0  0
   33.2900   28.6150   49.3100 H   0  0  0  0  0  0  0  0  0  0  0  0
   32.3540   25.7690   47.5750 H   0  0  0  0  0  0  0  0  0  0  0  0
   33.7310   25.8080   46.4820 H   0  0  0  0  0  0  0  0  0  0  0  0
   33.1890   28.0380   45.6140 H   0  0  0  0  0  0  0  0  0  0  0  0
   32.1000   29.8540   46.9060 O   0  0  0  0  0  0  0  0  0  0  0  0
   31.5840   30.3640   47.5730 H   0  0  0  0  0  0  0  0  0  0  0  0
   34.7250   29.3820   47.4750 S   0  0  0  0  0  0  0  0  0  0  0  0
   37.1210   29.2960   50.6320 C   0  0  0  0  0  0  0  0  0  0  0  0
   37.6210   30.5960   50.7360 C   0  0  0  0  0  0  0  0  0  0  0  0
   37.2000   31.5410   49.7870 C   0  0  0  0  0  0  0  0  0  0  0  0
   36.3340   31.1410   48.8270 N   0  0  0  0  0  0  0  0  0  0  0  0
   35.8700   29.8750   48.7560 C   0  0  0  0  0  0  0  0  0  0  0  0
   36.2570   28.9350   49.6580 N   0  0  0  0  0  0  0  0  0  0  0  0
   37.4690   28.5950   51.3810 H   0  0  0  0  0  0  0  0  0  0  0  0
   38.3140   30.8870   51.5180 H   0  0  0  0  0  0  0  0  0  0  0  0
   37.5650   32.5560   49.8350 H   0  0  0  0  0  0  0  0  0  0  0  0
   31.3000   27.1010   45.6860 O   0  0  0  0  0  0  0  0  0  0  0  0
   29.8110   29.2480   44.3330 Cl  0  0  0  0  0  0  0  0  0  0  0  0
   29.2830   28.2110   45.6360 C   0  0  0  0  0  0  0  0  0  0  0  0
   30.0720   27.2250   46.1820 C   0  0  0  0  0  0  0  0  0  0  0  0
   29.5290   26.4380   47.1990 C   0  0  0  0  0  0  0  0  0  0  0  0
   28.2390   26.6500   47.6370 C   0  0  0  0  0  0  0  0  0  0  0  0
   27.4370   27.6390   47.0950 C   0  0  0  0  0  0  0  0  0  0  0  0
   27.9850   28.4180   46.0840 C   0  0  0  0  0  0  0  0  0  0  0  0
   30.0630   25.6400   47.6830 H   0  0  0  0  0  0  0  0  0  0  0  0
   27.7520   26.0830   48.4180 H   0  0  0  0  0  0  0  0  0  0  0  0
   26.4340   27.8320   47.4110 H   0  0  0  0  0  0  0  0  0  0  0  0
   27.1560   29.4690   45.4980 C   0  0  0  0  0  0  0  0  0  0  0  0
   26.7190   29.3480   44.5160 H   0  0  0  0  0  0  0  0  0  0  0  0
   26.9310   30.5360   46.1240 O   0  0  0  0  0  0  0  0  0  0  0  0
  1  6  1  1  0  0  0
  1  2  1  0  0  0  0
  2  7  1  1  0  0  0
  3  2  1  0  0  0  0
  4  8  1  0  0  0  0
  4  3  1  0  0  0  0
  5 10  1  6  0  0  0
  5  4  1  0  0  0  0
  5  1  1  0  0  0  0
  9  4  1  0  0  0  0
 11  1  1  0  0  0  0
 11 12  1  0  0  0  0
 13  2  1  0  0  0  0
 13 18  1  0  0  0  0
 14 15  1  0  0  0  0
 14 20  1  0  0  0  0
 15 21  1  0  0  0  0
 16 22  1  0  0  0  0
 16 15  2  0  0  0  0
 17 16  1  0  0  0  0
 18 17  2  0  0  0  0
 18 19  1  0  0  0  0
 19 14  2  0  0  0  0
 23 26  1  0  0  0  0
 23  5  1  0  0  0  0
 24 25  1  0  0  0  0
 25 30  2  0  0  0  0
 25 26  1  0  0  0  0
 26 27  2  0  0  0  0
 27 28  1  0  0  0  0
 27 31  1  0  0  0  0
 28 32  1  0  0  0  0
 29 33  1  0  0  0  0
 29 28  2  0  0  0  0
 30 29  1  0  0  0  0
 34 30  1  0  0  0  0
 34 36  2  0  0  0  0
 35 34  1  0  0  0  0
M  END
>  <minimizedAffinity>
-4.64094782

>  <minimizedRMSD>
0.102152906

$$$$
