
 OpenBabel03272506463D

 36 38  0  0  1  0  0  0  0  0999 V2000
   32.1740   28.5670   47.4290 C   0  0  2  0  0  0  0  0  0  0  0  0
   33.4260   28.3480   48.2270 C   0  0  1  0  0  0  0  0  0  0  0  0
   33.7830   27.0390   48.0990 O   0  0  0  0  0  0  0  0  0  0  0  0
   33.0400   26.4590   47.0770 C   0  0  0  0  0  0  0  0  0  0  0  0
   32.4560   27.5790   46.2540 C   0  0  1  0  0  0  0  0  0  0  0  0
   31.2480   28.2420   47.8930 H   0  0  0  0  0  0  0  0  0  0  0  0
   33.3240   28.6020   49.3000 H   0  0  0  0  0  0  0  0  0  0  0  0
   32.3350   25.7870   47.5450 H   0  0  0  0  0  0  0  0  0  0  0  0
   33.7040   25.8190   46.4410 H   0  0  0  0  0  0  0  0  0  0  0  0
   33.1850   28.0640   45.5990 H   0  0  0  0  0  0  0  0  0  0  0  0
   32.1320   29.8820   46.9190 O   0  0  0  0  0  0  0  0  0  0  0  0
   31.6280   30.3920   47.5950 H   0  0  0  0  0  0  0  0  0  0  0  0
   34.7540   29.3680   47.4600 S   0  0  0  0  0  0  0  0  0  0  0  0
   37.1260   29.3050   50.6380 C   0  0  0  0  0  0  0  0  0  0  0  0
   37.6340   30.6030   50.7280 C   0  0  0  0  0  0  0  0  0  0  0  0
   37.2270   31.5390   49.7640 C   0  0  0  0  0  0  0  0  0  0  0  0
   36.3670   31.1330   48.8030 N   0  0  0  0  0  0  0  0  0  0  0  0
   35.8940   29.8690   48.7450 C   0  0  0  0  0  0  0  0  0  0  0  0
   36.2670   28.9390   49.6610 N   0  0  0  0  0  0  0  0  0  0  0  0
   37.4620   28.6110   51.3980 H   0  0  0  0  0  0  0  0  0  0  0  0
   38.3230   30.8990   51.5120 H   0  0  0  0  0  0  0  0  0  0  0  0
   37.6000   32.5520   49.8020 H   0  0  0  0  0  0  0  0  0  0  0  0
   31.2840   27.1520   45.6780 O   0  0  0  0  0  0  0  0  0  0  0  0
   29.7990   29.3660   44.4320 Cl  0  0  0  0  0  0  0  0  0  0  0  0
   29.2780   28.2830   45.7000 C   0  0  0  0  0  0  0  0  0  0  0  0
   30.0640   27.2690   46.1950 C   0  0  0  0  0  0  0  0  0  0  0  0
   29.5260   26.4480   47.1880 C   0  0  0  0  0  0  0  0  0  0  0  0
   28.2450   26.6550   47.6530 C   0  0  0  0  0  0  0  0  0  0  0  0
   27.4460   27.6730   47.1610 C   0  0  0  0  0  0  0  0  0  0  0  0
   27.9880   28.4850   46.1740 C   0  0  0  0  0  0  0  0  0  0  0  0
   30.0590   25.6260   47.6340 H   0  0  0  0  0  0  0  0  0  0  0  0
   27.7630   26.0630   48.4170 H   0  0  0  0  0  0  0  0  0  0  0  0
   26.4490   27.8630   47.4980 H   0  0  0  0  0  0  0  0  0  0  0  0
   27.1620   29.5670   45.6410 C   0  0  0  0  0  0  0  0  0  0  0  0
   26.6530   29.4600   44.6930 H   0  0  0  0  0  0  0  0  0  0  0  0
   27.0260   30.6440   46.2740 O   0  0  0  0  0  0  0  0  0  0  0  0
  1  6  1  1  0  0  0
  1  2  1  0  0  0  0
  2  7  1  1  0  0  0
  3  2  1  0  0  0  0
  4  8  1  0  0  0  0
  4  3  1  0  0  0  0
  5 10  1  6  0  0  0
  5  4  1  0  0  0  0
  5  1  1  0  0  0  0
  9  4  1  0  0  0  0
 11  1  1  0  0  0  0
 11 12  1  0  0  0  0
 13  2  1  0  0  0  0
 13 18  1  0  0  0  0
 14 15  1  0  0  0  0
 14 20  1  0  0  0  0
 15 21  1  0  0  0  0
 16 22  1  0  0  0  0
 16 15  2  0  0  0  0
 17 16  1  0  0  0  0
 18 17  2  0  0  0  0
 18 19  1  0  0  0  0
 19 14  2  0  0  0  0
 23 26  1  0  0  0  0
 23  5  1  0  0  0  0
 24 25  1  0  0  0  0
 25 30  2  0  0  0  0
 25 26  1  0  0  0  0
 26 27  2  0  0  0  0
 27 31  1  0  0  0  0
 27 28  1  0  0  0  0
 28 32  1  0  0  0  0
 29 33  1  0  0  0  0
 29 28  2  0  0  0  0
 30 29  1  0  0  0  0
 34 30  1  0  0  0  0
 34 36  2  0  0  0  0
 35 34  1  0  0  0  0
M  END
>  <minimizedAffinity>
-4.63984966

>  <minimizedRMSD>
0.31685555

$$$$
