
 OpenBabel03272506463D

 36 38  0  0  1  0  0  0  0  0999 V2000
   32.0040   28.5290   47.4200 C   0  0  2  0  0  0  0  0  0  0  0  0
   33.2420   28.2220   48.2090 C   0  0  1  0  0  0  0  0  0  0  0  0
   33.5040   26.8920   48.0810 O   0  0  0  0  0  0  0  0  0  0  0  0
   32.7160   26.3650   47.0640 C   0  0  0  0  0  0  0  0  0  0  0  0
   32.2070   27.5230   46.2440 C   0  0  1  0  0  0  0  0  0  0  0  0
   31.0600   28.2710   47.8900 H   0  0  0  0  0  0  0  0  0  0  0  0
   33.1660   28.4830   49.2830 H   0  0  0  0  0  0  0  0  0  0  0  0
   31.9680   25.7450   47.5380 H   0  0  0  0  0  0  0  0  0  0  0  0
   33.3280   25.6790   46.4240 H   0  0  0  0  0  0  0  0  0  0  0  0
   32.9640   27.9560   45.5840 H   0  0  0  0  0  0  0  0  0  0  0  0
   32.0510   29.8440   46.9100 O   0  0  0  0  0  0  0  0  0  0  0  0
   31.5900   30.3880   47.5890 H   0  0  0  0  0  0  0  0  0  0  0  0
   34.6340   29.1450   47.4330 S   0  0  0  0  0  0  0  0  0  0  0  0
   36.9580   29.2680   50.6440 C   0  0  0  0  0  0  0  0  0  0  0  0
   37.3690   30.6000   50.7350 C   0  0  0  0  0  0  0  0  0  0  0  0
   36.9080   31.5000   49.7610 C   0  0  0  0  0  0  0  0  0  0  0  0
   36.0940   31.0280   48.7900 N   0  0  0  0  0  0  0  0  0  0  0  0
   35.7150   29.7340   48.7310 C   0  0  0  0  0  0  0  0  0  0  0  0
   36.1420   28.8360   49.6570 N   0  0  0  0  0  0  0  0  0  0  0  0
   37.3330   28.6030   51.4120 H   0  0  0  0  0  0  0  0  0  0  0  0
   38.0230   30.9480   51.5270 H   0  0  0  0  0  0  0  0  0  0  0  0
   37.2050   32.5380   49.8000 H   0  0  0  0  0  0  0  0  0  0  0  0
   31.0030   27.1800   45.6770 O   0  0  0  0  0  0  0  0  0  0  0  0
   29.5770   29.5150   44.5940 Cl  0  0  0  0  0  0  0  0  0  0  0  0
   29.0460   28.3850   45.8160 C   0  0  0  0  0  0  0  0  0  0  0  0
   29.8030   27.3150   46.2340 C   0  0  0  0  0  0  0  0  0  0  0  0
   29.2590   26.4620   47.1950 C   0  0  0  0  0  0  0  0  0  0  0  0
   27.9990   26.6930   47.7060 C   0  0  0  0  0  0  0  0  0  0  0  0
   27.2290   27.7660   47.2930 C   0  0  0  0  0  0  0  0  0  0  0  0
   27.7780   28.6100   46.3360 C   0  0  0  0  0  0  0  0  0  0  0  0
   29.7700   25.5970   47.5800 H   0  0  0  0  0  0  0  0  0  0  0  0
   27.5140   26.0780   48.4510 H   0  0  0  0  0  0  0  0  0  0  0  0
   26.2500   27.9750   47.6670 H   0  0  0  0  0  0  0  0  0  0  0  0
   26.9820   29.7500   45.8860 C   0  0  0  0  0  0  0  0  0  0  0  0
   26.5300   29.7570   44.9030 H   0  0  0  0  0  0  0  0  0  0  0  0
   26.8060   30.7460   46.6320 O   0  0  0  0  0  0  0  0  0  0  0  0
  1  6  1  1  0  0  0
  1  2  1  0  0  0  0
  2  7  1  1  0  0  0
  3  2  1  0  0  0  0
  4  8  1  0  0  0  0
  4  3  1  0  0  0  0
  5 10  1  6  0  0  0
  5  4  1  0  0  0  0
  5  1  1  0  0  0  0
  9  4  1  0  0  0  0
 11  1  1  0  0  0  0
 11 12  1  0  0  0  0
 13  2  1  0  0  0  0
 13 18  1  0  0  0  0
 14 15  1  0  0  0  0
 14 20  1  0  0  0  0
 15 21  1  0  0  0  0
 16 22  1  0  0  0  0
 16 15  2  0  0  0  0
 17 16  1  0  0  0  0
 18 17  2  0  0  0  0
 18 19  1  0  0  0  0
 19 14  2  0  0  0  0
 23 26  1  0  0  0  0
 23  5  1  0  0  0  0
 24 25  1  0  0  0  0
 25 26  2  0  0  0  0
 25 30  1  0  0  0  0
 26 27  1  0  0  0  0
 27 31  1  0  0  0  0
 27 28  2  0  0  0  0
 28 32  1  0  0  0  0
 29 33  1  0  0  0  0
 29 28  1  0  0  0  0
 30 29  2  0  0  0  0
 34 30  1  0  0  0  0
 34 36  2  0  0  0  0
 35 34  1  0  0  0  0
M  END
>  <minimizedAffinity>
-4.67498112

>  <minimizedRMSD>
0.518087983

$$$$
