
 OpenBabel03272506463D

 36 38  0  0  1  0  0  0  0  0999 V2000
   32.1740   28.5690   47.4280 C   0  0  2  0  0  0  0  0  0  0  0  0
   33.4250   28.3500   48.2260 C   0  0  1  0  0  0  0  0  0  0  0  0
   33.7820   27.0410   48.0990 O   0  0  0  0  0  0  0  0  0  0  0  0
   33.0400   26.4600   47.0770 C   0  0  0  0  0  0  0  0  0  0  0  0
   32.4560   27.5810   46.2540 C   0  0  1  0  0  0  0  0  0  0  0  0
   31.2480   28.2450   47.8920 H   0  0  0  0  0  0  0  0  0  0  0  0
   33.3240   28.6040   49.3000 H   0  0  0  0  0  0  0  0  0  0  0  0
   32.3340   25.7890   47.5450 H   0  0  0  0  0  0  0  0  0  0  0  0
   33.7030   25.8200   46.4410 H   0  0  0  0  0  0  0  0  0  0  0  0
   33.1860   28.0660   45.5990 H   0  0  0  0  0  0  0  0  0  0  0  0
   32.1330   29.8840   46.9180 O   0  0  0  0  0  0  0  0  0  0  0  0
   31.6290   30.3940   47.5940 H   0  0  0  0  0  0  0  0  0  0  0  0
   34.7550   29.3690   47.4600 S   0  0  0  0  0  0  0  0  0  0  0  0
   37.1260   29.3050   50.6370 C   0  0  0  0  0  0  0  0  0  0  0  0
   37.6350   30.6030   50.7290 C   0  0  0  0  0  0  0  0  0  0  0  0
   37.2270   31.5390   49.7650 C   0  0  0  0  0  0  0  0  0  0  0  0
   36.3660   31.1330   48.8040 N   0  0  0  0  0  0  0  0  0  0  0  0
   35.8940   29.8700   48.7450 C   0  0  0  0  0  0  0  0  0  0  0  0
   36.2670   28.9390   49.6610 N   0  0  0  0  0  0  0  0  0  0  0  0
   37.4620   28.6110   51.3970 H   0  0  0  0  0  0  0  0  0  0  0  0
   38.3230   30.8980   51.5130 H   0  0  0  0  0  0  0  0  0  0  0  0
   37.6000   32.5520   49.8040 H   0  0  0  0  0  0  0  0  0  0  0  0
   31.2840   27.1540   45.6780 O   0  0  0  0  0  0  0  0  0  0  0  0
   29.7980   29.3690   44.4330 Cl  0  0  0  0  0  0  0  0  0  0  0  0
   29.2780   28.2840   45.7000 C   0  0  0  0  0  0  0  0  0  0  0  0
   30.0650   27.2700   46.1950 C   0  0  0  0  0  0  0  0  0  0  0  0
   29.5270   26.4490   47.1880 C   0  0  0  0  0  0  0  0  0  0  0  0
   28.2460   26.6550   47.6520 C   0  0  0  0  0  0  0  0  0  0  0  0
   27.4460   27.6730   47.1610 C   0  0  0  0  0  0  0  0  0  0  0  0
   27.9880   28.4860   46.1740 C   0  0  0  0  0  0  0  0  0  0  0  0
   30.0600   25.6270   47.6320 H   0  0  0  0  0  0  0  0  0  0  0  0
   27.7640   26.0620   48.4160 H   0  0  0  0  0  0  0  0  0  0  0  0
   26.4490   27.8620   47.4980 H   0  0  0  0  0  0  0  0  0  0  0  0
   27.1610   29.5670   45.6420 C   0  0  0  0  0  0  0  0  0  0  0  0
   26.6510   29.4600   44.6950 H   0  0  0  0  0  0  0  0  0  0  0  0
   27.0260   30.6440   46.2760 O   0  0  0  0  0  0  0  0  0  0  0  0
  1  6  1  1  0  0  0
  1  2  1  0  0  0  0
  2  7  1  1  0  0  0
  3  2  1  0  0  0  0
  4  8  1  0  0  0  0
  4  3  1  0  0  0  0
  5 10  1  6  0  0  0
  5  4  1  0  0  0  0
  5  1  1  0  0  0  0
  9  4  1  0  0  0  0
 11  1  1  0  0  0  0
 11 12  1  0  0  0  0
 13  2  1  0  0  0  0
 13 18  1  0  0  0  0
 14 15  1  0  0  0  0
 14 20  1  0  0  0  0
 15 21  1  0  0  0  0
 16 22  1  0  0  0  0
 16 15  2  0  0  0  0
 17 16  1  0  0  0  0
 18 17  2  0  0  0  0
 18 19  1  0  0  0  0
 19 14  2  0  0  0  0
 23 26  1  0  0  0  0
 23  5  1  0  0  0  0
 24 25  1  0  0  0  0
 25 30  2  0  0  0  0
 25 26  1  0  0  0  0
 26 27  2  0  0  0  0
 27 31  1  0  0  0  0
 27 28  1  0  0  0  0
 28 32  1  0  0  0  0
 29 33  1  0  0  0  0
 29 28  2  0  0  0  0
 30 29  1  0  0  0  0
 34 30  1  0  0  0  0
 34 36  2  0  0  0  0
 35 34  1  0  0  0  0
M  END
>  <minimizedAffinity>
-4.63959932

>  <minimizedRMSD>
0.271790415

$$$$
