
 OpenBabel03272506463D

 36 38  0  0  1  0  0  0  0  0999 V2000
   32.0070   28.4590   47.4540 C   0  0  2  0  0  0  0  0  0  0  0  0
   33.2540   28.2120   48.2500 C   0  0  1  0  0  0  0  0  0  0  0  0
   33.5720   26.8920   48.1360 O   0  0  0  0  0  0  0  0  0  0  0  0
   32.8080   26.3220   47.1240 C   0  0  0  0  0  0  0  0  0  0  0  0
   32.2550   27.4500   46.2900 C   0  0  1  0  0  0  0  0  0  0  0  0
   31.0730   28.1670   47.9250 H   0  0  0  0  0  0  0  0  0  0  0  0
   33.1650   28.4820   49.3200 H   0  0  0  0  0  0  0  0  0  0  0  0
   32.0860   25.6770   47.6020 H   0  0  0  0  0  0  0  0  0  0  0  0
   33.4500   25.6550   46.4930 H   0  0  0  0  0  0  0  0  0  0  0  0
   32.9950   27.9050   45.6270 H   0  0  0  0  0  0  0  0  0  0  0  0
   32.0020   29.7690   46.9290 O   0  0  0  0  0  0  0  0  0  0  0  0
   31.5160   30.3010   47.6010 H   0  0  0  0  0  0  0  0  0  0  0  0
   34.6100   29.1830   47.4670 S   0  0  0  0  0  0  0  0  0  0  0  0
   36.9970   29.2560   50.6320 C   0  0  0  0  0  0  0  0  0  0  0  0
   37.4030   30.5880   50.7420 C   0  0  0  0  0  0  0  0  0  0  0  0
   36.9180   31.5040   49.7950 C   0  0  0  0  0  0  0  0  0  0  0  0
   36.0870   31.0470   48.8310 N   0  0  0  0  0  0  0  0  0  0  0  0
   35.7140   29.7520   48.7540 C   0  0  0  0  0  0  0  0  0  0  0  0
   36.1640   28.8390   49.6540 N   0  0  0  0  0  0  0  0  0  0  0  0
   37.3910   28.5790   51.3790 H   0  0  0  0  0  0  0  0  0  0  0  0
   38.0710   30.9240   51.5270 H   0  0  0  0  0  0  0  0  0  0  0  0
   37.2110   32.5430   49.8470 H   0  0  0  0  0  0  0  0  0  0  0  0
   31.0680   27.0510   45.7230 O   0  0  0  0  0  0  0  0  0  0  0  0
   29.7120   29.3240   44.4360 Cl  0  0  0  0  0  0  0  0  0  0  0  0
   29.1250   28.2860   45.7130 C   0  0  0  0  0  0  0  0  0  0  0  0
   29.8520   27.2390   46.2280 C   0  0  0  0  0  0  0  0  0  0  0  0
   29.2640   26.4600   47.2260 C   0  0  0  0  0  0  0  0  0  0  0  0
   27.9910   26.7400   47.6770 C   0  0  0  0  0  0  0  0  0  0  0  0
   27.2510   27.7930   47.1660 C   0  0  0  0  0  0  0  0  0  0  0  0
   27.8440   28.5620   46.1730 C   0  0  0  0  0  0  0  0  0  0  0  0
   29.7490   25.6180   47.6870 H   0  0  0  0  0  0  0  0  0  0  0  0
   27.4730   26.1840   48.4450 H   0  0  0  0  0  0  0  0  0  0  0  0
   26.2630   28.0390   47.4910 H   0  0  0  0  0  0  0  0  0  0  0  0
   27.0800   29.6790   45.6190 C   0  0  0  0  0  0  0  0  0  0  0  0
   27.1230   30.6600   46.0730 H   0  0  0  0  0  0  0  0  0  0  0  0
   26.3570   29.5220   44.6040 O   0  0  0  0  0  0  0  0  0  0  0  0
  1  6  1  1  0  0  0
  1  2  1  0  0  0  0
  2  7  1  1  0  0  0
  3  2  1  0  0  0  0
  4  8  1  0  0  0  0
  4  3  1  0  0  0  0
  5 10  1  6  0  0  0
  5  4  1  0  0  0  0
  5  1  1  0  0  0  0
  9  4  1  0  0  0  0
 11  1  1  0  0  0  0
 11 12  1  0  0  0  0
 13  2  1  0  0  0  0
 13 18  1  0  0  0  0
 14 15  1  0  0  0  0
 14 20  1  0  0  0  0
 15 21  1  0  0  0  0
 16 22  1  0  0  0  0
 16 15  2  0  0  0  0
 17 16  1  0  0  0  0
 18 17  2  0  0  0  0
 18 19  1  0  0  0  0
 19 14  2  0  0  0  0
 23 26  1  0  0  0  0
 23  5  1  0  0  0  0
 24 25  1  0  0  0  0
 25 30  2  0  0  0  0
 25 26  1  0  0  0  0
 26 27  2  0  0  0  0
 27 28  1  0  0  0  0
 27 31  1  0  0  0  0
 28 32  1  0  0  0  0
 29 33  1  0  0  0  0
 29 28  2  0  0  0  0
 30 29  1  0  0  0  0
 34 35  1  0  0  0  0
 34 30  1  0  0  0  0
 36 34  2  0  0  0  0
M  END
>  <minimizedAffinity>
-4.60526657

>  <minimizedRMSD>
0.363765955

$$$$
