
 OpenBabel03272510103D

 22 23  0  0  0  0  0  0  0  0999 V2000
   37.3630   31.2200   48.4870 C   0  0  0  0  0  0  0  0  0  0  0  0
   38.2770   32.1660   48.9030 C   0  0  0  0  0  0  0  0  0  0  0  0
   39.1170   32.8460   48.0480 C   0  0  0  0  0  0  0  0  0  0  0  0
   39.0600   32.5820   46.6910 C   0  0  0  0  0  0  0  0  0  0  0  0
   38.1410   31.6330   46.2990 C   0  0  0  0  0  0  0  0  0  0  0  0
   37.3390   30.9920   47.1650 N   0  0  0  0  0  0  0  0  0  0  0  0
   38.3550   32.4060   49.9560 H   0  0  0  0  0  0  0  0  0  0  0  0
   39.8370   33.5910   48.3590 H   0  0  0  0  0  0  0  0  0  0  0  0
   37.9740   31.3140   45.2770 H   0  0  0  0  0  0  0  0  0  0  0  0
   36.8680   30.0190   50.6550 C   0  0  0  0  0  0  0  0  0  0  0  0
   36.4900   30.5220   49.4130 C   0  0  0  0  0  0  0  0  0  0  0  0
   35.1640   30.3440   49.0160 C   0  0  0  0  0  0  0  0  0  0  0  0
   34.3290   29.6820   49.8910 N   0  0  0  0  0  0  0  0  0  0  0  0
   34.7400   29.2190   51.0730 C   0  0  0  0  0  0  0  0  0  0  0  0
   36.0110   29.3830   51.4640 N   0  0  0  0  0  0  0  0  0  0  0  0
   37.9310   30.2140   50.8650 H   0  0  0  0  0  0  0  0  0  0  0  0
   34.7310   30.6810   48.0800 H   0  0  0  0  0  0  0  0  0  0  0  0
   34.0240   28.7050   51.7130 H   0  0  0  0  0  0  0  0  0  0  0  0
   39.8380   33.1810   45.7020 O   0  0  0  0  0  0  0  0  0  0  0  0
   40.8330   32.4090   45.0900 C   0  0  0  0  0  0  0  0  0  0  0  0
   41.8010   32.3310   45.5600 H   0  0  0  0  0  0  0  0  0  0  0  0
   40.6450   31.7890   43.9950 O   0  0  0  0  0  0  0  0  0  0  0  0
  1  2  1  0  0  0  0
  1 11  1  0  0  0  0
  2  7  1  0  0  0  0
  3  8  1  0  0  0  0
  3  2  2  0  0  0  0
  4  3  1  0  0  0  0
  5  4  2  0  0  0  0
  5  6  1  0  0  0  0
  6  1  2  0  0  0  0
  9  5  1  0  0  0  0
 10 16  1  0  0  0  0
 10 15  1  0  0  0  0
 11 10  2  0  0  0  0
 12 11  1  0  0  0  0
 12 13  2  0  0  0  0
 13 14  1  0  0  0  0
 14 15  2  0  0  0  0
 14 18  1  0  0  0  0
 17 12  1  0  0  0  0
 19  4  1  0  0  0  0
 20 21  1  0  0  0  0
 20 19  1  0  0  0  0
 22 20  2  0  0  0  0
M  END
>  <minimizedAffinity>
-4.69172955

>  <minimizedRMSD>
1.1601423

$$$$
