
 OpenBabel03272510103D

 22 23  0  0  0  0  0  0  0  0999 V2000
   37.6820   31.2620   48.6230 C   0  0  0  0  0  0  0  0  0  0  0  0
   38.1780   32.5040   48.9600 C   0  0  0  0  0  0  0  0  0  0  0  0
   39.0660   33.2110   48.1770 C   0  0  0  0  0  0  0  0  0  0  0  0
   39.4980   32.6650   46.9820 C   0  0  0  0  0  0  0  0  0  0  0  0
   38.9890   31.4240   46.6670 C   0  0  0  0  0  0  0  0  0  0  0  0
   38.1250   30.7670   47.4580 N   0  0  0  0  0  0  0  0  0  0  0  0
   37.8670   32.9700   49.8860 H   0  0  0  0  0  0  0  0  0  0  0  0
   39.4630   34.1850   48.4270 H   0  0  0  0  0  0  0  0  0  0  0  0
   39.2270   30.8630   45.7700 H   0  0  0  0  0  0  0  0  0  0  0  0
   37.0250   30.0460   50.7390 C   0  0  0  0  0  0  0  0  0  0  0  0
   36.7460   30.5430   49.4680 C   0  0  0  0  0  0  0  0  0  0  0  0
   35.4640   30.3370   48.9570 C   0  0  0  0  0  0  0  0  0  0  0  0
   34.5700   29.6560   49.7550 N   0  0  0  0  0  0  0  0  0  0  0  0
   34.8860   29.1990   50.9690 C   0  0  0  0  0  0  0  0  0  0  0  0
   36.1140   29.3900   51.4700 N   0  0  0  0  0  0  0  0  0  0  0  0
   38.0610   30.2630   51.0420 H   0  0  0  0  0  0  0  0  0  0  0  0
   35.1080   30.6670   47.9860 H   0  0  0  0  0  0  0  0  0  0  0  0
   34.1280   28.6680   51.5430 H   0  0  0  0  0  0  0  0  0  0  0  0
   40.3880   33.2490   46.0830 O   0  0  0  0  0  0  0  0  0  0  0  0
   40.3610   32.8130   44.7530 C   0  0  0  0  0  0  0  0  0  0  0  0
   40.8730   31.9000   44.4900 H   0  0  0  0  0  0  0  0  0  0  0  0
   39.7570   33.4490   43.8320 O   0  0  0  0  0  0  0  0  0  0  0  0
  1  2  1  0  0  0  0
  1 11  1  0  0  0  0
  2  7  1  0  0  0  0
  3  8  1  0  0  0  0
  3  2  2  0  0  0  0
  4  3  1  0  0  0  0
  5  4  2  0  0  0  0
  5  6  1  0  0  0  0
  6  1  2  0  0  0  0
  9  5  1  0  0  0  0
 10 16  1  0  0  0  0
 10 15  1  0  0  0  0
 11 10  2  0  0  0  0
 12 11  1  0  0  0  0
 12 13  2  0  0  0  0
 13 14  1  0  0  0  0
 14 15  2  0  0  0  0
 14 18  1  0  0  0  0
 17 12  1  0  0  0  0
 19  4  1  0  0  0  0
 20 19  1  0  0  0  0
 21 20  1  0  0  0  0
 22 20  2  0  0  0  0
M  END
>  <minimizedAffinity>
-4.77356815

>  <minimizedRMSD>
1.39228582

$$$$
