
 OpenBabel03262521063D

 30 31  0  0  0  0  0  0  0  0999 V2000
   38.0200   23.5070   33.3410 Br  0  0  0  0  0  0  0  0  0  0  0  0
   37.9840   25.1710   34.2180 C   0  0  0  0  0  0  0  0  0  0  0  0
   38.7210   25.2570   35.3540 C   0  0  0  0  0  0  0  0  0  0  0  0
   38.7430   26.4690   36.0640 C   0  0  0  0  0  0  0  0  0  0  0  0
   38.0200   27.5490   35.6000 C   0  0  0  0  0  0  0  0  0  0  0  0
   37.3020   27.3890   34.4510 C   0  0  0  0  0  0  0  0  0  0  0  0
   37.2610   26.2300   33.7410 C   0  0  0  0  0  0  0  0  0  0  0  0
   39.3070   26.6120   36.9770 H   0  0  0  0  0  0  0  0  0  0  0  0
   38.0180   28.5070   36.1320 H   0  0  0  0  0  0  0  0  0  0  0  0
   36.7310   28.2310   34.0790 H   0  0  0  0  0  0  0  0  0  0  0  0
   40.8180   23.8640   35.5690 C   0  0  0  0  0  0  0  0  0  0  0  0
   39.5400   24.2130   35.9800 C   0  0  0  0  0  0  0  0  0  0  0  0
   38.9820   23.5130   37.0830 C   0  0  0  0  0  0  0  0  0  0  0  0
   39.7680   22.5390   37.6540 N   0  0  0  0  0  0  0  0  0  0  0  0
   40.9950   22.2450   37.2160 C   0  0  0  0  0  0  0  0  0  0  0  0
   41.5300   22.9060   36.1690 N   0  0  0  0  0  0  0  0  0  0  0  0
   41.2120   24.4160   34.7280 H   0  0  0  0  0  0  0  0  0  0  0  0
   37.9910   23.7410   37.4490 H   0  0  0  0  0  0  0  0  0  0  0  0
   41.5890   21.4690   37.6910 H   0  0  0  0  0  0  0  0  0  0  0  0
   36.5230   26.0450   32.5470 N   0  0  0  0  0  0  0  0  0  0  0  0
   35.6790   25.4310   32.7340 H   0  0  0  0  0  0  0  0  0  0  0  0
   36.7060   26.5800   30.9540 S   0  0  0  0  0  0  0  0  0  0  0  0
   35.4890   26.2610   30.1340 O   0  0  0  0  0  0  0  0  0  0  0  0
   35.2990   25.3080   29.9350 H   0  0  0  0  0  0  0  0  0  0  0  0
   37.8620   25.8540   30.3010 O   0  0  0  0  0  0  0  0  0  0  0  0
   38.4210   26.3220   29.6030 H   0  0  0  0  0  0  0  0  0  0  0  0
   36.9870   28.2380   30.9470 O   0  0  0  0  0  0  0  0  0  0  0  0
   36.0610   29.1710   31.3170 C   0  0  0  0  0  0  0  0  0  0  0  0
   36.1050   30.2270   31.0860 H   0  0  0  0  0  0  0  0  0  0  0  0
   35.1110   28.6730   31.9820 O   0  0  0  0  0  0  0  0  0  0  0  0
  1  2  1  0  0  0  0
  2  3  1  0  0  0  0
  3 12  1  0  0  0  0
  3  4  2  0  0  0  0
  4  8  1  0  0  0  0
  5  4  1  0  0  0  0
  5  9  1  0  0  0  0
  6  5  2  0  0  0  0
  7  2  2  0  0  0  0
  7  6  1  0  0  0  0
 10  6  1  0  0  0  0
 11 12  2  0  0  0  0
 11 16  1  0  0  0  0
 12 13  1  0  0  0  0
 13 18  1  0  0  0  0
 13 14  2  0  0  0  0
 15 14  1  0  0  0  0
 15 19  1  0  0  0  0
 16 15  2  0  0  0  0
 17 11  1  0  0  0  0
 20 21  1  0  0  0  0
 20  7  1  0  0  0  0
 22 20  1  0  0  0  0
 23 22  1  0  0  0  0
 24 23  1  0  0  0  0
 25 22  1  0  0  0  0
 26 25  1  0  0  0  0
 27 22  1  0  0  0  0
 27 28  1  0  0  0  0
 28 30  2  0  0  0  0
 29 28  1  0  0  0  0
M  END
>  <minimizedAffinity>
-4.85962629

$$$$

 OpenBabel03262521063D

 30 31  0  0  0  0  0  0  0  0999 V2000
   38.1780   27.3900   35.4090 Br  0  0  0  0  0  0  0  0  0  0  0  0
   37.9520   25.8080   34.4170 C   0  0  0  0  0  0  0  0  0  0  0  0
   37.4470   25.9600   33.1660 C   0  0  0  0  0  0  0  0  0  0  0  0
   37.2500   24.8220   32.3660 C   0  0  0  0  0  0  0  0  0  0  0  0
   37.5710   23.5730   32.8580 C   0  0  0  0  0  0  0  0  0  0  0  0
   38.0760   23.4970   34.1240 C   0  0  0  0  0  0  0  0  0  0  0  0
   38.2780   24.5790   34.9230 C   0  0  0  0  0  0  0  0  0  0  0  0
   36.8510   24.8650   31.3610 H   0  0  0  0  0  0  0  0  0  0  0  0
   37.4300   22.6680   32.2570 H   0  0  0  0  0  0  0  0  0  0  0  0
   38.3310   22.5210   34.5180 H   0  0  0  0  0  0  0  0  0  0  0  0
   35.8580   27.8700   32.7120 C   0  0  0  0  0  0  0  0  0  0  0  0
   37.0560   27.2040   32.4970 C   0  0  0  0  0  0  0  0  0  0  0  0
   37.9690   27.7640   31.5640 C   0  0  0  0  0  0  0  0  0  0  0  0
   37.5810   28.9320   30.9480 N   0  0  0  0  0  0  0  0  0  0  0  0
   36.4130   29.5310   31.1950 C   0  0  0  0  0  0  0  0  0  0  0  0
   35.5420   29.0040   32.0790 N   0  0  0  0  0  0  0  0  0  0  0  0
   35.1870   27.4180   33.4270 H   0  0  0  0  0  0  0  0  0  0  0  0
   38.9180   27.2910   31.3540 H   0  0  0  0  0  0  0  0  0  0  0  0
   36.1380   30.4530   30.6910 H   0  0  0  0  0  0  0  0  0  0  0  0
   38.8000   24.5200   36.2380 N   0  0  0  0  0  0  0  0  0  0  0  0
   39.6050   25.2010   36.3390 H   0  0  0  0  0  0  0  0  0  0  0  0
   38.4160   23.6220   37.6170 S   0  0  0  0  0  0  0  0  0  0  0  0
   37.3900   22.5690   37.3070 O   0  0  0  0  0  0  0  0  0  0  0  0
   36.4720   22.8660   37.0790 H   0  0  0  0  0  0  0  0  0  0  0  0
   37.7940   24.5270   38.6590 O   0  0  0  0  0  0  0  0  0  0  0  0
   37.9400   24.3400   39.6400 H   0  0  0  0  0  0  0  0  0  0  0  0
   39.8080   22.9070   38.2300 O   0  0  0  0  0  0  0  0  0  0  0  0
   40.6820   22.1710   37.4820 C   0  0  0  0  0  0  0  0  0  0  0  0
   41.6930   21.9150   37.7660 H   0  0  0  0  0  0  0  0  0  0  0  0
   40.1840   21.8010   36.3820 O   0  0  0  0  0  0  0  0  0  0  0  0
  2  7  1  0  0  0  0
  2  1  1  0  0  0  0
  3  2  2  0  0  0  0
  4  5  2  0  0  0  0
  4  3  1  0  0  0  0
  5  6  1  0  0  0  0
  6 10  1  0  0  0  0
  6  7  2  0  0  0  0
  7 20  1  0  0  0  0
  8  4  1  0  0  0  0
  9  5  1  0  0  0  0
 11 17  1  0  0  0  0
 12 11  1  0  0  0  0
 12  3  1  0  0  0  0
 13 12  2  0  0  0  0
 14 15  2  0  0  0  0
 14 13  1  0  0  0  0
 15 16  1  0  0  0  0
 16 11  2  0  0  0  0
 18 13  1  0  0  0  0
 19 15  1  0  0  0  0
 20 21  1  0  0  0  0
 20 22  1  0  0  0  0
 22 27  1  0  0  0  0
 22 25  1  0  0  0  0
 23 22  1  0  0  0  0
 24 23  1  0  0  0  0
 25 26  1  0  0  0  0
 28 29  1  0  0  0  0
 28 27  1  0  0  0  0
 30 28  2  0  0  0  0
M  END
>  <minimizedAffinity>
-4.84369135

$$$$

 OpenBabel03262521063D

 30 31  0  0  0  0  0  0  0  0999 V2000
   39.0390   23.9160   32.6700 Br  0  0  0  0  0  0  0  0  0  0  0  0
   38.5710   25.3550   33.7890 C   0  0  0  0  0  0  0  0  0  0  0  0
   39.0040   25.2720   35.0720 C   0  0  0  0  0  0  0  0  0  0  0  0
   38.6930   26.3090   35.9670 C   0  0  0  0  0  0  0  0  0  0  0  0
   37.9540   27.3910   35.5320 C   0  0  0  0  0  0  0  0  0  0  0  0
   37.5530   27.4070   34.2290 C   0  0  0  0  0  0  0  0  0  0  0  0
   37.8390   26.4190   33.3380 C   0  0  0  0  0  0  0  0  0  0  0  0
   39.0040   26.3110   37.0040 H   0  0  0  0  0  0  0  0  0  0  0  0
   37.6970   28.2150   36.2070 H   0  0  0  0  0  0  0  0  0  0  0  0
   36.9730   28.2520   33.8790 H   0  0  0  0  0  0  0  0  0  0  0  0
   39.2590   23.1800   36.4660 C   0  0  0  0  0  0  0  0  0  0  0  0
   39.7920   24.2000   35.6910 C   0  0  0  0  0  0  0  0  0  0  0  0
   41.1970   24.2100   35.4790 C   0  0  0  0  0  0  0  0  0  0  0  0
   41.9150   23.1950   36.0690 N   0  0  0  0  0  0  0  0  0  0  0  0
   41.3470   22.2370   36.8070 C   0  0  0  0  0  0  0  0  0  0  0  0
   40.0140   22.2220   37.0110 N   0  0  0  0  0  0  0  0  0  0  0  0
   38.1890   23.2020   36.6060 H   0  0  0  0  0  0  0  0  0  0  0  0
   41.6690   24.9790   34.8850 H   0  0  0  0  0  0  0  0  0  0  0  0
   41.9450   21.4490   37.2580 H   0  0  0  0  0  0  0  0  0  0  0  0
   37.4310   26.4170   31.9820 N   0  0  0  0  0  0  0  0  0  0  0  0
   38.1940   26.0030   31.3750 H   0  0  0  0  0  0  0  0  0  0  0  0
   36.0350   26.9200   31.1730 S   0  0  0  0  0  0  0  0  0  0  0  0
   36.3700   27.4910   29.8230 O   0  0  0  0  0  0  0  0  0  0  0  0
   36.8620   28.3510   29.7920 H   0  0  0  0  0  0  0  0  0  0  0  0
   35.3650   28.0320   31.9510 O   0  0  0  0  0  0  0  0  0  0  0  0
   34.3600   28.1260   31.9310 H   0  0  0  0  0  0  0  0  0  0  0  0
   34.9830   25.6190   31.0020 O   0  0  0  0  0  0  0  0  0  0  0  0
   35.2800   24.3420   31.3840 C   0  0  0  0  0  0  0  0  0  0  0  0
   34.7770   23.7870   32.1650 H   0  0  0  0  0  0  0  0  0  0  0  0
   36.2320   23.8460   30.7200 O   0  0  0  0  0  0  0  0  0  0  0  0
  1  2  1  0  0  0  0
  2  3  1  0  0  0  0
  3 12  1  0  0  0  0
  3  4  2  0  0  0  0
  4  8  1  0  0  0  0
  5  4  1  0  0  0  0
  5  9  1  0  0  0  0
  6  5  2  0  0  0  0
  7  2  2  0  0  0  0
  7  6  1  0  0  0  0
 10  6  1  0  0  0  0
 11 17  1  0  0  0  0
 11 16  1  0  0  0  0
 12 11  2  0  0  0  0
 13 12  1  0  0  0  0
 13 14  2  0  0  0  0
 14 15  1  0  0  0  0
 15 16  2  0  0  0  0
 15 19  1  0  0  0  0
 18 13  1  0  0  0  0
 20  7  1  0  0  0  0
 21 20  1  0  0  0  0
 22 25  1  0  0  0  0
 22 20  1  0  0  0  0
 23 22  1  0  0  0  0
 24 23  1  0  0  0  0
 26 25  1  0  0  0  0
 27 22  1  0  0  0  0
 27 28  1  0  0  0  0
 28 29  1  0  0  0  0
 30 28  2  0  0  0  0
M  END
>  <minimizedAffinity>
-4.80374098

$$$$

 OpenBabel03262521063D

 30 31  0  0  0  0  0  0  0  0999 V2000
   38.8100   25.8330   33.7390 Br  0  0  0  0  0  0  0  0  0  0  0  0
   37.6560   24.6380   32.8550 C   0  0  0  0  0  0  0  0  0  0  0  0
   36.9030   25.1700   31.8590 C   0  0  0  0  0  0  0  0  0  0  0  0
   36.0170   24.3390   31.1540 C   0  0  0  0  0  0  0  0  0  0  0  0
   35.9250   23.0010   31.4810 C   0  0  0  0  0  0  0  0  0  0  0  0
   36.7130   22.5360   32.4930 C   0  0  0  0  0  0  0  0  0  0  0  0
   37.5800   23.3150   33.1940 C   0  0  0  0  0  0  0  0  0  0  0  0
   35.3850   24.6920   30.3490 H   0  0  0  0  0  0  0  0  0  0  0  0
   35.2440   22.3280   30.9480 H   0  0  0  0  0  0  0  0  0  0  0  0
   36.6470   21.4870   32.7560 H   0  0  0  0  0  0  0  0  0  0  0  0
   37.8050   27.1110   30.5170 C   0  0  0  0  0  0  0  0  0  0  0  0
   36.8790   26.5600   31.3900 C   0  0  0  0  0  0  0  0  0  0  0  0
   35.8320   27.3960   31.8640 C   0  0  0  0  0  0  0  0  0  0  0  0
   35.8300   28.6950   31.4100 N   0  0  0  0  0  0  0  0  0  0  0  0
   36.7500   29.1730   30.5680 C   0  0  0  0  0  0  0  0  0  0  0  0
   37.7460   28.3840   30.1150 N   0  0  0  0  0  0  0  0  0  0  0  0
   38.5870   26.4480   30.1770 H   0  0  0  0  0  0  0  0  0  0  0  0
   35.0810   27.0230   32.5450 H   0  0  0  0  0  0  0  0  0  0  0  0
   36.7180   30.2040   30.2290 H   0  0  0  0  0  0  0  0  0  0  0  0
   38.4060   22.8510   34.2460 N   0  0  0  0  0  0  0  0  0  0  0  0
   39.3800   22.6520   33.8820 H   0  0  0  0  0  0  0  0  0  0  0  0
   38.1610   22.5630   35.8940 S   0  0  0  0  0  0  0  0  0  0  0  0
   39.3580   21.8920   36.5080 O   0  0  0  0  0  0  0  0  0  0  0  0
   39.5580   20.9600   36.2360 H   0  0  0  0  0  0  0  0  0  0  0  0
   36.9990   21.6120   36.0800 O   0  0  0  0  0  0  0  0  0  0  0  0
   36.4090   21.6900   36.8950 H   0  0  0  0  0  0  0  0  0  0  0  0
   37.8500   24.0160   36.6800 O   0  0  0  0  0  0  0  0  0  0  0  0
   37.8700   24.1700   38.0370 C   0  0  0  0  0  0  0  0  0  0  0  0
   37.9920   25.1080   38.5610 H   0  0  0  0  0  0  0  0  0  0  0  0
   37.7300   23.0760   38.6510 O   0  0  0  0  0  0  0  0  0  0  0  0
  2  7  1  0  0  0  0
  2  1  1  0  0  0  0
  3  2  2  0  0  0  0
  4  5  2  0  0  0  0
  4  3  1  0  0  0  0
  5  6  1  0  0  0  0
  6 10  1  0  0  0  0
  6  7  2  0  0  0  0
  7 20  1  0  0  0  0
  8  4  1  0  0  0  0
  9  5  1  0  0  0  0
 11 12  1  0  0  0  0
 12  3  1  0  0  0  0
 12 13  2  0  0  0  0
 13 18  1  0  0  0  0
 14 13  1  0  0  0  0
 15 14  2  0  0  0  0
 16 11  2  0  0  0  0
 16 15  1  0  0  0  0
 17 11  1  0  0  0  0
 19 15  1  0  0  0  0
 20 22  1  0  0  0  0
 21 20  1  0  0  0  0
 22 25  1  0  0  0  0
 22 23  1  0  0  0  0
 22 27  1  0  0  0  0
 24 23  1  0  0  0  0
 25 26  1  0  0  0  0
 27 28  1  0  0  0  0
 28 29  1  0  0  0  0
 28 30  2  0  0  0  0
M  END
>  <minimizedAffinity>
-4.7828536

$$$$

 OpenBabel03262521063D

 30 31  0  0  0  0  0  0  0  0999 V2000
   38.3080   23.0250   33.4860 Br  0  0  0  0  0  0  0  0  0  0  0  0
   37.0970   24.0700   32.4960 C   0  0  0  0  0  0  0  0  0  0  0  0
   36.1950   23.3830   31.7500 C   0  0  0  0  0  0  0  0  0  0  0  0
   35.2580   24.0950   30.9830 C   0  0  0  0  0  0  0  0  0  0  0  0
   35.2680   25.4750   30.9980 C   0  0  0  0  0  0  0  0  0  0  0  0
   36.2030   26.0990   31.7710 C   0  0  0  0  0  0  0  0  0  0  0  0
   37.1220   25.4370   32.5240 C   0  0  0  0  0  0  0  0  0  0  0  0
   34.5100   23.6160   30.3650 H   0  0  0  0  0  0  0  0  0  0  0  0
   34.5490   26.0580   30.4100 H   0  0  0  0  0  0  0  0  0  0  0  0
   36.2170   27.1810   31.7890 H   0  0  0  0  0  0  0  0  0  0  0  0
   36.8150   21.1320   30.7830 C   0  0  0  0  0  0  0  0  0  0  0  0
   36.0500   21.9290   31.6230 C   0  0  0  0  0  0  0  0  0  0  0  0
   35.0570   21.2950   32.4170 C   0  0  0  0  0  0  0  0  0  0  0  0
   34.9390   19.9300   32.2810 N   0  0  0  0  0  0  0  0  0  0  0  0
   35.7050   19.2130   31.4550 C   0  0  0  0  0  0  0  0  0  0  0  0
   36.6500   19.8090   30.6990 N   0  0  0  0  0  0  0  0  0  0  0  0
   37.5610   21.6460   30.1940 H   0  0  0  0  0  0  0  0  0  0  0  0
   34.4300   21.8620   33.0900 H   0  0  0  0  0  0  0  0  0  0  0  0
   35.5860   18.1370   31.3730 H   0  0  0  0  0  0  0  0  0  0  0  0
   38.1000   26.0660   33.3330 N   0  0  0  0  0  0  0  0  0  0  0  0
   39.0030   26.1760   32.7890 H   0  0  0  0  0  0  0  0  0  0  0  0
   38.1180   26.6490   34.9190 S   0  0  0  0  0  0  0  0  0  0  0  0
   37.5400   25.6410   35.8710 O   0  0  0  0  0  0  0  0  0  0  0  0
   36.5700   25.4470   35.8100 H   0  0  0  0  0  0  0  0  0  0  0  0
   37.2440   27.8810   35.0210 O   0  0  0  0  0  0  0  0  0  0  0  0
   37.4820   28.6140   35.6720 H   0  0  0  0  0  0  0  0  0  0  0  0
   39.6960   27.0220   35.3640 O   0  0  0  0  0  0  0  0  0  0  0  0
   40.7990   26.6540   34.6470 C   0  0  0  0  0  0  0  0  0  0  0  0
   41.4700   25.8440   34.8980 H   0  0  0  0  0  0  0  0  0  0  0  0
   40.9740   27.3740   33.6250 O   0  0  0  0  0  0  0  0  0  0  0  0
  2  7  1  0  0  0  0
  2  1  1  0  0  0  0
  3  2  2  0  0  0  0
  4  5  2  0  0  0  0
  4  3  1  0  0  0  0
  5  6  1  0  0  0  0
  6 10  1  0  0  0  0
  6  7  2  0  0  0  0
  7 20  1  0  0  0  0
  8  4  1  0  0  0  0
  9  5  1  0  0  0  0
 11 12  1  0  0  0  0
 12  3  1  0  0  0  0
 12 13  2  0  0  0  0
 13 18  1  0  0  0  0
 14 13  1  0  0  0  0
 15 14  2  0  0  0  0
 16 11  2  0  0  0  0
 16 15  1  0  0  0  0
 17 11  1  0  0  0  0
 19 15  1  0  0  0  0
 20 22  1  0  0  0  0
 21 20  1  0  0  0  0
 22 25  1  0  0  0  0
 22 27  1  0  0  0  0
 22 23  1  0  0  0  0
 24 23  1  0  0  0  0
 25 26  1  0  0  0  0
 28 29  1  0  0  0  0
 28 27  1  0  0  0  0
 30 28  2  0  0  0  0
M  END
>  <minimizedAffinity>
-4.5897994

$$$$

 OpenBabel03262521063D

 30 31  0  0  0  0  0  0  0  0999 V2000
   34.8600   31.0710   31.7960 Br  0  0  0  0  0  0  0  0  0  0  0  0
   35.7890   29.5650   32.4350 C   0  0  0  0  0  0  0  0  0  0  0  0
   35.7600   29.3770   33.7790 C   0  0  0  0  0  0  0  0  0  0  0  0
   36.4330   28.2730   34.3290 C   0  0  0  0  0  0  0  0  0  0  0  0
   37.1090   27.4000   33.5020 C   0  0  0  0  0  0  0  0  0  0  0  0
   37.0950   27.6510   32.1620 C   0  0  0  0  0  0  0  0  0  0  0  0
   36.4530   28.7100   31.5980 C   0  0  0  0  0  0  0  0  0  0  0  0
   36.4540   28.0600   35.3910 H   0  0  0  0  0  0  0  0  0  0  0  0
   37.6420   26.5300   33.9030 H   0  0  0  0  0  0  0  0  0  0  0  0
   37.6230   26.9710   31.5050 H   0  0  0  0  0  0  0  0  0  0  0  0
   33.7320   30.1810   35.0540 C   0  0  0  0  0  0  0  0  0  0  0  0
   35.0940   30.2040   34.7910 C   0  0  0  0  0  0  0  0  0  0  0  0
   35.9030   31.0890   35.5530 C   0  0  0  0  0  0  0  0  0  0  0  0
   35.2570   31.8540   36.4970 N   0  0  0  0  0  0  0  0  0  0  0  0
   33.9400   31.7900   36.7070 C   0  0  0  0  0  0  0  0  0  0  0  0
   33.1670   30.9520   35.9860 N   0  0  0  0  0  0  0  0  0  0  0  0
   33.1470   29.4970   34.4560 H   0  0  0  0  0  0  0  0  0  0  0  0
   36.9710   31.1510   35.3950 H   0  0  0  0  0  0  0  0  0  0  0  0
   33.4610   32.4080   37.4610 H   0  0  0  0  0  0  0  0  0  0  0  0
   36.4270   28.9870   30.2100 N   0  0  0  0  0  0  0  0  0  0  0  0
   35.4270   29.0010   29.8620 H   0  0  0  0  0  0  0  0  0  0  0  0
   37.6170   29.2880   29.0470 S   0  0  0  0  0  0  0  0  0  0  0  0
   37.6740   28.1790   28.0350 O   0  0  0  0  0  0  0  0  0  0  0  0
   37.9990   27.2920   28.3350 H   0  0  0  0  0  0  0  0  0  0  0  0
   38.9780   29.3310   29.7080 O   0  0  0  0  0  0  0  0  0  0  0  0
   39.6970   29.9360   29.3390 H   0  0  0  0  0  0  0  0  0  0  0  0
   37.2990   30.7510   28.2810 O   0  0  0  0  0  0  0  0  0  0  0  0
   37.5420   31.9730   28.8390 C   0  0  0  0  0  0  0  0  0  0  0  0
   37.5100   32.9200   28.3170 H   0  0  0  0  0  0  0  0  0  0  0  0
   37.8200   31.8980   30.0680 O   0  0  0  0  0  0  0  0  0  0  0  0
  1  2  1  0  0  0  0
  2  3  1  0  0  0  0
  3  4  2  0  0  0  0
  3 12  1  0  0  0  0
  4  8  1  0  0  0  0
  5  9  1  0  0  0  0
  5  4  1  0  0  0  0
  6  5  2  0  0  0  0
  7  6  1  0  0  0  0
  7  2  2  0  0  0  0
 10  6  1  0  0  0  0
 11 16  1  0  0  0  0
 12 11  2  0  0  0  0
 12 13  1  0  0  0  0
 13 14  2  0  0  0  0
 14 15  1  0  0  0  0
 15 19  1  0  0  0  0
 16 15  2  0  0  0  0
 17 11  1  0  0  0  0
 18 13  1  0  0  0  0
 20  7  1  0  0  0  0
 21 20  1  0  0  0  0
 22 25  1  0  0  0  0
 22 20  1  0  0  0  0
 23 24  1  0  0  0  0
 23 22  1  0  0  0  0
 26 25  1  0  0  0  0
 27 28  1  0  0  0  0
 27 22  1  0  0  0  0
 28 30  2  0  0  0  0
 29 28  1  0  0  0  0
M  END
>  <minimizedAffinity>
-4.53885984

$$$$

 OpenBabel03262521063D

 30 31  0  0  0  0  0  0  0  0999 V2000
   38.6500   26.6790   33.4690 Br  0  0  0  0  0  0  0  0  0  0  0  0
   37.4980   25.4110   32.6880 C   0  0  0  0  0  0  0  0  0  0  0  0
   36.5660   25.9050   31.8340 C   0  0  0  0  0  0  0  0  0  0  0  0
   35.6710   25.0180   31.2130 C   0  0  0  0  0  0  0  0  0  0  0  0
   35.7510   23.6660   31.4780 C   0  0  0  0  0  0  0  0  0  0  0  0
   36.7130   23.2420   32.3460 C   0  0  0  0  0  0  0  0  0  0  0  0
   37.5940   24.0750   32.9630 C   0  0  0  0  0  0  0  0  0  0  0  0
   34.9020   25.3390   30.5220 H   0  0  0  0  0  0  0  0  0  0  0  0
   35.0660   22.9510   31.0080 H   0  0  0  0  0  0  0  0  0  0  0  0
   36.7830   22.1820   32.5600 H   0  0  0  0  0  0  0  0  0  0  0  0
   36.9480   27.9210   30.3600 C   0  0  0  0  0  0  0  0  0  0  0  0
   36.3480   27.3030   31.4470 C   0  0  0  0  0  0  0  0  0  0  0  0
   35.4580   28.0740   32.2430 C   0  0  0  0  0  0  0  0  0  0  0  0
   35.2680   29.3820   31.8600 N   0  0  0  0  0  0  0  0  0  0  0  0
   35.8740   29.9260   30.8010 C   0  0  0  0  0  0  0  0  0  0  0  0
   36.7200   29.1990   30.0430 N   0  0  0  0  0  0  0  0  0  0  0  0
   37.6180   27.3060   29.7770 H   0  0  0  0  0  0  0  0  0  0  0  0
   34.9600   27.6470   33.1010 H   0  0  0  0  0  0  0  0  0  0  0  0
   35.7010   30.9620   30.5280 H   0  0  0  0  0  0  0  0  0  0  0  0
   38.5990   23.6540   33.8670 N   0  0  0  0  0  0  0  0  0  0  0  0
   39.5070   23.4870   33.3470 H   0  0  0  0  0  0  0  0  0  0  0  0
   38.6410   23.3750   35.5340 S   0  0  0  0  0  0  0  0  0  0  0  0
   38.1760   21.9840   35.8600 O   0  0  0  0  0  0  0  0  0  0  0  0
   37.2200   21.7670   35.7110 H   0  0  0  0  0  0  0  0  0  0  0  0
   37.6870   24.3180   36.2340 O   0  0  0  0  0  0  0  0  0  0  0  0
   37.8980   24.6500   37.1630 H   0  0  0  0  0  0  0  0  0  0  0  0
   40.2060   23.6070   36.1050 O   0  0  0  0  0  0  0  0  0  0  0  0
   40.9390   22.6430   36.7360 C   0  0  0  0  0  0  0  0  0  0  0  0
   41.8640   22.2180   36.3720 H   0  0  0  0  0  0  0  0  0  0  0  0
   40.4200   22.2760   37.8260 O   0  0  0  0  0  0  0  0  0  0  0  0
  2  7  1  0  0  0  0
  2  1  1  0  0  0  0
  3  2  2  0  0  0  0
  4  5  2  0  0  0  0
  4  3  1  0  0  0  0
  5  6  1  0  0  0  0
  6 10  1  0  0  0  0
  6  7  2  0  0  0  0
  7 20  1  0  0  0  0
  8  4  1  0  0  0  0
  9  5  1  0  0  0  0
 11 12  1  0  0  0  0
 12  3  1  0  0  0  0
 12 13  2  0  0  0  0
 13 18  1  0  0  0  0
 14 13  1  0  0  0  0
 15 14  2  0  0  0  0
 16 11  2  0  0  0  0
 16 15  1  0  0  0  0
 17 11  1  0  0  0  0
 19 15  1  0  0  0  0
 20 22  1  0  0  0  0
 21 20  1  0  0  0  0
 22 23  1  0  0  0  0
 22 27  1  0  0  0  0
 22 25  1  0  0  0  0
 24 23  1  0  0  0  0
 25 26  1  0  0  0  0
 27 28  1  0  0  0  0
 28 30  2  0  0  0  0
 29 28  1  0  0  0  0
M  END
>  <minimizedAffinity>
-4.53011894

$$$$

 OpenBabel03262521063D

 30 31  0  0  0  0  0  0  0  0999 V2000
   38.3490   26.8000   35.2430 Br  0  0  0  0  0  0  0  0  0  0  0  0
   37.8450   25.4650   34.0160 C   0  0  0  0  0  0  0  0  0  0  0  0
   38.1490   24.1910   34.3700 C   0  0  0  0  0  0  0  0  0  0  0  0
   37.8030   23.1400   33.5040 C   0  0  0  0  0  0  0  0  0  0  0  0
   37.1660   23.4160   32.3120 C   0  0  0  0  0  0  0  0  0  0  0  0
   36.8920   24.7210   32.0220 C   0  0  0  0  0  0  0  0  0  0  0  0
   37.2120   25.7590   32.8400 C   0  0  0  0  0  0  0  0  0  0  0  0
   38.0140   22.1000   33.7190 H   0  0  0  0  0  0  0  0  0  0  0  0
   36.8840   22.6180   31.6160 H   0  0  0  0  0  0  0  0  0  0  0  0
   36.3910   24.9470   31.0880 H   0  0  0  0  0  0  0  0  0  0  0  0
   40.1710   23.4270   35.6790 C   0  0  0  0  0  0  0  0  0  0  0  0
   38.8190   23.7290   35.5900 C   0  0  0  0  0  0  0  0  0  0  0  0
   38.0270   23.5810   36.7600 C   0  0  0  0  0  0  0  0  0  0  0  0
   38.6780   23.1460   37.8930 N   0  0  0  0  0  0  0  0  0  0  0  0
   39.9850   22.8710   37.9200 C   0  0  0  0  0  0  0  0  0  0  0  0
   40.7420   23.0100   36.8120 N   0  0  0  0  0  0  0  0  0  0  0  0
   40.7430   23.5510   34.7710 H   0  0  0  0  0  0  0  0  0  0  0  0
   36.9690   23.8000   36.7530 H   0  0  0  0  0  0  0  0  0  0  0  0
   40.4670   22.5300   38.8320 H   0  0  0  0  0  0  0  0  0  0  0  0
   36.9370   27.1190   32.5570 N   0  0  0  0  0  0  0  0  0  0  0  0
   36.5480   27.5970   33.4180 H   0  0  0  0  0  0  0  0  0  0  0  0
   37.0970   28.0910   31.1830 S   0  0  0  0  0  0  0  0  0  0  0  0
   36.2740   27.5560   30.0450 O   0  0  0  0  0  0  0  0  0  0  0  0
   36.5500   26.6970   29.6350 H   0  0  0  0  0  0  0  0  0  0  0  0
   38.5350   28.0770   30.7110 O   0  0  0  0  0  0  0  0  0  0  0  0
   38.9270   28.8950   30.2680 H   0  0  0  0  0  0  0  0  0  0  0  0
   36.6220   29.6630   31.5460 O   0  0  0  0  0  0  0  0  0  0  0  0
   35.3470   30.0180   31.8810 C   0  0  0  0  0  0  0  0  0  0  0  0
   34.9340   31.0140   31.8130 H   0  0  0  0  0  0  0  0  0  0  0  0
   34.6650   29.0390   32.2960 O   0  0  0  0  0  0  0  0  0  0  0  0
  2  3  1  0  0  0  0
  2  1  1  0  0  0  0
  3 12  1  0  0  0  0
  4  8  1  0  0  0  0
  4  3  2  0  0  0  0
  5  4  1  0  0  0  0
  6  5  2  0  0  0  0
  6  7  1  0  0  0  0
  7  2  2  0  0  0  0
  9  5  1  0  0  0  0
 10  6  1  0  0  0  0
 11 16  1  0  0  0  0
 12 11  2  0  0  0  0
 12 13  1  0  0  0  0
 13 14  2  0  0  0  0
 14 15  1  0  0  0  0
 15 19  1  0  0  0  0
 16 15  2  0  0  0  0
 17 11  1  0  0  0  0
 18 13  1  0  0  0  0
 20  7  1  0  0  0  0
 20 21  1  0  0  0  0
 22 27  1  0  0  0  0
 22 20  1  0  0  0  0
 23 22  1  0  0  0  0
 24 23  1  0  0  0  0
 25 22  1  0  0  0  0
 26 25  1  0  0  0  0
 27 28  1  0  0  0  0
 28 30  2  0  0  0  0
 29 28  1  0  0  0  0
M  END
>  <minimizedAffinity>
-4.52730942

$$$$

 OpenBabel03262521063D

 30 31  0  0  0  0  0  0  0  0999 V2000
   38.6070   21.9000   33.7930 Br  0  0  0  0  0  0  0  0  0  0  0  0
   37.4000   22.9630   32.8170 C   0  0  0  0  0  0  0  0  0  0  0  0
   36.4280   22.2930   32.1470 C   0  0  0  0  0  0  0  0  0  0  0  0
   35.4900   23.0210   31.3960 C   0  0  0  0  0  0  0  0  0  0  0  0
   35.5690   24.3980   31.3480 C   0  0  0  0  0  0  0  0  0  0  0  0
   36.5720   25.0030   32.0460 C   0  0  0  0  0  0  0  0  0  0  0  0
   37.4950   24.3280   32.7830 C   0  0  0  0  0  0  0  0  0  0  0  0
   34.6880   22.5550   30.8370 H   0  0  0  0  0  0  0  0  0  0  0  0
   34.8510   24.9920   30.7710 H   0  0  0  0  0  0  0  0  0  0  0  0
   36.6420   26.0840   32.0140 H   0  0  0  0  0  0  0  0  0  0  0  0
   35.5530   20.1120   33.0740 C   0  0  0  0  0  0  0  0  0  0  0  0
   36.2050   20.8450   32.0930 C   0  0  0  0  0  0  0  0  0  0  0  0
   36.6900   20.1470   30.9540 C   0  0  0  0  0  0  0  0  0  0  0  0
   36.4690   18.7890   30.9250 N   0  0  0  0  0  0  0  0  0  0  0  0
   35.8340   18.1340   31.9000 C   0  0  0  0  0  0  0  0  0  0  0  0
   35.3710   18.7910   32.9830 N   0  0  0  0  0  0  0  0  0  0  0  0
   35.1970   20.6730   33.9250 H   0  0  0  0  0  0  0  0  0  0  0  0
   37.2060   20.6630   30.1570 H   0  0  0  0  0  0  0  0  0  0  0  0
   35.6760   17.0610   31.8450 H   0  0  0  0  0  0  0  0  0  0  0  0
   38.5430   24.9380   33.5130 N   0  0  0  0  0  0  0  0  0  0  0  0
   39.4390   24.9170   32.9480 H   0  0  0  0  0  0  0  0  0  0  0  0
   38.6500   25.6610   35.0370 S   0  0  0  0  0  0  0  0  0  0  0  0
   37.3170   26.2030   35.4720 O   0  0  0  0  0  0  0  0  0  0  0  0
   36.9480   26.9790   34.9800 H   0  0  0  0  0  0  0  0  0  0  0  0
   39.5910   26.8450   34.9770 O   0  0  0  0  0  0  0  0  0  0  0  0
   40.1460   27.0890   35.7840 H   0  0  0  0  0  0  0  0  0  0  0  0
   39.2070   24.5360   36.1570 O   0  0  0  0  0  0  0  0  0  0  0  0
   38.4450   24.0230   37.1670 C   0  0  0  0  0  0  0  0  0  0  0  0
   38.7430   23.9490   38.2040 H   0  0  0  0  0  0  0  0  0  0  0  0
   37.3160   23.6230   36.7670 O   0  0  0  0  0  0  0  0  0  0  0  0
  2  1  1  0  0  0  0
  3  2  2  0  0  0  0
  4  3  1  0  0  0  0
  5  4  2  0  0  0  0
  5  6  1  0  0  0  0
  6  7  2  0  0  0  0
  7  2  1  0  0  0  0
  7 20  1  0  0  0  0
  8  4  1  0  0  0  0
  9  5  1  0  0  0  0
 10  6  1  0  0  0  0
 11 17  1  0  0  0  0
 12  3  1  0  0  0  0
 12 11  2  0  0  0  0
 13 12  1  0  0  0  0
 14 13  2  0  0  0  0
 14 15  1  0  0  0  0
 15 16  2  0  0  0  0
 16 11  1  0  0  0  0
 18 13  1  0  0  0  0
 19 15  1  0  0  0  0
 20 22  1  0  0  0  0
 21 20  1  0  0  0  0
 22 23  1  0  0  0  0
 22 27  1  0  0  0  0
 24 23  1  0  0  0  0
 25 22  1  0  0  0  0
 25 26  1  0  0  0  0
 27 28  1  0  0  0  0
 28 29  1  0  0  0  0
 30 28  2  0  0  0  0
M  END
>  <minimizedAffinity>
-4.48349142

$$$$
