
 OpenBabel03272510103D

 22 23  0  0  0  0  0  0  0  0999 V2000
   37.6050   31.0720   48.0790 C   0  0  0  0  0  0  0  0  0  0  0  0
   38.6590   31.9610   48.0540 C   0  0  0  0  0  0  0  0  0  0  0  0
   39.1480   32.5350   46.8990 C   0  0  0  0  0  0  0  0  0  0  0  0
   38.5660   32.2160   45.6860 C   0  0  0  0  0  0  0  0  0  0  0  0
   37.5160   31.3250   45.7360 C   0  0  0  0  0  0  0  0  0  0  0  0
   37.0680   30.7880   46.8830 N   0  0  0  0  0  0  0  0  0  0  0  0
   39.1440   32.2410   48.9800 H   0  0  0  0  0  0  0  0  0  0  0  0
   39.9730   33.2340   46.8640 H   0  0  0  0  0  0  0  0  0  0  0  0
   36.9560   30.9750   44.8770 H   0  0  0  0  0  0  0  0  0  0  0  0
   37.7010   30.6280   50.5650 C   0  0  0  0  0  0  0  0  0  0  0  0
   37.1110   30.4860   49.3120 C   0  0  0  0  0  0  0  0  0  0  0  0
   35.9480   29.7190   49.2240 C   0  0  0  0  0  0  0  0  0  0  0  0
   35.4740   29.1600   50.3910 N   0  0  0  0  0  0  0  0  0  0  0  0
   36.0770   29.3260   51.5710 C   0  0  0  0  0  0  0  0  0  0  0  0
   37.1930   30.0600   51.6670 N   0  0  0  0  0  0  0  0  0  0  0  0
   38.6080   31.2500   50.5190 H   0  0  0  0  0  0  0  0  0  0  0  0
   35.3850   29.5240   48.3180 H   0  0  0  0  0  0  0  0  0  0  0  0
   35.6440   28.8540   52.4520 H   0  0  0  0  0  0  0  0  0  0  0  0
   38.9420   32.7070   44.4370 O   0  0  0  0  0  0  0  0  0  0  0  0
   40.1520   33.4050   44.3420 C   0  0  0  0  0  0  0  0  0  0  0  0
   41.0740   32.8490   44.2640 H   0  0  0  0  0  0  0  0  0  0  0  0
   40.2150   34.6750   44.3410 O   0  0  0  0  0  0  0  0  0  0  0  0
  1 11  1  0  0  0  0
  2  1  1  0  0  0  0
  2  7  1  0  0  0  0
  3  2  2  0  0  0  0
  4  5  2  0  0  0  0
  4  3  1  0  0  0  0
  5  6  1  0  0  0  0
  6  1  2  0  0  0  0
  8  3  1  0  0  0  0
  9  5  1  0  0  0  0
 10 15  1  0  0  0  0
 11 10  2  0  0  0  0
 12 11  1  0  0  0  0
 12 13  2  0  0  0  0
 13 14  1  0  0  0  0
 14 15  2  0  0  0  0
 14 18  1  0  0  0  0
 16 10  1  0  0  0  0
 17 12  1  0  0  0  0
 19  4  1  0  0  0  0
 20 19  1  0  0  0  0
 21 20  1  0  0  0  0
 22 20  2  0  0  0  0
M  END
>  <minimizedAffinity>
-4.47832298

>  <minimizedRMSD>
1.96734071

$$$$
