
 OpenBabel03262520103D

 30 31  0  0  0  0  0  0  0  0999 V2000
   37.8740   31.8850   48.8730 Br  0  0  0  0  0  0  0  0  0  0  0  0
   36.7310   31.0030   47.6000 C   0  0  0  0  0  0  0  0  0  0  0  0
   37.1300   30.8950   46.2860 C   0  0  0  0  0  0  0  0  0  0  0  0
   36.2770   30.2600   45.4230 C   0  0  0  0  0  0  0  0  0  0  0  0
   35.0550   29.7360   45.8220 C   0  0  0  0  0  0  0  0  0  0  0  0
   34.7060   29.8740   47.1510 C   0  0  0  0  0  0  0  0  0  0  0  0
   35.5490   30.5100   48.0380 C   0  0  0  0  0  0  0  0  0  0  0  0
   36.6110   30.1850   44.3930 H   0  0  0  0  0  0  0  0  0  0  0  0
   34.4730   29.2620   45.0620 H   0  0  0  0  0  0  0  0  0  0  0  0
   33.7390   29.4330   47.3420 H   0  0  0  0  0  0  0  0  0  0  0  0
   39.5640   33.1720   44.7990 C   0  0  0  0  0  0  0  0  0  0  0  0
   40.7970   32.4970   44.9360 C   0  0  0  0  0  0  0  0  0  0  0  0
   40.7650   31.2630   45.5420 C   0  0  0  0  0  0  0  0  0  0  0  0
   39.5730   30.7420   45.9800 N   0  0  0  0  0  0  0  0  0  0  0  0
   38.4100   31.4320   45.8250 C   0  0  0  0  0  0  0  0  0  0  0  0
   38.4250   32.6390   45.2350 N   0  0  0  0  0  0  0  0  0  0  0  0
   39.4710   34.1540   44.3350 H   0  0  0  0  0  0  0  0  0  0  0  0
   41.6730   32.9950   44.5570 H   0  0  0  0  0  0  0  0  0  0  0  0
   41.6890   30.7370   45.6540 H   0  0  0  0  0  0  0  0  0  0  0  0
   35.0520   30.5870   49.4380 C   0  0  0  0  0  0  0  0  0  0  0  0
   34.0880   31.1680   49.4100 H   0  0  0  0  0  0  0  0  0  0  0  0
   35.7240   31.2240   50.0480 H   0  0  0  0  0  0  0  0  0  0  0  0
   34.9120   29.2650   50.1030 C   0  0  0  0  0  0  0  0  0  0  0  0
   33.8380   29.2410   50.4810 H   0  0  0  0  0  0  0  0  0  0  0  0
   35.0040   28.3770   49.4950 H   0  0  0  0  0  0  0  0  0  0  0  0
   35.7070   29.2290   51.3140 N   0  0  0  0  0  0  0  0  0  0  0  0
   35.3650   28.7640   52.1850 H   0  0  0  0  0  0  0  0  0  0  0  0
   36.9970   29.8030   51.4520 C   0  0  0  0  0  0  0  0  0  0  0  0
   37.5040   30.3260   50.6520 H   0  0  0  0  0  0  0  0  0  0  0  0
   37.6550   29.7550   52.5070 O   0  0  0  0  0  0  0  0  0  0  0  0
  2  7  1  0  0  0  0
  2  1  1  0  0  0  0
  3  2  2  0  0  0  0
  4  5  2  0  0  0  0
  4  3  1  0  0  0  0
  5  6  1  0  0  0  0
  6 10  1  0  0  0  0
  6  7  2  0  0  0  0
  7 20  1  0  0  0  0
  8  4  1  0  0  0  0
  9  5  1  0  0  0  0
 11 12  2  0  0  0  0
 11 16  1  0  0  0  0
 12 13  1  0  0  0  0
 13 19  1  0  0  0  0
 13 14  2  0  0  0  0
 15 14  1  0  0  0  0
 15  3  1  0  0  0  0
 16 15  2  0  0  0  0
 17 11  1  0  0  0  0
 18 12  1  0  0  0  0
 20 22  1  0  0  0  0
 20 23  1  0  0  0  0
 21 20  1  0  0  0  0
 23 24  1  0  0  0  0
 23 26  1  0  0  0  0
 25 23  1  0  0  0  0
 26 28  1  0  0  0  0
 26 27  1  0  0  0  0
 28 30  2  0  0  0  0
 29 28  1  0  0  0  0
M  END
>  <minimizedAffinity>
-5.56314325

>  <minimizedRMSD>
1.04295599

$$$$
