
 OpenBabel03272510103D

 22 23  0  0  0  0  0  0  0  0999 V2000
   37.4930   31.1640   48.1580 C   0  0  0  0  0  0  0  0  0  0  0  0
   38.5490   32.0260   48.3700 C   0  0  0  0  0  0  0  0  0  0  0  0
   39.2410   32.6520   47.3550 C   0  0  0  0  0  0  0  0  0  0  0  0
   38.8760   32.4180   46.0420 C   0  0  0  0  0  0  0  0  0  0  0  0
   37.8190   31.5540   45.8540 C   0  0  0  0  0  0  0  0  0  0  0  0
   37.1700   30.9630   46.8710 N   0  0  0  0  0  0  0  0  0  0  0  0
   38.8690   32.2390   49.3820 H   0  0  0  0  0  0  0  0  0  0  0  0
   40.0710   33.3300   47.5060 H   0  0  0  0  0  0  0  0  0  0  0  0
   37.4130   31.2680   44.8910 H   0  0  0  0  0  0  0  0  0  0  0  0
   37.3460   30.1330   50.4600 C   0  0  0  0  0  0  0  0  0  0  0  0
   36.7820   30.5220   49.2480 C   0  0  0  0  0  0  0  0  0  0  0  0
   35.4210   30.2770   49.0550 C   0  0  0  0  0  0  0  0  0  0  0  0
   34.7400   29.6680   50.0880 N   0  0  0  0  0  0  0  0  0  0  0  0
   35.3270   29.3150   51.2330 C   0  0  0  0  0  0  0  0  0  0  0  0
   36.6320   29.5430   51.4290 N   0  0  0  0  0  0  0  0  0  0  0  0
   38.4200   30.3720   50.5040 H   0  0  0  0  0  0  0  0  0  0  0  0
   34.8520   30.5250   48.1660 H   0  0  0  0  0  0  0  0  0  0  0  0
   34.7250   28.8360   52.0050 H   0  0  0  0  0  0  0  0  0  0  0  0
   39.4720   32.9700   44.9100 O   0  0  0  0  0  0  0  0  0  0  0  0
   40.2550   32.1340   44.1050 C   0  0  0  0  0  0  0  0  0  0  0  0
   41.1020   31.6260   44.5410 H   0  0  0  0  0  0  0  0  0  0  0  0
   40.0110   31.9440   42.8710 O   0  0  0  0  0  0  0  0  0  0  0  0
  1  2  1  0  0  0  0
  1 11  1  0  0  0  0
  2  7  1  0  0  0  0
  3  8  1  0  0  0  0
  3  2  2  0  0  0  0
  4  3  1  0  0  0  0
  5  4  2  0  0  0  0
  5  6  1  0  0  0  0
  6  1  2  0  0  0  0
  9  5  1  0  0  0  0
 10 16  1  0  0  0  0
 10 15  1  0  0  0  0
 11 10  2  0  0  0  0
 12 11  1  0  0  0  0
 12 13  2  0  0  0  0
 13 14  1  0  0  0  0
 14 15  2  0  0  0  0
 14 18  1  0  0  0  0
 17 12  1  0  0  0  0
 19  4  1  0  0  0  0
 20 21  1  0  0  0  0
 20 19  1  0  0  0  0
 22 20  2  0  0  0  0
M  END
>  <minimizedAffinity>
-4.63499737

>  <minimizedRMSD>
1.78299034

$$$$
