
 OpenBabel03262521073D

 36 37  0  0  1  0  0  0  0  0999 V2000
   38.3870   26.2170   34.1650 C   0  0  2  0  0  0  0  0  0  0  0  0
   37.8530   27.3110   35.0020 C   0  0  0  0  0  0  0  0  0  0  0  0
   36.5990   27.9300   34.4220 C   0  0  0  0  0  0  0  0  0  0  0  0
   36.7670   28.4090   33.0060 C   0  0  0  0  0  0  0  0  0  0  0  0
   37.6470   27.5240   32.1730 C   0  0  0  0  0  0  0  0  0  0  0  0
   37.7970   26.1430   32.7940 C   0  0  2  0  0  0  0  0  0  0  0  0
   39.4990   26.3680   34.0050 H   0  0  0  0  0  0  0  0  0  0  0  0
   37.5620   27.1170   36.0330 H   0  0  0  0  0  0  0  0  0  0  0  0
   38.6210   28.1520   35.0940 H   0  0  0  0  0  0  0  0  0  0  0  0
   35.7560   27.2350   34.5710 H   0  0  0  0  0  0  0  0  0  0  0  0
   36.3930   28.8320   35.0360 H   0  0  0  0  0  0  0  0  0  0  0  0
   37.1110   29.4660   32.9580 H   0  0  0  0  0  0  0  0  0  0  0  0
   35.7570   28.3790   32.5470 H   0  0  0  0  0  0  0  0  0  0  0  0
   38.6760   27.9860   32.2160 H   0  0  0  0  0  0  0  0  0  0  0  0
   37.3850   27.5000   31.1230 H   0  0  0  0  0  0  0  0  0  0  0  0
   38.5520   25.6120   32.1420 H   0  0  0  0  0  0  0  0  0  0  0  0
   38.2640   24.8870   34.7840 C   0  0  0  0  0  0  0  0  0  0  0  0
   37.9450   24.8940   36.1570 C   0  0  0  0  0  0  0  0  0  0  0  0
   37.7910   23.6490   36.7620 C   0  0  0  0  0  0  0  0  0  0  0  0
   37.9540   22.5150   36.0220 N   0  0  0  0  0  0  0  0  0  0  0  0
   38.2620   22.5580   34.7030 C   0  0  0  0  0  0  0  0  0  0  0  0
   38.4060   23.7260   34.1350 N   0  0  0  0  0  0  0  0  0  0  0  0
   37.7740   25.5840   36.9620 H   0  0  0  0  0  0  0  0  0  0  0  0
   37.5510   23.3590   37.7710 H   0  0  0  0  0  0  0  0  0  0  0  0
   38.3950   21.6660   34.1070 H   0  0  0  0  0  0  0  0  0  0  0  0
   36.5760   25.4840   32.6170 N   0  0  0  0  0  0  0  0  0  0  0  0
   36.4240   24.7360   33.3300 H   0  0  0  0  0  0  0  0  0  0  0  0
   36.3000   24.7850   31.0880 S   0  0  0  0  0  0  0  0  0  0  0  0
   35.3460   25.7120   30.3530 O   0  0  0  0  0  0  0  0  0  0  0  0
   35.6350   26.4740   29.7610 H   0  0  0  0  0  0  0  0  0  0  0  0
   37.5510   24.6360   30.2750 O   0  0  0  0  0  0  0  0  0  0  0  0
   38.2440   23.9890   30.5450 H   0  0  0  0  0  0  0  0  0  0  0  0
   35.5300   23.3060   31.1820 O   0  0  0  0  0  0  0  0  0  0  0  0
   36.2000   22.1770   31.5850 C   0  0  0  0  0  0  0  0  0  0  0  0
   35.6680   21.5170   32.2680 H   0  0  0  0  0  0  0  0  0  0  0  0
   37.3670   21.8950   31.2000 O   0  0  0  0  0  0  0  0  0  0  0  0
  1  7  1  6  0  0  0
  1 17  1  0  0  0  0
  1  2  1  0  0  0  0
  2  9  1  0  0  0  0
  2  8  1  0  0  0  0
  3 10  1  0  0  0  0
  3  2  1  0  0  0  0
  3 11  1  0  0  0  0
  4  3  1  0  0  0  0
  5 14  1  0  0  0  0
  5  6  1  0  0  0  0
  5  4  1  0  0  0  0
  6 16  1  6  0  0  0
  6  1  1  0  0  0  0
 12  4  1  0  0  0  0
 13  4  1  0  0  0  0
 15  5  1  0  0  0  0
 17 18  1  0  0  0  0
 18 19  2  0  0  0  0
 18 23  1  0  0  0  0
 19 24  1  0  0  0  0
 20 19  1  0  0  0  0
 21 20  2  0  0  0  0
 22 21  1  0  0  0  0
 22 17  2  0  0  0  0
 25 21  1  0  0  0  0
 26  6  1  0  0  0  0
 26 27  1  0  0  0  0
 28 33  1  0  0  0  0
 28 26  1  0  0  0  0
 29 28  1  0  0  0  0
 30 29  1  0  0  0  0
 31 32  1  0  0  0  0
 31 28  1  0  0  0  0
 33 34  1  0  0  0  0
 34 35  1  0  0  0  0
 36 34  2  0  0  0  0
M  END
>  <minimizedAffinity>
-4.74180984

$$$$

 OpenBabel03262521073D

 36 37  0  0  1  0  0  0  0  0999 V2000
   37.7400   25.7500   33.3520 C   0  0  2  0  0  0  0  0  0  0  0  0
   38.7080   26.8370   33.0980 C   0  0  0  0  0  0  0  0  0  0  0  0
   39.7850   26.9180   34.1580 C   0  0  0  0  0  0  0  0  0  0  0  0
   39.2440   27.0370   35.5560 C   0  0  0  0  0  0  0  0  0  0  0  0
   37.9950   26.2380   35.7850 C   0  0  0  0  0  0  0  0  0  0  0  0
   37.8170   25.1620   34.7240 C   0  0  2  0  0  0  0  0  0  0  0  0
   36.6840   26.1500   33.2570 H   0  0  0  0  0  0  0  0  0  0  0  0
   39.2860   26.8490   32.1750 H   0  0  0  0  0  0  0  0  0  0  0  0
   38.1760   27.8490   33.0940 H   0  0  0  0  0  0  0  0  0  0  0  0
   40.4930   26.0850   34.0120 H   0  0  0  0  0  0  0  0  0  0  0  0
   40.3410   27.8580   33.9560 H   0  0  0  0  0  0  0  0  0  0  0  0
   39.0970   28.0960   35.8620 H   0  0  0  0  0  0  0  0  0  0  0  0
   40.0210   26.6140   36.2260 H   0  0  0  0  0  0  0  0  0  0  0  0
   37.1380   26.9560   35.6310 H   0  0  0  0  0  0  0  0  0  0  0  0
   37.8840   25.8700   36.7970 H   0  0  0  0  0  0  0  0  0  0  0  0
   36.8070   24.7050   34.9400 H   0  0  0  0  0  0  0  0  0  0  0  0
   37.8240   24.6480   32.3800 C   0  0  0  0  0  0  0  0  0  0  0  0
   38.7970   24.8100   31.3740 C   0  0  0  0  0  0  0  0  0  0  0  0
   38.9200   23.7670   30.4590 C   0  0  0  0  0  0  0  0  0  0  0  0
   38.1170   22.6710   30.5730 N   0  0  0  0  0  0  0  0  0  0  0  0
   37.1930   22.5600   31.5590 C   0  0  0  0  0  0  0  0  0  0  0  0
   37.0780   23.5380   32.4180 N   0  0  0  0  0  0  0  0  0  0  0  0
   39.5290   25.5210   31.0400 H   0  0  0  0  0  0  0  0  0  0  0  0
   39.5660   23.6220   29.6090 H   0  0  0  0  0  0  0  0  0  0  0  0
   36.5500   21.6970   31.6590 H   0  0  0  0  0  0  0  0  0  0  0  0
   38.7720   24.1740   34.9840 N   0  0  0  0  0  0  0  0  0  0  0  0
   39.2080   23.8050   34.1100 H   0  0  0  0  0  0  0  0  0  0  0  0
   38.2520   22.8290   35.8920 S   0  0  0  0  0  0  0  0  0  0  0  0
   37.3700   22.0010   34.9730 O   0  0  0  0  0  0  0  0  0  0  0  0
   37.7020   21.2560   34.3810 H   0  0  0  0  0  0  0  0  0  0  0  0
   39.3840   21.9720   36.3740 O   0  0  0  0  0  0  0  0  0  0  0  0
   40.0030   22.3100   37.0620 H   0  0  0  0  0  0  0  0  0  0  0  0
   37.2970   23.2560   37.1930 O   0  0  0  0  0  0  0  0  0  0  0  0
   37.8490   23.7050   38.3670 C   0  0  0  0  0  0  0  0  0  0  0  0
   37.2230   24.3500   38.9810 H   0  0  0  0  0  0  0  0  0  0  0  0
   39.0160   23.4030   38.7390 O   0  0  0  0  0  0  0  0  0  0  0  0
  1  7  1  6  0  0  0
  1  6  1  0  0  0  0
  2  1  1  0  0  0  0
  2  3  1  0  0  0  0
  3  4  1  0  0  0  0
  4  5  1  0  0  0  0
  4 12  1  0  0  0  0
  4 13  1  0  0  0  0
  5 15  1  0  0  0  0
  6 16  1  1  0  0  0
  6 26  1  0  0  0  0
  6  5  1  0  0  0  0
  8  2  1  0  0  0  0
  9  2  1  0  0  0  0
 10  3  1  0  0  0  0
 11  3  1  0  0  0  0
 14  5  1  0  0  0  0
 17 22  1  0  0  0  0
 17  1  1  0  0  0  0
 18 17  2  0  0  0  0
 19 20  2  0  0  0  0
 19 18  1  0  0  0  0
 20 21  1  0  0  0  0
 21 25  1  0  0  0  0
 21 22  2  0  0  0  0
 23 18  1  0  0  0  0
 24 19  1  0  0  0  0
 26 28  1  0  0  0  0
 27 26  1  0  0  0  0
 28 31  1  0  0  0  0
 28 33  1  0  0  0  0
 29 28  1  0  0  0  0
 30 29  1  0  0  0  0
 31 32  1  0  0  0  0
 33 34  1  0  0  0  0
 34 36  2  0  0  0  0
 34 35  1  0  0  0  0
M  END
>  <minimizedAffinity>
-4.52232742

$$$$

 OpenBabel03262521073D

 36 37  0  0  1  0  0  0  0  0999 V2000
   38.4250   26.1830   34.3460 C   0  0  2  0  0  0  0  0  0  0  0  0
   37.8800   27.3400   35.0860 C   0  0  0  0  0  0  0  0  0  0  0  0
   36.6480   27.9230   34.4290 C   0  0  0  0  0  0  0  0  0  0  0  0
   36.8560   28.2960   32.9870 C   0  0  0  0  0  0  0  0  0  0  0  0
   37.7480   27.3450   32.2450 C   0  0  0  0  0  0  0  0  0  0  0  0
   37.8700   26.0130   32.9690 C   0  0  2  0  0  0  0  0  0  0  0  0
   39.5420   26.3130   34.2040 H   0  0  0  0  0  0  0  0  0  0  0  0
   37.5620   27.2250   36.1210 H   0  0  0  0  0  0  0  0  0  0  0  0
   38.6540   28.1790   35.1350 H   0  0  0  0  0  0  0  0  0  0  0  0
   35.7940   27.2480   34.6070 H   0  0  0  0  0  0  0  0  0  0  0  0
   36.4340   28.8690   34.9700 H   0  0  0  0  0  0  0  0  0  0  0  0
   37.2110   29.3430   32.8700 H   0  0  0  0  0  0  0  0  0  0  0  0
   35.8580   28.2390   32.5050 H   0  0  0  0  0  0  0  0  0  0  0  0
   38.7800   27.8010   32.2800 H   0  0  0  0  0  0  0  0  0  0  0  0
   37.5120   27.2460   31.1930 H   0  0  0  0  0  0  0  0  0  0  0  0
   38.6360   25.4290   32.3780 H   0  0  0  0  0  0  0  0  0  0  0  0
   38.2750   24.9040   35.0580 C   0  0  0  0  0  0  0  0  0  0  0  0
   37.9590   25.0150   36.4270 C   0  0  0  0  0  0  0  0  0  0  0  0
   37.7790   23.8190   37.1190 C   0  0  0  0  0  0  0  0  0  0  0  0
   37.9150   22.6320   36.4610 N   0  0  0  0  0  0  0  0  0  0  0  0
   38.2210   22.5750   35.1420 C   0  0  0  0  0  0  0  0  0  0  0  0
   38.3890   23.6970   34.4930 N   0  0  0  0  0  0  0  0  0  0  0  0
   37.8050   25.7640   37.1810 H   0  0  0  0  0  0  0  0  0  0  0  0
   37.5350   23.6070   38.1460 H   0  0  0  0  0  0  0  0  0  0  0  0
   38.3330   21.6410   34.6110 H   0  0  0  0  0  0  0  0  0  0  0  0
   36.6480   25.3510   32.8090 N   0  0  0  0  0  0  0  0  0  0  0  0
   36.5280   24.5700   33.4930 H   0  0  0  0  0  0  0  0  0  0  0  0
   36.3170   24.7190   31.2620 S   0  0  0  0  0  0  0  0  0  0  0  0
   35.5570   23.4210   31.4770 O   0  0  0  0  0  0  0  0  0  0  0  0
   34.5540   23.3490   31.5320 H   0  0  0  0  0  0  0  0  0  0  0  0
   35.4790   25.6340   30.4200 O   0  0  0  0  0  0  0  0  0  0  0  0
   35.8510   26.4850   30.0910 H   0  0  0  0  0  0  0  0  0  0  0  0
   37.7000   24.3150   30.4190 O   0  0  0  0  0  0  0  0  0  0  0  0
   38.2320   23.0510   30.4840 C   0  0  0  0  0  0  0  0  0  0  0  0
   38.8790   22.7550   29.6600 H   0  0  0  0  0  0  0  0  0  0  0  0
   38.0000   22.2550   31.4340 O   0  0  0  0  0  0  0  0  0  0  0  0
  1  7  1  6  0  0  0
  1 17  1  0  0  0  0
  1  2  1  0  0  0  0
  2  9  1  0  0  0  0
  2  8  1  0  0  0  0
  3 10  1  0  0  0  0
  3 11  1  0  0  0  0
  3  2  1  0  0  0  0
  4  3  1  0  0  0  0
  5 14  1  0  0  0  0
  5  6  1  0  0  0  0
  5  4  1  0  0  0  0
  6 16  1  6  0  0  0
  6  1  1  0  0  0  0
 12  4  1  0  0  0  0
 13  4  1  0  0  0  0
 15  5  1  0  0  0  0
 17 18  1  0  0  0  0
 18 19  2  0  0  0  0
 18 23  1  0  0  0  0
 19 24  1  0  0  0  0
 20 19  1  0  0  0  0
 21 20  2  0  0  0  0
 22 17  2  0  0  0  0
 22 21  1  0  0  0  0
 25 21  1  0  0  0  0
 26  6  1  0  0  0  0
 26 27  1  0  0  0  0
 28 29  1  0  0  0  0
 28 26  1  0  0  0  0
 29 30  1  0  0  0  0
 31 28  1  0  0  0  0
 32 31  1  0  0  0  0
 33 34  1  0  0  0  0
 33 28  1  0  0  0  0
 34 36  2  0  0  0  0
 35 34  1  0  0  0  0
M  END
>  <minimizedAffinity>
-4.50955391

$$$$

 OpenBabel03262521073D

 36 37  0  0  1  0  0  0  0  0999 V2000
   38.8160   26.4160   34.7670 C   0  0  2  0  0  0  0  0  0  0  0  0
   38.0260   27.4630   35.4460 C   0  0  0  0  0  0  0  0  0  0  0  0
   36.7370   27.7850   34.7200 C   0  0  0  0  0  0  0  0  0  0  0  0
   36.9390   28.1570   33.2770 C   0  0  0  0  0  0  0  0  0  0  0  0
   38.0300   27.3780   32.6030 C   0  0  0  0  0  0  0  0  0  0  0  0
   38.3690   26.1110   33.3740 C   0  0  2  0  0  0  0  0  0  0  0  0
   39.8930   26.7550   34.6680 H   0  0  0  0  0  0  0  0  0  0  0  0
   37.6860   27.3130   36.4700 H   0  0  0  0  0  0  0  0  0  0  0  0
   38.6220   28.4370   35.5020 H   0  0  0  0  0  0  0  0  0  0  0  0
   36.0210   26.9630   34.8830 H   0  0  0  0  0  0  0  0  0  0  0  0
   36.3220   28.6840   35.2210 H   0  0  0  0  0  0  0  0  0  0  0  0
   37.0930   29.2500   33.1410 H   0  0  0  0  0  0  0  0  0  0  0  0
   35.9940   27.8990   32.7550 H   0  0  0  0  0  0  0  0  0  0  0  0
   38.9530   28.0240   32.6680 H   0  0  0  0  0  0  0  0  0  0  0  0
   37.8680   27.2110   31.5460 H   0  0  0  0  0  0  0  0  0  0  0  0
   39.2590   25.6720   32.8350 H   0  0  0  0  0  0  0  0  0  0  0  0
   38.8780   25.1480   35.5120 C   0  0  0  0  0  0  0  0  0  0  0  0
   38.1450   25.1250   36.7150 C   0  0  0  0  0  0  0  0  0  0  0  0
   38.1600   23.9270   37.4260 C   0  0  0  0  0  0  0  0  0  0  0  0
   38.8630   22.8640   36.9410 N   0  0  0  0  0  0  0  0  0  0  0  0
   39.5550   22.9340   35.7780 C   0  0  0  0  0  0  0  0  0  0  0  0
   39.5400   24.0580   35.1110 N   0  0  0  0  0  0  0  0  0  0  0  0
   37.5370   25.7680   37.3250 H   0  0  0  0  0  0  0  0  0  0  0  0
   37.6990   23.6290   38.3530 H   0  0  0  0  0  0  0  0  0  0  0  0
   40.1170   22.0990   35.3840 H   0  0  0  0  0  0  0  0  0  0  0  0
   37.3040   25.2240   33.1840 N   0  0  0  0  0  0  0  0  0  0  0  0
   36.9730   24.8060   34.0820 H   0  0  0  0  0  0  0  0  0  0  0  0
   37.5650   23.9370   32.0970 S   0  0  0  0  0  0  0  0  0  0  0  0
   38.8470   24.2580   31.3470 O   0  0  0  0  0  0  0  0  0  0  0  0
   39.7670   23.9690   31.6390 H   0  0  0  0  0  0  0  0  0  0  0  0
   37.7250   22.6130   32.7810 O   0  0  0  0  0  0  0  0  0  0  0  0
   36.9570   22.1930   33.2340 H   0  0  0  0  0  0  0  0  0  0  0  0
   36.3680   23.8140   30.9400 O   0  0  0  0  0  0  0  0  0  0  0  0
   35.2520   24.6130   30.9800 C   0  0  0  0  0  0  0  0  0  0  0  0
   34.2930   24.1030   31.0500 H   0  0  0  0  0  0  0  0  0  0  0  0
   35.3050   25.8730   30.9390 O   0  0  0  0  0  0  0  0  0  0  0  0
  1  7  1  6  0  0  0
  1  2  1  0  0  0  0
  1 17  1  0  0  0  0
  2  9  1  0  0  0  0
  2  8  1  0  0  0  0
  3 10  1  0  0  0  0
  3 11  1  0  0  0  0
  3  2  1  0  0  0  0
  4  3  1  0  0  0  0
  5 14  1  0  0  0  0
  5  4  1  0  0  0  0
  5  6  1  0  0  0  0
  6 16  1  6  0  0  0
  6  1  1  0  0  0  0
 12  4  1  0  0  0  0
 13  4  1  0  0  0  0
 15  5  1  0  0  0  0
 17 18  1  0  0  0  0
 18 23  1  0  0  0  0
 18 19  2  0  0  0  0
 19 24  1  0  0  0  0
 20 19  1  0  0  0  0
 21 20  2  0  0  0  0
 22 17  2  0  0  0  0
 22 21  1  0  0  0  0
 25 21  1  0  0  0  0
 26  6  1  0  0  0  0
 26 27  1  0  0  0  0
 28 31  1  0  0  0  0
 28 26  1  0  0  0  0
 29 30  1  0  0  0  0
 29 28  1  0  0  0  0
 31 32  1  0  0  0  0
 33 34  1  0  0  0  0
 33 28  1  0  0  0  0
 34 35  1  0  0  0  0
 36 34  2  0  0  0  0
M  END
>  <minimizedAffinity>
-4.41999722

$$$$

 OpenBabel03262521073D

 36 37  0  0  1  0  0  0  0  0999 V2000
   38.6890   26.4940   34.5740 C   0  0  2  0  0  0  0  0  0  0  0  0
   37.9360   27.5710   35.2490 C   0  0  0  0  0  0  0  0  0  0  0  0
   36.6240   27.8830   34.5620 C   0  0  0  0  0  0  0  0  0  0  0  0
   36.7730   28.2080   33.1010 C   0  0  0  0  0  0  0  0  0  0  0  0
   37.8300   27.3960   32.4120 C   0  0  0  0  0  0  0  0  0  0  0  0
   38.1860   26.1500   33.2100 C   0  0  2  0  0  0  0  0  0  0  0  0
   39.7650   26.8190   34.4230 H   0  0  0  0  0  0  0  0  0  0  0  0
   37.6350   27.4580   36.2890 H   0  0  0  0  0  0  0  0  0  0  0  0
   38.5430   28.5390   35.2500 H   0  0  0  0  0  0  0  0  0  0  0  0
   35.9060   27.0750   34.7790 H   0  0  0  0  0  0  0  0  0  0  0  0
   36.2360   28.8030   35.0490 H   0  0  0  0  0  0  0  0  0  0  0  0
   36.9320   29.2940   32.9250 H   0  0  0  0  0  0  0  0  0  0  0  0
   35.8060   27.9430   32.6250 H   0  0  0  0  0  0  0  0  0  0  0  0
   38.7610   28.0340   32.4210 H   0  0  0  0  0  0  0  0  0  0  0  0
   37.6260   27.1980   31.3680 H   0  0  0  0  0  0  0  0  0  0  0  0
   39.0510   25.6850   32.6510 H   0  0  0  0  0  0  0  0  0  0  0  0
   38.7680   25.2510   35.3570 C   0  0  0  0  0  0  0  0  0  0  0  0
   39.9730   24.5320   35.2190 C   0  0  0  0  0  0  0  0  0  0  0  0
   40.0870   23.3670   35.9740 C   0  0  0  0  0  0  0  0  0  0  0  0
   39.0600   22.9850   36.7850 N   0  0  0  0  0  0  0  0  0  0  0  0
   37.9190   23.7090   36.8840 C   0  0  0  0  0  0  0  0  0  0  0  0
   37.8110   24.8020   36.1770 N   0  0  0  0  0  0  0  0  0  0  0  0
   40.9030   24.5740   34.6840 H   0  0  0  0  0  0  0  0  0  0  0  0
   40.8760   22.6390   36.0660 H   0  0  0  0  0  0  0  0  0  0  0  0
   37.0970   23.4150   37.5220 H   0  0  0  0  0  0  0  0  0  0  0  0
   37.1070   25.2690   33.0890 N   0  0  0  0  0  0  0  0  0  0  0  0
   36.9640   24.6980   33.9520 H   0  0  0  0  0  0  0  0  0  0  0  0
   37.1460   24.1880   31.7720 S   0  0  0  0  0  0  0  0  0  0  0  0
   35.7980   23.4870   31.7470 O   0  0  0  0  0  0  0  0  0  0  0  0
   34.9950   23.8130   31.2330 H   0  0  0  0  0  0  0  0  0  0  0  0
   37.3580   24.8730   30.4550 O   0  0  0  0  0  0  0  0  0  0  0  0
   38.2250   25.2950   30.2500 H   0  0  0  0  0  0  0  0  0  0  0  0
   38.2910   22.9870   31.9550 O   0  0  0  0  0  0  0  0  0  0  0  0
   38.2290   22.0940   32.9950 C   0  0  0  0  0  0  0  0  0  0  0  0
   39.0120   21.3380   33.0320 H   0  0  0  0  0  0  0  0  0  0  0  0
   37.3260   22.1230   33.8750 O   0  0  0  0  0  0  0  0  0  0  0  0
  1  7  1  6  0  0  0
  1  2  1  0  0  0  0
  1 17  1  0  0  0  0
  2  9  1  0  0  0  0
  2  8  1  0  0  0  0
  3 10  1  0  0  0  0
  3 11  1  0  0  0  0
  3  2  1  0  0  0  0
  4  3  1  0  0  0  0
  5 14  1  0  0  0  0
  5  4  1  0  0  0  0
  5  6  1  0  0  0  0
  6 16  1  6  0  0  0
  6  1  1  0  0  0  0
 12  4  1  0  0  0  0
 13  4  1  0  0  0  0
 15  5  1  0  0  0  0
 17 22  1  0  0  0  0
 18 17  2  0  0  0  0
 18 19  1  0  0  0  0
 19 24  1  0  0  0  0
 19 20  2  0  0  0  0
 20 21  1  0  0  0  0
 21 25  1  0  0  0  0
 22 21  2  0  0  0  0
 23 18  1  0  0  0  0
 26  6  1  0  0  0  0
 26 27  1  0  0  0  0
 28 33  1  0  0  0  0
 28 26  1  0  0  0  0
 29 28  1  0  0  0  0
 30 29  1  0  0  0  0
 31 28  1  0  0  0  0
 32 31  1  0  0  0  0
 33 34  1  0  0  0  0
 34 35  1  0  0  0  0
 34 36  2  0  0  0  0
M  END
>  <minimizedAffinity>
-4.36005974

$$$$

 OpenBabel03262521073D

 36 37  0  0  1  0  0  0  0  0999 V2000
   37.2980   27.0460   34.2040 C   0  0  2  0  0  0  0  0  0  0  0  0
   38.5490   27.4850   34.8580 C   0  0  0  0  0  0  0  0  0  0  0  0
   39.7310   26.6100   34.5000 C   0  0  0  0  0  0  0  0  0  0  0  0
   39.5010   25.1490   34.7730 C   0  0  0  0  0  0  0  0  0  0  0  0
   38.0970   24.7010   34.4930 C   0  0  0  0  0  0  0  0  0  0  0  0
   37.3660   25.6850   33.5920 C   0  0  2  0  0  0  0  0  0  0  0  0
   36.4670   26.9880   34.9720 H   0  0  0  0  0  0  0  0  0  0  0  0
   38.9360   28.4870   34.6790 H   0  0  0  0  0  0  0  0  0  0  0  0
   38.4390   27.4390   35.9940 H   0  0  0  0  0  0  0  0  0  0  0  0
   40.0440   26.8380   33.4680 H   0  0  0  0  0  0  0  0  0  0  0  0
   40.5580   26.9280   35.1700 H   0  0  0  0  0  0  0  0  0  0  0  0
   39.8090   24.8600   35.8020 H   0  0  0  0  0  0  0  0  0  0  0  0
   40.1590   24.5960   34.0720 H   0  0  0  0  0  0  0  0  0  0  0  0
   37.5570   24.7430   35.4830 H   0  0  0  0  0  0  0  0  0  0  0  0
   38.0180   23.6720   34.1640 H   0  0  0  0  0  0  0  0  0  0  0  0
   36.3050   25.2980   33.5390 H   0  0  0  0  0  0  0  0  0  0  0  0
   36.8100   27.9820   33.1780 C   0  0  0  0  0  0  0  0  0  0  0  0
   35.5840   28.6100   33.4760 C   0  0  0  0  0  0  0  0  0  0  0  0
   35.1140   29.5250   32.5370 C   0  0  0  0  0  0  0  0  0  0  0  0
   35.8380   29.7630   31.4060 N   0  0  0  0  0  0  0  0  0  0  0  0
   37.0130   29.1340   31.1620 C   0  0  0  0  0  0  0  0  0  0  0  0
   37.4550   28.2760   32.0440 N   0  0  0  0  0  0  0  0  0  0  0  0
   34.8240   28.6190   34.2340 H   0  0  0  0  0  0  0  0  0  0  0  0
   34.2300   30.1390   32.5040 H   0  0  0  0  0  0  0  0  0  0  0  0
   37.5960   29.3140   30.2700 H   0  0  0  0  0  0  0  0  0  0  0  0
   37.9110   25.5450   32.3110 N   0  0  0  0  0  0  0  0  0  0  0  0
   38.1990   26.4610   31.9020 H   0  0  0  0  0  0  0  0  0  0  0  0
   36.9430   24.7580   31.1500 S   0  0  0  0  0  0  0  0  0  0  0  0
   36.0260   25.8180   30.5610 O   0  0  0  0  0  0  0  0  0  0  0  0
   36.2440   26.3740   29.7500 H   0  0  0  0  0  0  0  0  0  0  0  0
   37.7410   24.1400   30.0410 O   0  0  0  0  0  0  0  0  0  0  0  0
   38.3170   23.3610   30.2190 H   0  0  0  0  0  0  0  0  0  0  0  0
   35.9450   23.5990   31.8170 O   0  0  0  0  0  0  0  0  0  0  0  0
   35.7670   22.3780   31.2150 C   0  0  0  0  0  0  0  0  0  0  0  0
   34.7550   22.1400   30.8930 H   0  0  0  0  0  0  0  0  0  0  0  0
   36.7070   21.5570   31.0320 O   0  0  0  0  0  0  0  0  0  0  0  0
  1  2  1  0  0  0  0
  1  7  1  1  0  0  0
  2  9  1  0  0  0  0
  3  4  1  0  0  0  0
  3  2  1  0  0  0  0
  3 11  1  0  0  0  0
  4 12  1  0  0  0  0
  5  4  1  0  0  0  0
  5 14  1  0  0  0  0
  6 16  1  6  0  0  0
  6  1  1  0  0  0  0
  6  5  1  0  0  0  0
  8  2  1  0  0  0  0
 10  3  1  0  0  0  0
 13  4  1  0  0  0  0
 15  5  1  0  0  0  0
 17 18  1  0  0  0  0
 17  1  1  0  0  0  0
 18 23  1  0  0  0  0
 19 18  2  0  0  0  0
 20 19  1  0  0  0  0
 21 20  2  0  0  0  0
 21 22  1  0  0  0  0
 22 17  2  0  0  0  0
 24 19  1  0  0  0  0
 25 21  1  0  0  0  0
 26  6  1  0  0  0  0
 27 26  1  0  0  0  0
 28 33  1  0  0  0  0
 28 26  1  0  0  0  0
 29 28  1  0  0  0  0
 30 29  1  0  0  0  0
 31 32  1  0  0  0  0
 31 28  1  0  0  0  0
 34 33  1  0  0  0  0
 35 34  1  0  0  0  0
 36 34  2  0  0  0  0
M  END
>  <minimizedAffinity>
-4.30016136

$$$$

 OpenBabel03262521073D

 36 37  0  0  1  0  0  0  0  0999 V2000
   37.7270   25.5960   33.5620 C   0  0  2  0  0  0  0  0  0  0  0  0
   38.6570   26.7100   33.2830 C   0  0  0  0  0  0  0  0  0  0  0  0
   39.7140   26.8690   34.3540 C   0  0  0  0  0  0  0  0  0  0  0  0
   39.1470   27.0170   35.7390 C   0  0  0  0  0  0  0  0  0  0  0  0
   37.9260   26.1800   35.9800 C   0  0  0  0  0  0  0  0  0  0  0  0
   37.8050   25.0610   34.9550 C   0  0  2  0  0  0  0  0  0  0  0  0
   36.6580   25.9520   33.4380 H   0  0  0  0  0  0  0  0  0  0  0  0
   39.2480   26.7110   32.3680 H   0  0  0  0  0  0  0  0  0  0  0  0
   38.0880   27.7000   33.2350 H   0  0  0  0  0  0  0  0  0  0  0  0
   40.4550   26.0590   34.2480 H   0  0  0  0  0  0  0  0  0  0  0  0
   40.2380   27.8210   34.1260 H   0  0  0  0  0  0  0  0  0  0  0  0
   38.9560   28.0790   36.0050 H   0  0  0  0  0  0  0  0  0  0  0  0
   39.9290   26.6480   36.4350 H   0  0  0  0  0  0  0  0  0  0  0  0
   37.0460   26.8590   35.7880 H   0  0  0  0  0  0  0  0  0  0  0  0
   37.8130   25.8430   37.0030 H   0  0  0  0  0  0  0  0  0  0  0  0
   36.8090   24.5740   35.1740 H   0  0  0  0  0  0  0  0  0  0  0  0
   37.8660   24.4650   32.6320 C   0  0  0  0  0  0  0  0  0  0  0  0
   36.6670   24.0320   32.0320 C   0  0  0  0  0  0  0  0  0  0  0  0
   36.7740   22.9820   31.1230 C   0  0  0  0  0  0  0  0  0  0  0  0
   37.9970   22.4360   30.8640 N   0  0  0  0  0  0  0  0  0  0  0  0
   39.1240   22.8860   31.4670 C   0  0  0  0  0  0  0  0  0  0  0  0
   39.0240   23.8710   32.3190 N   0  0  0  0  0  0  0  0  0  0  0  0
   35.6150   24.2450   32.0420 H   0  0  0  0  0  0  0  0  0  0  0  0
   36.0420   22.4620   30.5270 H   0  0  0  0  0  0  0  0  0  0  0  0
   40.0980   22.4610   31.2700 H   0  0  0  0  0  0  0  0  0  0  0  0
   38.7920   24.1190   35.2650 N   0  0  0  0  0  0  0  0  0  0  0  0
   39.4330   23.9400   34.4600 H   0  0  0  0  0  0  0  0  0  0  0  0
   38.2530   22.6030   35.8250 S   0  0  0  0  0  0  0  0  0  0  0  0
   39.4670   21.9020   36.4130 O   0  0  0  0  0  0  0  0  0  0  0  0
   39.7500   21.9650   37.3780 H   0  0  0  0  0  0  0  0  0  0  0  0
   37.1970   22.7090   36.8840 O   0  0  0  0  0  0  0  0  0  0  0  0
   36.2990   23.0440   36.6570 H   0  0  0  0  0  0  0  0  0  0  0  0
   37.6980   21.6190   34.5960 O   0  0  0  0  0  0  0  0  0  0  0  0
   36.3750   21.2640   34.5080 C   0  0  0  0  0  0  0  0  0  0  0  0
   35.8920   21.4300   33.5470 H   0  0  0  0  0  0  0  0  0  0  0  0
   35.7290   20.7700   35.4720 O   0  0  0  0  0  0  0  0  0  0  0  0
  1  7  1  6  0  0  0
  1  6  1  0  0  0  0
  2  1  1  0  0  0  0
  2  3  1  0  0  0  0
  3  4  1  0  0  0  0
  4  5  1  0  0  0  0
  4 12  1  0  0  0  0
  4 13  1  0  0  0  0
  5 15  1  0  0  0  0
  6 16  1  1  0  0  0
  6 26  1  0  0  0  0
  6  5  1  0  0  0  0
  8  2  1  0  0  0  0
  9  2  1  0  0  0  0
 10  3  1  0  0  0  0
 11  3  1  0  0  0  0
 14  5  1  0  0  0  0
 17  1  1  0  0  0  0
 18 23  1  0  0  0  0
 18 17  2  0  0  0  0
 19 18  1  0  0  0  0
 20 19  2  0  0  0  0
 20 21  1  0  0  0  0
 21 22  2  0  0  0  0
 22 17  1  0  0  0  0
 24 19  1  0  0  0  0
 25 21  1  0  0  0  0
 26 28  1  0  0  0  0
 27 26  1  0  0  0  0
 28 29  1  0  0  0  0
 28 31  1  0  0  0  0
 29 30  1  0  0  0  0
 32 31  1  0  0  0  0
 33 28  1  0  0  0  0
 34 33  1  0  0  0  0
 34 36  2  0  0  0  0
 35 34  1  0  0  0  0
M  END
>  <minimizedAffinity>
-4.23363066

$$$$

 OpenBabel03262521073D

 36 37  0  0  1  0  0  0  0  0999 V2000
   39.7880   25.2580   34.1080 C   0  0  2  0  0  0  0  0  0  0  0  0
   40.1060   26.6170   34.5910 C   0  0  0  0  0  0  0  0  0  0  0  0
   39.1700   27.0810   35.6850 C   0  0  0  0  0  0  0  0  0  0  0  0
   37.7170   27.0050   35.3050 C   0  0  0  0  0  0  0  0  0  0  0  0
   37.3810   25.8150   34.4560 C   0  0  0  0  0  0  0  0  0  0  0  0
   38.4560   24.7420   34.5480 C   0  0  2  0  0  0  0  0  0  0  0  0
   39.7500   25.2540   32.9750 H   0  0  0  0  0  0  0  0  0  0  0  0
   41.0860   26.8310   35.0150 H   0  0  0  0  0  0  0  0  0  0  0  0
   40.0130   27.3730   33.7380 H   0  0  0  0  0  0  0  0  0  0  0  0
   39.4240   26.5550   36.6200 H   0  0  0  0  0  0  0  0  0  0  0  0
   39.3960   28.1570   35.8440 H   0  0  0  0  0  0  0  0  0  0  0  0
   37.3570   27.9440   34.8280 H   0  0  0  0  0  0  0  0  0  0  0  0
   37.1530   26.8900   36.2540 H   0  0  0  0  0  0  0  0  0  0  0  0
   37.4120   26.1800   33.3890 H   0  0  0  0  0  0  0  0  0  0  0  0
   36.3780   25.4350   34.6020 H   0  0  0  0  0  0  0  0  0  0  0  0
   38.1470   23.9550   33.7980 H   0  0  0  0  0  0  0  0  0  0  0  0
   40.8040   24.2540   34.4630 C   0  0  0  0  0  0  0  0  0  0  0  0
   41.1060   23.3240   33.4480 C   0  0  0  0  0  0  0  0  0  0  0  0
   42.0880   22.3820   33.7450 C   0  0  0  0  0  0  0  0  0  0  0  0
   42.6920   22.3990   34.9680 N   0  0  0  0  0  0  0  0  0  0  0  0
   42.3660   23.3130   35.9140 C   0  0  0  0  0  0  0  0  0  0  0  0
   41.4460   24.1980   35.6350 N   0  0  0  0  0  0  0  0  0  0  0  0
   40.8110   23.0680   32.4470 H   0  0  0  0  0  0  0  0  0  0  0  0
   42.5130   21.5740   33.1730 H   0  0  0  0  0  0  0  0  0  0  0  0
   42.8370   23.3360   36.8870 H   0  0  0  0  0  0  0  0  0  0  0  0
   38.3400   24.1600   35.8150 N   0  0  0  0  0  0  0  0  0  0  0  0
   39.1750   24.3480   36.4140 H   0  0  0  0  0  0  0  0  0  0  0  0
   38.0570   22.4800   35.8620 S   0  0  0  0  0  0  0  0  0  0  0  0
   39.2920   21.8500   36.4850 O   0  0  0  0  0  0  0  0  0  0  0  0
   39.4120   21.6830   37.4710 H   0  0  0  0  0  0  0  0  0  0  0  0
   36.8600   22.1090   36.6840 O   0  0  0  0  0  0  0  0  0  0  0  0
   35.9540   22.3430   36.3740 H   0  0  0  0  0  0  0  0  0  0  0  0
   37.9080   21.8070   34.3420 O   0  0  0  0  0  0  0  0  0  0  0  0
   36.6810   21.4620   33.8310 C   0  0  0  0  0  0  0  0  0  0  0  0
   36.4460   21.8430   32.8380 H   0  0  0  0  0  0  0  0  0  0  0  0
   35.8520   20.7460   34.4550 O   0  0  0  0  0  0  0  0  0  0  0  0
  1  7  1  6  0  0  0
  1 17  1  0  0  0  0
  1  6  1  0  0  0  0
  1  2  1  0  0  0  0
  2  8  1  0  0  0  0
  2  3  1  0  0  0  0
  3 11  1  0  0  0  0
  3 10  1  0  0  0  0
  4  3  1  0  0  0  0
  4 13  1  0  0  0  0
  5  6  1  0  0  0  0
  5 15  1  0  0  0  0
  5  4  1  0  0  0  0
  6 16  1  6  0  0  0
  6 26  1  0  0  0  0
  9  2  1  0  0  0  0
 12  4  1  0  0  0  0
 14  5  1  0  0  0  0
 17 22  1  0  0  0  0
 18 19  1  0  0  0  0
 18 17  2  0  0  0  0
 19 20  2  0  0  0  0
 20 21  1  0  0  0  0
 21 25  1  0  0  0  0
 22 21  2  0  0  0  0
 23 18  1  0  0  0  0
 24 19  1  0  0  0  0
 26 28  1  0  0  0  0
 26 27  1  0  0  0  0
 28 29  1  0  0  0  0
 28 31  1  0  0  0  0
 29 30  1  0  0  0  0
 32 31  1  0  0  0  0
 33 28  1  0  0  0  0
 34 33  1  0  0  0  0
 34 36  2  0  0  0  0
 35 34  1  0  0  0  0
M  END
>  <minimizedAffinity>
-4.22679949

$$$$

 OpenBabel03262521073D

 36 37  0  0  1  0  0  0  0  0999 V2000
   38.4540   24.9040   33.9800 C   0  0  2  0  0  0  0  0  0  0  0  0
   39.1710   26.1190   33.5400 C   0  0  0  0  0  0  0  0  0  0  0  0
   39.8160   26.8620   34.6900 C   0  0  0  0  0  0  0  0  0  0  0  0
   38.8550   27.2100   35.7940 C   0  0  0  0  0  0  0  0  0  0  0  0
   37.8200   26.1540   36.0430 C   0  0  0  0  0  0  0  0  0  0  0  0
   38.2360   24.8140   35.4550 C   0  0  2  0  0  0  0  0  0  0  0  0
   37.4170   24.8870   33.5230 H   0  0  0  0  0  0  0  0  0  0  0  0
   39.9870   26.0430   32.8240 H   0  0  0  0  0  0  0  0  0  0  0  0
   38.4460   26.8500   33.0440 H   0  0  0  0  0  0  0  0  0  0  0  0
   40.7080   26.3040   35.0210 H   0  0  0  0  0  0  0  0  0  0  0  0
   40.1710   27.8260   34.2690 H   0  0  0  0  0  0  0  0  0  0  0  0
   38.3780   28.2020   35.6390 H   0  0  0  0  0  0  0  0  0  0  0  0
   39.4620   27.2870   36.7200 H   0  0  0  0  0  0  0  0  0  0  0  0
   36.9110   26.4700   35.4540 H   0  0  0  0  0  0  0  0  0  0  0  0
   37.4900   26.0910   37.0720 H   0  0  0  0  0  0  0  0  0  0  0  0
   37.3450   24.1380   35.6130 H   0  0  0  0  0  0  0  0  0  0  0  0
   39.0900   23.6530   33.5370 C   0  0  0  0  0  0  0  0  0  0  0  0
   38.1980   22.6120   33.2090 C   0  0  0  0  0  0  0  0  0  0  0  0
   38.7720   21.4260   32.7560 C   0  0  0  0  0  0  0  0  0  0  0  0
   40.1280   21.3280   32.6550 N   0  0  0  0  0  0  0  0  0  0  0  0
   40.9460   22.3570   32.9840 C   0  0  0  0  0  0  0  0  0  0  0  0
   40.4090   23.4700   33.4080 N   0  0  0  0  0  0  0  0  0  0  0  0
   37.1450   22.4000   33.1950 H   0  0  0  0  0  0  0  0  0  0  0  0
   38.3440   20.4890   32.4400 H   0  0  0  0  0  0  0  0  0  0  0  0
   42.0230   22.2920   32.9090 H   0  0  0  0  0  0  0  0  0  0  0  0
   39.2660   24.3190   36.2620 N   0  0  0  0  0  0  0  0  0  0  0  0
   40.1830   24.2950   35.7620 H   0  0  0  0  0  0  0  0  0  0  0  0
   39.0270   22.7780   36.9480 S   0  0  0  0  0  0  0  0  0  0  0  0
   39.2500   22.9300   38.4440 O   0  0  0  0  0  0  0  0  0  0  0  0
   38.5260   23.1480   39.1090 H   0  0  0  0  0  0  0  0  0  0  0  0
   37.6470   22.2400   36.7180 O   0  0  0  0  0  0  0  0  0  0  0  0
   37.3600   21.9800   35.8120 H   0  0  0  0  0  0  0  0  0  0  0  0
   40.1460   21.6550   36.4230 O   0  0  0  0  0  0  0  0  0  0  0  0
   41.4940   21.8640   36.5800 C   0  0  0  0  0  0  0  0  0  0  0  0
   42.1420   21.0150   36.3710 H   0  0  0  0  0  0  0  0  0  0  0  0
   41.9820   22.9680   36.9440 O   0  0  0  0  0  0  0  0  0  0  0  0
  1  7  1  6  0  0  0
  1  6  1  0  0  0  0
  2  1  1  0  0  0  0
  2  3  1  0  0  0  0
  3 10  1  0  0  0  0
  3  4  1  0  0  0  0
  4  5  1  0  0  0  0
  4 13  1  0  0  0  0
  5 15  1  0  0  0  0
  6 16  1  1  0  0  0
  6  5  1  0  0  0  0
  6 26  1  0  0  0  0
  8  2  1  0  0  0  0
  9  2  1  0  0  0  0
 11  3  1  0  0  0  0
 12  4  1  0  0  0  0
 14  5  1  0  0  0  0
 17  1  1  0  0  0  0
 18 17  2  0  0  0  0
 19 18  1  0  0  0  0
 20 19  2  0  0  0  0
 20 21  1  0  0  0  0
 21 22  2  0  0  0  0
 22 17  1  0  0  0  0
 23 18  1  0  0  0  0
 24 19  1  0  0  0  0
 25 21  1  0  0  0  0
 26 28  1  0  0  0  0
 27 26  1  0  0  0  0
 28 29  1  0  0  0  0
 29 30  1  0  0  0  0
 31 28  1  0  0  0  0
 32 31  1  0  0  0  0
 33 34  1  0  0  0  0
 33 28  1  0  0  0  0
 34 36  2  0  0  0  0
 35 34  1  0  0  0  0
M  END
>  <minimizedAffinity>
-4.22124386

$$$$
