
 OpenBabel03272510103D

 22 23  0  0  0  0  0  0  0  0999 V2000
   37.3640   31.2200   48.4880 C   0  0  0  0  0  0  0  0  0  0  0  0
   38.2770   32.1660   48.9040 C   0  0  0  0  0  0  0  0  0  0  0  0
   39.1170   32.8470   48.0490 C   0  0  0  0  0  0  0  0  0  0  0  0
   39.0610   32.5830   46.6920 C   0  0  0  0  0  0  0  0  0  0  0  0
   38.1420   31.6340   46.3000 C   0  0  0  0  0  0  0  0  0  0  0  0
   37.3400   30.9920   47.1660 N   0  0  0  0  0  0  0  0  0  0  0  0
   38.3550   32.4060   49.9570 H   0  0  0  0  0  0  0  0  0  0  0  0
   39.8370   33.5910   48.3600 H   0  0  0  0  0  0  0  0  0  0  0  0
   37.9750   31.3140   45.2780 H   0  0  0  0  0  0  0  0  0  0  0  0
   36.8680   30.0200   50.6560 C   0  0  0  0  0  0  0  0  0  0  0  0
   36.4900   30.5220   49.4130 C   0  0  0  0  0  0  0  0  0  0  0  0
   35.1640   30.3430   49.0160 C   0  0  0  0  0  0  0  0  0  0  0  0
   34.3290   29.6820   49.8910 N   0  0  0  0  0  0  0  0  0  0  0  0
   34.7400   29.2190   51.0730 C   0  0  0  0  0  0  0  0  0  0  0  0
   36.0100   29.3830   51.4650 N   0  0  0  0  0  0  0  0  0  0  0  0
   37.9310   30.2150   50.8660 H   0  0  0  0  0  0  0  0  0  0  0  0
   34.7320   30.6810   48.0790 H   0  0  0  0  0  0  0  0  0  0  0  0
   34.0240   28.7050   51.7130 H   0  0  0  0  0  0  0  0  0  0  0  0
   39.8390   33.1810   45.7030 O   0  0  0  0  0  0  0  0  0  0  0  0
   40.8330   32.4090   45.0910 C   0  0  0  0  0  0  0  0  0  0  0  0
   41.8010   32.3310   45.5610 H   0  0  0  0  0  0  0  0  0  0  0  0
   40.6450   31.7900   43.9960 O   0  0  0  0  0  0  0  0  0  0  0  0
  1  2  1  0  0  0  0
  1 11  1  0  0  0  0
  2  7  1  0  0  0  0
  3  8  1  0  0  0  0
  3  2  2  0  0  0  0
  4  3  1  0  0  0  0
  5  4  2  0  0  0  0
  5  6  1  0  0  0  0
  6  1  2  0  0  0  0
  9  5  1  0  0  0  0
 10 16  1  0  0  0  0
 10 15  1  0  0  0  0
 11 10  2  0  0  0  0
 12 11  1  0  0  0  0
 12 13  2  0  0  0  0
 13 14  1  0  0  0  0
 14 15  2  0  0  0  0
 14 18  1  0  0  0  0
 17 12  1  0  0  0  0
 19  4  1  0  0  0  0
 20 21  1  0  0  0  0
 20 19  1  0  0  0  0
 22 20  2  0  0  0  0
M  END
>  <minimizedAffinity>
-4.69151688

>  <minimizedRMSD>
1.12721157

$$$$
