
 OpenBabel03262521053D

 30 31  0  0  0  0  0  0  0  0999 V2000
   38.4980   31.7320   48.2570 Br  0  0  0  0  0  0  0  0  0  0  0  0
   37.3600   31.1110   46.8930 C   0  0  0  0  0  0  0  0  0  0  0  0
   36.2960   30.3730   47.3000 C   0  0  0  0  0  0  0  0  0  0  0  0
   35.4020   29.8760   46.3370 C   0  0  0  0  0  0  0  0  0  0  0  0
   35.6160   30.1410   45.0000 C   0  0  0  0  0  0  0  0  0  0  0  0
   36.7060   30.8900   44.6650 C   0  0  0  0  0  0  0  0  0  0  0  0
   37.5890   31.3870   45.5720 C   0  0  0  0  0  0  0  0  0  0  0  0
   34.5330   29.2800   46.5860 H   0  0  0  0  0  0  0  0  0  0  0  0
   34.9350   29.7660   44.2270 H   0  0  0  0  0  0  0  0  0  0  0  0
   36.8820   31.1030   43.6180 H   0  0  0  0  0  0  0  0  0  0  0  0
   36.7980   29.4490   49.5970 C   0  0  0  0  0  0  0  0  0  0  0  0
   35.9270   30.0020   48.6700 C   0  0  0  0  0  0  0  0  0  0  0  0
   34.5820   30.2250   49.0710 C   0  0  0  0  0  0  0  0  0  0  0  0
   34.2590   29.8690   50.3610 N   0  0  0  0  0  0  0  0  0  0  0  0
   35.1410   29.3400   51.2120 C   0  0  0  0  0  0  0  0  0  0  0  0
   36.4190   29.1260   50.8360 N   0  0  0  0  0  0  0  0  0  0  0  0
   37.8120   29.2930   49.2580 H   0  0  0  0  0  0  0  0  0  0  0  0
   33.8570   30.6530   48.3940 H   0  0  0  0  0  0  0  0  0  0  0  0
   34.8520   29.0710   52.2240 H   0  0  0  0  0  0  0  0  0  0  0  0
   38.7250   32.1650   45.2450 N   0  0  0  0  0  0  0  0  0  0  0  0
   38.4590   33.1890   45.1910 H   0  0  0  0  0  0  0  0  0  0  0  0
   40.3470   31.8070   44.9340 S   0  0  0  0  0  0  0  0  0  0  0  0
   40.8230   30.6690   45.7930 O   0  0  0  0  0  0  0  0  0  0  0  0
   40.9030   30.8250   46.7680 H   0  0  0  0  0  0  0  0  0  0  0  0
   41.2110   32.9980   45.2900 O   0  0  0  0  0  0  0  0  0  0  0  0
   42.0550   33.1820   44.7670 H   0  0  0  0  0  0  0  0  0  0  0  0
   40.5380   31.4190   43.3090 O   0  0  0  0  0  0  0  0  0  0  0  0
   40.4290   30.1540   42.8070 C   0  0  0  0  0  0  0  0  0  0  0  0
   40.9720   29.7660   41.9570 H   0  0  0  0  0  0  0  0  0  0  0  0
   39.6020   29.4480   43.4500 O   0  0  0  0  0  0  0  0  0  0  0  0
  2  3  1  0  0  0  0
  2  1  1  0  0  0  0
  3 12  1  0  0  0  0
  4  8  1  0  0  0  0
  4  3  2  0  0  0  0
  5  4  1  0  0  0  0
  6  5  2  0  0  0  0
  6  7  1  0  0  0  0
  7  2  2  0  0  0  0
  9  5  1  0  0  0  0
 10  6  1  0  0  0  0
 11 16  1  0  0  0  0
 12 13  1  0  0  0  0
 12 11  2  0  0  0  0
 13 14  2  0  0  0  0
 14 15  1  0  0  0  0
 15 19  1  0  0  0  0
 16 15  2  0  0  0  0
 17 11  1  0  0  0  0
 18 13  1  0  0  0  0
 20  7  1  0  0  0  0
 21 20  1  0  0  0  0
 22 20  1  0  0  0  0
 22 25  1  0  0  0  0
 22 23  1  0  0  0  0
 23 24  1  0  0  0  0
 26 25  1  0  0  0  0
 27 22  1  0  0  0  0
 28 27  1  0  0  0  0
 28 30  2  0  0  0  0
 29 28  1  0  0  0  0
M  END
>  <minimizedAffinity>
-5.15881586

>  <minimizedRMSD>
2.0954535

$$$$
