
 OpenBabel03272510233D

 26 28  0  0  0  0  0  0  0  0999 V2000
   35.4970   29.9760   46.9080 C   0  0  0  0  0  0  0  0  0  0  0  0
   36.6690   30.3400   47.5800 C   0  0  0  0  0  0  0  0  0  0  0  0
   37.7380   30.8660   46.8910 C   0  0  0  0  0  0  0  0  0  0  0  0
   37.5940   31.0150   45.5070 C   0  0  0  0  0  0  0  0  0  0  0  0
   38.5060   31.5080   44.6230 N   0  0  0  0  0  0  0  0  0  0  0  0
   37.9180   31.4560   43.4130 C   0  0  0  0  0  0  0  0  0  0  0  0
   36.6840   30.9550   43.4990 N   0  0  0  0  0  0  0  0  0  0  0  0
   36.4520   30.6690   44.7990 C   0  0  0  0  0  0  0  0  0  0  0  0
   35.3900   30.1400   45.5250 C   0  0  0  0  0  0  0  0  0  0  0  0
   34.6220   29.5570   47.3890 H   0  0  0  0  0  0  0  0  0  0  0  0
   38.6370   31.1470   47.3970 H   0  0  0  0  0  0  0  0  0  0  0  0
   39.4720   31.8540   44.8700 H   0  0  0  0  0  0  0  0  0  0  0  0
   34.4950   29.8670   44.9810 H   0  0  0  0  0  0  0  0  0  0  0  0
   37.6380   30.2870   51.2080 C   0  0  0  0  0  0  0  0  0  0  0  0
   37.7320   30.5410   49.8420 C   0  0  0  0  0  0  0  0  0  0  0  0
   36.6910   30.1340   49.0180 C   0  0  0  0  0  0  0  0  0  0  0  0
   35.6140   29.4990   49.5840 N   0  0  0  0  0  0  0  0  0  0  0  0
   35.5560   29.2670   50.9220 C   0  0  0  0  0  0  0  0  0  0  0  0
   36.5590   29.6590   51.7170 N   0  0  0  0  0  0  0  0  0  0  0  0
   38.5030   30.6490   51.7380 H   0  0  0  0  0  0  0  0  0  0  0  0
   38.5580   31.0360   49.3530 H   0  0  0  0  0  0  0  0  0  0  0  0
   34.7170   28.7710   51.3770 H   0  0  0  0  0  0  0  0  0  0  0  0
   38.6220   31.9040   42.2780 O   0  0  0  0  0  0  0  0  0  0  0  0
   39.1320   33.2140   42.2470 C   0  0  0  0  0  0  0  0  0  0  0  0
   39.8020   33.3710   43.0900 H   0  0  0  0  0  0  0  0  0  0  0  0
   38.8090   34.0360   41.3300 O   0  0  0  0  0  0  0  0  0  0  0  0
  1 10  1  0  0  0  0
  1  2  1  0  0  0  0
  2 16  1  0  0  0  0
  3 11  1  0  0  0  0
  3  2  2  0  0  0  0
  4  3  1  0  0  0  0
  5 12  1  0  0  0  0
  5  4  1  0  0  0  0
  6  7  2  0  0  0  0
  6  5  1  0  0  0  0
  7  8  1  0  0  0  0
  8  4  2  0  0  0  0
  8  9  1  0  0  0  0
  9  1  2  0  0  0  0
 13  9  1  0  0  0  0
 14 19  1  0  0  0  0
 14 20  1  0  0  0  0
 15 14  2  0  0  0  0
 16 17  2  0  0  0  0
 16 15  1  0  0  0  0
 17 18  1  0  0  0  0
 18 22  1  0  0  0  0
 18 19  2  0  0  0  0
 21 15  1  0  0  0  0
 23  6  1  0  0  0  0
 24 23  1  0  0  0  0
 24 25  1  0  0  0  0
 26 24  2  0  0  0  0
M  END
>  <minimizedAffinity>
-4.6357913

>  <minimizedRMSD>
2.2508812

$$$$
