
 OpenBabel03272507173D

 20 21  0  0  1  0  0  0  0  0999 V2000
   37.8560   27.4870   35.2680 C   0  0  1  0  0  0  0  0  0  0  0  0
   38.2210   26.4720   36.2310 C   0  0  2  0  0  0  0  0  0  0  0  0
   39.3180   27.0290   35.3440 C   0  0  0  0  0  0  0  0  0  0  0  0
   37.6880   28.5610   35.5090 H   0  0  0  0  0  0  0  0  0  0  0  0
   38.3150   26.7200   37.2880 H   0  0  0  0  0  0  0  0  0  0  0  0
   40.0230   27.7590   35.8070 H   0  0  0  0  0  0  0  0  0  0  0  0
   39.7140   26.3640   34.5610 H   0  0  0  0  0  0  0  0  0  0  0  0
   37.2050   27.1280   33.9650 C   0  0  0  0  0  0  0  0  0  0  0  0
   36.5050   28.1630   33.3210 C   0  0  0  0  0  0  0  0  0  0  0  0
   35.8810   27.7870   32.1230 C   0  0  0  0  0  0  0  0  0  0  0  0
   35.9650   26.5040   31.6460 N   0  0  0  0  0  0  0  0  0  0  0  0
   36.6590   25.5540   32.3200 C   0  0  0  0  0  0  0  0  0  0  0  0
   37.2810   25.8800   33.4900 N   0  0  0  0  0  0  0  0  0  0  0  0
   36.4440   29.1690   33.7040 H   0  0  0  0  0  0  0  0  0  0  0  0
   35.3500   28.5840   31.6390 H   0  0  0  0  0  0  0  0  0  0  0  0
   36.6770   24.5820   31.8830 H   0  0  0  0  0  0  0  0  0  0  0  0
   37.8580   25.1360   35.9900 O   0  0  0  0  0  0  0  0  0  0  0  0
   37.7110   24.2100   36.9910 C   0  0  0  0  0  0  0  0  0  0  0  0
   37.3730   23.1860   36.9470 H   0  0  0  0  0  0  0  0  0  0  0  0
   37.9850   24.4930   38.1850 O   0  0  0  0  0  0  0  0  0  0  0  0
  1  3  1  0  0  0  0
  1  4  1  1  0  0  0
  1  2  1  0  0  0  0
  2  5  1  1  0  0  0
  3  6  1  0  0  0  0
  3  2  1  0  0  0  0
  7  3  1  0  0  0  0
  8  1  1  0  0  0  0
  9 14  1  0  0  0  0
  9  8  2  0  0  0  0
 10  9  1  0  0  0  0
 11 10  2  0  0  0  0
 11 12  1  0  0  0  0
 12 13  2  0  0  0  0
 13  8  1  0  0  0  0
 15 10  1  0  0  0  0
 16 12  1  0  0  0  0
 17  2  1  0  0  0  0
 17 18  1  0  0  0  0
 18 20  2  0  0  0  0
 19 18  1  0  0  0  0
M  END
>  <minimizedAffinity>
-3.67223358

$$$$

 OpenBabel03272507173D

 20 21  0  0  1  0  0  0  0  0999 V2000
   37.8830   24.0430   37.0360 C   0  0  1  0  0  0  0  0  0  0  0  0
   38.6070   23.1340   37.8970 C   0  0  2  0  0  0  0  0  0  0  0  0
   37.9900   24.3650   38.5320 C   0  0  0  0  0  0  0  0  0  0  0  0
   36.8480   23.8770   36.6630 H   0  0  0  0  0  0  0  0  0  0  0  0
   38.1610   22.1880   38.2010 H   0  0  0  0  0  0  0  0  0  0  0  0
   37.0520   24.2170   39.1190 H   0  0  0  0  0  0  0  0  0  0  0  0
   38.6790   25.1570   38.8640 H   0  0  0  0  0  0  0  0  0  0  0  0
   38.6020   25.0420   36.1770 C   0  0  0  0  0  0  0  0  0  0  0  0
   38.2350   26.3860   36.3600 C   0  0  0  0  0  0  0  0  0  0  0  0
   38.9010   27.2910   35.5210 C   0  0  0  0  0  0  0  0  0  0  0  0
   39.8290   26.8650   34.6050 N   0  0  0  0  0  0  0  0  0  0  0  0
   40.1350   25.5500   34.4830 C   0  0  0  0  0  0  0  0  0  0  0  0
   39.5100   24.6370   35.2810 N   0  0  0  0  0  0  0  0  0  0  0  0
   37.5040   26.7120   37.0820 H   0  0  0  0  0  0  0  0  0  0  0  0
   38.6140   28.3140   35.6680 H   0  0  0  0  0  0  0  0  0  0  0  0
   40.8660   25.3010   33.7480 H   0  0  0  0  0  0  0  0  0  0  0  0
   40.0110   23.1110   37.8450 O   0  0  0  0  0  0  0  0  0  0  0  0
   40.7280   21.9910   37.5070 C   0  0  0  0  0  0  0  0  0  0  0  0
   41.0530   21.1630   38.1170 H   0  0  0  0  0  0  0  0  0  0  0  0
   41.1180   21.8010   36.3270 O   0  0  0  0  0  0  0  0  0  0  0  0
  1  4  1  6  0  0  0
  1  2  1  0  0  0  0
  1  3  1  0  0  0  0
  2  5  1  1  0  0  0
  2  3  1  0  0  0  0
  3  7  1  0  0  0  0
  3  6  1  0  0  0  0
  8  9  1  0  0  0  0
  8  1  1  0  0  0  0
  9 14  1  0  0  0  0
 10 15  1  0  0  0  0
 10  9  2  0  0  0  0
 11 10  1  0  0  0  0
 12 11  2  0  0  0  0
 12 13  1  0  0  0  0
 13  8  2  0  0  0  0
 16 12  1  0  0  0  0
 17  2  1  0  0  0  0
 18 17  1  0  0  0  0
 18 19  1  0  0  0  0
 20 18  2  0  0  0  0
M  END
>  <minimizedAffinity>
-3.65543032

$$$$

 OpenBabel03272507173D

 20 21  0  0  1  0  0  0  0  0999 V2000
   39.0810   23.1550   35.1900 C   0  0  1  0  0  0  0  0  0  0  0  0
   39.2710   22.4270   36.4250 C   0  0  2  0  0  0  0  0  0  0  0  0
   37.8670   22.4950   35.8550 C   0  0  0  0  0  0  0  0  0  0  0  0
   39.3310   22.7660   34.1780 H   0  0  0  0  0  0  0  0  0  0  0  0
   39.7210   21.4340   36.4180 H   0  0  0  0  0  0  0  0  0  0  0  0
   37.4820   21.5810   35.3440 H   0  0  0  0  0  0  0  0  0  0  0  0
   37.1390   23.1230   36.3910 H   0  0  0  0  0  0  0  0  0  0  0  0
   38.9880   24.6520   35.1750 C   0  0  0  0  0  0  0  0  0  0  0  0
   40.1890   25.3410   34.9290 C   0  0  0  0  0  0  0  0  0  0  0  0
   40.0750   26.7380   34.9540 C   0  0  0  0  0  0  0  0  0  0  0  0
   38.8730   27.3520   35.2010 N   0  0  0  0  0  0  0  0  0  0  0  0
   37.7530   26.6240   35.4300 C   0  0  0  0  0  0  0  0  0  0  0  0
   37.8210   25.2620   35.4140 N   0  0  0  0  0  0  0  0  0  0  0  0
   41.1280   24.8500   34.7360 H   0  0  0  0  0  0  0  0  0  0  0  0
   40.9960   27.2550   34.7650 H   0  0  0  0  0  0  0  0  0  0  0  0
   36.8590   27.1760   35.6140 H   0  0  0  0  0  0  0  0  0  0  0  0
   39.4830   23.1390   37.6160 O   0  0  0  0  0  0  0  0  0  0  0  0
   38.4910   23.3700   38.5360 C   0  0  0  0  0  0  0  0  0  0  0  0
   37.9410   22.6780   39.1550 H   0  0  0  0  0  0  0  0  0  0  0  0
   38.0800   24.5350   38.7710 O   0  0  0  0  0  0  0  0  0  0  0  0
  1  4  1  6  0  0  0
  1  3  1  0  0  0  0
  1  2  1  0  0  0  0
  2  5  1  6  0  0  0
  2 17  1  0  0  0  0
  3  7  1  0  0  0  0
  3  2  1  0  0  0  0
  6  3  1  0  0  0  0
  8  1  1  0  0  0  0
  8 13  1  0  0  0  0
  9 10  1  0  0  0  0
  9  8  2  0  0  0  0
 10 11  2  0  0  0  0
 11 12  1  0  0  0  0
 12 16  1  0  0  0  0
 13 12  2  0  0  0  0
 14  9  1  0  0  0  0
 15 10  1  0  0  0  0
 17 18  1  0  0  0  0
 18 20  2  0  0  0  0
 18 19  1  0  0  0  0
M  END
>  <minimizedAffinity>
-3.3742373

$$$$

 OpenBabel03272507173D

 20 21  0  0  1  0  0  0  0  0999 V2000
   39.2220   26.1090   35.1180 C   0  0  1  0  0  0  0  0  0  0  0  0
   38.4340   27.0610   34.3680 C   0  0  2  0  0  0  0  0  0  0  0  0
   38.5990   27.3000   35.8560 C   0  0  0  0  0  0  0  0  0  0  0  0
   40.3350   26.0770   35.1340 H   0  0  0  0  0  0  0  0  0  0  0  0
   38.9200   27.7980   33.7280 H   0  0  0  0  0  0  0  0  0  0  0  0
   39.3170   28.0970   36.1660 H   0  0  0  0  0  0  0  0  0  0  0  0
   37.7150   27.1370   36.4910 H   0  0  0  0  0  0  0  0  0  0  0  0
   38.6480   24.7940   35.5550 C   0  0  0  0  0  0  0  0  0  0  0  0
   38.7500   23.7400   34.6310 C   0  0  0  0  0  0  0  0  0  0  0  0
   38.1750   22.5340   35.0560 C   0  0  0  0  0  0  0  0  0  0  0  0
   37.5670   22.4250   36.2810 N   0  0  0  0  0  0  0  0  0  0  0  0
   37.5050   23.4850   37.1240 C   0  0  0  0  0  0  0  0  0  0  0  0
   38.0530   24.6770   36.7480 N   0  0  0  0  0  0  0  0  0  0  0  0
   39.2290   23.8340   33.6700 H   0  0  0  0  0  0  0  0  0  0  0  0
   38.2580   21.7360   34.3440 H   0  0  0  0  0  0  0  0  0  0  0  0
   37.0160   23.3190   38.0580 H   0  0  0  0  0  0  0  0  0  0  0  0
   37.1440   26.7020   33.9450 O   0  0  0  0  0  0  0  0  0  0  0  0
   36.8460   26.3790   32.6450 C   0  0  0  0  0  0  0  0  0  0  0  0
   36.8600   26.9900   31.7560 H   0  0  0  0  0  0  0  0  0  0  0  0
   36.4890   25.2160   32.3300 O   0  0  0  0  0  0  0  0  0  0  0  0
  1  4  1  6  0  0  0
  1  8  1  0  0  0  0
  1  3  1  0  0  0  0
  2  5  1  6  0  0  0
  2  1  1  0  0  0  0
  2  3  1  0  0  0  0
  3  6  1  0  0  0  0
  3  7  1  0  0  0  0
  8 13  1  0  0  0  0
  9 10  1  0  0  0  0
  9  8  2  0  0  0  0
 10 11  2  0  0  0  0
 11 12  1  0  0  0  0
 12 16  1  0  0  0  0
 13 12  2  0  0  0  0
 14  9  1  0  0  0  0
 15 10  1  0  0  0  0
 17  2  1  0  0  0  0
 18 17  1  0  0  0  0
 19 18  1  0  0  0  0
 20 18  2  0  0  0  0
M  END
>  <minimizedAffinity>
-3.31887579

$$$$

 OpenBabel03272507173D

 20 21  0  0  1  0  0  0  0  0999 V2000
   38.7070   23.7140   34.4640 C   0  0  1  0  0  0  0  0  0  0  0  0
   39.3240   24.8390   33.7960 C   0  0  2  0  0  0  0  0  0  0  0  0
   40.0570   23.5120   33.7650 C   0  0  0  0  0  0  0  0  0  0  0  0
   37.8690   23.1100   34.0510 H   0  0  0  0  0  0  0  0  0  0  0  0
   38.9510   25.1800   32.8300 H   0  0  0  0  0  0  0  0  0  0  0  0
   40.0180   22.9320   32.8120 H   0  0  0  0  0  0  0  0  0  0  0  0
   40.9710   23.4300   34.3730 H   0  0  0  0  0  0  0  0  0  0  0  0
   38.7970   23.5480   35.9520 C   0  0  0  0  0  0  0  0  0  0  0  0
   37.7750   24.1550   36.7020 C   0  0  0  0  0  0  0  0  0  0  0  0
   37.9060   24.0080   38.0910 C   0  0  0  0  0  0  0  0  0  0  0  0
   38.9580   23.3220   38.6410 N   0  0  0  0  0  0  0  0  0  0  0  0
   39.9100   22.7590   37.8550 C   0  0  0  0  0  0  0  0  0  0  0  0
   39.8190   22.8790   36.4990 N   0  0  0  0  0  0  0  0  0  0  0  0
   36.9520   24.6930   36.2620 H   0  0  0  0  0  0  0  0  0  0  0  0
   37.1210   24.4760   38.6550 H   0  0  0  0  0  0  0  0  0  0  0  0
   40.6950   22.2430   38.3600 H   0  0  0  0  0  0  0  0  0  0  0  0
   39.9220   25.8510   34.5650 O   0  0  0  0  0  0  0  0  0  0  0  0
   39.3220   27.0610   34.8020 C   0  0  0  0  0  0  0  0  0  0  0  0
   39.0910   27.8690   34.1240 H   0  0  0  0  0  0  0  0  0  0  0  0
   38.9430   27.3840   35.9570 O   0  0  0  0  0  0  0  0  0  0  0  0
  1  4  1  6  0  0  0
  1  8  1  0  0  0  0
  2  5  1  6  0  0  0
  2  1  1  0  0  0  0
  2 17  1  0  0  0  0
  3  2  1  0  0  0  0
  3  7  1  0  0  0  0
  3  1  1  0  0  0  0
  6  3  1  0  0  0  0
  8 13  2  0  0  0  0
  8  9  1  0  0  0  0
  9 10  2  0  0  0  0
 10 11  1  0  0  0  0
 10 15  1  0  0  0  0
 12 16  1  0  0  0  0
 12 11  2  0  0  0  0
 13 12  1  0  0  0  0
 14  9  1  0  0  0  0
 17 18  1  0  0  0  0
 18 20  2  0  0  0  0
 19 18  1  0  0  0  0
M  END
>  <minimizedAffinity>
-3.24075127

$$$$

 OpenBabel03272507173D

 20 21  0  0  1  0  0  0  0  0999 V2000
   38.6890   26.1240   34.7760 C   0  0  1  0  0  0  0  0  0  0  0  0
   37.8090   25.8190   35.8820 C   0  0  2  0  0  0  0  0  0  0  0  0
   38.3890   27.2190   35.8080 C   0  0  0  0  0  0  0  0  0  0  0  0
   38.3530   26.3510   33.7400 H   0  0  0  0  0  0  0  0  0  0  0  0
   36.7320   25.7610   35.7310 H   0  0  0  0  0  0  0  0  0  0  0  0
   37.7100   28.0320   35.4570 H   0  0  0  0  0  0  0  0  0  0  0  0
   39.1570   27.4830   36.5510 H   0  0  0  0  0  0  0  0  0  0  0  0
   40.1280   25.7010   34.7850 C   0  0  0  0  0  0  0  0  0  0  0  0
   41.0610   26.6840   34.4130 C   0  0  0  0  0  0  0  0  0  0  0  0
   42.3940   26.2480   34.4000 C   0  0  0  0  0  0  0  0  0  0  0  0
   42.7260   24.9580   34.7290 N   0  0  0  0  0  0  0  0  0  0  0  0
   41.7720   24.0610   35.0800 C   0  0  0  0  0  0  0  0  0  0  0  0
   40.4640   24.4460   35.1050 N   0  0  0  0  0  0  0  0  0  0  0  0
   40.7910   27.6950   34.1550 H   0  0  0  0  0  0  0  0  0  0  0  0
   43.0980   27.0050   34.1140 H   0  0  0  0  0  0  0  0  0  0  0  0
   42.1130   23.0790   35.3220 H   0  0  0  0  0  0  0  0  0  0  0  0
   38.2820   25.0160   36.9330 O   0  0  0  0  0  0  0  0  0  0  0  0
   37.6330   23.8850   37.3590 C   0  0  0  0  0  0  0  0  0  0  0  0
   36.8020   23.3520   36.9210 H   0  0  0  0  0  0  0  0  0  0  0  0
   37.9790   23.2950   38.4140 O   0  0  0  0  0  0  0  0  0  0  0  0
  1  4  1  6  0  0  0
  1  8  1  0  0  0  0
  1  3  1  0  0  0  0
  1  2  1  0  0  0  0
  2  5  1  6  0  0  0
  2 17  1  0  0  0  0
  3  2  1  0  0  0  0
  3  7  1  0  0  0  0
  6  3  1  0  0  0  0
  8 13  1  0  0  0  0
  9  8  2  0  0  0  0
 10  9  1  0  0  0  0
 10 11  2  0  0  0  0
 11 12  1  0  0  0  0
 12 13  2  0  0  0  0
 12 16  1  0  0  0  0
 14  9  1  0  0  0  0
 15 10  1  0  0  0  0
 17 18  1  0  0  0  0
 18 20  2  0  0  0  0
 19 18  1  0  0  0  0
M  END
>  <minimizedAffinity>
-3.21058369

$$$$

 OpenBabel03272507173D

 20 21  0  0  1  0  0  0  0  0999 V2000
   37.9880   22.1890   34.6310 C   0  0  1  0  0  0  0  0  0  0  0  0
   38.0920   23.0920   33.5060 C   0  0  2  0  0  0  0  0  0  0  0  0
   39.1790   22.0470   33.6740 C   0  0  0  0  0  0  0  0  0  0  0  0
   37.3140   21.3040   34.6770 H   0  0  0  0  0  0  0  0  0  0  0  0
   37.4580   22.9580   32.6300 H   0  0  0  0  0  0  0  0  0  0  0  0
   39.1410   21.1620   32.9940 H   0  0  0  0  0  0  0  0  0  0  0  0
   40.1710   22.4020   33.9920 H   0  0  0  0  0  0  0  0  0  0  0  0
   38.4040   22.6100   36.0100 C   0  0  0  0  0  0  0  0  0  0  0  0
   39.7140   22.2710   36.3880 C   0  0  0  0  0  0  0  0  0  0  0  0
   40.0600   22.6500   37.6930 C   0  0  0  0  0  0  0  0  0  0  0  0
   39.1680   23.2980   38.5090 N   0  0  0  0  0  0  0  0  0  0  0  0
   37.9170   23.5940   38.0770 C   0  0  0  0  0  0  0  0  0  0  0  0
   37.5410   23.2430   36.8140 N   0  0  0  0  0  0  0  0  0  0  0  0
   40.4080   21.7620   35.7410 H   0  0  0  0  0  0  0  0  0  0  0  0
   41.0620   22.3870   37.9730 H   0  0  0  0  0  0  0  0  0  0  0  0
   37.2840   24.0990   38.7720 H   0  0  0  0  0  0  0  0  0  0  0  0
   38.4840   24.4220   33.7280 O   0  0  0  0  0  0  0  0  0  0  0  0
   37.6010   25.4720   33.7170 C   0  0  0  0  0  0  0  0  0  0  0  0
   37.0770   25.9320   32.8940 H   0  0  0  0  0  0  0  0  0  0  0  0
   37.2830   26.0650   34.7800 O   0  0  0  0  0  0  0  0  0  0  0  0
  1  4  1  6  0  0  0
  1  8  1  0  0  0  0
  2  5  1  6  0  0  0
  2  3  1  0  0  0  0
  2 17  1  0  0  0  0
  2  1  1  0  0  0  0
  3  7  1  0  0  0  0
  3  1  1  0  0  0  0
  6  3  1  0  0  0  0
  8  9  2  0  0  0  0
  8 13  1  0  0  0  0
  9 10  1  0  0  0  0
 10 15  1  0  0  0  0
 10 11  2  0  0  0  0
 12 11  1  0  0  0  0
 12 16  1  0  0  0  0
 13 12  2  0  0  0  0
 14  9  1  0  0  0  0
 18 17  1  0  0  0  0
 18 20  2  0  0  0  0
 19 18  1  0  0  0  0
M  END
>  <minimizedAffinity>
-3.17171526

$$$$

 OpenBabel03272507173D

 20 21  0  0  1  0  0  0  0  0999 V2000
   37.9710   26.3130   35.0630 C   0  0  1  0  0  0  0  0  0  0  0  0
   39.3790   26.6270   35.1560 C   0  0  2  0  0  0  0  0  0  0  0  0
   38.4060   27.5270   35.8930 C   0  0  0  0  0  0  0  0  0  0  0  0
   37.4590   25.5090   35.6390 H   0  0  0  0  0  0  0  0  0  0  0  0
   40.0350   26.0390   35.7960 H   0  0  0  0  0  0  0  0  0  0  0  0
   38.3340   27.3980   37.0000 H   0  0  0  0  0  0  0  0  0  0  0  0
   38.2530   28.5390   35.4880 H   0  0  0  0  0  0  0  0  0  0  0  0
   37.1640   26.6960   33.8580 C   0  0  0  0  0  0  0  0  0  0  0  0
   37.0270   25.7070   32.8690 C   0  0  0  0  0  0  0  0  0  0  0  0
   36.2950   26.1080   31.7410 C   0  0  0  0  0  0  0  0  0  0  0  0
   35.7700   27.3710   31.6430 N   0  0  0  0  0  0  0  0  0  0  0  0
   35.9400   28.2760   32.6380 C   0  0  0  0  0  0  0  0  0  0  0  0
   36.6460   27.9260   33.7520 N   0  0  0  0  0  0  0  0  0  0  0  0
   37.4440   24.7180   32.9540 H   0  0  0  0  0  0  0  0  0  0  0  0
   36.1960   25.3470   30.9920 H   0  0  0  0  0  0  0  0  0  0  0  0
   35.5010   29.2360   32.4850 H   0  0  0  0  0  0  0  0  0  0  0  0
   40.0270   27.2030   34.0510 O   0  0  0  0  0  0  0  0  0  0  0  0
   41.3800   27.1060   33.8440 C   0  0  0  0  0  0  0  0  0  0  0  0
   42.0230   27.6540   33.1730 H   0  0  0  0  0  0  0  0  0  0  0  0
   42.0780   26.2800   34.4860 O   0  0  0  0  0  0  0  0  0  0  0  0
  1  2  1  0  0  0  0
  1  4  1  1  0  0  0
  1  3  1  0  0  0  0
  2  5  1  1  0  0  0
  2  3  1  0  0  0  0
  3  6  1  0  0  0  0
  7  3  1  0  0  0  0
  8  1  1  0  0  0  0
  9 14  1  0  0  0  0
  9  8  2  0  0  0  0
 10  9  1  0  0  0  0
 11 10  2  0  0  0  0
 11 12  1  0  0  0  0
 12 13  2  0  0  0  0
 13  8  1  0  0  0  0
 15 10  1  0  0  0  0
 16 12  1  0  0  0  0
 17  2  1  0  0  0  0
 18 17  1  0  0  0  0
 18 20  2  0  0  0  0
 19 18  1  0  0  0  0
M  END
>  <minimizedAffinity>
-3.1624887

$$$$

 OpenBabel03272507173D

 20 21  0  0  1  0  0  0  0  0999 V2000
   38.7310   23.2160   37.7920 C   0  0  1  0  0  0  0  0  0  0  0  0
   38.1000   24.4840   37.4980 C   0  0  2  0  0  0  0  0  0  0  0  0
   37.3320   23.2200   37.1630 C   0  0  0  0  0  0  0  0  0  0  0  0
   38.7900   22.7540   38.8030 H   0  0  0  0  0  0  0  0  0  0  0  0
   37.6690   25.0850   38.2980 H   0  0  0  0  0  0  0  0  0  0  0  0
   36.5000   22.9350   37.8500 H   0  0  0  0  0  0  0  0  0  0  0  0
   37.2200   22.9690   36.0970 H   0  0  0  0  0  0  0  0  0  0  0  0
   39.7710   22.6340   36.8810 C   0  0  0  0  0  0  0  0  0  0  0  0
   40.9450   22.1730   37.5030 C   0  0  0  0  0  0  0  0  0  0  0  0
   41.9100   21.6650   36.6220 C   0  0  0  0  0  0  0  0  0  0  0  0
   41.6950   21.6340   35.2680 N   0  0  0  0  0  0  0  0  0  0  0  0
   40.5370   22.0960   34.7350 C   0  0  0  0  0  0  0  0  0  0  0  0
   39.5720   22.5980   35.5580 N   0  0  0  0  0  0  0  0  0  0  0  0
   41.1050   22.2010   38.5680 H   0  0  0  0  0  0  0  0  0  0  0  0
   42.8020   21.3160   37.1060 H   0  0  0  0  0  0  0  0  0  0  0  0
   40.4470   22.0370   33.6740 H   0  0  0  0  0  0  0  0  0  0  0  0
   38.5500   25.2360   36.4000 O   0  0  0  0  0  0  0  0  0  0  0  0
   37.7040   25.7480   35.4490 C   0  0  0  0  0  0  0  0  0  0  0  0
   36.9590   26.5250   35.5270 H   0  0  0  0  0  0  0  0  0  0  0  0
   37.7160   25.3170   34.2680 O   0  0  0  0  0  0  0  0  0  0  0  0
  1  4  1  1  0  0  0
  2  1  1  0  0  0  0
  2  5  1  1  0  0  0
  3  2  1  0  0  0  0
  3  1  1  0  0  0  0
  3  6  1  0  0  0  0
  7  3  1  0  0  0  0
  8  9  1  0  0  0  0
  8  1  1  0  0  0  0
  9 14  1  0  0  0  0
 10 15  1  0  0  0  0
 10  9  2  0  0  0  0
 11 10  1  0  0  0  0
 12 11  2  0  0  0  0
 12 13  1  0  0  0  0
 13  8  2  0  0  0  0
 16 12  1  0  0  0  0
 17  2  1  0  0  0  0
 18 19  1  0  0  0  0
 18 17  1  0  0  0  0
 20 18  2  0  0  0  0
M  END
>  <minimizedAffinity>
-3.14364123

$$$$
