
 OpenBabel03272509453D

 13 13  0  0  0  0  0  0  0  0999 V2000
   37.3900   30.2940   51.4100 C   0  0  0  0  0  0  0  0  0  0  0  0
   38.1230   30.8590   50.3400 C   0  0  0  0  0  0  0  0  0  0  0  0
   37.7840   30.5070   49.0280 C   0  0  0  0  0  0  0  0  0  0  0  0
   36.7470   29.6240   48.8530 N   0  0  0  0  0  0  0  0  0  0  0  0
   36.0680   29.1050   49.9130 C   0  0  0  0  0  0  0  0  0  0  0  0
   36.3970   29.4450   51.1710 N   0  0  0  0  0  0  0  0  0  0  0  0
   37.6870   30.5940   52.4060 H   0  0  0  0  0  0  0  0  0  0  0  0
   38.9440   31.5560   50.4470 H   0  0  0  0  0  0  0  0  0  0  0  0
   38.3210   30.9180   48.2100 H   0  0  0  0  0  0  0  0  0  0  0  0
   35.0680   28.2420   49.5200 O   0  0  0  0  0  0  0  0  0  0  0  0
   34.2040   28.5970   48.4990 C   0  0  0  0  0  0  0  0  0  0  0  0
   34.7390   28.8290   47.5730 H   0  0  0  0  0  0  0  0  0  0  0  0
   33.2370   28.4280   49.3140 O   0  0  0  0  0  0  0  0  0  0  0  0
  1  7  1  0  0  0  0
  2  8  1  0  0  0  0
  2  1  2  0  0  0  0
  3  2  1  0  0  0  0
  4  3  2  0  0  0  0
  4  5  1  0  0  0  0
  5  6  2  0  0  0  0
  6  1  1  0  0  0  0
  9  3  1  0  0  0  0
 10  5  1  0  0  0  0
 11 13  2  0  0  0  0
 11 10  1  0  0  0  0
 12 11  1  0  0  0  0
M  END
>  <minimizedAffinity>
-3.38436151

>  <minimizedRMSD>
0.698944032

$$$$
