
 OpenBabel03272507263D

 31 32  0  0  1  0  0  0  0  0999 V2000
   35.7750   24.3590   31.1780 C   0  0  0  0  0  0  0  0  0  0  0  0
   36.6770   24.8850   32.1250 C   0  0  0  0  0  0  0  0  0  0  0  0
   37.4050   23.9810   32.9090 C   0  0  0  0  0  0  0  0  0  0  0  0
   37.2030   22.6660   32.7130 N   0  0  0  0  0  0  0  0  0  0  0  0
   36.3320   22.1930   31.7980 C   0  0  0  0  0  0  0  0  0  0  0  0
   35.6280   23.0350   31.0400 N   0  0  0  0  0  0  0  0  0  0  0  0
   38.3190   24.4440   33.8700 N   0  0  0  0  0  0  0  0  0  0  0  0
   39.0620   25.6960   33.7860 C   0  0  0  0  0  0  0  0  0  0  0  0
   40.0720   25.6780   34.8890 C   0  0  0  0  0  0  0  0  0  0  0  0
   40.1590   24.2340   35.2200 C   0  0  0  0  0  0  0  0  0  0  0  0
   38.7060   23.8190   35.0870 C   0  0  2  0  0  0  0  0  0  0  0  0
   35.2080   25.0580   30.5680 H   0  0  0  0  0  0  0  0  0  0  0  0
   36.7930   25.9510   32.2330 H   0  0  0  0  0  0  0  0  0  0  0  0
   36.2030   21.1150   31.6750 H   0  0  0  0  0  0  0  0  0  0  0  0
   39.5690   25.6480   32.7790 H   0  0  0  0  0  0  0  0  0  0  0  0
   38.4100   26.5760   33.7480 H   0  0  0  0  0  0  0  0  0  0  0  0
   39.9050   26.3780   35.7080 H   0  0  0  0  0  0  0  0  0  0  0  0
   41.0490   25.9690   34.4500 H   0  0  0  0  0  0  0  0  0  0  0  0
   40.7710   23.7230   34.4400 H   0  0  0  0  0  0  0  0  0  0  0  0
   40.5470   24.0470   36.2500 H   0  0  0  0  0  0  0  0  0  0  0  0
   38.5360   22.3460   35.2150 C   0  0  0  0  0  0  0  0  0  0  0  0
   39.3100   21.9430   36.2960 F   0  0  0  0  0  0  0  0  0  0  0  0
   38.9360   21.6110   34.1490 F   0  0  0  0  0  0  0  0  0  0  0  0
   37.2190   22.1230   35.5850 F   0  0  0  0  0  0  0  0  0  0  0  0
   37.9140   24.4650   36.1850 C   0  0  0  0  0  0  0  0  0  0  0  0
   36.8570   24.0550   36.2410 H   0  0  0  0  0  0  0  0  0  0  0  0
   37.7420   25.5170   35.8460 H   0  0  0  0  0  0  0  0  0  0  0  0
   38.5370   24.2930   37.2270 O   0  0  0  0  0  0  0  0  0  0  0  0
   38.1370   24.1140   38.5420 C   0  0  0  0  0  0  0  0  0  0  0  0
   38.3180   24.8020   39.3550 H   0  0  0  0  0  0  0  0  0  0  0  0
   37.5180   23.0200   38.6750 O   0  0  0  0  0  0  0  0  0  0  0  0
  1  2  1  0  0  0  0
  2 13  1  0  0  0  0
  2  3  2  0  0  0  0
  3  7  1  0  0  0  0
  4  3  1  0  0  0  0
  5  4  2  0  0  0  0
  6  1  2  0  0  0  0
  6  5  1  0  0  0  0
  7 11  1  0  0  0  0
  8  7  1  0  0  0  0
  8  9  1  0  0  0  0
  9 10  1  0  0  0  0
  9 17  1  0  0  0  0
 10 20  1  0  0  0  0
 11 21  1  6  0  0  0
 11 10  1  0  0  0  0
 11 25  1  0  0  0  0
 12  1  1  0  0  0  0
 14  5  1  0  0  0  0
 15  8  1  0  0  0  0
 16  8  1  0  0  0  0
 18  9  1  0  0  0  0
 19 10  1  0  0  0  0
 21 24  1  0  0  0  0
 21 22  1  0  0  0  0
 23 21  1  0  0  0  0
 25 26  1  0  0  0  0
 25 28  1  0  0  0  0
 27 25  1  0  0  0  0
 28 29  1  0  0  0  0
 29 31  2  0  0  0  0
 29 30  1  0  0  0  0
M  END
>  <minimizedAffinity>
-4.3845396

$$$$

 OpenBabel03272507263D

 31 32  0  0  1  0  0  0  0  0999 V2000
   37.4380   27.3430   32.3740 C   0  0  0  0  0  0  0  0  0  0  0  0
   37.8990   26.0440   32.6740 C   0  0  0  0  0  0  0  0  0  0  0  0
   37.7280   25.5750   33.9820 C   0  0  0  0  0  0  0  0  0  0  0  0
   37.1340   26.3860   34.8750 N   0  0  0  0  0  0  0  0  0  0  0  0
   36.7030   27.6240   34.5580 C   0  0  0  0  0  0  0  0  0  0  0  0
   36.8560   28.0930   33.3170 N   0  0  0  0  0  0  0  0  0  0  0  0
   38.1660   24.2890   34.3420 N   0  0  0  0  0  0  0  0  0  0  0  0
   38.2450   23.1460   33.4390 C   0  0  0  0  0  0  0  0  0  0  0  0
   38.5380   21.9460   34.2810 C   0  0  0  0  0  0  0  0  0  0  0  0
   38.1340   22.3980   35.6360 C   0  0  0  0  0  0  0  0  0  0  0  0
   38.6120   23.8370   35.6140 C   0  0  2  0  0  0  0  0  0  0  0  0
   37.5700   27.7110   31.3600 H   0  0  0  0  0  0  0  0  0  0  0  0
   38.3670   25.4440   31.9120 H   0  0  0  0  0  0  0  0  0  0  0  0
   36.2250   28.2460   35.3180 H   0  0  0  0  0  0  0  0  0  0  0  0
   37.2110   23.0780   32.9910 H   0  0  0  0  0  0  0  0  0  0  0  0
   38.9240   23.3170   32.5950 H   0  0  0  0  0  0  0  0  0  0  0  0
   39.5290   21.5060   34.1670 H   0  0  0  0  0  0  0  0  0  0  0  0
   37.8270   21.1480   33.9820 H   0  0  0  0  0  0  0  0  0  0  0  0
   37.0210   22.3700   35.7070 H   0  0  0  0  0  0  0  0  0  0  0  0
   38.6230   21.8150   36.4520 H   0  0  0  0  0  0  0  0  0  0  0  0
   38.1770   24.5840   36.8260 C   0  0  0  0  0  0  0  0  0  0  0  0
   36.7880   24.5760   36.8280 F   0  0  0  0  0  0  0  0  0  0  0  0
   38.5630   25.8820   36.8890 F   0  0  0  0  0  0  0  0  0  0  0  0
   38.5640   23.8320   37.9250 F   0  0  0  0  0  0  0  0  0  0  0  0
   40.1120   23.8510   35.5860 C   0  0  0  0  0  0  0  0  0  0  0  0
   40.5240   24.9080   35.5620 H   0  0  0  0  0  0  0  0  0  0  0  0
   40.3920   23.4640   34.5750 H   0  0  0  0  0  0  0  0  0  0  0  0
   40.4950   23.2230   36.5680 O   0  0  0  0  0  0  0  0  0  0  0  0
   41.6420   22.4880   36.8220 C   0  0  0  0  0  0  0  0  0  0  0  0
   42.6340   22.7230   36.4640 H   0  0  0  0  0  0  0  0  0  0  0  0
   41.3780   21.4840   37.5430 O   0  0  0  0  0  0  0  0  0  0  0  0
  1  2  2  0  0  0  0
  1  6  1  0  0  0  0
  2  3  1  0  0  0  0
  3  7  1  0  0  0  0
  3  4  2  0  0  0  0
  5  4  1  0  0  0  0
  5 14  1  0  0  0  0
  6  5  2  0  0  0  0
  7 11  1  0  0  0  0
  8  9  1  0  0  0  0
  8  7  1  0  0  0  0
  9 10  1  0  0  0  0
 10 19  1  0  0  0  0
 10 20  1  0  0  0  0
 11 25  1  6  0  0  0
 11 10  1  0  0  0  0
 11 21  1  0  0  0  0
 12  1  1  0  0  0  0
 13  2  1  0  0  0  0
 15  8  1  0  0  0  0
 16  8  1  0  0  0  0
 17  9  1  0  0  0  0
 18  9  1  0  0  0  0
 21 22  1  0  0  0  0
 21 23  1  0  0  0  0
 21 24  1  0  0  0  0
 25 28  1  0  0  0  0
 26 25  1  0  0  0  0
 27 25  1  0  0  0  0
 28 29  1  0  0  0  0
 29 31  2  0  0  0  0
 30 29  1  0  0  0  0
M  END
>  <minimizedAffinity>
-4.32457209

$$$$

 OpenBabel03272507263D

 31 32  0  0  1  0  0  0  0  0999 V2000
   42.3990   21.8560   36.3020 C   0  0  0  0  0  0  0  0  0  0  0  0
   42.1300   23.0300   35.5680 C   0  0  0  0  0  0  0  0  0  0  0  0
   40.9510   23.7280   35.8600 C   0  0  0  0  0  0  0  0  0  0  0  0
   40.1460   23.2410   36.8200 N   0  0  0  0  0  0  0  0  0  0  0  0
   40.4320   22.1140   37.5050 C   0  0  0  0  0  0  0  0  0  0  0  0
   41.5490   21.4320   37.2450 N   0  0  0  0  0  0  0  0  0  0  0  0
   40.6270   24.9040   35.1630 N   0  0  0  0  0  0  0  0  0  0  0  0
   41.5950   25.8350   34.5930 C   0  0  0  0  0  0  0  0  0  0  0  0
   40.8300   27.0420   34.1530 C   0  0  0  0  0  0  0  0  0  0  0  0
   39.5710   26.9240   34.9280 C   0  0  0  0  0  0  0  0  0  0  0  0
   39.3370   25.4260   34.8720 C   0  0  2  0  0  0  0  0  0  0  0  0
   43.3130   21.3120   36.0780 H   0  0  0  0  0  0  0  0  0  0  0  0
   42.8170   23.3680   34.8100 H   0  0  0  0  0  0  0  0  0  0  0  0
   39.7460   21.7580   38.2780 H   0  0  0  0  0  0  0  0  0  0  0  0
   42.2770   26.0860   35.4560 H   0  0  0  0  0  0  0  0  0  0  0  0
   42.2360   25.3700   33.8340 H   0  0  0  0  0  0  0  0  0  0  0  0
   40.7530   27.1980   33.0770 H   0  0  0  0  0  0  0  0  0  0  0  0
   41.3660   27.9340   34.5400 H   0  0  0  0  0  0  0  0  0  0  0  0
   39.7650   27.2380   35.9800 H   0  0  0  0  0  0  0  0  0  0  0  0
   38.7240   27.4880   34.4690 H   0  0  0  0  0  0  0  0  0  0  0  0
   38.1930   25.0110   35.7300 C   0  0  0  0  0  0  0  0  0  0  0  0
   37.1560   25.9000   35.4750 F   0  0  0  0  0  0  0  0  0  0  0  0
   38.4170   25.0400   37.0660 F   0  0  0  0  0  0  0  0  0  0  0  0
   37.7640   23.7790   35.2600 F   0  0  0  0  0  0  0  0  0  0  0  0
   39.0120   25.0360   33.4610 C   0  0  0  0  0  0  0  0  0  0  0  0
   38.5640   23.9950   33.4020 H   0  0  0  0  0  0  0  0  0  0  0  0
   40.0010   24.8970   32.9570 H   0  0  0  0  0  0  0  0  0  0  0  0
   38.2570   25.8950   33.0160 O   0  0  0  0  0  0  0  0  0  0  0  0
   37.1790   25.8380   32.1460 C   0  0  0  0  0  0  0  0  0  0  0  0
   36.9020   26.6030   31.4350 H   0  0  0  0  0  0  0  0  0  0  0  0
   36.5460   24.7540   32.2910 O   0  0  0  0  0  0  0  0  0  0  0  0
  1  6  1  0  0  0  0
  2  3  1  0  0  0  0
  2  1  2  0  0  0  0
  3  4  2  0  0  0  0
  4  5  1  0  0  0  0
  5 14  1  0  0  0  0
  6  5  2  0  0  0  0
  7  3  1  0  0  0  0
  8  7  1  0  0  0  0
  8 15  1  0  0  0  0
  9 18  1  0  0  0  0
  9  8  1  0  0  0  0
  9 10  1  0  0  0  0
 10 19  1  0  0  0  0
 11 25  1  6  0  0  0
 11 10  1  0  0  0  0
 11  7  1  0  0  0  0
 11 21  1  0  0  0  0
 12  1  1  0  0  0  0
 13  2  1  0  0  0  0
 16  8  1  0  0  0  0
 17  9  1  0  0  0  0
 20 10  1  0  0  0  0
 21 23  1  0  0  0  0
 22 21  1  0  0  0  0
 24 21  1  0  0  0  0
 26 25  1  0  0  0  0
 27 25  1  0  0  0  0
 28 25  1  0  0  0  0
 29 31  2  0  0  0  0
 29 28  1  0  0  0  0
 30 29  1  0  0  0  0
M  END
>  <minimizedAffinity>
-4.32189941

$$$$

 OpenBabel03272507263D

 31 32  0  0  1  0  0  0  0  0999 V2000
   37.2740   27.4190   32.3990 C   0  0  0  0  0  0  0  0  0  0  0  0
   37.7460   26.1090   32.6240 C   0  0  0  0  0  0  0  0  0  0  0  0
   37.6610   25.5980   33.9260 C   0  0  0  0  0  0  0  0  0  0  0  0
   37.1340   26.3820   34.8820 N   0  0  0  0  0  0  0  0  0  0  0  0
   36.6920   27.6320   34.6350 C   0  0  0  0  0  0  0  0  0  0  0  0
   36.7630   28.1410   33.4030 N   0  0  0  0  0  0  0  0  0  0  0  0
   38.1140   24.3000   34.2140 N   0  0  0  0  0  0  0  0  0  0  0  0
   38.1230   23.1860   33.2720 C   0  0  0  0  0  0  0  0  0  0  0  0
   38.4650   21.9580   34.0530 C   0  0  0  0  0  0  0  0  0  0  0  0
   38.1560   22.3670   35.4460 C   0  0  0  0  0  0  0  0  0  0  0  0
   38.6420   23.8040   35.4380 C   0  0  2  0  0  0  0  0  0  0  0  0
   37.3400   27.8190   31.3900 H   0  0  0  0  0  0  0  0  0  0  0  0
   38.1570   25.5310   31.8140 H   0  0  0  0  0  0  0  0  0  0  0  0
   36.2710   28.2320   35.4460 H   0  0  0  0  0  0  0  0  0  0  0  0
   37.0610   23.1370   32.8930 H   0  0  0  0  0  0  0  0  0  0  0  0
   38.7440   23.3810   32.3890 H   0  0  0  0  0  0  0  0  0  0  0  0
   39.4420   21.5170   33.8570 H   0  0  0  0  0  0  0  0  0  0  0  0
   37.7300   21.1730   33.7770 H   0  0  0  0  0  0  0  0  0  0  0  0
   37.0510   22.3430   35.5910 H   0  0  0  0  0  0  0  0  0  0  0  0
   38.6960   21.7570   36.2080 H   0  0  0  0  0  0  0  0  0  0  0  0
   38.2950   24.5140   36.7000 C   0  0  0  0  0  0  0  0  0  0  0  0
   36.9290   24.3530   36.8900 F   0  0  0  0  0  0  0  0  0  0  0  0
   38.5390   25.8470   36.7130 F   0  0  0  0  0  0  0  0  0  0  0  0
   38.9090   23.8230   37.7330 F   0  0  0  0  0  0  0  0  0  0  0  0
   40.1360   23.8130   35.3080 C   0  0  0  0  0  0  0  0  0  0  0  0
   40.4830   23.2630   34.3780 H   0  0  0  0  0  0  0  0  0  0  0  0
   40.5070   23.1480   36.1290 H   0  0  0  0  0  0  0  0  0  0  0  0
   40.4910   24.9870   35.3170 O   0  0  0  0  0  0  0  0  0  0  0  0
   41.3590   25.7110   34.5150 C   0  0  0  0  0  0  0  0  0  0  0  0
   42.2530   25.3250   34.0450 H   0  0  0  0  0  0  0  0  0  0  0  0
   40.9660   26.9060   34.3970 O   0  0  0  0  0  0  0  0  0  0  0  0
  1  2  2  0  0  0  0
  1  6  1  0  0  0  0
  2  3  1  0  0  0  0
  3  7  1  0  0  0  0
  3  4  2  0  0  0  0
  5  4  1  0  0  0  0
  5 14  1  0  0  0  0
  6  5  2  0  0  0  0
  7 11  1  0  0  0  0
  8  9  1  0  0  0  0
  8  7  1  0  0  0  0
  9 10  1  0  0  0  0
 10 19  1  0  0  0  0
 10 20  1  0  0  0  0
 11 25  1  6  0  0  0
 11 10  1  0  0  0  0
 11 21  1  0  0  0  0
 12  1  1  0  0  0  0
 13  2  1  0  0  0  0
 15  8  1  0  0  0  0
 16  8  1  0  0  0  0
 17  9  1  0  0  0  0
 18  9  1  0  0  0  0
 21 23  1  0  0  0  0
 21 22  1  0  0  0  0
 21 24  1  0  0  0  0
 25 28  1  0  0  0  0
 25 27  1  0  0  0  0
 26 25  1  0  0  0  0
 29 28  1  0  0  0  0
 30 29  1  0  0  0  0
 31 29  2  0  0  0  0
M  END
>  <minimizedAffinity>
-4.25653696

$$$$

 OpenBabel03272507263D

 31 32  0  0  1  0  0  0  0  0999 V2000
   39.0800   22.6380   37.2060 C   0  0  0  0  0  0  0  0  0  0  0  0
   39.2900   23.2550   35.9550 C   0  0  0  0  0  0  0  0  0  0  0  0
   38.8930   24.5900   35.8100 C   0  0  0  0  0  0  0  0  0  0  0  0
   38.3360   25.2060   36.8670 N   0  0  0  0  0  0  0  0  0  0  0  0
   38.1480   24.5880   38.0520 C   0  0  0  0  0  0  0  0  0  0  0  0
   38.5190   23.3160   38.2140 N   0  0  0  0  0  0  0  0  0  0  0  0
   39.0760   25.2610   34.5890 N   0  0  0  0  0  0  0  0  0  0  0  0
   40.1370   24.9790   33.6280 C   0  0  0  0  0  0  0  0  0  0  0  0
   40.0910   26.0630   32.5990 C   0  0  0  0  0  0  0  0  0  0  0  0
   39.3370   27.1350   33.2950 C   0  0  0  0  0  0  0  0  0  0  0  0
   38.2990   26.3180   34.0410 C   0  0  2  0  0  0  0  0  0  0  0  0
   39.3870   21.6010   37.3220 H   0  0  0  0  0  0  0  0  0  0  0  0
   39.7420   22.7060   35.1460 H   0  0  0  0  0  0  0  0  0  0  0  0
   37.6920   25.1300   38.8830 H   0  0  0  0  0  0  0  0  0  0  0  0
   41.0840   25.0460   34.2370 H   0  0  0  0  0  0  0  0  0  0  0  0
   40.1020   23.9530   33.2440 H   0  0  0  0  0  0  0  0  0  0  0  0
   39.7570   25.7700   31.6040 H   0  0  0  0  0  0  0  0  0  0  0  0
   41.1280   26.4360   32.4620 H   0  0  0  0  0  0  0  0  0  0  0  0
   40.0150   27.6380   34.0230 H   0  0  0  0  0  0  0  0  0  0  0  0
   38.8610   27.8580   32.5920 H   0  0  0  0  0  0  0  0  0  0  0  0
   37.4920   27.1590   34.9670 C   0  0  0  0  0  0  0  0  0  0  0  0
   37.0430   28.2500   34.2330 F   0  0  0  0  0  0  0  0  0  0  0  0
   38.1530   27.6540   36.0420 F   0  0  0  0  0  0  0  0  0  0  0  0
   36.3600   26.4270   35.2950 F   0  0  0  0  0  0  0  0  0  0  0  0
   37.3570   25.7040   33.0480 C   0  0  0  0  0  0  0  0  0  0  0  0
   36.4220   25.2970   33.5470 H   0  0  0  0  0  0  0  0  0  0  0  0
   37.8640   24.7710   32.6970 H   0  0  0  0  0  0  0  0  0  0  0  0
   37.1020   26.5670   32.2140 O   0  0  0  0  0  0  0  0  0  0  0  0
   36.0550   26.7280   31.3190 C   0  0  0  0  0  0  0  0  0  0  0  0
   35.1670   26.1140   31.2720 H   0  0  0  0  0  0  0  0  0  0  0  0
   36.2740   27.7060   30.5490 O   0  0  0  0  0  0  0  0  0  0  0  0
  1 12  1  0  0  0  0
  1  6  1  0  0  0  0
  2  1  2  0  0  0  0
  3  2  1  0  0  0  0
  3  4  2  0  0  0  0
  4  5  1  0  0  0  0
  5  6  2  0  0  0  0
  5 14  1  0  0  0  0
  7  3  1  0  0  0  0
  8 15  1  0  0  0  0
  8  7  1  0  0  0  0
  9 10  1  0  0  0  0
  9  8  1  0  0  0  0
 10 19  1  0  0  0  0
 10 11  1  0  0  0  0
 11 25  1  6  0  0  0
 11  7  1  0  0  0  0
 11 21  1  0  0  0  0
 13  2  1  0  0  0  0
 16  8  1  0  0  0  0
 17  9  1  0  0  0  0
 18  9  1  0  0  0  0
 20 10  1  0  0  0  0
 21 24  1  0  0  0  0
 21 23  1  0  0  0  0
 22 21  1  0  0  0  0
 25 26  1  0  0  0  0
 27 25  1  0  0  0  0
 28 25  1  0  0  0  0
 29 28  1  0  0  0  0
 30 29  1  0  0  0  0
 31 29  2  0  0  0  0
M  END
>  <minimizedAffinity>
-4.18313789

$$$$

 OpenBabel03272507263D

 31 32  0  0  1  0  0  0  0  0999 V2000
   40.3470   27.1000   33.5060 C   0  0  0  0  0  0  0  0  0  0  0  0
   39.5050   26.3490   34.3530 C   0  0  0  0  0  0  0  0  0  0  0  0
   40.0840   25.3240   35.1110 C   0  0  0  0  0  0  0  0  0  0  0  0
   41.4070   25.1150   34.9890 N   0  0  0  0  0  0  0  0  0  0  0  0
   42.1860   25.8500   34.1690 C   0  0  0  0  0  0  0  0  0  0  0  0
   41.6570   26.8320   33.4370 N   0  0  0  0  0  0  0  0  0  0  0  0
   39.2980   24.5420   35.9730 N   0  0  0  0  0  0  0  0  0  0  0  0
   38.0860   24.9950   36.6460 C   0  0  0  0  0  0  0  0  0  0  0  0
   37.7080   23.9320   37.6260 C   0  0  0  0  0  0  0  0  0  0  0  0
   38.9770   23.1790   37.7880 C   0  0  0  0  0  0  0  0  0  0  0  0
   39.5010   23.1900   36.3640 C   0  0  2  0  0  0  0  0  0  0  0  0
   39.9000   27.8960   32.9160 H   0  0  0  0  0  0  0  0  0  0  0  0
   38.4510   26.5680   34.4050 H   0  0  0  0  0  0  0  0  0  0  0  0
   43.2570   25.6420   34.1050 H   0  0  0  0  0  0  0  0  0  0  0  0
   38.4030   25.9370   37.1800 H   0  0  0  0  0  0  0  0  0  0  0  0
   37.3000   25.3020   35.9450 H   0  0  0  0  0  0  0  0  0  0  0  0
   36.8060   23.3640   37.4000 H   0  0  0  0  0  0  0  0  0  0  0  0
   37.5040   24.4310   38.5970 H   0  0  0  0  0  0  0  0  0  0  0  0
   39.6610   23.7640   38.4470 H   0  0  0  0  0  0  0  0  0  0  0  0
   38.8210   22.1390   38.1590 H   0  0  0  0  0  0  0  0  0  0  0  0
   40.8750   22.6240   36.2750 C   0  0  0  0  0  0  0  0  0  0  0  0
   40.8310   21.3640   36.8570 F   0  0  0  0  0  0  0  0  0  0  0  0
   41.8430   23.3210   36.9180 F   0  0  0  0  0  0  0  0  0  0  0  0
   41.1380   22.4130   34.9300 F   0  0  0  0  0  0  0  0  0  0  0  0
   38.6050   22.3440   35.5090 C   0  0  0  0  0  0  0  0  0  0  0  0
   37.5430   22.3160   35.9070 H   0  0  0  0  0  0  0  0  0  0  0  0
   38.9480   21.2920   35.6720 H   0  0  0  0  0  0  0  0  0  0  0  0
   38.6650   22.7960   34.3700 O   0  0  0  0  0  0  0  0  0  0  0  0
   37.8040   22.7230   33.2850 C   0  0  0  0  0  0  0  0  0  0  0  0
   37.5120   21.8180   32.7720 H   0  0  0  0  0  0  0  0  0  0  0  0
   37.3940   23.8740   32.9630 O   0  0  0  0  0  0  0  0  0  0  0  0
  1  2  1  0  0  0  0
  2 13  1  0  0  0  0
  2  3  2  0  0  0  0
  3  7  1  0  0  0  0
  4  3  1  0  0  0  0
  5  4  2  0  0  0  0
  6  1  2  0  0  0  0
  6  5  1  0  0  0  0
  7 11  1  0  0  0  0
  7  8  1  0  0  0  0
  8 15  1  0  0  0  0
  8  9  1  0  0  0  0
  9 10  1  0  0  0  0
  9 18  1  0  0  0  0
 10 20  1  0  0  0  0
 10 19  1  0  0  0  0
 11 25  1  6  0  0  0
 11 10  1  0  0  0  0
 12  1  1  0  0  0  0
 14  5  1  0  0  0  0
 16  8  1  0  0  0  0
 17  9  1  0  0  0  0
 21 11  1  0  0  0  0
 21 22  1  0  0  0  0
 21 23  1  0  0  0  0
 24 21  1  0  0  0  0
 25 27  1  0  0  0  0
 25 26  1  0  0  0  0
 28 25  1  0  0  0  0
 29 28  1  0  0  0  0
 30 29  1  0  0  0  0
 31 29  2  0  0  0  0
M  END
>  <minimizedAffinity>
-4.16297007

$$$$

 OpenBabel03272507263D

 31 32  0  0  1  0  0  0  0  0999 V2000
   35.8580   24.5830   30.8780 C   0  0  0  0  0  0  0  0  0  0  0  0
   36.6900   24.0940   31.9060 C   0  0  0  0  0  0  0  0  0  0  0  0
   37.1350   25.0020   32.8760 C   0  0  0  0  0  0  0  0  0  0  0  0
   36.7440   26.2840   32.7710 N   0  0  0  0  0  0  0  0  0  0  0  0
   35.9470   26.7220   31.7750 C   0  0  0  0  0  0  0  0  0  0  0  0
   35.5110   25.8750   30.8390 N   0  0  0  0  0  0  0  0  0  0  0  0
   37.9660   24.5750   33.9260 N   0  0  0  0  0  0  0  0  0  0  0  0
   37.9680   23.2350   34.5010 C   0  0  0  0  0  0  0  0  0  0  0  0
   38.8280   23.2880   35.7230 C   0  0  0  0  0  0  0  0  0  0  0  0
   38.8640   24.7390   36.0270 C   0  0  0  0  0  0  0  0  0  0  0  0
   38.9460   25.3250   34.6300 C   0  0  2  0  0  0  0  0  0  0  0  0
   35.5120   23.8810   30.1230 H   0  0  0  0  0  0  0  0  0  0  0  0
   36.9670   23.0530   31.9340 H   0  0  0  0  0  0  0  0  0  0  0  0
   35.6560   27.7740   31.7320 H   0  0  0  0  0  0  0  0  0  0  0  0
   36.8900   23.0520   34.7790 H   0  0  0  0  0  0  0  0  0  0  0  0
   38.2230   22.4580   33.7700 H   0  0  0  0  0  0  0  0  0  0  0  0
   39.7780   22.7560   35.6680 H   0  0  0  0  0  0  0  0  0  0  0  0
   38.2670   22.7990   36.5470 H   0  0  0  0  0  0  0  0  0  0  0  0
   37.8990   25.0320   36.5030 H   0  0  0  0  0  0  0  0  0  0  0  0
   39.7450   25.0320   36.6470 H   0  0  0  0  0  0  0  0  0  0  0  0
   38.8320   26.8090   34.6430 C   0  0  0  0  0  0  0  0  0  0  0  0
   39.6480   27.2670   35.6700 F   0  0  0  0  0  0  0  0  0  0  0  0
   37.5920   27.3030   34.8760 F   0  0  0  0  0  0  0  0  0  0  0  0
   39.4050   27.2680   33.4670 F   0  0  0  0  0  0  0  0  0  0  0  0
   40.2790   24.9770   34.0350 C   0  0  0  0  0  0  0  0  0  0  0  0
   40.5040   25.5970   33.1110 H   0  0  0  0  0  0  0  0  0  0  0  0
   40.1530   23.9510   33.6070 H   0  0  0  0  0  0  0  0  0  0  0  0
   41.1180   25.1320   34.9160 O   0  0  0  0  0  0  0  0  0  0  0  0
   42.4090   25.6340   34.9050 C   0  0  0  0  0  0  0  0  0  0  0  0
   43.2510   25.2210   35.4430 H   0  0  0  0  0  0  0  0  0  0  0  0
   42.4830   26.6600   34.1700 O   0  0  0  0  0  0  0  0  0  0  0  0
  1  2  1  0  0  0  0
  2 13  1  0  0  0  0
  2  3  2  0  0  0  0
  3  7  1  0  0  0  0
  4  3  1  0  0  0  0
  5  4  2  0  0  0  0
  6  1  2  0  0  0  0
  6  5  1  0  0  0  0
  7  8  1  0  0  0  0
  7 11  1  0  0  0  0
  8 15  1  0  0  0  0
  8  9  1  0  0  0  0
  9 10  1  0  0  0  0
  9 18  1  0  0  0  0
 10 19  1  0  0  0  0
 10 20  1  0  0  0  0
 11 25  1  6  0  0  0
 11 21  1  0  0  0  0
 11 10  1  0  0  0  0
 12  1  1  0  0  0  0
 14  5  1  0  0  0  0
 16  8  1  0  0  0  0
 17  9  1  0  0  0  0
 21 23  1  0  0  0  0
 21 22  1  0  0  0  0
 24 21  1  0  0  0  0
 25 28  1  0  0  0  0
 26 25  1  0  0  0  0
 27 25  1  0  0  0  0
 29 28  1  0  0  0  0
 29 30  1  0  0  0  0
 31 29  2  0  0  0  0
M  END
>  <minimizedAffinity>
-4.12330294

$$$$

 OpenBabel03272507263D

 31 32  0  0  1  0  0  0  0  0999 V2000
   35.8520   27.0880   31.6300 C   0  0  0  0  0  0  0  0  0  0  0  0
   36.8750   27.1000   32.6000 C   0  0  0  0  0  0  0  0  0  0  0  0
   37.6030   25.9200   32.7980 C   0  0  0  0  0  0  0  0  0  0  0  0
   37.2870   24.8470   32.0530 N   0  0  0  0  0  0  0  0  0  0  0  0
   36.3020   24.8670   31.1310 C   0  0  0  0  0  0  0  0  0  0  0  0
   35.5940   25.9800   30.9250 N   0  0  0  0  0  0  0  0  0  0  0  0
   38.6350   25.8690   33.7510 N   0  0  0  0  0  0  0  0  0  0  0  0
   39.4580   27.0030   34.1570 C   0  0  0  0  0  0  0  0  0  0  0  0
   40.5610   26.4570   35.0060 C   0  0  0  0  0  0  0  0  0  0  0  0
   40.5720   25.0210   34.6340 C   0  0  0  0  0  0  0  0  0  0  0  0
   39.0860   24.7470   34.4980 C   0  0  2  0  0  0  0  0  0  0  0  0
   35.2840   28.0030   31.4740 H   0  0  0  0  0  0  0  0  0  0  0  0
   37.0790   27.9940   33.1650 H   0  0  0  0  0  0  0  0  0  0  0  0
   36.0820   23.9690   30.5490 H   0  0  0  0  0  0  0  0  0  0  0  0
   39.8640   27.4100   33.1860 H   0  0  0  0  0  0  0  0  0  0  0  0
   38.8720   27.8170   34.5990 H   0  0  0  0  0  0  0  0  0  0  0  0
   40.5240   26.7080   36.0660 H   0  0  0  0  0  0  0  0  0  0  0  0
   41.5120   26.8930   34.6360 H   0  0  0  0  0  0  0  0  0  0  0  0
   41.0680   24.9100   33.6420 H   0  0  0  0  0  0  0  0  0  0  0  0
   41.0380   24.3730   35.4140 H   0  0  0  0  0  0  0  0  0  0  0  0
   38.8190   23.3840   33.9630 C   0  0  0  0  0  0  0  0  0  0  0  0
   37.4520   23.1670   34.0760 F   0  0  0  0  0  0  0  0  0  0  0  0
   39.4340   22.3650   34.6120 F   0  0  0  0  0  0  0  0  0  0  0  0
   39.0880   23.4240   32.6040 F   0  0  0  0  0  0  0  0  0  0  0  0
   38.4490   24.8360   35.8530 C   0  0  0  0  0  0  0  0  0  0  0  0
   37.3470   24.5680   35.8210 H   0  0  0  0  0  0  0  0  0  0  0  0
   38.4200   25.9270   36.0960 H   0  0  0  0  0  0  0  0  0  0  0  0
   39.0870   24.0990   36.5990 O   0  0  0  0  0  0  0  0  0  0  0  0
   38.7250   23.3330   37.6960 C   0  0  0  0  0  0  0  0  0  0  0  0
   38.7720   22.2550   37.7550 H   0  0  0  0  0  0  0  0  0  0  0  0
   38.3260   24.0690   38.6420 O   0  0  0  0  0  0  0  0  0  0  0  0
  1  2  1  0  0  0  0
  2  3  2  0  0  0  0
  2 13  1  0  0  0  0
  3  7  1  0  0  0  0
  4  3  1  0  0  0  0
  5  4  2  0  0  0  0
  6  5  1  0  0  0  0
  6  1  2  0  0  0  0
  7  8  1  0  0  0  0
  7 11  1  0  0  0  0
  8 16  1  0  0  0  0
  8  9  1  0  0  0  0
  9 17  1  0  0  0  0
 10  9  1  0  0  0  0
 10 20  1  0  0  0  0
 11 21  1  6  0  0  0
 11 10  1  0  0  0  0
 11 25  1  0  0  0  0
 12  1  1  0  0  0  0
 14  5  1  0  0  0  0
 15  8  1  0  0  0  0
 18  9  1  0  0  0  0
 19 10  1  0  0  0  0
 21 22  1  0  0  0  0
 21 23  1  0  0  0  0
 24 21  1  0  0  0  0
 25 27  1  0  0  0  0
 25 28  1  0  0  0  0
 26 25  1  0  0  0  0
 28 29  1  0  0  0  0
 29 30  1  0  0  0  0
 29 31  2  0  0  0  0
M  END
>  <minimizedAffinity>
-4.06559753

$$$$

 OpenBabel03272507263D

 31 32  0  0  1  0  0  0  0  0999 V2000
   37.0330   23.3820   31.1150 C   0  0  0  0  0  0  0  0  0  0  0  0
   37.6470   23.3570   32.3850 C   0  0  0  0  0  0  0  0  0  0  0  0
   37.5080   24.4880   33.2000 C   0  0  0  0  0  0  0  0  0  0  0  0
   36.8000   25.5280   32.7280 N   0  0  0  0  0  0  0  0  0  0  0  0
   36.2240   25.5210   31.5080 C   0  0  0  0  0  0  0  0  0  0  0  0
   36.3420   24.4560   30.7130 N   0  0  0  0  0  0  0  0  0  0  0  0
   38.0960   24.5240   34.4760 N   0  0  0  0  0  0  0  0  0  0  0  0
   38.3350   23.3600   35.3220 C   0  0  0  0  0  0  0  0  0  0  0  0
   38.7590   23.8760   36.6610 C   0  0  0  0  0  0  0  0  0  0  0  0
   38.2730   25.2770   36.6330 C   0  0  0  0  0  0  0  0  0  0  0  0
   38.5690   25.6560   35.1940 C   0  0  2  0  0  0  0  0  0  0  0  0
   37.1390   22.5060   30.4790 H   0  0  0  0  0  0  0  0  0  0  0  0
   38.2020   22.4920   32.7050 H   0  0  0  0  0  0  0  0  0  0  0  0
   35.6570   26.3910   31.1680 H   0  0  0  0  0  0  0  0  0  0  0  0
   37.3280   22.8560   35.3890 H   0  0  0  0  0  0  0  0  0  0  0  0
   39.0050   22.6270   34.8580 H   0  0  0  0  0  0  0  0  0  0  0  0
   39.7990   23.7030   36.9380 H   0  0  0  0  0  0  0  0  0  0  0  0
   38.1600   23.3420   37.4280 H   0  0  0  0  0  0  0  0  0  0  0  0
   37.1720   25.2800   36.8060 H   0  0  0  0  0  0  0  0  0  0  0  0
   38.8150   25.9390   37.3500 H   0  0  0  0  0  0  0  0  0  0  0  0
   38.0190   26.9960   34.8490 C   0  0  0  0  0  0  0  0  0  0  0  0
   36.6490   26.9400   35.0740 F   0  0  0  0  0  0  0  0  0  0  0  0
   38.1900   27.3910   33.5640 F   0  0  0  0  0  0  0  0  0  0  0  0
   38.5220   27.8910   35.7810 F   0  0  0  0  0  0  0  0  0  0  0  0
   40.0550   25.7120   35.0010 C   0  0  0  0  0  0  0  0  0  0  0  0
   40.5730   24.8000   35.4330 H   0  0  0  0  0  0  0  0  0  0  0  0
   40.4110   26.5290   35.6770 H   0  0  0  0  0  0  0  0  0  0  0  0
   40.2560   25.8360   33.7970 O   0  0  0  0  0  0  0  0  0  0  0  0
   41.1740   25.2580   32.9340 C   0  0  0  0  0  0  0  0  0  0  0  0
   41.7490   25.7810   32.1830 H   0  0  0  0  0  0  0  0  0  0  0  0
   41.2580   24.0140   33.1400 O   0  0  0  0  0  0  0  0  0  0  0  0
  1  2  1  0  0  0  0
  2 13  1  0  0  0  0
  2  3  2  0  0  0  0
  3  7  1  0  0  0  0
  4  3  1  0  0  0  0
  5  4  2  0  0  0  0
  6  1  2  0  0  0  0
  6  5  1  0  0  0  0
  7 11  1  0  0  0  0
  7  8  1  0  0  0  0
  8 15  1  0  0  0  0
  8  9  1  0  0  0  0
  9 17  1  0  0  0  0
  9 18  1  0  0  0  0
 10  9  1  0  0  0  0
 10 19  1  0  0  0  0
 10 20  1  0  0  0  0
 11 21  1  6  0  0  0
 11 10  1  0  0  0  0
 12  1  1  0  0  0  0
 14  5  1  0  0  0  0
 16  8  1  0  0  0  0
 21 22  1  0  0  0  0
 21 24  1  0  0  0  0
 23 21  1  0  0  0  0
 25 11  1  0  0  0  0
 25 26  1  0  0  0  0
 25 27  1  0  0  0  0
 28 25  1  0  0  0  0
 29 31  2  0  0  0  0
 29 28  1  0  0  0  0
 30 29  1  0  0  0  0
M  END
>  <minimizedAffinity>
-4.05630922

$$$$
