
 OpenBabel03272509453D

 13 13  0  0  0  0  0  0  0  0999 V2000
   37.4000   30.3030   51.3970 C   0  0  0  0  0  0  0  0  0  0  0  0
   38.1200   30.8720   50.3210 C   0  0  0  0  0  0  0  0  0  0  0  0
   37.7770   30.5120   49.0120 C   0  0  0  0  0  0  0  0  0  0  0  0
   36.7480   29.6170   48.8470 N   0  0  0  0  0  0  0  0  0  0  0  0
   36.0820   29.0940   49.9130 C   0  0  0  0  0  0  0  0  0  0  0  0
   36.4150   29.4430   51.1680 N   0  0  0  0  0  0  0  0  0  0  0  0
   37.7000   30.6100   52.3910 H   0  0  0  0  0  0  0  0  0  0  0  0
   38.9340   31.5790   50.4200 H   0  0  0  0  0  0  0  0  0  0  0  0
   38.3040   30.9260   48.1900 H   0  0  0  0  0  0  0  0  0  0  0  0
   35.0890   28.2190   49.5300 O   0  0  0  0  0  0  0  0  0  0  0  0
   33.8010   28.6790   49.3150 C   0  0  0  0  0  0  0  0  0  0  0  0
   33.6210   29.6400   49.8040 H   0  0  0  0  0  0  0  0  0  0  0  0
   33.5860   27.6280   48.6240 O   0  0  0  0  0  0  0  0  0  0  0  0
  1  7  1  0  0  0  0
  2  8  1  0  0  0  0
  2  1  2  0  0  0  0
  3  2  1  0  0  0  0
  4  3  2  0  0  0  0
  4  5  1  0  0  0  0
  5  6  2  0  0  0  0
  6  1  1  0  0  0  0
  9  3  1  0  0  0  0
 10  5  1  0  0  0  0
 11 10  1  0  0  0  0
 11 12  1  0  0  0  0
 13 11  2  0  0  0  0
M  END
>  <minimizedAffinity>
-3.37987828

>  <minimizedRMSD>
0.199317649

$$$$
