
 OpenBabel03272509443D

 13 13  0  0  0  0  0  0  0  0999 V2000
   37.2800   30.1900   51.4130 C   0  0  0  0  0  0  0  0  0  0  0  0
   38.1070   30.8320   50.4620 C   0  0  0  0  0  0  0  0  0  0  0  0
   37.8890   30.5860   49.1010 C   0  0  0  0  0  0  0  0  0  0  0  0
   36.8720   29.7270   48.7640 N   0  0  0  0  0  0  0  0  0  0  0  0
   36.1000   29.1300   49.7140 C   0  0  0  0  0  0  0  0  0  0  0  0
   36.3130   29.3690   51.0200 N   0  0  0  0  0  0  0  0  0  0  0  0
   37.4850   30.4090   52.4530 H   0  0  0  0  0  0  0  0  0  0  0  0
   38.9140   31.5130   50.6980 H   0  0  0  0  0  0  0  0  0  0  0  0
   38.4970   31.0560   48.3710 H   0  0  0  0  0  0  0  0  0  0  0  0
   35.1410   28.3080   49.1660 O   0  0  0  0  0  0  0  0  0  0  0  0
   33.7980   28.5620   49.3850 C   0  0  0  0  0  0  0  0  0  0  0  0
   33.5420   28.5290   50.4480 H   0  0  0  0  0  0  0  0  0  0  0  0
   33.6590   28.6920   48.1230 O   0  0  0  0  0  0  0  0  0  0  0  0
  1  7  1  0  0  0  0
  2  8  1  0  0  0  0
  2  1  2  0  0  0  0
  3  2  1  0  0  0  0
  4  3  2  0  0  0  0
  4  5  1  0  0  0  0
  5  6  2  0  0  0  0
  6  1  1  0  0  0  0
  9  3  1  0  0  0  0
 10 11  1  0  0  0  0
 10  5  1  0  0  0  0
 11 12  1  0  0  0  0
 13 11  2  0  0  0  0
M  END
>  <minimizedAffinity>
-3.29839778

>  <minimizedRMSD>
0.313990235

$$$$
