
 OpenBabel03272506373D

 28 29  0  0  1  0  0  0  0  0999 V2000
   38.9200   24.9450   33.9740 O   0  0  0  0  0  0  0  0  0  0  0  0
   36.6470   25.2720   32.1750 O   0  0  0  0  0  0  0  0  0  0  0  0
   36.9640   26.0510   33.0960 C   0  0  0  0  0  0  0  0  0  0  0  0
   37.7040   25.6090   34.2850 C   0  0  2  0  0  0  0  0  0  0  0  0
   38.0270   26.9460   34.9690 C   0  0  0  0  0  0  0  0  0  0  0  0
   36.9120   27.8370   34.5130 C   0  0  0  0  0  0  0  0  0  0  0  0
   36.6600   27.4530   33.1280 N   0  0  0  0  0  0  0  0  0  0  0  0
   37.0790   24.9970   34.9640 H   0  0  0  0  0  0  0  0  0  0  0  0
   39.0080   27.3350   34.6900 H   0  0  0  0  0  0  0  0  0  0  0  0
   37.9270   26.7710   36.0680 H   0  0  0  0  0  0  0  0  0  0  0  0
   37.1840   28.9180   34.5700 H   0  0  0  0  0  0  0  0  0  0  0  0
   35.9740   27.6150   35.0740 H   0  0  0  0  0  0  0  0  0  0  0  0
   36.2170   28.1980   31.9780 C   0  0  0  0  0  0  0  0  0  0  0  0
   36.9300   28.1900   31.1550 H   0  0  0  0  0  0  0  0  0  0  0  0
   35.1050   28.7850   31.9700 O   0  0  0  0  0  0  0  0  0  0  0  0
   39.5870   24.2860   34.9880 C   0  0  0  0  0  0  0  0  0  0  0  0
   40.9770   24.2630   34.8190 C   0  0  0  0  0  0  0  0  0  0  0  0
   41.7540   23.6220   35.7840 C   0  0  0  0  0  0  0  0  0  0  0  0
   41.1150   23.0510   36.8440 N   0  0  0  0  0  0  0  0  0  0  0  0
   39.7710   23.0850   36.9870 C   0  0  0  0  0  0  0  0  0  0  0  0
   39.0460   23.6960   36.0640 N   0  0  0  0  0  0  0  0  0  0  0  0
   38.4030   23.4150   38.8950 C   0  0  0  0  0  0  0  0  0  0  0  0
   38.2440   24.6580   38.7010 O   0  0  0  0  0  0  0  0  0  0  0  0
   39.1530   22.4730   38.1130 N   0  0  0  0  0  0  0  0  0  0  0  0
   41.5270   24.7020   33.9950 H   0  0  0  0  0  0  0  0  0  0  0  0
   42.8320   23.5920   35.6770 H   0  0  0  0  0  0  0  0  0  0  0  0
   37.8470   23.1920   39.7960 H   0  0  0  0  0  0  0  0  0  0  0  0
   39.1590   21.4940   38.4440 H   0  0  0  0  0  0  0  0  0  0  0  0
  1  4  1  0  0  0  0
  1 16  1  0  0  0  0
  2  3  2  0  0  0  0
  3  7  1  0  0  0  0
  3  4  1  0  0  0  0
  4  8  1  1  0  0  0
  4  5  1  0  0  0  0
  5 10  1  0  0  0  0
  6 11  1  0  0  0  0
  6  5  1  0  0  0  0
  6 12  1  0  0  0  0
  7  6  1  0  0  0  0
  9  5  1  0  0  0  0
 13  7  1  0  0  0  0
 14 13  1  0  0  0  0
 15 13  2  0  0  0  0
 16 21  1  0  0  0  0
 17 16  2  0  0  0  0
 17 18  1  0  0  0  0
 18 19  2  0  0  0  0
 19 20  1  0  0  0  0
 20 24  1  0  0  0  0
 21 20  2  0  0  0  0
 22 27  1  0  0  0  0
 23 22  2  0  0  0  0
 24 28  1  0  0  0  0
 24 22  1  0  0  0  0
 25 17  1  0  0  0  0
 26 18  1  0  0  0  0
M  END
>  <minimizedAffinity>
-4.8381958

$$$$

 OpenBabel03272506373D

 28 29  0  0  1  0  0  0  0  0999 V2000
   37.8270   23.2150   33.9900 O   0  0  0  0  0  0  0  0  0  0  0  0
   37.8620   26.1140   33.6610 O   0  0  0  0  0  0  0  0  0  0  0  0
   37.6330   25.2810   32.7600 C   0  0  0  0  0  0  0  0  0  0  0  0
   38.1610   23.9110   32.7980 C   0  0  2  0  0  0  0  0  0  0  0  0
   37.4250   23.2590   31.6180 C   0  0  0  0  0  0  0  0  0  0  0  0
   37.1590   24.4160   30.7030 C   0  0  0  0  0  0  0  0  0  0  0  0
   36.8450   25.5340   31.5880 N   0  0  0  0  0  0  0  0  0  0  0  0
   39.2510   23.8770   32.6090 H   0  0  0  0  0  0  0  0  0  0  0  0
   36.5080   22.7520   31.9210 H   0  0  0  0  0  0  0  0  0  0  0  0
   38.1580   22.5710   31.1290 H   0  0  0  0  0  0  0  0  0  0  0  0
   36.3050   24.2210   30.0110 H   0  0  0  0  0  0  0  0  0  0  0  0
   38.0830   24.7050   30.1510 H   0  0  0  0  0  0  0  0  0  0  0  0
   35.9760   26.6730   31.4430 C   0  0  0  0  0  0  0  0  0  0  0  0
   35.1920   26.7200   32.1970 H   0  0  0  0  0  0  0  0  0  0  0  0
   36.1450   27.5090   30.5190 O   0  0  0  0  0  0  0  0  0  0  0  0
   38.7840   23.1110   34.9800 C   0  0  0  0  0  0  0  0  0  0  0  0
   40.0960   23.2050   34.5000 C   0  0  0  0  0  0  0  0  0  0  0  0
   41.1470   23.1130   35.4130 C   0  0  0  0  0  0  0  0  0  0  0  0
   40.8370   22.9360   36.7280 N   0  0  0  0  0  0  0  0  0  0  0  0
   39.5630   22.8470   37.1700 C   0  0  0  0  0  0  0  0  0  0  0  0
   38.5760   22.9360   36.2930 N   0  0  0  0  0  0  0  0  0  0  0  0
   38.5050   23.7310   39.0980 C   0  0  0  0  0  0  0  0  0  0  0  0
   38.0500   24.7600   38.5120 O   0  0  0  0  0  0  0  0  0  0  0  0
   39.2940   22.6610   38.5540 N   0  0  0  0  0  0  0  0  0  0  0  0
   40.3900   23.3450   33.4660 H   0  0  0  0  0  0  0  0  0  0  0  0
   42.1710   23.1840   35.0660 H   0  0  0  0  0  0  0  0  0  0  0  0
   38.1720   23.8160   40.1250 H   0  0  0  0  0  0  0  0  0  0  0  0
   39.5670   21.9070   39.2060 H   0  0  0  0  0  0  0  0  0  0  0  0
  1 16  1  0  0  0  0
  3  4  1  0  0  0  0
  3  2  2  0  0  0  0
  4  8  1  6  0  0  0
  4  1  1  0  0  0  0
  5  9  1  0  0  0  0
  5  4  1  0  0  0  0
  6  7  1  0  0  0  0
  6  5  1  0  0  0  0
  7  3  1  0  0  0  0
 10  5  1  0  0  0  0
 11  6  1  0  0  0  0
 12  6  1  0  0  0  0
 13  7  1  0  0  0  0
 13 14  1  0  0  0  0
 15 13  2  0  0  0  0
 16 21  1  0  0  0  0
 17 16  2  0  0  0  0
 17 18  1  0  0  0  0
 18 19  2  0  0  0  0
 19 20  1  0  0  0  0
 20 24  1  0  0  0  0
 21 20  2  0  0  0  0
 22 27  1  0  0  0  0
 23 22  2  0  0  0  0
 24 22  1  0  0  0  0
 24 28  1  0  0  0  0
 25 17  1  0  0  0  0
 26 18  1  0  0  0  0
M  END
>  <minimizedAffinity>
-4.66362286

$$$$

 OpenBabel03272506373D

 28 29  0  0  1  0  0  0  0  0999 V2000
   38.6030   22.1580   34.0180 O   0  0  0  0  0  0  0  0  0  0  0  0
   40.0790   21.8040   36.5090 O   0  0  0  0  0  0  0  0  0  0  0  0
   39.3660   22.7850   36.2190 C   0  0  0  0  0  0  0  0  0  0  0  0
   39.1190   23.2000   34.8330 C   0  0  2  0  0  0  0  0  0  0  0  0
   38.0360   24.2740   35.0140 C   0  0  0  0  0  0  0  0  0  0  0  0
   38.3050   24.7970   36.3930 C   0  0  0  0  0  0  0  0  0  0  0  0
   38.7000   23.6280   37.1710 N   0  0  0  0  0  0  0  0  0  0  0  0
   40.0120   23.6620   34.3680 H   0  0  0  0  0  0  0  0  0  0  0  0
   37.0250   23.8740   34.9130 H   0  0  0  0  0  0  0  0  0  0  0  0
   38.2590   25.0770   34.2700 H   0  0  0  0  0  0  0  0  0  0  0  0
   37.4040   25.2760   36.8460 H   0  0  0  0  0  0  0  0  0  0  0  0
   39.1840   25.4820   36.3910 H   0  0  0  0  0  0  0  0  0  0  0  0
   38.5260   23.2790   38.5580 C   0  0  0  0  0  0  0  0  0  0  0  0
   37.9590   22.3620   38.7070 H   0  0  0  0  0  0  0  0  0  0  0  0
   39.0010   23.9960   39.4750 O   0  0  0  0  0  0  0  0  0  0  0  0
   37.6380   22.4720   33.0810 C   0  0  0  0  0  0  0  0  0  0  0  0
   36.5650   21.5720   33.0630 C   0  0  0  0  0  0  0  0  0  0  0  0
   35.5290   21.7910   32.1540 C   0  0  0  0  0  0  0  0  0  0  0  0
   35.6180   22.8740   31.3310 N   0  0  0  0  0  0  0  0  0  0  0  0
   36.6640   23.7290   31.3660 C   0  0  0  0  0  0  0  0  0  0  0  0
   37.6400   23.5100   32.2330 N   0  0  0  0  0  0  0  0  0  0  0  0
   36.7660   26.0920   31.1950 C   0  0  0  0  0  0  0  0  0  0  0  0
   36.7790   26.2920   32.4470 O   0  0  0  0  0  0  0  0  0  0  0  0
   36.7090   24.8450   30.4840 N   0  0  0  0  0  0  0  0  0  0  0  0
   36.4520   20.7000   33.6960 H   0  0  0  0  0  0  0  0  0  0  0  0
   34.6870   21.1090   32.1210 H   0  0  0  0  0  0  0  0  0  0  0  0
   36.8060   27.0760   30.7470 H   0  0  0  0  0  0  0  0  0  0  0  0
   36.7080   24.8970   29.4520 H   0  0  0  0  0  0  0  0  0  0  0  0
  1  4  1  0  0  0  0
  3  2  2  0  0  0  0
  3  7  1  0  0  0  0
  4  8  1  6  0  0  0
  4  5  1  0  0  0  0
  4  3  1  0  0  0  0
  5  6  1  0  0  0  0
  6 11  1  0  0  0  0
  6  7  1  0  0  0  0
  7 13  1  0  0  0  0
  9  5  1  0  0  0  0
 10  5  1  0  0  0  0
 12  6  1  0  0  0  0
 13 14  1  0  0  0  0
 13 15  2  0  0  0  0
 16  1  1  0  0  0  0
 17 16  1  0  0  0  0
 17 25  1  0  0  0  0
 18 17  2  0  0  0  0
 19 20  2  0  0  0  0
 19 18  1  0  0  0  0
 20 21  1  0  0  0  0
 21 16  2  0  0  0  0
 22 23  2  0  0  0  0
 24 22  1  0  0  0  0
 24 20  1  0  0  0  0
 26 18  1  0  0  0  0
 27 22  1  0  0  0  0
 28 24  1  0  0  0  0
M  END
>  <minimizedAffinity>
-4.60212135

$$$$

 OpenBabel03272506373D

 28 29  0  0  1  0  0  0  0  0999 V2000
   38.3800   25.6990   33.9360 O   0  0  0  0  0  0  0  0  0  0  0  0
   37.3550   26.2690   31.2640 O   0  0  0  0  0  0  0  0  0  0  0  0
   37.0980   26.9200   32.2960 C   0  0  0  0  0  0  0  0  0  0  0  0
   37.1390   26.3230   33.6370 C   0  0  2  0  0  0  0  0  0  0  0  0
   36.9750   27.5580   34.5360 C   0  0  0  0  0  0  0  0  0  0  0  0
   36.2040   28.5070   33.6690 C   0  0  0  0  0  0  0  0  0  0  0  0
   36.7340   28.3080   32.3240 N   0  0  0  0  0  0  0  0  0  0  0  0
   36.2930   25.6310   33.8150 H   0  0  0  0  0  0  0  0  0  0  0  0
   37.9310   27.9750   34.8580 H   0  0  0  0  0  0  0  0  0  0  0  0
   36.3310   27.2430   35.3930 H   0  0  0  0  0  0  0  0  0  0  0  0
   36.3380   29.5700   33.9820 H   0  0  0  0  0  0  0  0  0  0  0  0
   35.1280   28.2190   33.6270 H   0  0  0  0  0  0  0  0  0  0  0  0
   36.9060   29.1980   31.2050 C   0  0  0  0  0  0  0  0  0  0  0  0
   37.9410   29.2940   30.8810 H   0  0  0  0  0  0  0  0  0  0  0  0
   35.9250   29.7880   30.6840 O   0  0  0  0  0  0  0  0  0  0  0  0
   38.3650   24.4060   34.4210 C   0  0  0  0  0  0  0  0  0  0  0  0
   37.8120   23.4810   33.5270 C   0  0  0  0  0  0  0  0  0  0  0  0
   37.7450   22.1410   33.9120 C   0  0  0  0  0  0  0  0  0  0  0  0
   38.2230   21.8060   35.1440 N   0  0  0  0  0  0  0  0  0  0  0  0
   38.7520   22.7160   35.9910 C   0  0  0  0  0  0  0  0  0  0  0  0
   38.8100   23.9830   35.6130 N   0  0  0  0  0  0  0  0  0  0  0  0
   40.6320   22.6130   37.4330 C   0  0  0  0  0  0  0  0  0  0  0  0
   41.4270   23.1650   36.6140 O   0  0  0  0  0  0  0  0  0  0  0  0
   39.2370   22.3130   37.2670 N   0  0  0  0  0  0  0  0  0  0  0  0
   37.4210   23.7010   32.5410 H   0  0  0  0  0  0  0  0  0  0  0  0
   37.3230   21.4060   33.2370 H   0  0  0  0  0  0  0  0  0  0  0  0
   41.2260   22.4030   38.3130 H   0  0  0  0  0  0  0  0  0  0  0  0
   38.7610   21.8560   38.0620 H   0  0  0  0  0  0  0  0  0  0  0  0
  1 16  1  0  0  0  0
  2  3  2  0  0  0  0
  3  7  1  0  0  0  0
  3  4  1  0  0  0  0
  4  8  1  1  0  0  0
  4  1  1  0  0  0  0
  4  5  1  0  0  0  0
  5  9  1  0  0  0  0
  5 10  1  0  0  0  0
  6 11  1  0  0  0  0
  6  5  1  0  0  0  0
  7  6  1  0  0  0  0
 12  6  1  0  0  0  0
 13  7  1  0  0  0  0
 14 13  1  0  0  0  0
 15 13  2  0  0  0  0
 16 21  1  0  0  0  0
 17 18  1  0  0  0  0
 17 16  2  0  0  0  0
 18 19  2  0  0  0  0
 19 20  1  0  0  0  0
 20 24  1  0  0  0  0
 21 20  2  0  0  0  0
 22 27  1  0  0  0  0
 23 22  2  0  0  0  0
 24 22  1  0  0  0  0
 24 28  1  0  0  0  0
 25 17  1  0  0  0  0
 26 18  1  0  0  0  0
M  END
>  <minimizedAffinity>
-4.59675741

$$$$

 OpenBabel03272506373D

 28 29  0  0  1  0  0  0  0  0999 V2000
   37.3780   25.0960   33.7100 O   0  0  0  0  0  0  0  0  0  0  0  0
   36.8530   27.8660   34.4610 O   0  0  0  0  0  0  0  0  0  0  0  0
   36.8330   27.4110   33.3000 C   0  0  0  0  0  0  0  0  0  0  0  0
   37.6190   26.2370   32.8980 C   0  0  2  0  0  0  0  0  0  0  0  0
   37.0780   25.9660   31.4860 C   0  0  0  0  0  0  0  0  0  0  0  0
   36.6280   27.3210   31.0300 C   0  0  0  0  0  0  0  0  0  0  0  0
   36.0620   27.9520   32.2180 N   0  0  0  0  0  0  0  0  0  0  0  0
   38.7020   26.4590   32.8350 H   0  0  0  0  0  0  0  0  0  0  0  0
   36.2670   25.2360   31.4780 H   0  0  0  0  0  0  0  0  0  0  0  0
   37.9530   25.6460   30.8690 H   0  0  0  0  0  0  0  0  0  0  0  0
   35.8600   27.2620   30.2220 H   0  0  0  0  0  0  0  0  0  0  0  0
   37.5000   27.9470   30.7300 H   0  0  0  0  0  0  0  0  0  0  0  0
   34.9920   28.8990   32.3990 C   0  0  0  0  0  0  0  0  0  0  0  0
   34.1820   28.5250   33.0230 H   0  0  0  0  0  0  0  0  0  0  0  0
   35.0320   30.0370   31.8670 O   0  0  0  0  0  0  0  0  0  0  0  0
   38.4140   24.6090   34.4820 C   0  0  0  0  0  0  0  0  0  0  0  0
   39.6820   24.9440   33.9900 C   0  0  0  0  0  0  0  0  0  0  0  0
   40.8050   24.5040   34.6910 C   0  0  0  0  0  0  0  0  0  0  0  0
   40.6060   23.7690   35.8220 N   0  0  0  0  0  0  0  0  0  0  0  0
   39.3720   23.4580   36.2790 C   0  0  0  0  0  0  0  0  0  0  0  0
   38.3160   23.8810   35.6040 N   0  0  0  0  0  0  0  0  0  0  0  0
   38.4810   23.3930   38.4750 C   0  0  0  0  0  0  0  0  0  0  0  0
   37.9830   24.5580   38.4250 O   0  0  0  0  0  0  0  0  0  0  0  0
   39.2190   22.6870   37.4650 N   0  0  0  0  0  0  0  0  0  0  0  0
   39.8880   25.5230   33.0990 H   0  0  0  0  0  0  0  0  0  0  0  0
   41.7970   24.7500   34.3310 H   0  0  0  0  0  0  0  0  0  0  0  0
   38.2360   23.0190   39.4600 H   0  0  0  0  0  0  0  0  0  0  0  0
   39.5430   21.7350   37.7050 H   0  0  0  0  0  0  0  0  0  0  0  0
  1 16  1  0  0  0  0
  3  2  2  0  0  0  0
  4  8  1  6  0  0  0
  4  3  1  0  0  0  0
  4  1  1  0  0  0  0
  5  4  1  0  0  0  0
  6  5  1  0  0  0  0
  6  7  1  0  0  0  0
  7 13  1  0  0  0  0
  7  3  1  0  0  0  0
  9  5  1  0  0  0  0
 10  5  1  0  0  0  0
 11  6  1  0  0  0  0
 12  6  1  0  0  0  0
 13 14  1  0  0  0  0
 15 13  2  0  0  0  0
 16 21  1  0  0  0  0
 17 16  2  0  0  0  0
 17 18  1  0  0  0  0
 18 19  2  0  0  0  0
 19 20  1  0  0  0  0
 20 24  1  0  0  0  0
 21 20  2  0  0  0  0
 22 27  1  0  0  0  0
 23 22  2  0  0  0  0
 24 28  1  0  0  0  0
 24 22  1  0  0  0  0
 25 17  1  0  0  0  0
 26 18  1  0  0  0  0
M  END
>  <minimizedAffinity>
-4.57402897

$$$$

 OpenBabel03272506373D

 28 29  0  0  1  0  0  0  0  0999 V2000
   39.2220   25.2930   34.8430 O   0  0  0  0  0  0  0  0  0  0  0  0
   37.0840   25.0940   32.8670 O   0  0  0  0  0  0  0  0  0  0  0  0
   37.2450   26.0310   33.6740 C   0  0  0  0  0  0  0  0  0  0  0  0
   37.9240   25.8560   34.9640 C   0  0  2  0  0  0  0  0  0  0  0  0
   38.0540   27.3080   35.4500 C   0  0  0  0  0  0  0  0  0  0  0  0
   36.8970   27.9920   34.7870 C   0  0  0  0  0  0  0  0  0  0  0  0
   36.8010   27.3800   33.4660 N   0  0  0  0  0  0  0  0  0  0  0  0
   37.3090   25.2860   35.6870 H   0  0  0  0  0  0  0  0  0  0  0  0
   39.0110   27.7580   35.1800 H   0  0  0  0  0  0  0  0  0  0  0  0
   37.8820   27.2890   36.5540 H   0  0  0  0  0  0  0  0  0  0  0  0
   37.0550   29.0930   34.6920 H   0  0  0  0  0  0  0  0  0  0  0  0
   35.9430   27.7530   35.3120 H   0  0  0  0  0  0  0  0  0  0  0  0
   36.3830   27.8920   32.1860 C   0  0  0  0  0  0  0  0  0  0  0  0
   37.1580   27.8410   31.4230 H   0  0  0  0  0  0  0  0  0  0  0  0
   35.2220   28.3440   32.0130 O   0  0  0  0  0  0  0  0  0  0  0  0
   39.6160   24.3450   35.7660 C   0  0  0  0  0  0  0  0  0  0  0  0
   38.6480   24.0830   36.7430 C   0  0  0  0  0  0  0  0  0  0  0  0
   38.9380   23.1400   37.7300 C   0  0  0  0  0  0  0  0  0  0  0  0
   40.1530   22.5240   37.6890 N   0  0  0  0  0  0  0  0  0  0  0  0
   41.0730   22.7940   36.7360 C   0  0  0  0  0  0  0  0  0  0  0  0
   40.7850   23.6890   35.8060 N   0  0  0  0  0  0  0  0  0  0  0  0
   42.5440   21.3790   35.5290 C   0  0  0  0  0  0  0  0  0  0  0  0
   41.7830   21.2650   34.5210 O   0  0  0  0  0  0  0  0  0  0  0  0
   42.3280   22.1230   36.7390 N   0  0  0  0  0  0  0  0  0  0  0  0
   37.6720   24.5460   36.8160 H   0  0  0  0  0  0  0  0  0  0  0  0
   38.2050   22.9180   38.4970 H   0  0  0  0  0  0  0  0  0  0  0  0
   43.4200   20.7880   35.2950 H   0  0  0  0  0  0  0  0  0  0  0  0
   43.0790   22.0870   37.4470 H   0  0  0  0  0  0  0  0  0  0  0  0
  1  4  1  0  0  0  0
  1 16  1  0  0  0  0
  2  3  2  0  0  0  0
  3  4  1  0  0  0  0
  4  5  1  0  0  0  0
  4  8  1  1  0  0  0
  5 10  1  0  0  0  0
  6 12  1  0  0  0  0
  6  5  1  0  0  0  0
  7  3  1  0  0  0  0
  7  6  1  0  0  0  0
  9  5  1  0  0  0  0
 11  6  1  0  0  0  0
 13  7  1  0  0  0  0
 14 13  1  0  0  0  0
 15 13  2  0  0  0  0
 16 21  2  0  0  0  0
 16 17  1  0  0  0  0
 17 25  1  0  0  0  0
 17 18  2  0  0  0  0
 18 26  1  0  0  0  0
 19 18  1  0  0  0  0
 20 24  1  0  0  0  0
 20 19  2  0  0  0  0
 21 20  1  0  0  0  0
 22 24  1  0  0  0  0
 23 22  2  0  0  0  0
 24 28  1  0  0  0  0
 27 22  1  0  0  0  0
M  END
>  <minimizedAffinity>
-4.49427319

$$$$

 OpenBabel03272506373D

 28 29  0  0  1  0  0  0  0  0999 V2000
   38.6580   26.1780   34.0850 O   0  0  0  0  0  0  0  0  0  0  0  0
   39.7700   27.4750   31.7200 O   0  0  0  0  0  0  0  0  0  0  0  0
   38.6290   26.9800   31.8100 C   0  0  0  0  0  0  0  0  0  0  0  0
   38.3120   25.8870   32.7380 C   0  0  2  0  0  0  0  0  0  0  0  0
   36.7830   25.8090   32.6220 C   0  0  0  0  0  0  0  0  0  0  0  0
   36.5220   26.3190   31.2370 C   0  0  0  0  0  0  0  0  0  0  0  0
   37.4910   27.3930   31.0390 N   0  0  0  0  0  0  0  0  0  0  0  0
   38.7500   24.9220   32.4150 H   0  0  0  0  0  0  0  0  0  0  0  0
   36.2720   26.4010   33.3830 H   0  0  0  0  0  0  0  0  0  0  0  0
   36.5170   24.7250   32.6660 H   0  0  0  0  0  0  0  0  0  0  0  0
   35.4830   26.7110   31.1180 H   0  0  0  0  0  0  0  0  0  0  0  0
   36.7610   25.5390   30.4770 H   0  0  0  0  0  0  0  0  0  0  0  0
   37.4420   28.6190   30.2850 C   0  0  0  0  0  0  0  0  0  0  0  0
   37.5750   29.5100   30.8960 H   0  0  0  0  0  0  0  0  0  0  0  0
   37.2620   28.6120   29.0410 O   0  0  0  0  0  0  0  0  0  0  0  0
   39.2420   25.1820   34.8430 C   0  0  0  0  0  0  0  0  0  0  0  0
   40.6120   25.0260   34.5980 C   0  0  0  0  0  0  0  0  0  0  0  0
   41.3070   24.0470   35.3090 C   0  0  0  0  0  0  0  0  0  0  0  0
   40.6110   23.2930   36.2060 N   0  0  0  0  0  0  0  0  0  0  0  0
   39.2880   23.4610   36.4260 C   0  0  0  0  0  0  0  0  0  0  0  0
   38.6410   24.3930   35.7460 N   0  0  0  0  0  0  0  0  0  0  0  0
   38.0110   23.4240   38.4230 C   0  0  0  0  0  0  0  0  0  0  0  0
   38.0240   24.6820   38.5840 O   0  0  0  0  0  0  0  0  0  0  0  0
   38.6090   22.6470   37.3740 N   0  0  0  0  0  0  0  0  0  0  0  0
   41.2050   25.6000   33.8970 H   0  0  0  0  0  0  0  0  0  0  0  0
   42.3680   23.9080   35.1390 H   0  0  0  0  0  0  0  0  0  0  0  0
   37.4440   23.0350   39.2580 H   0  0  0  0  0  0  0  0  0  0  0  0
   38.4820   21.6220   37.4250 H   0  0  0  0  0  0  0  0  0  0  0  0
  1 16  1  0  0  0  0
  2  3  2  0  0  0  0
  3  4  1  0  0  0  0
  4  8  1  6  0  0  0
  4  1  1  0  0  0  0
  5 10  1  0  0  0  0
  5  4  1  0  0  0  0
  5  9  1  0  0  0  0
  6  5  1  0  0  0  0
  7  6  1  0  0  0  0
  7  3  1  0  0  0  0
 11  6  1  0  0  0  0
 12  6  1  0  0  0  0
 13 14  1  0  0  0  0
 13  7  1  0  0  0  0
 15 13  2  0  0  0  0
 16 21  1  0  0  0  0
 17 16  2  0  0  0  0
 17 18  1  0  0  0  0
 18 19  2  0  0  0  0
 19 20  1  0  0  0  0
 20 24  1  0  0  0  0
 21 20  2  0  0  0  0
 22 23  2  0  0  0  0
 22 27  1  0  0  0  0
 24 28  1  0  0  0  0
 24 22  1  0  0  0  0
 25 17  1  0  0  0  0
 26 18  1  0  0  0  0
M  END
>  <minimizedAffinity>
-4.47809553

$$$$

 OpenBabel03272506373D

 28 29  0  0  1  0  0  0  0  0999 V2000
   38.3810   26.5350   33.1180 O   0  0  0  0  0  0  0  0  0  0  0  0
   38.3370   26.2520   36.0210 O   0  0  0  0  0  0  0  0  0  0  0  0
   38.2640   25.3180   35.1980 C   0  0  0  0  0  0  0  0  0  0  0  0
   37.7310   25.5010   33.8420 C   0  0  2  0  0  0  0  0  0  0  0  0
   38.0640   24.1510   33.1890 C   0  0  0  0  0  0  0  0  0  0  0  0
   38.0820   23.2070   34.3530 C   0  0  0  0  0  0  0  0  0  0  0  0
   38.6760   23.9660   35.4480 N   0  0  0  0  0  0  0  0  0  0  0  0
   36.6330   25.6430   33.8380 H   0  0  0  0  0  0  0  0  0  0  0  0
   39.0150   24.1650   32.6530 H   0  0  0  0  0  0  0  0  0  0  0  0
   37.1990   23.8970   32.5280 H   0  0  0  0  0  0  0  0  0  0  0  0
   38.6860   22.2910   34.1460 H   0  0  0  0  0  0  0  0  0  0  0  0
   37.0440   22.9560   34.6750 H   0  0  0  0  0  0  0  0  0  0  0  0
   39.4970   23.5790   36.5660 C   0  0  0  0  0  0  0  0  0  0  0  0
   40.4710   24.0670   36.5800 H   0  0  0  0  0  0  0  0  0  0  0  0
   39.0870   22.7530   37.4210 O   0  0  0  0  0  0  0  0  0  0  0  0
   37.6210   27.3340   32.2870 C   0  0  0  0  0  0  0  0  0  0  0  0
   36.6870   28.1210   32.9720 C   0  0  0  0  0  0  0  0  0  0  0  0
   35.8620   28.9690   32.2320 C   0  0  0  0  0  0  0  0  0  0  0  0
   36.0120   28.9860   30.8780 N   0  0  0  0  0  0  0  0  0  0  0  0
   36.9210   28.2170   30.2370 C   0  0  0  0  0  0  0  0  0  0  0  0
   37.6970   27.4170   30.9510 N   0  0  0  0  0  0  0  0  0  0  0  0
   38.3500   28.6760   28.4020 C   0  0  0  0  0  0  0  0  0  0  0  0
   39.3550   28.9710   29.1170 O   0  0  0  0  0  0  0  0  0  0  0  0
   37.0370   28.2720   28.8200 N   0  0  0  0  0  0  0  0  0  0  0  0
   36.5320   28.1410   34.0440 H   0  0  0  0  0  0  0  0  0  0  0  0
   35.1310   29.5890   32.7390 H   0  0  0  0  0  0  0  0  0  0  0  0
   38.6820   28.7920   27.3790 H   0  0  0  0  0  0  0  0  0  0  0  0
   36.3500   28.0740   28.0730 H   0  0  0  0  0  0  0  0  0  0  0  0
  1  4  1  0  0  0  0
  3  7  1  0  0  0  0
  3  2  2  0  0  0  0
  4  8  1  1  0  0  0
  4  3  1  0  0  0  0
  5  4  1  0  0  0  0
  5  6  1  0  0  0  0
  6 12  1  0  0  0  0
  6  7  1  0  0  0  0
  7 13  1  0  0  0  0
  9  5  1  0  0  0  0
 10  5  1  0  0  0  0
 11  6  1  0  0  0  0
 13 14  1  0  0  0  0
 13 15  2  0  0  0  0
 16 17  1  0  0  0  0
 16  1  1  0  0  0  0
 17 25  1  0  0  0  0
 18 26  1  0  0  0  0
 18 17  2  0  0  0  0
 19 18  1  0  0  0  0
 20 19  2  0  0  0  0
 20 21  1  0  0  0  0
 21 16  2  0  0  0  0
 22 24  1  0  0  0  0
 22 23  2  0  0  0  0
 24 20  1  0  0  0  0
 27 22  1  0  0  0  0
 28 24  1  0  0  0  0
M  END
>  <minimizedAffinity>
-4.43462467

$$$$

 OpenBabel03272506373D

 28 29  0  0  1  0  0  0  0  0999 V2000
   35.4640   30.4940   34.1970 O   0  0  0  0  0  0  0  0  0  0  0  0
   37.0130   28.1850   35.0820 O   0  0  0  0  0  0  0  0  0  0  0  0
   36.4380   28.2980   33.9800 C   0  0  0  0  0  0  0  0  0  0  0  0
   35.2580   29.1490   33.7880 C   0  0  2  0  0  0  0  0  0  0  0  0
   35.0890   29.1130   32.2620 C   0  0  0  0  0  0  0  0  0  0  0  0
   35.6880   27.7920   31.8860 C   0  0  0  0  0  0  0  0  0  0  0  0
   36.8350   27.6290   32.7740 N   0  0  0  0  0  0  0  0  0  0  0  0
   34.3520   28.7240   34.2620 H   0  0  0  0  0  0  0  0  0  0  0  0
   35.5850   29.9480   31.7630 H   0  0  0  0  0  0  0  0  0  0  0  0
   33.9900   29.0840   32.0650 H   0  0  0  0  0  0  0  0  0  0  0  0
   36.0190   27.7650   30.8200 H   0  0  0  0  0  0  0  0  0  0  0  0
   34.9880   26.9580   32.1250 H   0  0  0  0  0  0  0  0  0  0  0  0
   38.1110   26.9820   32.6050 C   0  0  0  0  0  0  0  0  0  0  0  0
   38.9580   27.6560   32.7200 H   0  0  0  0  0  0  0  0  0  0  0  0
   38.1900   25.7530   32.3490 O   0  0  0  0  0  0  0  0  0  0  0  0
   34.7450   30.9700   35.2760 C   0  0  0  0  0  0  0  0  0  0  0  0
   35.4100   31.9770   35.9870 C   0  0  0  0  0  0  0  0  0  0  0  0
   34.7780   32.5340   37.1000 C   0  0  0  0  0  0  0  0  0  0  0  0
   33.5430   32.0640   37.4340 N   0  0  0  0  0  0  0  0  0  0  0  0
   32.9200   31.0910   36.7330 C   0  0  0  0  0  0  0  0  0  0  0  0
   33.5310   30.5720   35.6800 N   0  0  0  0  0  0  0  0  0  0  0  0
   30.6540   30.8240   36.0890 C   0  0  0  0  0  0  0  0  0  0  0  0
   30.8100   31.3210   34.9330 O   0  0  0  0  0  0  0  0  0  0  0  0
   31.6300   30.6360   37.1260 N   0  0  0  0  0  0  0  0  0  0  0  0
   36.3890   32.3810   35.7590 H   0  0  0  0  0  0  0  0  0  0  0  0
   35.2700   33.3150   37.6660 H   0  0  0  0  0  0  0  0  0  0  0  0
   29.6060   30.5590   36.1480 H   0  0  0  0  0  0  0  0  0  0  0  0
   31.2980   30.2080   38.0060 H   0  0  0  0  0  0  0  0  0  0  0  0
  1 16  1  0  0  0  0
  3  2  2  0  0  0  0
  4  3  1  0  0  0  0
  4  1  1  0  0  0  0
  4  8  1  1  0  0  0
  5  4  1  0  0  0  0
  6 12  1  0  0  0  0
  6  5  1  0  0  0  0
  6  7  1  0  0  0  0
  7  3  1  0  0  0  0
  9  5  1  0  0  0  0
 10  5  1  0  0  0  0
 11  6  1  0  0  0  0
 13 14  1  0  0  0  0
 13  7  1  0  0  0  0
 15 13  2  0  0  0  0
 16 21  2  0  0  0  0
 16 17  1  0  0  0  0
 17 18  2  0  0  0  0
 18 19  1  0  0  0  0
 18 26  1  0  0  0  0
 20 24  1  0  0  0  0
 20 19  2  0  0  0  0
 21 20  1  0  0  0  0
 22 27  1  0  0  0  0
 22 24  1  0  0  0  0
 23 22  2  0  0  0  0
 24 28  1  0  0  0  0
 25 17  1  0  0  0  0
M  END
>  <minimizedAffinity>
-4.42838097

$$$$
