
 OpenBabel03272508073D

 18 18  0  0  0  0  0  0  0  0999 V2000
   37.3730   30.2460   51.2710 C   0  0  0  0  0  0  0  0  0  0  0  0
   38.0520   30.5910   50.1040 C   0  0  0  0  0  0  0  0  0  0  0  0
   37.5160   30.1780   48.8840 C   0  0  0  0  0  0  0  0  0  0  0  0
   36.3590   29.4650   48.9100 N   0  0  0  0  0  0  0  0  0  0  0  0
   35.7310   29.1490   50.0500 C   0  0  0  0  0  0  0  0  0  0  0  0
   36.2340   29.5380   51.2190 N   0  0  0  0  0  0  0  0  0  0  0  0
   37.8470   30.6010   52.1940 H   0  0  0  0  0  0  0  0  0  0  0  0
   38.9520   31.1420   50.0180 H   0  0  0  0  0  0  0  0  0  0  0  0
   34.8000   28.5750   50.0720 H   0  0  0  0  0  0  0  0  0  0  0  0
   37.9960   30.3940   47.6310 O   0  0  0  0  0  0  0  0  0  0  0  0
   39.0840   32.8080   48.0310 O   0  0  0  0  0  0  0  0  0  0  0  0
   38.7400   31.7650   47.0070 P   0  0  2  0  0  0  0  0  0  0  0  0
   37.7760   32.4840   45.7970 O   0  0  0  0  0  0  0  0  0  0  0  0
   37.4310   31.7830   45.1890 H   0  0  0  0  0  0  0  0  0  0  0  0
   40.1950   31.3120   46.2490 O   0  0  0  0  0  0  0  0  0  0  0  0
   40.6070   31.8900   45.0390 C   0  0  0  0  0  0  0  0  0  0  0  0
   40.7700   32.9440   44.8560 H   0  0  0  0  0  0  0  0  0  0  0  0
   40.7890   31.0480   44.0990 O   0  0  0  0  0  0  0  0  0  0  0  0
  1  7  1  0  0  0  0
  2  1  2  0  0  0  0
  3  4  2  0  0  0  0
  3  2  1  0  0  0  0
  4  5  1  0  0  0  0
  5  9  1  0  0  0  0
  5  6  2  0  0  0  0
  6  1  1  0  0  0  0
  8  2  1  0  0  0  0
 10  3  1  0  0  0  0
 12 10  1  0  0  0  0
 12 11  2  1  0  0  0
 13 12  1  0  0  0  0
 14 13  1  0  0  0  0
 15 12  1  0  0  0  0
 16 15  1  0  0  0  0
 17 16  1  0  0  0  0
 18 16  2  0  0  0  0
M  END
>  <minimizedAffinity>
-4.62107325

>  <minimizedRMSD>
1.15021968

$$$$
