
 OpenBabel03262521433D

 24 25  0  0  1  0  0  0  0  0999 V2000
   34.9540   21.1760   32.3740 C   0  0  1  0  0  0  0  0  0  0  0  0
   35.5470   21.6200   31.0300 C   0  0  2  0  0  0  0  0  0  0  0  0
   36.5330   20.4790   30.9120 C   0  0  0  0  0  0  0  0  0  0  0  0
   35.8140   19.3430   31.2230 O   0  0  0  0  0  0  0  0  0  0  0  0
   34.7560   19.6950   32.0240 C   0  0  0  0  0  0  0  0  0  0  0  0
   33.9840   21.6880   32.4990 H   0  0  0  0  0  0  0  0  0  0  0  0
   34.7260   21.5480   30.2920 H   0  0  0  0  0  0  0  0  0  0  0  0
   37.2840   20.6200   31.7230 H   0  0  0  0  0  0  0  0  0  0  0  0
   37.0010   20.4340   29.9070 H   0  0  0  0  0  0  0  0  0  0  0  0
   34.7790   19.1330   32.9960 H   0  0  0  0  0  0  0  0  0  0  0  0
   33.7700   19.5220   31.5220 H   0  0  0  0  0  0  0  0  0  0  0  0
   36.1660   22.9500   31.1120 C   0  0  0  0  0  0  0  0  0  0  0  0
   35.3780   24.0750   31.4000 C   0  0  0  0  0  0  0  0  0  0  0  0
   36.0290   25.3120   31.4420 C   0  0  0  0  0  0  0  0  0  0  0  0
   37.3690   25.3620   31.2040 N   0  0  0  0  0  0  0  0  0  0  0  0
   38.1070   24.2420   30.9250 C   0  0  0  0  0  0  0  0  0  0  0  0
   37.4860   23.0380   30.8820 N   0  0  0  0  0  0  0  0  0  0  0  0
   34.3180   24.0120   31.5850 H   0  0  0  0  0  0  0  0  0  0  0  0
   35.5000   26.2360   31.6570 H   0  0  0  0  0  0  0  0  0  0  0  0
   39.1690   24.3340   30.7420 H   0  0  0  0  0  0  0  0  0  0  0  0
   35.8520   21.2240   33.3910 O   0  0  0  0  0  0  0  0  0  0  0  0
   35.6690   20.5290   34.5850 C   0  0  0  0  0  0  0  0  0  0  0  0
   35.2710   19.5120   34.4590 H   0  0  0  0  0  0  0  0  0  0  0  0
   35.9250   20.9910   35.7430 O   0  0  0  0  0  0  0  0  0  0  0  0
  1  6  1  1  0  0  0
  1 21  1  0  0  0  0
  2  7  1  6  0  0  0
  2 12  1  0  0  0  0
  2  1  1  0  0  0  0
  3  2  1  0  0  0  0
  3  4  1  0  0  0  0
  3  8  1  0  0  0  0
  4  5  1  0  0  0  0
  5  1  1  0  0  0  0
  5 10  1  0  0  0  0
  9  3  1  0  0  0  0
 11  5  1  0  0  0  0
 12 13  1  0  0  0  0
 13 14  2  0  0  0  0
 13 18  1  0  0  0  0
 14 19  1  0  0  0  0
 15 14  1  0  0  0  0
 16 15  2  0  0  0  0
 17 16  1  0  0  0  0
 17 12  2  0  0  0  0
 20 16  1  0  0  0  0
 21 22  1  0  0  0  0
 22 24  2  0  0  0  0
 23 22  1  0  0  0  0
M  END
>  <minimizedAffinity>
-3.72258878

$$$$

 OpenBabel03262521433D

 24 25  0  0  1  0  0  0  0  0999 V2000
   37.7670   24.1850   36.9410 C   0  0  1  0  0  0  0  0  0  0  0  0
   38.2770   22.7380   36.8800 C   0  0  2  0  0  0  0  0  0  0  0  0
   39.4730   22.9580   37.7800 C   0  0  0  0  0  0  0  0  0  0  0  0
   38.9920   23.6770   38.8560 O   0  0  0  0  0  0  0  0  0  0  0  0
   37.8760   24.3700   38.4610 C   0  0  0  0  0  0  0  0  0  0  0  0
   36.7130   24.1840   36.6150 H   0  0  0  0  0  0  0  0  0  0  0  0
   37.4960   22.1170   37.3590 H   0  0  0  0  0  0  0  0  0  0  0  0
   40.1700   23.6300   37.2270 H   0  0  0  0  0  0  0  0  0  0  0  0
   39.9530   22.0040   38.0770 H   0  0  0  0  0  0  0  0  0  0  0  0
   37.9980   25.4720   38.6390 H   0  0  0  0  0  0  0  0  0  0  0  0
   36.9510   24.0140   38.9830 H   0  0  0  0  0  0  0  0  0  0  0  0
   38.6140   22.3290   35.5110 C   0  0  0  0  0  0  0  0  0  0  0  0
   37.5960   21.9950   34.6060 C   0  0  0  0  0  0  0  0  0  0  0  0
   37.9900   21.5940   33.3260 C   0  0  0  0  0  0  0  0  0  0  0  0
   39.3180   21.5470   33.0280 N   0  0  0  0  0  0  0  0  0  0  0  0
   40.2870   21.8800   33.9380 C   0  0  0  0  0  0  0  0  0  0  0  0
   39.9150   22.2710   35.1810 N   0  0  0  0  0  0  0  0  0  0  0  0
   36.5500   22.0390   34.8640 H   0  0  0  0  0  0  0  0  0  0  0  0
   37.2710   21.3170   32.5600 H   0  0  0  0  0  0  0  0  0  0  0  0
   41.3290   21.8270   33.6530 H   0  0  0  0  0  0  0  0  0  0  0  0
   38.6240   25.0720   36.3740 O   0  0  0  0  0  0  0  0  0  0  0  0
   38.2780   26.4020   36.1400 C   0  0  0  0  0  0  0  0  0  0  0  0
   37.2200   26.6330   36.3260 H   0  0  0  0  0  0  0  0  0  0  0  0
   39.0840   27.3050   35.7440 O   0  0  0  0  0  0  0  0  0  0  0  0
  1  6  1  6  0  0  0
  1  5  1  0  0  0  0
  2  1  1  0  0  0  0
  2  7  1  1  0  0  0
  2  3  1  0  0  0  0
  3  9  1  0  0  0  0
  3  4  1  0  0  0  0
  5 10  1  0  0  0  0
  5  4  1  0  0  0  0
  5 11  1  0  0  0  0
  8  3  1  0  0  0  0
 12  2  1  0  0  0  0
 13 18  1  0  0  0  0
 13 12  2  0  0  0  0
 14 13  1  0  0  0  0
 15 14  2  0  0  0  0
 15 16  1  0  0  0  0
 16 17  2  0  0  0  0
 17 12  1  0  0  0  0
 19 14  1  0  0  0  0
 20 16  1  0  0  0  0
 21  1  1  0  0  0  0
 22 23  1  0  0  0  0
 22 21  1  0  0  0  0
 24 22  2  0  0  0  0
M  END
>  <minimizedAffinity>
-3.71544003

$$$$

 OpenBabel03262521433D

 24 25  0  0  1  0  0  0  0  0999 V2000
   37.7640   24.1620   36.9430 C   0  0  1  0  0  0  0  0  0  0  0  0
   38.2830   22.7190   36.8680 C   0  0  2  0  0  0  0  0  0  0  0  0
   39.4960   22.9460   37.7440 C   0  0  0  0  0  0  0  0  0  0  0  0
   39.0310   23.6580   38.8320 O   0  0  0  0  0  0  0  0  0  0  0  0
   37.9010   24.3440   38.4610 C   0  0  0  0  0  0  0  0  0  0  0  0
   36.7030   24.1530   36.6380 H   0  0  0  0  0  0  0  0  0  0  0  0
   37.5170   22.0900   37.3610 H   0  0  0  0  0  0  0  0  0  0  0  0
   40.1760   23.6240   37.1790 H   0  0  0  0  0  0  0  0  0  0  0  0
   39.9890   21.9940   38.0290 H   0  0  0  0  0  0  0  0  0  0  0  0
   38.0180   25.4450   38.6390 H   0  0  0  0  0  0  0  0  0  0  0  0
   36.9900   23.9790   39.0000 H   0  0  0  0  0  0  0  0  0  0  0  0
   38.5960   22.3160   35.4910 C   0  0  0  0  0  0  0  0  0  0  0  0
   39.9310   22.2430   35.0660 C   0  0  0  0  0  0  0  0  0  0  0  0
   40.1560   21.8720   33.7370 C   0  0  0  0  0  0  0  0  0  0  0  0
   39.0870   21.6070   32.9350 N   0  0  0  0  0  0  0  0  0  0  0  0
   37.7940   21.6890   33.3840 C   0  0  0  0  0  0  0  0  0  0  0  0
   37.5670   22.0460   34.6710 N   0  0  0  0  0  0  0  0  0  0  0  0
   40.7620   22.4580   35.7180 H   0  0  0  0  0  0  0  0  0  0  0  0
   41.1560   21.7900   33.3210 H   0  0  0  0  0  0  0  0  0  0  0  0
   36.9790   21.4680   32.7090 H   0  0  0  0  0  0  0  0  0  0  0  0
   38.6030   25.0570   36.3610 O   0  0  0  0  0  0  0  0  0  0  0  0
   38.1900   26.3340   35.9860 C   0  0  0  0  0  0  0  0  0  0  0  0
   37.1210   26.4110   35.7430 H   0  0  0  0  0  0  0  0  0  0  0  0
   38.9510   27.3540   35.9170 O   0  0  0  0  0  0  0  0  0  0  0  0
  1  6  1  6  0  0  0
  1  5  1  0  0  0  0
  2  1  1  0  0  0  0
  2  7  1  1  0  0  0
  2  3  1  0  0  0  0
  3  9  1  0  0  0  0
  3  4  1  0  0  0  0
  5 10  1  0  0  0  0
  5  4  1  0  0  0  0
  5 11  1  0  0  0  0
  8  3  1  0  0  0  0
 12  2  1  0  0  0  0
 13 12  1  0  0  0  0
 13 18  1  0  0  0  0
 14 13  2  0  0  0  0
 15 16  2  0  0  0  0
 15 14  1  0  0  0  0
 16 17  1  0  0  0  0
 17 12  2  0  0  0  0
 19 14  1  0  0  0  0
 20 16  1  0  0  0  0
 21  1  1  0  0  0  0
 22 21  1  0  0  0  0
 23 22  1  0  0  0  0
 24 22  2  0  0  0  0
M  END
>  <minimizedAffinity>
-3.68835998

$$$$

 OpenBabel03262521433D

 24 25  0  0  1  0  0  0  0  0999 V2000
   38.7440   26.0090   34.8790 C   0  0  1  0  0  0  0  0  0  0  0  0
   38.2020   26.7270   33.6350 C   0  0  2  0  0  0  0  0  0  0  0  0
   37.0700   27.4340   34.3470 C   0  0  0  0  0  0  0  0  0  0  0  0
   37.6330   27.9610   35.4930 O   0  0  0  0  0  0  0  0  0  0  0  0
   38.7360   27.2170   35.8250 C   0  0  0  0  0  0  0  0  0  0  0  0
   39.7750   25.6850   34.6560 H   0  0  0  0  0  0  0  0  0  0  0  0
   38.9980   27.4240   33.3100 H   0  0  0  0  0  0  0  0  0  0  0  0
   36.3530   26.6440   34.6720 H   0  0  0  0  0  0  0  0  0  0  0  0
   36.5890   28.2030   33.7080 H   0  0  0  0  0  0  0  0  0  0  0  0
   38.6490   26.8040   36.8650 H   0  0  0  0  0  0  0  0  0  0  0  0
   39.6850   27.8070   35.7430 H   0  0  0  0  0  0  0  0  0  0  0  0
   37.7690   25.7830   32.5960 C   0  0  0  0  0  0  0  0  0  0  0  0
   38.7170   25.0050   31.9160 C   0  0  0  0  0  0  0  0  0  0  0  0
   38.2370   24.1420   30.9250 C   0  0  0  0  0  0  0  0  0  0  0  0
   36.8990   24.1030   30.6740 N   0  0  0  0  0  0  0  0  0  0  0  0
   36.0010   24.8790   31.3590 C   0  0  0  0  0  0  0  0  0  0  0  0
   36.4560   25.7170   32.3220 N   0  0  0  0  0  0  0  0  0  0  0  0
   39.7720   25.0520   32.1300 H   0  0  0  0  0  0  0  0  0  0  0  0
   38.8980   23.5020   30.3470 H   0  0  0  0  0  0  0  0  0  0  0  0
   34.9480   24.8120   31.1240 H   0  0  0  0  0  0  0  0  0  0  0  0
   37.8720   25.1020   35.3890 O   0  0  0  0  0  0  0  0  0  0  0  0
   38.0030   24.5790   36.6740 C   0  0  0  0  0  0  0  0  0  0  0  0
   38.7580   25.0840   37.2930 H   0  0  0  0  0  0  0  0  0  0  0  0
   37.3290   23.6010   37.1340 O   0  0  0  0  0  0  0  0  0  0  0  0
  1  6  1  6  0  0  0
  1 21  1  0  0  0  0
  1  5  1  0  0  0  0
  2  7  1  6  0  0  0
  2  3  1  0  0  0  0
  2  1  1  0  0  0  0
  3  8  1  0  0  0  0
  3  4  1  0  0  0  0
  4  5  1  0  0  0  0
  5 10  1  0  0  0  0
  9  3  1  0  0  0  0
 11  5  1  0  0  0  0
 12  2  1  0  0  0  0
 13 18  1  0  0  0  0
 13 12  2  0  0  0  0
 14 13  1  0  0  0  0
 15 14  2  0  0  0  0
 15 16  1  0  0  0  0
 16 17  2  0  0  0  0
 17 12  1  0  0  0  0
 19 14  1  0  0  0  0
 20 16  1  0  0  0  0
 21 22  1  0  0  0  0
 22 24  2  0  0  0  0
 22 23  1  0  0  0  0
M  END
>  <minimizedAffinity>
-3.49897861

$$$$

 OpenBabel03262521433D

 24 25  0  0  1  0  0  0  0  0999 V2000
   37.3790   25.2000   31.7640 C   0  0  1  0  0  0  0  0  0  0  0  0
   36.5730   24.1860   30.9400 C   0  0  2  0  0  0  0  0  0  0  0  0
   35.2430   24.8930   31.0850 C   0  0  0  0  0  0  0  0  0  0  0  0
   35.5090   26.2240   30.8270 O   0  0  0  0  0  0  0  0  0  0  0  0
   36.8290   26.4730   31.1060 C   0  0  0  0  0  0  0  0  0  0  0  0
   38.4470   25.0570   31.5210 H   0  0  0  0  0  0  0  0  0  0  0  0
   36.9720   24.2410   29.9090 H   0  0  0  0  0  0  0  0  0  0  0  0
   34.9580   24.8220   32.1600 H   0  0  0  0  0  0  0  0  0  0  0  0
   34.4700   24.4690   30.4130 H   0  0  0  0  0  0  0  0  0  0  0  0
   36.9350   27.2930   31.8650 H   0  0  0  0  0  0  0  0  0  0  0  0
   37.4110   26.7430   30.1880 H   0  0  0  0  0  0  0  0  0  0  0  0
   36.6120   22.8410   31.5290 C   0  0  0  0  0  0  0  0  0  0  0  0
   35.4230   22.2190   31.9380 C   0  0  0  0  0  0  0  0  0  0  0  0
   35.5360   20.9470   32.5090 C   0  0  0  0  0  0  0  0  0  0  0  0
   36.7720   20.3880   32.6380 N   0  0  0  0  0  0  0  0  0  0  0  0
   37.9130   21.0260   32.2260 C   0  0  0  0  0  0  0  0  0  0  0  0
   37.8140   22.2580   31.6710 N   0  0  0  0  0  0  0  0  0  0  0  0
   34.4560   22.6810   31.8280 H   0  0  0  0  0  0  0  0  0  0  0  0
   34.6710   20.3900   32.8550 H   0  0  0  0  0  0  0  0  0  0  0  0
   38.8710   20.5400   32.3490 H   0  0  0  0  0  0  0  0  0  0  0  0
   37.0070   25.2380   33.0690 O   0  0  0  0  0  0  0  0  0  0  0  0
   37.5180   26.1740   33.9650 C   0  0  0  0  0  0  0  0  0  0  0  0
   38.5160   26.5520   33.7050 H   0  0  0  0  0  0  0  0  0  0  0  0
   36.9150   26.5870   35.0090 O   0  0  0  0  0  0  0  0  0  0  0  0
  1  6  1  6  0  0  0
  1 21  1  0  0  0  0
  2  7  1  6  0  0  0
  2  3  1  0  0  0  0
  2 12  1  0  0  0  0
  2  1  1  0  0  0  0
  3  8  1  0  0  0  0
  4  3  1  0  0  0  0
  4  5  1  0  0  0  0
  5  1  1  0  0  0  0
  5 10  1  0  0  0  0
  9  3  1  0  0  0  0
 11  5  1  0  0  0  0
 12 17  2  0  0  0  0
 12 13  1  0  0  0  0
 13 14  2  0  0  0  0
 14 15  1  0  0  0  0
 14 19  1  0  0  0  0
 16 20  1  0  0  0  0
 16 15  2  0  0  0  0
 17 16  1  0  0  0  0
 18 13  1  0  0  0  0
 21 22  1  0  0  0  0
 22 24  2  0  0  0  0
 23 22  1  0  0  0  0
M  END
>  <minimizedAffinity>
-3.36237526

$$$$

 OpenBabel03262521433D

 24 25  0  0  1  0  0  0  0  0999 V2000
   37.7720   23.0680   33.7390 C   0  0  1  0  0  0  0  0  0  0  0  0
   39.0610   23.5710   34.4050 C   0  0  2  0  0  0  0  0  0  0  0  0
   39.9650   22.5140   33.8110 C   0  0  0  0  0  0  0  0  0  0  0  0
   39.6300   22.4590   32.4720 O   0  0  0  0  0  0  0  0  0  0  0  0
   38.3360   22.8930   32.3220 C   0  0  0  0  0  0  0  0  0  0  0  0
   37.0340   23.8870   33.7750 H   0  0  0  0  0  0  0  0  0  0  0  0
   39.2520   24.5770   33.9850 H   0  0  0  0  0  0  0  0  0  0  0  0
   39.6590   21.5410   34.2610 H   0  0  0  0  0  0  0  0  0  0  0  0
   41.0380   22.7390   33.9790 H   0  0  0  0  0  0  0  0  0  0  0  0
   37.7020   22.1140   31.8220 H   0  0  0  0  0  0  0  0  0  0  0  0
   38.2760   23.8470   31.7380 H   0  0  0  0  0  0  0  0  0  0  0  0
   38.9730   23.5400   35.8710 C   0  0  0  0  0  0  0  0  0  0  0  0
   37.9750   24.2710   36.5310 C   0  0  0  0  0  0  0  0  0  0  0  0
   37.9630   24.2120   37.9290 C   0  0  0  0  0  0  0  0  0  0  0  0
   38.9050   23.4630   38.5660 N   0  0  0  0  0  0  0  0  0  0  0  0
   39.8670   22.7600   37.8880 C   0  0  0  0  0  0  0  0  0  0  0  0
   39.8860   22.8110   36.5340 N   0  0  0  0  0  0  0  0  0  0  0  0
   37.2390   24.8580   36.0060 H   0  0  0  0  0  0  0  0  0  0  0  0
   37.2270   24.7460   38.5230 H   0  0  0  0  0  0  0  0  0  0  0  0
   40.5930   22.1800   38.4400 H   0  0  0  0  0  0  0  0  0  0  0  0
   37.4000   21.8350   34.1700 O   0  0  0  0  0  0  0  0  0  0  0  0
   36.3610   21.1190   33.5800 C   0  0  0  0  0  0  0  0  0  0  0  0
   36.3050   21.2210   32.4870 H   0  0  0  0  0  0  0  0  0  0  0  0
   35.5240   20.3970   34.2120 O   0  0  0  0  0  0  0  0  0  0  0  0
  1  6  1  1  0  0  0
  1 21  1  0  0  0  0
  1  2  1  0  0  0  0
  2  7  1  6  0  0  0
  2 12  1  0  0  0  0
  3  9  1  0  0  0  0
  3  8  1  0  0  0  0
  3  2  1  0  0  0  0
  4  3  1  0  0  0  0
  5  4  1  0  0  0  0
  5  1  1  0  0  0  0
 10  5  1  0  0  0  0
 11  5  1  0  0  0  0
 12 13  2  0  0  0  0
 12 17  1  0  0  0  0
 13 14  1  0  0  0  0
 14 19  1  0  0  0  0
 14 15  2  0  0  0  0
 16 20  1  0  0  0  0
 16 15  1  0  0  0  0
 17 16  2  0  0  0  0
 18 13  1  0  0  0  0
 22 21  1  0  0  0  0
 22 24  2  0  0  0  0
 23 22  1  0  0  0  0
M  END
>  <minimizedAffinity>
-3.35301471

$$$$

 OpenBabel03262521433D

 24 25  0  0  1  0  0  0  0  0999 V2000
   37.1850   26.4010   33.6140 C   0  0  1  0  0  0  0  0  0  0  0  0
   38.4780   26.5620   34.4240 C   0  0  2  0  0  0  0  0  0  0  0  0
   39.4020   26.6250   33.2280 C   0  0  0  0  0  0  0  0  0  0  0  0
   38.8000   27.5020   32.3480 O   0  0  0  0  0  0  0  0  0  0  0  0
   37.4500   27.5150   32.5920 C   0  0  0  0  0  0  0  0  0  0  0  0
   36.3400   26.6610   34.2750 H   0  0  0  0  0  0  0  0  0  0  0  0
   38.3950   27.5350   34.9460 H   0  0  0  0  0  0  0  0  0  0  0  0
   39.3770   25.6180   32.7500 H   0  0  0  0  0  0  0  0  0  0  0  0
   40.4300   26.9320   33.5090 H   0  0  0  0  0  0  0  0  0  0  0  0
   36.8680   27.2450   31.6700 H   0  0  0  0  0  0  0  0  0  0  0  0
   37.0980   28.5080   32.9700 H   0  0  0  0  0  0  0  0  0  0  0  0
   38.7180   25.4200   35.3160 C   0  0  0  0  0  0  0  0  0  0  0  0
   39.8480   24.6110   35.1340 C   0  0  0  0  0  0  0  0  0  0  0  0
   40.0020   23.5290   36.0060 C   0  0  0  0  0  0  0  0  0  0  0  0
   39.0630   23.3180   36.9700 N   0  0  0  0  0  0  0  0  0  0  0  0
   37.9700   24.1310   37.1190 C   0  0  0  0  0  0  0  0  0  0  0  0
   37.8120   25.1820   36.2790 N   0  0  0  0  0  0  0  0  0  0  0  0
   40.5790   24.7960   34.3630 H   0  0  0  0  0  0  0  0  0  0  0  0
   40.8470   22.8490   35.9400 H   0  0  0  0  0  0  0  0  0  0  0  0
   37.2520   23.9220   37.9000 H   0  0  0  0  0  0  0  0  0  0  0  0
   37.1360   25.2340   32.9210 O   0  0  0  0  0  0  0  0  0  0  0  0
   36.2640   25.0350   31.8520 C   0  0  0  0  0  0  0  0  0  0  0  0
   35.2500   25.4270   32.0160 H   0  0  0  0  0  0  0  0  0  0  0  0
   36.5710   24.4530   30.7610 O   0  0  0  0  0  0  0  0  0  0  0  0
  1  6  1  1  0  0  0
  1  2  1  0  0  0  0
  2  7  1  1  0  0  0
  2 12  1  0  0  0  0
  3  9  1  0  0  0  0
  3  2  1  0  0  0  0
  4  5  1  0  0  0  0
  4  3  1  0  0  0  0
  5 11  1  0  0  0  0
  5  1  1  0  0  0  0
  8  3  1  0  0  0  0
 10  5  1  0  0  0  0
 12 17  1  0  0  0  0
 13 12  2  0  0  0  0
 13 14  1  0  0  0  0
 14 15  2  0  0  0  0
 15 16  1  0  0  0  0
 16 20  1  0  0  0  0
 17 16  2  0  0  0  0
 18 13  1  0  0  0  0
 19 14  1  0  0  0  0
 21  1  1  0  0  0  0
 22 23  1  0  0  0  0
 22 21  1  0  0  0  0
 24 22  2  0  0  0  0
M  END
>  <minimizedAffinity>
-3.34466887

$$$$

 OpenBabel03262521433D

 24 25  0  0  1  0  0  0  0  0999 V2000
   38.8290   22.2620   36.0980 C   0  0  1  0  0  0  0  0  0  0  0  0
   39.3390   22.5050   34.6700 C   0  0  2  0  0  0  0  0  0  0  0  0
   40.1680   23.7240   35.0080 C   0  0  0  0  0  0  0  0  0  0  0  0
   40.8710   23.3830   36.1470 O   0  0  0  0  0  0  0  0  0  0  0  0
   40.1770   22.4070   36.8170 C   0  0  0  0  0  0  0  0  0  0  0  0
   38.4600   21.2240   36.1510 H   0  0  0  0  0  0  0  0  0  0  0  0
   39.9620   21.6270   34.4130 H   0  0  0  0  0  0  0  0  0  0  0  0
   39.4520   24.5280   35.2970 H   0  0  0  0  0  0  0  0  0  0  0  0
   40.8260   24.0270   34.1680 H   0  0  0  0  0  0  0  0  0  0  0  0
   39.9430   22.7240   37.8680 H   0  0  0  0  0  0  0  0  0  0  0  0
   40.7330   21.4350   36.8420 H   0  0  0  0  0  0  0  0  0  0  0  0
   38.2410   22.7600   33.7280 C   0  0  0  0  0  0  0  0  0  0  0  0
   37.3650   21.7230   33.3730 C   0  0  0  0  0  0  0  0  0  0  0  0
   36.3560   22.0310   32.4550 C   0  0  0  0  0  0  0  0  0  0  0  0
   36.2770   23.2980   31.9600 N   0  0  0  0  0  0  0  0  0  0  0  0
   37.1520   24.2860   32.3300 C   0  0  0  0  0  0  0  0  0  0  0  0
   38.1320   23.9980   33.2190 N   0  0  0  0  0  0  0  0  0  0  0  0
   37.4460   20.7280   33.7770 H   0  0  0  0  0  0  0  0  0  0  0  0
   35.6330   21.2930   32.1230 H   0  0  0  0  0  0  0  0  0  0  0  0
   37.0470   25.2770   31.9080 H   0  0  0  0  0  0  0  0  0  0  0  0
   38.0310   23.2620   36.5520 O   0  0  0  0  0  0  0  0  0  0  0  0
   37.7640   23.4490   37.9070 C   0  0  0  0  0  0  0  0  0  0  0  0
   37.3420   22.5680   38.4110 H   0  0  0  0  0  0  0  0  0  0  0  0
   37.9750   24.5300   38.5480 O   0  0  0  0  0  0  0  0  0  0  0  0
  1  6  1  1  0  0  0
  1 21  1  0  0  0  0
  1  5  1  0  0  0  0
  2  7  1  6  0  0  0
  2  3  1  0  0  0  0
  2  1  1  0  0  0  0
  3  8  1  0  0  0  0
  3  4  1  0  0  0  0
  4  5  1  0  0  0  0
  5 11  1  0  0  0  0
  5 10  1  0  0  0  0
  9  3  1  0  0  0  0
 12  2  1  0  0  0  0
 13 12  1  0  0  0  0
 13 18  1  0  0  0  0
 14 13  2  0  0  0  0
 15 16  2  0  0  0  0
 15 14  1  0  0  0  0
 16 17  1  0  0  0  0
 17 12  2  0  0  0  0
 19 14  1  0  0  0  0
 20 16  1  0  0  0  0
 21 22  1  0  0  0  0
 22 23  1  0  0  0  0
 22 24  2  0  0  0  0
M  END
>  <minimizedAffinity>
-3.34288096

$$$$

 OpenBabel03262521433D

 24 25  0  0  1  0  0  0  0  0999 V2000
   39.8950   24.5560   33.9160 C   0  0  1  0  0  0  0  0  0  0  0  0
   38.5700   24.1530   34.5770 C   0  0  2  0  0  0  0  0  0  0  0  0
   37.8410   25.4380   34.2570 C   0  0  0  0  0  0  0  0  0  0  0  0
   38.1190   25.6930   32.9280 O   0  0  0  0  0  0  0  0  0  0  0  0
   39.3070   25.0900   32.6020 C   0  0  0  0  0  0  0  0  0  0  0  0
   40.4790   23.6350   33.7440 H   0  0  0  0  0  0  0  0  0  0  0  0
   38.1860   23.2920   33.9970 H   0  0  0  0  0  0  0  0  0  0  0  0
   38.3320   26.2420   34.8510 H   0  0  0  0  0  0  0  0  0  0  0  0
   36.7530   25.3640   34.4640 H   0  0  0  0  0  0  0  0  0  0  0  0
   40.0460   25.8360   32.2050 H   0  0  0  0  0  0  0  0  0  0  0  0
   39.1730   24.2700   31.8520 H   0  0  0  0  0  0  0  0  0  0  0  0
   38.7280   23.8860   36.0130 C   0  0  0  0  0  0  0  0  0  0  0  0
   39.7200   23.0010   36.4590 C   0  0  0  0  0  0  0  0  0  0  0  0
   39.8000   22.7780   37.8370 C   0  0  0  0  0  0  0  0  0  0  0  0
   38.9270   23.4190   38.6620 N   0  0  0  0  0  0  0  0  0  0  0  0
   37.9680   24.2790   38.1910 C   0  0  0  0  0  0  0  0  0  0  0  0
   37.8830   24.5020   36.8570 N   0  0  0  0  0  0  0  0  0  0  0  0
   40.4010   22.5030   35.7870 H   0  0  0  0  0  0  0  0  0  0  0  0
   40.5370   22.1090   38.2720 H   0  0  0  0  0  0  0  0  0  0  0  0
   37.2980   24.7640   38.8860 H   0  0  0  0  0  0  0  0  0  0  0  0
   40.4980   25.6040   34.5330 O   0  0  0  0  0  0  0  0  0  0  0  0
   41.7210   26.1200   34.1090 C   0  0  0  0  0  0  0  0  0  0  0  0
   42.4950   25.3610   33.9320 H   0  0  0  0  0  0  0  0  0  0  0  0
   41.9650   27.3570   33.9270 O   0  0  0  0  0  0  0  0  0  0  0  0
  1  6  1  6  0  0  0
  1 21  1  0  0  0  0
  1  2  1  0  0  0  0
  2  7  1  6  0  0  0
  2 12  1  0  0  0  0
  3  9  1  0  0  0  0
  3  2  1  0  0  0  0
  3  8  1  0  0  0  0
  4  3  1  0  0  0  0
  5  4  1  0  0  0  0
  5  1  1  0  0  0  0
 10  5  1  0  0  0  0
 11  5  1  0  0  0  0
 12 13  2  0  0  0  0
 12 17  1  0  0  0  0
 13 14  1  0  0  0  0
 14 19  1  0  0  0  0
 14 15  2  0  0  0  0
 16 15  1  0  0  0  0
 16 20  1  0  0  0  0
 17 16  2  0  0  0  0
 18 13  1  0  0  0  0
 22 21  1  0  0  0  0
 23 22  1  0  0  0  0
 24 22  2  0  0  0  0
M  END
>  <minimizedAffinity>
-3.338274

$$$$
