
 OpenBabel03272510243D

 26 28  0  0  0  0  0  0  0  0999 V2000
   36.0480   30.2620   46.7300 C   0  0  0  0  0  0  0  0  0  0  0  0
   37.1730   30.4010   47.5480 C   0  0  0  0  0  0  0  0  0  0  0  0
   38.3920   30.7480   47.0110 C   0  0  0  0  0  0  0  0  0  0  0  0
   38.4460   30.9520   45.6290 C   0  0  0  0  0  0  0  0  0  0  0  0
   39.5300   31.2980   44.8790 N   0  0  0  0  0  0  0  0  0  0  0  0
   39.0930   31.3780   43.6080 C   0  0  0  0  0  0  0  0  0  0  0  0
   37.7910   31.0980   43.5280 N   0  0  0  0  0  0  0  0  0  0  0  0
   37.3560   30.8270   44.7780 C   0  0  0  0  0  0  0  0  0  0  0  0
   36.1400   30.4750   45.3520 C   0  0  0  0  0  0  0  0  0  0  0  0
   35.0620   29.9920   47.0870 H   0  0  0  0  0  0  0  0  0  0  0  0
   39.2580   30.8560   47.6300 H   0  0  0  0  0  0  0  0  0  0  0  0
   40.5030   31.4640   45.2510 H   0  0  0  0  0  0  0  0  0  0  0  0
   35.2840   30.3750   44.6960 H   0  0  0  0  0  0  0  0  0  0  0  0
   37.6040   30.2530   51.2760 C   0  0  0  0  0  0  0  0  0  0  0  0
   37.8980   30.5380   49.9450 C   0  0  0  0  0  0  0  0  0  0  0  0
   36.9850   30.1610   48.9680 C   0  0  0  0  0  0  0  0  0  0  0  0
   35.8320   29.5230   49.3560 N   0  0  0  0  0  0  0  0  0  0  0  0
   35.5790   29.2610   50.6660 C   0  0  0  0  0  0  0  0  0  0  0  0
   36.4580   29.6240   51.6070 N   0  0  0  0  0  0  0  0  0  0  0  0
   38.3850   30.5930   51.9350 H   0  0  0  0  0  0  0  0  0  0  0  0
   38.7890   31.0360   49.5940 H   0  0  0  0  0  0  0  0  0  0  0  0
   34.6800   28.7630   50.9810 H   0  0  0  0  0  0  0  0  0  0  0  0
   39.9960   31.7220   42.5830 O   0  0  0  0  0  0  0  0  0  0  0  0
   40.6700   30.7080   41.8780 C   0  0  0  0  0  0  0  0  0  0  0  0
   40.6560   30.9240   40.8130 H   0  0  0  0  0  0  0  0  0  0  0  0
   41.1950   29.7140   42.4770 O   0  0  0  0  0  0  0  0  0  0  0  0
  1 10  1  0  0  0  0
  1  2  1  0  0  0  0
  2 16  1  0  0  0  0
  3  2  2  0  0  0  0
  3 11  1  0  0  0  0
  4  3  1  0  0  0  0
  5 12  1  0  0  0  0
  5  4  1  0  0  0  0
  6  5  1  0  0  0  0
  7  6  2  0  0  0  0
  7  8  1  0  0  0  0
  8  9  1  0  0  0  0
  8  4  2  0  0  0  0
  9  1  2  0  0  0  0
 13  9  1  0  0  0  0
 14 19  1  0  0  0  0
 14 20  1  0  0  0  0
 15 14  2  0  0  0  0
 16 17  2  0  0  0  0
 16 15  1  0  0  0  0
 17 18  1  0  0  0  0
 18 22  1  0  0  0  0
 18 19  2  0  0  0  0
 21 15  1  0  0  0  0
 23  6  1  0  0  0  0
 24 26  2  0  0  0  0
 24 23  1  0  0  0  0
 25 24  1  0  0  0  0
M  END
>  <minimizedAffinity>
-4.88920784

>  <minimizedRMSD>
2.07406831

$$$$
