
 OpenBabel03272509443D

 13 13  0  0  0  0  0  0  0  0999 V2000
   37.3360   30.2370   51.4540 C   0  0  0  0  0  0  0  0  0  0  0  0
   38.0950   30.7700   50.3860 C   0  0  0  0  0  0  0  0  0  0  0  0
   37.7480   30.4310   49.0730 C   0  0  0  0  0  0  0  0  0  0  0  0
   36.6770   29.5910   48.8950 N   0  0  0  0  0  0  0  0  0  0  0  0
   35.9730   29.1000   49.9530 C   0  0  0  0  0  0  0  0  0  0  0  0
   36.3110   29.4280   51.2120 N   0  0  0  0  0  0  0  0  0  0  0  0
   37.6410   30.5260   52.4510 H   0  0  0  0  0  0  0  0  0  0  0  0
   38.9440   31.4350   50.4960 H   0  0  0  0  0  0  0  0  0  0  0  0
   38.3040   30.8190   48.2580 H   0  0  0  0  0  0  0  0  0  0  0  0
   34.9410   28.2780   49.5570 O   0  0  0  0  0  0  0  0  0  0  0  0
   34.3220   28.4780   48.3350 C   0  0  0  0  0  0  0  0  0  0  0  0
   34.3420   29.5290   48.0330 H   0  0  0  0  0  0  0  0  0  0  0  0
   34.0860   27.2250   48.2970 O   0  0  0  0  0  0  0  0  0  0  0  0
  1  7  1  0  0  0  0
  2  8  1  0  0  0  0
  2  1  2  0  0  0  0
  3  2  1  0  0  0  0
  4  3  2  0  0  0  0
  4  5  1  0  0  0  0
  5  6  2  0  0  0  0
  6  1  1  0  0  0  0
  9  3  1  0  0  0  0
 10  5  1  0  0  0  0
 11 10  1  0  0  0  0
 12 11  1  0  0  0  0
 13 11  2  0  0  0  0
M  END
>  <minimizedAffinity>
-3.36540079

>  <minimizedRMSD>
0.743881285

$$$$
