
 OpenBabel03272509443D

 13 13  0  0  0  0  0  0  0  0999 V2000
   37.3910   30.2940   51.4100 C   0  0  0  0  0  0  0  0  0  0  0  0
   38.1230   30.8580   50.3400 C   0  0  0  0  0  0  0  0  0  0  0  0
   37.7840   30.5070   49.0280 C   0  0  0  0  0  0  0  0  0  0  0  0
   36.7470   29.6240   48.8530 N   0  0  0  0  0  0  0  0  0  0  0  0
   36.0680   29.1050   49.9140 C   0  0  0  0  0  0  0  0  0  0  0  0
   36.3980   29.4450   51.1710 N   0  0  0  0  0  0  0  0  0  0  0  0
   37.6880   30.5940   52.4060 H   0  0  0  0  0  0  0  0  0  0  0  0
   38.9440   31.5560   50.4460 H   0  0  0  0  0  0  0  0  0  0  0  0
   38.3200   30.9180   48.2100 H   0  0  0  0  0  0  0  0  0  0  0  0
   35.0680   28.2420   49.5210 O   0  0  0  0  0  0  0  0  0  0  0  0
   34.2050   28.5960   48.4990 C   0  0  0  0  0  0  0  0  0  0  0  0
   34.7400   28.8270   47.5720 H   0  0  0  0  0  0  0  0  0  0  0  0
   33.2370   28.4280   49.3130 O   0  0  0  0  0  0  0  0  0  0  0  0
  1  7  1  0  0  0  0
  2  8  1  0  0  0  0
  2  1  2  0  0  0  0
  3  2  1  0  0  0  0
  4  3  2  0  0  0  0
  4  5  1  0  0  0  0
  5  6  2  0  0  0  0
  6  1  1  0  0  0  0
  9  3  1  0  0  0  0
 10  5  1  0  0  0  0
 11 13  2  0  0  0  0
 11 10  1  0  0  0  0
 12 11  1  0  0  0  0
M  END
>  <minimizedAffinity>
-3.38445926

>  <minimizedRMSD>
0.684173644

$$$$
