
 OpenBabel03262522203D

 13 13  0  0  0  0  0  0  0  0999 V2000
   37.2570   30.8330   50.7100 C   0  0  0  0  0  0  0  0  0  0  0  0
   36.9980   31.5620   49.5190 C   0  0  0  0  0  0  0  0  0  0  0  0
   36.3680   30.8950   48.4810 C   0  0  0  0  0  0  0  0  0  0  0  0
   36.0390   29.6060   48.6590 N   0  0  0  0  0  0  0  0  0  0  0  0
   36.2910   28.9330   49.7880 C   0  0  0  0  0  0  0  0  0  0  0  0
   36.9020   29.5280   50.8340 N   0  0  0  0  0  0  0  0  0  0  0  0
   37.7500   31.2740   51.5850 H   0  0  0  0  0  0  0  0  0  0  0  0
   36.2150   31.5200   47.6290 H   0  0  0  0  0  0  0  0  0  0  0  0
   35.9920   27.8940   49.8480 H   0  0  0  0  0  0  0  0  0  0  0  0
   37.4390   32.8800   49.5980 O   0  0  0  0  0  0  0  0  0  0  0  0
   38.6580   33.2720   49.0150 C   0  0  0  0  0  0  0  0  0  0  0  0
   38.7810   32.8710   47.9970 H   0  0  0  0  0  0  0  0  0  0  0  0
   39.4450   34.0100   49.6930 O   0  0  0  0  0  0  0  0  0  0  0  0
  1  6  1  0  0  0  0
  1  7  1  0  0  0  0
  2 10  1  0  0  0  0
  2  1  2  0  0  0  0
  3  4  2  0  0  0  0
  3  2  1  0  0  0  0
  4  5  1  0  0  0  0
  5  9  1  0  0  0  0
  5  6  2  0  0  0  0
  8  3  1  0  0  0  0
 11 10  1  0  0  0  0
 11 13  2  0  0  0  0
 12 11  1  0  0  0  0
M  END
>  <minimizedAffinity>
-3.37938213

>  <minimizedRMSD>
2.24439573

$$$$
