
 OpenBabel03272509443D

 13 13  0  0  0  0  0  0  0  0999 V2000
   37.3460   30.2000   51.3220 C   0  0  0  0  0  0  0  0  0  0  0  0
   38.1620   30.8850   50.3930 C   0  0  0  0  0  0  0  0  0  0  0  0
   37.9440   30.6840   49.0240 C   0  0  0  0  0  0  0  0  0  0  0  0
   36.9380   29.8240   48.6600 N   0  0  0  0  0  0  0  0  0  0  0  0
   36.1760   29.1850   49.5900 C   0  0  0  0  0  0  0  0  0  0  0  0
   36.3890   29.3810   50.9020 N   0  0  0  0  0  0  0  0  0  0  0  0
   37.5500   30.3860   52.3690 H   0  0  0  0  0  0  0  0  0  0  0  0
   38.9610   31.5690   50.6500 H   0  0  0  0  0  0  0  0  0  0  0  0
   38.5450   31.1870   48.3090 H   0  0  0  0  0  0  0  0  0  0  0  0
   35.2260   28.3700   49.0150 O   0  0  0  0  0  0  0  0  0  0  0  0
   33.8960   28.4810   49.3850 C   0  0  0  0  0  0  0  0  0  0  0  0
   33.7260   28.1390   50.4100 H   0  0  0  0  0  0  0  0  0  0  0  0
   33.6550   28.9480   48.2230 O   0  0  0  0  0  0  0  0  0  0  0  0
  1  7  1  0  0  0  0
  2  8  1  0  0  0  0
  2  1  2  0  0  0  0
  3  2  1  0  0  0  0
  4  3  2  0  0  0  0
  4  5  1  0  0  0  0
  5  6  2  0  0  0  0
  6  1  1  0  0  0  0
  9  3  1  0  0  0  0
 10 11  1  0  0  0  0
 10  5  1  0  0  0  0
 11 12  1  0  0  0  0
 13 11  2  0  0  0  0
M  END
>  <minimizedAffinity>
-3.29701972

>  <minimizedRMSD>
0.47615099

$$$$
