
 OpenBabel03272507323D

 30 32  0  0  1  0  0  0  0  0999 V2000
   35.8270   29.1390   49.8070 C   0  0  0  0  0  0  0  0  0  0  0  0
   34.8090   29.6440   50.5750 C   0  0  0  0  0  0  0  0  0  0  0  0
   33.6070   29.1020   50.0890 C   0  0  0  0  0  0  0  0  0  0  0  0
   33.9900   28.2880   49.0390 C   0  0  0  0  0  0  0  0  0  0  0  0
   35.2940   28.3410   48.9100 O   0  0  0  0  0  0  0  0  0  0  0  0
   34.8570   30.3360   51.4130 H   0  0  0  0  0  0  0  0  0  0  0  0
   32.6050   29.2790   50.4510 H   0  0  0  0  0  0  0  0  0  0  0  0
   37.2210   29.4900   50.0340 C   0  0  0  0  0  0  0  0  0  0  0  0
   37.8660   28.8820   50.9080 O   0  0  0  0  0  0  0  0  0  0  0  0
   37.7680   30.5370   49.2170 C   0  0  0  0  0  0  0  0  0  0  0  0
   38.1080   31.7220   49.8530 C   0  0  0  0  0  0  0  0  0  0  0  0
   38.6430   32.7580   49.0850 C   0  0  0  0  0  0  0  0  0  0  0  0
   38.8040   32.5470   47.7320 N   0  0  0  0  0  0  0  0  0  0  0  0
   38.4650   31.3940   47.1570 C   0  0  0  0  0  0  0  0  0  0  0  0
   37.9470   30.3850   47.8870 N   0  0  0  0  0  0  0  0  0  0  0  0
   37.9790   31.8790   50.9150 H   0  0  0  0  0  0  0  0  0  0  0  0
   38.9190   33.6940   49.5540 H   0  0  0  0  0  0  0  0  0  0  0  0
   38.5960   31.2380   46.0890 H   0  0  0  0  0  0  0  0  0  0  0  0
   33.0790   27.4970   48.2120 C   0  0  0  0  0  0  0  0  0  0  0  0
   31.8550   27.4160   48.5530 O   0  0  0  0  0  0  0  0  0  0  0  0
   33.5900   26.7930   46.9890 C   0  0  1  0  0  0  0  0  0  0  0  0
   33.8160   25.2640   47.3060 C   0  0  0  0  0  0  0  0  0  0  0  0
   32.8030   25.7490   46.3340 C   0  0  2  0  0  0  0  0  0  0  0  0
   34.5780   27.1900   46.6250 H   0  0  0  0  0  0  0  0  0  0  0  0
   34.7120   24.7950   46.9010 H   0  0  0  0  0  0  0  0  0  0  0  0
   33.3800   24.8870   48.2490 H   0  0  0  0  0  0  0  0  0  0  0  0
   31.7070   25.7650   46.5780 H   0  0  0  0  0  0  0  0  0  0  0  0
   33.0620   25.4350   44.9020 C   0  0  0  0  0  0  0  0  0  0  0  0
   34.0630   25.4180   44.4340 H   0  0  0  0  0  0  0  0  0  0  0  0
   32.1410   25.1660   44.1170 O   0  0  0  0  0  0  0  0  0  0  0  0
  1  8  1  0  0  0  0
  1  2  2  0  0  0  0
  2  6  1  0  0  0  0
  3  7  1  0  0  0  0
  3  2  1  0  0  0  0
  4  3  2  0  0  0  0
  5  4  1  0  0  0  0
  5  1  1  0  0  0  0
  8  9  2  0  0  0  0
 10 11  1  0  0  0  0
 10  8  1  0  0  0  0
 11 16  1  0  0  0  0
 12 17  1  0  0  0  0
 12 11  2  0  0  0  0
 13 12  1  0  0  0  0
 14 13  2  0  0  0  0
 14 15  1  0  0  0  0
 15 10  2  0  0  0  0
 18 14  1  0  0  0  0
 19 20  2  0  0  0  0
 19  4  1  0  0  0  0
 21 24  1  6  0  0  0
 21 22  1  0  0  0  0
 21 19  1  0  0  0  0
 22 26  1  0  0  0  0
 23 27  1  1  0  0  0
 23 21  1  0  0  0  0
 23 22  1  0  0  0  0
 25 22  1  0  0  0  0
 28 23  1  0  0  0  0
 29 28  1  0  0  0  0
 30 28  2  0  0  0  0
M  END
>  <minimizedAffinity>
-4.75077677

>  <minimizedRMSD>
0.046151977

$$$$
