
 OpenBabel03272507323D

 30 32  0  0  1  0  0  0  0  0999 V2000
   35.8500   29.1490   49.8130 C   0  0  0  0  0  0  0  0  0  0  0  0
   34.8170   29.6390   50.5710 C   0  0  0  0  0  0  0  0  0  0  0  0
   33.6290   29.0790   50.0730 C   0  0  0  0  0  0  0  0  0  0  0  0
   34.0340   28.2710   49.0270 C   0  0  0  0  0  0  0  0  0  0  0  0
   35.3380   28.3430   48.9110 O   0  0  0  0  0  0  0  0  0  0  0  0
   34.8470   30.3310   51.4090 H   0  0  0  0  0  0  0  0  0  0  0  0
   32.6200   29.2400   50.4250 H   0  0  0  0  0  0  0  0  0  0  0  0
   37.2360   29.5210   50.0540 C   0  0  0  0  0  0  0  0  0  0  0  0
   37.8770   28.9350   50.9460 O   0  0  0  0  0  0  0  0  0  0  0  0
   37.7820   30.5610   49.2270 C   0  0  0  0  0  0  0  0  0  0  0  0
   38.1190   31.7530   49.8520 C   0  0  0  0  0  0  0  0  0  0  0  0
   38.6520   32.7820   49.0750 C   0  0  0  0  0  0  0  0  0  0  0  0
   38.8160   32.5590   47.7250 N   0  0  0  0  0  0  0  0  0  0  0  0
   38.4800   31.4000   47.1600 C   0  0  0  0  0  0  0  0  0  0  0  0
   37.9640   30.3970   47.8990 N   0  0  0  0  0  0  0  0  0  0  0  0
   37.9880   31.9190   50.9120 H   0  0  0  0  0  0  0  0  0  0  0  0
   38.9250   33.7230   49.5350 H   0  0  0  0  0  0  0  0  0  0  0  0
   38.6130   31.2340   46.0940 H   0  0  0  0  0  0  0  0  0  0  0  0
   33.1430   27.4660   48.1910 C   0  0  0  0  0  0  0  0  0  0  0  0
   31.9100   27.3920   48.5030 O   0  0  0  0  0  0  0  0  0  0  0  0
   33.6840   26.7400   46.9930 C   0  0  1  0  0  0  0  0  0  0  0  0
   33.8150   25.2010   47.3140 C   0  0  0  0  0  0  0  0  0  0  0  0
   32.8820   25.7400   46.2910 C   0  0  2  0  0  0  0  0  0  0  0  0
   34.7080   27.0880   46.6860 H   0  0  0  0  0  0  0  0  0  0  0  0
   34.7060   24.6880   46.9560 H   0  0  0  0  0  0  0  0  0  0  0  0
   33.3090   24.8440   48.2300 H   0  0  0  0  0  0  0  0  0  0  0  0
   31.7760   25.8100   46.4750 H   0  0  0  0  0  0  0  0  0  0  0  0
   33.2020   25.4170   44.8730 C   0  0  0  0  0  0  0  0  0  0  0  0
   32.5250   24.8850   44.1830 H   0  0  0  0  0  0  0  0  0  0  0  0
   34.2850   25.7380   44.3610 O   0  0  0  0  0  0  0  0  0  0  0  0
  1  8  1  0  0  0  0
  1  2  2  0  0  0  0
  2  6  1  0  0  0  0
  3  7  1  0  0  0  0
  3  2  1  0  0  0  0
  4  3  2  0  0  0  0
  5  4  1  0  0  0  0
  5  1  1  0  0  0  0
  8  9  2  0  0  0  0
 10 11  1  0  0  0  0
 10  8  1  0  0  0  0
 11 16  1  0  0  0  0
 12 17  1  0  0  0  0
 12 11  2  0  0  0  0
 13 12  1  0  0  0  0
 14 13  2  0  0  0  0
 14 15  1  0  0  0  0
 15 10  2  0  0  0  0
 18 14  1  0  0  0  0
 19 20  2  0  0  0  0
 19  4  1  0  0  0  0
 21 24  1  6  0  0  0
 21 22  1  0  0  0  0
 21 19  1  0  0  0  0
 22 26  1  0  0  0  0
 23 27  1  1  0  0  0
 23 21  1  0  0  0  0
 23 22  1  0  0  0  0
 25 22  1  0  0  0  0
 28 23  1  0  0  0  0
 29 28  1  0  0  0  0
 30 28  2  0  0  0  0
M  END
>  <minimizedAffinity>
-4.78159094

>  <minimizedRMSD>
0.105252996

$$$$
