
 OpenBabel03272507323D

 30 32  0  0  1  0  0  0  0  0999 V2000
   35.8210   29.1400   49.8080 C   0  0  0  0  0  0  0  0  0  0  0  0
   34.8070   29.6500   50.5780 C   0  0  0  0  0  0  0  0  0  0  0  0
   33.6020   29.1130   50.0950 C   0  0  0  0  0  0  0  0  0  0  0  0
   33.9790   28.2960   49.0450 C   0  0  0  0  0  0  0  0  0  0  0  0
   35.2830   28.3440   48.9140 O   0  0  0  0  0  0  0  0  0  0  0  0
   34.8600   30.3420   51.4150 H   0  0  0  0  0  0  0  0  0  0  0  0
   32.6010   29.2930   50.4600 H   0  0  0  0  0  0  0  0  0  0  0  0
   37.2170   29.4860   50.0320 C   0  0  0  0  0  0  0  0  0  0  0  0
   37.8630   28.8740   50.9020 O   0  0  0  0  0  0  0  0  0  0  0  0
   37.7650   30.5330   49.2150 C   0  0  0  0  0  0  0  0  0  0  0  0
   38.1080   31.7170   49.8520 C   0  0  0  0  0  0  0  0  0  0  0  0
   38.6430   32.7530   49.0840 C   0  0  0  0  0  0  0  0  0  0  0  0
   38.8030   32.5430   47.7320 N   0  0  0  0  0  0  0  0  0  0  0  0
   38.4610   31.3910   47.1550 C   0  0  0  0  0  0  0  0  0  0  0  0
   37.9430   30.3830   47.8840 N   0  0  0  0  0  0  0  0  0  0  0  0
   37.9810   31.8720   50.9140 H   0  0  0  0  0  0  0  0  0  0  0  0
   38.9210   33.6870   49.5540 H   0  0  0  0  0  0  0  0  0  0  0  0
   38.5900   31.2370   46.0880 H   0  0  0  0  0  0  0  0  0  0  0  0
   33.0640   27.5080   48.2210 C   0  0  0  0  0  0  0  0  0  0  0  0
   31.8410   27.4240   48.5710 O   0  0  0  0  0  0  0  0  0  0  0  0
   33.5670   26.8080   46.9920 C   0  0  1  0  0  0  0  0  0  0  0  0
   33.8110   25.2820   47.3070 C   0  0  0  0  0  0  0  0  0  0  0  0
   32.7820   25.7570   46.3470 C   0  0  2  0  0  0  0  0  0  0  0  0
   34.5460   27.2150   46.6170 H   0  0  0  0  0  0  0  0  0  0  0  0
   34.7060   24.8210   46.8910 H   0  0  0  0  0  0  0  0  0  0  0  0
   33.3890   24.9000   48.2550 H   0  0  0  0  0  0  0  0  0  0  0  0
   31.6880   25.7620   46.6030 H   0  0  0  0  0  0  0  0  0  0  0  0
   33.0260   25.4460   44.9110 C   0  0  0  0  0  0  0  0  0  0  0  0
   33.6170   24.5860   44.5470 H   0  0  0  0  0  0  0  0  0  0  0  0
   32.5690   26.1560   44.0040 O   0  0  0  0  0  0  0  0  0  0  0  0
  1  8  1  0  0  0  0
  1  2  2  0  0  0  0
  2  6  1  0  0  0  0
  3  7  1  0  0  0  0
  3  2  1  0  0  0  0
  4  3  2  0  0  0  0
  5  4  1  0  0  0  0
  5  1  1  0  0  0  0
  8  9  2  0  0  0  0
 10 11  1  0  0  0  0
 10  8  1  0  0  0  0
 11 16  1  0  0  0  0
 12 17  1  0  0  0  0
 12 11  2  0  0  0  0
 13 12  1  0  0  0  0
 14 13  2  0  0  0  0
 14 15  1  0  0  0  0
 15 10  2  0  0  0  0
 18 14  1  0  0  0  0
 19 20  2  0  0  0  0
 19  4  1  0  0  0  0
 21 24  1  6  0  0  0
 21 22  1  0  0  0  0
 21 19  1  0  0  0  0
 22 26  1  0  0  0  0
 23 27  1  1  0  0  0
 23 21  1  0  0  0  0
 23 22  1  0  0  0  0
 25 22  1  0  0  0  0
 28 23  1  0  0  0  0
 29 28  1  0  0  0  0
 30 28  2  0  0  0  0
M  END
>  <minimizedAffinity>
-4.74716616

>  <minimizedRMSD>
0.0114200916

$$$$
