
 OpenBabel03272507323D

 30 32  0  0  1  0  0  0  0  0999 V2000
   35.8920   29.1830   49.8230 C   0  0  0  0  0  0  0  0  0  0  0  0
   34.9100   29.6440   50.6620 C   0  0  0  0  0  0  0  0  0  0  0  0
   33.6870   29.1300   50.1990 C   0  0  0  0  0  0  0  0  0  0  0  0
   34.0210   28.3770   49.0890 C   0  0  0  0  0  0  0  0  0  0  0  0
   35.3190   28.4370   48.9070 O   0  0  0  0  0  0  0  0  0  0  0  0
   34.9970   30.2870   51.5340 H   0  0  0  0  0  0  0  0  0  0  0  0
   32.7020   29.2860   50.6140 H   0  0  0  0  0  0  0  0  0  0  0  0
   37.2950   29.5210   50.0080 C   0  0  0  0  0  0  0  0  0  0  0  0
   37.9640   28.8970   50.8530 O   0  0  0  0  0  0  0  0  0  0  0  0
   37.8240   30.5730   49.1860 C   0  0  0  0  0  0  0  0  0  0  0  0
   38.1600   31.7610   49.8190 C   0  0  0  0  0  0  0  0  0  0  0  0
   38.6760   32.8020   49.0470 C   0  0  0  0  0  0  0  0  0  0  0  0
   38.8250   32.5940   47.6920 N   0  0  0  0  0  0  0  0  0  0  0  0
   38.4910   31.4390   47.1200 C   0  0  0  0  0  0  0  0  0  0  0  0
   37.9910   30.4240   47.8540 N   0  0  0  0  0  0  0  0  0  0  0  0
   38.0400   31.9160   50.8830 H   0  0  0  0  0  0  0  0  0  0  0  0
   38.9480   33.7410   49.5130 H   0  0  0  0  0  0  0  0  0  0  0  0
   38.6120   31.2850   46.0510 H   0  0  0  0  0  0  0  0  0  0  0  0
   33.0740   27.6330   48.2590 C   0  0  0  0  0  0  0  0  0  0  0  0
   31.8490   27.5970   48.6090 O   0  0  0  0  0  0  0  0  0  0  0  0
   33.5470   26.9250   47.0240 C   0  0  1  0  0  0  0  0  0  0  0  0
   33.7740   25.3960   47.3370 C   0  0  0  0  0  0  0  0  0  0  0  0
   32.7370   25.8840   46.3930 C   0  0  2  0  0  0  0  0  0  0  0  0
   34.5260   27.3170   46.6320 H   0  0  0  0  0  0  0  0  0  0  0  0
   34.6560   24.9210   46.9080 H   0  0  0  0  0  0  0  0  0  0  0  0
   33.3630   25.0220   48.2930 H   0  0  0  0  0  0  0  0  0  0  0  0
   31.6480   25.9050   46.6670 H   0  0  0  0  0  0  0  0  0  0  0  0
   32.9540   25.5670   44.9540 C   0  0  0  0  0  0  0  0  0  0  0  0
   32.1450   25.3800   44.2240 H   0  0  0  0  0  0  0  0  0  0  0  0
   34.0910   25.4900   44.4680 O   0  0  0  0  0  0  0  0  0  0  0  0
  1  8  1  0  0  0  0
  1  2  2  0  0  0  0
  2  6  1  0  0  0  0
  3  7  1  0  0  0  0
  3  2  1  0  0  0  0
  4  3  2  0  0  0  0
  5  4  1  0  0  0  0
  5  1  1  0  0  0  0
  8  9  2  0  0  0  0
 10 11  1  0  0  0  0
 10  8  1  0  0  0  0
 11 16  1  0  0  0  0
 12 17  1  0  0  0  0
 12 11  2  0  0  0  0
 13 12  1  0  0  0  0
 14 13  2  0  0  0  0
 14 15  1  0  0  0  0
 15 10  2  0  0  0  0
 18 14  1  0  0  0  0
 19 20  2  0  0  0  0
 19  4  1  0  0  0  0
 21 24  1  6  0  0  0
 21 22  1  0  0  0  0
 21 19  1  0  0  0  0
 22 26  1  0  0  0  0
 23 27  1  1  0  0  0
 23 21  1  0  0  0  0
 23 22  1  0  0  0  0
 25 22  1  0  0  0  0
 28 23  1  0  0  0  0
 29 28  1  0  0  0  0
 30 28  2  0  0  0  0
M  END
>  <minimizedAffinity>
-4.75958204

>  <minimizedRMSD>
0.270494312

$$$$
