
 OpenBabel03272507323D

 30 32  0  0  1  0  0  0  0  0999 V2000
   35.8260   29.1370   49.8050 C   0  0  0  0  0  0  0  0  0  0  0  0
   34.8060   29.6420   50.5720 C   0  0  0  0  0  0  0  0  0  0  0  0
   33.6060   29.0990   50.0840 C   0  0  0  0  0  0  0  0  0  0  0  0
   33.9900   28.2850   49.0350 C   0  0  0  0  0  0  0  0  0  0  0  0
   35.2940   28.3390   48.9080 O   0  0  0  0  0  0  0  0  0  0  0  0
   34.8530   30.3340   51.4090 H   0  0  0  0  0  0  0  0  0  0  0  0
   32.6030   29.2750   50.4450 H   0  0  0  0  0  0  0  0  0  0  0  0
   37.2190   29.4900   50.0340 C   0  0  0  0  0  0  0  0  0  0  0  0
   37.8640   28.8830   50.9090 O   0  0  0  0  0  0  0  0  0  0  0  0
   37.7660   30.5370   49.2170 C   0  0  0  0  0  0  0  0  0  0  0  0
   38.1070   31.7210   49.8530 C   0  0  0  0  0  0  0  0  0  0  0  0
   38.6410   32.7570   49.0850 C   0  0  0  0  0  0  0  0  0  0  0  0
   38.8030   32.5460   47.7330 N   0  0  0  0  0  0  0  0  0  0  0  0
   38.4640   31.3940   47.1570 C   0  0  0  0  0  0  0  0  0  0  0  0
   37.9460   30.3850   47.8870 N   0  0  0  0  0  0  0  0  0  0  0  0
   37.9770   31.8780   50.9150 H   0  0  0  0  0  0  0  0  0  0  0  0
   38.9170   33.6930   49.5540 H   0  0  0  0  0  0  0  0  0  0  0  0
   38.5950   31.2380   46.0900 H   0  0  0  0  0  0  0  0  0  0  0  0
   33.0810   27.4930   48.2070 C   0  0  0  0  0  0  0  0  0  0  0  0
   31.8550   27.4140   48.5450 O   0  0  0  0  0  0  0  0  0  0  0  0
   33.5950   26.7860   46.9870 C   0  0  1  0  0  0  0  0  0  0  0  0
   33.8160   25.2570   47.3080 C   0  0  0  0  0  0  0  0  0  0  0  0
   32.8080   25.7430   46.3320 C   0  0  2  0  0  0  0  0  0  0  0  0
   34.5840   27.1800   46.6260 H   0  0  0  0  0  0  0  0  0  0  0  0
   34.7120   24.7850   46.9070 H   0  0  0  0  0  0  0  0  0  0  0  0
   33.3750   24.8820   48.2500 H   0  0  0  0  0  0  0  0  0  0  0  0
   31.7110   25.7610   46.5710 H   0  0  0  0  0  0  0  0  0  0  0  0
   33.0710   25.4260   44.9000 C   0  0  0  0  0  0  0  0  0  0  0  0
   33.3330   26.1740   44.1310 H   0  0  0  0  0  0  0  0  0  0  0  0
   33.0100   24.2660   44.4680 O   0  0  0  0  0  0  0  0  0  0  0  0
  1  8  1  0  0  0  0
  1  2  2  0  0  0  0
  2  6  1  0  0  0  0
  3  7  1  0  0  0  0
  3  2  1  0  0  0  0
  4  3  2  0  0  0  0
  5  4  1  0  0  0  0
  5  1  1  0  0  0  0
  8  9  2  0  0  0  0
 10 11  1  0  0  0  0
 10  8  1  0  0  0  0
 11 16  1  0  0  0  0
 12 17  1  0  0  0  0
 12 11  2  0  0  0  0
 13 12  1  0  0  0  0
 14 13  2  0  0  0  0
 14 15  1  0  0  0  0
 15 10  2  0  0  0  0
 18 14  1  0  0  0  0
 19 20  2  0  0  0  0
 19  4  1  0  0  0  0
 21 24  1  6  0  0  0
 21 22  1  0  0  0  0
 21 19  1  0  0  0  0
 22 26  1  0  0  0  0
 23 27  1  1  0  0  0
 23 21  1  0  0  0  0
 23 22  1  0  0  0  0
 25 22  1  0  0  0  0
 28 23  1  0  0  0  0
 29 28  1  0  0  0  0
 30 28  2  0  0  0  0
M  END
>  <minimizedAffinity>
-4.74854183

>  <minimizedRMSD>
0.0372346193

$$$$
