
 OpenBabel03272507323D

 30 32  0  0  1  0  0  0  0  0999 V2000
   35.8100   29.1440   49.8080 C   0  0  0  0  0  0  0  0  0  0  0  0
   34.8070   29.6650   50.5860 C   0  0  0  0  0  0  0  0  0  0  0  0
   33.5940   29.1380   50.1150 C   0  0  0  0  0  0  0  0  0  0  0  0
   33.9530   28.3170   49.0620 C   0  0  0  0  0  0  0  0  0  0  0  0
   35.2560   28.3520   48.9190 O   0  0  0  0  0  0  0  0  0  0  0  0
   34.8750   30.3570   51.4220 H   0  0  0  0  0  0  0  0  0  0  0  0
   32.5980   29.3290   50.4870 H   0  0  0  0  0  0  0  0  0  0  0  0
   37.2110   29.4770   50.0190 C   0  0  0  0  0  0  0  0  0  0  0  0
   37.8610   28.8530   50.8780 O   0  0  0  0  0  0  0  0  0  0  0  0
   37.7590   30.5260   49.2050 C   0  0  0  0  0  0  0  0  0  0  0  0
   38.1040   31.7070   49.8440 C   0  0  0  0  0  0  0  0  0  0  0  0
   38.6390   32.7450   49.0790 C   0  0  0  0  0  0  0  0  0  0  0  0
   38.7960   32.5380   47.7250 N   0  0  0  0  0  0  0  0  0  0  0  0
   38.4530   31.3890   47.1460 C   0  0  0  0  0  0  0  0  0  0  0  0
   37.9340   30.3780   47.8730 N   0  0  0  0  0  0  0  0  0  0  0  0
   37.9780   31.8600   50.9070 H   0  0  0  0  0  0  0  0  0  0  0  0
   38.9180   33.6780   49.5500 H   0  0  0  0  0  0  0  0  0  0  0  0
   38.5810   31.2360   46.0780 H   0  0  0  0  0  0  0  0  0  0  0  0
   33.0240   27.5360   48.2470 C   0  0  0  0  0  0  0  0  0  0  0  0
   31.8080   27.4470   48.6190 O   0  0  0  0  0  0  0  0  0  0  0  0
   33.5040   26.8510   47.0010 C   0  0  1  0  0  0  0  0  0  0  0  0
   33.8010   25.3320   47.3050 C   0  0  0  0  0  0  0  0  0  0  0  0
   32.7270   25.7790   46.3810 C   0  0  2  0  0  0  0  0  0  0  0  0
   34.4580   27.2850   46.5930 H   0  0  0  0  0  0  0  0  0  0  0  0
   34.6940   24.8970   46.8590 H   0  0  0  0  0  0  0  0  0  0  0  0
   33.4230   24.9390   48.2670 H   0  0  0  0  0  0  0  0  0  0  0  0
   31.6440   25.7530   46.6750 H   0  0  0  0  0  0  0  0  0  0  0  0
   32.9320   25.4750   44.9380 C   0  0  0  0  0  0  0  0  0  0  0  0
   33.7110   24.7980   44.5440 H   0  0  0  0  0  0  0  0  0  0  0  0
   32.2180   25.9790   44.0590 O   0  0  0  0  0  0  0  0  0  0  0  0
  1  8  1  0  0  0  0
  1  2  2  0  0  0  0
  2  6  1  0  0  0  0
  3  7  1  0  0  0  0
  3  2  1  0  0  0  0
  4  3  2  0  0  0  0
  5  4  1  0  0  0  0
  5  1  1  0  0  0  0
  8  9  2  0  0  0  0
 10 11  1  0  0  0  0
 10  8  1  0  0  0  0
 11 16  1  0  0  0  0
 12 17  1  0  0  0  0
 12 11  2  0  0  0  0
 13 12  1  0  0  0  0
 14 13  2  0  0  0  0
 14 15  1  0  0  0  0
 15 10  2  0  0  0  0
 18 14  1  0  0  0  0
 19 20  2  0  0  0  0
 19  4  1  0  0  0  0
 21 24  1  6  0  0  0
 21 22  1  0  0  0  0
 21 19  1  0  0  0  0
 22 26  1  0  0  0  0
 23 27  1  1  0  0  0
 23 21  1  0  0  0  0
 23 22  1  0  0  0  0
 25 22  1  0  0  0  0
 28 23  1  0  0  0  0
 29 28  1  0  0  0  0
 30 28  2  0  0  0  0
M  END
>  <minimizedAffinity>
-4.74291801

>  <minimizedRMSD>
0.056475196

$$$$
