
 OpenBabel03272509003D

 22 23  0  0  0  0  0  0  0  0999 V2000
   38.1230   30.0850   49.7300 Cl  0  0  0  0  0  0  0  0  0  0  0  0
   36.7710   29.8950   48.6700 C   0  0  0  0  0  0  0  0  0  0  0  0
   36.8260   30.4170   47.3920 C   0  0  0  0  0  0  0  0  0  0  0  0
   35.7780   30.2910   46.5190 C   0  0  0  0  0  0  0  0  0  0  0  0
   34.6180   29.6290   46.8890 C   0  0  0  0  0  0  0  0  0  0  0  0
   34.5290   29.0920   48.1690 C   0  0  0  0  0  0  0  0  0  0  0  0
   33.1310   28.2310   48.7800 Cl  0  0  0  0  0  0  0  0  0  0  0  0
   35.6200   29.2450   49.0220 C   0  0  0  0  0  0  0  0  0  0  0  0
   35.8590   30.7090   45.5370 H   0  0  0  0  0  0  0  0  0  0  0  0
   33.7620   29.5030   46.2370 H   0  0  0  0  0  0  0  0  0  0  0  0
   39.3890   33.0090   46.9880 C   0  0  0  0  0  0  0  0  0  0  0  0
   40.3130   32.4120   46.1050 C   0  0  0  0  0  0  0  0  0  0  0  0
   40.0170   31.1110   45.6690 C   0  0  0  0  0  0  0  0  0  0  0  0
   38.8840   30.5160   46.1120 N   0  0  0  0  0  0  0  0  0  0  0  0
   38.0240   31.1210   46.9580 C   0  0  0  0  0  0  0  0  0  0  0  0
   38.2890   32.3660   47.3880 N   0  0  0  0  0  0  0  0  0  0  0  0
   39.5560   34.0120   47.3630 H   0  0  0  0  0  0  0  0  0  0  0  0
   41.1950   32.9330   45.7870 H   0  0  0  0  0  0  0  0  0  0  0  0
   40.6890   30.6030   44.9910 H   0  0  0  0  0  0  0  0  0  0  0  0
   35.6040   28.7050   50.3910 C   0  0  0  0  0  0  0  0  0  0  0  0
   35.9600   27.7610   50.7790 H   0  0  0  0  0  0  0  0  0  0  0  0
   35.0450   29.6710   51.0140 O   0  0  0  0  0  0  0  0  0  0  0  0
  2  8  1  0  0  0  0
  2  1  1  0  0  0  0
  3  2  2  0  0  0  0
  4  5  2  0  0  0  0
  4  3  1  0  0  0  0
  5  6  1  0  0  0  0
  6  7  1  0  0  0  0
  6  8  2  0  0  0  0
  8 20  1  0  0  0  0
  9  4  1  0  0  0  0
 10  5  1  0  0  0  0
 11 17  1  0  0  0  0
 11 16  1  0  0  0  0
 12 11  2  0  0  0  0
 13 12  1  0  0  0  0
 13 14  2  0  0  0  0
 14 15  1  0  0  0  0
 15 16  2  0  0  0  0
 15  3  1  0  0  0  0
 18 12  1  0  0  0  0
 19 13  1  0  0  0  0
 20 21  1  0  0  0  0
 20 22  2  0  0  0  0
M  END
>  <minimizedAffinity>
-4.77043676

>  <minimizedRMSD>
1.85020053

$$$$
