
 OpenBabel03272504553D

 21 22  0  0  1  0  0  0  0  0999 V2000
   38.3550   24.6870   35.5230 C   0  0  0  0  0  0  0  0  0  0  0  0
   38.2660   23.8230   34.4240 C   0  0  0  0  0  0  0  0  0  0  0  0
   38.6260   22.5010   34.6760 C   0  0  0  0  0  0  0  0  0  0  0  0
   39.0240   22.1400   35.9200 N   0  0  0  0  0  0  0  0  0  0  0  0
   39.0940   23.0000   36.9470 C   0  0  0  0  0  0  0  0  0  0  0  0
   38.7510   24.3110   36.7470 N   0  0  0  0  0  0  0  0  0  0  0  0
   39.4910   22.6240   38.2470 N   0  0  0  0  0  0  0  0  0  0  0  0
   37.9410   24.2050   33.4860 H   0  0  0  0  0  0  0  0  0  0  0  0
   38.5720   21.8000   33.8550 H   0  0  0  0  0  0  0  0  0  0  0  0
   38.8510   21.8320   38.5510 H   0  0  0  0  0  0  0  0  0  0  0  0
   40.2420   22.9740   38.8880 H   0  0  0  0  0  0  0  0  0  0  0  0
   37.9410   26.1170   35.2890 C   0  0  1  0  0  0  0  0  0  0  0  0
   38.3670   27.1800   36.1650 C   0  0  0  0  0  0  0  0  0  0  0  0
   39.1050   27.0100   34.8560 C   0  0  1  0  0  0  0  0  0  0  0  0
   37.0300   26.1680   34.6610 H   0  0  0  0  0  0  0  0  0  0  0  0
   38.9360   26.8900   37.0930 H   0  0  0  0  0  0  0  0  0  0  0  0
   37.7470   28.0810   36.2920 H   0  0  0  0  0  0  0  0  0  0  0  0
   38.8690   27.7170   34.0370 H   0  0  0  0  0  0  0  0  0  0  0  0
   40.4740   26.4330   34.8540 C   0  0  0  0  0  0  0  0  0  0  0  0
   40.7150   25.5400   35.3830 H   0  0  0  0  0  0  0  0  0  0  0  0
   41.2590   27.1140   34.1770 O   0  0  0  0  0  0  0  0  0  0  0  0
  1  6  1  0  0  0  0
  2  3  1  0  0  0  0
  2  1  2  0  0  0  0
  3  4  2  0  0  0  0
  4  5  1  0  0  0  0
  5  7  1  0  0  0  0
  6  5  2  0  0  0  0
  7 10  1  0  0  0  0
  7 11  1  0  0  0  0
  8  2  1  0  0  0  0
  9  3  1  0  0  0  0
 12 15  1  6  0  0  0
 12  1  1  0  0  0  0
 12 13  1  0  0  0  0
 13 17  1  0  0  0  0
 13 16  1  0  0  0  0
 14 18  1  6  0  0  0
 14 12  1  0  0  0  0
 14 13  1  0  0  0  0
 19 14  1  0  0  0  0
 19 20  1  0  0  0  0
 21 19  2  0  0  0  0
M  END
>  <minimizedAffinity>
-4.13351011

$$$$

 OpenBabel03272504553D

 21 22  0  0  1  0  0  0  0  0999 V2000
   36.3920   20.8540   33.7830 C   0  0  0  0  0  0  0  0  0  0  0  0
   37.5660   21.6040   33.9220 C   0  0  0  0  0  0  0  0  0  0  0  0
   37.8010   22.1100   35.1980 C   0  0  0  0  0  0  0  0  0  0  0  0
   36.9170   21.8560   36.1930 N   0  0  0  0  0  0  0  0  0  0  0  0
   35.8030   21.1300   36.0180 C   0  0  0  0  0  0  0  0  0  0  0  0
   35.5280   20.6130   34.7800 N   0  0  0  0  0  0  0  0  0  0  0  0
   34.8890   20.8490   37.0560 N   0  0  0  0  0  0  0  0  0  0  0  0
   38.1960   21.7460   33.0770 H   0  0  0  0  0  0  0  0  0  0  0  0
   38.6970   22.6960   35.3490 H   0  0  0  0  0  0  0  0  0  0  0  0
   35.4400   20.3860   37.8380 H   0  0  0  0  0  0  0  0  0  0  0  0
   33.8600   21.0120   37.1560 H   0  0  0  0  0  0  0  0  0  0  0  0
   36.1260   20.2660   32.4210 C   0  0  1  0  0  0  0  0  0  0  0  0
   34.7890   20.1480   31.8960 C   0  0  0  0  0  0  0  0  0  0  0  0
   35.6350   21.3030   31.4100 C   0  0  1  0  0  0  0  0  0  0  0  0
   36.9720   19.6300   32.0920 H   0  0  0  0  0  0  0  0  0  0  0  0
   33.9370   20.4150   32.5830 H   0  0  0  0  0  0  0  0  0  0  0  0
   34.5400   19.3540   31.1740 H   0  0  0  0  0  0  0  0  0  0  0  0
   36.0870   21.2220   30.4020 H   0  0  0  0  0  0  0  0  0  0  0  0
   35.3480   22.6790   31.8940 C   0  0  0  0  0  0  0  0  0  0  0  0
   34.8260   22.8630   32.8050 H   0  0  0  0  0  0  0  0  0  0  0  0
   35.7840   23.5400   31.1150 O   0  0  0  0  0  0  0  0  0  0  0  0
  1  2  2  0  0  0  0
  1  6  1  0  0  0  0
  2  3  1  0  0  0  0
  3  9  1  0  0  0  0
  3  4  2  0  0  0  0
  5  4  1  0  0  0  0
  5  7  1  0  0  0  0
  6  5  2  0  0  0  0
  7 11  1  0  0  0  0
  7 10  1  0  0  0  0
  8  2  1  0  0  0  0
 12 15  1  6  0  0  0
 12  1  1  0  0  0  0
 13 12  1  0  0  0  0
 13 16  1  0  0  0  0
 14 18  1  6  0  0  0
 14 19  1  0  0  0  0
 14 13  1  0  0  0  0
 14 12  1  0  0  0  0
 17 13  1  0  0  0  0
 19 20  1  0  0  0  0
 21 19  2  0  0  0  0
M  END
>  <minimizedAffinity>
-3.98195696

$$$$

 OpenBabel03272504553D

 21 22  0  0  1  0  0  0  0  0999 V2000
   38.5530   23.8090   35.8800 C   0  0  0  0  0  0  0  0  0  0  0  0
   37.7650   24.4990   36.8090 C   0  0  0  0  0  0  0  0  0  0  0  0
   38.0140   24.1930   38.1450 C   0  0  0  0  0  0  0  0  0  0  0  0
   38.9670   23.2810   38.4570 N   0  0  0  0  0  0  0  0  0  0  0  0
   39.7010   22.6420   37.5350 C   0  0  0  0  0  0  0  0  0  0  0  0
   39.4910   22.9090   36.2080 N   0  0  0  0  0  0  0  0  0  0  0  0
   40.7060   21.7050   37.8570 N   0  0  0  0  0  0  0  0  0  0  0  0
   37.0420   25.1980   36.4620 H   0  0  0  0  0  0  0  0  0  0  0  0
   37.4280   24.7040   38.8960 H   0  0  0  0  0  0  0  0  0  0  0  0
   41.3870   22.1930   38.5100 H   0  0  0  0  0  0  0  0  0  0  0  0
   40.8620   20.7080   37.5750 H   0  0  0  0  0  0  0  0  0  0  0  0
   38.3280   24.1430   34.4270 C   0  0  1  0  0  0  0  0  0  0  0  0
   37.8280   25.4300   34.0160 C   0  0  0  0  0  0  0  0  0  0  0  0
   39.3150   25.1840   33.8970 C   0  0  1  0  0  0  0  0  0  0  0  0
   38.2220   23.2210   33.8210 H   0  0  0  0  0  0  0  0  0  0  0  0
   37.5090   26.1460   34.8270 H   0  0  0  0  0  0  0  0  0  0  0  0
   37.2470   25.5330   33.0860 H   0  0  0  0  0  0  0  0  0  0  0  0
   39.7220   24.9690   32.8900 H   0  0  0  0  0  0  0  0  0  0  0  0
   40.2460   25.8290   34.8600 C   0  0  0  0  0  0  0  0  0  0  0  0
   40.9910   25.2770   35.3840 H   0  0  0  0  0  0  0  0  0  0  0  0
   40.0360   27.0470   34.9570 O   0  0  0  0  0  0  0  0  0  0  0  0
  1  6  2  0  0  0  0
  1  2  1  0  0  0  0
  2  3  2  0  0  0  0
  3  4  1  0  0  0  0
  3  9  1  0  0  0  0
  5  7  1  0  0  0  0
  5  4  2  0  0  0  0
  6  5  1  0  0  0  0
  7 10  1  0  0  0  0
  8  2  1  0  0  0  0
 11  7  1  0  0  0  0
 12 15  1  6  0  0  0
 12  1  1  0  0  0  0
 13 12  1  0  0  0  0
 13 16  1  0  0  0  0
 14 18  1  6  0  0  0
 14 13  1  0  0  0  0
 14 12  1  0  0  0  0
 14 19  1  0  0  0  0
 17 13  1  0  0  0  0
 19 21  2  0  0  0  0
 19 20  1  0  0  0  0
M  END
>  <minimizedAffinity>
-3.95761824

$$$$

 OpenBabel03272504553D

 21 22  0  0  1  0  0  0  0  0999 V2000
   38.9230   24.0890   35.8830 C   0  0  0  0  0  0  0  0  0  0  0  0
   37.9940   24.6740   36.7510 C   0  0  0  0  0  0  0  0  0  0  0  0
   38.0210   24.1990   38.0600 C   0  0  0  0  0  0  0  0  0  0  0  0
   38.9120   23.2370   38.4060 N   0  0  0  0  0  0  0  0  0  0  0  0
   39.7870   22.7030   37.5420 C   0  0  0  0  0  0  0  0  0  0  0  0
   39.7970   23.1370   36.2430 N   0  0  0  0  0  0  0  0  0  0  0  0
   40.7270   21.7150   37.9030 N   0  0  0  0  0  0  0  0  0  0  0  0
   37.3360   25.4240   36.3810 H   0  0  0  0  0  0  0  0  0  0  0  0
   37.3190   24.6240   38.7640 H   0  0  0  0  0  0  0  0  0  0  0  0
   41.2920   22.1040   38.7150 H   0  0  0  0  0  0  0  0  0  0  0  0
   40.9280   20.7580   37.5270 H   0  0  0  0  0  0  0  0  0  0  0  0
   38.9390   24.6050   34.4670 C   0  0  1  0  0  0  0  0  0  0  0  0
   39.6870   23.9410   33.4290 C   0  0  0  0  0  0  0  0  0  0  0  0
   38.1980   23.6900   33.4920 C   0  0  1  0  0  0  0  0  0  0  0  0
   38.6630   25.6770   34.4340 H   0  0  0  0  0  0  0  0  0  0  0  0
   40.3460   23.0800   33.7350 H   0  0  0  0  0  0  0  0  0  0  0  0
   40.0770   24.5110   32.5710 H   0  0  0  0  0  0  0  0  0  0  0  0
   37.5560   24.2150   32.7570 H   0  0  0  0  0  0  0  0  0  0  0  0
   37.6920   22.3850   33.9930 C   0  0  0  0  0  0  0  0  0  0  0  0
   37.0170   22.3160   34.8140 H   0  0  0  0  0  0  0  0  0  0  0  0
   38.1540   21.4340   33.3450 O   0  0  0  0  0  0  0  0  0  0  0  0
  1  6  2  0  0  0  0
  1  2  1  0  0  0  0
  2  3  2  0  0  0  0
  3  4  1  0  0  0  0
  3  9  1  0  0  0  0
  5  7  1  0  0  0  0
  5  4  2  0  0  0  0
  6  5  1  0  0  0  0
  7 10  1  0  0  0  0
  8  2  1  0  0  0  0
 11  7  1  0  0  0  0
 12 15  1  6  0  0  0
 12  1  1  0  0  0  0
 13 14  1  0  0  0  0
 13 16  1  0  0  0  0
 13 12  1  0  0  0  0
 14 18  1  6  0  0  0
 14 19  1  0  0  0  0
 14 12  1  0  0  0  0
 17 13  1  0  0  0  0
 19 20  1  0  0  0  0
 21 19  2  0  0  0  0
M  END
>  <minimizedAffinity>
-3.75766492

$$$$

 OpenBabel03272504553D

 21 22  0  0  1  0  0  0  0  0999 V2000
   38.9800   24.8470   35.4440 C   0  0  0  0  0  0  0  0  0  0  0  0
   38.8240   24.1010   34.2690 C   0  0  0  0  0  0  0  0  0  0  0  0
   38.2160   22.8590   34.4290 C   0  0  0  0  0  0  0  0  0  0  0  0
   37.8230   22.4580   35.6630 N   0  0  0  0  0  0  0  0  0  0  0  0
   37.9900   23.2050   36.7640 C   0  0  0  0  0  0  0  0  0  0  0  0
   38.5850   24.4340   36.6570 N   0  0  0  0  0  0  0  0  0  0  0  0
   37.5670   22.7990   38.0480 N   0  0  0  0  0  0  0  0  0  0  0  0
   39.1660   24.5060   33.3460 H   0  0  0  0  0  0  0  0  0  0  0  0
   38.0760   22.2500   33.5470 H   0  0  0  0  0  0  0  0  0  0  0  0
   36.5300   22.5790   37.9780 H   0  0  0  0  0  0  0  0  0  0  0  0
   38.0710   22.6950   38.9600 H   0  0  0  0  0  0  0  0  0  0  0  0
   39.6060   26.2100   35.2980 C   0  0  1  0  0  0  0  0  0  0  0  0
   39.5610   26.9330   34.0520 C   0  0  0  0  0  0  0  0  0  0  0  0
   38.5730   27.3240   35.1280 C   0  0  1  0  0  0  0  0  0  0  0  0
   40.3780   26.3760   36.0760 H   0  0  0  0  0  0  0  0  0  0  0  0
   39.1300   26.3990   33.1580 H   0  0  0  0  0  0  0  0  0  0  0  0
   40.3530   27.6530   33.7960 H   0  0  0  0  0  0  0  0  0  0  0  0
   38.7820   28.2450   35.7080 H   0  0  0  0  0  0  0  0  0  0  0  0
   37.1430   26.9460   34.9870 C   0  0  0  0  0  0  0  0  0  0  0  0
   36.7930   25.9630   35.1990 H   0  0  0  0  0  0  0  0  0  0  0  0
   36.4520   27.9000   34.6000 O   0  0  0  0  0  0  0  0  0  0  0  0
  1  6  1  0  0  0  0
  2  3  1  0  0  0  0
  2  1  2  0  0  0  0
  3  4  2  0  0  0  0
  4  5  1  0  0  0  0
  5  7  1  0  0  0  0
  6  5  2  0  0  0  0
  7 11  1  0  0  0  0
  8  2  1  0  0  0  0
  9  3  1  0  0  0  0
 10  7  1  0  0  0  0
 12  1  1  0  0  0  0
 12 15  1  1  0  0  0
 13 14  1  0  0  0  0
 13 12  1  0  0  0  0
 14 12  1  0  0  0  0
 14 18  1  1  0  0  0
 16 13  1  0  0  0  0
 17 13  1  0  0  0  0
 19 14  1  0  0  0  0
 19 20  1  0  0  0  0
 21 19  2  0  0  0  0
M  END
>  <minimizedAffinity>
-3.73729086

$$$$

 OpenBabel03272504553D

 21 22  0  0  1  0  0  0  0  0999 V2000
   39.7680   24.3640   34.9900 C   0  0  0  0  0  0  0  0  0  0  0  0
   38.6720   23.8670   34.2750 C   0  0  0  0  0  0  0  0  0  0  0  0
   38.0440   22.7600   34.8420 C   0  0  0  0  0  0  0  0  0  0  0  0
   38.5100   22.2490   36.0070 N   0  0  0  0  0  0  0  0  0  0  0  0
   39.5640   22.7570   36.6620 C   0  0  0  0  0  0  0  0  0  0  0  0
   40.2150   23.8450   36.1430 N   0  0  0  0  0  0  0  0  0  0  0  0
   40.0400   22.2390   37.8850 N   0  0  0  0  0  0  0  0  0  0  0  0
   38.3840   24.3400   33.3670 H   0  0  0  0  0  0  0  0  0  0  0  0
   37.1930   22.3430   34.3210 H   0  0  0  0  0  0  0  0  0  0  0  0
   39.2230   22.2430   38.5640 H   0  0  0  0  0  0  0  0  0  0  0  0
   40.9800   21.8890   38.1880 H   0  0  0  0  0  0  0  0  0  0  0  0
   40.4480   25.5810   34.4190 C   0  0  1  0  0  0  0  0  0  0  0  0
   39.7640   26.4780   33.5210 C   0  0  0  0  0  0  0  0  0  0  0  0
   39.8860   26.8920   34.9710 C   0  0  1  0  0  0  0  0  0  0  0  0
   41.5500   25.4720   34.4540 H   0  0  0  0  0  0  0  0  0  0  0  0
   38.7330   26.1820   33.1780 H   0  0  0  0  0  0  0  0  0  0  0  0
   40.3280   27.0570   32.7730 H   0  0  0  0  0  0  0  0  0  0  0  0
   40.6480   27.6540   35.2260 H   0  0  0  0  0  0  0  0  0  0  0  0
   38.6940   26.8310   35.8550 C   0  0  0  0  0  0  0  0  0  0  0  0
   38.5620   26.0600   36.5780 H   0  0  0  0  0  0  0  0  0  0  0  0
   37.9110   27.7680   35.6360 O   0  0  0  0  0  0  0  0  0  0  0  0
  1  6  1  0  0  0  0
  2  3  1  0  0  0  0
  2  1  2  0  0  0  0
  3  4  2  0  0  0  0
  4  5  1  0  0  0  0
  5  7  1  0  0  0  0
  6  5  2  0  0  0  0
  7 11  1  0  0  0  0
  7 10  1  0  0  0  0
  8  2  1  0  0  0  0
  9  3  1  0  0  0  0
 12 15  1  6  0  0  0
 12 14  1  0  0  0  0
 12  1  1  0  0  0  0
 13 12  1  0  0  0  0
 13 14  1  0  0  0  0
 14 18  1  1  0  0  0
 14 19  1  0  0  0  0
 16 13  1  0  0  0  0
 17 13  1  0  0  0  0
 19 20  1  0  0  0  0
 21 19  2  0  0  0  0
M  END
>  <minimizedAffinity>
-3.71675968

$$$$

 OpenBabel03272504553D

 21 22  0  0  1  0  0  0  0  0999 V2000
   38.0900   24.8830   35.4460 C   0  0  0  0  0  0  0  0  0  0  0  0
   38.2290   24.5570   36.8010 C   0  0  0  0  0  0  0  0  0  0  0  0
   38.4630   23.2100   37.0680 C   0  0  0  0  0  0  0  0  0  0  0  0
   38.5420   22.3270   36.0420 N   0  0  0  0  0  0  0  0  0  0  0  0
   38.4040   22.6810   34.7570 C   0  0  0  0  0  0  0  0  0  0  0  0
   38.1710   23.9950   34.4440 N   0  0  0  0  0  0  0  0  0  0  0  0
   38.5030   21.7680   33.6860 N   0  0  0  0  0  0  0  0  0  0  0  0
   38.1510   25.3260   37.5320 H   0  0  0  0  0  0  0  0  0  0  0  0
   38.5760   22.9150   38.1020 H   0  0  0  0  0  0  0  0  0  0  0  0
   39.4460   21.2860   33.7740 H   0  0  0  0  0  0  0  0  0  0  0  0
   37.8530   21.5230   32.9020 H   0  0  0  0  0  0  0  0  0  0  0  0
   37.8680   26.3380   35.1230 C   0  0  1  0  0  0  0  0  0  0  0  0
   38.3630   27.3860   35.9790 C   0  0  0  0  0  0  0  0  0  0  0  0
   39.1550   27.0640   34.7320 C   0  0  1  0  0  0  0  0  0  0  0  0
   37.0100   26.4630   34.4330 H   0  0  0  0  0  0  0  0  0  0  0  0
   38.8340   27.0790   36.9560 H   0  0  0  0  0  0  0  0  0  0  0  0
   37.8490   28.3590   36.0250 H   0  0  0  0  0  0  0  0  0  0  0  0
   39.0580   27.7520   33.8690 H   0  0  0  0  0  0  0  0  0  0  0  0
   40.4430   26.3310   34.8480 C   0  0  0  0  0  0  0  0  0  0  0  0
   40.5160   25.3880   35.3370 H   0  0  0  0  0  0  0  0  0  0  0  0
   41.3750   26.9520   34.3160 O   0  0  0  0  0  0  0  0  0  0  0  0
  1  2  1  0  0  0  0
  2  3  2  0  0  0  0
  2  8  1  0  0  0  0
  3  9  1  0  0  0  0
  4  3  1  0  0  0  0
  5  4  2  0  0  0  0
  6  5  1  0  0  0  0
  6  1  2  0  0  0  0
  7 10  1  0  0  0  0
  7  5  1  0  0  0  0
 11  7  1  0  0  0  0
 12 15  1  6  0  0  0
 12  1  1  0  0  0  0
 12 13  1  0  0  0  0
 13 17  1  0  0  0  0
 13 16  1  0  0  0  0
 14 18  1  6  0  0  0
 14 19  1  0  0  0  0
 14 12  1  0  0  0  0
 14 13  1  0  0  0  0
 19 20  1  0  0  0  0
 21 19  2  0  0  0  0
M  END
>  <minimizedAffinity>
-3.63226175

$$$$

 OpenBabel03272504553D

 21 22  0  0  1  0  0  0  0  0999 V2000
   37.2290   26.1120   33.5220 C   0  0  0  0  0  0  0  0  0  0  0  0
   37.6450   24.7910   33.3200 C   0  0  0  0  0  0  0  0  0  0  0  0
   37.5840   24.3440   32.0020 C   0  0  0  0  0  0  0  0  0  0  0  0
   37.1450   25.1800   31.0290 N   0  0  0  0  0  0  0  0  0  0  0  0
   36.7570   26.4410   31.2660 C   0  0  0  0  0  0  0  0  0  0  0  0
   36.7970   26.9250   32.5470 N   0  0  0  0  0  0  0  0  0  0  0  0
   36.3160   27.3190   30.2540 N   0  0  0  0  0  0  0  0  0  0  0  0
   37.9730   24.2150   34.1510 H   0  0  0  0  0  0  0  0  0  0  0  0
   37.8960   23.3280   31.8010 H   0  0  0  0  0  0  0  0  0  0  0  0
   37.0880   27.3660   29.5250 H   0  0  0  0  0  0  0  0  0  0  0  0
   35.4350   27.8730   30.1310 H   0  0  0  0  0  0  0  0  0  0  0  0
   37.3130   26.6350   34.9330 C   0  0  1  0  0  0  0  0  0  0  0  0
   38.1160   25.9810   35.9350 C   0  0  0  0  0  0  0  0  0  0  0  0
   38.6870   27.2150   35.2720 C   0  0  1  0  0  0  0  0  0  0  0  0
   36.4420   27.2790   35.1690 H   0  0  0  0  0  0  0  0  0  0  0  0
   38.5990   25.0030   35.6550 H   0  0  0  0  0  0  0  0  0  0  0  0
   37.8450   26.0490   37.0000 H   0  0  0  0  0  0  0  0  0  0  0  0
   38.6640   28.1630   35.8430 H   0  0  0  0  0  0  0  0  0  0  0  0
   39.7780   27.0740   34.2730 C   0  0  0  0  0  0  0  0  0  0  0  0
   39.6290   27.2740   33.2380 H   0  0  0  0  0  0  0  0  0  0  0  0
   40.8380   26.7040   34.8000 O   0  0  0  0  0  0  0  0  0  0  0  0
  1 12  1  0  0  0  0
  2  1  1  0  0  0  0
  2  8  1  0  0  0  0
  3  2  2  0  0  0  0
  4  5  2  0  0  0  0
  4  3  1  0  0  0  0
  5  6  1  0  0  0  0
  6  1  2  0  0  0  0
  7  5  1  0  0  0  0
  9  3  1  0  0  0  0
 10  7  1  0  0  0  0
 11  7  1  0  0  0  0
 12 15  1  1  0  0  0
 12 14  1  0  0  0  0
 12 13  1  0  0  0  0
 13 17  1  0  0  0  0
 14 18  1  1  0  0  0
 14 13  1  0  0  0  0
 16 13  1  0  0  0  0
 19 21  2  0  0  0  0
 19 14  1  0  0  0  0
 20 19  1  0  0  0  0
M  END
>  <minimizedAffinity>
-3.60946083

$$$$

 OpenBabel03272504553D

 21 22  0  0  1  0  0  0  0  0999 V2000
   36.9960   26.9730   33.9080 C   0  0  0  0  0  0  0  0  0  0  0  0
   36.4810   28.2490   33.6450 C   0  0  0  0  0  0  0  0  0  0  0  0
   35.9800   28.4340   32.3590 C   0  0  0  0  0  0  0  0  0  0  0  0
   36.0160   27.4110   31.4710 N   0  0  0  0  0  0  0  0  0  0  0  0
   36.5180   26.2030   31.7640 C   0  0  0  0  0  0  0  0  0  0  0  0
   37.0240   25.9730   33.0150 N   0  0  0  0  0  0  0  0  0  0  0  0
   36.5420   25.1300   30.8470 N   0  0  0  0  0  0  0  0  0  0  0  0
   36.4980   28.9860   34.4120 H   0  0  0  0  0  0  0  0  0  0  0  0
   35.5720   29.4050   32.1130 H   0  0  0  0  0  0  0  0  0  0  0  0
   35.5420   24.9790   30.5210 H   0  0  0  0  0  0  0  0  0  0  0  0
   37.3160   24.5270   30.4830 H   0  0  0  0  0  0  0  0  0  0  0  0
   37.5170   26.7320   35.3010 C   0  0  1  0  0  0  0  0  0  0  0  0
   38.3010   25.5660   35.6240 C   0  0  0  0  0  0  0  0  0  0  0  0
   39.0370   26.8670   35.4000 C   0  0  1  0  0  0  0  0  0  0  0  0
   36.9290   27.3010   36.0480 H   0  0  0  0  0  0  0  0  0  0  0  0
   38.4230   24.7850   34.8210 H   0  0  0  0  0  0  0  0  0  0  0  0
   38.2890   25.1510   36.6440 H   0  0  0  0  0  0  0  0  0  0  0  0
   39.3990   27.4140   36.2930 H   0  0  0  0  0  0  0  0  0  0  0  0
   39.8110   27.0680   34.1470 C   0  0  0  0  0  0  0  0  0  0  0  0
   39.3370   27.2090   33.2040 H   0  0  0  0  0  0  0  0  0  0  0  0
   41.0340   27.0450   34.3540 O   0  0  0  0  0  0  0  0  0  0  0  0
  1 12  1  0  0  0  0
  2  1  1  0  0  0  0
  2  8  1  0  0  0  0
  3  2  2  0  0  0  0
  4  5  2  0  0  0  0
  4  3  1  0  0  0  0
  5  6  1  0  0  0  0
  6  1  2  0  0  0  0
  7  5  1  0  0  0  0
  9  3  1  0  0  0  0
 10  7  1  0  0  0  0
 11  7  1  0  0  0  0
 12 14  1  0  0  0  0
 12 13  1  0  0  0  0
 12 15  1  1  0  0  0
 13 17  1  0  0  0  0
 14 13  1  0  0  0  0
 14 18  1  1  0  0  0
 16 13  1  0  0  0  0
 19 21  2  0  0  0  0
 19 14  1  0  0  0  0
 20 19  1  0  0  0  0
M  END
>  <minimizedAffinity>
-3.59145832

$$$$
