
 OpenBabel03262520233D

 26 27  0  0  0  0  0  0  0  0999 V2000
   40.5230   23.6380   35.4520 C   0  0  0  0  0  0  0  0  0  0  0  0
   39.3330   24.0280   36.1400 C   0  0  0  0  0  0  0  0  0  0  0  0
   39.0370   23.3600   37.2980 C   0  0  0  0  0  0  0  0  0  0  0  0
   39.9100   22.3780   37.6940 N   0  0  0  0  0  0  0  0  0  0  0  0
   41.0170   22.0260   37.0420 C   0  0  0  0  0  0  0  0  0  0  0  0
   41.3100   22.6750   35.9090 N   0  0  0  0  0  0  0  0  0  0  0  0
   41.7950   21.0210   37.6220 N   0  0  0  0  0  0  0  0  0  0  0  0
   40.8750   24.0770   34.5310 H   0  0  0  0  0  0  0  0  0  0  0  0
   41.4370   20.3130   38.2610 H   0  0  0  0  0  0  0  0  0  0  0  0
   42.8120   21.0180   37.3670 H   0  0  0  0  0  0  0  0  0  0  0  0
   38.6790   25.1240   35.4390 C   0  0  0  0  0  0  0  0  0  0  0  0
   38.7060   26.4200   35.9890 C   0  0  0  0  0  0  0  0  0  0  0  0
   38.1160   27.5200   35.4620 C   0  0  0  0  0  0  0  0  0  0  0  0
   37.4250   27.4370   34.3080 C   0  0  0  0  0  0  0  0  0  0  0  0
   37.3980   26.1960   33.7770 C   0  0  0  0  0  0  0  0  0  0  0  0
   37.9870   25.1590   34.3280 N   0  0  0  0  0  0  0  0  0  0  0  0
   39.2760   26.5570   36.9660 H   0  0  0  0  0  0  0  0  0  0  0  0
   38.2310   28.4930   36.0280 H   0  0  0  0  0  0  0  0  0  0  0  0
   36.9600   28.2970   33.8880 H   0  0  0  0  0  0  0  0  0  0  0  0
   36.6570   25.9760   32.4860 C   0  0  0  0  0  0  0  0  0  0  0  0
   36.3280   26.8140   31.8880 H   0  0  0  0  0  0  0  0  0  0  0  0
   36.4150   24.7830   32.0980 O   0  0  0  0  0  0  0  0  0  0  0  0
   37.8320   23.7150   38.0480 C   0  0  0  0  0  0  0  0  0  0  0  0
   36.8450   23.9310   37.2010 F   0  0  0  0  0  0  0  0  0  0  0  0
   37.4550   22.7670   38.9810 F   0  0  0  0  0  0  0  0  0  0  0  0
   38.0380   24.9100   38.7960 F   0  0  0  0  0  0  0  0  0  0  0  0
  1  6  2  0  0  0  0
  1  2  1  0  0  0  0
  2  3  2  0  0  0  0
  3  4  1  0  0  0  0
  3 23  1  0  0  0  0
  5  7  1  0  0  0  0
  5  4  2  0  0  0  0
  6  5  1  0  0  0  0
  7  9  1  0  0  0  0
  8  1  1  0  0  0  0
 10  7  1  0  0  0  0
 11 12  1  0  0  0  0
 11  2  1  0  0  0  0
 12 17  1  0  0  0  0
 13 12  2  0  0  0  0
 13 18  1  0  0  0  0
 14 13  1  0  0  0  0
 15 14  2  0  0  0  0
 15 16  1  0  0  0  0
 16 11  2  0  0  0  0
 19 14  1  0  0  0  0
 20 15  1  0  0  0  0
 21 20  1  0  0  0  0
 22 20  2  0  0  0  0
 23 26  1  0  0  0  0
 23 25  1  0  0  0  0
 24 23  1  0  0  0  0
M  END
>  <minimizedAffinity>
-5.80538082

$$$$

 OpenBabel03262520233D

 26 27  0  0  0  0  0  0  0  0999 V2000
   38.1870   23.1110   35.0660 C   0  0  0  0  0  0  0  0  0  0  0  0
   38.1640   24.5330   34.9240 C   0  0  0  0  0  0  0  0  0  0  0  0
   38.2830   25.2740   36.0680 C   0  0  0  0  0  0  0  0  0  0  0  0
   38.4130   24.5860   37.2490 N   0  0  0  0  0  0  0  0  0  0  0  0
   38.4330   23.2580   37.3650 C   0  0  0  0  0  0  0  0  0  0  0  0
   38.3170   22.5300   36.2500 N   0  0  0  0  0  0  0  0  0  0  0  0
   38.6060   22.7440   38.6530 N   0  0  0  0  0  0  0  0  0  0  0  0
   38.1020   22.4080   34.2510 H   0  0  0  0  0  0  0  0  0  0  0  0
   38.3630   23.2410   39.5080 H   0  0  0  0  0  0  0  0  0  0  0  0
   39.0160   21.7810   38.7150 H   0  0  0  0  0  0  0  0  0  0  0  0
   38.0440   24.8990   33.5190 C   0  0  0  0  0  0  0  0  0  0  0  0
   39.1920   24.9330   32.7050 C   0  0  0  0  0  0  0  0  0  0  0  0
   39.2290   25.2850   31.3970 C   0  0  0  0  0  0  0  0  0  0  0  0
   38.1000   25.6440   30.7550 C   0  0  0  0  0  0  0  0  0  0  0  0
   36.9980   25.6120   31.5320 C   0  0  0  0  0  0  0  0  0  0  0  0
   37.0130   25.2630   32.7990 N   0  0  0  0  0  0  0  0  0  0  0  0
   40.1800   24.6380   33.1900 H   0  0  0  0  0  0  0  0  0  0  0  0
   40.2360   25.2610   30.8810 H   0  0  0  0  0  0  0  0  0  0  0  0
   38.1220   25.9210   29.7280 H   0  0  0  0  0  0  0  0  0  0  0  0
   35.6730   25.9930   30.9270 C   0  0  0  0  0  0  0  0  0  0  0  0
   35.5560   26.9260   30.3950 H   0  0  0  0  0  0  0  0  0  0  0  0
   34.6790   25.2000   31.0490 O   0  0  0  0  0  0  0  0  0  0  0  0
   38.2680   26.7350   35.9870 C   0  0  0  0  0  0  0  0  0  0  0  0
   38.2840   27.2340   37.2070 F   0  0  0  0  0  0  0  0  0  0  0  0
   39.3080   27.2640   35.2460 F   0  0  0  0  0  0  0  0  0  0  0  0
   37.0830   27.1910   35.3420 F   0  0  0  0  0  0  0  0  0  0  0  0
  1  6  1  0  0  0  0
  2  1  2  0  0  0  0
  2  3  1  0  0  0  0
  3  4  2  0  0  0  0
  4  5  1  0  0  0  0
  5  7  1  0  0  0  0
  6  5  2  0  0  0  0
  7 10  1  0  0  0  0
  7  9  1  0  0  0  0
  8  1  1  0  0  0  0
 11  2  1  0  0  0  0
 12 17  1  0  0  0  0
 12 11  2  0  0  0  0
 13 12  1  0  0  0  0
 14 13  2  0  0  0  0
 14 15  1  0  0  0  0
 15 16  2  0  0  0  0
 16 11  1  0  0  0  0
 18 13  1  0  0  0  0
 19 14  1  0  0  0  0
 20 22  2  0  0  0  0
 20 15  1  0  0  0  0
 21 20  1  0  0  0  0
 23  3  1  0  0  0  0
 23 24  1  0  0  0  0
 25 23  1  0  0  0  0
 26 23  1  0  0  0  0
M  END
>  <minimizedAffinity>
-5.26932526

$$$$

 OpenBabel03262520233D

 26 27  0  0  0  0  0  0  0  0999 V2000
   37.7870   24.0810   33.4790 C   0  0  0  0  0  0  0  0  0  0  0  0
   38.6980   24.8410   34.2750 C   0  0  0  0  0  0  0  0  0  0  0  0
   39.2330   25.9640   33.7050 C   0  0  0  0  0  0  0  0  0  0  0  0
   38.8470   26.2600   32.4220 N   0  0  0  0  0  0  0  0  0  0  0  0
   37.9950   25.5410   31.6920 C   0  0  0  0  0  0  0  0  0  0  0  0
   37.4690   24.4420   32.2440 N   0  0  0  0  0  0  0  0  0  0  0  0
   37.7010   26.0230   30.4140 N   0  0  0  0  0  0  0  0  0  0  0  0
   37.2940   23.1760   33.8000 H   0  0  0  0  0  0  0  0  0  0  0  0
   38.3150   26.6290   29.8730 H   0  0  0  0  0  0  0  0  0  0  0  0
   36.7820   25.7260   30.0070 H   0  0  0  0  0  0  0  0  0  0  0  0
   38.8410   24.2390   35.5930 C   0  0  0  0  0  0  0  0  0  0  0  0
   37.9750   24.6240   36.6350 C   0  0  0  0  0  0  0  0  0  0  0  0
   38.0160   24.1700   37.9110 C   0  0  0  0  0  0  0  0  0  0  0  0
   38.9440   23.2680   38.2850 C   0  0  0  0  0  0  0  0  0  0  0  0
   39.7750   22.8970   37.2890 C   0  0  0  0  0  0  0  0  0  0  0  0
   39.6960   23.3660   36.0650 N   0  0  0  0  0  0  0  0  0  0  0  0
   37.1660   25.3850   36.3820 H   0  0  0  0  0  0  0  0  0  0  0  0
   37.2460   24.5800   38.6320 H   0  0  0  0  0  0  0  0  0  0  0  0
   38.9810   22.9080   39.2860 H   0  0  0  0  0  0  0  0  0  0  0  0
   40.8560   21.8920   37.5840 C   0  0  0  0  0  0  0  0  0  0  0  0
   40.6980   21.1090   38.3130 H   0  0  0  0  0  0  0  0  0  0  0  0
   41.9700   21.9700   36.9650 O   0  0  0  0  0  0  0  0  0  0  0  0
   40.1720   26.7850   34.4710 C   0  0  0  0  0  0  0  0  0  0  0  0
   39.5070   27.4500   35.3950 F   0  0  0  0  0  0  0  0  0  0  0  0
   41.1990   26.0650   35.0530 F   0  0  0  0  0  0  0  0  0  0  0  0
   40.8170   27.7330   33.6260 F   0  0  0  0  0  0  0  0  0  0  0  0
  1  8  1  0  0  0  0
  1  2  1  0  0  0  0
  2 11  1  0  0  0  0
  3  2  2  0  0  0  0
  3 23  1  0  0  0  0
  4  3  1  0  0  0  0
  5  6  1  0  0  0  0
  5  4  2  0  0  0  0
  6  1  2  0  0  0  0
  7  5  1  0  0  0  0
  9  7  1  0  0  0  0
 10  7  1  0  0  0  0
 11 16  2  0  0  0  0
 11 12  1  0  0  0  0
 12 13  2  0  0  0  0
 13 14  1  0  0  0  0
 13 18  1  0  0  0  0
 14 19  1  0  0  0  0
 15 20  1  0  0  0  0
 15 14  2  0  0  0  0
 16 15  1  0  0  0  0
 17 12  1  0  0  0  0
 20 21  1  0  0  0  0
 22 20  2  0  0  0  0
 23 25  1  0  0  0  0
 23 24  1  0  0  0  0
 26 23  1  0  0  0  0
M  END
>  <minimizedAffinity>
-5.22240591

$$$$

 OpenBabel03262520233D

 26 27  0  0  0  0  0  0  0  0999 V2000
   40.4790   22.7490   35.0340 C   0  0  0  0  0  0  0  0  0  0  0  0
   39.3530   23.2880   35.7270 C   0  0  0  0  0  0  0  0  0  0  0  0
   39.2180   22.9550   37.0480 C   0  0  0  0  0  0  0  0  0  0  0  0
   40.1770   22.1330   37.5870 N   0  0  0  0  0  0  0  0  0  0  0  0
   41.2230   21.6380   36.9270 C   0  0  0  0  0  0  0  0  0  0  0  0
   41.3580   21.9610   35.6360 N   0  0  0  0  0  0  0  0  0  0  0  0
   42.1090   20.8440   37.6590 N   0  0  0  0  0  0  0  0  0  0  0  0
   40.7060   22.9270   33.9930 H   0  0  0  0  0  0  0  0  0  0  0  0
   41.8580   20.3300   38.5020 H   0  0  0  0  0  0  0  0  0  0  0  0
   43.0900   20.7900   37.2960 H   0  0  0  0  0  0  0  0  0  0  0  0
   38.5730   24.1400   34.8400 C   0  0  0  0  0  0  0  0  0  0  0  0
   38.1860   23.6630   33.5740 C   0  0  0  0  0  0  0  0  0  0  0  0
   37.4900   24.3560   32.6410 C   0  0  0  0  0  0  0  0  0  0  0  0
   37.1000   25.6230   32.8830 C   0  0  0  0  0  0  0  0  0  0  0  0
   37.4690   26.0840   34.0960 C   0  0  0  0  0  0  0  0  0  0  0  0
   38.1450   25.3710   34.9680 N   0  0  0  0  0  0  0  0  0  0  0  0
   38.4850   22.5950   33.3090 H   0  0  0  0  0  0  0  0  0  0  0  0
   37.2560   23.8270   31.6680 H   0  0  0  0  0  0  0  0  0  0  0  0
   36.5530   26.1740   32.1550 H   0  0  0  0  0  0  0  0  0  0  0  0
   37.0910   27.4880   34.4830 C   0  0  0  0  0  0  0  0  0  0  0  0
   36.3460   28.0350   33.9220 H   0  0  0  0  0  0  0  0  0  0  0  0
   37.6610   28.0370   35.4870 O   0  0  0  0  0  0  0  0  0  0  0  0
   38.0850   23.4770   37.8130 C   0  0  0  0  0  0  0  0  0  0  0  0
   38.2750   24.7620   38.0380 F   0  0  0  0  0  0  0  0  0  0  0  0
   36.8600   23.2800   37.2030 F   0  0  0  0  0  0  0  0  0  0  0  0
   37.9820   22.8210   39.0720 F   0  0  0  0  0  0  0  0  0  0  0  0
  1  6  2  0  0  0  0
  1  2  1  0  0  0  0
  2  3  2  0  0  0  0
  3  4  1  0  0  0  0
  3 23  1  0  0  0  0
  5  4  2  0  0  0  0
  5  7  1  0  0  0  0
  6  5  1  0  0  0  0
  7  9  1  0  0  0  0
  8  1  1  0  0  0  0
 10  7  1  0  0  0  0
 11 16  1  0  0  0  0
 11  2  1  0  0  0  0
 12 11  2  0  0  0  0
 13 14  2  0  0  0  0
 13 12  1  0  0  0  0
 14 15  1  0  0  0  0
 15 20  1  0  0  0  0
 15 16  2  0  0  0  0
 17 12  1  0  0  0  0
 18 13  1  0  0  0  0
 19 14  1  0  0  0  0
 20 22  2  0  0  0  0
 21 20  1  0  0  0  0
 23 24  1  0  0  0  0
 23 26  1  0  0  0  0
 25 23  1  0  0  0  0
M  END
>  <minimizedAffinity>
-5.0865941

$$$$

 OpenBabel03262520233D

 26 27  0  0  0  0  0  0  0  0999 V2000
   37.9870   22.8870   34.1580 C   0  0  0  0  0  0  0  0  0  0  0  0
   38.4020   23.4750   35.3920 C   0  0  0  0  0  0  0  0  0  0  0  0
   37.8270   22.9890   36.5350 C   0  0  0  0  0  0  0  0  0  0  0  0
   36.9060   21.9810   36.3940 N   0  0  0  0  0  0  0  0  0  0  0  0
   36.5300   21.4430   35.2350 C   0  0  0  0  0  0  0  0  0  0  0  0
   37.0880   21.9140   34.1150 N   0  0  0  0  0  0  0  0  0  0  0  0
   35.6000   20.4020   35.2990 N   0  0  0  0  0  0  0  0  0  0  0  0
   38.3550   23.1730   33.1840 H   0  0  0  0  0  0  0  0  0  0  0  0
   34.9400   20.2680   36.0630 H   0  0  0  0  0  0  0  0  0  0  0  0
   35.6020   19.7300   34.4950 H   0  0  0  0  0  0  0  0  0  0  0  0
   39.4160   24.4910   35.1520 C   0  0  0  0  0  0  0  0  0  0  0  0
   39.0280   25.8010   34.8110 C   0  0  0  0  0  0  0  0  0  0  0  0
   39.8620   26.8310   34.5320 C   0  0  0  0  0  0  0  0  0  0  0  0
   41.1970   26.6560   34.5670 C   0  0  0  0  0  0  0  0  0  0  0  0
   41.5740   25.4020   34.8940 C   0  0  0  0  0  0  0  0  0  0  0  0
   40.7250   24.4350   35.1570 N   0  0  0  0  0  0  0  0  0  0  0  0
   37.9090   26.0140   34.7660 H   0  0  0  0  0  0  0  0  0  0  0  0
   39.3890   27.8270   34.2750 H   0  0  0  0  0  0  0  0  0  0  0  0
   41.8580   27.4610   34.3490 H   0  0  0  0  0  0  0  0  0  0  0  0
   43.0430   25.0830   34.9660 C   0  0  0  0  0  0  0  0  0  0  0  0
   43.6960   25.2910   34.1310 H   0  0  0  0  0  0  0  0  0  0  0  0
   43.5180   24.5580   36.0300 O   0  0  0  0  0  0  0  0  0  0  0  0
   38.2120   23.5500   37.8310 C   0  0  0  0  0  0  0  0  0  0  0  0
   39.4730   23.2490   38.0730 F   0  0  0  0  0  0  0  0  0  0  0  0
   38.0260   24.9170   37.9260 F   0  0  0  0  0  0  0  0  0  0  0  0
   37.4200   22.9950   38.8760 F   0  0  0  0  0  0  0  0  0  0  0  0
  1  2  1  0  0  0  0
  2  3  2  0  0  0  0
  3 23  1  0  0  0  0
  4  3  1  0  0  0  0
  5  7  1  0  0  0  0
  5  4  2  0  0  0  0
  6  1  2  0  0  0  0
  6  5  1  0  0  0  0
  7  9  1  0  0  0  0
  8  1  1  0  0  0  0
 10  7  1  0  0  0  0
 11 16  1  0  0  0  0
 11  2  1  0  0  0  0
 12 11  2  0  0  0  0
 13 14  2  0  0  0  0
 13 12  1  0  0  0  0
 14 15  1  0  0  0  0
 15 20  1  0  0  0  0
 15 16  2  0  0  0  0
 17 12  1  0  0  0  0
 18 13  1  0  0  0  0
 19 14  1  0  0  0  0
 20 22  2  0  0  0  0
 21 20  1  0  0  0  0
 23 25  1  0  0  0  0
 23 24  1  0  0  0  0
 23 26  1  0  0  0  0
M  END
>  <minimizedAffinity>
-5.08332825

$$$$

 OpenBabel03262520233D

 26 27  0  0  0  0  0  0  0  0999 V2000
   38.0890   23.8300   33.6150 C   0  0  0  0  0  0  0  0  0  0  0  0
   38.5570   24.6980   34.6480 C   0  0  0  0  0  0  0  0  0  0  0  0
   38.1310   25.9980   34.6080 C   0  0  0  0  0  0  0  0  0  0  0  0
   37.2930   26.3510   33.5800 N   0  0  0  0  0  0  0  0  0  0  0  0
   36.8640   25.5290   32.6230 C   0  0  0  0  0  0  0  0  0  0  0  0
   37.2780   24.2580   32.6570 N   0  0  0  0  0  0  0  0  0  0  0  0
   35.9880   26.0690   31.6780 N   0  0  0  0  0  0  0  0  0  0  0  0
   38.3460   22.7850   33.5230 H   0  0  0  0  0  0  0  0  0  0  0  0
   35.9350   27.0580   31.4420 H   0  0  0  0  0  0  0  0  0  0  0  0
   35.3530   25.3890   31.1950 H   0  0  0  0  0  0  0  0  0  0  0  0
   39.4030   23.9650   35.5800 C   0  0  0  0  0  0  0  0  0  0  0  0
   38.8310   23.3580   36.7140 C   0  0  0  0  0  0  0  0  0  0  0  0
   39.5010   22.6760   37.6740 C   0  0  0  0  0  0  0  0  0  0  0  0
   40.8380   22.5260   37.5980 C   0  0  0  0  0  0  0  0  0  0  0  0
   41.3900   23.1070   36.5120 C   0  0  0  0  0  0  0  0  0  0  0  0
   40.6960   23.7590   35.6060 N   0  0  0  0  0  0  0  0  0  0  0  0
   37.7010   23.4480   36.8360 H   0  0  0  0  0  0  0  0  0  0  0  0
   38.8920   22.2460   38.5260 H   0  0  0  0  0  0  0  0  0  0  0  0
   41.3700   21.9910   38.3480 H   0  0  0  0  0  0  0  0  0  0  0  0
   42.8780   23.0070   36.3150 C   0  0  0  0  0  0  0  0  0  0  0  0
   43.3300   22.0880   35.9710 H   0  0  0  0  0  0  0  0  0  0  0  0
   43.6110   24.0250   36.5610 O   0  0  0  0  0  0  0  0  0  0  0  0
   38.5760   26.9350   35.6400 C   0  0  0  0  0  0  0  0  0  0  0  0
   38.2320   26.4670   36.8240 F   0  0  0  0  0  0  0  0  0  0  0  0
   39.9330   27.1970   35.6120 F   0  0  0  0  0  0  0  0  0  0  0  0
   37.9500   28.2040   35.4720 F   0  0  0  0  0  0  0  0  0  0  0  0
  1  2  1  0  0  0  0
  2 11  1  0  0  0  0
  3  2  2  0  0  0  0
  3 23  1  0  0  0  0
  4  3  1  0  0  0  0
  5  6  1  0  0  0  0
  5  4  2  0  0  0  0
  6  1  2  0  0  0  0
  7  5  1  0  0  0  0
  8  1  1  0  0  0  0
  9  7  1  0  0  0  0
 10  7  1  0  0  0  0
 11 16  2  0  0  0  0
 11 12  1  0  0  0  0
 12 17  1  0  0  0  0
 12 13  2  0  0  0  0
 13 18  1  0  0  0  0
 14 13  1  0  0  0  0
 14 19  1  0  0  0  0
 15 14  2  0  0  0  0
 16 15  1  0  0  0  0
 20 15  1  0  0  0  0
 20 22  2  0  0  0  0
 21 20  1  0  0  0  0
 23 24  1  0  0  0  0
 25 23  1  0  0  0  0
 26 23  1  0  0  0  0
M  END
>  <minimizedAffinity>
-5.07942915

$$$$

 OpenBabel03262520233D

 26 27  0  0  0  0  0  0  0  0999 V2000
   38.3950   23.9160   36.6010 C   0  0  0  0  0  0  0  0  0  0  0  0
   39.1830   24.6400   35.6550 C   0  0  0  0  0  0  0  0  0  0  0  0
   40.4920   24.2650   35.5200 C   0  0  0  0  0  0  0  0  0  0  0  0
   40.9300   23.2280   36.3040 N   0  0  0  0  0  0  0  0  0  0  0  0
   40.1830   22.5610   37.1830 C   0  0  0  0  0  0  0  0  0  0  0  0
   38.9030   22.9240   37.3190 N   0  0  0  0  0  0  0  0  0  0  0  0
   40.8030   21.5130   37.8680 N   0  0  0  0  0  0  0  0  0  0  0  0
   37.3530   24.1060   36.8100 H   0  0  0  0  0  0  0  0  0  0  0  0
   41.8060   21.4450   38.0270 H   0  0  0  0  0  0  0  0  0  0  0  0
   40.1710   20.7590   38.2300 H   0  0  0  0  0  0  0  0  0  0  0  0
   38.3710   25.6480   34.9870 C   0  0  0  0  0  0  0  0  0  0  0  0
   38.1370   26.8860   35.6150 C   0  0  0  0  0  0  0  0  0  0  0  0
   37.3800   27.8970   35.1250 C   0  0  0  0  0  0  0  0  0  0  0  0
   36.7660   27.7720   33.9320 C   0  0  0  0  0  0  0  0  0  0  0  0
   36.9880   26.5870   33.3260 C   0  0  0  0  0  0  0  0  0  0  0  0
   37.7330   25.6360   33.8440 N   0  0  0  0  0  0  0  0  0  0  0  0
   38.6310   27.0540   36.6290 H   0  0  0  0  0  0  0  0  0  0  0  0
   37.2910   28.8320   35.7550 H   0  0  0  0  0  0  0  0  0  0  0  0
   36.1700   28.5620   33.5410 H   0  0  0  0  0  0  0  0  0  0  0  0
   36.3550   26.3290   31.9860 C   0  0  0  0  0  0  0  0  0  0  0  0
   36.2280   25.3200   31.6190 H   0  0  0  0  0  0  0  0  0  0  0  0
   35.9670   27.3180   31.2760 O   0  0  0  0  0  0  0  0  0  0  0  0
   41.3490   24.9680   34.5650 C   0  0  0  0  0  0  0  0  0  0  0  0
   42.5730   24.4830   34.6470 F   0  0  0  0  0  0  0  0  0  0  0  0
   40.9020   24.9020   33.2580 F   0  0  0  0  0  0  0  0  0  0  0  0
   41.4070   26.3580   34.8680 F   0  0  0  0  0  0  0  0  0  0  0  0
  1  8  1  0  0  0  0
  1  6  1  0  0  0  0
  2  1  2  0  0  0  0
  3  2  1  0  0  0  0
  3  4  2  0  0  0  0
  4  5  1  0  0  0  0
  5  6  2  0  0  0  0
  5  7  1  0  0  0  0
  7  9  1  0  0  0  0
  7 10  1  0  0  0  0
 11 12  1  0  0  0  0
 11  2  1  0  0  0  0
 12 17  1  0  0  0  0
 13 12  2  0  0  0  0
 13 18  1  0  0  0  0
 14 13  1  0  0  0  0
 15 16  1  0  0  0  0
 15 14  2  0  0  0  0
 16 11  2  0  0  0  0
 19 14  1  0  0  0  0
 20 15  1  0  0  0  0
 21 20  1  0  0  0  0
 22 20  2  0  0  0  0
 23 24  1  0  0  0  0
 23 26  1  0  0  0  0
 23  3  1  0  0  0  0
 25 23  1  0  0  0  0
M  END
>  <minimizedAffinity>
-5.06687737

$$$$

 OpenBabel03262520233D

 26 27  0  0  0  0  0  0  0  0999 V2000
   37.8390   24.1430   33.3620 C   0  0  0  0  0  0  0  0  0  0  0  0
   37.9990   25.4480   33.9200 C   0  0  0  0  0  0  0  0  0  0  0  0
   38.2120   25.5260   35.2690 C   0  0  0  0  0  0  0  0  0  0  0  0
   38.2530   24.3440   35.9660 N   0  0  0  0  0  0  0  0  0  0  0  0
   38.1030   23.1330   35.4310 C   0  0  0  0  0  0  0  0  0  0  0  0
   37.8940   23.0520   34.1130 N   0  0  0  0  0  0  0  0  0  0  0  0
   38.2080   22.0450   36.3020 N   0  0  0  0  0  0  0  0  0  0  0  0
   37.6640   23.9350   32.3170 H   0  0  0  0  0  0  0  0  0  0  0  0
   38.0310   22.0910   37.3030 H   0  0  0  0  0  0  0  0  0  0  0  0
   38.4910   21.1330   35.8700 H   0  0  0  0  0  0  0  0  0  0  0  0
   37.9260   26.4580   32.8720 C   0  0  0  0  0  0  0  0  0  0  0  0
   39.0140   26.6370   31.9970 C   0  0  0  0  0  0  0  0  0  0  0  0
   39.0930   27.5550   31.0030 C   0  0  0  0  0  0  0  0  0  0  0  0
   38.0720   28.4050   30.7780 C   0  0  0  0  0  0  0  0  0  0  0  0
   37.0270   28.2360   31.6140 C   0  0  0  0  0  0  0  0  0  0  0  0
   36.9980   27.3290   32.5650 N   0  0  0  0  0  0  0  0  0  0  0  0
   39.9100   25.9470   32.1360 H   0  0  0  0  0  0  0  0  0  0  0  0
   40.0400   27.5700   30.3850 H   0  0  0  0  0  0  0  0  0  0  0  0
   38.1270   29.1280   29.9990 H   0  0  0  0  0  0  0  0  0  0  0  0
   35.8240   29.1270   31.4600 C   0  0  0  0  0  0  0  0  0  0  0  0
   35.8010   29.8990   30.7040 H   0  0  0  0  0  0  0  0  0  0  0  0
   34.8220   28.9660   32.2370 O   0  0  0  0  0  0  0  0  0  0  0  0
   38.3840   26.8360   35.8990 C   0  0  0  0  0  0  0  0  0  0  0  0
   39.5930   27.2870   35.6280 F   0  0  0  0  0  0  0  0  0  0  0  0
   37.4360   27.7680   35.5190 F   0  0  0  0  0  0  0  0  0  0  0  0
   38.2590   26.7350   37.3140 F   0  0  0  0  0  0  0  0  0  0  0  0
  1  2  2  0  0  0  0
  1  6  1  0  0  0  0
  2  3  1  0  0  0  0
  3 23  1  0  0  0  0
  3  4  2  0  0  0  0
  5  4  1  0  0  0  0
  5  7  1  0  0  0  0
  6  5  2  0  0  0  0
  7  9  1  0  0  0  0
  8  1  1  0  0  0  0
 10  7  1  0  0  0  0
 11  2  1  0  0  0  0
 12 17  1  0  0  0  0
 12 11  2  0  0  0  0
 13 12  1  0  0  0  0
 14 13  2  0  0  0  0
 14 15  1  0  0  0  0
 15 16  2  0  0  0  0
 16 11  1  0  0  0  0
 18 13  1  0  0  0  0
 19 14  1  0  0  0  0
 20 15  1  0  0  0  0
 20 22  2  0  0  0  0
 21 20  1  0  0  0  0
 23 26  1  0  0  0  0
 24 23  1  0  0  0  0
 25 23  1  0  0  0  0
M  END
>  <minimizedAffinity>
-4.97822237

$$$$

 OpenBabel03262520233D

 26 27  0  0  0  0  0  0  0  0999 V2000
   37.4140   23.6500   32.7750 C   0  0  0  0  0  0  0  0  0  0  0  0
   37.7810   24.6930   33.6790 C   0  0  0  0  0  0  0  0  0  0  0  0
   37.2790   25.9410   33.4260 C   0  0  0  0  0  0  0  0  0  0  0  0
   36.4660   26.0780   32.3280 N   0  0  0  0  0  0  0  0  0  0  0  0
   36.1320   25.0940   31.4930 C   0  0  0  0  0  0  0  0  0  0  0  0
   36.6220   23.8730   31.7360 N   0  0  0  0  0  0  0  0  0  0  0  0
   35.2670   25.4250   30.4470 N   0  0  0  0  0  0  0  0  0  0  0  0
   37.7380   22.6230   32.8530 H   0  0  0  0  0  0  0  0  0  0  0  0
   35.1640   26.3620   30.0610 H   0  0  0  0  0  0  0  0  0  0  0  0
   34.6970   24.6390   30.0520 H   0  0  0  0  0  0  0  0  0  0  0  0
   38.6280   24.1670   34.7410 C   0  0  0  0  0  0  0  0  0  0  0  0
   39.9280   23.7180   34.4400 C   0  0  0  0  0  0  0  0  0  0  0  0
   40.8070   23.1790   35.3200 C   0  0  0  0  0  0  0  0  0  0  0  0
   40.4700   23.0320   36.6160 C   0  0  0  0  0  0  0  0  0  0  0  0
   39.2250   23.4620   36.9080 C   0  0  0  0  0  0  0  0  0  0  0  0
   38.4090   23.9790   36.0180 N   0  0  0  0  0  0  0  0  0  0  0  0
   40.2730   23.8160   33.3580 H   0  0  0  0  0  0  0  0  0  0  0  0
   41.8180   22.8660   34.9180 H   0  0  0  0  0  0  0  0  0  0  0  0
   41.1560   22.6100   37.3120 H   0  0  0  0  0  0  0  0  0  0  0  0
   38.7340   23.3510   38.3260 C   0  0  0  0  0  0  0  0  0  0  0  0
   38.8890   22.4450   38.8960 H   0  0  0  0  0  0  0  0  0  0  0  0
   38.1260   24.3410   38.8580 O   0  0  0  0  0  0  0  0  0  0  0  0
   37.6180   27.0500   34.3180 C   0  0  0  0  0  0  0  0  0  0  0  0
   37.1100   26.8140   35.5110 F   0  0  0  0  0  0  0  0  0  0  0  0
   38.9760   27.2900   34.4200 F   0  0  0  0  0  0  0  0  0  0  0  0
   37.0610   28.2700   33.8380 F   0  0  0  0  0  0  0  0  0  0  0  0
  1  8  1  0  0  0  0
  1  2  1  0  0  0  0
  2 11  1  0  0  0  0
  3  2  2  0  0  0  0
  3 23  1  0  0  0  0
  4  3  1  0  0  0  0
  5  6  1  0  0  0  0
  5  4  2  0  0  0  0
  6  1  2  0  0  0  0
  7  5  1  0  0  0  0
  9  7  1  0  0  0  0
 10  7  1  0  0  0  0
 11 16  1  0  0  0  0
 12 11  2  0  0  0  0
 12 13  1  0  0  0  0
 13 14  2  0  0  0  0
 14 15  1  0  0  0  0
 14 19  1  0  0  0  0
 15 20  1  0  0  0  0
 16 15  2  0  0  0  0
 17 12  1  0  0  0  0
 18 13  1  0  0  0  0
 20 22  2  0  0  0  0
 20 21  1  0  0  0  0
 23 25  1  0  0  0  0
 23 24  1  0  0  0  0
 26 23  1  0  0  0  0
M  END
>  <minimizedAffinity>
-4.87216616

$$$$
