
 OpenBabel03272509003D

 22 23  0  0  0  0  0  0  0  0999 V2000
   38.1140   30.1750   49.5910 Cl  0  0  0  0  0  0  0  0  0  0  0  0
   36.7780   29.9490   48.5160 C   0  0  0  0  0  0  0  0  0  0  0  0
   36.8540   30.4300   47.2230 C   0  0  0  0  0  0  0  0  0  0  0  0
   35.8210   30.2740   46.3380 C   0  0  0  0  0  0  0  0  0  0  0  0
   34.6550   29.6250   46.7100 C   0  0  0  0  0  0  0  0  0  0  0  0
   34.5450   29.1300   48.0050 C   0  0  0  0  0  0  0  0  0  0  0  0
   33.1380   28.2890   48.6220 Cl  0  0  0  0  0  0  0  0  0  0  0  0
   35.6220   29.3120   48.8700 C   0  0  0  0  0  0  0  0  0  0  0  0
   35.9180   30.6610   45.3440 H   0  0  0  0  0  0  0  0  0  0  0  0
   33.8100   29.4770   46.0480 H   0  0  0  0  0  0  0  0  0  0  0  0
   39.4270   33.0060   46.7800 C   0  0  0  0  0  0  0  0  0  0  0  0
   40.3620   32.3830   45.9280 C   0  0  0  0  0  0  0  0  0  0  0  0
   40.0700   31.0700   45.5250 C   0  0  0  0  0  0  0  0  0  0  0  0
   38.9310   30.4900   45.9700 N   0  0  0  0  0  0  0  0  0  0  0  0
   38.0600   31.1190   46.7860 C   0  0  0  0  0  0  0  0  0  0  0  0
   38.3200   32.3760   47.1830 N   0  0  0  0  0  0  0  0  0  0  0  0
   39.5900   34.0190   47.1280 H   0  0  0  0  0  0  0  0  0  0  0  0
   41.2500   32.8940   45.6080 H   0  0  0  0  0  0  0  0  0  0  0  0
   40.7510   30.5420   44.8710 H   0  0  0  0  0  0  0  0  0  0  0  0
   35.5830   28.8160   50.2560 C   0  0  0  0  0  0  0  0  0  0  0  0
   35.9560   27.8970   50.6850 H   0  0  0  0  0  0  0  0  0  0  0  0
   34.9790   29.7840   50.8310 O   0  0  0  0  0  0  0  0  0  0  0  0
  2  8  1  0  0  0  0
  2  1  1  0  0  0  0
  3  2  2  0  0  0  0
  4  5  2  0  0  0  0
  4  3  1  0  0  0  0
  5  6  1  0  0  0  0
  6  7  1  0  0  0  0
  6  8  2  0  0  0  0
  8 20  1  0  0  0  0
  9  4  1  0  0  0  0
 10  5  1  0  0  0  0
 11 17  1  0  0  0  0
 11 16  1  0  0  0  0
 12 11  2  0  0  0  0
 13 12  1  0  0  0  0
 13 14  2  0  0  0  0
 14 15  1  0  0  0  0
 15 16  2  0  0  0  0
 15  3  1  0  0  0  0
 18 12  1  0  0  0  0
 19 13  1  0  0  0  0
 20 21  1  0  0  0  0
 20 22  2  0  0  0  0
M  END
>  <minimizedAffinity>
-4.76642036

>  <minimizedRMSD>
1.98329163

$$$$
