
 OpenBabel03272507563D

 17 17  0  0  0  0  0  0  0  0999 V2000
   38.0100   25.2030   36.4510 C   0  0  0  0  0  0  0  0  0  0  0  0
   38.5720   24.1010   37.1250 C   0  0  0  0  0  0  0  0  0  0  0  0
   39.4130   23.2690   36.4050 C   0  0  0  0  0  0  0  0  0  0  0  0
   39.6660   23.5380   35.0920 N   0  0  0  0  0  0  0  0  0  0  0  0
   39.1010   24.6130   34.4800 C   0  0  0  0  0  0  0  0  0  0  0  0
   38.2730   25.4490   35.1510 N   0  0  0  0  0  0  0  0  0  0  0  0
   39.4860   24.7190   33.1180 N   0  0  0  0  0  0  0  0  0  0  0  0
   37.3420   25.8930   36.9560 H   0  0  0  0  0  0  0  0  0  0  0  0
   38.8250   24.5950   32.2920 H   0  0  0  0  0  0  0  0  0  0  0  0
   40.4840   24.9350   32.8340 H   0  0  0  0  0  0  0  0  0  0  0  0
   38.2470   23.8810   38.5580 C   0  0  0  0  0  0  0  0  0  0  0  0
   39.3810   23.6840   39.3140 F   0  0  0  0  0  0  0  0  0  0  0  0
   37.5920   25.0020   39.0300 F   0  0  0  0  0  0  0  0  0  0  0  0
   37.4110   22.7960   38.7540 F   0  0  0  0  0  0  0  0  0  0  0  0
   40.0230   22.1270   37.0040 C   0  0  0  0  0  0  0  0  0  0  0  0
   39.5070   21.1870   37.1170 H   0  0  0  0  0  0  0  0  0  0  0  0
   41.1190   21.8410   37.5050 O   0  0  0  0  0  0  0  0  0  0  0  0
  1  8  1  0  0  0  0
  1  2  1  0  0  0  0
  2 11  1  0  0  0  0
  3 15  1  0  0  0  0
  3  2  2  0  0  0  0
  4  3  1  0  0  0  0
  5  4  2  0  0  0  0
  5  6  1  0  0  0  0
  6  1  2  0  0  0  0
  7  5  1  0  0  0  0
  9  7  1  0  0  0  0
 10  7  1  0  0  0  0
 11 14  1  0  0  0  0
 11 13  1  0  0  0  0
 11 12  1  0  0  0  0
 15 16  1  0  0  0  0
 15 17  2  0  0  0  0
M  END
>  <minimizedAffinity>
-4.07500935

$$$$

 OpenBabel03272507563D

 17 17  0  0  0  0  0  0  0  0999 V2000
   38.2090   25.9950   36.6330 C   0  0  0  0  0  0  0  0  0  0  0  0
   38.1730   24.5940   36.7740 C   0  0  0  0  0  0  0  0  0  0  0  0
   38.1040   23.8340   35.6170 C   0  0  0  0  0  0  0  0  0  0  0  0
   38.0740   24.4560   34.4030 N   0  0  0  0  0  0  0  0  0  0  0  0
   38.1090   25.8130   34.3140 C   0  0  0  0  0  0  0  0  0  0  0  0
   38.1770   26.5880   35.4220 N   0  0  0  0  0  0  0  0  0  0  0  0
   38.0680   26.2640   32.9690 N   0  0  0  0  0  0  0  0  0  0  0  0
   38.2630   26.6470   37.4990 H   0  0  0  0  0  0  0  0  0  0  0  0
   37.2590   26.8060   32.5390 H   0  0  0  0  0  0  0  0  0  0  0  0
   38.8640   26.0820   32.2930 H   0  0  0  0  0  0  0  0  0  0  0  0
   38.2130   23.9960   38.1330 C   0  0  0  0  0  0  0  0  0  0  0  0
   39.4040   23.3480   38.3710 F   0  0  0  0  0  0  0  0  0  0  0  0
   38.0720   25.0130   39.0570 F   0  0  0  0  0  0  0  0  0  0  0  0
   37.1860   23.0930   38.3470 F   0  0  0  0  0  0  0  0  0  0  0  0
   38.0580   22.4090   35.6620 C   0  0  0  0  0  0  0  0  0  0  0  0
   38.9450   21.8040   35.7550 H   0  0  0  0  0  0  0  0  0  0  0  0
   37.1890   21.5280   35.6210 O   0  0  0  0  0  0  0  0  0  0  0  0
  1  2  1  0  0  0  0
  1  8  1  0  0  0  0
  2 11  1  0  0  0  0
  3 15  1  0  0  0  0
  3  2  2  0  0  0  0
  4  3  1  0  0  0  0
  5  4  2  0  0  0  0
  5  6  1  0  0  0  0
  6  1  2  0  0  0  0
  7  5  1  0  0  0  0
  9  7  1  0  0  0  0
 10  7  1  0  0  0  0
 11 14  1  0  0  0  0
 11 12  1  0  0  0  0
 11 13  1  0  0  0  0
 15 16  1  0  0  0  0
 17 15  2  0  0  0  0
M  END
>  <minimizedAffinity>
-3.9644742

$$$$

 OpenBabel03272507563D

 17 17  0  0  0  0  0  0  0  0999 V2000
   36.9880   27.5620   33.5320 C   0  0  0  0  0  0  0  0  0  0  0  0
   37.7260   26.6430   34.3020 C   0  0  0  0  0  0  0  0  0  0  0  0
   37.8190   25.3420   33.8330 C   0  0  0  0  0  0  0  0  0  0  0  0
   37.2060   25.0010   32.6640 N   0  0  0  0  0  0  0  0  0  0  0  0
   36.5030   25.9230   31.9510 C   0  0  0  0  0  0  0  0  0  0  0  0
   36.3890   27.2030   32.3770 N   0  0  0  0  0  0  0  0  0  0  0  0
   35.9420   25.3730   30.7690 N   0  0  0  0  0  0  0  0  0  0  0  0
   36.8760   28.5960   33.8430 H   0  0  0  0  0  0  0  0  0  0  0  0
   34.8990   25.2520   30.5950 H   0  0  0  0  0  0  0  0  0  0  0  0
   36.5480   25.0420   29.9650 H   0  0  0  0  0  0  0  0  0  0  0  0
   38.3650   27.0950   35.5640 C   0  0  0  0  0  0  0  0  0  0  0  0
   39.7350   27.1680   35.4450 F   0  0  0  0  0  0  0  0  0  0  0  0
   37.8820   28.3540   35.8660 F   0  0  0  0  0  0  0  0  0  0  0  0
   38.0730   26.2700   36.6350 F   0  0  0  0  0  0  0  0  0  0  0  0
   38.5400   24.3410   34.5500 C   0  0  0  0  0  0  0  0  0  0  0  0
   39.6150   24.2670   34.5160 H   0  0  0  0  0  0  0  0  0  0  0  0
   38.2740   23.3970   35.3050 O   0  0  0  0  0  0  0  0  0  0  0  0
  1  8  1  0  0  0  0
  1  2  1  0  0  0  0
  2 11  1  0  0  0  0
  3  2  2  0  0  0  0
  3 15  1  0  0  0  0
  4  3  1  0  0  0  0
  5  6  1  0  0  0  0
  5  4  2  0  0  0  0
  6  1  2  0  0  0  0
  7  5  1  0  0  0  0
  9  7  1  0  0  0  0
 10  7  1  0  0  0  0
 11 13  1  0  0  0  0
 11 14  1  0  0  0  0
 12 11  1  0  0  0  0
 15 17  2  0  0  0  0
 16 15  1  0  0  0  0
M  END
>  <minimizedAffinity>
-3.88529301

$$$$

 OpenBabel03272507563D

 17 17  0  0  0  0  0  0  0  0999 V2000
   38.2570   24.4980   34.3820 C   0  0  0  0  0  0  0  0  0  0  0  0
   38.2000   23.7320   35.5620 C   0  0  0  0  0  0  0  0  0  0  0  0
   38.1170   24.4130   36.7660 C   0  0  0  0  0  0  0  0  0  0  0  0
   38.0940   25.7770   36.7690 N   0  0  0  0  0  0  0  0  0  0  0  0
   38.1510   26.4770   35.6040 C   0  0  0  0  0  0  0  0  0  0  0  0
   38.2330   25.8460   34.4080 N   0  0  0  0  0  0  0  0  0  0  0  0
   38.1150   27.8790   35.8190 N   0  0  0  0  0  0  0  0  0  0  0  0
   38.3230   24.0260   33.4060 H   0  0  0  0  0  0  0  0  0  0  0  0
   38.9240   28.5420   35.6170 H   0  0  0  0  0  0  0  0  0  0  0  0
   37.2550   28.3640   36.2030 H   0  0  0  0  0  0  0  0  0  0  0  0
   38.2280   22.2490   35.4720 C   0  0  0  0  0  0  0  0  0  0  0  0
   39.3060   21.7170   36.1430 F   0  0  0  0  0  0  0  0  0  0  0  0
   37.0680   21.7600   36.0420 F   0  0  0  0  0  0  0  0  0  0  0  0
   38.2720   21.7960   34.1650 F   0  0  0  0  0  0  0  0  0  0  0  0
   38.0600   23.7210   38.0120 C   0  0  0  0  0  0  0  0  0  0  0  0
   37.1320   23.3880   38.4480 H   0  0  0  0  0  0  0  0  0  0  0  0
   38.8630   23.3290   38.8690 O   0  0  0  0  0  0  0  0  0  0  0  0
  1  6  2  0  0  0  0
  1  2  1  0  0  0  0
  2  3  2  0  0  0  0
  3  4  1  0  0  0  0
  3 15  1  0  0  0  0
  5  7  1  0  0  0  0
  5  4  2  0  0  0  0
  6  5  1  0  0  0  0
  7 10  1  0  0  0  0
  8  1  1  0  0  0  0
  9  7  1  0  0  0  0
 11  2  1  0  0  0  0
 11 13  1  0  0  0  0
 11 12  1  0  0  0  0
 14 11  1  0  0  0  0
 15 16  1  0  0  0  0
 15 17  2  0  0  0  0
M  END
>  <minimizedAffinity>
-3.84208441

$$$$

 OpenBabel03272507563D

 17 17  0  0  0  0  0  0  0  0999 V2000
   40.9230   23.3030   35.3000 C   0  0  0  0  0  0  0  0  0  0  0  0
   39.7710   23.8270   35.9170 C   0  0  0  0  0  0  0  0  0  0  0  0
   39.3930   23.2840   37.1350 C   0  0  0  0  0  0  0  0  0  0  0  0
   40.1340   22.2800   37.6860 N   0  0  0  0  0  0  0  0  0  0  0  0
   41.2410   21.8040   37.0530 C   0  0  0  0  0  0  0  0  0  0  0  0
   41.6410   22.3090   35.8620 N   0  0  0  0  0  0  0  0  0  0  0  0
   41.8710   20.7650   37.7850 N   0  0  0  0  0  0  0  0  0  0  0  0
   41.2730   23.6830   34.3450 H   0  0  0  0  0  0  0  0  0  0  0  0
   41.9260   19.7500   37.4670 H   0  0  0  0  0  0  0  0  0  0  0  0
   42.3390   20.9420   38.7190 H   0  0  0  0  0  0  0  0  0  0  0  0
   39.0210   24.9220   35.2520 C   0  0  0  0  0  0  0  0  0  0  0  0
   38.9210   26.0350   36.0570 F   0  0  0  0  0  0  0  0  0  0  0  0
   39.6980   25.2710   34.0990 F   0  0  0  0  0  0  0  0  0  0  0  0
   37.7410   24.5450   34.8850 F   0  0  0  0  0  0  0  0  0  0  0  0
   38.2370   23.7470   37.8310 C   0  0  0  0  0  0  0  0  0  0  0  0
   37.2470   23.3760   37.6200 H   0  0  0  0  0  0  0  0  0  0  0  0
   37.9850   24.5600   38.7300 O   0  0  0  0  0  0  0  0  0  0  0  0
  1  6  2  0  0  0  0
  1  2  1  0  0  0  0
  2  3  2  0  0  0  0
  3  4  1  0  0  0  0
  3 15  1  0  0  0  0
  5  4  2  0  0  0  0
  5  7  1  0  0  0  0
  6  5  1  0  0  0  0
  7 10  1  0  0  0  0
  8  1  1  0  0  0  0
  9  7  1  0  0  0  0
 11  2  1  0  0  0  0
 11 12  1  0  0  0  0
 13 11  1  0  0  0  0
 14 11  1  0  0  0  0
 15 17  2  0  0  0  0
 16 15  1  0  0  0  0
M  END
>  <minimizedAffinity>
-3.77901769

$$$$

 OpenBabel03272507563D

 17 17  0  0  0  0  0  0  0  0999 V2000
   38.1190   24.3630   36.7870 C   0  0  0  0  0  0  0  0  0  0  0  0
   38.8630   24.9440   35.7420 C   0  0  0  0  0  0  0  0  0  0  0  0
   40.1170   24.4180   35.4770 C   0  0  0  0  0  0  0  0  0  0  0  0
   40.5820   23.3750   36.2230 N   0  0  0  0  0  0  0  0  0  0  0  0
   39.8300   22.8450   37.2250 C   0  0  0  0  0  0  0  0  0  0  0  0
   38.5990   23.3320   37.5130 N   0  0  0  0  0  0  0  0  0  0  0  0
   40.4870   21.7720   37.8800 N   0  0  0  0  0  0  0  0  0  0  0  0
   37.1300   24.7280   37.0460 H   0  0  0  0  0  0  0  0  0  0  0  0
   40.8240   21.7960   38.8900 H   0  0  0  0  0  0  0  0  0  0  0  0
   40.6890   20.8550   37.3880 H   0  0  0  0  0  0  0  0  0  0  0  0
   38.2820   26.0760   34.9760 C   0  0  0  0  0  0  0  0  0  0  0  0
   38.2870   25.8320   33.6210 F   0  0  0  0  0  0  0  0  0  0  0  0
   36.9750   26.2510   35.3870 F   0  0  0  0  0  0  0  0  0  0  0  0
   38.9510   27.2670   35.1970 F   0  0  0  0  0  0  0  0  0  0  0  0
   40.9440   24.9460   34.4420 C   0  0  0  0  0  0  0  0  0  0  0  0
   41.5890   25.7960   34.5930 H   0  0  0  0  0  0  0  0  0  0  0  0
   41.1820   24.6930   33.2530 O   0  0  0  0  0  0  0  0  0  0  0  0
  1  8  1  0  0  0  0
  1  6  1  0  0  0  0
  2  1  2  0  0  0  0
  3  2  1  0  0  0  0
  3  4  2  0  0  0  0
  4  5  1  0  0  0  0
  5  6  2  0  0  0  0
  5  7  1  0  0  0  0
  7  9  1  0  0  0  0
 10  7  1  0  0  0  0
 11 14  1  0  0  0  0
 11 13  1  0  0  0  0
 11  2  1  0  0  0  0
 12 11  1  0  0  0  0
 15 16  1  0  0  0  0
 15  3  1  0  0  0  0
 17 15  2  0  0  0  0
M  END
>  <minimizedAffinity>
-3.77284312

$$$$

 OpenBabel03272507563D

 17 17  0  0  0  0  0  0  0  0999 V2000
   38.1250   25.2520   36.5330 C   0  0  0  0  0  0  0  0  0  0  0  0
   38.8720   25.4810   35.3610 C   0  0  0  0  0  0  0  0  0  0  0  0
   39.0840   24.4050   34.5140 C   0  0  0  0  0  0  0  0  0  0  0  0
   38.5720   23.1830   34.8360 N   0  0  0  0  0  0  0  0  0  0  0  0
   37.8560   23.0060   35.9800 C   0  0  0  0  0  0  0  0  0  0  0  0
   37.6290   24.0340   36.8320 N   0  0  0  0  0  0  0  0  0  0  0  0
   37.4130   21.6670   36.1340 N   0  0  0  0  0  0  0  0  0  0  0  0
   37.9230   26.0520   37.2380 H   0  0  0  0  0  0  0  0  0  0  0  0
   37.7510   21.0030   36.8950 H   0  0  0  0  0  0  0  0  0  0  0  0
   36.6980   21.2360   35.4820 H   0  0  0  0  0  0  0  0  0  0  0  0
   39.3920   26.8440   35.0820 C   0  0  0  0  0  0  0  0  0  0  0  0
   38.9650   27.3140   33.8600 F   0  0  0  0  0  0  0  0  0  0  0  0
   38.9260   27.6940   36.0670 F   0  0  0  0  0  0  0  0  0  0  0  0
   40.7740   26.9010   35.1020 F   0  0  0  0  0  0  0  0  0  0  0  0
   39.8330   24.5410   33.3080 C   0  0  0  0  0  0  0  0  0  0  0  0
   39.3950   24.9070   32.3930 H   0  0  0  0  0  0  0  0  0  0  0  0
   40.9960   24.3410   32.9350 O   0  0  0  0  0  0  0  0  0  0  0  0
  1  6  1  0  0  0  0
  1  8  1  0  0  0  0
  2  1  2  0  0  0  0
  3  4  2  0  0  0  0
  3  2  1  0  0  0  0
  4  5  1  0  0  0  0
  5  7  1  0  0  0  0
  5  6  2  0  0  0  0
  7  9  1  0  0  0  0
 10  7  1  0  0  0  0
 11 14  1  0  0  0  0
 11  2  1  0  0  0  0
 11 13  1  0  0  0  0
 12 11  1  0  0  0  0
 15  3  1  0  0  0  0
 16 15  1  0  0  0  0
 17 15  2  0  0  0  0
M  END
>  <minimizedAffinity>
-3.76157546

$$$$

 OpenBabel03272507563D

 17 17  0  0  0  0  0  0  0  0999 V2000
   38.3920   22.9270   34.9500 C   0  0  0  0  0  0  0  0  0  0  0  0
   38.2250   24.3160   34.7820 C   0  0  0  0  0  0  0  0  0  0  0  0
   38.2420   25.1060   35.9210 C   0  0  0  0  0  0  0  0  0  0  0  0
   38.4180   24.5250   37.1420 N   0  0  0  0  0  0  0  0  0  0  0  0
   38.5750   23.1790   37.2580 C   0  0  0  0  0  0  0  0  0  0  0  0
   38.5640   22.3740   36.1680 N   0  0  0  0  0  0  0  0  0  0  0  0
   38.7420   22.7710   38.6060 N   0  0  0  0  0  0  0  0  0  0  0  0
   38.3880   22.2520   34.0990 H   0  0  0  0  0  0  0  0  0  0  0  0
   38.0420   22.1820   39.1510 H   0  0  0  0  0  0  0  0  0  0  0  0
   39.6000   23.0370   39.1690 H   0  0  0  0  0  0  0  0  0  0  0  0
   38.0420   24.8690   33.4160 C   0  0  0  0  0  0  0  0  0  0  0  0
   39.0640   25.7250   33.0710 F   0  0  0  0  0  0  0  0  0  0  0  0
   38.0280   23.8160   32.5220 F   0  0  0  0  0  0  0  0  0  0  0  0
   36.8470   25.5520   33.2740 F   0  0  0  0  0  0  0  0  0  0  0  0
   38.0750   26.5200   35.8490 C   0  0  0  0  0  0  0  0  0  0  0  0
   37.1050   26.9900   35.8550 H   0  0  0  0  0  0  0  0  0  0  0  0
   38.8050   27.5180   35.7700 O   0  0  0  0  0  0  0  0  0  0  0  0
  1  6  1  0  0  0  0
  2  1  2  0  0  0  0
  2  3  1  0  0  0  0
  3  4  2  0  0  0  0
  4  5  1  0  0  0  0
  5  7  1  0  0  0  0
  6  5  2  0  0  0  0
  7  9  1  0  0  0  0
  7 10  1  0  0  0  0
  8  1  1  0  0  0  0
 11  2  1  0  0  0  0
 12 11  1  0  0  0  0
 13 11  1  0  0  0  0
 14 11  1  0  0  0  0
 15 16  1  0  0  0  0
 15  3  1  0  0  0  0
 17 15  2  0  0  0  0
M  END
>  <minimizedAffinity>
-3.75199747

$$$$

 OpenBabel03272507563D

 17 17  0  0  0  0  0  0  0  0999 V2000
   38.4080   26.6090   32.4710 C   0  0  0  0  0  0  0  0  0  0  0  0
   37.6680   27.2130   33.5060 C   0  0  0  0  0  0  0  0  0  0  0  0
   36.6420   28.0720   33.1440 C   0  0  0  0  0  0  0  0  0  0  0  0
   36.3870   28.2980   31.8230 N   0  0  0  0  0  0  0  0  0  0  0  0
   37.1280   27.6930   30.8560 C   0  0  0  0  0  0  0  0  0  0  0  0
   38.1390   26.8480   31.1710 N   0  0  0  0  0  0  0  0  0  0  0  0
   36.7080   28.0570   29.5510 N   0  0  0  0  0  0  0  0  0  0  0  0
   39.2250   25.9270   32.6870 H   0  0  0  0  0  0  0  0  0  0  0  0
   37.2900   28.6300   28.8670 H   0  0  0  0  0  0  0  0  0  0  0  0
   35.7620   27.7720   29.1670 H   0  0  0  0  0  0  0  0  0  0  0  0
   38.0080   26.9110   34.9190 C   0  0  0  0  0  0  0  0  0  0  0  0
   38.2000   28.0590   35.6550 F   0  0  0  0  0  0  0  0  0  0  0  0
   36.9600   26.2020   35.4740 F   0  0  0  0  0  0  0  0  0  0  0  0
   39.1460   26.1330   35.0390 F   0  0  0  0  0  0  0  0  0  0  0  0
   35.8420   28.7330   34.1220 C   0  0  0  0  0  0  0  0  0  0  0  0
   35.0240   28.2450   34.6270 H   0  0  0  0  0  0  0  0  0  0  0  0
   35.7920   29.8540   34.6460 O   0  0  0  0  0  0  0  0  0  0  0  0
  1  8  1  0  0  0  0
  1  2  1  0  0  0  0
  2 11  1  0  0  0  0
  3  2  2  0  0  0  0
  3 15  1  0  0  0  0
  4  3  1  0  0  0  0
  5  6  1  0  0  0  0
  5  4  2  0  0  0  0
  6  1  2  0  0  0  0
  7  5  1  0  0  0  0
  9  7  1  0  0  0  0
 10  7  1  0  0  0  0
 11 14  1  0  0  0  0
 11 13  1  0  0  0  0
 11 12  1  0  0  0  0
 15 16  1  0  0  0  0
 15 17  2  0  0  0  0
M  END
>  <minimizedAffinity>
-3.6169498

$$$$
