
 OpenBabel03272501283D

 33 35  0  0  1  0  0  0  0  0999 V2000
   38.4790   24.8130   35.6780 C   0  0  0  0  0  0  0  0  0  0  0  0
   37.9500   24.4390   36.9110 C   0  0  0  0  0  0  0  0  0  0  0  0
   38.8070   23.4710   37.4470 C   0  0  0  0  0  0  0  0  0  0  0  0
   39.7920   23.3030   36.5440 N   0  0  0  0  0  0  0  0  0  0  0  0
   39.5730   24.1060   35.5120 N   0  0  0  0  0  0  0  0  0  0  0  0
   37.0380   24.8070   37.4050 H   0  0  0  0  0  0  0  0  0  0  0  0
   38.7130   22.9500   38.3970 H   0  0  0  0  0  0  0  0  0  0  0  0
   41.0890   21.6490   35.3860 N   0  0  0  0  0  0  0  0  0  0  0  0
   42.4650   21.1710   35.4600 C   0  0  0  0  0  0  0  0  0  0  0  0
   43.1890   22.0010   36.4850 C   0  0  0  0  0  0  0  0  0  0  0  0
   42.2170   23.1780   36.6670 C   0  0  0  0  0  0  0  0  0  0  0  0
   40.9110   22.4370   36.6010 C   0  0  1  0  0  0  0  0  0  0  0  0
   40.4000   20.8630   35.3710 H   0  0  0  0  0  0  0  0  0  0  0  0
   42.9380   21.4100   34.4730 H   0  0  0  0  0  0  0  0  0  0  0  0
   42.5070   20.0820   35.6850 H   0  0  0  0  0  0  0  0  0  0  0  0
   44.1510   22.3870   36.1210 H   0  0  0  0  0  0  0  0  0  0  0  0
   43.3650   21.4800   37.4360 H   0  0  0  0  0  0  0  0  0  0  0  0
   42.3520   23.9140   35.8650 H   0  0  0  0  0  0  0  0  0  0  0  0
   42.4370   23.6120   37.6620 H   0  0  0  0  0  0  0  0  0  0  0  0
   40.7870   21.5940   37.7620 N   0  0  0  0  0  0  0  0  0  0  0  0
   40.8290   22.2130   38.5990 H   0  0  0  0  0  0  0  0  0  0  0  0
   41.4490   20.8030   37.7830 H   0  0  0  0  0  0  0  0  0  0  0  0
   37.5010   27.0910   35.3110 C   0  0  0  0  0  0  0  0  0  0  0  0
   37.8300   25.8110   34.8450 C   0  0  0  0  0  0  0  0  0  0  0  0
   37.5090   25.5100   33.5220 C   0  0  0  0  0  0  0  0  0  0  0  0
   36.9030   26.4760   32.7790 N   0  0  0  0  0  0  0  0  0  0  0  0
   36.6020   27.6960   33.2600 C   0  0  0  0  0  0  0  0  0  0  0  0
   36.9070   28.0090   34.5500 N   0  0  0  0  0  0  0  0  0  0  0  0
   37.7500   27.3380   36.3510 H   0  0  0  0  0  0  0  0  0  0  0  0
   37.7210   24.5540   33.0710 H   0  0  0  0  0  0  0  0  0  0  0  0
   35.9510   28.6550   32.3760 C   0  0  0  0  0  0  0  0  0  0  0  0
   36.5130   29.2930   31.7100 H   0  0  0  0  0  0  0  0  0  0  0  0
   34.6950   28.7050   32.4270 O   0  0  0  0  0  0  0  0  0  0  0  0
  1  2  1  0  0  0  0
  2  6  1  0  0  0  0
  2  3  2  0  0  0  0
  3  7  1  0  0  0  0
  4 12  1  0  0  0  0
  4  3  1  0  0  0  0
  5  1  2  0  0  0  0
  5  4  1  0  0  0  0
  8  9  1  0  0  0  0
  8 12  1  0  0  0  0
  9 15  1  0  0  0  0
  9 10  1  0  0  0  0
 10 11  1  0  0  0  0
 10 17  1  0  0  0  0
 11 19  1  0  0  0  0
 12 11  1  0  0  0  0
 12 20  1  1  0  0  0
 13  8  1  0  0  0  0
 14  9  1  0  0  0  0
 16 10  1  0  0  0  0
 18 11  1  0  0  0  0
 20 22  1  0  0  0  0
 20 21  1  0  0  0  0
 23 29  1  0  0  0  0
 24 23  1  0  0  0  0
 24  1  1  0  0  0  0
 25 24  2  0  0  0  0
 26 27  2  0  0  0  0
 26 25  1  0  0  0  0
 27 28  1  0  0  0  0
 28 23  2  0  0  0  0
 30 25  1  0  0  0  0
 31 33  2  0  0  0  0
 31 27  1  0  0  0  0
 32 31  1  0  0  0  0
M  END
>  <minimizedAffinity>
-4.99502373

$$$$

 OpenBabel03272501283D

 33 35  0  0  1  0  0  0  0  0999 V2000
   37.5650   25.2560   33.3610 C   0  0  0  0  0  0  0  0  0  0  0  0
   37.8190   24.0770   32.6640 C   0  0  0  0  0  0  0  0  0  0  0  0
   38.1830   23.1130   33.6110 C   0  0  0  0  0  0  0  0  0  0  0  0
   38.1370   23.7280   34.8080 N   0  0  0  0  0  0  0  0  0  0  0  0
   37.7700   24.9900   34.6300 N   0  0  0  0  0  0  0  0  0  0  0  0
   37.7570   23.8940   31.5810 H   0  0  0  0  0  0  0  0  0  0  0  0
   38.4520   22.0730   33.4360 H   0  0  0  0  0  0  0  0  0  0  0  0
   39.8340   22.9240   36.3020 N   0  0  0  0  0  0  0  0  0  0  0  0
   39.9710   22.8050   37.7490 C   0  0  0  0  0  0  0  0  0  0  0  0
   38.7440   23.4040   38.3820 C   0  0  0  0  0  0  0  0  0  0  0  0
   38.1370   24.1760   37.1980 C   0  0  0  0  0  0  0  0  0  0  0  0
   38.4160   23.1990   36.0910 C   0  0  1  0  0  0  0  0  0  0  0  0
   40.0990   22.0410   35.8080 H   0  0  0  0  0  0  0  0  0  0  0  0
   40.8270   23.4640   38.0420 H   0  0  0  0  0  0  0  0  0  0  0  0
   40.1370   21.7490   38.0580 H   0  0  0  0  0  0  0  0  0  0  0  0
   38.9800   24.1140   39.1850 H   0  0  0  0  0  0  0  0  0  0  0  0
   38.0380   22.6610   38.7750 H   0  0  0  0  0  0  0  0  0  0  0  0
   38.6380   25.1440   37.0740 H   0  0  0  0  0  0  0  0  0  0  0  0
   37.0600   24.3000   37.4270 H   0  0  0  0  0  0  0  0  0  0  0  0
   37.6160   22.0180   36.2910 N   0  0  0  0  0  0  0  0  0  0  0  0
   36.6180   22.3180   36.2880 H   0  0  0  0  0  0  0  0  0  0  0  0
   37.8890   21.4550   37.1100 H   0  0  0  0  0  0  0  0  0  0  0  0
   37.1020   26.5700   31.2780 C   0  0  0  0  0  0  0  0  0  0  0  0
   37.1590   26.4700   32.6750 C   0  0  0  0  0  0  0  0  0  0  0  0
   36.8030   27.5990   33.4120 C   0  0  0  0  0  0  0  0  0  0  0  0
   36.4280   28.7140   32.7270 N   0  0  0  0  0  0  0  0  0  0  0  0
   36.3850   28.7750   31.3840 C   0  0  0  0  0  0  0  0  0  0  0  0
   36.7280   27.6820   30.6460 N   0  0  0  0  0  0  0  0  0  0  0  0
   37.3790   25.6870   30.6880 H   0  0  0  0  0  0  0  0  0  0  0  0
   36.8150   27.6220   34.4900 H   0  0  0  0  0  0  0  0  0  0  0  0
   35.9690   30.0210   30.7520 C   0  0  0  0  0  0  0  0  0  0  0  0
   36.5680   30.5080   29.9980 H   0  0  0  0  0  0  0  0  0  0  0  0
   34.8710   30.5050   31.1310 O   0  0  0  0  0  0  0  0  0  0  0  0
  1  5  2  0  0  0  0
  2  1  1  0  0  0  0
  2  3  2  0  0  0  0
  3  4  1  0  0  0  0
  4 12  1  0  0  0  0
  5  4  1  0  0  0  0
  6  2  1  0  0  0  0
  7  3  1  0  0  0  0
  8  9  1  0  0  0  0
  9 14  1  0  0  0  0
  9 15  1  0  0  0  0
  9 10  1  0  0  0  0
 10 17  1  0  0  0  0
 10 16  1  0  0  0  0
 11 19  1  0  0  0  0
 11 10  1  0  0  0  0
 12 20  1  1  0  0  0
 12  8  1  0  0  0  0
 12 11  1  0  0  0  0
 13  8  1  0  0  0  0
 18 11  1  0  0  0  0
 20 22  1  0  0  0  0
 21 20  1  0  0  0  0
 23 24  1  0  0  0  0
 24  1  1  0  0  0  0
 24 25  2  0  0  0  0
 25 30  1  0  0  0  0
 26 25  1  0  0  0  0
 27 26  2  0  0  0  0
 28 23  2  0  0  0  0
 28 27  1  0  0  0  0
 29 23  1  0  0  0  0
 31 33  2  0  0  0  0
 31 27  1  0  0  0  0
 32 31  1  0  0  0  0
M  END
>  <minimizedAffinity>
-4.89064789

$$$$

 OpenBabel03272501283D

 33 35  0  0  1  0  0  0  0  0999 V2000
   35.8370   29.4760   33.7890 C   0  0  0  0  0  0  0  0  0  0  0  0
   36.3680   28.2570   34.2030 C   0  0  0  0  0  0  0  0  0  0  0  0
   36.9110   27.6420   33.0690 C   0  0  0  0  0  0  0  0  0  0  0  0
   36.6940   28.4880   32.0440 N   0  0  0  0  0  0  0  0  0  0  0  0
   36.0590   29.5610   32.4980 N   0  0  0  0  0  0  0  0  0  0  0  0
   36.3800   27.8220   35.2140 H   0  0  0  0  0  0  0  0  0  0  0  0
   37.4110   26.6770   33.0080 H   0  0  0  0  0  0  0  0  0  0  0  0
   36.8430   29.5600   29.9020 N   0  0  0  0  0  0  0  0  0  0  0  0
   37.6310   29.3550   28.6930 C   0  0  0  0  0  0  0  0  0  0  0  0
   38.5920   28.2250   28.9510 C   0  0  0  0  0  0  0  0  0  0  0  0
   38.5170   28.1070   30.4810 C   0  0  0  0  0  0  0  0  0  0  0  0
   37.0470   28.3420   30.6810 C   0  0  1  0  0  0  0  0  0  0  0  0
   35.8250   29.6790   29.6930 H   0  0  0  0  0  0  0  0  0  0  0  0
   38.2560   30.2740   28.5600 H   0  0  0  0  0  0  0  0  0  0  0  0
   36.9800   29.1670   27.8100 H   0  0  0  0  0  0  0  0  0  0  0  0
   39.6230   28.4680   28.6630 H   0  0  0  0  0  0  0  0  0  0  0  0
   38.3110   27.2820   28.4650 H   0  0  0  0  0  0  0  0  0  0  0  0
   39.1580   28.8610   30.9560 H   0  0  0  0  0  0  0  0  0  0  0  0
   38.8450   27.0780   30.7300 H   0  0  0  0  0  0  0  0  0  0  0  0
   36.3110   27.2340   30.1270 N   0  0  0  0  0  0  0  0  0  0  0  0
   36.6270   26.3750   30.6240 H   0  0  0  0  0  0  0  0  0  0  0  0
   36.3520   27.1710   29.0990 H   0  0  0  0  0  0  0  0  0  0  0  0
   33.8010   30.5640   34.7660 C   0  0  0  0  0  0  0  0  0  0  0  0
   35.1900   30.3780   34.7260 C   0  0  0  0  0  0  0  0  0  0  0  0
   35.9580   31.1030   35.6370 C   0  0  0  0  0  0  0  0  0  0  0  0
   35.3100   31.9360   36.4960 N   0  0  0  0  0  0  0  0  0  0  0  0
   33.9730   32.0900   36.5060 C   0  0  0  0  0  0  0  0  0  0  0  0
   33.2050   31.3900   35.6240 N   0  0  0  0  0  0  0  0  0  0  0  0
   33.1870   29.9980   34.0540 H   0  0  0  0  0  0  0  0  0  0  0  0
   37.0330   31.0290   35.6850 H   0  0  0  0  0  0  0  0  0  0  0  0
   33.3820   33.0100   37.4700 C   0  0  0  0  0  0  0  0  0  0  0  0
   32.3560   32.9180   37.7940 H   0  0  0  0  0  0  0  0  0  0  0  0
   34.1290   33.9220   37.9080 O   0  0  0  0  0  0  0  0  0  0  0  0
  1  2  1  0  0  0  0
  1 24  1  0  0  0  0
  2  6  1  0  0  0  0
  3  2  2  0  0  0  0
  4  5  1  0  0  0  0
  4  3  1  0  0  0  0
  5  1  2  0  0  0  0
  7  3  1  0  0  0  0
  8 12  1  0  0  0  0
  9 10  1  0  0  0  0
  9  8  1  0  0  0  0
 10 11  1  0  0  0  0
 11 12  1  0  0  0  0
 11 19  1  0  0  0  0
 11 18  1  0  0  0  0
 12 20  1  6  0  0  0
 12  4  1  0  0  0  0
 13  8  1  0  0  0  0
 14  9  1  0  0  0  0
 15  9  1  0  0  0  0
 16 10  1  0  0  0  0
 17 10  1  0  0  0  0
 20 21  1  0  0  0  0
 22 20  1  0  0  0  0
 23 28  1  0  0  0  0
 24 23  2  0  0  0  0
 24 25  1  0  0  0  0
 25 30  1  0  0  0  0
 25 26  2  0  0  0  0
 26 27  1  0  0  0  0
 27 31  1  0  0  0  0
 28 27  2  0  0  0  0
 29 23  1  0  0  0  0
 31 32  1  0  0  0  0
 31 33  2  0  0  0  0
M  END
>  <minimizedAffinity>
-4.81391716

$$$$

 OpenBabel03272501283D

 33 35  0  0  1  0  0  0  0  0999 V2000
   37.2680   26.6840   34.2780 C   0  0  0  0  0  0  0  0  0  0  0  0
   37.1230   26.7930   32.8970 C   0  0  0  0  0  0  0  0  0  0  0  0
   36.4240   27.9810   32.6520 C   0  0  0  0  0  0  0  0  0  0  0  0
   36.1810   28.5280   33.8580 N   0  0  0  0  0  0  0  0  0  0  0  0
   36.6900   27.7420   34.7980 N   0  0  0  0  0  0  0  0  0  0  0  0
   37.4740   26.1040   32.1140 H   0  0  0  0  0  0  0  0  0  0  0  0
   36.1280   28.3940   31.6900 H   0  0  0  0  0  0  0  0  0  0  0  0
   34.1220   29.5230   34.5860 N   0  0  0  0  0  0  0  0  0  0  0  0
   33.7480   30.7680   35.2470 C   0  0  0  0  0  0  0  0  0  0  0  0
   35.0120   31.5210   35.5660 C   0  0  0  0  0  0  0  0  0  0  0  0
   36.0750   30.4270   35.3730 C   0  0  0  0  0  0  0  0  0  0  0  0
   35.5050   29.7320   34.1680 C   0  0  1  0  0  0  0  0  0  0  0  0
   33.5260   29.3280   33.7490 H   0  0  0  0  0  0  0  0  0  0  0  0
   33.2970   30.4830   36.2310 H   0  0  0  0  0  0  0  0  0  0  0  0
   33.0430   31.3630   34.6250 H   0  0  0  0  0  0  0  0  0  0  0  0
   35.0490   31.8730   36.6050 H   0  0  0  0  0  0  0  0  0  0  0  0
   35.1980   32.3780   34.9050 H   0  0  0  0  0  0  0  0  0  0  0  0
   36.1380   29.7920   36.2650 H   0  0  0  0  0  0  0  0  0  0  0  0
   37.0300   30.9530   35.1770 H   0  0  0  0  0  0  0  0  0  0  0  0
   35.5830   30.6150   33.0320 N   0  0  0  0  0  0  0  0  0  0  0  0
   36.5890   30.8490   32.8930 H   0  0  0  0  0  0  0  0  0  0  0  0
   34.9590   31.4330   33.0890 H   0  0  0  0  0  0  0  0  0  0  0  0
   37.9010   25.2790   36.2540 C   0  0  0  0  0  0  0  0  0  0  0  0
   37.9550   25.5560   34.8810 C   0  0  0  0  0  0  0  0  0  0  0  0
   38.7100   24.6940   34.0850 C   0  0  0  0  0  0  0  0  0  0  0  0
   39.3360   23.6500   34.6930 N   0  0  0  0  0  0  0  0  0  0  0  0
   39.2610   23.4150   36.0150 C   0  0  0  0  0  0  0  0  0  0  0  0
   38.5290   24.2450   36.8100 N   0  0  0  0  0  0  0  0  0  0  0  0
   37.3090   25.9510   36.8900 H   0  0  0  0  0  0  0  0  0  0  0  0
   38.8140   24.8230   33.0190 H   0  0  0  0  0  0  0  0  0  0  0  0
   39.9730   22.2660   36.5630 C   0  0  0  0  0  0  0  0  0  0  0  0
   40.1160   21.3590   35.9960 H   0  0  0  0  0  0  0  0  0  0  0  0
   40.4160   22.3840   37.7340 O   0  0  0  0  0  0  0  0  0  0  0  0
  1  5  2  0  0  0  0
  1 24  1  0  0  0  0
  2  1  1  0  0  0  0
  3  2  2  0  0  0  0
  3  4  1  0  0  0  0
  4 12  1  0  0  0  0
  4  5  1  0  0  0  0
  6  2  1  0  0  0  0
  7  3  1  0  0  0  0
  8  9  1  0  0  0  0
  9 10  1  0  0  0  0
  9 14  1  0  0  0  0
 10 16  1  0  0  0  0
 11 10  1  0  0  0  0
 11 18  1  0  0  0  0
 12 20  1  6  0  0  0
 12  8  1  0  0  0  0
 12 11  1  0  0  0  0
 13  8  1  0  0  0  0
 15  9  1  0  0  0  0
 17 10  1  0  0  0  0
 19 11  1  0  0  0  0
 20 22  1  0  0  0  0
 21 20  1  0  0  0  0
 23 28  1  0  0  0  0
 23 29  1  0  0  0  0
 24 23  2  0  0  0  0
 25 26  2  0  0  0  0
 25 24  1  0  0  0  0
 26 27  1  0  0  0  0
 27 31  1  0  0  0  0
 27 28  2  0  0  0  0
 30 25  1  0  0  0  0
 31 33  2  0  0  0  0
 32 31  1  0  0  0  0
M  END
>  <minimizedAffinity>
-4.61849833

$$$$

 OpenBabel03272501283D

 33 35  0  0  1  0  0  0  0  0999 V2000
   37.1580   27.2730   34.5060 C   0  0  0  0  0  0  0  0  0  0  0  0
   37.9100   27.7130   35.5930 C   0  0  0  0  0  0  0  0  0  0  0  0
   38.4640   26.5770   36.1940 C   0  0  0  0  0  0  0  0  0  0  0  0
   38.0390   25.5250   35.4680 N   0  0  0  0  0  0  0  0  0  0  0  0
   37.2710   25.9650   34.4800 N   0  0  0  0  0  0  0  0  0  0  0  0
   38.0650   28.7440   35.9460 H   0  0  0  0  0  0  0  0  0  0  0  0
   39.1090   26.5330   37.0690 H   0  0  0  0  0  0  0  0  0  0  0  0
   37.9940   23.3370   34.4840 N   0  0  0  0  0  0  0  0  0  0  0  0
   38.7140   22.0880   34.7000 C   0  0  0  0  0  0  0  0  0  0  0  0
   39.7500   22.3270   35.7640 C   0  0  0  0  0  0  0  0  0  0  0  0
   39.7790   23.8630   35.8200 C   0  0  0  0  0  0  0  0  0  0  0  0
   38.3130   24.1490   35.6540 C   0  0  1  0  0  0  0  0  0  0  0  0
   36.9600   23.1900   34.4280 H   0  0  0  0  0  0  0  0  0  0  0  0
   39.2770   21.8780   33.7550 H   0  0  0  0  0  0  0  0  0  0  0  0
   38.0200   21.2570   34.9600 H   0  0  0  0  0  0  0  0  0  0  0  0
   40.7470   21.9640   35.4800 H   0  0  0  0  0  0  0  0  0  0  0  0
   39.4930   21.8990   36.7410 H   0  0  0  0  0  0  0  0  0  0  0  0
   40.4050   24.2650   35.0130 H   0  0  0  0  0  0  0  0  0  0  0  0
   40.1790   24.1310   36.8180 H   0  0  0  0  0  0  0  0  0  0  0  0
   37.6080   23.6880   36.8230 N   0  0  0  0  0  0  0  0  0  0  0  0
   38.0020   24.1980   37.6410 H   0  0  0  0  0  0  0  0  0  0  0  0
   37.5870   22.6630   36.9280 H   0  0  0  0  0  0  0  0  0  0  0  0
   36.6270   28.2600   32.2650 C   0  0  0  0  0  0  0  0  0  0  0  0
   36.4410   28.2040   33.6530 C   0  0  0  0  0  0  0  0  0  0  0  0
   35.5210   29.0920   34.2110 C   0  0  0  0  0  0  0  0  0  0  0  0
   34.8720   29.9460   33.3740 N   0  0  0  0  0  0  0  0  0  0  0  0
   35.0760   29.9720   32.0440 C   0  0  0  0  0  0  0  0  0  0  0  0
   35.9700   29.1130   31.4800 N   0  0  0  0  0  0  0  0  0  0  0  0
   37.3480   27.5660   31.8150 H   0  0  0  0  0  0  0  0  0  0  0  0
   35.3090   29.1260   35.2680 H   0  0  0  0  0  0  0  0  0  0  0  0
   34.3260   30.9300   31.2410 C   0  0  0  0  0  0  0  0  0  0  0  0
   34.7890   31.4980   30.4490 H   0  0  0  0  0  0  0  0  0  0  0  0
   33.1060   31.0620   31.5160 O   0  0  0  0  0  0  0  0  0  0  0  0
  1  2  1  0  0  0  0
  2  6  1  0  0  0  0
  2  3  2  0  0  0  0
  3  7  1  0  0  0  0
  4 12  1  0  0  0  0
  4  3  1  0  0  0  0
  5  1  2  0  0  0  0
  5  4  1  0  0  0  0
  8  9  1  0  0  0  0
  8 12  1  0  0  0  0
  9 15  1  0  0  0  0
  9 10  1  0  0  0  0
 10 11  1  0  0  0  0
 10 17  1  0  0  0  0
 11 19  1  0  0  0  0
 12 11  1  0  0  0  0
 12 20  1  1  0  0  0
 13  8  1  0  0  0  0
 14  9  1  0  0  0  0
 16 10  1  0  0  0  0
 18 11  1  0  0  0  0
 20 22  1  0  0  0  0
 20 21  1  0  0  0  0
 23 24  1  0  0  0  0
 24 25  2  0  0  0  0
 24  1  1  0  0  0  0
 25 30  1  0  0  0  0
 26 25  1  0  0  0  0
 27 26  2  0  0  0  0
 28 27  1  0  0  0  0
 28 23  2  0  0  0  0
 29 23  1  0  0  0  0
 31 33  2  0  0  0  0
 31 27  1  0  0  0  0
 32 31  1  0  0  0  0
M  END
>  <minimizedAffinity>
-4.61546707

$$$$

 OpenBabel03272501283D

 33 35  0  0  1  0  0  0  0  0999 V2000
   38.5630   26.7580   32.9770 C   0  0  0  0  0  0  0  0  0  0  0  0
   39.7510   26.7060   32.2510 C   0  0  0  0  0  0  0  0  0  0  0  0
   39.5640   27.4890   31.1050 C   0  0  0  0  0  0  0  0  0  0  0  0
   38.3090   27.9700   31.1810 N   0  0  0  0  0  0  0  0  0  0  0  0
   37.7420   27.5230   32.2950 N   0  0  0  0  0  0  0  0  0  0  0  0
   40.6790   26.1670   32.4940 H   0  0  0  0  0  0  0  0  0  0  0  0
   40.2770   27.6810   30.3060 H   0  0  0  0  0  0  0  0  0  0  0  0
   36.9580   29.9370   30.9270 N   0  0  0  0  0  0  0  0  0  0  0  0
   36.6940   30.8810   29.8480 C   0  0  0  0  0  0  0  0  0  0  0  0
   37.5530   30.4960   28.6740 C   0  0  0  0  0  0  0  0  0  0  0  0
   38.5510   29.5300   29.3320 C   0  0  0  0  0  0  0  0  0  0  0  0
   37.6240   28.8150   30.2740 C   0  0  1  0  0  0  0  0  0  0  0  0
   36.0770   29.6060   31.3850 H   0  0  0  0  0  0  0  0  0  0  0  0
   37.0690   31.8770   30.1980 H   0  0  0  0  0  0  0  0  0  0  0  0
   35.6110   30.9140   29.5910 H   0  0  0  0  0  0  0  0  0  0  0  0
   38.1060   31.3460   28.2530 H   0  0  0  0  0  0  0  0  0  0  0  0
   37.0020   30.0060   27.8610 H   0  0  0  0  0  0  0  0  0  0  0  0
   39.3520   30.0870   29.8320 H   0  0  0  0  0  0  0  0  0  0  0  0
   38.9460   28.8890   28.5180 H   0  0  0  0  0  0  0  0  0  0  0  0
   36.6950   28.0210   29.5120 N   0  0  0  0  0  0  0  0  0  0  0  0
   37.2550   27.3470   28.9480 H   0  0  0  0  0  0  0  0  0  0  0  0
   36.0160   28.5730   28.9660 H   0  0  0  0  0  0  0  0  0  0  0  0
   38.2710   24.6560   34.3100 C   0  0  0  0  0  0  0  0  0  0  0  0
   38.4120   26.0490   34.2350 C   0  0  0  0  0  0  0  0  0  0  0  0
   38.4020   26.7580   35.4360 C   0  0  0  0  0  0  0  0  0  0  0  0
   38.2570   26.0520   36.5910 N   0  0  0  0  0  0  0  0  0  0  0  0
   38.1250   24.7130   36.6250 C   0  0  0  0  0  0  0  0  0  0  0  0
   38.1330   24.0030   35.4630 N   0  0  0  0  0  0  0  0  0  0  0  0
   38.2780   24.0880   33.3710 H   0  0  0  0  0  0  0  0  0  0  0  0
   38.5020   27.8300   35.4830 H   0  0  0  0  0  0  0  0  0  0  0  0
   37.9760   24.0580   37.9190 C   0  0  0  0  0  0  0  0  0  0  0  0
   37.8920   22.9860   38.0100 H   0  0  0  0  0  0  0  0  0  0  0  0
   37.9510   24.8060   38.9290 O   0  0  0  0  0  0  0  0  0  0  0  0
  1 24  1  0  0  0  0
  2  6  1  0  0  0  0
  2  1  1  0  0  0  0
  3  4  1  0  0  0  0
  3  2  2  0  0  0  0
  4  5  1  0  0  0  0
  5  1  2  0  0  0  0
  7  3  1  0  0  0  0
  8 13  1  0  0  0  0
  9 14  1  0  0  0  0
  9  8  1  0  0  0  0
 10 11  1  0  0  0  0
 10  9  1  0  0  0  0
 11 18  1  0  0  0  0
 11 12  1  0  0  0  0
 12 20  1  6  0  0  0
 12  8  1  0  0  0  0
 12  4  1  0  0  0  0
 15  9  1  0  0  0  0
 16 10  1  0  0  0  0
 17 10  1  0  0  0  0
 19 11  1  0  0  0  0
 21 20  1  0  0  0  0
 22 20  1  0  0  0  0
 23 28  1  0  0  0  0
 24 23  2  0  0  0  0
 24 25  1  0  0  0  0
 25 30  1  0  0  0  0
 25 26  2  0  0  0  0
 26 27  1  0  0  0  0
 27 31  1  0  0  0  0
 28 27  2  0  0  0  0
 29 23  1  0  0  0  0
 31 32  1  0  0  0  0
 31 33  2  0  0  0  0
M  END
>  <minimizedAffinity>
-4.61195469

$$$$

 OpenBabel03272501283D

 33 35  0  0  1  0  0  0  0  0999 V2000
   36.0150   28.3940   32.6010 C   0  0  0  0  0  0  0  0  0  0  0  0
   36.2830   29.3790   31.6530 C   0  0  0  0  0  0  0  0  0  0  0  0
   35.9710   30.6090   32.2440 C   0  0  0  0  0  0  0  0  0  0  0  0
   35.5410   30.3280   33.4880 N   0  0  0  0  0  0  0  0  0  0  0  0
   35.5780   29.0150   33.6720 N   0  0  0  0  0  0  0  0  0  0  0  0
   36.6650   29.2580   30.6280 H   0  0  0  0  0  0  0  0  0  0  0  0
   36.0530   31.6000   31.8030 H   0  0  0  0  0  0  0  0  0  0  0  0
   33.8260   30.8300   35.0910 N   0  0  0  0  0  0  0  0  0  0  0  0
   33.7610   31.5780   36.3400 C   0  0  0  0  0  0  0  0  0  0  0  0
   35.1470   32.0690   36.6600 C   0  0  0  0  0  0  0  0  0  0  0  0
   35.9990   31.2160   35.7050 C   0  0  0  0  0  0  0  0  0  0  0  0
   35.1020   31.2180   34.4990 C   0  0  1  0  0  0  0  0  0  0  0  0
   33.0450   31.0800   34.4410 H   0  0  0  0  0  0  0  0  0  0  0  0
   33.4980   30.8400   37.1400 H   0  0  0  0  0  0  0  0  0  0  0  0
   33.0190   32.4060   36.2820 H   0  0  0  0  0  0  0  0  0  0  0  0
   35.4490   31.8540   37.6930 H   0  0  0  0  0  0  0  0  0  0  0  0
   35.2940   33.1410   36.4740 H   0  0  0  0  0  0  0  0  0  0  0  0
   36.1710   30.2200   36.1310 H   0  0  0  0  0  0  0  0  0  0  0  0
   36.9490   31.7680   35.5590 H   0  0  0  0  0  0  0  0  0  0  0  0
   35.0470   32.5500   33.9540 N   0  0  0  0  0  0  0  0  0  0  0  0
   36.0200   32.8200   33.7010 H   0  0  0  0  0  0  0  0  0  0  0  0
   34.5560   33.2320   34.5520 H   0  0  0  0  0  0  0  0  0  0  0  0
   37.0860   26.1780   33.0750 C   0  0  0  0  0  0  0  0  0  0  0  0
   36.2320   26.9870   32.3140 C   0  0  0  0  0  0  0  0  0  0  0  0
   35.5740   26.3870   31.2400 C   0  0  0  0  0  0  0  0  0  0  0  0
   35.8060   25.0670   31.0070 N   0  0  0  0  0  0  0  0  0  0  0  0
   36.6340   24.3200   31.7610 C   0  0  0  0  0  0  0  0  0  0  0  0
   37.2860   24.8870   32.8140 N   0  0  0  0  0  0  0  0  0  0  0  0
   37.6090   26.6400   33.9230 H   0  0  0  0  0  0  0  0  0  0  0  0
   34.8970   26.9240   30.5940 H   0  0  0  0  0  0  0  0  0  0  0  0
   36.8100   22.9130   31.4220 C   0  0  0  0  0  0  0  0  0  0  0  0
   37.7580   22.4100   31.5420 H   0  0  0  0  0  0  0  0  0  0  0  0
   35.7990   22.3090   30.9820 O   0  0  0  0  0  0  0  0  0  0  0  0
  1  5  2  0  0  0  0
  2  3  2  0  0  0  0
  2  1  1  0  0  0  0
  3  4  1  0  0  0  0
  4  5  1  0  0  0  0
  4 12  1  0  0  0  0
  6  2  1  0  0  0  0
  7  3  1  0  0  0  0
  8  9  1  0  0  0  0
  9 10  1  0  0  0  0
  9 14  1  0  0  0  0
 10 16  1  0  0  0  0
 11 18  1  0  0  0  0
 11 10  1  0  0  0  0
 12 20  1  6  0  0  0
 12  8  1  0  0  0  0
 12 11  1  0  0  0  0
 13  8  1  0  0  0  0
 15  9  1  0  0  0  0
 17 10  1  0  0  0  0
 19 11  1  0  0  0  0
 20 22  1  0  0  0  0
 21 20  1  0  0  0  0
 23 29  1  0  0  0  0
 24  1  1  0  0  0  0
 24 23  2  0  0  0  0
 25 24  1  0  0  0  0
 26 25  2  0  0  0  0
 26 27  1  0  0  0  0
 27 28  2  0  0  0  0
 28 23  1  0  0  0  0
 30 25  1  0  0  0  0
 31 32  1  0  0  0  0
 31 27  1  0  0  0  0
 33 31  2  0  0  0  0
M  END
>  <minimizedAffinity>
-4.60972166

$$$$

 OpenBabel03272501283D

 33 35  0  0  1  0  0  0  0  0999 V2000
   38.0980   25.9910   34.6890 C   0  0  0  0  0  0  0  0  0  0  0  0
   37.5190   27.0660   35.3580 C   0  0  0  0  0  0  0  0  0  0  0  0
   36.9320   27.8840   34.3860 C   0  0  0  0  0  0  0  0  0  0  0  0
   37.1710   27.2890   33.2020 N   0  0  0  0  0  0  0  0  0  0  0  0
   37.8600   26.1750   33.4110 N   0  0  0  0  0  0  0  0  0  0  0  0
   37.5030   27.2720   36.4390 H   0  0  0  0  0  0  0  0  0  0  0  0
   36.3890   28.8150   34.5370 H   0  0  0  0  0  0  0  0  0  0  0  0
   36.2000   29.0420   31.8810 N   0  0  0  0  0  0  0  0  0  0  0  0
   36.2740   29.4500   30.4840 C   0  0  0  0  0  0  0  0  0  0  0  0
   37.2560   28.5460   29.7880 C   0  0  0  0  0  0  0  0  0  0  0  0
   37.9660   27.8910   30.9840 C   0  0  0  0  0  0  0  0  0  0  0  0
   36.7920   27.7080   31.9040 C   0  0  1  0  0  0  0  0  0  0  0  0
   35.2130   28.9950   32.2260 H   0  0  0  0  0  0  0  0  0  0  0  0
   36.7290   30.4730   30.4750 H   0  0  0  0  0  0  0  0  0  0  0  0
   35.2710   29.4400   30.0020 H   0  0  0  0  0  0  0  0  0  0  0  0
   37.9970   29.0980   29.1940 H   0  0  0  0  0  0  0  0  0  0  0  0
   36.7880   27.7930   29.1420 H   0  0  0  0  0  0  0  0  0  0  0  0
   38.7430   28.5560   31.3810 H   0  0  0  0  0  0  0  0  0  0  0  0
   38.3940   26.9400   30.6090 H   0  0  0  0  0  0  0  0  0  0  0  0
   35.9000   26.7260   31.3410 N   0  0  0  0  0  0  0  0  0  0  0  0
   36.4400   25.8420   31.2380 H   0  0  0  0  0  0  0  0  0  0  0  0
   35.4180   27.0350   30.4830 H   0  0  0  0  0  0  0  0  0  0  0  0
   40.0560   24.4600   35.0120 C   0  0  0  0  0  0  0  0  0  0  0  0
   38.7990   24.9400   35.4050 C   0  0  0  0  0  0  0  0  0  0  0  0
   38.2210   24.3650   36.5370 C   0  0  0  0  0  0  0  0  0  0  0  0
   38.9130   23.3840   37.1780 N   0  0  0  0  0  0  0  0  0  0  0  0
   40.1200   22.9480   36.7710 C   0  0  0  0  0  0  0  0  0  0  0  0
   40.7010   23.4960   35.6680 N   0  0  0  0  0  0  0  0  0  0  0  0
   40.5200   24.9050   34.1230 H   0  0  0  0  0  0  0  0  0  0  0  0
   37.2580   24.6650   36.9190 H   0  0  0  0  0  0  0  0  0  0  0  0
   40.7740   21.8900   37.5320 C   0  0  0  0  0  0  0  0  0  0  0  0
   40.2900   21.4010   38.3640 H   0  0  0  0  0  0  0  0  0  0  0  0
   41.9360   21.5720   37.1700 O   0  0  0  0  0  0  0  0  0  0  0  0
  1  2  1  0  0  0  0
  1 24  1  0  0  0  0
  2  6  1  0  0  0  0
  3  7  1  0  0  0  0
  3  2  2  0  0  0  0
  4  5  1  0  0  0  0
  4  3  1  0  0  0  0
  5  1  2  0  0  0  0
  8 12  1  0  0  0  0
  8 13  1  0  0  0  0
  9  8  1  0  0  0  0
 10  9  1  0  0  0  0
 10 11  1  0  0  0  0
 11 18  1  0  0  0  0
 11 12  1  0  0  0  0
 12 20  1  6  0  0  0
 12  4  1  0  0  0  0
 14  9  1  0  0  0  0
 15  9  1  0  0  0  0
 16 10  1  0  0  0  0
 17 10  1  0  0  0  0
 19 11  1  0  0  0  0
 21 20  1  0  0  0  0
 22 20  1  0  0  0  0
 23 24  2  0  0  0  0
 23 28  1  0  0  0  0
 24 25  1  0  0  0  0
 25 30  1  0  0  0  0
 25 26  2  0  0  0  0
 27 26  1  0  0  0  0
 27 31  1  0  0  0  0
 28 27  2  0  0  0  0
 29 23  1  0  0  0  0
 31 32  1  0  0  0  0
 33 31  2  0  0  0  0
M  END
>  <minimizedAffinity>
-4.60294247

$$$$

 OpenBabel03272501283D

 33 35  0  0  1  0  0  0  0  0999 V2000
   38.1960   25.7550   34.3440 C   0  0  0  0  0  0  0  0  0  0  0  0
   37.6800   26.0340   35.6080 C   0  0  0  0  0  0  0  0  0  0  0  0
   38.1210   25.0170   36.4630 C   0  0  0  0  0  0  0  0  0  0  0  0
   38.8640   24.1880   35.7060 N   0  0  0  0  0  0  0  0  0  0  0  0
   38.8910   24.6470   34.4620 N   0  0  0  0  0  0  0  0  0  0  0  0
   37.0460   26.8780   35.9180 H   0  0  0  0  0  0  0  0  0  0  0  0
   37.9150   24.9030   37.5250 H   0  0  0  0  0  0  0  0  0  0  0  0
   40.7140   22.7240   35.2660 N   0  0  0  0  0  0  0  0  0  0  0  0
   41.4810   21.7590   36.0450 C   0  0  0  0  0  0  0  0  0  0  0  0
   40.9690   21.7930   37.4600 C   0  0  0  0  0  0  0  0  0  0  0  0
   40.1500   23.0940   37.4560 C   0  0  0  0  0  0  0  0  0  0  0  0
   39.5390   23.0030   36.0860 C   0  0  1  0  0  0  0  0  0  0  0  0
   40.4150   22.3350   34.3420 H   0  0  0  0  0  0  0  0  0  0  0  0
   42.5320   22.1450   36.0830 H   0  0  0  0  0  0  0  0  0  0  0  0
   41.4310   20.7410   35.5980 H   0  0  0  0  0  0  0  0  0  0  0  0
   41.7720   21.8800   38.2030 H   0  0  0  0  0  0  0  0  0  0  0  0
   40.3430   20.9310   37.7280 H   0  0  0  0  0  0  0  0  0  0  0  0
   40.8080   23.9610   37.5930 H   0  0  0  0  0  0  0  0  0  0  0  0
   39.4170   23.0030   38.2810 H   0  0  0  0  0  0  0  0  0  0  0  0
   38.6050   21.9060   36.0580 N   0  0  0  0  0  0  0  0  0  0  0  0
   37.8820   22.0990   36.7820 H   0  0  0  0  0  0  0  0  0  0  0  0
   39.0430   20.9760   36.1290 H   0  0  0  0  0  0  0  0  0  0  0  0
   38.7240   26.6250   32.0540 C   0  0  0  0  0  0  0  0  0  0  0  0
   37.9290   26.6200   33.2090 C   0  0  0  0  0  0  0  0  0  0  0  0
   36.8430   27.4940   33.2400 C   0  0  0  0  0  0  0  0  0  0  0  0
   36.6310   28.2860   32.1540 N   0  0  0  0  0  0  0  0  0  0  0  0
   37.4160   28.2640   31.0610 C   0  0  0  0  0  0  0  0  0  0  0  0
   38.4810   27.4170   31.0110 N   0  0  0  0  0  0  0  0  0  0  0  0
   39.5810   25.9410   32.0190 H   0  0  0  0  0  0  0  0  0  0  0  0
   36.1730   27.5650   34.0830 H   0  0  0  0  0  0  0  0  0  0  0  0
   37.0970   29.1560   29.9530 C   0  0  0  0  0  0  0  0  0  0  0  0
   36.6230   30.1130   30.1070 H   0  0  0  0  0  0  0  0  0  0  0  0
   37.4040   28.7550   28.8010 O   0  0  0  0  0  0  0  0  0  0  0  0
  1  5  2  0  0  0  0
  1  2  1  0  0  0  0
  2  6  1  0  0  0  0
  2  3  2  0  0  0  0
  3  7  1  0  0  0  0
  4 12  1  0  0  0  0
  4  3  1  0  0  0  0
  5  4  1  0  0  0  0
  8  9  1  0  0  0  0
  8 12  1  0  0  0  0
  9 14  1  0  0  0  0
  9 10  1  0  0  0  0
 10 17  1  0  0  0  0
 10 16  1  0  0  0  0
 11 10  1  0  0  0  0
 11 18  1  0  0  0  0
 11 19  1  0  0  0  0
 12 20  1  6  0  0  0
 12 11  1  0  0  0  0
 13  8  1  0  0  0  0
 15  9  1  0  0  0  0
 20 22  1  0  0  0  0
 20 21  1  0  0  0  0
 23 24  1  0  0  0  0
 24 25  2  0  0  0  0
 24  1  1  0  0  0  0
 25 30  1  0  0  0  0
 26 25  1  0  0  0  0
 27 26  2  0  0  0  0
 28 27  1  0  0  0  0
 28 23  2  0  0  0  0
 29 23  1  0  0  0  0
 31 32  1  0  0  0  0
 31 27  1  0  0  0  0
 33 31  2  0  0  0  0
M  END
>  <minimizedAffinity>
-4.57029772

$$$$
