
 OpenBabel03272506103D

 38 40  0  0  0  0  0  0  0  0999 V2000
   37.3920   23.1080   32.5260 C   0  0  0  0  0  0  0  0  0  0  0  0
   38.1450   22.0860   31.8650 C   0  0  0  0  0  0  0  0  0  0  0  0
   39.2010   21.5280   33.1590 S   0  0  0  0  0  0  0  0  0  0  0  0
   38.5200   22.7210   34.4340 C   0  0  0  0  0  0  0  0  0  0  0  0
   37.7080   23.2810   33.7710 N   0  0  0  0  0  0  0  0  0  0  0  0
   38.8620   22.9280   35.8340 N   0  0  0  0  0  0  0  0  0  0  0  0
   40.2030   22.6250   36.2060 C   0  0  0  0  0  0  0  0  0  0  0  0
   40.4340   22.5410   37.6750 C   0  0  0  0  0  0  0  0  0  0  0  0
   39.1940   22.4940   38.4390 N   0  0  0  0  0  0  0  0  0  0  0  0
   38.4850   23.7100   38.0600 C   0  0  0  0  0  0  0  0  0  0  0  0
   37.8510   23.4120   36.7290 C   0  0  0  0  0  0  0  0  0  0  0  0
   38.0320   21.7900   30.8280 H   0  0  0  0  0  0  0  0  0  0  0  0
   40.8790   23.3600   35.7270 H   0  0  0  0  0  0  0  0  0  0  0  0
   40.4840   21.6280   35.7780 H   0  0  0  0  0  0  0  0  0  0  0  0
   41.1400   21.7240   37.9470 H   0  0  0  0  0  0  0  0  0  0  0  0
   40.9480   23.4800   37.9980 H   0  0  0  0  0  0  0  0  0  0  0  0
   38.6970   21.6280   38.0950 H   0  0  0  0  0  0  0  0  0  0  0  0
   37.7230   23.8970   38.8450 H   0  0  0  0  0  0  0  0  0  0  0  0
   39.2120   24.5310   37.9970 H   0  0  0  0  0  0  0  0  0  0  0  0
   37.0520   22.6440   36.8850 H   0  0  0  0  0  0  0  0  0  0  0  0
   37.3720   24.2840   36.2690 H   0  0  0  0  0  0  0  0  0  0  0  0
   36.3390   23.8740   31.7680 C   0  0  0  0  0  0  0  0  0  0  0  0
   35.8830   23.1950   30.9970 H   0  0  0  0  0  0  0  0  0  0  0  0
   35.5050   24.1450   32.4400 H   0  0  0  0  0  0  0  0  0  0  0  0
   36.8950   25.0760   31.1260 C   0  0  0  0  0  0  0  0  0  0  0  0
   37.9990   25.0270   31.0710 H   0  0  0  0  0  0  0  0  0  0  0  0
   36.4330   25.2310   30.1310 H   0  0  0  0  0  0  0  0  0  0  0  0
   35.4780   28.3310   32.1940 C   0  0  0  0  0  0  0  0  0  0  0  0
   36.0700   28.5250   33.4510 C   0  0  0  0  0  0  0  0  0  0  0  0
   36.9430   27.5360   33.9090 C   0  0  0  0  0  0  0  0  0  0  0  0
   37.1740   26.4500   33.1250 N   0  0  0  0  0  0  0  0  0  0  0  0
   36.5740   26.3170   31.9210 C   0  0  0  0  0  0  0  0  0  0  0  0
   35.7380   27.2440   31.4620 N   0  0  0  0  0  0  0  0  0  0  0  0
   34.7940   29.0800   31.8090 H   0  0  0  0  0  0  0  0  0  0  0  0
   35.8410   29.4210   34.0340 H   0  0  0  0  0  0  0  0  0  0  0  0
   37.5790   27.6990   35.2120 C   0  0  0  0  0  0  0  0  0  0  0  0
   37.4850   28.6470   35.7230 H   0  0  0  0  0  0  0  0  0  0  0  0
   38.2180   26.7690   35.7290 O   0  0  0  0  0  0  0  0  0  0  0  0
  1  5  1  0  0  0  0
  2  1  2  0  0  0  0
  2  3  1  0  0  0  0
  3  4  1  0  0  0  0
  4  6  1  0  0  0  0
  5  4  2  0  0  0  0
  6  7  1  0  0  0  0
  6 11  1  0  0  0  0
  7  8  1  0  0  0  0
  8 15  1  0  0  0  0
  8 16  1  0  0  0  0
  8  9  1  0  0  0  0
 10  9  1  0  0  0  0
 10 18  1  0  0  0  0
 11 20  1  0  0  0  0
 11 10  1  0  0  0  0
 12  2  1  0  0  0  0
 13  7  1  0  0  0  0
 14  7  1  0  0  0  0
 17  9  1  0  0  0  0
 19 10  1  0  0  0  0
 21 11  1  0  0  0  0
 22 24  1  0  0  0  0
 22  1  1  0  0  0  0
 23 22  1  0  0  0  0
 25 22  1  0  0  0  0
 25 32  1  0  0  0  0
 26 25  1  0  0  0  0
 27 25  1  0  0  0  0
 28 29  1  0  0  0  0
 29 30  2  0  0  0  0
 29 35  1  0  0  0  0
 30 36  1  0  0  0  0
 31 30  1  0  0  0  0
 32 31  2  0  0  0  0
 33 32  1  0  0  0  0
 33 28  2  0  0  0  0
 34 28  1  0  0  0  0
 36 37  1  0  0  0  0
 36 38  2  0  0  0  0
M  END
>  <minimizedAffinity>
-5.24642992

$$$$

 OpenBabel03272506103D

 38 40  0  0  0  0  0  0  0  0999 V2000
   37.5240   25.9820   33.4250 C   0  0  0  0  0  0  0  0  0  0  0  0
   37.9800   25.1470   32.3550 C   0  0  0  0  0  0  0  0  0  0  0  0
   38.7940   23.8560   33.2340 S   0  0  0  0  0  0  0  0  0  0  0  0
   38.4350   24.5750   34.9260 C   0  0  0  0  0  0  0  0  0  0  0  0
   37.8340   25.5490   34.6070 N   0  0  0  0  0  0  0  0  0  0  0  0
   38.7750   24.1050   36.2610 N   0  0  0  0  0  0  0  0  0  0  0  0
   39.9640   23.3280   36.3720 C   0  0  0  0  0  0  0  0  0  0  0  0
   40.1140   22.6050   37.6650 C   0  0  0  0  0  0  0  0  0  0  0  0
   38.8870   22.5940   38.4500 N   0  0  0  0  0  0  0  0  0  0  0  0
   38.5610   24.0020   38.6390 C   0  0  0  0  0  0  0  0  0  0  0  0
   37.9120   24.4440   37.3560 C   0  0  0  0  0  0  0  0  0  0  0  0
   37.8230   25.3320   31.2990 H   0  0  0  0  0  0  0  0  0  0  0  0
   40.8350   23.9810   36.1640 H   0  0  0  0  0  0  0  0  0  0  0  0
   39.9680   22.5500   35.5650 H   0  0  0  0  0  0  0  0  0  0  0  0
   40.5540   21.5900   37.5350 H   0  0  0  0  0  0  0  0  0  0  0  0
   40.8610   23.1600   38.2860 H   0  0  0  0  0  0  0  0  0  0  0  0
   38.1790   22.1070   37.8370 H   0  0  0  0  0  0  0  0  0  0  0  0
   37.8570   24.0580   39.4960 H   0  0  0  0  0  0  0  0  0  0  0  0
   39.4910   24.5500   38.8420 H   0  0  0  0  0  0  0  0  0  0  0  0
   36.9250   23.9240   37.2650 H   0  0  0  0  0  0  0  0  0  0  0  0
   37.7140   25.5210   37.3160 H   0  0  0  0  0  0  0  0  0  0  0  0
   36.7540   27.2400   33.1190 C   0  0  0  0  0  0  0  0  0  0  0  0
   37.2960   27.8080   32.3150 H   0  0  0  0  0  0  0  0  0  0  0  0
   35.7710   26.9890   32.6800 H   0  0  0  0  0  0  0  0  0  0  0  0
   36.5860   28.0800   34.3150 C   0  0  0  0  0  0  0  0  0  0  0  0
   36.2260   27.4860   35.1750 H   0  0  0  0  0  0  0  0  0  0  0  0
   37.5270   28.6190   34.5430 H   0  0  0  0  0  0  0  0  0  0  0  0
   33.7950   30.0650   32.8940 C   0  0  0  0  0  0  0  0  0  0  0  0
   33.7130   31.1530   33.7760 C   0  0  0  0  0  0  0  0  0  0  0  0
   34.6160   31.1860   34.8410 C   0  0  0  0  0  0  0  0  0  0  0  0
   35.5170   30.1760   34.9680 N   0  0  0  0  0  0  0  0  0  0  0  0
   35.5490   29.1520   34.0870 C   0  0  0  0  0  0  0  0  0  0  0  0
   34.7000   29.0970   33.0650 N   0  0  0  0  0  0  0  0  0  0  0  0
   33.1070   30.0090   32.0560 H   0  0  0  0  0  0  0  0  0  0  0  0
   32.9640   31.9330   33.6180 H   0  0  0  0  0  0  0  0  0  0  0  0
   34.5640   32.3000   35.7810 C   0  0  0  0  0  0  0  0  0  0  0  0
   34.0430   33.2020   35.4910 H   0  0  0  0  0  0  0  0  0  0  0  0
   35.1060   32.2190   36.8950 O   0  0  0  0  0  0  0  0  0  0  0  0
  1  5  1  0  0  0  0
  2  3  1  0  0  0  0
  2  1  2  0  0  0  0
  3  4  1  0  0  0  0
  4  6  1  0  0  0  0
  5  4  2  0  0  0  0
  6  7  1  0  0  0  0
  6 11  1  0  0  0  0
  7  8  1  0  0  0  0
  8 16  1  0  0  0  0
  8  9  1  0  0  0  0
  9 10  1  0  0  0  0
 10 19  1  0  0  0  0
 10 18  1  0  0  0  0
 11 10  1  0  0  0  0
 12  2  1  0  0  0  0
 13  7  1  0  0  0  0
 14  7  1  0  0  0  0
 15  8  1  0  0  0  0
 17  9  1  0  0  0  0
 20 11  1  0  0  0  0
 21 11  1  0  0  0  0
 22  1  1  0  0  0  0
 22 25  1  0  0  0  0
 23 22  1  0  0  0  0
 24 22  1  0  0  0  0
 25 27  1  0  0  0  0
 25 26  1  0  0  0  0
 28 33  2  0  0  0  0
 28 29  1  0  0  0  0
 29 30  2  0  0  0  0
 30 31  1  0  0  0  0
 30 36  1  0  0  0  0
 32 25  1  0  0  0  0
 32 31  2  0  0  0  0
 33 32  1  0  0  0  0
 34 28  1  0  0  0  0
 35 29  1  0  0  0  0
 36 38  2  0  0  0  0
 37 36  1  0  0  0  0
M  END
>  <minimizedAffinity>
-5.1429882

$$$$

 OpenBabel03272506103D

 38 40  0  0  0  0  0  0  0  0999 V2000
   36.7230   27.5300   34.0680 C   0  0  0  0  0  0  0  0  0  0  0  0
   36.7080   27.1830   32.6790 C   0  0  0  0  0  0  0  0  0  0  0  0
   37.4440   25.5840   32.7040 S   0  0  0  0  0  0  0  0  0  0  0  0
   37.6900   25.5590   34.5610 C   0  0  0  0  0  0  0  0  0  0  0  0
   37.2360   26.6220   34.8380 N   0  0  0  0  0  0  0  0  0  0  0  0
   38.2620   24.5500   35.4400 N   0  0  0  0  0  0  0  0  0  0  0  0
   39.2580   23.7070   34.8670 C   0  0  0  0  0  0  0  0  0  0  0  0
   39.5890   22.5010   35.6770 C   0  0  0  0  0  0  0  0  0  0  0  0
   38.6320   22.2610   36.7490 N   0  0  0  0  0  0  0  0  0  0  0  0
   38.6570   23.4830   37.5420 C   0  0  0  0  0  0  0  0  0  0  0  0
   37.8010   24.4700   36.7960 C   0  0  0  0  0  0  0  0  0  0  0  0
   36.3220   27.8030   31.8790 H   0  0  0  0  0  0  0  0  0  0  0  0
   40.1580   24.3160   34.6520 H   0  0  0  0  0  0  0  0  0  0  0  0
   38.8940   23.3380   33.8730 H   0  0  0  0  0  0  0  0  0  0  0  0
   39.7650   21.6010   35.0450 H   0  0  0  0  0  0  0  0  0  0  0  0
   40.5670   22.6860   36.1860 H   0  0  0  0  0  0  0  0  0  0  0  0
   37.7050   22.1310   36.2590 H   0  0  0  0  0  0  0  0  0  0  0  0
   38.2260   23.2330   38.5340 H   0  0  0  0  0  0  0  0  0  0  0  0
   39.6990   23.8220   37.6260 H   0  0  0  0  0  0  0  0  0  0  0  0
   36.7400   24.1150   36.8380 H   0  0  0  0  0  0  0  0  0  0  0  0
   37.8200   25.4780   37.2270 H   0  0  0  0  0  0  0  0  0  0  0  0
   36.1710   28.8580   34.5160 C   0  0  0  0  0  0  0  0  0  0  0  0
   35.5440   28.6960   35.4350 H   0  0  0  0  0  0  0  0  0  0  0  0
   36.9910   29.5230   34.8430 H   0  0  0  0  0  0  0  0  0  0  0  0
   35.3740   29.5010   33.4600 C   0  0  0  0  0  0  0  0  0  0  0  0
   35.6600   30.5620   33.3320 H   0  0  0  0  0  0  0  0  0  0  0  0
   35.4510   28.9290   32.5140 H   0  0  0  0  0  0  0  0  0  0  0  0
   31.6840   29.1820   33.2750 C   0  0  0  0  0  0  0  0  0  0  0  0
   31.2790   29.5590   34.5640 C   0  0  0  0  0  0  0  0  0  0  0  0
   32.2780   29.9150   35.4720 C   0  0  0  0  0  0  0  0  0  0  0  0
   33.5760   29.8800   35.0690 N   0  0  0  0  0  0  0  0  0  0  0  0
   33.9060   29.5080   33.8120 C   0  0  0  0  0  0  0  0  0  0  0  0
   32.9750   29.1640   32.9280 N   0  0  0  0  0  0  0  0  0  0  0  0
   30.9330   28.8990   32.5450 H   0  0  0  0  0  0  0  0  0  0  0  0
   30.2180   29.5650   34.8260 H   0  0  0  0  0  0  0  0  0  0  0  0
   31.8990   30.3130   36.8240 C   0  0  0  0  0  0  0  0  0  0  0  0
   30.9110   30.0620   37.1830 H   0  0  0  0  0  0  0  0  0  0  0  0
   32.6930   30.9300   37.5520 O   0  0  0  0  0  0  0  0  0  0  0  0
  1 22  1  0  0  0  0
  1  5  1  0  0  0  0
  2  3  1  0  0  0  0
  2  1  2  0  0  0  0
  3  4  1  0  0  0  0
  4  5  2  0  0  0  0
  4  6  1  0  0  0  0
  6 11  1  0  0  0  0
  7  6  1  0  0  0  0
  7  8  1  0  0  0  0
  8 16  1  0  0  0  0
  8  9  1  0  0  0  0
  9 10  1  0  0  0  0
 10 19  1  0  0  0  0
 10 18  1  0  0  0  0
 11 20  1  0  0  0  0
 11 21  1  0  0  0  0
 11 10  1  0  0  0  0
 12  2  1  0  0  0  0
 13  7  1  0  0  0  0
 14  7  1  0  0  0  0
 15  8  1  0  0  0  0
 17  9  1  0  0  0  0
 22 24  1  0  0  0  0
 22 23  1  0  0  0  0
 25 32  1  0  0  0  0
 25 22  1  0  0  0  0
 26 25  1  0  0  0  0
 27 25  1  0  0  0  0
 28 29  1  0  0  0  0
 29 35  1  0  0  0  0
 29 30  2  0  0  0  0
 30 36  1  0  0  0  0
 31 30  1  0  0  0  0
 32 31  2  0  0  0  0
 33 28  2  0  0  0  0
 33 32  1  0  0  0  0
 34 28  1  0  0  0  0
 36 37  1  0  0  0  0
 36 38  2  0  0  0  0
M  END
>  <minimizedAffinity>
-5.12179852

$$$$

 OpenBabel03272506103D

 38 40  0  0  0  0  0  0  0  0999 V2000
   36.3680   28.2600   33.4820 C   0  0  0  0  0  0  0  0  0  0  0  0
   35.5990   28.1790   32.2770 C   0  0  0  0  0  0  0  0  0  0  0  0
   34.3920   29.4340   32.5410 S   0  0  0  0  0  0  0  0  0  0  0  0
   35.0480   29.9230   34.2260 C   0  0  0  0  0  0  0  0  0  0  0  0
   35.9570   29.1640   34.3150 N   0  0  0  0  0  0  0  0  0  0  0  0
   34.6000   30.9330   35.1740 N   0  0  0  0  0  0  0  0  0  0  0  0
   33.2110   31.2490   35.1480 C   0  0  0  0  0  0  0  0  0  0  0  0
   32.8440   32.4880   35.8890 C   0  0  0  0  0  0  0  0  0  0  0  0
   34.0030   33.2940   36.2490 N   0  0  0  0  0  0  0  0  0  0  0  0
   34.8360   32.4010   37.0440 C   0  0  0  0  0  0  0  0  0  0  0  0
   35.5610   31.5320   36.0530 C   0  0  0  0  0  0  0  0  0  0  0  0
   35.7800   27.4930   31.4580 H   0  0  0  0  0  0  0  0  0  0  0  0
   32.6400   30.3710   35.5100 H   0  0  0  0  0  0  0  0  0  0  0  0
   32.8920   31.4030   34.0850 H   0  0  0  0  0  0  0  0  0  0  0  0
   32.0540   33.0750   35.3680 H   0  0  0  0  0  0  0  0  0  0  0  0
   32.3790   32.1840   36.8600 H   0  0  0  0  0  0  0  0  0  0  0  0
   34.4590   33.5380   35.3280 H   0  0  0  0  0  0  0  0  0  0  0  0
   35.5380   33.0410   37.6200 H   0  0  0  0  0  0  0  0  0  0  0  0
   34.1840   31.8160   37.7080 H   0  0  0  0  0  0  0  0  0  0  0  0
   36.2800   32.1740   35.4840 H   0  0  0  0  0  0  0  0  0  0  0  0
   36.1460   30.7310   36.5210 H   0  0  0  0  0  0  0  0  0  0  0  0
   37.5410   27.3380   33.6870 C   0  0  0  0  0  0  0  0  0  0  0  0
   37.3520   26.3820   33.1260 H   0  0  0  0  0  0  0  0  0  0  0  0
   38.4500   27.7660   33.2260 H   0  0  0  0  0  0  0  0  0  0  0  0
   37.7700   27.0560   35.1130 C   0  0  0  0  0  0  0  0  0  0  0  0
   38.7080   27.5230   35.4680 H   0  0  0  0  0  0  0  0  0  0  0  0
   36.8930   27.3690   35.7140 H   0  0  0  0  0  0  0  0  0  0  0  0
   38.1840   23.4060   34.6130 C   0  0  0  0  0  0  0  0  0  0  0  0
   38.1980   22.9170   35.9270 C   0  0  0  0  0  0  0  0  0  0  0  0
   38.0650   23.8470   36.9600 C   0  0  0  0  0  0  0  0  0  0  0  0
   37.9310   25.1620   36.6460 N   0  0  0  0  0  0  0  0  0  0  0  0
   37.9240   25.5760   35.3590 C   0  0  0  0  0  0  0  0  0  0  0  0
   38.0490   24.7110   34.3570 N   0  0  0  0  0  0  0  0  0  0  0  0
   38.2850   22.7100   33.7860 H   0  0  0  0  0  0  0  0  0  0  0  0
   38.3100   21.8460   36.1130 H   0  0  0  0  0  0  0  0  0  0  0  0
   38.0750   23.3780   38.3420 C   0  0  0  0  0  0  0  0  0  0  0  0
   37.2940   22.7070   38.6700 H   0  0  0  0  0  0  0  0  0  0  0  0
   38.9630   23.7420   39.1300 O   0  0  0  0  0  0  0  0  0  0  0  0
  1 22  1  0  0  0  0
  1  5  1  0  0  0  0
  2  3  1  0  0  0  0
  2  1  2  0  0  0  0
  3  4  1  0  0  0  0
  4  5  2  0  0  0  0
  4  6  1  0  0  0  0
  6 11  1  0  0  0  0
  7  6  1  0  0  0  0
  7 13  1  0  0  0  0
  7  8  1  0  0  0  0
  8  9  1  0  0  0  0
  8 16  1  0  0  0  0
  9 10  1  0  0  0  0
 10 18  1  0  0  0  0
 10 19  1  0  0  0  0
 11 21  1  0  0  0  0
 11 10  1  0  0  0  0
 12  2  1  0  0  0  0
 14  7  1  0  0  0  0
 15  8  1  0  0  0  0
 17  9  1  0  0  0  0
 20 11  1  0  0  0  0
 22 25  1  0  0  0  0
 23 22  1  0  0  0  0
 24 22  1  0  0  0  0
 25 32  1  0  0  0  0
 25 26  1  0  0  0  0
 25 27  1  0  0  0  0
 28 29  1  0  0  0  0
 29 35  1  0  0  0  0
 29 30  2  0  0  0  0
 30 36  1  0  0  0  0
 31 30  1  0  0  0  0
 32 31  2  0  0  0  0
 33 28  2  0  0  0  0
 33 32  1  0  0  0  0
 34 28  1  0  0  0  0
 36 37  1  0  0  0  0
 36 38  2  0  0  0  0
M  END
>  <minimizedAffinity>
-5.06503344

$$$$

 OpenBabel03272506103D

 38 40  0  0  0  0  0  0  0  0999 V2000
   37.6160   25.7860   33.0580 C   0  0  0  0  0  0  0  0  0  0  0  0
   37.3200   27.0790   33.5960 C   0  0  0  0  0  0  0  0  0  0  0  0
   37.6200   26.8260   35.3130 S   0  0  0  0  0  0  0  0  0  0  0  0
   38.1050   25.0270   35.1190 C   0  0  0  0  0  0  0  0  0  0  0  0
   37.9830   24.9120   33.9430 N   0  0  0  0  0  0  0  0  0  0  0  0
   38.5190   24.0340   36.0990 N   0  0  0  0  0  0  0  0  0  0  0  0
   38.0030   24.1970   37.4170 C   0  0  0  0  0  0  0  0  0  0  0  0
   38.6810   23.3700   38.4540 C   0  0  0  0  0  0  0  0  0  0  0  0
   39.9250   22.7780   37.9790 N   0  0  0  0  0  0  0  0  0  0  0  0
   39.5330   21.9920   36.8150 C   0  0  0  0  0  0  0  0  0  0  0  0
   39.3970   22.9780   35.6870 C   0  0  0  0  0  0  0  0  0  0  0  0
   36.9990   27.9410   33.0240 H   0  0  0  0  0  0  0  0  0  0  0  0
   36.9110   24.0120   37.3970 H   0  0  0  0  0  0  0  0  0  0  0  0
   38.1260   25.2670   37.7260 H   0  0  0  0  0  0  0  0  0  0  0  0
   38.8030   23.9160   39.4180 H   0  0  0  0  0  0  0  0  0  0  0  0
   38.0140   22.5070   38.6990 H   0  0  0  0  0  0  0  0  0  0  0  0
   40.5300   23.6000   37.7100 H   0  0  0  0  0  0  0  0  0  0  0  0
   40.3500   21.2640   36.6280 H   0  0  0  0  0  0  0  0  0  0  0  0
   38.5840   21.4880   37.0400 H   0  0  0  0  0  0  0  0  0  0  0  0
   40.4150   23.3740   35.4440 H   0  0  0  0  0  0  0  0  0  0  0  0
   38.9960   22.5350   34.7670 H   0  0  0  0  0  0  0  0  0  0  0  0
   37.4890   25.5420   31.5770 C   0  0  0  0  0  0  0  0  0  0  0  0
   37.4980   26.5320   31.0450 H   0  0  0  0  0  0  0  0  0  0  0  0
   38.3790   25.0060   31.1990 H   0  0  0  0  0  0  0  0  0  0  0  0
   36.2620   24.7980   31.2500 C   0  0  0  0  0  0  0  0  0  0  0  0
   35.4940   24.9270   32.0350 H   0  0  0  0  0  0  0  0  0  0  0  0
   35.8890   25.0890   30.2480 H   0  0  0  0  0  0  0  0  0  0  0  0
   37.8820   21.5160   30.6580 C   0  0  0  0  0  0  0  0  0  0  0  0
   36.8950   20.6090   31.0710 C   0  0  0  0  0  0  0  0  0  0  0  0
   35.6930   21.1390   31.5440 C   0  0  0  0  0  0  0  0  0  0  0  0
   35.5410   22.4890   31.5810 N   0  0  0  0  0  0  0  0  0  0  0  0
   36.5280   23.3150   31.1700 C   0  0  0  0  0  0  0  0  0  0  0  0
   37.6830   22.8360   30.7150 N   0  0  0  0  0  0  0  0  0  0  0  0
   38.8290   21.1370   30.2850 H   0  0  0  0  0  0  0  0  0  0  0  0
   37.0810   19.5330   31.0160 H   0  0  0  0  0  0  0  0  0  0  0  0
   34.6410   20.2290   31.9830 C   0  0  0  0  0  0  0  0  0  0  0  0
   33.6220   20.5860   32.0120 H   0  0  0  0  0  0  0  0  0  0  0  0
   34.9070   19.0630   32.3190 O   0  0  0  0  0  0  0  0  0  0  0  0
  1  2  2  0  0  0  0
  1  5  1  0  0  0  0
  2  3  1  0  0  0  0
  4  3  1  0  0  0  0
  4  6  1  0  0  0  0
  5  4  2  0  0  0  0
  6  7  1  0  0  0  0
  7 14  1  0  0  0  0
  7  8  1  0  0  0  0
  8 16  1  0  0  0  0
  8 15  1  0  0  0  0
  9  8  1  0  0  0  0
 10 19  1  0  0  0  0
 10  9  1  0  0  0  0
 11  6  1  0  0  0  0
 11 10  1  0  0  0  0
 12  2  1  0  0  0  0
 13  7  1  0  0  0  0
 17  9  1  0  0  0  0
 18 10  1  0  0  0  0
 20 11  1  0  0  0  0
 21 11  1  0  0  0  0
 22  1  1  0  0  0  0
 23 22  1  0  0  0  0
 24 22  1  0  0  0  0
 25 22  1  0  0  0  0
 25 26  1  0  0  0  0
 27 25  1  0  0  0  0
 28 33  2  0  0  0  0
 28 29  1  0  0  0  0
 29 30  2  0  0  0  0
 30 31  1  0  0  0  0
 30 36  1  0  0  0  0
 32 25  1  0  0  0  0
 32 31  2  0  0  0  0
 33 32  1  0  0  0  0
 34 28  1  0  0  0  0
 35 29  1  0  0  0  0
 36 37  1  0  0  0  0
 36 38  2  0  0  0  0
M  END
>  <minimizedAffinity>
-5.04699612

$$$$

 OpenBabel03272506103D

 38 40  0  0  0  0  0  0  0  0999 V2000
   37.6770   25.0200   32.9140 C   0  0  0  0  0  0  0  0  0  0  0  0
   38.2880   24.0530   32.0540 C   0  0  0  0  0  0  0  0  0  0  0  0
   39.0990   23.0070   33.2150 S   0  0  0  0  0  0  0  0  0  0  0  0
   38.5330   23.9780   34.7140 C   0  0  0  0  0  0  0  0  0  0  0  0
   37.9020   24.8280   34.1760 N   0  0  0  0  0  0  0  0  0  0  0  0
   38.7760   23.7770   36.1350 N   0  0  0  0  0  0  0  0  0  0  0  0
   39.9990   23.1330   36.4810 C   0  0  0  0  0  0  0  0  0  0  0  0
   40.0740   22.6610   37.8920 C   0  0  0  0  0  0  0  0  0  0  0  0
   38.7810   22.6850   38.5630 N   0  0  0  0  0  0  0  0  0  0  0  0
   38.3440   24.0720   38.4670 C   0  0  0  0  0  0  0  0  0  0  0  0
   37.7920   24.2280   37.0760 C   0  0  0  0  0  0  0  0  0  0  0  0
   38.2190   24.0380   30.9720 H   0  0  0  0  0  0  0  0  0  0  0  0
   40.8390   23.8100   36.2310 H   0  0  0  0  0  0  0  0  0  0  0  0
   40.1310   22.2290   35.8310 H   0  0  0  0  0  0  0  0  0  0  0  0
   40.5900   21.6790   37.9840 H   0  0  0  0  0  0  0  0  0  0  0  0
   40.7180   23.3760   38.4610 H   0  0  0  0  0  0  0  0  0  0  0  0
   38.1680   22.0410   37.9920 H   0  0  0  0  0  0  0  0  0  0  0  0
   37.5600   24.2170   39.2390 H   0  0  0  0  0  0  0  0  0  0  0  0
   39.2120   24.7220   38.6430 H   0  0  0  0  0  0  0  0  0  0  0  0
   36.8560   23.6210   37.0010 H   0  0  0  0  0  0  0  0  0  0  0  0
   37.5260   25.2620   36.8270 H   0  0  0  0  0  0  0  0  0  0  0  0
   36.8560   26.1370   32.3240 C   0  0  0  0  0  0  0  0  0  0  0  0
   36.7680   25.9740   31.2150 H   0  0  0  0  0  0  0  0  0  0  0  0
   35.8190   26.0930   32.7040 H   0  0  0  0  0  0  0  0  0  0  0  0
   37.4500   27.4550   32.6000 C   0  0  0  0  0  0  0  0  0  0  0  0
   37.5920   27.6110   33.6850 H   0  0  0  0  0  0  0  0  0  0  0  0
   38.3950   27.5790   32.0330 H   0  0  0  0  0  0  0  0  0  0  0  0
   36.0880   30.3900   30.7890 C   0  0  0  0  0  0  0  0  0  0  0  0
   34.8230   30.5500   31.3740 C   0  0  0  0  0  0  0  0  0  0  0  0
   34.4610   29.6490   32.3770 C   0  0  0  0  0  0  0  0  0  0  0  0
   35.3400   28.6750   32.7330 N   0  0  0  0  0  0  0  0  0  0  0  0
   36.5470   28.5690   32.1340 C   0  0  0  0  0  0  0  0  0  0  0  0
   36.9160   29.4140   31.1760 N   0  0  0  0  0  0  0  0  0  0  0  0
   36.4010   31.0730   30.0060 H   0  0  0  0  0  0  0  0  0  0  0  0
   34.1630   31.3540   31.0410 H   0  0  0  0  0  0  0  0  0  0  0  0
   33.1530   29.7810   33.0100 C   0  0  0  0  0  0  0  0  0  0  0  0
   33.0440   29.4900   34.0450 H   0  0  0  0  0  0  0  0  0  0  0  0
   32.1800   30.2200   32.3750 O   0  0  0  0  0  0  0  0  0  0  0  0
  1  5  1  0  0  0  0
  2  1  2  0  0  0  0
  2  3  1  0  0  0  0
  3  4  1  0  0  0  0
  4  6  1  0  0  0  0
  5  4  2  0  0  0  0
  6  7  1  0  0  0  0
  6 11  1  0  0  0  0
  7  8  1  0  0  0  0
  8 15  1  0  0  0  0
  8 16  1  0  0  0  0
  8  9  1  0  0  0  0
 10  9  1  0  0  0  0
 10 19  1  0  0  0  0
 10 18  1  0  0  0  0
 11 10  1  0  0  0  0
 12  2  1  0  0  0  0
 13  7  1  0  0  0  0
 14  7  1  0  0  0  0
 17  9  1  0  0  0  0
 20 11  1  0  0  0  0
 21 11  1  0  0  0  0
 22 25  1  0  0  0  0
 22 24  1  0  0  0  0
 22  1  1  0  0  0  0
 23 22  1  0  0  0  0
 25 26  1  0  0  0  0
 27 25  1  0  0  0  0
 28 33  2  0  0  0  0
 28 29  1  0  0  0  0
 29 30  2  0  0  0  0
 30 31  1  0  0  0  0
 30 36  1  0  0  0  0
 32 25  1  0  0  0  0
 32 31  2  0  0  0  0
 33 32  1  0  0  0  0
 34 28  1  0  0  0  0
 35 29  1  0  0  0  0
 36 37  1  0  0  0  0
 38 36  2  0  0  0  0
M  END
>  <minimizedAffinity>
-5.00684452

$$$$

 OpenBabel03272506103D

 38 40  0  0  0  0  0  0  0  0999 V2000
   37.0270   26.9900   34.4230 C   0  0  0  0  0  0  0  0  0  0  0  0
   37.1880   26.3650   33.1460 C   0  0  0  0  0  0  0  0  0  0  0  0
   38.0120   24.8710   33.5830 S   0  0  0  0  0  0  0  0  0  0  0  0
   38.0490   25.2500   35.4180 C   0  0  0  0  0  0  0  0  0  0  0  0
   37.5040   26.3060   35.4160 N   0  0  0  0  0  0  0  0  0  0  0  0
   38.5790   24.4940   36.5430 N   0  0  0  0  0  0  0  0  0  0  0  0
   39.6820   23.6360   36.2630 C   0  0  0  0  0  0  0  0  0  0  0  0
   39.9930   22.6550   37.3390 C   0  0  0  0  0  0  0  0  0  0  0  0
   38.9370   22.5630   38.3400 N   0  0  0  0  0  0  0  0  0  0  0  0
   38.8000   23.9200   38.8520 C   0  0  0  0  0  0  0  0  0  0  0  0
   37.9740   24.6570   37.8330 C   0  0  0  0  0  0  0  0  0  0  0  0
   36.8580   26.7720   32.1980 H   0  0  0  0  0  0  0  0  0  0  0  0
   40.5620   24.2600   36.0100 H   0  0  0  0  0  0  0  0  0  0  0  0
   39.4540   23.0420   35.3400 H   0  0  0  0  0  0  0  0  0  0  0  0
   40.2920   21.6620   36.9340 H   0  0  0  0  0  0  0  0  0  0  0  0
   40.8950   23.0210   37.8900 H   0  0  0  0  0  0  0  0  0  0  0  0
   38.0810   22.2590   37.8020 H   0  0  0  0  0  0  0  0  0  0  0  0
   38.2770   23.8450   39.8280 H   0  0  0  0  0  0  0  0  0  0  0  0
   39.8040   24.3530   38.9630 H   0  0  0  0  0  0  0  0  0  0  0  0
   36.9390   24.2330   37.8480 H   0  0  0  0  0  0  0  0  0  0  0  0
   37.8850   25.7300   38.0390 H   0  0  0  0  0  0  0  0  0  0  0  0
   36.3480   28.3320   34.5220 C   0  0  0  0  0  0  0  0  0  0  0  0
   35.4550   28.2350   35.1980 H   0  0  0  0  0  0  0  0  0  0  0  0
   37.0110   29.0590   35.0250 H   0  0  0  0  0  0  0  0  0  0  0  0
   35.9390   28.8340   33.2020 C   0  0  0  0  0  0  0  0  0  0  0  0
   36.6260   29.6230   32.8420 H   0  0  0  0  0  0  0  0  0  0  0  0
   35.8480   27.9970   32.4800 H   0  0  0  0  0  0  0  0  0  0  0  0
   32.6050   29.9690   34.3630 C   0  0  0  0  0  0  0  0  0  0  0  0
   32.1130   30.6630   33.2470 C   0  0  0  0  0  0  0  0  0  0  0  0
   32.9320   30.7290   32.1190 C   0  0  0  0  0  0  0  0  0  0  0  0
   34.1500   30.1250   32.1550 N   0  0  0  0  0  0  0  0  0  0  0  0
   34.5720   29.4700   33.2600 C   0  0  0  0  0  0  0  0  0  0  0  0
   33.8110   29.3930   34.3480 N   0  0  0  0  0  0  0  0  0  0  0  0
   31.9940   29.8990   35.2560 H   0  0  0  0  0  0  0  0  0  0  0  0
   31.1240   31.1270   33.2820 H   0  0  0  0  0  0  0  0  0  0  0  0
   32.4570   31.4410   30.9380 C   0  0  0  0  0  0  0  0  0  0  0  0
   33.1460   31.6220   30.1250 H   0  0  0  0  0  0  0  0  0  0  0  0
   31.2810   31.8340   30.8620 O   0  0  0  0  0  0  0  0  0  0  0  0
  1 22  1  0  0  0  0
  1  5  1  0  0  0  0
  2  3  1  0  0  0  0
  2  1  2  0  0  0  0
  3  4  1  0  0  0  0
  4  6  1  0  0  0  0
  5  4  2  0  0  0  0
  6 11  1  0  0  0  0
  7  6  1  0  0  0  0
  7  8  1  0  0  0  0
  8 16  1  0  0  0  0
  8  9  1  0  0  0  0
  9 10  1  0  0  0  0
 10 19  1  0  0  0  0
 10 18  1  0  0  0  0
 11 20  1  0  0  0  0
 11 21  1  0  0  0  0
 11 10  1  0  0  0  0
 12  2  1  0  0  0  0
 13  7  1  0  0  0  0
 14  7  1  0  0  0  0
 15  8  1  0  0  0  0
 17  9  1  0  0  0  0
 22 24  1  0  0  0  0
 22 23  1  0  0  0  0
 25 32  1  0  0  0  0
 25 22  1  0  0  0  0
 26 25  1  0  0  0  0
 27 25  1  0  0  0  0
 28 34  1  0  0  0  0
 29 35  1  0  0  0  0
 29 28  2  0  0  0  0
 30 31  2  0  0  0  0
 30 29  1  0  0  0  0
 31 32  1  0  0  0  0
 32 33  2  0  0  0  0
 33 28  1  0  0  0  0
 36 30  1  0  0  0  0
 37 36  1  0  0  0  0
 38 36  2  0  0  0  0
M  END
>  <minimizedAffinity>
-4.99891424

$$$$

 OpenBabel03272506103D

 38 40  0  0  0  0  0  0  0  0999 V2000
   37.2380   27.4540   34.1900 C   0  0  0  0  0  0  0  0  0  0  0  0
   37.1870   27.0520   32.8180 C   0  0  0  0  0  0  0  0  0  0  0  0
   35.9130   28.0920   32.1880 S   0  0  0  0  0  0  0  0  0  0  0  0
   35.5910   28.9440   33.8250 C   0  0  0  0  0  0  0  0  0  0  0  0
   36.3910   28.3860   34.5030 N   0  0  0  0  0  0  0  0  0  0  0  0
   34.6480   29.9900   34.1930 N   0  0  0  0  0  0  0  0  0  0  0  0
   33.4390   30.0410   33.4410 C   0  0  0  0  0  0  0  0  0  0  0  0
   32.6500   31.2910   33.6210 C   0  0  0  0  0  0  0  0  0  0  0  0
   33.4010   32.3400   34.2980 N   0  0  0  0  0  0  0  0  0  0  0  0
   33.7920   31.7450   35.5700 C   0  0  0  0  0  0  0  0  0  0  0  0
   34.9850   30.8810   35.2650 C   0  0  0  0  0  0  0  0  0  0  0  0
   37.8100   26.2920   32.3600 H   0  0  0  0  0  0  0  0  0  0  0  0
   32.8370   29.1400   33.6730 H   0  0  0  0  0  0  0  0  0  0  0  0
   33.6860   29.9690   32.3500 H   0  0  0  0  0  0  0  0  0  0  0  0
   32.1840   31.6390   32.6710 H   0  0  0  0  0  0  0  0  0  0  0  0
   31.7870   31.0610   34.2930 H   0  0  0  0  0  0  0  0  0  0  0  0
   34.2360   32.5180   33.6770 H   0  0  0  0  0  0  0  0  0  0  0  0
   34.0550   32.5820   36.2500 H   0  0  0  0  0  0  0  0  0  0  0  0
   32.9460   31.1600   35.9550 H   0  0  0  0  0  0  0  0  0  0  0  0
   35.8370   31.5480   34.9790 H   0  0  0  0  0  0  0  0  0  0  0  0
   35.3190   30.2810   36.1200 H   0  0  0  0  0  0  0  0  0  0  0  0
   38.2200   26.8030   35.1280 C   0  0  0  0  0  0  0  0  0  0  0  0
   39.2240   27.2890   34.9940 H   0  0  0  0  0  0  0  0  0  0  0  0
   37.9400   27.0080   36.1780 H   0  0  0  0  0  0  0  0  0  0  0  0
   38.3180   25.3540   34.8950 C   0  0  0  0  0  0  0  0  0  0  0  0
   37.3850   24.9540   34.4550 H   0  0  0  0  0  0  0  0  0  0  0  0
   39.2060   25.1220   34.2740 H   0  0  0  0  0  0  0  0  0  0  0  0
   37.9620   24.1460   38.3820 C   0  0  0  0  0  0  0  0  0  0  0  0
   38.9810   23.1870   38.4790 C   0  0  0  0  0  0  0  0  0  0  0  0
   39.7710   22.9720   37.3480 C   0  0  0  0  0  0  0  0  0  0  0  0
   39.5170   23.6930   36.2230 N   0  0  0  0  0  0  0  0  0  0  0  0
   38.5200   24.6050   36.1890 C   0  0  0  0  0  0  0  0  0  0  0  0
   37.7530   24.8280   37.2520 N   0  0  0  0  0  0  0  0  0  0  0  0
   37.3300   24.3370   39.2430 H   0  0  0  0  0  0  0  0  0  0  0  0
   39.1330   22.6400   39.4130 H   0  0  0  0  0  0  0  0  0  0  0  0
   40.8410   21.9820   37.4070 C   0  0  0  0  0  0  0  0  0  0  0  0
   40.6350   21.0180   37.8490 H   0  0  0  0  0  0  0  0  0  0  0  0
   41.9700   22.2390   36.9590 O   0  0  0  0  0  0  0  0  0  0  0  0
  1  5  1  0  0  0  0
  1 22  1  0  0  0  0
  2  1  2  0  0  0  0
  3  2  1  0  0  0  0
  3  4  1  0  0  0  0
  4  6  1  0  0  0  0
  4  5  2  0  0  0  0
  6 11  1  0  0  0  0
  7  8  1  0  0  0  0
  7 13  1  0  0  0  0
  7  6  1  0  0  0  0
  8 16  1  0  0  0  0
  8  9  1  0  0  0  0
  9 10  1  0  0  0  0
 10 19  1  0  0  0  0
 10 18  1  0  0  0  0
 11 10  1  0  0  0  0
 11 21  1  0  0  0  0
 12  2  1  0  0  0  0
 14  7  1  0  0  0  0
 15  8  1  0  0  0  0
 17  9  1  0  0  0  0
 20 11  1  0  0  0  0
 22 24  1  0  0  0  0
 23 22  1  0  0  0  0
 25 22  1  0  0  0  0
 25 32  1  0  0  0  0
 26 25  1  0  0  0  0
 27 25  1  0  0  0  0
 28 29  1  0  0  0  0
 28 34  1  0  0  0  0
 29 35  1  0  0  0  0
 30 36  1  0  0  0  0
 30 29  2  0  0  0  0
 31 30  1  0  0  0  0
 32 31  2  0  0  0  0
 32 33  1  0  0  0  0
 33 28  2  0  0  0  0
 36 37  1  0  0  0  0
 38 36  2  0  0  0  0
M  END
>  <minimizedAffinity>
-4.97180557

$$$$

 OpenBabel03272506103D

 38 40  0  0  0  0  0  0  0  0999 V2000
   36.8330   28.0930   33.0630 C   0  0  0  0  0  0  0  0  0  0  0  0
   35.8610   29.0480   32.6270 C   0  0  0  0  0  0  0  0  0  0  0  0
   36.2450   29.1900   30.9140 S   0  0  0  0  0  0  0  0  0  0  0  0
   37.6580   27.9610   30.9740 C   0  0  0  0  0  0  0  0  0  0  0  0
   37.6240   27.6720   32.1260 N   0  0  0  0  0  0  0  0  0  0  0  0
   38.5540   27.4780   29.9330 N   0  0  0  0  0  0  0  0  0  0  0  0
   38.8150   28.3770   28.8600 C   0  0  0  0  0  0  0  0  0  0  0  0
   39.4650   27.7530   27.6740 C   0  0  0  0  0  0  0  0  0  0  0  0
   39.4440   26.2970   27.7200 N   0  0  0  0  0  0  0  0  0  0  0  0
   40.1240   25.9610   28.9640 C   0  0  0  0  0  0  0  0  0  0  0  0
   39.1040   26.1590   30.0520 C   0  0  0  0  0  0  0  0  0  0  0  0
   35.1120   29.5170   33.2540 H   0  0  0  0  0  0  0  0  0  0  0  0
   39.4050   29.2310   29.2470 H   0  0  0  0  0  0  0  0  0  0  0  0
   37.8450   28.8120   28.5040 H   0  0  0  0  0  0  0  0  0  0  0  0
   39.0760   28.1610   26.7130 H   0  0  0  0  0  0  0  0  0  0  0  0
   40.5470   28.0360   27.6850 H   0  0  0  0  0  0  0  0  0  0  0  0
   38.4190   26.0430   27.7530 H   0  0  0  0  0  0  0  0  0  0  0  0
   40.4380   24.8980   28.8830 H   0  0  0  0  0  0  0  0  0  0  0  0
   40.9880   26.6300   29.0800 H   0  0  0  0  0  0  0  0  0  0  0  0
   38.3100   25.3800   29.9330 H   0  0  0  0  0  0  0  0  0  0  0  0
   39.5160   26.0470   31.0610 H   0  0  0  0  0  0  0  0  0  0  0  0
   36.8690   27.6640   34.5070 C   0  0  0  0  0  0  0  0  0  0  0  0
   36.5720   28.5360   35.1500 H   0  0  0  0  0  0  0  0  0  0  0  0
   36.1000   26.8930   34.6960 H   0  0  0  0  0  0  0  0  0  0  0  0
   38.2000   27.1710   34.8960 C   0  0  0  0  0  0  0  0  0  0  0  0
   38.9310   27.3000   34.0760 H   0  0  0  0  0  0  0  0  0  0  0  0
   38.5330   27.6590   35.8340 H   0  0  0  0  0  0  0  0  0  0  0  0
   38.2170   23.4810   34.5320 C   0  0  0  0  0  0  0  0  0  0  0  0
   38.1010   23.0420   35.8590 C   0  0  0  0  0  0  0  0  0  0  0  0
   38.0200   24.0190   36.8530 C   0  0  0  0  0  0  0  0  0  0  0  0
   38.0560   25.3290   36.4920 N   0  0  0  0  0  0  0  0  0  0  0  0
   38.1690   25.6930   35.1950 C   0  0  0  0  0  0  0  0  0  0  0  0
   38.2490   24.7830   34.2290 N   0  0  0  0  0  0  0  0  0  0  0  0
   38.2830   22.7480   33.7340 H   0  0  0  0  0  0  0  0  0  0  0  0
   38.0790   21.9730   36.0830 H   0  0  0  0  0  0  0  0  0  0  0  0
   37.8980   23.6040   38.2470 C   0  0  0  0  0  0  0  0  0  0  0  0
   36.9220   23.3400   38.6290 H   0  0  0  0  0  0  0  0  0  0  0  0
   38.8960   23.5530   38.9840 O   0  0  0  0  0  0  0  0  0  0  0  0
  1 22  1  0  0  0  0
  2  1  2  0  0  0  0
  2 12  1  0  0  0  0
  3  4  1  0  0  0  0
  3  2  1  0  0  0  0
  4  5  2  0  0  0  0
  5  1  1  0  0  0  0
  6 11  1  0  0  0  0
  6  4  1  0  0  0  0
  7 13  1  0  0  0  0
  7  6  1  0  0  0  0
  8 16  1  0  0  0  0
  8  9  1  0  0  0  0
  8  7  1  0  0  0  0
  9 17  1  0  0  0  0
  9 10  1  0  0  0  0
 10 19  1  0  0  0  0
 10 11  1  0  0  0  0
 11 21  1  0  0  0  0
 14  7  1  0  0  0  0
 15  8  1  0  0  0  0
 18 10  1  0  0  0  0
 20 11  1  0  0  0  0
 22 24  1  0  0  0  0
 22 25  1  0  0  0  0
 22 23  1  0  0  0  0
 25 32  1  0  0  0  0
 25 27  1  0  0  0  0
 26 25  1  0  0  0  0
 28 29  1  0  0  0  0
 29 35  1  0  0  0  0
 29 30  2  0  0  0  0
 30 36  1  0  0  0  0
 31 30  1  0  0  0  0
 32 31  2  0  0  0  0
 33 28  2  0  0  0  0
 33 32  1  0  0  0  0
 34 28  1  0  0  0  0
 36 37  1  0  0  0  0
 36 38  2  0  0  0  0
M  END
>  <minimizedAffinity>
-4.97139883

$$$$
