
 OpenBabel03272507253D

 27 28  0  0  1  0  0  0  0  0999 V2000
   40.6560   27.1300   33.4920 C   0  0  0  0  0  0  0  0  0  0  0  0
   39.7270   26.4480   34.3100 C   0  0  0  0  0  0  0  0  0  0  0  0
   40.2020   25.3740   35.0780 C   0  0  0  0  0  0  0  0  0  0  0  0
   41.5090   25.0530   34.9960 N   0  0  0  0  0  0  0  0  0  0  0  0
   42.3780   25.7290   34.1990 C   0  0  0  0  0  0  0  0  0  0  0  0
   41.9420   26.7590   33.4560 N   0  0  0  0  0  0  0  0  0  0  0  0
   39.3370   24.6480   35.9130 N   0  0  0  0  0  0  0  0  0  0  0  0
   38.1370   25.2030   36.5480 C   0  0  0  0  0  0  0  0  0  0  0  0
   37.6400   24.1530   37.5020 C   0  0  0  0  0  0  0  0  0  0  0  0
   38.8650   23.3310   37.7230 C   0  0  0  0  0  0  0  0  0  0  0  0
   39.4150   23.2810   36.3100 C   0  0  2  0  0  0  0  0  0  0  0  0
   40.3310   27.9650   32.8820 H   0  0  0  0  0  0  0  0  0  0  0  0
   38.6920   26.7390   34.3440 H   0  0  0  0  0  0  0  0  0  0  0  0
   43.3850   25.3250   34.2660 H   0  0  0  0  0  0  0  0  0  0  0  0
   38.3700   26.1780   37.0370 H   0  0  0  0  0  0  0  0  0  0  0  0
   37.3550   25.3330   35.7680 H   0  0  0  0  0  0  0  0  0  0  0  0
   37.4100   24.6700   38.4760 H   0  0  0  0  0  0  0  0  0  0  0  0
   36.7860   23.5720   37.1590 H   0  0  0  0  0  0  0  0  0  0  0  0
   39.5900   23.7570   38.4090 H   0  0  0  0  0  0  0  0  0  0  0  0
   38.6150   22.2640   37.9980 H   0  0  0  0  0  0  0  0  0  0  0  0
   40.7320   22.6080   36.2450 C   0  0  0  0  0  0  0  0  0  0  0  0
   40.6050   21.4120   36.9380 F   0  0  0  0  0  0  0  0  0  0  0  0
   41.7730   23.2790   36.8150 F   0  0  0  0  0  0  0  0  0  0  0  0
   40.9390   22.2580   34.9240 F   0  0  0  0  0  0  0  0  0  0  0  0
   38.4810   22.5280   35.4160 C   0  0  0  0  0  3  0  0  0  0  0  0
   37.7790   21.8870   34.9050 H   0  0  0  0  0  0  0  0  0  0  0  0
   37.9920   21.6140   36.0590 O   0  0  0  0  0  1  0  0  0  0  0  0
  1  2  1  0  0  0  0
  2 13  1  0  0  0  0
  2  3  2  0  0  0  0
  3  7  1  0  0  0  0
  4  3  1  0  0  0  0
  5 14  1  0  0  0  0
  5  4  2  0  0  0  0
  6  1  2  0  0  0  0
  6  5  1  0  0  0  0
  7 11  1  0  0  0  0
  7  8  1  0  0  0  0
  8 15  1  0  0  0  0
  8  9  1  0  0  0  0
  9 10  1  0  0  0  0
  9 17  1  0  0  0  0
 10 20  1  0  0  0  0
 10 19  1  0  0  0  0
 11 25  1  6  0  0  0
 11 10  1  0  0  0  0
 12  1  1  0  0  0  0
 16  8  1  0  0  0  0
 18  9  1  0  0  0  0
 21 11  1  0  0  0  0
 21 23  1  0  0  0  0
 21 22  1  0  0  0  0
 24 21  1  0  0  0  0
 25 27  1  0  0  0  0
 26 25  1  0  0  0  0
M  END
>  <minimizedAffinity>
-4.46248484

$$$$

 OpenBabel03272507253D

 27 28  0  0  1  0  0  0  0  0999 V2000
   42.5980   21.7980   36.0830 C   0  0  0  0  0  0  0  0  0  0  0  0
   42.2510   22.9910   35.4100 C   0  0  0  0  0  0  0  0  0  0  0  0
   41.0680   23.6380   35.8010 C   0  0  0  0  0  0  0  0  0  0  0  0
   40.3320   23.0910   36.7890 N   0  0  0  0  0  0  0  0  0  0  0  0
   40.6930   21.9410   37.4170 C   0  0  0  0  0  0  0  0  0  0  0  0
   41.8210   21.3080   37.0570 N   0  0  0  0  0  0  0  0  0  0  0  0
   40.6590   24.8270   35.1750 N   0  0  0  0  0  0  0  0  0  0  0  0
   41.5720   25.8080   34.5780 C   0  0  0  0  0  0  0  0  0  0  0  0
   40.7330   27.0010   34.2170 C   0  0  0  0  0  0  0  0  0  0  0  0
   39.5460   26.8250   35.1050 C   0  0  0  0  0  0  0  0  0  0  0  0
   39.3380   25.3270   34.9820 C   0  0  2  0  0  0  0  0  0  0  0  0
   43.5030   21.2660   35.8130 H   0  0  0  0  0  0  0  0  0  0  0  0
   42.8700   23.3910   34.6270 H   0  0  0  0  0  0  0  0  0  0  0  0
   39.9770   21.6580   38.1830 H   0  0  0  0  0  0  0  0  0  0  0  0
   42.4060   26.0420   35.2800 H   0  0  0  0  0  0  0  0  0  0  0  0
   41.9670   25.3870   33.6270 H   0  0  0  0  0  0  0  0  0  0  0  0
   41.2820   27.9160   34.5790 H   0  0  0  0  0  0  0  0  0  0  0  0
   40.4740   27.0940   33.1640 H   0  0  0  0  0  0  0  0  0  0  0  0
   39.6960   27.1150   36.1400 H   0  0  0  0  0  0  0  0  0  0  0  0
   38.6200   27.3050   34.6730 H   0  0  0  0  0  0  0  0  0  0  0  0
   38.2660   24.8350   35.8770 C   0  0  0  0  0  0  0  0  0  0  0  0
   37.1780   25.6780   35.7000 F   0  0  0  0  0  0  0  0  0  0  0  0
   38.5520   24.8440   37.2100 F   0  0  0  0  0  0  0  0  0  0  0  0
   37.8720   23.6030   35.3910 F   0  0  0  0  0  0  0  0  0  0  0  0
   38.9530   24.9700   33.5810 C   0  0  0  0  0  3  0  0  0  0  0  0
   38.5700   24.8420   32.5800 H   0  0  0  0  0  0  0  0  0  0  0  0
   38.1060   25.7630   33.2040 O   0  0  0  0  0  1  0  0  0  0  0  0
  1  6  1  0  0  0  0
  2  3  1  0  0  0  0
  2  1  2  0  0  0  0
  3  4  2  0  0  0  0
  4  5  1  0  0  0  0
  5 14  1  0  0  0  0
  6  5  2  0  0  0  0
  7  3  1  0  0  0  0
  8  7  1  0  0  0  0
  8 15  1  0  0  0  0
  9  8  1  0  0  0  0
  9 17  1  0  0  0  0
  9 10  1  0  0  0  0
 10 19  1  0  0  0  0
 11 25  1  6  0  0  0
 11 10  1  0  0  0  0
 11  7  1  0  0  0  0
 11 21  1  0  0  0  0
 12  1  1  0  0  0  0
 13  2  1  0  0  0  0
 16  8  1  0  0  0  0
 18  9  1  0  0  0  0
 20 10  1  0  0  0  0
 21 23  1  0  0  0  0
 22 21  1  0  0  0  0
 24 21  1  0  0  0  0
 26 25  1  0  0  0  0
 27 25  1  0  0  0  0
M  END
>  <minimizedAffinity>
-4.30209446

$$$$

 OpenBabel03272507253D

 27 28  0  0  1  0  0  0  0  0999 V2000
   36.6280   23.4860   31.0460 C   0  0  0  0  0  0  0  0  0  0  0  0
   37.3850   23.4520   32.2390 C   0  0  0  0  0  0  0  0  0  0  0  0
   37.3580   24.5900   33.0590 C   0  0  0  0  0  0  0  0  0  0  0  0
   36.6170   25.6460   32.6690 N   0  0  0  0  0  0  0  0  0  0  0  0
   35.8990   25.6480   31.5150 C   0  0  0  0  0  0  0  0  0  0  0  0
   35.9130   24.5680   30.7170 N   0  0  0  0  0  0  0  0  0  0  0  0
   38.0870   24.6290   34.2590 N   0  0  0  0  0  0  0  0  0  0  0  0
   38.4080   23.4540   35.0750 C   0  0  0  0  0  0  0  0  0  0  0  0
   39.0070   23.9750   36.3510 C   0  0  0  0  0  0  0  0  0  0  0  0
   38.4960   25.3770   36.3830 C   0  0  0  0  0  0  0  0  0  0  0  0
   38.6570   25.7550   34.9220 C   0  0  2  0  0  0  0  0  0  0  0  0
   36.6210   22.6270   30.3840 H   0  0  0  0  0  0  0  0  0  0  0  0
   37.9620   22.5860   32.5110 H   0  0  0  0  0  0  0  0  0  0  0  0
   35.3680   26.5850   31.3710 H   0  0  0  0  0  0  0  0  0  0  0  0
   37.4980   22.8280   35.2300 H   0  0  0  0  0  0  0  0  0  0  0  0
   39.2000   22.8710   34.5560 H   0  0  0  0  0  0  0  0  0  0  0  0
   38.5120   23.4250   37.2000 H   0  0  0  0  0  0  0  0  0  0  0  0
   40.0910   23.9090   36.4230 H   0  0  0  0  0  0  0  0  0  0  0  0
   37.4640   25.4850   36.7030 H   0  0  0  0  0  0  0  0  0  0  0  0
   39.1810   26.0640   36.9610 H   0  0  0  0  0  0  0  0  0  0  0  0
   38.1020   27.0960   34.6270 C   0  0  0  0  0  0  0  0  0  0  0  0
   38.5910   27.9550   35.6010 F   0  0  0  0  0  0  0  0  0  0  0  0
   36.7430   27.2000   34.6640 F   0  0  0  0  0  0  0  0  0  0  0  0
   38.6700   27.5120   33.4370 F   0  0  0  0  0  0  0  0  0  0  0  0
   40.1060   25.7760   34.5490 C   0  0  0  0  0  3  0  0  0  0  0  0
   41.1680   25.9020   34.4040 H   0  0  0  0  0  0  0  0  0  0  0  0
   40.6820   26.5490   35.2970 O   0  0  0  0  0  1  0  0  0  0  0  0
  1  2  1  0  0  0  0
  2 13  1  0  0  0  0
  2  3  2  0  0  0  0
  3  7  1  0  0  0  0
  4  3  1  0  0  0  0
  5  4  2  0  0  0  0
  6  1  2  0  0  0  0
  6  5  1  0  0  0  0
  7 11  1  0  0  0  0
  7  8  1  0  0  0  0
  8 15  1  0  0  0  0
  8  9  1  0  0  0  0
  9 10  1  0  0  0  0
  9 18  1  0  0  0  0
  9 17  1  0  0  0  0
 10 19  1  0  0  0  0
 10 20  1  0  0  0  0
 11 25  1  6  0  0  0
 11 10  1  0  0  0  0
 12  1  1  0  0  0  0
 14  5  1  0  0  0  0
 16  8  1  0  0  0  0
 21 23  1  0  0  0  0
 21 11  1  0  0  0  0
 21 22  1  0  0  0  0
 24 21  1  0  0  0  0
 25 27  1  0  0  0  0
 26 25  1  0  0  0  0
M  END
>  <minimizedAffinity>
-4.26662779

$$$$

 OpenBabel03272507253D

 27 28  0  0  1  0  0  0  0  0999 V2000
   37.4750   27.2270   34.2730 C   0  0  0  0  0  0  0  0  0  0  0  0
   37.4670   26.2370   35.2820 C   0  0  0  0  0  0  0  0  0  0  0  0
   38.5940   25.4070   35.3880 C   0  0  0  0  0  0  0  0  0  0  0  0
   39.6160   25.5980   34.5290 N   0  0  0  0  0  0  0  0  0  0  0  0
   39.5930   26.5600   33.5690 C   0  0  0  0  0  0  0  0  0  0  0  0
   38.5230   27.3620   33.4520 N   0  0  0  0  0  0  0  0  0  0  0  0
   38.6560   24.4000   36.3650 N   0  0  0  0  0  0  0  0  0  0  0  0
   37.9760   24.4600   37.6630 C   0  0  0  0  0  0  0  0  0  0  0  0
   38.4800   23.2880   38.4580 C   0  0  0  0  0  0  0  0  0  0  0  0
   39.7680   22.9780   37.7710 C   0  0  0  0  0  0  0  0  0  0  0  0
   39.3510   23.1560   36.3240 C   0  0  2  0  0  0  0  0  0  0  0  0
   36.6240   27.8890   34.1570 H   0  0  0  0  0  0  0  0  0  0  0  0
   36.6290   26.1210   35.9460 H   0  0  0  0  0  0  0  0  0  0  0  0
   40.5030   26.5590   32.9760 H   0  0  0  0  0  0  0  0  0  0  0  0
   38.1580   25.4440   38.1540 H   0  0  0  0  0  0  0  0  0  0  0  0
   36.8880   24.2990   37.4980 H   0  0  0  0  0  0  0  0  0  0  0  0
   38.7380   23.6690   39.4860 H   0  0  0  0  0  0  0  0  0  0  0  0
   37.8070   22.4350   38.5170 H   0  0  0  0  0  0  0  0  0  0  0  0
   40.5950   23.6350   38.0230 H   0  0  0  0  0  0  0  0  0  0  0  0
   40.0560   21.8920   37.8820 H   0  0  0  0  0  0  0  0  0  0  0  0
   40.4930   23.0230   35.3910 C   0  0  0  0  0  0  0  0  0  0  0  0
   41.4400   23.9600   35.7810 F   0  0  0  0  0  0  0  0  0  0  0  0
   40.2220   23.2680   34.0780 F   0  0  0  0  0  0  0  0  0  0  0  0
   41.0640   21.7880   35.6300 F   0  0  0  0  0  0  0  0  0  0  0  0
   38.3390   22.1210   35.9450 C   0  0  0  0  0  3  0  0  0  0  0  0
   37.5820   21.4700   35.5360 H   0  0  0  0  0  0  0  0  0  0  0  0
   37.8380   22.4490   34.8810 O   0  0  0  0  0  1  0  0  0  0  0  0
  1  2  1  0  0  0  0
  2  3  2  0  0  0  0
  2 13  1  0  0  0  0
  3  7  1  0  0  0  0
  4  3  1  0  0  0  0
  5  4  2  0  0  0  0
  6  5  1  0  0  0  0
  6  1  2  0  0  0  0
  7  8  1  0  0  0  0
  8 15  1  0  0  0  0
  8  9  1  0  0  0  0
  9 18  1  0  0  0  0
  9 17  1  0  0  0  0
 10 20  1  0  0  0  0
 10 19  1  0  0  0  0
 10  9  1  0  0  0  0
 11 25  1  6  0  0  0
 11  7  1  0  0  0  0
 11 10  1  0  0  0  0
 12  1  1  0  0  0  0
 14  5  1  0  0  0  0
 16  8  1  0  0  0  0
 21 24  1  0  0  0  0
 21 22  1  0  0  0  0
 21 11  1  0  0  0  0
 23 21  1  0  0  0  0
 26 25  1  0  0  0  0
 27 25  1  0  0  0  0
M  END
>  <minimizedAffinity>
-4.23642683

$$$$

 OpenBabel03272507253D

 27 28  0  0  1  0  0  0  0  0999 V2000
   39.2670   22.7030   37.3330 C   0  0  0  0  0  0  0  0  0  0  0  0
   39.6760   23.3340   36.1360 C   0  0  0  0  0  0  0  0  0  0  0  0
   39.1780   24.6200   35.8760 C   0  0  0  0  0  0  0  0  0  0  0  0
   38.3430   25.1800   36.7730 N   0  0  0  0  0  0  0  0  0  0  0  0
   37.9670   24.5470   37.9160 C   0  0  0  0  0  0  0  0  0  0  0  0
   38.4340   23.3160   38.1820 N   0  0  0  0  0  0  0  0  0  0  0  0
   39.5390   25.3070   34.7050 N   0  0  0  0  0  0  0  0  0  0  0  0
   40.8110   25.1290   33.9970 C   0  0  0  0  0  0  0  0  0  0  0  0
   40.8590   26.1960   32.9400 C   0  0  0  0  0  0  0  0  0  0  0  0
   39.8900   27.2000   33.4690 C   0  0  0  0  0  0  0  0  0  0  0  0
   38.7960   26.2790   33.9740 C   0  0  2  0  0  0  0  0  0  0  0  0
   39.6280   21.7100   37.5730 H   0  0  0  0  0  0  0  0  0  0  0  0
   40.3450   22.8480   35.4490 H   0  0  0  0  0  0  0  0  0  0  0  0
   37.2920   25.1550   38.5110 H   0  0  0  0  0  0  0  0  0  0  0  0
   41.6650   25.1690   34.7130 H   0  0  0  0  0  0  0  0  0  0  0  0
   40.7860   24.1490   33.4720 H   0  0  0  0  0  0  0  0  0  0  0  0
   41.8810   26.6670   32.9880 H   0  0  0  0  0  0  0  0  0  0  0  0
   40.6300   25.8670   31.9280 H   0  0  0  0  0  0  0  0  0  0  0  0
   40.2680   27.8310   34.2670 H   0  0  0  0  0  0  0  0  0  0  0  0
   39.4250   27.8150   32.6440 H   0  0  0  0  0  0  0  0  0  0  0  0
   37.7240   27.0170   34.6790 C   0  0  0  0  0  0  0  0  0  0  0  0
   38.3330   27.7240   35.7060 F   0  0  0  0  0  0  0  0  0  0  0  0
   36.7540   26.2520   35.2560 F   0  0  0  0  0  0  0  0  0  0  0  0
   37.2450   27.9680   33.7980 F   0  0  0  0  0  0  0  0  0  0  0  0
   38.1630   25.5510   32.8300 C   0  0  0  0  0  3  0  0  0  0  0  0
   37.6460   24.9210   32.1220 H   0  0  0  0  0  0  0  0  0  0  0  0
   37.5440   24.6000   33.2790 O   0  0  0  0  0  1  0  0  0  0  0  0
  1 12  1  0  0  0  0
  1  6  1  0  0  0  0
  2  1  2  0  0  0  0
  3  2  1  0  0  0  0
  3  4  2  0  0  0  0
  4  5  1  0  0  0  0
  5  6  2  0  0  0  0
  5 14  1  0  0  0  0
  7  3  1  0  0  0  0
  8  7  1  0  0  0  0
  8 15  1  0  0  0  0
  9 17  1  0  0  0  0
  9 10  1  0  0  0  0
  9  8  1  0  0  0  0
 10 11  1  0  0  0  0
 10 19  1  0  0  0  0
 11 25  1  6  0  0  0
 11 21  1  0  0  0  0
 11  7  1  0  0  0  0
 13  2  1  0  0  0  0
 16  8  1  0  0  0  0
 18  9  1  0  0  0  0
 20 10  1  0  0  0  0
 21 23  1  0  0  0  0
 21 22  1  0  0  0  0
 24 21  1  0  0  0  0
 25 27  1  0  0  0  0
 26 25  1  0  0  0  0
M  END
>  <minimizedAffinity>
-4.219028

$$$$

 OpenBabel03272507253D

 27 28  0  0  1  0  0  0  0  0999 V2000
   38.0060   27.5870   35.5070 C   0  0  0  0  0  0  0  0  0  0  0  0
   37.4460   27.2950   34.2420 C   0  0  0  0  0  0  0  0  0  0  0  0
   37.3920   25.9490   33.8500 C   0  0  0  0  0  0  0  0  0  0  0  0
   37.8720   25.0130   34.6940 N   0  0  0  0  0  0  0  0  0  0  0  0
   38.4050   25.3270   35.9040 C   0  0  0  0  0  0  0  0  0  0  0  0
   38.4660   26.6090   36.2970 N   0  0  0  0  0  0  0  0  0  0  0  0
   36.8510   25.5830   32.6070 N   0  0  0  0  0  0  0  0  0  0  0  0
   35.8070   26.3340   31.9020 C   0  0  0  0  0  0  0  0  0  0  0  0
   35.3900   25.4850   30.7340 C   0  0  0  0  0  0  0  0  0  0  0  0
   35.8320   24.1270   31.1660 C   0  0  0  0  0  0  0  0  0  0  0  0
   37.1760   24.4650   31.7850 C   0  0  2  0  0  0  0  0  0  0  0  0
   38.0680   28.6140   35.8480 H   0  0  0  0  0  0  0  0  0  0  0  0
   37.0750   28.0750   33.6010 H   0  0  0  0  0  0  0  0  0  0  0  0
   38.7370   24.4410   36.4400 H   0  0  0  0  0  0  0  0  0  0  0  0
   34.9700   26.5820   32.5960 H   0  0  0  0  0  0  0  0  0  0  0  0
   36.2590   27.2610   31.4880 H   0  0  0  0  0  0  0  0  0  0  0  0
   34.2640   25.4740   30.7150 H   0  0  0  0  0  0  0  0  0  0  0  0
   35.7930   25.7830   29.7680 H   0  0  0  0  0  0  0  0  0  0  0  0
   35.1840   23.6360   31.8850 H   0  0  0  0  0  0  0  0  0  0  0  0
   36.0540   23.4550   30.2860 H   0  0  0  0  0  0  0  0  0  0  0  0
   37.8100   23.2890   32.4220 C   0  0  0  0  0  0  0  0  0  0  0  0
   37.7330   22.2470   31.5070 F   0  0  0  0  0  0  0  0  0  0  0  0
   37.2230   22.8430   33.5690 F   0  0  0  0  0  0  0  0  0  0  0  0
   39.1550   23.5790   32.5500 F   0  0  0  0  0  0  0  0  0  0  0  0
   38.1170   24.9710   30.7370 C   0  0  0  0  0  3  0  0  0  0  0  0
   38.7390   25.2080   29.8880 H   0  0  0  0  0  0  0  0  0  0  0  0
   38.0220   24.2490   29.7580 O   0  0  0  0  0  1  0  0  0  0  0  0
  1 12  1  0  0  0  0
  1  6  1  0  0  0  0
  2  1  2  0  0  0  0
  3  2  1  0  0  0  0
  3  4  2  0  0  0  0
  4  5  1  0  0  0  0
  5  6  2  0  0  0  0
  5 14  1  0  0  0  0
  7  3  1  0  0  0  0
  8 15  1  0  0  0  0
  8  7  1  0  0  0  0
  9 10  1  0  0  0  0
  9  8  1  0  0  0  0
 10 11  1  0  0  0  0
 10 19  1  0  0  0  0
 11 25  1  6  0  0  0
 11 21  1  0  0  0  0
 11  7  1  0  0  0  0
 13  2  1  0  0  0  0
 16  8  1  0  0  0  0
 17  9  1  0  0  0  0
 18  9  1  0  0  0  0
 20 10  1  0  0  0  0
 21 24  1  0  0  0  0
 21 23  1  0  0  0  0
 22 21  1  0  0  0  0
 26 25  1  0  0  0  0
 27 25  1  0  0  0  0
M  END
>  <minimizedAffinity>
-4.16896296

$$$$

 OpenBabel03272507253D

 27 28  0  0  1  0  0  0  0  0999 V2000
   36.2930   29.3590   31.0720 C   0  0  0  0  0  0  0  0  0  0  0  0
   37.2930   28.3920   31.3180 C   0  0  0  0  0  0  0  0  0  0  0  0
   37.2800   27.7440   32.5630 C   0  0  0  0  0  0  0  0  0  0  0  0
   36.3220   28.0760   33.4500 N   0  0  0  0  0  0  0  0  0  0  0  0
   35.3720   29.0120   33.1840 C   0  0  0  0  0  0  0  0  0  0  0  0
   35.3690   29.6420   31.9980 N   0  0  0  0  0  0  0  0  0  0  0  0
   38.2450   26.7740   32.8780 N   0  0  0  0  0  0  0  0  0  0  0  0
   38.9120   25.9150   31.8940 C   0  0  0  0  0  0  0  0  0  0  0  0
   39.6960   24.9010   32.6790 C   0  0  0  0  0  0  0  0  0  0  0  0
   39.0010   24.9280   34.0000 C   0  0  0  0  0  0  0  0  0  0  0  0
   38.7730   26.4200   34.1540 C   0  0  2  0  0  0  0  0  0  0  0  0
   36.2660   29.8830   30.1230 H   0  0  0  0  0  0  0  0  0  0  0  0
   38.0400   28.1590   30.5790 H   0  0  0  0  0  0  0  0  0  0  0  0
   34.6890   29.1410   34.0180 H   0  0  0  0  0  0  0  0  0  0  0  0
   38.1640   25.4630   31.2010 H   0  0  0  0  0  0  0  0  0  0  0  0
   39.6460   26.5310   31.3300 H   0  0  0  0  0  0  0  0  0  0  0  0
   39.4920   23.8930   32.2200 H   0  0  0  0  0  0  0  0  0  0  0  0
   40.7660   25.0870   32.7510 H   0  0  0  0  0  0  0  0  0  0  0  0
   38.0630   24.3840   34.0390 H   0  0  0  0  0  0  0  0  0  0  0  0
   39.6880   24.6280   34.8450 H   0  0  0  0  0  0  0  0  0  0  0  0
   37.9730   26.7420   35.3570 C   0  0  0  0  0  0  0  0  0  0  0  0
   38.5080   26.0060   36.4040 F   0  0  0  0  0  0  0  0  0  0  0  0
   36.6490   26.4240   35.2950 F   0  0  0  0  0  0  0  0  0  0  0  0
   38.2220   28.0670   35.6620 F   0  0  0  0  0  0  0  0  0  0  0  0
   40.0820   27.1340   34.2800 C   0  0  0  0  0  3  0  0  0  0  0  0
   41.0630   27.5340   34.4880 H   0  0  0  0  0  0  0  0  0  0  0  0
   40.7490   26.5610   35.1270 O   0  0  0  0  0  1  0  0  0  0  0  0
  1  2  2  0  0  0  0
  1  6  1  0  0  0  0
  2  3  1  0  0  0  0
  3  7  1  0  0  0  0
  3  4  2  0  0  0  0
  5  4  1  0  0  0  0
  5 14  1  0  0  0  0
  6  5  2  0  0  0  0
  7 11  1  0  0  0  0
  8  9  1  0  0  0  0
  8  7  1  0  0  0  0
  9 18  1  0  0  0  0
  9 10  1  0  0  0  0
 10 19  1  0  0  0  0
 10 11  1  0  0  0  0
 10 20  1  0  0  0  0
 11 25  1  1  0  0  0
 11 21  1  0  0  0  0
 12  1  1  0  0  0  0
 13  2  1  0  0  0  0
 15  8  1  0  0  0  0
 16  8  1  0  0  0  0
 17  9  1  0  0  0  0
 21 24  1  0  0  0  0
 21 22  1  0  0  0  0
 23 21  1  0  0  0  0
 25 26  1  0  0  0  0
 25 27  1  0  0  0  0
M  END
>  <minimizedAffinity>
-4.13145018

$$$$

 OpenBabel03272507253D

 27 28  0  0  1  0  0  0  0  0999 V2000
   35.7580   24.3810   31.3070 C   0  0  0  0  0  0  0  0  0  0  0  0
   36.6860   24.8890   32.2450 C   0  0  0  0  0  0  0  0  0  0  0  0
   37.3990   23.9630   33.0220 C   0  0  0  0  0  0  0  0  0  0  0  0
   37.1640   22.6490   32.8340 N   0  0  0  0  0  0  0  0  0  0  0  0
   36.2650   22.1920   31.9230 C   0  0  0  0  0  0  0  0  0  0  0  0
   35.5730   23.0620   31.1700 N   0  0  0  0  0  0  0  0  0  0  0  0
   38.3350   24.3950   33.9760 N   0  0  0  0  0  0  0  0  0  0  0  0
   39.1050   25.6400   33.8790 C   0  0  0  0  0  0  0  0  0  0  0  0
   40.1180   25.5970   34.9890 C   0  0  0  0  0  0  0  0  0  0  0  0
   40.1970   24.1360   35.2800 C   0  0  0  0  0  0  0  0  0  0  0  0
   38.7290   23.7640   35.1910 C   0  0  2  0  0  0  0  0  0  0  0  0
   35.1870   25.0610   30.6870 H   0  0  0  0  0  0  0  0  0  0  0  0
   36.8410   25.9470   32.3610 H   0  0  0  0  0  0  0  0  0  0  0  0
   36.2150   21.1060   31.9160 H   0  0  0  0  0  0  0  0  0  0  0  0
   39.5560   25.7410   32.8650 H   0  0  0  0  0  0  0  0  0  0  0  0
   38.4230   26.4920   34.0920 H   0  0  0  0  0  0  0  0  0  0  0  0
   41.1090   25.9000   34.5470 H   0  0  0  0  0  0  0  0  0  0  0  0
   39.8820   26.2000   35.8640 H   0  0  0  0  0  0  0  0  0  0  0  0
   40.7900   23.5570   34.5790 H   0  0  0  0  0  0  0  0  0  0  0  0
   40.5070   23.9340   36.3470 H   0  0  0  0  0  0  0  0  0  0  0  0
   38.5120   22.3050   35.3250 C   0  0  0  0  0  0  0  0  0  0  0  0
   39.2700   21.8850   36.4090 F   0  0  0  0  0  0  0  0  0  0  0  0
   38.9010   21.5450   34.2610 F   0  0  0  0  0  0  0  0  0  0  0  0
   37.1930   22.1280   35.6940 F   0  0  0  0  0  0  0  0  0  0  0  0
   37.9570   24.4340   36.2840 C   0  0  0  0  0  3  0  0  0  0  0  0
   37.5170   24.8550   37.1750 H   0  0  0  0  0  0  0  0  0  0  0  0
   38.5230   24.2120   37.3420 O   0  0  0  0  0  1  0  0  0  0  0  0
  1  2  1  0  0  0  0
  2 13  1  0  0  0  0
  2  3  2  0  0  0  0
  3  7  1  0  0  0  0
  4  3  1  0  0  0  0
  5  4  2  0  0  0  0
  6  1  2  0  0  0  0
  6  5  1  0  0  0  0
  7 11  1  0  0  0  0
  8  7  1  0  0  0  0
  8 16  1  0  0  0  0
  8  9  1  0  0  0  0
  9 10  1  0  0  0  0
  9 18  1  0  0  0  0
 10 20  1  0  0  0  0
 11 10  1  0  0  0  0
 11 21  1  0  0  0  0
 11 25  1  1  0  0  0
 12  1  1  0  0  0  0
 14  5  1  0  0  0  0
 15  8  1  0  0  0  0
 17  9  1  0  0  0  0
 19 10  1  0  0  0  0
 21 24  1  0  0  0  0
 21 22  1  0  0  0  0
 23 21  1  0  0  0  0
 25 26  1  0  0  0  0
 25 27  1  0  0  0  0
M  END
>  <minimizedAffinity>
-4.08029127

$$$$

 OpenBabel03272507253D

 27 28  0  0  1  0  0  0  0  0999 V2000
   36.7310   21.8940   32.4930 C   0  0  0  0  0  0  0  0  0  0  0  0
   37.0270   23.2630   32.2960 C   0  0  0  0  0  0  0  0  0  0  0  0
   37.7390   23.9260   33.3070 C   0  0  0  0  0  0  0  0  0  0  0  0
   38.1010   23.2290   34.4020 N   0  0  0  0  0  0  0  0  0  0  0  0
   37.8020   21.9130   34.5620 C   0  0  0  0  0  0  0  0  0  0  0  0
   37.1210   21.2610   33.6060 N   0  0  0  0  0  0  0  0  0  0  0  0
   38.0660   25.2860   33.1820 N   0  0  0  0  0  0  0  0  0  0  0  0
   38.2860   25.9730   31.9050 C   0  0  0  0  0  0  0  0  0  0  0  0
   38.8090   27.3410   32.2450 C   0  0  0  0  0  0  0  0  0  0  0  0
   39.3400   27.1350   33.6240 C   0  0  0  0  0  0  0  0  0  0  0  0
   38.2450   26.2610   34.2070 C   0  0  2  0  0  0  0  0  0  0  0  0
   36.1830   21.3440   31.7370 H   0  0  0  0  0  0  0  0  0  0  0  0
   36.7180   23.7790   31.4050 H   0  0  0  0  0  0  0  0  0  0  0  0
   38.1760   21.5260   35.5060 H   0  0  0  0  0  0  0  0  0  0  0  0
   38.9720   25.3800   31.2570 H   0  0  0  0  0  0  0  0  0  0  0  0
   37.3020   26.1140   31.4070 H   0  0  0  0  0  0  0  0  0  0  0  0
   39.6950   27.5340   31.5770 H   0  0  0  0  0  0  0  0  0  0  0  0
   38.0860   28.1510   32.1780 H   0  0  0  0  0  0  0  0  0  0  0  0
   40.3050   26.6400   33.6790 H   0  0  0  0  0  0  0  0  0  0  0  0
   39.3320   28.0890   34.2280 H   0  0  0  0  0  0  0  0  0  0  0  0
   38.5720   25.7890   35.5720 C   0  0  0  0  0  0  0  0  0  0  0  0
   38.9020   26.9130   36.3160 F   0  0  0  0  0  0  0  0  0  0  0  0
   39.6300   24.9340   35.6690 F   0  0  0  0  0  0  0  0  0  0  0  0
   37.4000   25.3030   36.1200 F   0  0  0  0  0  0  0  0  0  0  0  0
   36.9610   27.0250   34.2910 C   0  0  0  0  0  3  0  0  0  0  0  0
   36.1260   27.6930   34.4310 H   0  0  0  0  0  0  0  0  0  0  0  0
   37.1820   28.0780   34.8670 O   0  0  0  0  0  1  0  0  0  0  0  0
  1  6  1  0  0  0  0
  2  1  2  0  0  0  0
  2  3  1  0  0  0  0
  3  4  2  0  0  0  0
  4  5  1  0  0  0  0
  5 14  1  0  0  0  0
  6  5  2  0  0  0  0
  7  3  1  0  0  0  0
  7 11  1  0  0  0  0
  8  9  1  0  0  0  0
  8  7  1  0  0  0  0
  9 10  1  0  0  0  0
 10 19  1  0  0  0  0
 10 11  1  0  0  0  0
 10 20  1  0  0  0  0
 11 25  1  1  0  0  0
 11 21  1  0  0  0  0
 12  1  1  0  0  0  0
 13  2  1  0  0  0  0
 15  8  1  0  0  0  0
 16  8  1  0  0  0  0
 17  9  1  0  0  0  0
 18  9  1  0  0  0  0
 21 23  1  0  0  0  0
 21 24  1  0  0  0  0
 21 22  1  0  0  0  0
 25 26  1  0  0  0  0
 25 27  1  0  0  0  0
M  END
>  <minimizedAffinity>
-4.05429602

$$$$
