
 OpenBabel03272508593D

 22 23  0  0  0  0  0  0  0  0999 V2000
   38.0930   30.0590   49.7720 Cl  0  0  0  0  0  0  0  0  0  0  0  0
   36.7240   29.8610   48.7350 C   0  0  0  0  0  0  0  0  0  0  0  0
   36.7550   30.3850   47.4570 C   0  0  0  0  0  0  0  0  0  0  0  0
   35.6940   30.2530   46.6020 C   0  0  0  0  0  0  0  0  0  0  0  0
   34.5440   29.5850   46.9910 C   0  0  0  0  0  0  0  0  0  0  0  0
   34.4790   29.0470   48.2710 C   0  0  0  0  0  0  0  0  0  0  0  0
   33.0960   28.1790   48.9060 Cl  0  0  0  0  0  0  0  0  0  0  0  0
   35.5830   29.2060   49.1060 C   0  0  0  0  0  0  0  0  0  0  0  0
   35.7570   30.6720   45.6180 H   0  0  0  0  0  0  0  0  0  0  0  0
   33.6780   29.4540   46.3520 H   0  0  0  0  0  0  0  0  0  0  0  0
   39.3210   32.9730   47.0430 C   0  0  0  0  0  0  0  0  0  0  0  0
   40.2090   32.3990   46.1110 C   0  0  0  0  0  0  0  0  0  0  0  0
   39.8890   31.1140   45.6460 C   0  0  0  0  0  0  0  0  0  0  0  0
   38.7690   30.5120   46.1090 N   0  0  0  0  0  0  0  0  0  0  0  0
   37.9430   31.0940   47.0030 C   0  0  0  0  0  0  0  0  0  0  0  0
   38.2310   32.3240   47.4620 N   0  0  0  0  0  0  0  0  0  0  0  0
   39.5070   33.9630   47.4430 H   0  0  0  0  0  0  0  0  0  0  0  0
   41.0840   32.9250   45.7790 H   0  0  0  0  0  0  0  0  0  0  0  0
   40.5340   30.6240   44.9290 H   0  0  0  0  0  0  0  0  0  0  0  0
   35.5930   28.6650   50.4750 C   0  0  0  0  0  0  0  0  0  0  0  0
   35.9740   27.7300   50.8590 H   0  0  0  0  0  0  0  0  0  0  0  0
   35.0170   29.6180   51.1040 O   0  0  0  0  0  0  0  0  0  0  0  0
  2  8  1  0  0  0  0
  2  1  1  0  0  0  0
  3  2  2  0  0  0  0
  4  5  2  0  0  0  0
  4  3  1  0  0  0  0
  5  6  1  0  0  0  0
  6  7  1  0  0  0  0
  6  8  2  0  0  0  0
  8 20  1  0  0  0  0
  9  4  1  0  0  0  0
 10  5  1  0  0  0  0
 11 17  1  0  0  0  0
 11 16  1  0  0  0  0
 12 11  2  0  0  0  0
 13 14  2  0  0  0  0
 13 12  1  0  0  0  0
 14 15  1  0  0  0  0
 15  3  1  0  0  0  0
 15 16  2  0  0  0  0
 18 12  1  0  0  0  0
 19 13  1  0  0  0  0
 20 21  1  0  0  0  0
 20 22  2  0  0  0  0
M  END
>  <minimizedAffinity>
-4.78829241

>  <minimizedRMSD>
1.90626025

$$$$
