
 OpenBabel03272510283D

 39 42  0  0  1  0  0  0  0  0999 V2000
   35.5130   29.0480   32.4850 C   0  0  0  0  0  0  0  0  0  0  0  0
   35.8520   29.2580   33.8020 C   0  0  0  0  0  0  0  0  0  0  0  0
   36.5380   28.2800   34.5420 C   0  0  0  0  0  0  0  0  0  0  0  0
   36.8430   27.1060   33.8620 C   0  0  0  0  0  0  0  0  0  0  0  0
   37.5060   26.0100   34.3620 N   0  0  0  0  0  0  0  0  0  0  0  0
   37.5730   25.1260   33.3500 C   0  0  0  0  0  0  0  0  0  0  0  0
   36.9900   25.6270   32.2790 N   0  0  0  0  0  0  0  0  0  0  0  0
   36.5230   26.8580   32.5560 C   0  0  0  0  0  0  0  0  0  0  0  0
   35.8400   27.8580   31.8510 C   0  0  0  0  0  0  0  0  0  0  0  0
   34.9820   29.7880   31.8920 H   0  0  0  0  0  0  0  0  0  0  0  0
   36.8150   28.4280   35.5830 H   0  0  0  0  0  0  0  0  0  0  0  0
   37.8810   25.8970   35.3420 H   0  0  0  0  0  0  0  0  0  0  0  0
   35.5820   27.6720   30.8200 H   0  0  0  0  0  0  0  0  0  0  0  0
   35.5260   32.2440   36.0680 C   0  0  0  0  0  0  0  0  0  0  0  0
   35.9900   31.0070   35.6240 C   0  0  0  0  0  0  0  0  0  0  0  0
   35.5010   30.5170   34.4410 C   0  0  0  0  0  0  0  0  0  0  0  0
   34.5760   31.2880   33.7670 N   0  0  0  0  0  0  0  0  0  0  0  0
   34.1350   32.4800   34.2050 C   0  0  0  0  0  0  0  0  0  0  0  0
   34.6110   32.9460   35.3470 N   0  0  0  0  0  0  0  0  0  0  0  0
   35.9230   32.6190   37.0060 H   0  0  0  0  0  0  0  0  0  0  0  0
   36.7090   30.3900   36.1290 H   0  0  0  0  0  0  0  0  0  0  0  0
   33.4090   32.9730   33.5730 H   0  0  0  0  0  0  0  0  0  0  0  0
   38.1860   23.8790   33.4850 O   0  0  0  0  0  0  0  0  0  0  0  0
   38.1440   23.5630   35.7690 N   0  0  0  0  0  0  0  0  0  0  0  0
   39.0260   23.7230   34.6210 C   0  0  1  0  0  0  0  0  0  0  0  0
   39.8830   22.5570   34.4730 C   0  0  0  0  0  0  0  0  0  0  0  0
   40.7070   22.4550   35.6070 O   0  0  0  0  0  0  0  0  0  0  0  0
   40.0550   22.4400   36.8050 C   0  0  0  0  0  0  0  0  0  0  0  0
   39.0330   23.5580   36.9070 C   0  0  2  0  0  0  0  0  0  0  0  0
   37.6180   22.7060   35.8420 H   0  0  0  0  0  0  0  0  0  0  0  0
   39.6300   24.6270   34.8300 H   0  0  0  0  0  0  0  0  0  0  0  0
   40.6210   22.7840   33.6430 H   0  0  0  0  0  0  0  0  0  0  0  0
   39.5540   21.5660   34.3170 H   0  0  0  0  0  0  0  0  0  0  0  0
   39.4910   21.4870   36.8790 H   0  0  0  0  0  0  0  0  0  0  0  0
   40.7880   22.5780   37.5980 H   0  0  0  0  0  0  0  0  0  0  0  0
   39.5940   24.5140   36.9390 H   0  0  0  0  0  0  0  0  0  0  0  0
   38.2050   23.3650   38.1260 C   0  0  0  0  0  0  0  0  0  0  0  0
   37.8900   22.3520   38.4180 H   0  0  0  0  0  0  0  0  0  0  0  0
   37.8900   24.3610   38.7860 O   0  0  0  0  0  0  0  0  0  0  0  0
  1  2  1  0  0  0  0
  2 16  1  0  0  0  0
  2  3  2  0  0  0  0
  3 11  1  0  0  0  0
  4  5  1  0  0  0  0
  4  3  1  0  0  0  0
  5 12  1  0  0  0  0
  6 23  1  0  0  0  0
  6  5  1  0  0  0  0
  7  8  1  0  0  0  0
  7  6  2  0  0  0  0
  8  4  2  0  0  0  0
  9  1  2  0  0  0  0
  9  8  1  0  0  0  0
 10  1  1  0  0  0  0
 13  9  1  0  0  0  0
 14 20  1  0  0  0  0
 15 14  1  0  0  0  0
 15 21  1  0  0  0  0
 16 15  2  0  0  0  0
 17 18  2  0  0  0  0
 17 16  1  0  0  0  0
 18 19  1  0  0  0  0
 19 14  2  0  0  0  0
 22 18  1  0  0  0  0
 23 25  1  0  0  0  0
 24 30  1  0  0  0  0
 24 29  1  0  0  0  0
 25 31  1  1  0  0  0
 25 24  1  0  0  0  0
 26 25  1  0  0  0  0
 26 27  1  0  0  0  0
 27 28  1  0  0  0  0
 28 34  1  0  0  0  0
 28 29  1  0  0  0  0
 28 35  1  0  0  0  0
 29 36  1  1  0  0  0
 29 37  1  0  0  0  0
 32 26  1  0  0  0  0
 33 26  1  0  0  0  0
 37 38  1  0  0  0  0
 37 39  2  0  0  0  0
M  END
>  <minimizedAffinity>
-5.55053329

$$$$

 OpenBabel03272510283D

 39 42  0  0  1  0  0  0  0  0999 V2000
   38.1370   24.7440   33.8160 C   0  0  0  0  0  0  0  0  0  0  0  0
   38.0640   25.2140   35.1070 C   0  0  0  0  0  0  0  0  0  0  0  0
   37.4900   26.4650   35.3950 C   0  0  0  0  0  0  0  0  0  0  0  0
   37.0110   27.1790   34.3020 C   0  0  0  0  0  0  0  0  0  0  0  0
   36.4090   28.4160   34.3240 N   0  0  0  0  0  0  0  0  0  0  0  0
   36.1130   28.7040   33.0430 C   0  0  0  0  0  0  0  0  0  0  0  0
   36.5010   27.7160   32.2620 N   0  0  0  0  0  0  0  0  0  0  0  0
   37.0650   26.7480   33.0060 C   0  0  0  0  0  0  0  0  0  0  0  0
   37.6440   25.4960   32.7590 C   0  0  0  0  0  0  0  0  0  0  0  0
   38.5760   23.7810   33.5680 H   0  0  0  0  0  0  0  0  0  0  0  0
   37.4240   26.8530   36.4090 H   0  0  0  0  0  0  0  0  0  0  0  0
   36.2240   29.0080   35.1770 H   0  0  0  0  0  0  0  0  0  0  0  0
   37.6930   25.1460   31.7390 H   0  0  0  0  0  0  0  0  0  0  0  0
   38.7170   23.4520   38.3670 C   0  0  0  0  0  0  0  0  0  0  0  0
   38.0690   24.2900   37.4610 C   0  0  0  0  0  0  0  0  0  0  0  0
   38.5840   24.4030   36.1970 C   0  0  0  0  0  0  0  0  0  0  0  0
   39.7190   23.6730   35.9050 N   0  0  0  0  0  0  0  0  0  0  0  0
   40.3370   22.8680   36.7870 C   0  0  0  0  0  0  0  0  0  0  0  0
   39.8340   22.7650   38.0050 N   0  0  0  0  0  0  0  0  0  0  0  0
   38.2970   23.3740   39.3640 H   0  0  0  0  0  0  0  0  0  0  0  0
   37.1860   24.8670   37.6640 H   0  0  0  0  0  0  0  0  0  0  0  0
   41.2170   22.3570   36.4200 H   0  0  0  0  0  0  0  0  0  0  0  0
   35.4840   29.8920   32.6710 O   0  0  0  0  0  0  0  0  0  0  0  0
   33.4760   29.4220   33.7010 N   0  0  0  0  0  0  0  0  0  0  0  0
   34.0850   29.8050   32.4360 C   0  0  1  0  0  0  0  0  0  0  0  0
   33.5560   31.0830   31.9850 C   0  0  0  0  0  0  0  0  0  0  0  0
   32.1780   30.9440   31.7470 O   0  0  0  0  0  0  0  0  0  0  0  0
   31.4510   30.4480   32.7900 C   0  0  0  0  0  0  0  0  0  0  0  0
   32.0860   29.2020   33.3800 C   0  0  2  0  0  0  0  0  0  0  0  0
   33.4700   30.1010   34.4460 H   0  0  0  0  0  0  0  0  0  0  0  0
   33.8240   29.0010   31.7200 H   0  0  0  0  0  0  0  0  0  0  0  0
   33.9740   31.2750   30.9490 H   0  0  0  0  0  0  0  0  0  0  0  0
   33.6250   31.9970   32.5090 H   0  0  0  0  0  0  0  0  0  0  0  0
   31.4410   31.2110   33.5960 H   0  0  0  0  0  0  0  0  0  0  0  0
   30.4610   30.1830   32.4240 H   0  0  0  0  0  0  0  0  0  0  0  0
   32.0080   28.4010   32.6160 H   0  0  0  0  0  0  0  0  0  0  0  0
   31.3840   28.8330   34.6360 C   0  0  0  0  0  0  0  0  0  0  0  0
   31.5180   29.4510   35.5380 H   0  0  0  0  0  0  0  0  0  0  0  0
   30.6590   27.8320   34.6340 O   0  0  0  0  0  0  0  0  0  0  0  0
  1  2  1  0  0  0  0
  2  3  2  0  0  0  0
  2 16  1  0  0  0  0
  3 11  1  0  0  0  0
  4  5  1  0  0  0  0
  4  3  1  0  0  0  0
  5 12  1  0  0  0  0
  6  5  1  0  0  0  0
  7  8  1  0  0  0  0
  7  6  2  0  0  0  0
  8  4  2  0  0  0  0
  9  8  1  0  0  0  0
  9  1  2  0  0  0  0
 10  1  1  0  0  0  0
 13  9  1  0  0  0  0
 14 20  1  0  0  0  0
 15 21  1  0  0  0  0
 15 14  2  0  0  0  0
 16 15  1  0  0  0  0
 17 16  2  0  0  0  0
 17 18  1  0  0  0  0
 18 19  2  0  0  0  0
 19 14  1  0  0  0  0
 22 18  1  0  0  0  0
 23  6  1  0  0  0  0
 24 30  1  0  0  0  0
 25 31  1  6  0  0  0
 25 23  1  0  0  0  0
 25 24  1  0  0  0  0
 26 25  1  0  0  0  0
 26 33  1  0  0  0  0
 27 26  1  0  0  0  0
 27 28  1  0  0  0  0
 28 29  1  0  0  0  0
 28 34  1  0  0  0  0
 29 36  1  6  0  0  0
 29 24  1  0  0  0  0
 29 37  1  0  0  0  0
 32 26  1  0  0  0  0
 35 28  1  0  0  0  0
 37 38  1  0  0  0  0
 39 37  2  0  0  0  0
M  END
>  <minimizedAffinity>
-5.51757431

$$$$

 OpenBabel03272510283D

 39 42  0  0  1  0  0  0  0  0999 V2000
   38.0610   24.6050   33.8400 C   0  0  0  0  0  0  0  0  0  0  0  0
   38.0960   25.0880   35.1280 C   0  0  0  0  0  0  0  0  0  0  0  0
   37.5680   26.3510   35.4470 C   0  0  0  0  0  0  0  0  0  0  0  0
   37.0180   27.0650   34.3870 C   0  0  0  0  0  0  0  0  0  0  0  0
   36.4410   28.3110   34.4430 N   0  0  0  0  0  0  0  0  0  0  0  0
   36.0520   28.5940   33.1860 C   0  0  0  0  0  0  0  0  0  0  0  0
   36.3620   27.5930   32.3870 N   0  0  0  0  0  0  0  0  0  0  0  0
   36.9650   26.6220   33.0950 C   0  0  0  0  0  0  0  0  0  0  0  0
   37.5020   25.3570   32.8170 C   0  0  0  0  0  0  0  0  0  0  0  0
   38.4640   23.6330   33.5680 H   0  0  0  0  0  0  0  0  0  0  0  0
   37.5860   26.7490   36.4590 H   0  0  0  0  0  0  0  0  0  0  0  0
   36.3320   28.9140   35.3020 H   0  0  0  0  0  0  0  0  0  0  0  0
   37.4650   24.9980   31.8000 H   0  0  0  0  0  0  0  0  0  0  0  0
   38.9200   23.2750   38.3200 C   0  0  0  0  0  0  0  0  0  0  0  0
   38.2070   24.1010   37.4540 C   0  0  0  0  0  0  0  0  0  0  0  0
   38.6850   24.2770   36.1830 C   0  0  0  0  0  0  0  0  0  0  0  0
   39.8510   23.6190   35.8450 N   0  0  0  0  0  0  0  0  0  0  0  0
   40.5330   22.8250   36.6890 C   0  0  0  0  0  0  0  0  0  0  0  0
   40.0640   22.6610   37.9140 N   0  0  0  0  0  0  0  0  0  0  0  0
   38.5280   23.1460   39.3240 H   0  0  0  0  0  0  0  0  0  0  0  0
   37.2980   24.6220   37.6930 H   0  0  0  0  0  0  0  0  0  0  0  0
   41.4300   22.3750   36.2890 H   0  0  0  0  0  0  0  0  0  0  0  0
   35.4160   29.7900   32.8510 O   0  0  0  0  0  0  0  0  0  0  0  0
   35.1770   30.9880   34.8080 N   0  0  0  0  0  0  0  0  0  0  0  0
   34.4480   30.2580   33.7810 C   0  0  1  0  0  0  0  0  0  0  0  0
   33.4830   31.1290   33.1280 C   0  0  0  0  0  0  0  0  0  0  0  0
   32.5370   31.5490   34.0780 O   0  0  0  0  0  0  0  0  0  0  0  0
   33.0520   32.1330   35.1980 C   0  0  0  0  0  0  0  0  0  0  0  0
   34.1780   31.3120   35.7980 C   0  0  2  0  0  0  0  0  0  0  0  0
   35.5920   31.8710   34.5530 H   0  0  0  0  0  0  0  0  0  0  0  0
   33.9320   29.4310   34.3080 H   0  0  0  0  0  0  0  0  0  0  0  0
   32.8680   30.4850   32.4260 H   0  0  0  0  0  0  0  0  0  0  0  0
   33.7120   32.0140   32.5990 H   0  0  0  0  0  0  0  0  0  0  0  0
   33.4920   33.1100   34.9060 H   0  0  0  0  0  0  0  0  0  0  0  0
   32.2590   32.2140   35.9400 H   0  0  0  0  0  0  0  0  0  0  0  0
   33.7300   30.3750   36.1870 H   0  0  0  0  0  0  0  0  0  0  0  0
   34.8440   32.0910   36.8740 C   0  0  0  0  0  0  0  0  0  0  0  0
   34.9790   31.6420   37.8700 H   0  0  0  0  0  0  0  0  0  0  0  0
   35.2320   33.2360   36.6170 O   0  0  0  0  0  0  0  0  0  0  0  0
  1  2  1  0  0  0  0
  2  3  2  0  0  0  0
  2 16  1  0  0  0  0
  3 11  1  0  0  0  0
  4  5  1  0  0  0  0
  4  3  1  0  0  0  0
  5 12  1  0  0  0  0
  6  5  1  0  0  0  0
  7  8  1  0  0  0  0
  7  6  2  0  0  0  0
  8  4  2  0  0  0  0
  9  8  1  0  0  0  0
  9  1  2  0  0  0  0
 10  1  1  0  0  0  0
 13  9  1  0  0  0  0
 14 20  1  0  0  0  0
 15 21  1  0  0  0  0
 15 14  2  0  0  0  0
 16 15  1  0  0  0  0
 17 16  2  0  0  0  0
 17 18  1  0  0  0  0
 18 19  2  0  0  0  0
 19 14  1  0  0  0  0
 22 18  1  0  0  0  0
 23  6  1  0  0  0  0
 23 25  1  0  0  0  0
 24 29  1  0  0  0  0
 25 31  1  1  0  0  0
 25 24  1  0  0  0  0
 26 25  1  0  0  0  0
 26 27  1  0  0  0  0
 27 28  1  0  0  0  0
 28 29  1  0  0  0  0
 28 35  1  0  0  0  0
 29 36  1  1  0  0  0
 29 37  1  0  0  0  0
 30 24  1  0  0  0  0
 32 26  1  0  0  0  0
 33 26  1  0  0  0  0
 34 28  1  0  0  0  0
 37 38  1  0  0  0  0
 39 37  2  0  0  0  0
M  END
>  <minimizedAffinity>
-5.49425077

$$$$

 OpenBabel03272510283D

 39 42  0  0  1  0  0  0  0  0999 V2000
   35.6960   30.6350   32.8130 C   0  0  0  0  0  0  0  0  0  0  0  0
   35.5570   30.0390   34.0450 C   0  0  0  0  0  0  0  0  0  0  0  0
   35.9370   28.7010   34.2530 C   0  0  0  0  0  0  0  0  0  0  0  0
   36.4530   28.0370   33.1450 C   0  0  0  0  0  0  0  0  0  0  0  0
   36.8950   26.7360   33.0950 N   0  0  0  0  0  0  0  0  0  0  0  0
   37.3050   26.5350   31.8280 C   0  0  0  0  0  0  0  0  0  0  0  0
   37.1340   27.6350   31.1240 N   0  0  0  0  0  0  0  0  0  0  0  0
   36.6060   28.5930   31.9060 C   0  0  0  0  0  0  0  0  0  0  0  0
   36.2160   29.9290   31.7380 C   0  0  0  0  0  0  0  0  0  0  0  0
   35.4090   31.6670   32.6270 H   0  0  0  0  0  0  0  0  0  0  0  0
   35.8350   28.2120   35.2190 H   0  0  0  0  0  0  0  0  0  0  0  0
   36.9050   26.0450   33.8930 H   0  0  0  0  0  0  0  0  0  0  0  0
   36.3330   30.3780   30.7640 H   0  0  0  0  0  0  0  0  0  0  0  0
   34.9650   32.3590   36.9470 C   0  0  0  0  0  0  0  0  0  0  0  0
   35.6700   31.7270   35.9240 C   0  0  0  0  0  0  0  0  0  0  0  0
   35.0120   30.8030   35.1560 C   0  0  0  0  0  0  0  0  0  0  0  0
   33.6860   30.5600   35.4510 N   0  0  0  0  0  0  0  0  0  0  0  0
   33.0150   31.1740   36.4410 C   0  0  0  0  0  0  0  0  0  0  0  0
   33.6580   32.0640   37.1780 N   0  0  0  0  0  0  0  0  0  0  0  0
   35.5000   33.0880   37.5460 H   0  0  0  0  0  0  0  0  0  0  0  0
   36.7000   31.9010   35.6750 H   0  0  0  0  0  0  0  0  0  0  0  0
   31.9800   30.8830   36.5580 H   0  0  0  0  0  0  0  0  0  0  0  0
   37.8250   25.3140   31.3960 O   0  0  0  0  0  0  0  0  0  0  0  0
   36.7010   23.3040   31.2880 N   0  0  0  0  0  0  0  0  0  0  0  0
   37.4620   24.1780   32.1690 C   0  0  1  0  0  0  0  0  0  0  0  0
   38.6450   23.4920   32.6660 C   0  0  0  0  0  0  0  0  0  0  0  0
   38.2370   22.3910   33.4390 O   0  0  0  0  0  0  0  0  0  0  0  0
   37.3870   21.5230   32.8190 C   0  0  0  0  0  0  0  0  0  0  0  0
   36.2310   22.2450   32.1500 C   0  0  2  0  0  0  0  0  0  0  0  0
   37.1970   22.8380   30.5440 H   0  0  0  0  0  0  0  0  0  0  0  0
   36.7800   24.4330   33.0040 H   0  0  0  0  0  0  0  0  0  0  0  0
   39.1330   24.1720   33.4310 H   0  0  0  0  0  0  0  0  0  0  0  0
   39.4250   23.1010   32.0720 H   0  0  0  0  0  0  0  0  0  0  0  0
   37.9480   21.0070   32.0120 H   0  0  0  0  0  0  0  0  0  0  0  0
   36.9760   20.8480   33.5680 H   0  0  0  0  0  0  0  0  0  0  0  0
   35.6040   22.6780   32.9560 H   0  0  0  0  0  0  0  0  0  0  0  0
   35.4640   21.2870   31.3120 C   0  0  0  0  0  0  0  0  0  0  0  0
   34.3650   21.2640   31.3760 H   0  0  0  0  0  0  0  0  0  0  0  0
   36.0900   20.5330   30.5580 O   0  0  0  0  0  0  0  0  0  0  0  0
  1  2  1  0  0  0  0
  2  3  2  0  0  0  0
  2 16  1  0  0  0  0
  3 11  1  0  0  0  0
  4  3  1  0  0  0  0
  5  4  1  0  0  0  0
  5 12  1  0  0  0  0
  6  5  1  0  0  0  0
  7  6  2  0  0  0  0
  7  8  1  0  0  0  0
  8  4  2  0  0  0  0
  9  8  1  0  0  0  0
  9  1  2  0  0  0  0
 10  1  1  0  0  0  0
 13  9  1  0  0  0  0
 14 19  1  0  0  0  0
 14 20  1  0  0  0  0
 15 14  2  0  0  0  0
 16 17  2  0  0  0  0
 16 15  1  0  0  0  0
 17 18  1  0  0  0  0
 18 22  1  0  0  0  0
 18 19  2  0  0  0  0
 21 15  1  0  0  0  0
 23  6  1  0  0  0  0
 23 25  1  0  0  0  0
 24 29  1  0  0  0  0
 24 25  1  0  0  0  0
 25 26  1  0  0  0  0
 25 31  1  1  0  0  0
 26 32  1  0  0  0  0
 26 27  1  0  0  0  0
 28 27  1  0  0  0  0
 28 35  1  0  0  0  0
 29 28  1  0  0  0  0
 29 36  1  1  0  0  0
 30 24  1  0  0  0  0
 33 26  1  0  0  0  0
 34 28  1  0  0  0  0
 37 38  1  0  0  0  0
 37 29  1  0  0  0  0
 39 37  2  0  0  0  0
M  END
>  <minimizedAffinity>
-5.29158735

$$$$

 OpenBabel03272510283D

 39 42  0  0  1  0  0  0  0  0999 V2000
   37.3660   23.9700   32.8250 C   0  0  0  0  0  0  0  0  0  0  0  0
   36.4790   23.5850   31.8460 C   0  0  0  0  0  0  0  0  0  0  0  0
   35.9410   24.5180   30.9430 C   0  0  0  0  0  0  0  0  0  0  0  0
   36.3610   25.8340   31.1070 C   0  0  0  0  0  0  0  0  0  0  0  0
   35.9830   26.9210   30.3540 N   0  0  0  0  0  0  0  0  0  0  0  0
   36.6410   27.9740   30.8730 C   0  0  0  0  0  0  0  0  0  0  0  0
   37.3850   27.5820   31.8870 N   0  0  0  0  0  0  0  0  0  0  0  0
   37.2390   26.2570   32.0650 C   0  0  0  0  0  0  0  0  0  0  0  0
   37.7540   25.2970   32.9470 C   0  0  0  0  0  0  0  0  0  0  0  0
   37.7950   23.2680   33.5340 H   0  0  0  0  0  0  0  0  0  0  0  0
   35.2390   24.2330   30.1630 H   0  0  0  0  0  0  0  0  0  0  0  0
   35.3140   26.9170   29.5390 H   0  0  0  0  0  0  0  0  0  0  0  0
   38.4480   25.6200   33.7070 H   0  0  0  0  0  0  0  0  0  0  0  0
   34.8480   20.2070   32.1410 C   0  0  0  0  0  0  0  0  0  0  0  0
   35.0590   21.5630   32.3850 C   0  0  0  0  0  0  0  0  0  0  0  0
   36.0920   22.1860   31.7370 C   0  0  0  0  0  0  0  0  0  0  0  0
   36.8600   21.4220   30.8820 N   0  0  0  0  0  0  0  0  0  0  0  0
   36.6490   20.1140   30.6550 C   0  0  0  0  0  0  0  0  0  0  0  0
   35.6500   19.5200   31.2840 N   0  0  0  0  0  0  0  0  0  0  0  0
   34.0250   19.7280   32.6620 H   0  0  0  0  0  0  0  0  0  0  0  0
   34.4750   22.1780   33.0440 H   0  0  0  0  0  0  0  0  0  0  0  0
   37.3300   19.6420   29.9600 H   0  0  0  0  0  0  0  0  0  0  0  0
   36.5070   29.2650   30.3590 O   0  0  0  0  0  0  0  0  0  0  0  0
   34.8240   29.2450   31.9360 N   0  0  0  0  0  0  0  0  0  0  0  0
   35.5710   30.1020   31.0260 C   0  0  1  0  0  0  0  0  0  0  0  0
   36.2520   31.1540   31.7640 C   0  0  0  0  0  0  0  0  0  0  0  0
   35.2890   31.9650   32.3890 O   0  0  0  0  0  0  0  0  0  0  0  0
   34.3930   31.3080   33.1790 C   0  0  0  0  0  0  0  0  0  0  0  0
   33.7950   30.1030   32.4750 C   0  0  2  0  0  0  0  0  0  0  0  0
   35.3080   28.8770   32.7400 H   0  0  0  0  0  0  0  0  0  0  0  0
   34.8210   30.5350   30.3350 H   0  0  0  0  0  0  0  0  0  0  0  0
   36.7180   31.8530   31.0030 H   0  0  0  0  0  0  0  0  0  0  0  0
   36.9770   31.0070   32.5180 H   0  0  0  0  0  0  0  0  0  0  0  0
   34.9360   30.9200   34.0660 H   0  0  0  0  0  0  0  0  0  0  0  0
   33.5840   31.9920   33.4260 H   0  0  0  0  0  0  0  0  0  0  0  0
   33.1650   30.4860   31.6470 H   0  0  0  0  0  0  0  0  0  0  0  0
   33.0020   29.3040   33.4450 C   0  0  0  0  0  0  0  0  0  0  0  0
   33.4020   29.1160   34.4530 H   0  0  0  0  0  0  0  0  0  0  0  0
   31.9020   28.8670   33.0870 O   0  0  0  0  0  0  0  0  0  0  0  0
  1  9  1  0  0  0  0
  1 10  1  0  0  0  0
  2  1  2  0  0  0  0
  3  4  2  0  0  0  0
  3  2  1  0  0  0  0
  4  8  1  0  0  0  0
  5  6  1  0  0  0  0
  5  4  1  0  0  0  0
  6  7  2  0  0  0  0
  7  8  1  0  0  0  0
  8  9  2  0  0  0  0
  9 13  1  0  0  0  0
 11  3  1  0  0  0  0
 12  5  1  0  0  0  0
 14 15  1  0  0  0  0
 14 20  1  0  0  0  0
 15 21  1  0  0  0  0
 16  2  1  0  0  0  0
 16 15  2  0  0  0  0
 17 16  1  0  0  0  0
 18 17  2  0  0  0  0
 18 19  1  0  0  0  0
 19 14  2  0  0  0  0
 22 18  1  0  0  0  0
 23  6  1  0  0  0  0
 23 25  1  0  0  0  0
 24 29  1  0  0  0  0
 24 30  1  0  0  0  0
 25 31  1  6  0  0  0
 25 26  1  0  0  0  0
 25 24  1  0  0  0  0
 26 27  1  0  0  0  0
 26 33  1  0  0  0  0
 27 28  1  0  0  0  0
 28 35  1  0  0  0  0
 28 34  1  0  0  0  0
 29 36  1  6  0  0  0
 29 28  1  0  0  0  0
 29 37  1  0  0  0  0
 32 26  1  0  0  0  0
 37 38  1  0  0  0  0
 39 37  2  0  0  0  0
M  END
>  <minimizedAffinity>
-5.28515911

$$$$

 OpenBabel03272510283D

 39 42  0  0  1  0  0  0  0  0999 V2000
   38.2740   24.6270   33.7730 C   0  0  0  0  0  0  0  0  0  0  0  0
   38.5000   24.9840   35.0820 C   0  0  0  0  0  0  0  0  0  0  0  0
   38.0090   26.1950   35.6020 C   0  0  0  0  0  0  0  0  0  0  0  0
   37.2940   26.9910   34.7140 C   0  0  0  0  0  0  0  0  0  0  0  0
   36.7150   28.2090   34.9800 N   0  0  0  0  0  0  0  0  0  0  0  0
   36.1330   28.6000   33.8310 C   0  0  0  0  0  0  0  0  0  0  0  0
   36.3310   27.6900   32.8980 N   0  0  0  0  0  0  0  0  0  0  0  0
   37.0490   26.6730   33.4070 C   0  0  0  0  0  0  0  0  0  0  0  0
   37.5540   25.4570   32.9260 C   0  0  0  0  0  0  0  0  0  0  0  0
   38.6440   23.6980   33.3480 H   0  0  0  0  0  0  0  0  0  0  0  0
   38.1770   26.4940   36.6340 H   0  0  0  0  0  0  0  0  0  0  0  0
   36.7300   28.7230   35.9020 H   0  0  0  0  0  0  0  0  0  0  0  0
   37.3670   25.1970   31.8960 H   0  0  0  0  0  0  0  0  0  0  0  0
   39.7440   22.7610   37.8520 C   0  0  0  0  0  0  0  0  0  0  0  0
   38.8730   23.6140   37.1750 C   0  0  0  0  0  0  0  0  0  0  0  0
   39.2550   24.0930   35.9500 C   0  0  0  0  0  0  0  0  0  0  0  0
   40.4860   23.6960   35.4670 N   0  0  0  0  0  0  0  0  0  0  0  0
   41.3190   22.8740   36.1290 C   0  0  0  0  0  0  0  0  0  0  0  0
   40.9430   22.4160   37.3110 N   0  0  0  0  0  0  0  0  0  0  0  0
   39.4270   22.3900   38.8210 H   0  0  0  0  0  0  0  0  0  0  0  0
   37.9110   23.9350   37.5290 H   0  0  0  0  0  0  0  0  0  0  0  0
   42.2510   22.6490   35.6300 H   0  0  0  0  0  0  0  0  0  0  0  0
   35.4370   29.8040   33.7170 O   0  0  0  0  0  0  0  0  0  0  0  0
   36.0210   31.8900   34.5080 N   0  0  0  0  0  0  0  0  0  0  0  0
   35.4160   30.6190   34.8810 C   0  0  1  0  0  0  0  0  0  0  0  0
   34.0530   30.8240   35.3450 C   0  0  0  0  0  0  0  0  0  0  0  0
   34.0830   31.6160   36.5050 O   0  0  0  0  0  0  0  0  0  0  0  0
   34.7480   32.8010   36.3880 C   0  0  0  0  0  0  0  0  0  0  0  0
   36.1140   32.6230   35.7480 C   0  0  2  0  0  0  0  0  0  0  0  0
   35.5060   32.4910   33.8840 H   0  0  0  0  0  0  0  0  0  0  0  0
   36.0480   30.2130   35.6960 H   0  0  0  0  0  0  0  0  0  0  0  0
   33.6740   29.8260   35.7290 H   0  0  0  0  0  0  0  0  0  0  0  0
   33.2670   31.2440   34.7790 H   0  0  0  0  0  0  0  0  0  0  0  0
   34.1640   33.4580   35.7100 H   0  0  0  0  0  0  0  0  0  0  0  0
   34.8920   33.2160   37.3840 H   0  0  0  0  0  0  0  0  0  0  0  0
   36.7400   32.0540   36.4650 H   0  0  0  0  0  0  0  0  0  0  0  0
   36.6970   33.9550   35.4440 C   0  0  0  0  0  0  0  0  0  0  0  0
   36.0340   34.8000   35.2030 H   0  0  0  0  0  0  0  0  0  0  0  0
   37.9270   34.0790   35.4710 O   0  0  0  0  0  0  0  0  0  0  0  0
  1  2  1  0  0  0  0
  2  3  2  0  0  0  0
  2 16  1  0  0  0  0
  3 11  1  0  0  0  0
  4  5  1  0  0  0  0
  4  3  1  0  0  0  0
  5 12  1  0  0  0  0
  6  5  1  0  0  0  0
  7  8  1  0  0  0  0
  7  6  2  0  0  0  0
  8  4  2  0  0  0  0
  9  8  1  0  0  0  0
  9  1  2  0  0  0  0
 10  1  1  0  0  0  0
 13  9  1  0  0  0  0
 14 20  1  0  0  0  0
 15 21  1  0  0  0  0
 15 14  2  0  0  0  0
 16 15  1  0  0  0  0
 17 16  2  0  0  0  0
 17 18  1  0  0  0  0
 18 19  2  0  0  0  0
 19 14  1  0  0  0  0
 22 18  1  0  0  0  0
 23  6  1  0  0  0  0
 23 25  1  0  0  0  0
 24 25  1  0  0  0  0
 24 29  1  0  0  0  0
 25 26  1  0  0  0  0
 25 31  1  1  0  0  0
 26 32  1  0  0  0  0
 26 27  1  0  0  0  0
 28 27  1  0  0  0  0
 28 35  1  0  0  0  0
 29 28  1  0  0  0  0
 29 36  1  1  0  0  0
 30 24  1  0  0  0  0
 33 26  1  0  0  0  0
 34 28  1  0  0  0  0
 37 39  2  0  0  0  0
 37 29  1  0  0  0  0
 38 37  1  0  0  0  0
M  END
>  <minimizedAffinity>
-5.28082848

$$$$

 OpenBabel03272510283D

 39 42  0  0  1  0  0  0  0  0999 V2000
   37.5630   27.8580   35.1050 C   0  0  0  0  0  0  0  0  0  0  0  0
   37.1940   27.3460   33.8830 C   0  0  0  0  0  0  0  0  0  0  0  0
   37.3700   25.9840   33.5800 C   0  0  0  0  0  0  0  0  0  0  0  0
   37.9340   25.2070   34.5860 C   0  0  0  0  0  0  0  0  0  0  0  0
   38.2030   23.8590   34.5360 N   0  0  0  0  0  0  0  0  0  0  0  0
   38.7380   23.5450   35.7300 C   0  0  0  0  0  0  0  0  0  0  0  0
   38.8040   24.6220   36.4870 N   0  0  0  0  0  0  0  0  0  0  0  0
   38.3140   25.6770   35.8120 C   0  0  0  0  0  0  0  0  0  0  0  0
   38.1230   27.0400   36.0760 C   0  0  0  0  0  0  0  0  0  0  0  0
   37.4380   28.9060   35.3620 H   0  0  0  0  0  0  0  0  0  0  0  0
   37.0850   25.5610   32.6200 H   0  0  0  0  0  0  0  0  0  0  0  0
   38.0220   23.2140   33.7210 H   0  0  0  0  0  0  0  0  0  0  0  0
   38.4200   27.4210   37.0410 H   0  0  0  0  0  0  0  0  0  0  0  0
   35.1070   29.8100   31.9530 C   0  0  0  0  0  0  0  0  0  0  0  0
   35.5130   29.0360   33.0380 C   0  0  0  0  0  0  0  0  0  0  0  0
   36.6060   28.2250   32.8830 C   0  0  0  0  0  0  0  0  0  0  0  0
   37.2340   28.2310   31.6540 N   0  0  0  0  0  0  0  0  0  0  0  0
   36.8330   28.9820   30.6140 C   0  0  0  0  0  0  0  0  0  0  0  0
   35.7770   29.7610   30.7710 N   0  0  0  0  0  0  0  0  0  0  0  0
   34.2390   30.4470   32.0910 H   0  0  0  0  0  0  0  0  0  0  0  0
   35.0420   29.0150   34.0030 H   0  0  0  0  0  0  0  0  0  0  0  0
   37.4200   28.8850   29.7110 H   0  0  0  0  0  0  0  0  0  0  0  0
   39.1390   22.2470   36.0510 O   0  0  0  0  0  0  0  0  0  0  0  0
   41.1420   23.1950   35.4100 N   0  0  0  0  0  0  0  0  0  0  0  0
   40.5340   21.9900   35.9560 C   0  0  1  0  0  0  0  0  0  0  0  0
   41.0940   21.6880   37.2650 C   0  0  0  0  0  0  0  0  0  0  0  0
   42.4660   21.4220   37.1190 O   0  0  0  0  0  0  0  0  0  0  0  0
   43.1860   22.3910   36.4860 C   0  0  0  0  0  0  0  0  0  0  0  0
   42.5230   22.8360   35.1940 C   0  0  2  0  0  0  0  0  0  0  0  0
   41.1700   24.0150   35.9970 H   0  0  0  0  0  0  0  0  0  0  0  0
   40.7690   21.1810   35.2370 H   0  0  0  0  0  0  0  0  0  0  0  0
   40.6740   20.6860   37.5880 H   0  0  0  0  0  0  0  0  0  0  0  0
   41.0520   22.3170   38.1120 H   0  0  0  0  0  0  0  0  0  0  0  0
   43.2220   23.2820   37.1470 H   0  0  0  0  0  0  0  0  0  0  0  0
   44.1670   21.9870   36.2410 H   0  0  0  0  0  0  0  0  0  0  0  0
   42.5740   21.9830   34.4880 H   0  0  0  0  0  0  0  0  0  0  0  0
   43.2240   24.0330   34.6620 C   0  0  0  0  0  0  0  0  0  0  0  0
   43.8710   23.9380   33.7770 H   0  0  0  0  0  0  0  0  0  0  0  0
   43.0580   25.1150   35.2360 O   0  0  0  0  0  0  0  0  0  0  0  0
  1 10  1  0  0  0  0
  1  9  1  0  0  0  0
  2  1  2  0  0  0  0
  3  2  1  0  0  0  0
  3  4  2  0  0  0  0
  4  8  1  0  0  0  0
  5  4  1  0  0  0  0
  5  6  1  0  0  0  0
  6 23  1  0  0  0  0
  6  7  2  0  0  0  0
  8  9  2  0  0  0  0
  8  7  1  0  0  0  0
  9 13  1  0  0  0  0
 11  3  1  0  0  0  0
 12  5  1  0  0  0  0
 14 20  1  0  0  0  0
 14 15  1  0  0  0  0
 15 21  1  0  0  0  0
 16 15  2  0  0  0  0
 16  2  1  0  0  0  0
 17 16  1  0  0  0  0
 18 19  1  0  0  0  0
 18 17  2  0  0  0  0
 19 14  2  0  0  0  0
 22 18  1  0  0  0  0
 24 25  1  0  0  0  0
 24 30  1  0  0  0  0
 25 31  1  6  0  0  0
 25 23  1  0  0  0  0
 25 26  1  0  0  0  0
 26 32  1  0  0  0  0
 26 33  1  0  0  0  0
 27 26  1  0  0  0  0
 28 27  1  0  0  0  0
 28 34  1  0  0  0  0
 29 36  1  6  0  0  0
 29 24  1  0  0  0  0
 29 28  1  0  0  0  0
 35 28  1  0  0  0  0
 37 29  1  0  0  0  0
 37 39  2  0  0  0  0
 38 37  1  0  0  0  0
M  END
>  <minimizedAffinity>
-5.26125813

$$$$

 OpenBabel03272510283D

 39 42  0  0  1  0  0  0  0  0999 V2000
   37.3030   26.8970   35.2980 C   0  0  0  0  0  0  0  0  0  0  0  0
   38.0140   25.8460   34.7660 C   0  0  0  0  0  0  0  0  0  0  0  0
   38.2230   25.7360   33.3800 C   0  0  0  0  0  0  0  0  0  0  0  0
   37.6710   26.7460   32.6000 C   0  0  0  0  0  0  0  0  0  0  0  0
   37.7400   26.8640   31.2320 N   0  0  0  0  0  0  0  0  0  0  0  0
   37.0690   27.9900   30.9250 C   0  0  0  0  0  0  0  0  0  0  0  0
   36.6060   28.5480   32.0250 N   0  0  0  0  0  0  0  0  0  0  0  0
   36.9580   27.8050   33.0890 C   0  0  0  0  0  0  0  0  0  0  0  0
   36.7700   27.8800   34.4760 C   0  0  0  0  0  0  0  0  0  0  0  0
   37.1260   27.0030   36.3650 H   0  0  0  0  0  0  0  0  0  0  0  0
   38.7820   24.9130   32.9410 H   0  0  0  0  0  0  0  0  0  0  0  0
   38.2230   26.2010   30.5690 H   0  0  0  0  0  0  0  0  0  0  0  0
   36.2090   28.7120   34.8730 H   0  0  0  0  0  0  0  0  0  0  0  0
   40.0730   23.1770   36.4370 C   0  0  0  0  0  0  0  0  0  0  0  0
   39.7120   24.1060   35.4630 C   0  0  0  0  0  0  0  0  0  0  0  0
   38.5640   24.8300   35.6510 C   0  0  0  0  0  0  0  0  0  0  0  0
   37.8390   24.5860   36.7990 N   0  0  0  0  0  0  0  0  0  0  0  0
   38.1960   23.6860   37.7320 C   0  0  0  0  0  0  0  0  0  0  0  0
   39.3040   22.9910   37.5430 N   0  0  0  0  0  0  0  0  0  0  0  0
   40.9850   22.6110   36.2740 H   0  0  0  0  0  0  0  0  0  0  0  0
   40.2600   24.3140   34.5630 H   0  0  0  0  0  0  0  0  0  0  0  0
   37.5310   23.6010   38.5800 H   0  0  0  0  0  0  0  0  0  0  0  0
   36.9270   28.4410   29.6120 O   0  0  0  0  0  0  0  0  0  0  0  0
   38.5440   27.7050   28.1410 N   0  0  0  0  0  0  0  0  0  0  0  0
   38.1260   28.8350   28.9600 C   0  0  1  0  0  0  0  0  0  0  0  0
   37.9010   30.0080   28.1280 C   0  0  0  0  0  0  0  0  0  0  0  0
   39.1150   30.3710   27.5210 O   0  0  0  0  0  0  0  0  0  0  0  0
   39.7390   29.3820   26.8210 C   0  0  0  0  0  0  0  0  0  0  0  0
   39.8320   28.0940   27.6200 C   0  0  2  0  0  0  0  0  0  0  0  0
   37.9880   27.4810   27.3300 H   0  0  0  0  0  0  0  0  0  0  0  0
   38.9570   29.0150   29.6700 H   0  0  0  0  0  0  0  0  0  0  0  0
   37.6940   30.8790   28.8240 H   0  0  0  0  0  0  0  0  0  0  0  0
   37.2010   30.0800   27.3420 H   0  0  0  0  0  0  0  0  0  0  0  0
   39.1260   29.1550   25.9240 H   0  0  0  0  0  0  0  0  0  0  0  0
   40.7510   29.7090   26.5870 H   0  0  0  0  0  0  0  0  0  0  0  0
   40.5280   28.2810   28.4630 H   0  0  0  0  0  0  0  0  0  0  0  0
   40.3150   26.9980   26.7420 C   0  0  0  0  0  0  0  0  0  0  0  0
   40.5900   26.0260   27.1820 H   0  0  0  0  0  0  0  0  0  0  0  0
   40.3960   27.2090   25.5270 O   0  0  0  0  0  0  0  0  0  0  0  0
  1 10  1  0  0  0  0
  2  1  1  0  0  0  0
  2 16  1  0  0  0  0
  3  2  2  0  0  0  0
  4  8  2  0  0  0  0
  4  3  1  0  0  0  0
  5  4  1  0  0  0  0
  6  5  1  0  0  0  0
  6  7  2  0  0  0  0
  7  8  1  0  0  0  0
  8  9  1  0  0  0  0
  9 13  1  0  0  0  0
  9  1  2  0  0  0  0
 11  3  1  0  0  0  0
 12  5  1  0  0  0  0
 14 19  1  0  0  0  0
 15 16  1  0  0  0  0
 15 14  2  0  0  0  0
 16 17  2  0  0  0  0
 17 18  1  0  0  0  0
 18 22  1  0  0  0  0
 19 18  2  0  0  0  0
 20 14  1  0  0  0  0
 21 15  1  0  0  0  0
 23  6  1  0  0  0  0
 24 25  1  0  0  0  0
 25 23  1  0  0  0  0
 25 31  1  1  0  0  0
 26 32  1  0  0  0  0
 26 25  1  0  0  0  0
 27 26  1  0  0  0  0
 28 27  1  0  0  0  0
 28 29  1  0  0  0  0
 29 24  1  0  0  0  0
 29 36  1  1  0  0  0
 30 24  1  0  0  0  0
 33 26  1  0  0  0  0
 34 28  1  0  0  0  0
 35 28  1  0  0  0  0
 37 38  1  0  0  0  0
 37 29  1  0  0  0  0
 39 37  2  0  0  0  0
M  END
>  <minimizedAffinity>
-5.19184542

$$$$

 OpenBabel03272510283D

 39 42  0  0  1  0  0  0  0  0999 V2000
   38.0850   24.3330   33.7790 C   0  0  0  0  0  0  0  0  0  0  0  0
   38.0250   24.9500   35.0070 C   0  0  0  0  0  0  0  0  0  0  0  0
   37.4760   26.2370   35.1500 C   0  0  0  0  0  0  0  0  0  0  0  0
   37.0070   26.8300   33.9830 C   0  0  0  0  0  0  0  0  0  0  0  0
   36.4280   28.0710   33.8630 N   0  0  0  0  0  0  0  0  0  0  0  0
   36.1320   28.2150   32.5580 C   0  0  0  0  0  0  0  0  0  0  0  0
   36.4990   27.1370   31.8950 N   0  0  0  0  0  0  0  0  0  0  0  0
   37.0480   26.2510   32.7450 C   0  0  0  0  0  0  0  0  0  0  0  0
   37.6020   24.9680   32.6430 C   0  0  0  0  0  0  0  0  0  0  0  0
   38.5050   23.3410   33.6430 H   0  0  0  0  0  0  0  0  0  0  0  0
   37.4210   26.7400   36.1120 H   0  0  0  0  0  0  0  0  0  0  0  0
   36.2560   28.7610   34.6430 H   0  0  0  0  0  0  0  0  0  0  0  0
   37.6400   24.5020   31.6700 H   0  0  0  0  0  0  0  0  0  0  0  0
   39.9290   22.8370   37.4700 C   0  0  0  0  0  0  0  0  0  0  0  0
   39.5950   23.3950   36.2370 C   0  0  0  0  0  0  0  0  0  0  0  0
   38.5350   24.2610   36.1830 C   0  0  0  0  0  0  0  0  0  0  0  0
   37.8660   24.5230   37.3610 N   0  0  0  0  0  0  0  0  0  0  0  0
   38.1970   23.9780   38.5450 C   0  0  0  0  0  0  0  0  0  0  0  0
   39.2210   23.1440   38.5900 N   0  0  0  0  0  0  0  0  0  0  0  0
   40.7710   22.1530   37.4970 H   0  0  0  0  0  0  0  0  0  0  0  0
   40.1000   23.2070   35.3080 H   0  0  0  0  0  0  0  0  0  0  0  0
   37.5840   24.2740   39.3860 H   0  0  0  0  0  0  0  0  0  0  0  0
   35.5240   29.3650   32.0520 O   0  0  0  0  0  0  0  0  0  0  0  0
   36.7050   29.3900   30.0720 N   0  0  0  0  0  0  0  0  0  0  0  0
   36.3430   30.1890   31.2340 C   0  0  1  0  0  0  0  0  0  0  0  0
   35.6250   31.3860   30.8220 C   0  0  0  0  0  0  0  0  0  0  0  0
   36.4780   32.1770   30.0340 O   0  0  0  0  0  0  0  0  0  0  0  0
   37.0400   31.5450   28.9640 C   0  0  0  0  0  0  0  0  0  0  0  0
   37.6500   30.2100   29.3510 C   0  0  2  0  0  0  0  0  0  0  0  0
   35.9810   29.1740   29.4050 H   0  0  0  0  0  0  0  0  0  0  0  0
   37.2990   30.4580   31.7240 H   0  0  0  0  0  0  0  0  0  0  0  0
   35.4720   32.0220   31.7480 H   0  0  0  0  0  0  0  0  0  0  0  0
   34.7120   31.4040   30.2930 H   0  0  0  0  0  0  0  0  0  0  0  0
   36.2350   31.3260   28.2320 H   0  0  0  0  0  0  0  0  0  0  0  0
   37.8330   32.1770   28.5670 H   0  0  0  0  0  0  0  0  0  0  0  0
   38.5220   30.4240   30.0020 H   0  0  0  0  0  0  0  0  0  0  0  0
   38.0470   29.4710   28.1250 C   0  0  0  0  0  0  0  0  0  0  0  0
   37.3060   29.2930   27.3310 H   0  0  0  0  0  0  0  0  0  0  0  0
   39.2130   29.0710   28.0310 O   0  0  0  0  0  0  0  0  0  0  0  0
  1  2  1  0  0  0  0
  2  3  2  0  0  0  0
  2 16  1  0  0  0  0
  3 11  1  0  0  0  0
  4  3  1  0  0  0  0
  5  4  1  0  0  0  0
  5 12  1  0  0  0  0
  6  5  1  0  0  0  0
  7  6  2  0  0  0  0
  7  8  1  0  0  0  0
  8  4  2  0  0  0  0
  9  8  1  0  0  0  0
  9  1  2  0  0  0  0
 10  1  1  0  0  0  0
 13  9  1  0  0  0  0
 14 20  1  0  0  0  0
 14 19  1  0  0  0  0
 15 14  2  0  0  0  0
 16 15  1  0  0  0  0
 16 17  2  0  0  0  0
 17 18  1  0  0  0  0
 18 19  2  0  0  0  0
 18 22  1  0  0  0  0
 21 15  1  0  0  0  0
 23  6  1  0  0  0  0
 24 25  1  0  0  0  0
 25 31  1  1  0  0  0
 25 23  1  0  0  0  0
 26 25  1  0  0  0  0
 26 32  1  0  0  0  0
 27 26  1  0  0  0  0
 28 29  1  0  0  0  0
 28 27  1  0  0  0  0
 29 36  1  1  0  0  0
 29 24  1  0  0  0  0
 30 24  1  0  0  0  0
 33 26  1  0  0  0  0
 34 28  1  0  0  0  0
 35 28  1  0  0  0  0
 37 29  1  0  0  0  0
 38 37  1  0  0  0  0
 39 37  2  0  0  0  0
M  END
>  <minimizedAffinity>
-5.18467569

$$$$
