
 OpenBabel03272510263D

 39 42  0  0  1  0  0  0  0  0999 V2000
   35.9840   30.0630   46.9810 C   0  0  0  0  0  0  0  0  0  0  0  0
   36.8970   30.6320   47.8380 C   0  0  0  0  0  0  0  0  0  0  0  0
   37.8630   31.5420   47.3740 C   0  0  0  0  0  0  0  0  0  0  0  0
   37.8310   31.8200   46.0120 C   0  0  0  0  0  0  0  0  0  0  0  0
   38.6620   32.6720   45.3230 N   0  0  0  0  0  0  0  0  0  0  0  0
   38.2570   32.6240   44.0400 C   0  0  0  0  0  0  0  0  0  0  0  0
   37.2380   31.7970   43.9240 N   0  0  0  0  0  0  0  0  0  0  0  0
   36.9420   31.2760   45.1280 C   0  0  0  0  0  0  0  0  0  0  0  0
   35.9930   30.3730   45.6280 C   0  0  0  0  0  0  0  0  0  0  0  0
   35.2290   29.3570   47.3150 H   0  0  0  0  0  0  0  0  0  0  0  0
   38.5930   32.0020   48.0360 H   0  0  0  0  0  0  0  0  0  0  0  0
   39.4520   33.2410   45.7290 H   0  0  0  0  0  0  0  0  0  0  0  0
   35.2870   29.9370   44.9390 H   0  0  0  0  0  0  0  0  0  0  0  0
   37.5970   30.1570   51.5050 C   0  0  0  0  0  0  0  0  0  0  0  0
   37.8230   30.5660   50.1910 C   0  0  0  0  0  0  0  0  0  0  0  0
   36.8630   30.2930   49.2530 C   0  0  0  0  0  0  0  0  0  0  0  0
   35.7310   29.6270   49.6760 N   0  0  0  0  0  0  0  0  0  0  0  0
   35.5240   29.2360   50.9460 C   0  0  0  0  0  0  0  0  0  0  0  0
   36.4550   29.5030   51.8450 N   0  0  0  0  0  0  0  0  0  0  0  0
   38.3670   30.3810   52.2360 H   0  0  0  0  0  0  0  0  0  0  0  0
   38.6930   31.0860   49.8380 H   0  0  0  0  0  0  0  0  0  0  0  0
   34.5900   28.7230   51.1340 H   0  0  0  0  0  0  0  0  0  0  0  0
   38.8730   33.3700   43.0340 O   0  0  0  0  0  0  0  0  0  0  0  0
   39.8320   31.3150   42.6110 N   0  0  0  0  0  0  0  0  0  0  0  0
   39.5450   32.6200   42.0310 C   0  0  1  0  0  0  0  0  0  0  0  0
   38.7100   32.4750   40.8480 C   0  0  0  0  0  0  0  0  0  0  0  0
   39.4210   31.7460   39.8790 O   0  0  0  0  0  0  0  0  0  0  0  0
   39.9050   30.5400   40.2920 C   0  0  0  0  0  0  0  0  0  0  0  0
   40.6380   30.6480   41.6170 C   0  0  2  0  0  0  0  0  0  0  0  0
   39.0550   30.6950   42.7810 H   0  0  0  0  0  0  0  0  0  0  0  0
   40.5280   33.0530   41.7630 H   0  0  0  0  0  0  0  0  0  0  0  0
   38.6160   33.5010   40.3750 H   0  0  0  0  0  0  0  0  0  0  0  0
   37.7460   32.0450   40.8230 H   0  0  0  0  0  0  0  0  0  0  0  0
   39.0420   29.8630   40.4620 H   0  0  0  0  0  0  0  0  0  0  0  0
   40.6070   30.1760   39.5450 H   0  0  0  0  0  0  0  0  0  0  0  0
   41.5590   31.2380   41.4350 H   0  0  0  0  0  0  0  0  0  0  0  0
   40.9490   29.2870   42.1250 C   0  0  0  0  0  0  0  0  0  0  0  0
   40.3170   28.8380   42.9060 H   0  0  0  0  0  0  0  0  0  0  0  0
   41.9220   28.6900   41.6490 O   0  0  0  0  0  0  0  0  0  0  0  0
  1 10  1  0  0  0  0
  1  2  1  0  0  0  0
  2 16  1  0  0  0  0
  3  2  2  0  0  0  0
  3 11  1  0  0  0  0
  4  3  1  0  0  0  0
  5 12  1  0  0  0  0
  5  4  1  0  0  0  0
  6  5  1  0  0  0  0
  7  6  2  0  0  0  0
  7  8  1  0  0  0  0
  8  9  1  0  0  0  0
  8  4  2  0  0  0  0
  9  1  2  0  0  0  0
 13  9  1  0  0  0  0
 14 19  1  0  0  0  0
 14 20  1  0  0  0  0
 15 14  2  0  0  0  0
 16 17  2  0  0  0  0
 16 15  1  0  0  0  0
 17 18  1  0  0  0  0
 18 22  1  0  0  0  0
 18 19  2  0  0  0  0
 21 15  1  0  0  0  0
 23  6  1  0  0  0  0
 24 30  1  0  0  0  0
 25 31  1  6  0  0  0
 25 24  1  0  0  0  0
 25 23  1  0  0  0  0
 26 25  1  0  0  0  0
 27 28  1  0  0  0  0
 27 26  1  0  0  0  0
 28 34  1  0  0  0  0
 28 29  1  0  0  0  0
 29 36  1  6  0  0  0
 29 37  1  0  0  0  0
 29 24  1  0  0  0  0
 32 26  1  0  0  0  0
 33 26  1  0  0  0  0
 35 28  1  0  0  0  0
 37 38  1  0  0  0  0
 39 37  2  0  0  0  0
M  END
>  <minimizedAffinity>
-5.61166573

>  <minimizedRMSD>
1.27202487

$$$$
