
 OpenBabel03272510263D

 39 42  0  0  1  0  0  0  0  0999 V2000
   35.9840   30.0640   46.9820 C   0  0  0  0  0  0  0  0  0  0  0  0
   36.8970   30.6330   47.8390 C   0  0  0  0  0  0  0  0  0  0  0  0
   37.8640   31.5420   47.3750 C   0  0  0  0  0  0  0  0  0  0  0  0
   37.8320   31.8200   46.0130 C   0  0  0  0  0  0  0  0  0  0  0  0
   38.6640   32.6710   45.3240 N   0  0  0  0  0  0  0  0  0  0  0  0
   38.2590   32.6240   44.0410 C   0  0  0  0  0  0  0  0  0  0  0  0
   37.2390   31.7970   43.9250 N   0  0  0  0  0  0  0  0  0  0  0  0
   36.9420   31.2770   45.1280 C   0  0  0  0  0  0  0  0  0  0  0  0
   35.9940   30.3740   45.6290 C   0  0  0  0  0  0  0  0  0  0  0  0
   35.2290   29.3580   47.3150 H   0  0  0  0  0  0  0  0  0  0  0  0
   38.5940   32.0010   48.0370 H   0  0  0  0  0  0  0  0  0  0  0  0
   39.4540   33.2400   45.7300 H   0  0  0  0  0  0  0  0  0  0  0  0
   35.2870   29.9390   44.9390 H   0  0  0  0  0  0  0  0  0  0  0  0
   37.5970   30.1570   51.5050 C   0  0  0  0  0  0  0  0  0  0  0  0
   37.8220   30.5650   50.1920 C   0  0  0  0  0  0  0  0  0  0  0  0
   36.8630   30.2930   49.2540 C   0  0  0  0  0  0  0  0  0  0  0  0
   35.7300   29.6270   49.6770 N   0  0  0  0  0  0  0  0  0  0  0  0
   35.5230   29.2360   50.9460 C   0  0  0  0  0  0  0  0  0  0  0  0
   36.4540   29.5030   51.8460 N   0  0  0  0  0  0  0  0  0  0  0  0
   38.3670   30.3800   52.2370 H   0  0  0  0  0  0  0  0  0  0  0  0
   38.6940   31.0850   49.8390 H   0  0  0  0  0  0  0  0  0  0  0  0
   34.5900   28.7230   51.1340 H   0  0  0  0  0  0  0  0  0  0  0  0
   38.8750   33.3700   43.0350 O   0  0  0  0  0  0  0  0  0  0  0  0
   39.8310   31.3140   42.6100 N   0  0  0  0  0  0  0  0  0  0  0  0
   39.5450   32.6190   42.0310 C   0  0  1  0  0  0  0  0  0  0  0  0
   38.7090   32.4770   40.8490 C   0  0  0  0  0  0  0  0  0  0  0  0
   39.4180   31.7480   39.8790 O   0  0  0  0  0  0  0  0  0  0  0  0
   39.9010   30.5400   40.2910 C   0  0  0  0  0  0  0  0  0  0  0  0
   40.6360   30.6470   41.6150 C   0  0  2  0  0  0  0  0  0  0  0  0
   39.0540   30.6950   42.7810 H   0  0  0  0  0  0  0  0  0  0  0  0
   40.5290   33.0520   41.7630 H   0  0  0  0  0  0  0  0  0  0  0  0
   38.6160   33.5040   40.3760 H   0  0  0  0  0  0  0  0  0  0  0  0
   37.7450   32.0480   40.8240 H   0  0  0  0  0  0  0  0  0  0  0  0
   39.0370   29.8640   40.4610 H   0  0  0  0  0  0  0  0  0  0  0  0
   40.6020   30.1760   39.5430 H   0  0  0  0  0  0  0  0  0  0  0  0
   41.5570   31.2360   41.4330 H   0  0  0  0  0  0  0  0  0  0  0  0
   40.9450   29.2850   42.1230 C   0  0  0  0  0  0  0  0  0  0  0  0
   40.3050   28.8310   42.8930 H   0  0  0  0  0  0  0  0  0  0  0  0
   41.9270   28.6940   41.6580 O   0  0  0  0  0  0  0  0  0  0  0  0
  1 10  1  0  0  0  0
  1  2  1  0  0  0  0
  2 16  1  0  0  0  0
  3  2  2  0  0  0  0
  3 11  1  0  0  0  0
  4  3  1  0  0  0  0
  5 12  1  0  0  0  0
  5  4  1  0  0  0  0
  6  5  1  0  0  0  0
  7  6  2  0  0  0  0
  7  8  1  0  0  0  0
  8  9  1  0  0  0  0
  8  4  2  0  0  0  0
  9  1  2  0  0  0  0
 13  9  1  0  0  0  0
 14 19  1  0  0  0  0
 14 20  1  0  0  0  0
 15 14  2  0  0  0  0
 16 17  2  0  0  0  0
 16 15  1  0  0  0  0
 17 18  1  0  0  0  0
 18 22  1  0  0  0  0
 18 19  2  0  0  0  0
 21 15  1  0  0  0  0
 23  6  1  0  0  0  0
 24 30  1  0  0  0  0
 25 31  1  6  0  0  0
 25 24  1  0  0  0  0
 25 23  1  0  0  0  0
 26 25  1  0  0  0  0
 27 28  1  0  0  0  0
 27 26  1  0  0  0  0
 28 34  1  0  0  0  0
 28 29  1  0  0  0  0
 29 36  1  6  0  0  0
 29 37  1  0  0  0  0
 29 24  1  0  0  0  0
 32 26  1  0  0  0  0
 33 26  1  0  0  0  0
 35 28  1  0  0  0  0
 37 38  1  0  0  0  0
 39 37  2  0  0  0  0
M  END
>  <minimizedAffinity>
-5.6119895

>  <minimizedRMSD>
1.2693094

$$$$
