
 OpenBabel03272510263D

 39 42  0  0  1  0  0  0  0  0999 V2000
   36.2430   30.1990   46.8510 C   0  0  0  0  0  0  0  0  0  0  0  0
   37.0870   30.7390   47.7930 C   0  0  0  0  0  0  0  0  0  0  0  0
   38.0930   31.6530   47.4310 C   0  0  0  0  0  0  0  0  0  0  0  0
   38.1710   31.9650   46.0780 C   0  0  0  0  0  0  0  0  0  0  0  0
   39.0590   32.8280   45.4800 N   0  0  0  0  0  0  0  0  0  0  0  0
   38.7590   32.8160   44.1680 C   0  0  0  0  0  0  0  0  0  0  0  0
   37.7470   31.9990   43.9490 N   0  0  0  0  0  0  0  0  0  0  0  0
   37.3520   31.4510   45.1120 C   0  0  0  0  0  0  0  0  0  0  0  0
   36.3620   30.5420   45.5120 C   0  0  0  0  0  0  0  0  0  0  0  0
   35.4590   29.4900   47.1050 H   0  0  0  0  0  0  0  0  0  0  0  0
   38.7690   32.0900   48.1610 H   0  0  0  0  0  0  0  0  0  0  0  0
   39.8180   33.3800   45.9620 H   0  0  0  0  0  0  0  0  0  0  0  0
   35.7110   30.1300   44.7570 H   0  0  0  0  0  0  0  0  0  0  0  0
   37.4900   30.1640   51.4900 C   0  0  0  0  0  0  0  0  0  0  0  0
   37.8220   30.6030   50.2090 C   0  0  0  0  0  0  0  0  0  0  0  0
   36.9380   30.3640   49.1910 C   0  0  0  0  0  0  0  0  0  0  0  0
   35.7700   29.6990   49.5060 N   0  0  0  0  0  0  0  0  0  0  0  0
   35.4600   29.2790   50.7450 C   0  0  0  0  0  0  0  0  0  0  0  0
   36.3190   29.5130   51.7210 N   0  0  0  0  0  0  0  0  0  0  0  0
   38.2020   30.3610   52.2850 H   0  0  0  0  0  0  0  0  0  0  0  0
   38.7230   31.1230   49.9400 H   0  0  0  0  0  0  0  0  0  0  0  0
   34.5110   28.7710   50.8440 H   0  0  0  0  0  0  0  0  0  0  0  0
   39.4570   33.5820   43.2340 O   0  0  0  0  0  0  0  0  0  0  0  0
   39.5800   31.8370   41.7310 N   0  0  0  0  0  0  0  0  0  0  0  0
   39.2380   33.2460   41.8710 C   0  0  1  0  0  0  0  0  0  0  0  0
   37.8500   33.4700   41.5000 C   0  0  0  0  0  0  0  0  0  0  0  0
   37.6860   33.1440   40.1420 O   0  0  0  0  0  0  0  0  0  0  0  0
   38.0960   31.8930   39.7870 C   0  0  0  0  0  0  0  0  0  0  0  0
   39.4860   31.5830   40.3130 C   0  0  2  0  0  0  0  0  0  0  0  0
   38.9690   31.1600   42.1620 H   0  0  0  0  0  0  0  0  0  0  0  0
   39.9170   33.7900   41.1850 H   0  0  0  0  0  0  0  0  0  0  0  0
   37.6740   34.5900   41.5150 H   0  0  0  0  0  0  0  0  0  0  0  0
   37.0100   33.0290   41.9620 H   0  0  0  0  0  0  0  0  0  0  0  0
   37.4080   31.1590   40.2550 H   0  0  0  0  0  0  0  0  0  0  0  0
   38.1250   31.8360   38.7000 H   0  0  0  0  0  0  0  0  0  0  0  0
   40.1960   32.2420   39.7750 H   0  0  0  0  0  0  0  0  0  0  0  0
   39.7920   30.1460   40.0910 C   0  0  0  0  0  0  0  0  0  0  0  0
   39.5540   29.4080   40.8720 H   0  0  0  0  0  0  0  0  0  0  0  0
   40.3140   29.8150   39.0190 O   0  0  0  0  0  0  0  0  0  0  0  0
  1 10  1  0  0  0  0
  1  2  1  0  0  0  0
  2 16  1  0  0  0  0
  3  2  2  0  0  0  0
  3 11  1  0  0  0  0
  4  3  1  0  0  0  0
  5 12  1  0  0  0  0
  5  4  1  0  0  0  0
  6  5  1  0  0  0  0
  7  6  2  0  0  0  0
  7  8  1  0  0  0  0
  8  9  1  0  0  0  0
  8  4  2  0  0  0  0
  9  1  2  0  0  0  0
 13  9  1  0  0  0  0
 14 19  1  0  0  0  0
 14 20  1  0  0  0  0
 15 14  2  0  0  0  0
 16 17  2  0  0  0  0
 16 15  1  0  0  0  0
 17 18  1  0  0  0  0
 18 22  1  0  0  0  0
 18 19  2  0  0  0  0
 21 15  1  0  0  0  0
 23  6  1  0  0  0  0
 24 25  1  0  0  0  0
 24 30  1  0  0  0  0
 25 31  1  6  0  0  0
 25 23  1  0  0  0  0
 26 32  1  0  0  0  0
 26 25  1  0  0  0  0
 26 33  1  0  0  0  0
 27 26  1  0  0  0  0
 28 27  1  0  0  0  0
 28 34  1  0  0  0  0
 28 29  1  0  0  0  0
 29 36  1  6  0  0  0
 29 24  1  0  0  0  0
 35 28  1  0  0  0  0
 37 29  1  0  0  0  0
 37 38  1  0  0  0  0
 39 37  2  0  0  0  0
M  END
>  <minimizedAffinity>
-5.48104095

>  <minimizedRMSD>
0.0309081618

$$$$
