
 OpenBabel03262523553D

 28 29  0  0  1  0  0  0  0  0999 V2000
   35.9860   21.5610   31.4940 C   0  0  1  0  0  0  0  0  0  0  0  0
   36.8370   20.4920   30.9430 C   0  0  0  0  0  0  0  0  0  0  0  0
   36.0230   19.2280   30.8820 C   0  0  0  0  0  0  0  0  0  0  0  0
   35.1410   19.0810   32.0630 C   0  0  0  0  0  0  0  0  0  0  0  0
   35.5420   19.8710   33.2800 C   0  0  0  0  0  0  0  0  0  0  0  0
   35.8650   21.3180   32.9950 C   0  0  1  0  0  0  0  0  0  0  0  0
   34.9400   21.4570   31.1170 H   0  0  0  0  0  0  0  0  0  0  0  0
   37.1830   20.8130   29.9290 H   0  0  0  0  0  0  0  0  0  0  0  0
   37.7450   20.2630   31.5130 H   0  0  0  0  0  0  0  0  0  0  0  0
   36.6960   18.3280   30.8610 H   0  0  0  0  0  0  0  0  0  0  0  0
   35.4750   19.1790   29.9250 H   0  0  0  0  0  0  0  0  0  0  0  0
   35.0810   18.0220   32.4070 H   0  0  0  0  0  0  0  0  0  0  0  0
   34.1080   19.3750   31.7750 H   0  0  0  0  0  0  0  0  0  0  0  0
   34.7390   19.7300   34.0320 H   0  0  0  0  0  0  0  0  0  0  0  0
   36.4270   19.3180   33.7080 H   0  0  0  0  0  0  0  0  0  0  0  0
   34.9530   21.8700   33.3740 H   0  0  0  0  0  0  0  0  0  0  0  0
   35.8840   25.2770   31.2780 C   0  0  0  0  0  0  0  0  0  0  0  0
   35.4610   23.9480   31.5220 C   0  0  0  0  0  0  0  0  0  0  0  0
   36.3860   22.9350   31.2870 C   0  0  0  0  0  0  0  0  0  0  0  0
   37.6420   23.2690   30.8390 N   0  0  0  0  0  0  0  0  0  0  0  0
   38.0060   24.5310   30.6200 C   0  0  0  0  0  0  0  0  0  0  0  0
   37.1380   25.5420   30.8350 N   0  0  0  0  0  0  0  0  0  0  0  0
   35.2140   26.1100   31.4400 H   0  0  0  0  0  0  0  0  0  0  0  0
   34.4630   23.8690   31.8630 H   0  0  0  0  0  0  0  0  0  0  0  0
   39.0190   24.6890   30.2660 H   0  0  0  0  0  0  0  0  0  0  0  0
   37.1000   21.6550   33.7410 C   0  0  0  0  0  0  0  0  0  0  0  0
   38.0690   21.9120   33.3240 H   0  0  0  0  0  0  0  0  0  0  0  0
   37.1410   21.6770   34.9810 O   0  0  0  0  0  0  0  0  0  0  0  0
  1  7  1  6  0  0  0
  1  6  1  0  0  0  0
  2  1  1  0  0  0  0
  2  9  1  0  0  0  0
  3  2  1  0  0  0  0
  3  4  1  0  0  0  0
  4 12  1  0  0  0  0
  4  5  1  0  0  0  0
  5 15  1  0  0  0  0
  5 14  1  0  0  0  0
  6  5  1  0  0  0  0
  6 16  1  1  0  0  0
  6 26  1  0  0  0  0
  8  2  1  0  0  0  0
 10  3  1  0  0  0  0
 11  3  1  0  0  0  0
 13  4  1  0  0  0  0
 17 23  1  0  0  0  0
 17 18  1  0  0  0  0
 18 24  1  0  0  0  0
 19  1  1  0  0  0  0
 19 18  2  0  0  0  0
 20 19  1  0  0  0  0
 21 22  1  0  0  0  0
 21 20  2  0  0  0  0
 22 17  2  0  0  0  0
 25 21  1  0  0  0  0
 26 28  2  0  0  0  0
 27 26  1  0  0  0  0
M  END
>  <minimizedAffinity>
-4.10095215

$$$$

 OpenBabel03262523553D

 28 29  0  0  1  0  0  0  0  0999 V2000
   38.0280   25.7770   34.7240 C   0  0  1  0  0  0  0  0  0  0  0  0
   37.4010   27.0530   35.1130 C   0  0  0  0  0  0  0  0  0  0  0  0
   36.7830   27.6660   33.8860 C   0  0  0  0  0  0  0  0  0  0  0  0
   37.6280   27.4710   32.6850 C   0  0  0  0  0  0  0  0  0  0  0  0
   39.0820   27.1850   32.9490 C   0  0  0  0  0  0  0  0  0  0  0  0
   39.3190   26.1110   33.9840 C   0  0  1  0  0  0  0  0  0  0  0  0
   37.4030   25.2560   33.9590 H   0  0  0  0  0  0  0  0  0  0  0  0
   36.6370   26.8380   35.9010 H   0  0  0  0  0  0  0  0  0  0  0  0
   38.0740   27.8030   35.5430 H   0  0  0  0  0  0  0  0  0  0  0  0
   36.6550   28.7740   34.0210 H   0  0  0  0  0  0  0  0  0  0  0  0
   35.7530   27.2890   33.7550 H   0  0  0  0  0  0  0  0  0  0  0  0
   37.6200   28.3680   32.0220 H   0  0  0  0  0  0  0  0  0  0  0  0
   37.2060   26.6360   32.0830 H   0  0  0  0  0  0  0  0  0  0  0  0
   39.5500   26.9710   31.9660 H   0  0  0  0  0  0  0  0  0  0  0  0
   39.5220   28.1750   33.2590 H   0  0  0  0  0  0  0  0  0  0  0  0
   39.6200   25.2120   33.3670 H   0  0  0  0  0  0  0  0  0  0  0  0
   38.2550   24.1180   38.0500 C   0  0  0  0  0  0  0  0  0  0  0  0
   37.9070   25.0680   37.0610 C   0  0  0  0  0  0  0  0  0  0  0  0
   38.3340   24.8160   35.7610 C   0  0  0  0  0  0  0  0  0  0  0  0
   39.0600   23.6770   35.5060 N   0  0  0  0  0  0  0  0  0  0  0  0
   39.3700   22.8040   36.4620 C   0  0  0  0  0  0  0  0  0  0  0  0
   38.9750   23.0120   37.7350 N   0  0  0  0  0  0  0  0  0  0  0  0
   37.9540   24.2540   39.0790 H   0  0  0  0  0  0  0  0  0  0  0  0
   37.3470   25.8870   37.4270 H   0  0  0  0  0  0  0  0  0  0  0  0
   39.9470   21.9370   36.1580 H   0  0  0  0  0  0  0  0  0  0  0  0
   40.3980   26.5870   34.8820 C   0  0  0  0  0  0  0  0  0  0  0  0
   40.3330   27.3740   35.6270 H   0  0  0  0  0  0  0  0  0  0  0  0
   41.5400   26.1020   34.8620 O   0  0  0  0  0  0  0  0  0  0  0  0
  1  7  1  6  0  0  0
  1  2  1  0  0  0  0
  1 19  1  0  0  0  0
  2  9  1  0  0  0  0
  2  8  1  0  0  0  0
  3 10  1  0  0  0  0
  3  2  1  0  0  0  0
  4  5  1  0  0  0  0
  4  3  1  0  0  0  0
  5 15  1  0  0  0  0
  5  6  1  0  0  0  0
  6 16  1  6  0  0  0
  6  1  1  0  0  0  0
  6 26  1  0  0  0  0
 11  3  1  0  0  0  0
 12  4  1  0  0  0  0
 13  4  1  0  0  0  0
 14  5  1  0  0  0  0
 17 23  1  0  0  0  0
 18 24  1  0  0  0  0
 18 17  2  0  0  0  0
 19 18  1  0  0  0  0
 20 19  2  0  0  0  0
 20 21  1  0  0  0  0
 21 22  2  0  0  0  0
 22 17  1  0  0  0  0
 25 21  1  0  0  0  0
 26 27  1  0  0  0  0
 28 26  2  0  0  0  0
M  END
>  <minimizedAffinity>
-4.02682495

$$$$

 OpenBabel03262523553D

 28 29  0  0  1  0  0  0  0  0999 V2000
   38.8320   24.7780   36.0430 C   0  0  1  0  0  0  0  0  0  0  0  0
   37.7000   24.4120   36.9120 C   0  0  0  0  0  0  0  0  0  0  0  0
   38.2530   23.8780   38.2050 C   0  0  0  0  0  0  0  0  0  0  0  0
   39.4560   23.0410   37.9880 C   0  0  0  0  0  0  0  0  0  0  0  0
   39.6140   22.4720   36.6040 C   0  0  0  0  0  0  0  0  0  0  0  0
   39.4240   23.4820   35.4970 C   0  0  1  0  0  0  0  0  0  0  0  0
   39.6590   25.2190   36.6490 H   0  0  0  0  0  0  0  0  0  0  0  0
   37.0770   25.3270   37.0730 H   0  0  0  0  0  0  0  0  0  0  0  0
   37.0190   23.6510   36.5150 H   0  0  0  0  0  0  0  0  0  0  0  0
   37.4930   23.2320   38.7220 H   0  0  0  0  0  0  0  0  0  0  0  0
   38.4280   24.7090   38.9120 H   0  0  0  0  0  0  0  0  0  0  0  0
   39.4780   22.1610   38.6720 H   0  0  0  0  0  0  0  0  0  0  0  0
   40.3590   23.6450   38.2270 H   0  0  0  0  0  0  0  0  0  0  0  0
   40.5970   21.9590   36.5780 H   0  0  0  0  0  0  0  0  0  0  0  0
   38.8600   21.6350   36.5450 H   0  0  0  0  0  0  0  0  0  0  0  0
   40.4790   23.6900   35.1480 H   0  0  0  0  0  0  0  0  0  0  0  0
   39.3880   27.0580   33.1520 C   0  0  0  0  0  0  0  0  0  0  0  0
   39.6710   26.1650   34.2140 C   0  0  0  0  0  0  0  0  0  0  0  0
   38.5870   25.6680   34.9300 C   0  0  0  0  0  0  0  0  0  0  0  0
   37.3170   26.0610   34.5770 N   0  0  0  0  0  0  0  0  0  0  0  0
   37.0880   26.9030   33.5720 C   0  0  0  0  0  0  0  0  0  0  0  0
   38.1130   27.4080   32.8530 N   0  0  0  0  0  0  0  0  0  0  0  0
   40.1860   27.4800   32.5570 H   0  0  0  0  0  0  0  0  0  0  0  0
   40.7020   25.9700   34.3510 H   0  0  0  0  0  0  0  0  0  0  0  0
   36.0510   27.1500   33.3740 H   0  0  0  0  0  0  0  0  0  0  0  0
   38.5810   22.8500   34.4550 C   0  0  0  0  0  0  0  0  0  0  0  0
   38.4150   23.2020   33.4420 H   0  0  0  0  0  0  0  0  0  0  0  0
   37.9520   21.7990   34.6580 O   0  0  0  0  0  0  0  0  0  0  0  0
  1  7  1  1  0  0  0
  1  2  1  0  0  0  0
  2  8  1  0  0  0  0
  2  3  1  0  0  0  0
  3 10  1  0  0  0  0
  3 11  1  0  0  0  0
  4  3  1  0  0  0  0
  4 13  1  0  0  0  0
  4 12  1  0  0  0  0
  5  4  1  0  0  0  0
  6 16  1  6  0  0  0
  6  1  1  0  0  0  0
  6  5  1  0  0  0  0
  9  2  1  0  0  0  0
 14  5  1  0  0  0  0
 15  5  1  0  0  0  0
 17 18  1  0  0  0  0
 18 24  1  0  0  0  0
 18 19  2  0  0  0  0
 19  1  1  0  0  0  0
 20 19  1  0  0  0  0
 21 20  2  0  0  0  0
 22 17  2  0  0  0  0
 22 21  1  0  0  0  0
 23 17  1  0  0  0  0
 25 21  1  0  0  0  0
 26 28  2  0  0  0  0
 26  6  1  0  0  0  0
 27 26  1  0  0  0  0
M  END
>  <minimizedAffinity>
-3.99333954

$$$$

 OpenBabel03262523553D

 28 29  0  0  1  0  0  0  0  0999 V2000
   38.5810   25.9710   33.0780 C   0  0  1  0  0  0  0  0  0  0  0  0
   39.2460   27.1980   32.6070 C   0  0  0  0  0  0  0  0  0  0  0  0
   40.6400   27.2230   33.1730 C   0  0  0  0  0  0  0  0  0  0  0  0
   40.6810   26.7200   34.5660 C   0  0  0  0  0  0  0  0  0  0  0  0
   39.3740   26.7590   35.3120 C   0  0  0  0  0  0  0  0  0  0  0  0
   38.2090   26.1870   34.5420 C   0  0  1  0  0  0  0  0  0  0  0  0
   39.3060   25.1220   33.1050 H   0  0  0  0  0  0  0  0  0  0  0  0
   39.2510   27.1830   31.4890 H   0  0  0  0  0  0  0  0  0  0  0  0
   38.7660   28.1410   32.8930 H   0  0  0  0  0  0  0  0  0  0  0  0
   41.0390   28.2730   33.1910 H   0  0  0  0  0  0  0  0  0  0  0  0
   41.3290   26.6830   32.5000 H   0  0  0  0  0  0  0  0  0  0  0  0
   41.3960   27.3000   35.1950 H   0  0  0  0  0  0  0  0  0  0  0  0
   41.0520   25.6720   34.5570 H   0  0  0  0  0  0  0  0  0  0  0  0
   39.5500   26.2670   36.2900 H   0  0  0  0  0  0  0  0  0  0  0  0
   39.2170   27.8460   35.5690 H   0  0  0  0  0  0  0  0  0  0  0  0
   38.0460   25.1760   35.0220 H   0  0  0  0  0  0  0  0  0  0  0  0
   35.9470   23.7470   31.6710 C   0  0  0  0  0  0  0  0  0  0  0  0
   37.0890   24.1570   32.3990 C   0  0  0  0  0  0  0  0  0  0  0  0
   37.4040   25.5120   32.3740 C   0  0  0  0  0  0  0  0  0  0  0  0
   36.6030   26.3700   31.6570 N   0  0  0  0  0  0  0  0  0  0  0  0
   35.5350   25.9490   30.9830 C   0  0  0  0  0  0  0  0  0  0  0  0
   35.1970   24.6420   30.9820 N   0  0  0  0  0  0  0  0  0  0  0  0
   35.6480   22.7070   31.6490 H   0  0  0  0  0  0  0  0  0  0  0  0
   37.5920   23.3690   32.8930 H   0  0  0  0  0  0  0  0  0  0  0  0
   34.9700   26.7040   30.4490 H   0  0  0  0  0  0  0  0  0  0  0  0
   37.0600   27.1060   34.7210 C   0  0  0  0  0  0  0  0  0  0  0  0
   36.0290   26.9340   34.4270 H   0  0  0  0  0  0  0  0  0  0  0  0
   37.1790   28.2200   35.2550 O   0  0  0  0  0  0  0  0  0  0  0  0
  1  7  1  6  0  0  0
  1  6  1  0  0  0  0
  2  9  1  0  0  0  0
  2  1  1  0  0  0  0
  2  3  1  0  0  0  0
  3 10  1  0  0  0  0
  3  4  1  0  0  0  0
  4 12  1  0  0  0  0
  4  5  1  0  0  0  0
  5 15  1  0  0  0  0
  5 14  1  0  0  0  0
  6 26  1  0  0  0  0
  6 16  1  1  0  0  0
  6  5  1  0  0  0  0
  8  2  1  0  0  0  0
 11  3  1  0  0  0  0
 13  4  1  0  0  0  0
 17 18  1  0  0  0  0
 18 24  1  0  0  0  0
 19 18  2  0  0  0  0
 19  1  1  0  0  0  0
 20 19  1  0  0  0  0
 21 20  2  0  0  0  0
 22 21  1  0  0  0  0
 22 17  2  0  0  0  0
 23 17  1  0  0  0  0
 25 21  1  0  0  0  0
 26 28  2  0  0  0  0
 27 26  1  0  0  0  0
M  END
>  <minimizedAffinity>
-3.96509695

$$$$

 OpenBabel03262523553D

 28 29  0  0  1  0  0  0  0  0999 V2000
   38.6580   22.4760   36.0340 C   0  0  1  0  0  0  0  0  0  0  0  0
   40.0350   22.7580   36.4760 C   0  0  0  0  0  0  0  0  0  0  0  0
   40.0550   22.7570   37.9800 C   0  0  0  0  0  0  0  0  0  0  0  0
   38.8390   23.3850   38.5490 C   0  0  0  0  0  0  0  0  0  0  0  0
   38.0920   24.3130   37.6300 C   0  0  0  0  0  0  0  0  0  0  0  0
   37.8400   23.7450   36.2540 C   0  0  1  0  0  0  0  0  0  0  0  0
   38.1800   21.7250   36.7090 H   0  0  0  0  0  0  0  0  0  0  0  0
   40.7030   21.9690   36.0510 H   0  0  0  0  0  0  0  0  0  0  0  0
   40.4540   23.7160   36.1490 H   0  0  0  0  0  0  0  0  0  0  0  0
   40.9350   23.3410   38.3620 H   0  0  0  0  0  0  0  0  0  0  0  0
   40.2260   21.7330   38.3540 H   0  0  0  0  0  0  0  0  0  0  0  0
   39.0720   23.9920   39.4550 H   0  0  0  0  0  0  0  0  0  0  0  0
   38.1450   22.5820   38.8820 H   0  0  0  0  0  0  0  0  0  0  0  0
   37.1700   24.6190   38.1650 H   0  0  0  0  0  0  0  0  0  0  0  0
   38.7180   25.2510   37.5910 H   0  0  0  0  0  0  0  0  0  0  0  0
   36.7450   23.4640   36.2820 H   0  0  0  0  0  0  0  0  0  0  0  0
   39.2860   21.5410   32.4850 C   0  0  0  0  0  0  0  0  0  0  0  0
   39.5400   21.9510   33.8160 C   0  0  0  0  0  0  0  0  0  0  0  0
   38.4480   22.0320   34.6740 C   0  0  0  0  0  0  0  0  0  0  0  0
   37.1980   21.7150   34.1950 N   0  0  0  0  0  0  0  0  0  0  0  0
   36.9950   21.3340   32.9360 C   0  0  0  0  0  0  0  0  0  0  0  0
   38.0290   21.2430   32.0720 N   0  0  0  0  0  0  0  0  0  0  0  0
   40.0910   21.4580   31.7680 H   0  0  0  0  0  0  0  0  0  0  0  0
   40.5580   22.1570   34.0170 H   0  0  0  0  0  0  0  0  0  0  0  0
   35.9720   21.1070   32.6570 H   0  0  0  0  0  0  0  0  0  0  0  0
   38.1410   24.8100   35.2690 C   0  0  0  0  0  0  0  0  0  0  0  0
   37.9710   24.7800   34.1970 H   0  0  0  0  0  0  0  0  0  0  0  0
   38.6440   25.8960   35.5980 O   0  0  0  0  0  0  0  0  0  0  0  0
  1  6  1  0  0  0  0
  1  2  1  0  0  0  0
  1  7  1  1  0  0  0
  2  3  1  0  0  0  0
  3 11  1  0  0  0  0
  3 10  1  0  0  0  0
  3  4  1  0  0  0  0
  4 13  1  0  0  0  0
  4 12  1  0  0  0  0
  5 14  1  0  0  0  0
  5  4  1  0  0  0  0
  6 16  1  6  0  0  0
  6  5  1  0  0  0  0
  8  2  1  0  0  0  0
  9  2  1  0  0  0  0
 15  5  1  0  0  0  0
 17 18  1  0  0  0  0
 18 24  1  0  0  0  0
 18 19  2  0  0  0  0
 19  1  1  0  0  0  0
 20 19  1  0  0  0  0
 21 20  2  0  0  0  0
 22 17  2  0  0  0  0
 22 21  1  0  0  0  0
 23 17  1  0  0  0  0
 25 21  1  0  0  0  0
 26 28  2  0  0  0  0
 26  6  1  0  0  0  0
 27 26  1  0  0  0  0
M  END
>  <minimizedAffinity>
-3.85428309

$$$$

 OpenBabel03262523553D

 28 29  0  0  1  0  0  0  0  0999 V2000
   39.2050   22.5440   35.3930 C   0  0  1  0  0  0  0  0  0  0  0  0
   40.4470   23.3350   35.3450 C   0  0  0  0  0  0  0  0  0  0  0  0
   41.3900   22.7910   36.3830 C   0  0  0  0  0  0  0  0  0  0  0  0
   40.6820   22.4040   37.6250 C   0  0  0  0  0  0  0  0  0  0  0  0
   39.3370   23.0450   37.8370 C   0  0  0  0  0  0  0  0  0  0  0  0
   38.4300   22.9850   36.6310 C   0  0  1  0  0  0  0  0  0  0  0  0
   39.4370   21.4690   35.5880 H   0  0  0  0  0  0  0  0  0  0  0  0
   40.8710   23.2520   34.3130 H   0  0  0  0  0  0  0  0  0  0  0  0
   40.3370   24.4080   35.5410 H   0  0  0  0  0  0  0  0  0  0  0  0
   42.1520   23.5670   36.6670 H   0  0  0  0  0  0  0  0  0  0  0  0
   41.9890   21.9690   35.9540 H   0  0  0  0  0  0  0  0  0  0  0  0
   41.2750   22.6560   38.5360 H   0  0  0  0  0  0  0  0  0  0  0  0
   40.5530   21.2990   37.6330 H   0  0  0  0  0  0  0  0  0  0  0  0
   38.9020   22.5840   38.7480 H   0  0  0  0  0  0  0  0  0  0  0  0
   39.5650   24.1070   38.1420 H   0  0  0  0  0  0  0  0  0  0  0  0
   37.6900   22.1730   36.8980 H   0  0  0  0  0  0  0  0  0  0  0  0
   36.4800   21.7010   32.9990 C   0  0  0  0  0  0  0  0  0  0  0  0
   37.3130   21.6330   34.1410 C   0  0  0  0  0  0  0  0  0  0  0  0
   38.3110   22.5950   34.2570 C   0  0  0  0  0  0  0  0  0  0  0  0
   38.4370   23.5480   33.2740 N   0  0  0  0  0  0  0  0  0  0  0  0
   37.6350   23.5820   32.2110 C   0  0  0  0  0  0  0  0  0  0  0  0
   36.6550   22.6660   32.0620 N   0  0  0  0  0  0  0  0  0  0  0  0
   35.6850   20.9830   32.8490 H   0  0  0  0  0  0  0  0  0  0  0  0
   37.0800   20.8370   34.7980 H   0  0  0  0  0  0  0  0  0  0  0  0
   37.8170   24.3730   31.4920 H   0  0  0  0  0  0  0  0  0  0  0  0
   37.8010   24.3180   36.4790 C   0  0  0  0  0  0  0  0  0  0  0  0
   36.9910   24.5890   35.8080 H   0  0  0  0  0  0  0  0  0  0  0  0
   38.1610   25.3020   37.1440 O   0  0  0  0  0  0  0  0  0  0  0  0
  1  7  1  1  0  0  0
  1  6  1  0  0  0  0
  2  1  1  0  0  0  0
  2  9  1  0  0  0  0
  2  3  1  0  0  0  0
  3 10  1  0  0  0  0
  3  4  1  0  0  0  0
  4 13  1  0  0  0  0
  4  5  1  0  0  0  0
  4 12  1  0  0  0  0
  5 15  1  0  0  0  0
  5 14  1  0  0  0  0
  6 16  1  1  0  0  0
  6  5  1  0  0  0  0
  8  2  1  0  0  0  0
 11  3  1  0  0  0  0
 17 18  1  0  0  0  0
 18 19  2  0  0  0  0
 18 24  1  0  0  0  0
 19  1  1  0  0  0  0
 20 19  1  0  0  0  0
 21 20  2  0  0  0  0
 22 21  1  0  0  0  0
 22 17  2  0  0  0  0
 23 17  1  0  0  0  0
 25 21  1  0  0  0  0
 26  6  1  0  0  0  0
 26 28  2  0  0  0  0
 27 26  1  0  0  0  0
M  END
>  <minimizedAffinity>
-3.74451566

$$$$

 OpenBabel03262523553D

 28 29  0  0  1  0  0  0  0  0999 V2000
   38.7880   22.8860   36.1410 C   0  0  1  0  0  0  0  0  0  0  0  0
   39.7810   22.9720   37.2260 C   0  0  0  0  0  0  0  0  0  0  0  0
   39.0490   23.2290   38.5140 C   0  0  0  0  0  0  0  0  0  0  0  0
   37.9160   24.1650   38.3300 C   0  0  0  0  0  0  0  0  0  0  0  0
   37.9890   25.0460   37.1110 C   0  0  0  0  0  0  0  0  0  0  0  0
   38.3210   24.3070   35.8370 C   0  0  1  0  0  0  0  0  0  0  0  0
   37.8660   22.3690   36.5000 H   0  0  0  0  0  0  0  0  0  0  0  0
   40.3480   22.0090   37.2540 H   0  0  0  0  0  0  0  0  0  0  0  0
   40.5340   23.7620   37.1210 H   0  0  0  0  0  0  0  0  0  0  0  0
   39.7370   23.6910   39.2720 H   0  0  0  0  0  0  0  0  0  0  0  0
   38.7460   22.2710   38.9720 H   0  0  0  0  0  0  0  0  0  0  0  0
   37.8110   24.8650   39.1920 H   0  0  0  0  0  0  0  0  0  0  0  0
   36.9710   23.5790   38.2870 H   0  0  0  0  0  0  0  0  0  0  0  0
   37.0350   25.6100   37.0660 H   0  0  0  0  0  0  0  0  0  0  0  0
   38.7640   25.8260   37.3610 H   0  0  0  0  0  0  0  0  0  0  0  0
   37.3270   24.2490   35.2990 H   0  0  0  0  0  0  0  0  0  0  0  0
   38.6150   21.2400   32.8060 C   0  0  0  0  0  0  0  0  0  0  0  0
   38.1900   21.8750   33.9970 C   0  0  0  0  0  0  0  0  0  0  0  0
   39.1790   22.2610   34.8970 C   0  0  0  0  0  0  0  0  0  0  0  0
   40.4950   22.0110   34.5890 N   0  0  0  0  0  0  0  0  0  0  0  0
   40.8590   21.4110   33.4580 C   0  0  0  0  0  0  0  0  0  0  0  0
   39.9300   21.0200   32.5600 N   0  0  0  0  0  0  0  0  0  0  0  0
   37.8960   20.9140   32.0650 H   0  0  0  0  0  0  0  0  0  0  0  0
   37.1410   21.9890   34.0760 H   0  0  0  0  0  0  0  0  0  0  0  0
   41.9220   21.2590   33.3100 H   0  0  0  0  0  0  0  0  0  0  0  0
   39.3310   25.1080   35.1060 C   0  0  0  0  0  0  0  0  0  0  0  0
   40.0080   24.7620   34.3310 H   0  0  0  0  0  0  0  0  0  0  0  0
   39.5040   26.3170   35.3260 O   0  0  0  0  0  0  0  0  0  0  0  0
  1  7  1  1  0  0  0
  1  2  1  0  0  0  0
  2  8  1  0  0  0  0
  2  3  1  0  0  0  0
  3 11  1  0  0  0  0
  3 10  1  0  0  0  0
  4  3  1  0  0  0  0
  4 12  1  0  0  0  0
  5 15  1  0  0  0  0
  5  4  1  0  0  0  0
  6 16  1  6  0  0  0
  6  1  1  0  0  0  0
  6  5  1  0  0  0  0
  9  2  1  0  0  0  0
 13  4  1  0  0  0  0
 14  5  1  0  0  0  0
 17 18  1  0  0  0  0
 18 24  1  0  0  0  0
 18 19  2  0  0  0  0
 19  1  1  0  0  0  0
 20 19  1  0  0  0  0
 21 20  2  0  0  0  0
 22 17  2  0  0  0  0
 22 21  1  0  0  0  0
 23 17  1  0  0  0  0
 25 21  1  0  0  0  0
 26 28  2  0  0  0  0
 26  6  1  0  0  0  0
 27 26  1  0  0  0  0
M  END
>  <minimizedAffinity>
-3.74000859

$$$$

 OpenBabel03262523553D

 28 29  0  0  1  0  0  0  0  0999 V2000
   38.3070   25.9250   33.5600 C   0  0  1  0  0  0  0  0  0  0  0  0
   39.4890   26.7550   33.8530 C   0  0  0  0  0  0  0  0  0  0  0  0
   39.4940   27.0620   35.3260 C   0  0  0  0  0  0  0  0  0  0  0  0
   38.1300   27.3220   35.8410 C   0  0  0  0  0  0  0  0  0  0  0  0
   37.1090   27.7240   34.8120 C   0  0  0  0  0  0  0  0  0  0  0  0
   37.0880   26.8410   33.5870 C   0  0  1  0  0  0  0  0  0  0  0  0
   38.1240   25.2040   34.3940 H   0  0  0  0  0  0  0  0  0  0  0  0
   40.3990   26.1840   33.5430 H   0  0  0  0  0  0  0  0  0  0  0  0
   39.5400   27.7140   33.3240 H   0  0  0  0  0  0  0  0  0  0  0  0
   40.1040   27.9820   35.5330 H   0  0  0  0  0  0  0  0  0  0  0  0
   40.0180   26.2600   35.8750 H   0  0  0  0  0  0  0  0  0  0  0  0
   38.1220   28.1400   36.5990 H   0  0  0  0  0  0  0  0  0  0  0  0
   37.7660   26.4090   36.3640 H   0  0  0  0  0  0  0  0  0  0  0  0
   36.1330   27.7860   35.3360 H   0  0  0  0  0  0  0  0  0  0  0  0
   37.3580   28.7940   34.5570 H   0  0  0  0  0  0  0  0  0  0  0  0
   36.1650   26.2040   33.7380 H   0  0  0  0  0  0  0  0  0  0  0  0
   39.2790   24.5520   30.2390 C   0  0  0  0  0  0  0  0  0  0  0  0
   39.3590   25.2800   31.4500 C   0  0  0  0  0  0  0  0  0  0  0  0
   38.2820   25.1730   32.3250 C   0  0  0  0  0  0  0  0  0  0  0  0
   37.2150   24.3800   31.9760 N   0  0  0  0  0  0  0  0  0  0  0  0
   37.1730   23.7090   30.8270 C   0  0  0  0  0  0  0  0  0  0  0  0
   38.1980   23.7870   29.9510 N   0  0  0  0  0  0  0  0  0  0  0  0
   40.0830   24.5910   29.5150 H   0  0  0  0  0  0  0  0  0  0  0  0
   40.2490   25.8390   31.5600 H   0  0  0  0  0  0  0  0  0  0  0  0
   36.2860   23.1130   30.6460 H   0  0  0  0  0  0  0  0  0  0  0  0
   36.9970   27.7250   32.4010 C   0  0  0  0  0  0  0  0  0  0  0  0
   37.7580   28.4050   32.0300 H   0  0  0  0  0  0  0  0  0  0  0  0
   35.9860   27.7700   31.6830 O   0  0  0  0  0  0  0  0  0  0  0  0
  1  6  1  0  0  0  0
  1  2  1  0  0  0  0
  1  7  1  1  0  0  0
  2  3  1  0  0  0  0
  3 10  1  0  0  0  0
  3  4  1  0  0  0  0
  3 11  1  0  0  0  0
  4 13  1  0  0  0  0
  4 12  1  0  0  0  0
  5 14  1  0  0  0  0
  5  4  1  0  0  0  0
  6 16  1  1  0  0  0
  6  5  1  0  0  0  0
  8  2  1  0  0  0  0
  9  2  1  0  0  0  0
 15  5  1  0  0  0  0
 17 18  1  0  0  0  0
 18 24  1  0  0  0  0
 18 19  2  0  0  0  0
 19  1  1  0  0  0  0
 20 19  1  0  0  0  0
 21 20  2  0  0  0  0
 22 17  2  0  0  0  0
 22 21  1  0  0  0  0
 23 17  1  0  0  0  0
 25 21  1  0  0  0  0
 26  6  1  0  0  0  0
 27 26  1  0  0  0  0
 28 26  2  0  0  0  0
M  END
>  <minimizedAffinity>
-3.7247808

$$$$

 OpenBabel03262523553D

 28 29  0  0  1  0  0  0  0  0999 V2000
   37.1280   21.0540   33.2000 C   0  0  1  0  0  0  0  0  0  0  0  0
   35.7900   20.6960   33.7010 C   0  0  0  0  0  0  0  0  0  0  0  0
   35.2620   19.5640   32.8620 C   0  0  0  0  0  0  0  0  0  0  0  0
   35.6130   19.7260   31.4320 C   0  0  0  0  0  0  0  0  0  0  0  0
   35.9520   21.1260   30.9970 C   0  0  0  0  0  0  0  0  0  0  0  0
   36.9350   21.8300   31.9000 C   0  0  1  0  0  0  0  0  0  0  0  0
   37.6840   20.1370   32.8880 H   0  0  0  0  0  0  0  0  0  0  0  0
   35.8890   20.4050   34.7770 H   0  0  0  0  0  0  0  0  0  0  0  0
   35.0400   21.4950   33.6730 H   0  0  0  0  0  0  0  0  0  0  0  0
   34.1410   19.5210   32.9220 H   0  0  0  0  0  0  0  0  0  0  0  0
   35.5930   18.5980   33.2820 H   0  0  0  0  0  0  0  0  0  0  0  0
   34.7820   19.4020   30.7620 H   0  0  0  0  0  0  0  0  0  0  0  0
   36.4760   19.0640   31.2000 H   0  0  0  0  0  0  0  0  0  0  0  0
   36.2810   21.0610   29.9390 H   0  0  0  0  0  0  0  0  0  0  0  0
   34.9620   21.6640   30.9500 H   0  0  0  0  0  0  0  0  0  0  0  0
   37.9030   21.7940   31.3150 H   0  0  0  0  0  0  0  0  0  0  0  0
   40.1260   22.8340   34.5070 C   0  0  0  0  0  0  0  0  0  0  0  0
   39.2930   22.1090   33.6220 C   0  0  0  0  0  0  0  0  0  0  0  0
   38.0040   21.8200   34.0590 C   0  0  0  0  0  0  0  0  0  0  0  0
   37.6110   22.2460   35.3060 N   0  0  0  0  0  0  0  0  0  0  0  0
   38.4220   22.9260   36.1130 C   0  0  0  0  0  0  0  0  0  0  0  0
   39.6800   23.2260   35.7260 N   0  0  0  0  0  0  0  0  0  0  0  0
   41.1390   23.0910   34.2280 H   0  0  0  0  0  0  0  0  0  0  0  0
   39.7530   21.8590   32.7030 H   0  0  0  0  0  0  0  0  0  0  0  0
   38.0170   23.2160   37.0760 H   0  0  0  0  0  0  0  0  0  0  0  0
   36.4370   23.2090   32.1140 C   0  0  0  0  0  0  0  0  0  0  0  0
   36.8510   23.9610   32.7790 H   0  0  0  0  0  0  0  0  0  0  0  0
   35.4450   23.6560   31.5170 O   0  0  0  0  0  0  0  0  0  0  0  0
  1  7  1  6  0  0  0
  1  2  1  0  0  0  0
  1 19  1  0  0  0  0
  2  8  1  0  0  0  0
  3 10  1  0  0  0  0
  3 11  1  0  0  0  0
  3  2  1  0  0  0  0
  4  3  1  0  0  0  0
  5  4  1  0  0  0  0
  5  6  1  0  0  0  0
  6 16  1  6  0  0  0
  6 26  1  0  0  0  0
  6  1  1  0  0  0  0
  9  2  1  0  0  0  0
 12  4  1  0  0  0  0
 13  4  1  0  0  0  0
 14  5  1  0  0  0  0
 15  5  1  0  0  0  0
 17 22  1  0  0  0  0
 18 19  1  0  0  0  0
 18 17  2  0  0  0  0
 19 20  2  0  0  0  0
 20 21  1  0  0  0  0
 21 25  1  0  0  0  0
 22 21  2  0  0  0  0
 23 17  1  0  0  0  0
 24 18  1  0  0  0  0
 26 27  1  0  0  0  0
 28 26  2  0  0  0  0
M  END
>  <minimizedAffinity>
-3.71645284

$$$$
