
 OpenBabel03272502443D

 29 31  0  0  0  0  0  0  0  0999 V2000
   36.5280   28.6960   31.8930 C   0  0  0  0  0  0  0  0  0  0  0  0
   37.0570   27.5030   32.3790 C   0  0  0  0  0  0  0  0  0  0  0  0
   36.9460   27.2990   33.7700 C   0  0  0  0  0  0  0  0  0  0  0  0
   36.3480   28.2510   34.5350 N   0  0  0  0  0  0  0  0  0  0  0  0
   35.8500   29.3960   34.0060 C   0  0  0  0  0  0  0  0  0  0  0  0
   35.9540   29.5930   32.6840 N   0  0  0  0  0  0  0  0  0  0  0  0
   36.6020   28.8740   30.8210 H   0  0  0  0  0  0  0  0  0  0  0  0
   37.5270   26.7470   31.8040 H   0  0  0  0  0  0  0  0  0  0  0  0
   32.8880   29.3160   34.0280 Cl  0  0  0  0  0  0  0  0  0  0  0  0
   33.8410   30.4220   34.9600 C   0  0  0  0  0  0  0  0  0  0  0  0
   35.2240   30.3730   34.8740 C   0  0  0  0  0  0  0  0  0  0  0  0
   35.9990   31.2290   35.5940 C   0  0  0  0  0  0  0  0  0  0  0  0
   35.4450   32.1770   36.4350 C   0  0  0  0  0  0  0  0  0  0  0  0
   34.0700   32.2470   36.5390 C   0  0  0  0  0  0  0  0  0  0  0  0
   33.2380   33.4000   37.5660 Cl  0  0  0  0  0  0  0  0  0  0  0  0
   33.3110   31.3710   35.8000 C   0  0  0  0  0  0  0  0  0  0  0  0
   37.0710   31.1630   35.5030 H   0  0  0  0  0  0  0  0  0  0  0  0
   36.0470   32.8650   37.0120 H   0  0  0  0  0  0  0  0  0  0  0  0
   32.2240   31.4110   35.8690 H   0  0  0  0  0  0  0  0  0  0  0  0
   37.4570   26.0910   34.4120 C   0  0  0  0  0  0  0  0  0  0  0  0
   37.8970   24.9800   33.7220 C   0  0  0  0  0  0  0  0  0  0  0  0
   38.3120   24.0200   34.5950 N   0  0  0  0  0  0  0  0  0  0  0  0
   38.1290   24.5320   35.8190 C   0  0  0  0  0  0  0  0  0  0  0  0
   37.6230   25.7560   35.6880 N   0  0  0  0  0  0  0  0  0  0  0  0
   37.9460   24.8020   32.6380 H   0  0  0  0  0  0  0  0  0  0  0  0
   38.6970   23.0700   34.3900 H   0  0  0  0  0  0  0  0  0  0  0  0
   38.4000   23.9440   37.1270 C   0  0  0  0  0  0  0  0  0  0  0  0
   39.1210   23.1710   37.3110 H   0  0  0  0  0  0  0  0  0  0  0  0
   37.8060   24.2880   38.2000 O   0  0  0  0  0  0  0  0  0  0  0  0
  1  2  2  0  0  0  0
  1  6  1  0  0  0  0
  2  3  1  0  0  0  0
  3 20  1  0  0  0  0
  3  4  2  0  0  0  0
  5  4  1  0  0  0  0
  5 11  1  0  0  0  0
  6  5  2  0  0  0  0
  7  1  1  0  0  0  0
  8  2  1  0  0  0  0
  9 10  1  0  0  0  0
 10 16  1  0  0  0  0
 11 10  2  0  0  0  0
 11 12  1  0  0  0  0
 12 13  2  0  0  0  0
 13 14  1  0  0  0  0
 13 18  1  0  0  0  0
 14 15  1  0  0  0  0
 16 19  1  0  0  0  0
 16 14  2  0  0  0  0
 17 12  1  0  0  0  0
 20 24  1  0  0  0  0
 21 20  2  0  0  0  0
 21 22  1  0  0  0  0
 22 23  1  0  0  0  0
 23 27  1  0  0  0  0
 24 23  2  0  0  0  0
 25 21  1  0  0  0  0
 26 22  1  0  0  0  0
 27 28  1  0  0  0  0
 27 29  2  0  0  0  0
M  END
>  <minimizedAffinity>
-5.50966692

$$$$

 OpenBabel03272502443D

 29 31  0  0  0  0  0  0  0  0999 V2000
   36.3320   30.4560   31.0950 C   0  0  0  0  0  0  0  0  0  0  0  0
   35.9480   31.0960   32.2700 C   0  0  0  0  0  0  0  0  0  0  0  0
   35.6050   30.2540   33.3480 C   0  0  0  0  0  0  0  0  0  0  0  0
   35.6660   28.9060   33.1830 N   0  0  0  0  0  0  0  0  0  0  0  0
   36.0490   28.3380   32.0130 C   0  0  0  0  0  0  0  0  0  0  0  0
   36.3750   29.1350   30.9870 N   0  0  0  0  0  0  0  0  0  0  0  0
   36.6010   31.0870   30.2480 H   0  0  0  0  0  0  0  0  0  0  0  0
   35.8920   32.1440   32.4230 H   0  0  0  0  0  0  0  0  0  0  0  0
   38.3040   27.0520   33.4420 Cl  0  0  0  0  0  0  0  0  0  0  0  0
   37.1100   26.1920   32.5320 C   0  0  0  0  0  0  0  0  0  0  0  0
   36.0940   26.8930   31.9000 C   0  0  0  0  0  0  0  0  0  0  0  0
   35.1420   26.2440   31.1770 C   0  0  0  0  0  0  0  0  0  0  0  0
   35.1450   24.8680   31.0430 C   0  0  0  0  0  0  0  0  0  0  0  0
   36.1450   24.1450   31.6610 C   0  0  0  0  0  0  0  0  0  0  0  0
   36.2690   22.3980   31.5720 Cl  0  0  0  0  0  0  0  0  0  0  0  0
   37.0950   24.8260   32.3850 C   0  0  0  0  0  0  0  0  0  0  0  0
   34.3660   26.8220   30.7000 H   0  0  0  0  0  0  0  0  0  0  0  0
   34.3960   24.3370   30.4710 H   0  0  0  0  0  0  0  0  0  0  0  0
   37.8930   24.2720   32.8800 H   0  0  0  0  0  0  0  0  0  0  0  0
   35.1850   30.7930   34.6390 C   0  0  0  0  0  0  0  0  0  0  0  0
   36.0530   31.3230   35.5710 C   0  0  0  0  0  0  0  0  0  0  0  0
   35.3630   31.7420   36.6700 N   0  0  0  0  0  0  0  0  0  0  0  0
   34.0750   31.4700   36.4200 C   0  0  0  0  0  0  0  0  0  0  0  0
   33.9920   30.9100   35.2150 N   0  0  0  0  0  0  0  0  0  0  0  0
   37.1450   31.4370   35.5260 H   0  0  0  0  0  0  0  0  0  0  0  0
   35.7280   32.1850   37.5430 H   0  0  0  0  0  0  0  0  0  0  0  0
   32.8950   31.7040   37.2460 C   0  0  0  0  0  0  0  0  0  0  0  0
   32.8810   32.3070   38.1330 H   0  0  0  0  0  0  0  0  0  0  0  0
   31.7450   31.2130   37.0020 O   0  0  0  0  0  0  0  0  0  0  0  0
  1  2  1  0  0  0  0
  2  8  1  0  0  0  0
  2  3  2  0  0  0  0
  3 20  1  0  0  0  0
  4  3  1  0  0  0  0
  5  4  2  0  0  0  0
  6  1  2  0  0  0  0
  6  5  1  0  0  0  0
  7  1  1  0  0  0  0
 10  9  1  0  0  0  0
 11  5  1  0  0  0  0
 11 10  2  0  0  0  0
 12 11  1  0  0  0  0
 13 12  2  0  0  0  0
 13 14  1  0  0  0  0
 14 16  2  0  0  0  0
 15 14  1  0  0  0  0
 16 10  1  0  0  0  0
 16 19  1  0  0  0  0
 17 12  1  0  0  0  0
 18 13  1  0  0  0  0
 20 24  1  0  0  0  0
 20 21  2  0  0  0  0
 21 22  1  0  0  0  0
 22 26  1  0  0  0  0
 23 22  1  0  0  0  0
 23 27  1  0  0  0  0
 24 23  2  0  0  0  0
 25 21  1  0  0  0  0
 27 28  1  0  0  0  0
 29 27  2  0  0  0  0
M  END
>  <minimizedAffinity>
-5.25312185

$$$$

 OpenBabel03272502443D

 29 31  0  0  0  0  0  0  0  0999 V2000
   36.4180   29.5350   30.5880 C   0  0  0  0  0  0  0  0  0  0  0  0
   36.6250   28.1590   30.5820 C   0  0  0  0  0  0  0  0  0  0  0  0
   36.2730   27.4760   31.7640 C   0  0  0  0  0  0  0  0  0  0  0  0
   35.7670   28.1790   32.8120 N   0  0  0  0  0  0  0  0  0  0  0  0
   35.5870   29.5220   32.7610 C   0  0  0  0  0  0  0  0  0  0  0  0
   35.9210   30.1740   31.6390 N   0  0  0  0  0  0  0  0  0  0  0  0
   36.6830   30.0840   29.6850 H   0  0  0  0  0  0  0  0  0  0  0  0
   37.0170   27.5880   29.7790 H   0  0  0  0  0  0  0  0  0  0  0  0
   32.6270   29.5780   32.8900 Cl  0  0  0  0  0  0  0  0  0  0  0  0
   33.6690   30.3010   34.0700 C   0  0  0  0  0  0  0  0  0  0  0  0
   35.0440   30.2160   33.9120 C   0  0  0  0  0  0  0  0  0  0  0  0
   35.8860   30.7740   34.8220 C   0  0  0  0  0  0  0  0  0  0  0  0
   35.4120   31.4440   35.9340 C   0  0  0  0  0  0  0  0  0  0  0  0
   34.0480   31.5440   36.1160 C   0  0  0  0  0  0  0  0  0  0  0  0
   33.3140   32.3660   37.4800 Cl  0  0  0  0  0  0  0  0  0  0  0  0
   33.2190   30.9720   35.1810 C   0  0  0  0  0  0  0  0  0  0  0  0
   36.9500   30.6880   34.6680 H   0  0  0  0  0  0  0  0  0  0  0  0
   36.0700   31.8940   36.6670 H   0  0  0  0  0  0  0  0  0  0  0  0
   32.1380   31.0400   35.3070 H   0  0  0  0  0  0  0  0  0  0  0  0
   36.4370   26.0300   31.8940 C   0  0  0  0  0  0  0  0  0  0  0  0
   37.3970   25.4320   32.6840 C   0  0  0  0  0  0  0  0  0  0  0  0
   37.2980   24.0760   32.5970 N   0  0  0  0  0  0  0  0  0  0  0  0
   36.2840   23.8350   31.7550 C   0  0  0  0  0  0  0  0  0  0  0  0
   35.7900   25.0030   31.3510 N   0  0  0  0  0  0  0  0  0  0  0  0
   38.1650   25.8920   33.3230 H   0  0  0  0  0  0  0  0  0  0  0  0
   37.8760   23.3440   33.0710 H   0  0  0  0  0  0  0  0  0  0  0  0
   35.7360   22.5630   31.2940 C   0  0  0  0  0  0  0  0  0  0  0  0
   35.7750   22.2130   30.2810 H   0  0  0  0  0  0  0  0  0  0  0  0
   35.1470   21.7250   32.0520 O   0  0  0  0  0  0  0  0  0  0  0  0
  1  6  1  0  0  0  0
  2  1  2  0  0  0  0
  2  3  1  0  0  0  0
  3 20  1  0  0  0  0
  3  4  2  0  0  0  0
  5  4  1  0  0  0  0
  5 11  1  0  0  0  0
  6  5  2  0  0  0  0
  7  1  1  0  0  0  0
  8  2  1  0  0  0  0
  9 10  1  0  0  0  0
 10 16  1  0  0  0  0
 11 10  2  0  0  0  0
 11 12  1  0  0  0  0
 12 13  2  0  0  0  0
 13 14  1  0  0  0  0
 13 18  1  0  0  0  0
 14 15  1  0  0  0  0
 16 19  1  0  0  0  0
 16 14  2  0  0  0  0
 17 12  1  0  0  0  0
 20 21  2  0  0  0  0
 21 25  1  0  0  0  0
 22 21  1  0  0  0  0
 22 26  1  0  0  0  0
 23 22  1  0  0  0  0
 24 23  2  0  0  0  0
 24 20  1  0  0  0  0
 27 23  1  0  0  0  0
 27 29  2  0  0  0  0
 28 27  1  0  0  0  0
M  END
>  <minimizedAffinity>
-5.09722376

$$$$

 OpenBabel03272502443D

 29 31  0  0  0  0  0  0  0  0999 V2000
   38.0550   23.7450   37.8950 C   0  0  0  0  0  0  0  0  0  0  0  0
   39.2580   23.0460   37.9430 C   0  0  0  0  0  0  0  0  0  0  0  0
   40.0520   23.1010   36.7790 C   0  0  0  0  0  0  0  0  0  0  0  0
   39.6110   23.8120   35.7080 N   0  0  0  0  0  0  0  0  0  0  0  0
   38.4280   24.4750   35.7180 C   0  0  0  0  0  0  0  0  0  0  0  0
   37.6710   24.4240   36.8220 N   0  0  0  0  0  0  0  0  0  0  0  0
   37.4260   23.7160   38.7830 H   0  0  0  0  0  0  0  0  0  0  0  0
   39.6240   22.4850   38.7650 H   0  0  0  0  0  0  0  0  0  0  0  0
   38.7030   27.4170   35.9460 Cl  0  0  0  0  0  0  0  0  0  0  0  0
   38.1000   26.5990   34.5430 C   0  0  0  0  0  0  0  0  0  0  0  0
   38.0120   25.2150   34.5430 C   0  0  0  0  0  0  0  0  0  0  0  0
   37.5420   24.5460   33.4560 C   0  0  0  0  0  0  0  0  0  0  0  0
   37.1350   25.2110   32.3140 C   0  0  0  0  0  0  0  0  0  0  0  0
   37.2110   26.5890   32.2880 C   0  0  0  0  0  0  0  0  0  0  0  0
   36.7280   27.5560   30.9060 Cl  0  0  0  0  0  0  0  0  0  0  0  0
   37.6890   27.2410   33.4000 C   0  0  0  0  0  0  0  0  0  0  0  0
   37.4880   23.4700   33.4900 H   0  0  0  0  0  0  0  0  0  0  0  0
   36.7580   24.6940   31.4420 H   0  0  0  0  0  0  0  0  0  0  0  0
   37.7570   28.3290   33.3980 H   0  0  0  0  0  0  0  0  0  0  0  0
   41.3380   22.4140   36.6930 C   0  0  0  0  0  0  0  0  0  0  0  0
   42.5230   23.0360   36.3580 C   0  0  0  0  0  0  0  0  0  0  0  0
   43.5440   22.1340   36.3630 N   0  0  0  0  0  0  0  0  0  0  0  0
   42.9940   20.9580   36.6980 C   0  0  0  0  0  0  0  0  0  0  0  0
   41.6910   21.1460   36.8880 N   0  0  0  0  0  0  0  0  0  0  0  0
   42.7150   24.0900   36.1110 H   0  0  0  0  0  0  0  0  0  0  0  0
   44.5570   22.2890   36.1540 H   0  0  0  0  0  0  0  0  0  0  0  0
   43.6180   19.6480   36.8550 C   0  0  0  0  0  0  0  0  0  0  0  0
   44.6650   19.4520   36.7310 H   0  0  0  0  0  0  0  0  0  0  0  0
   42.9800   18.5870   37.1580 O   0  0  0  0  0  0  0  0  0  0  0  0
  1  2  1  0  0  0  0
  1  7  1  0  0  0  0
  2  8  1  0  0  0  0
  3  2  2  0  0  0  0
  4  5  2  0  0  0  0
  4  3  1  0  0  0  0
  5  6  1  0  0  0  0
  6  1  2  0  0  0  0
 10 11  1  0  0  0  0
 10  9  1  0  0  0  0
 11  5  1  0  0  0  0
 12 17  1  0  0  0  0
 12 11  2  0  0  0  0
 13 12  1  0  0  0  0
 14 13  2  0  0  0  0
 14 16  1  0  0  0  0
 15 14  1  0  0  0  0
 16 10  2  0  0  0  0
 18 13  1  0  0  0  0
 19 16  1  0  0  0  0
 20  3  1  0  0  0  0
 20 24  1  0  0  0  0
 21 22  1  0  0  0  0
 21 20  2  0  0  0  0
 22 23  1  0  0  0  0
 23 27  1  0  0  0  0
 23 24  2  0  0  0  0
 25 21  1  0  0  0  0
 26 22  1  0  0  0  0
 27 29  2  0  0  0  0
 28 27  1  0  0  0  0
M  END
>  <minimizedAffinity>
-5.08025026

$$$$

 OpenBabel03272502443D

 29 31  0  0  0  0  0  0  0  0999 V2000
   39.2350   22.5590   36.1720 C   0  0  0  0  0  0  0  0  0  0  0  0
   38.9440   23.9150   36.2890 C   0  0  0  0  0  0  0  0  0  0  0  0
   38.2330   24.4900   35.2150 C   0  0  0  0  0  0  0  0  0  0  0  0
   37.8840   23.7110   34.1580 N   0  0  0  0  0  0  0  0  0  0  0  0
   38.1950   22.3920   34.0970 C   0  0  0  0  0  0  0  0  0  0  0  0
   38.8700   21.8430   35.1160 N   0  0  0  0  0  0  0  0  0  0  0  0
   39.7830   22.0940   36.9900 H   0  0  0  0  0  0  0  0  0  0  0  0
   39.2040   24.5430   37.1030 H   0  0  0  0  0  0  0  0  0  0  0  0
   35.7490   20.7650   34.4850 Cl  0  0  0  0  0  0  0  0  0  0  0  0
   36.6630   20.8170   33.0150 C   0  0  0  0  0  0  0  0  0  0  0  0
   37.7950   21.6140   32.9410 C   0  0  0  0  0  0  0  0  0  0  0  0
   38.5330   21.6750   31.8000 C   0  0  0  0  0  0  0  0  0  0  0  0
   38.1880   20.9500   30.6740 C   0  0  0  0  0  0  0  0  0  0  0  0
   37.0660   20.1480   30.7200 C   0  0  0  0  0  0  0  0  0  0  0  0
   36.5170   19.1780   29.3660 Cl  0  0  0  0  0  0  0  0  0  0  0  0
   36.3390   20.1050   31.8860 C   0  0  0  0  0  0  0  0  0  0  0  0
   39.4070   22.3050   31.7780 H   0  0  0  0  0  0  0  0  0  0  0  0
   38.7650   20.9870   29.7600 H   0  0  0  0  0  0  0  0  0  0  0  0
   35.4490   19.4780   31.9410 H   0  0  0  0  0  0  0  0  0  0  0  0
   37.8610   25.9020   35.2090 C   0  0  0  0  0  0  0  0  0  0  0  0
   38.4460   26.8560   36.0170 C   0  0  0  0  0  0  0  0  0  0  0  0
   37.8880   28.0770   35.7820 N   0  0  0  0  0  0  0  0  0  0  0  0
   36.9610   27.8800   34.8340 C   0  0  0  0  0  0  0  0  0  0  0  0
   36.9620   26.5890   34.5100 N   0  0  0  0  0  0  0  0  0  0  0  0
   39.2460   26.7470   36.7640 H   0  0  0  0  0  0  0  0  0  0  0  0
   38.1100   28.9960   36.2270 H   0  0  0  0  0  0  0  0  0  0  0  0
   36.0590   28.8350   34.1990 C   0  0  0  0  0  0  0  0  0  0  0  0
   35.4720   29.5630   34.7260 H   0  0  0  0  0  0  0  0  0  0  0  0
   35.8690   28.9090   32.9410 O   0  0  0  0  0  0  0  0  0  0  0  0
  1  2  1  0  0  0  0
  1  7  1  0  0  0  0
  2  8  1  0  0  0  0
  3  2  2  0  0  0  0
  4  3  1  0  0  0  0
  5  4  2  0  0  0  0
  5  6  1  0  0  0  0
  6  1  2  0  0  0  0
 10  9  1  0  0  0  0
 11 10  1  0  0  0  0
 11  5  1  0  0  0  0
 12 11  2  0  0  0  0
 13 14  2  0  0  0  0
 13 12  1  0  0  0  0
 14 16  1  0  0  0  0
 15 14  1  0  0  0  0
 16 19  1  0  0  0  0
 16 10  2  0  0  0  0
 17 12  1  0  0  0  0
 18 13  1  0  0  0  0
 20  3  1  0  0  0  0
 20 21  2  0  0  0  0
 21 25  1  0  0  0  0
 22 21  1  0  0  0  0
 22 26  1  0  0  0  0
 23 22  1  0  0  0  0
 24 23  2  0  0  0  0
 24 20  1  0  0  0  0
 27 28  1  0  0  0  0
 27 23  1  0  0  0  0
 29 27  2  0  0  0  0
M  END
>  <minimizedAffinity>
-5.02958202

$$$$

 OpenBabel03272502443D

 29 31  0  0  0  0  0  0  0  0999 V2000
   36.9580   22.7490   31.5160 C   0  0  0  0  0  0  0  0  0  0  0  0
   37.3720   22.3690   32.7900 C   0  0  0  0  0  0  0  0  0  0  0  0
   37.7690   23.4150   33.6490 C   0  0  0  0  0  0  0  0  0  0  0  0
   37.7290   24.6960   33.1970 N   0  0  0  0  0  0  0  0  0  0  0  0
   37.3160   25.0080   31.9440 C   0  0  0  0  0  0  0  0  0  0  0  0
   36.9380   24.0170   31.1250 N   0  0  0  0  0  0  0  0  0  0  0  0
   36.6460   21.9580   30.8360 H   0  0  0  0  0  0  0  0  0  0  0  0
   37.4120   21.3780   33.1650 H   0  0  0  0  0  0  0  0  0  0  0  0
   39.7820   25.9220   30.5780 Cl  0  0  0  0  0  0  0  0  0  0  0  0
   38.4000   26.9240   30.8710 C   0  0  0  0  0  0  0  0  0  0  0  0
   37.2960   26.3940   31.5210 C   0  0  0  0  0  0  0  0  0  0  0  0
   36.1970   27.1580   31.7650 C   0  0  0  0  0  0  0  0  0  0  0  0
   36.1340   28.4840   31.3790 C   0  0  0  0  0  0  0  0  0  0  0  0
   37.2200   29.0370   30.7310 C   0  0  0  0  0  0  0  0  0  0  0  0
   37.2730   30.7040   30.1890 Cl  0  0  0  0  0  0  0  0  0  0  0  0
   38.3180   28.2440   30.4970 C   0  0  0  0  0  0  0  0  0  0  0  0
   35.3560   26.7120   32.2730 H   0  0  0  0  0  0  0  0  0  0  0  0
   35.2680   29.1040   31.5670 H   0  0  0  0  0  0  0  0  0  0  0  0
   39.1850   28.6630   29.9860 H   0  0  0  0  0  0  0  0  0  0  0  0
   38.2250   23.1570   35.0120 C   0  0  0  0  0  0  0  0  0  0  0  0
   39.1330   22.1740   35.3480 C   0  0  0  0  0  0  0  0  0  0  0  0
   39.3560   22.1800   36.6920 N   0  0  0  0  0  0  0  0  0  0  0  0
   38.5890   23.1620   37.1870 C   0  0  0  0  0  0  0  0  0  0  0  0
   37.9290   23.7250   36.1780 N   0  0  0  0  0  0  0  0  0  0  0  0
   39.6520   21.4490   34.7030 H   0  0  0  0  0  0  0  0  0  0  0  0
   39.9850   21.5640   37.2550 H   0  0  0  0  0  0  0  0  0  0  0  0
   38.4290   23.6160   38.5640 C   0  0  0  0  0  0  0  0  0  0  0  0
   38.6670   23.0310   39.4320 H   0  0  0  0  0  0  0  0  0  0  0  0
   37.9870   24.7670   38.8880 O   0  0  0  0  0  0  0  0  0  0  0  0
  1  2  1  0  0  0  0
  2  8  1  0  0  0  0
  2  3  2  0  0  0  0
  3 20  1  0  0  0  0
  4  3  1  0  0  0  0
  5  4  2  0  0  0  0
  6  1  2  0  0  0  0
  6  5  1  0  0  0  0
  7  1  1  0  0  0  0
  9 10  1  0  0  0  0
 10 11  1  0  0  0  0
 11 12  2  0  0  0  0
 11  5  1  0  0  0  0
 12 17  1  0  0  0  0
 13 18  1  0  0  0  0
 13 12  1  0  0  0  0
 14 13  2  0  0  0  0
 15 14  1  0  0  0  0
 16 14  1  0  0  0  0
 16 10  2  0  0  0  0
 19 16  1  0  0  0  0
 20 21  2  0  0  0  0
 20 24  1  0  0  0  0
 21 22  1  0  0  0  0
 22 23  1  0  0  0  0
 22 26  1  0  0  0  0
 23 27  1  0  0  0  0
 24 23  2  0  0  0  0
 25 21  1  0  0  0  0
 27 29  2  0  0  0  0
 27 28  1  0  0  0  0
M  END
>  <minimizedAffinity>
-4.99989939

$$$$

 OpenBabel03272502443D

 29 31  0  0  0  0  0  0  0  0999 V2000
   36.6730   29.0000   31.8630 C   0  0  0  0  0  0  0  0  0  0  0  0
   37.3720   27.9400   32.4320 C   0  0  0  0  0  0  0  0  0  0  0  0
   36.9900   27.5790   33.7410 C   0  0  0  0  0  0  0  0  0  0  0  0
   35.9910   28.2670   34.3540 N   0  0  0  0  0  0  0  0  0  0  0  0
   35.3440   29.2940   33.7490 C   0  0  0  0  0  0  0  0  0  0  0  0
   35.7050   29.6400   32.5060 N   0  0  0  0  0  0  0  0  0  0  0  0
   36.9520   29.2960   30.8520 H   0  0  0  0  0  0  0  0  0  0  0  0
   38.1540   27.3880   31.9750 H   0  0  0  0  0  0  0  0  0  0  0  0
   36.2830   31.2840   35.7340 Cl  0  0  0  0  0  0  0  0  0  0  0  0
   34.6170   30.9430   35.4080 C   0  0  0  0  0  0  0  0  0  0  0  0
   34.2870   29.9900   34.4560 C   0  0  0  0  0  0  0  0  0  0  0  0
   32.9870   29.7010   34.1790 C   0  0  0  0  0  0  0  0  0  0  0  0
   31.9470   30.3400   34.8290 C   0  0  0  0  0  0  0  0  0  0  0  0
   32.2470   31.2930   35.7810 C   0  0  0  0  0  0  0  0  0  0  0  0
   31.0270   32.1770   36.6790 Cl  0  0  0  0  0  0  0  0  0  0  0  0
   33.5690   31.5650   36.0420 C   0  0  0  0  0  0  0  0  0  0  0  0
   32.7670   28.9540   33.4330 H   0  0  0  0  0  0  0  0  0  0  0  0
   30.9080   30.1210   34.6200 H   0  0  0  0  0  0  0  0  0  0  0  0
   33.8260   32.3150   36.7910 H   0  0  0  0  0  0  0  0  0  0  0  0
   37.6390   26.4840   34.4560 C   0  0  0  0  0  0  0  0  0  0  0  0
   38.7510   25.8130   33.9900 C   0  0  0  0  0  0  0  0  0  0  0  0
   39.1220   24.8470   34.8780 N   0  0  0  0  0  0  0  0  0  0  0  0
   38.2430   24.9180   35.8870 C   0  0  0  0  0  0  0  0  0  0  0  0
   37.3760   25.8910   35.6170 N   0  0  0  0  0  0  0  0  0  0  0  0
   39.3220   25.9620   33.0630 H   0  0  0  0  0  0  0  0  0  0  0  0
   39.9180   24.1720   34.8170 H   0  0  0  0  0  0  0  0  0  0  0  0
   38.1580   24.1240   37.1080 C   0  0  0  0  0  0  0  0  0  0  0  0
   38.6050   24.3950   38.0450 H   0  0  0  0  0  0  0  0  0  0  0  0
   37.5400   23.0130   37.1930 O   0  0  0  0  0  0  0  0  0  0  0  0
  1  2  2  0  0  0  0
  1  6  1  0  0  0  0
  2  3  1  0  0  0  0
  3  4  2  0  0  0  0
  3 20  1  0  0  0  0
  5  4  1  0  0  0  0
  5 11  1  0  0  0  0
  6  5  2  0  0  0  0
  7  1  1  0  0  0  0
  8  2  1  0  0  0  0
 10  9  1  0  0  0  0
 10 16  1  0  0  0  0
 11 10  2  0  0  0  0
 12 11  1  0  0  0  0
 12 13  2  0  0  0  0
 13 14  1  0  0  0  0
 14 16  2  0  0  0  0
 14 15  1  0  0  0  0
 16 19  1  0  0  0  0
 17 12  1  0  0  0  0
 18 13  1  0  0  0  0
 20 24  1  0  0  0  0
 21 20  2  0  0  0  0
 21 22  1  0  0  0  0
 22 23  1  0  0  0  0
 23 27  1  0  0  0  0
 24 23  2  0  0  0  0
 25 21  1  0  0  0  0
 26 22  1  0  0  0  0
 27 29  2  0  0  0  0
 27 28  1  0  0  0  0
M  END
>  <minimizedAffinity>
-4.94161844

$$$$

 OpenBabel03272502443D

 29 31  0  0  0  0  0  0  0  0999 V2000
   34.9230   29.6940   32.3900 C   0  0  0  0  0  0  0  0  0  0  0  0
   35.7290   28.6040   32.7070 C   0  0  0  0  0  0  0  0  0  0  0  0
   36.2000   28.5500   34.0350 C   0  0  0  0  0  0  0  0  0  0  0  0
   35.8510   29.5350   34.9040 N   0  0  0  0  0  0  0  0  0  0  0  0
   35.0620   30.5750   34.5380 C   0  0  0  0  0  0  0  0  0  0  0  0
   34.6130   30.6300   33.2770 N   0  0  0  0  0  0  0  0  0  0  0  0
   34.5470   29.7560   31.3690 H   0  0  0  0  0  0  0  0  0  0  0  0
   36.0140   27.8240   32.0480 H   0  0  0  0  0  0  0  0  0  0  0  0
   36.7140   33.0300   34.3790 Cl  0  0  0  0  0  0  0  0  0  0  0  0
   35.4390   32.7850   35.5240 C   0  0  0  0  0  0  0  0  0  0  0  0
   34.7260   31.5960   35.5110 C   0  0  0  0  0  0  0  0  0  0  0  0
   33.7190   31.3760   36.3990 C   0  0  0  0  0  0  0  0  0  0  0  0
   33.3650   32.3210   37.3430 C   0  0  0  0  0  0  0  0  0  0  0  0
   34.0580   33.5150   37.3780 C   0  0  0  0  0  0  0  0  0  0  0  0
   33.7130   34.7970   38.5230 Cl  0  0  0  0  0  0  0  0  0  0  0  0
   35.0710   33.7110   36.4710 C   0  0  0  0  0  0  0  0  0  0  0  0
   33.1870   30.4390   36.3600 H   0  0  0  0  0  0  0  0  0  0  0  0
   32.5680   32.1610   38.0570 H   0  0  0  0  0  0  0  0  0  0  0  0
   35.6300   34.6470   36.4820 H   0  0  0  0  0  0  0  0  0  0  0  0
   37.0530   27.4610   34.5020 C   0  0  0  0  0  0  0  0  0  0  0  0
   37.9450   27.5760   35.5480 C   0  0  0  0  0  0  0  0  0  0  0  0
   38.5940   26.3940   35.7450 N   0  0  0  0  0  0  0  0  0  0  0  0
   38.1060   25.5500   34.8250 C   0  0  0  0  0  0  0  0  0  0  0  0
   37.1980   26.2010   34.1010 N   0  0  0  0  0  0  0  0  0  0  0  0
   38.1690   28.4440   36.1860 H   0  0  0  0  0  0  0  0  0  0  0  0
   39.3240   26.1570   36.4550 H   0  0  0  0  0  0  0  0  0  0  0  0
   38.4390   24.1520   34.5720 C   0  0  0  0  0  0  0  0  0  0  0  0
   38.2560   23.6380   33.6480 H   0  0  0  0  0  0  0  0  0  0  0  0
   38.9850   23.3830   35.4290 O   0  0  0  0  0  0  0  0  0  0  0  0
  1  2  2  0  0  0  0
  1  6  1  0  0  0  0
  2  3  1  0  0  0  0
  3 20  1  0  0  0  0
  3  4  2  0  0  0  0
  5  4  1  0  0  0  0
  5 11  1  0  0  0  0
  6  5  2  0  0  0  0
  7  1  1  0  0  0  0
  8  2  1  0  0  0  0
  9 10  1  0  0  0  0
 10 16  1  0  0  0  0
 11 10  2  0  0  0  0
 11 12  1  0  0  0  0
 12 13  2  0  0  0  0
 13 14  1  0  0  0  0
 13 18  1  0  0  0  0
 14 15  1  0  0  0  0
 16 19  1  0  0  0  0
 16 14  2  0  0  0  0
 17 12  1  0  0  0  0
 20 21  2  0  0  0  0
 21 22  1  0  0  0  0
 21 25  1  0  0  0  0
 22 26  1  0  0  0  0
 23 22  1  0  0  0  0
 24 20  1  0  0  0  0
 24 23  2  0  0  0  0
 27 23  1  0  0  0  0
 27 29  2  0  0  0  0
 28 27  1  0  0  0  0
M  END
>  <minimizedAffinity>
-4.91036129

$$$$

 OpenBabel03272502443D

 29 31  0  0  0  0  0  0  0  0999 V2000
   36.6620   28.8590   30.4730 C   0  0  0  0  0  0  0  0  0  0  0  0
   36.1200   29.6760   31.4620 C   0  0  0  0  0  0  0  0  0  0  0  0
   35.7860   29.0390   32.6750 C   0  0  0  0  0  0  0  0  0  0  0  0
   36.0050   27.7040   32.8060 N   0  0  0  0  0  0  0  0  0  0  0  0
   36.5360   26.9570   31.8070 C   0  0  0  0  0  0  0  0  0  0  0  0
   36.8540   27.5590   30.6530 N   0  0  0  0  0  0  0  0  0  0  0  0
   36.9270   29.3290   29.5270 H   0  0  0  0  0  0  0  0  0  0  0  0
   35.9400   30.7180   31.3840 H   0  0  0  0  0  0  0  0  0  0  0  0
   34.4540   25.2190   30.6130 Cl  0  0  0  0  0  0  0  0  0  0  0  0
   35.8290   24.6340   31.4900 C   0  0  0  0  0  0  0  0  0  0  0  0
   36.7450   25.5370   32.0080 C   0  0  0  0  0  0  0  0  0  0  0  0
   37.8330   25.1070   32.7020 C   0  0  0  0  0  0  0  0  0  0  0  0
   38.0710   23.7620   32.9170 C   0  0  0  0  0  0  0  0  0  0  0  0
   37.1750   22.8410   32.4120 C   0  0  0  0  0  0  0  0  0  0  0  0
   37.3560   21.1080   32.6120 Cl  0  0  0  0  0  0  0  0  0  0  0  0
   36.0840   23.3030   31.7160 C   0  0  0  0  0  0  0  0  0  0  0  0
   38.5250   25.8370   33.0900 H   0  0  0  0  0  0  0  0  0  0  0  0
   38.9310   23.4040   33.4670 H   0  0  0  0  0  0  0  0  0  0  0  0
   35.3650   22.5910   31.3090 H   0  0  0  0  0  0  0  0  0  0  0  0
   35.2110   29.7770   33.7960 C   0  0  0  0  0  0  0  0  0  0  0  0
   33.8890   29.6860   34.1810 C   0  0  0  0  0  0  0  0  0  0  0  0
   33.6570   30.4920   35.2560 N   0  0  0  0  0  0  0  0  0  0  0  0
   34.8280   31.0800   35.5340 C   0  0  0  0  0  0  0  0  0  0  0  0
   35.7320   30.6440   34.6600 N   0  0  0  0  0  0  0  0  0  0  0  0
   33.0740   29.0850   33.7530 H   0  0  0  0  0  0  0  0  0  0  0  0
   32.7650   30.6450   35.7790 H   0  0  0  0  0  0  0  0  0  0  0  0
   35.1650   32.0390   36.5810 C   0  0  0  0  0  0  0  0  0  0  0  0
   36.1650   32.2960   36.8750 H   0  0  0  0  0  0  0  0  0  0  0  0
   34.3020   32.6790   37.2650 O   0  0  0  0  0  0  0  0  0  0  0  0
  1  6  2  0  0  0  0
  1  2  1  0  0  0  0
  2  3  2  0  0  0  0
  3  4  1  0  0  0  0
  3 20  1  0  0  0  0
  5 11  1  0  0  0  0
  5  4  2  0  0  0  0
  6  5  1  0  0  0  0
  7  1  1  0  0  0  0
  8  2  1  0  0  0  0
  9 10  1  0  0  0  0
 10 16  2  0  0  0  0
 10 11  1  0  0  0  0
 11 12  2  0  0  0  0
 12 13  1  0  0  0  0
 12 17  1  0  0  0  0
 13 18  1  0  0  0  0
 14 15  1  0  0  0  0
 14 13  2  0  0  0  0
 16 14  1  0  0  0  0
 19 16  1  0  0  0  0
 20 21  2  0  0  0  0
 20 24  1  0  0  0  0
 21 22  1  0  0  0  0
 22 23  1  0  0  0  0
 22 26  1  0  0  0  0
 23 27  1  0  0  0  0
 24 23  2  0  0  0  0
 25 21  1  0  0  0  0
 27 28  1  0  0  0  0
 27 29  2  0  0  0  0
M  END
>  <minimizedAffinity>
-4.89096212

$$$$
