
 OpenBabel03262521503D

 26 27  0  0  1  0  0  0  0  0999 V2000
   41.5710   25.9300   33.8020 C   0  0  0  0  0  0  0  0  0  0  0  0
   40.8290   27.1250   33.8960 C   0  0  0  0  0  0  0  0  0  0  0  0
   39.6800   27.1120   34.6900 C   0  0  0  0  0  0  0  0  0  0  0  0
   39.3560   25.9490   35.3190 N   0  0  0  0  0  0  0  0  0  0  0  0
   40.0980   24.8210   35.2020 C   0  0  0  0  0  0  0  0  0  0  0  0
   41.2030   24.8070   34.4460 N   0  0  0  0  0  0  0  0  0  0  0  0
   39.6940   23.6550   35.8860 N   0  0  0  0  0  0  0  0  0  0  0  0
   40.6680   22.6650   36.3280 C   0  0  0  0  0  0  0  0  0  0  0  0
   40.4930   22.3980   37.7730 C   0  0  0  0  0  0  0  0  0  0  0  0
   39.2970   22.8330   38.3730 N   0  0  0  0  0  0  0  0  0  0  0  0
   38.1410   23.0140   37.5810 C   0  0  0  0  0  0  0  0  0  0  0  0
   38.2860   23.4050   36.1710 C   0  0  2  0  0  0  0  0  0  0  0  0
   42.4510   25.9540   33.1890 H   0  0  0  0  0  0  0  0  0  0  0  0
   41.1190   28.0300   33.3820 H   0  0  0  0  0  0  0  0  0  0  0  0
   39.0570   27.9850   34.8140 H   0  0  0  0  0  0  0  0  0  0  0  0
   41.6970   23.0470   36.0710 H   0  0  0  0  0  0  0  0  0  0  0  0
   40.5530   21.7440   35.6900 H   0  0  0  0  0  0  0  0  0  0  0  0
   41.3610   22.8450   38.3150 H   0  0  0  0  0  0  0  0  0  0  0  0
   40.5940   21.2910   37.9210 H   0  0  0  0  0  0  0  0  0  0  0  0
   39.0690   22.3080   39.2220 H   0  0  0  0  0  0  0  0  0  0  0  0
   37.4600   23.7280   38.1210 H   0  0  0  0  0  0  0  0  0  0  0  0
   37.5550   22.0500   37.6030 H   0  0  0  0  0  0  0  0  0  0  0  0
   37.7200   24.3360   35.9600 H   0  0  0  0  0  0  0  0  0  0  0  0
   37.7380   22.3720   35.2220 C   0  0  0  0  0  0  0  0  0  0  0  0
   38.0950   22.4500   34.1990 H   0  0  0  0  0  0  0  0  0  0  0  0
   36.9570   21.5600   35.6860 O   0  0  0  0  0  0  0  0  0  0  0  0
  1  2  2  0  0  0  0
  1  6  1  0  0  0  0
  2  3  1  0  0  0  0
  3 15  1  0  0  0  0
  3  4  2  0  0  0  0
  5  4  1  0  0  0  0
  5  7  1  0  0  0  0
  6  5  2  0  0  0  0
  7 12  1  0  0  0  0
  7  8  1  0  0  0  0
  8  9  1  0  0  0  0
  9 19  1  0  0  0  0
  9 18  1  0  0  0  0
  9 10  1  0  0  0  0
 10 20  1  0  0  0  0
 11 22  1  0  0  0  0
 11 21  1  0  0  0  0
 11 10  1  0  0  0  0
 12 23  1  6  0  0  0
 12 11  1  0  0  0  0
 13  1  1  0  0  0  0
 14  2  1  0  0  0  0
 16  8  1  0  0  0  0
 17  8  1  0  0  0  0
 24 26  2  0  0  0  0
 24 12  1  0  0  0  0
 25 24  1  0  0  0  0
M  END
>  <minimizedAffinity>
-4.18282127

$$$$

 OpenBabel03262521503D

 26 27  0  0  1  0  0  0  0  0999 V2000
   36.9300   27.7620   34.5310 C   0  0  0  0  0  0  0  0  0  0  0  0
   36.6980   27.5450   33.1560 C   0  0  0  0  0  0  0  0  0  0  0  0
   37.0340   26.2960   32.6330 C   0  0  0  0  0  0  0  0  0  0  0  0
   37.5620   25.3730   33.4830 N   0  0  0  0  0  0  0  0  0  0  0  0
   37.7700   25.6210   34.7990 C   0  0  0  0  0  0  0  0  0  0  0  0
   37.4560   26.8120   35.3260 N   0  0  0  0  0  0  0  0  0  0  0  0
   38.3220   24.6120   35.6140 N   0  0  0  0  0  0  0  0  0  0  0  0
   38.0110   24.5360   37.0360 C   0  0  0  0  0  0  0  0  0  0  0  0
   37.5180   23.1810   37.3720 C   0  0  0  0  0  0  0  0  0  0  0  0
   37.7380   22.1600   36.4300 N   0  0  0  0  0  0  0  0  0  0  0  0
   38.7990   22.2750   35.5040 C   0  0  0  0  0  0  0  0  0  0  0  0
   39.2230   23.6100   35.0570 C   0  0  2  0  0  0  0  0  0  0  0  0
   36.6670   28.7270   34.9200 H   0  0  0  0  0  0  0  0  0  0  0  0
   36.2750   28.3040   32.5130 H   0  0  0  0  0  0  0  0  0  0  0  0
   36.8880   26.0510   31.5920 H   0  0  0  0  0  0  0  0  0  0  0  0
   37.2670   25.3480   37.2750 H   0  0  0  0  0  0  0  0  0  0  0  0
   38.9300   24.8300   37.6170 H   0  0  0  0  0  0  0  0  0  0  0  0
   36.4250   23.2540   37.5890 H   0  0  0  0  0  0  0  0  0  0  0  0
   37.9910   22.8880   38.3460 H   0  0  0  0  0  0  0  0  0  0  0  0
   37.7340   21.2270   36.8530 H   0  0  0  0  0  0  0  0  0  0  0  0
   38.5620   21.6190   34.6220 H   0  0  0  0  0  0  0  0  0  0  0  0
   39.7030   21.7690   35.9520 H   0  0  0  0  0  0  0  0  0  0  0  0
   39.1830   23.6860   33.9500 H   0  0  0  0  0  0  0  0  0  0  0  0
   40.6480   23.9240   35.4340 C   0  0  0  0  0  0  0  0  0  0  0  0
   41.0720   24.7970   34.9450 H   0  0  0  0  0  0  0  0  0  0  0  0
   41.1790   23.1790   36.2380 O   0  0  0  0  0  0  0  0  0  0  0  0
  1 13  1  0  0  0  0
  1  6  1  0  0  0  0
  2  1  2  0  0  0  0
  3  2  1  0  0  0  0
  3  4  2  0  0  0  0
  4  5  1  0  0  0  0
  5  6  2  0  0  0  0
  5  7  1  0  0  0  0
  7  8  1  0  0  0  0
  8 16  1  0  0  0  0
  8  9  1  0  0  0  0
  8 17  1  0  0  0  0
  9 18  1  0  0  0  0
  9 19  1  0  0  0  0
 10 20  1  0  0  0  0
 10  9  1  0  0  0  0
 11 22  1  0  0  0  0
 11 10  1  0  0  0  0
 12 23  1  6  0  0  0
 12 24  1  0  0  0  0
 12 11  1  0  0  0  0
 12  7  1  0  0  0  0
 14  2  1  0  0  0  0
 15  3  1  0  0  0  0
 21 11  1  0  0  0  0
 24 26  2  0  0  0  0
 25 24  1  0  0  0  0
M  END
>  <minimizedAffinity>
-4.06687832

$$$$

 OpenBabel03262521503D

 26 27  0  0  1  0  0  0  0  0999 V2000
   39.7480   22.8320   37.6660 C   0  0  0  0  0  0  0  0  0  0  0  0
   38.8480   23.3270   38.6320 C   0  0  0  0  0  0  0  0  0  0  0  0
   37.9050   24.2670   38.2150 C   0  0  0  0  0  0  0  0  0  0  0  0
   37.9180   24.6420   36.9060 N   0  0  0  0  0  0  0  0  0  0  0  0
   38.8010   24.1420   36.0090 C   0  0  0  0  0  0  0  0  0  0  0  0
   39.7160   23.2390   36.3830 N   0  0  0  0  0  0  0  0  0  0  0  0
   38.7490   24.5820   34.6700 N   0  0  0  0  0  0  0  0  0  0  0  0
   39.1700   23.7170   33.5750 C   0  0  0  0  0  0  0  0  0  0  0  0
   38.0940   23.6260   32.5640 C   0  0  0  0  0  0  0  0  0  0  0  0
   37.0610   24.5780   32.6290 N   0  0  0  0  0  0  0  0  0  0  0  0
   37.2970   25.8280   33.2440 C   0  0  0  0  0  0  0  0  0  0  0  0
   38.2710   25.9200   34.3400 C   0  0  2  0  0  0  0  0  0  0  0  0
   40.4680   22.1090   38.0000 H   0  0  0  0  0  0  0  0  0  0  0  0
   38.8690   23.0030   39.6630 H   0  0  0  0  0  0  0  0  0  0  0  0
   37.1810   24.6950   38.8930 H   0  0  0  0  0  0  0  0  0  0  0  0
   39.4550   22.7160   34.0090 H   0  0  0  0  0  0  0  0  0  0  0  0
   40.1380   24.1170   33.1590 H   0  0  0  0  0  0  0  0  0  0  0  0
   37.6540   22.6000   32.6170 H   0  0  0  0  0  0  0  0  0  0  0  0
   38.5810   23.6830   31.5550 H   0  0  0  0  0  0  0  0  0  0  0  0
   36.5870   24.7070   31.7300 H   0  0  0  0  0  0  0  0  0  0  0  0
   36.3030   26.2500   33.5610 H   0  0  0  0  0  0  0  0  0  0  0  0
   37.6260   26.5500   32.4410 H   0  0  0  0  0  0  0  0  0  0  0  0
   37.8030   26.3540   35.2490 H   0  0  0  0  0  0  0  0  0  0  0  0
   39.4330   26.8210   34.0120 C   0  0  0  0  0  0  0  0  0  0  0  0
   39.4620   27.1800   32.9860 H   0  0  0  0  0  0  0  0  0  0  0  0
   40.2170   27.0570   34.9140 O   0  0  0  0  0  0  0  0  0  0  0  0
  1 13  1  0  0  0  0
  1  2  1  0  0  0  0
  2 14  1  0  0  0  0
  3  2  2  0  0  0  0
  3 15  1  0  0  0  0
  4  3  1  0  0  0  0
  5  6  1  0  0  0  0
  5  4  2  0  0  0  0
  6  1  2  0  0  0  0
  7  5  1  0  0  0  0
  8 16  1  0  0  0  0
  8  7  1  0  0  0  0
  9 18  1  0  0  0  0
  9 10  1  0  0  0  0
  9  8  1  0  0  0  0
 10 11  1  0  0  0  0
 11 21  1  0  0  0  0
 11 12  1  0  0  0  0
 12  7  1  0  0  0  0
 12 23  1  1  0  0  0
 17  8  1  0  0  0  0
 19  9  1  0  0  0  0
 20 10  1  0  0  0  0
 22 11  1  0  0  0  0
 24 12  1  0  0  0  0
 24 26  2  0  0  0  0
 25 24  1  0  0  0  0
M  END
>  <minimizedAffinity>
-3.99844217

$$$$

 OpenBabel03262521503D

 26 27  0  0  1  0  0  0  0  0999 V2000
   39.8050   26.7800   34.5890 C   0  0  0  0  0  0  0  0  0  0  0  0
   38.9910   27.2450   35.6430 C   0  0  0  0  0  0  0  0  0  0  0  0
   37.6170   27.3280   35.4100 C   0  0  0  0  0  0  0  0  0  0  0  0
   37.1560   26.9560   34.1840 N   0  0  0  0  0  0  0  0  0  0  0  0
   37.9730   26.5140   33.1970 C   0  0  0  0  0  0  0  0  0  0  0  0
   39.2950   26.4260   33.3950 N   0  0  0  0  0  0  0  0  0  0  0  0
   37.4180   26.1470   31.9540 N   0  0  0  0  0  0  0  0  0  0  0  0
   38.0470   25.1340   31.1170 C   0  0  0  0  0  0  0  0  0  0  0  0
   37.0600   24.0890   30.7640 C   0  0  0  0  0  0  0  0  0  0  0  0
   35.7010   24.3850   30.9740 N   0  0  0  0  0  0  0  0  0  0  0  0
   35.2710   25.7300   30.9980 C   0  0  0  0  0  0  0  0  0  0  0  0
   36.1950   26.7740   31.4670 C   0  0  2  0  0  0  0  0  0  0  0  0
   40.8590   26.7220   34.7810 H   0  0  0  0  0  0  0  0  0  0  0  0
   39.3940   27.5310   36.6040 H   0  0  0  0  0  0  0  0  0  0  0  0
   36.9260   27.6740   36.1650 H   0  0  0  0  0  0  0  0  0  0  0  0
   38.9410   24.7280   31.6710 H   0  0  0  0  0  0  0  0  0  0  0  0
   38.4950   25.6430   30.2170 H   0  0  0  0  0  0  0  0  0  0  0  0
   37.3260   23.1590   31.3230 H   0  0  0  0  0  0  0  0  0  0  0  0
   37.2170   23.8360   29.6830 H   0  0  0  0  0  0  0  0  0  0  0  0
   35.0810   23.8230   30.3830 H   0  0  0  0  0  0  0  0  0  0  0  0
   34.3030   25.7740   31.5690 H   0  0  0  0  0  0  0  0  0  0  0  0
   34.9530   26.0090   29.9520 H   0  0  0  0  0  0  0  0  0  0  0  0
   35.7450   27.3510   32.3020 H   0  0  0  0  0  0  0  0  0  0  0  0
   36.5170   27.7870   30.4000 C   0  0  0  0  0  0  0  0  0  0  0  0
   37.0320   27.3900   29.5290 H   0  0  0  0  0  0  0  0  0  0  0  0
   36.1740   28.9360   30.6130 O   0  0  0  0  0  0  0  0  0  0  0  0
  1 13  1  0  0  0  0
  1  2  1  0  0  0  0
  2 14  1  0  0  0  0
  3  2  2  0  0  0  0
  3 15  1  0  0  0  0
  4  3  1  0  0  0  0
  5  6  1  0  0  0  0
  5  4  2  0  0  0  0
  6  1  2  0  0  0  0
  7  5  1  0  0  0  0
  8 16  1  0  0  0  0
  8  7  1  0  0  0  0
  9 10  1  0  0  0  0
  9  8  1  0  0  0  0
  9 18  1  0  0  0  0
 10 11  1  0  0  0  0
 11 12  1  0  0  0  0
 11 21  1  0  0  0  0
 12  7  1  0  0  0  0
 12 23  1  1  0  0  0
 17  8  1  0  0  0  0
 19  9  1  0  0  0  0
 20 10  1  0  0  0  0
 22 11  1  0  0  0  0
 24 26  2  0  0  0  0
 24 12  1  0  0  0  0
 25 24  1  0  0  0  0
M  END
>  <minimizedAffinity>
-3.89906526

$$$$

 OpenBabel03262521503D

 26 27  0  0  1  0  0  0  0  0999 V2000
   38.2730   27.3160   35.7450 C   0  0  0  0  0  0  0  0  0  0  0  0
   39.5710   26.8950   35.3870 C   0  0  0  0  0  0  0  0  0  0  0  0
   39.8630   26.7890   34.0260 C   0  0  0  0  0  0  0  0  0  0  0  0
   38.8780   27.0980   33.1390 N   0  0  0  0  0  0  0  0  0  0  0  0
   37.6420   27.4990   33.5250 C   0  0  0  0  0  0  0  0  0  0  0  0
   37.3360   27.6080   34.8240 N   0  0  0  0  0  0  0  0  0  0  0  0
   36.6760   27.8010   32.5430 N   0  0  0  0  0  0  0  0  0  0  0  0
   35.6260   28.7790   32.7940 C   0  0  0  0  0  0  0  0  0  0  0  0
   35.6180   29.7970   31.7200 C   0  0  0  0  0  0  0  0  0  0  0  0
   36.3250   29.5000   30.5410 N   0  0  0  0  0  0  0  0  0  0  0  0
   36.5610   28.1530   30.1850 C   0  0  0  0  0  0  0  0  0  0  0  0
   36.7000   27.1410   31.2430 C   0  0  2  0  0  0  0  0  0  0  0  0
   38.0610   27.3930   36.7940 H   0  0  0  0  0  0  0  0  0  0  0  0
   40.3270   26.6590   36.1220 H   0  0  0  0  0  0  0  0  0  0  0  0
   40.8320   26.4730   33.6700 H   0  0  0  0  0  0  0  0  0  0  0  0
   35.7950   29.2190   33.8190 H   0  0  0  0  0  0  0  0  0  0  0  0
   34.6470   28.2310   32.8940 H   0  0  0  0  0  0  0  0  0  0  0  0
   36.0000   30.7550   32.1490 H   0  0  0  0  0  0  0  0  0  0  0  0
   34.5450   29.9990   31.4630 H   0  0  0  0  0  0  0  0  0  0  0  0
   35.9810   30.0270   29.7330 H   0  0  0  0  0  0  0  0  0  0  0  0
   37.4490   28.1280   29.4950 H   0  0  0  0  0  0  0  0  0  0  0  0
   35.7170   27.8220   29.5130 H   0  0  0  0  0  0  0  0  0  0  0  0
   37.6650   26.6010   31.1460 H   0  0  0  0  0  0  0  0  0  0  0  0
   35.6320   26.0810   31.1770 C   0  0  0  0  0  0  0  0  0  0  0  0
   34.7330   26.3650   30.6340 H   0  0  0  0  0  0  0  0  0  0  0  0
   35.8740   25.0230   31.7300 O   0  0  0  0  0  0  0  0  0  0  0  0
  1 13  1  0  0  0  0
  2  1  1  0  0  0  0
  2 14  1  0  0  0  0
  3  2  2  0  0  0  0
  4  5  2  0  0  0  0
  4  3  1  0  0  0  0
  5  6  1  0  0  0  0
  6  1  2  0  0  0  0
  7  8  1  0  0  0  0
  7  5  1  0  0  0  0
  8 17  1  0  0  0  0
  8 16  1  0  0  0  0
  9 18  1  0  0  0  0
  9  8  1  0  0  0  0
 10  9  1  0  0  0  0
 11 10  1  0  0  0  0
 11 12  1  0  0  0  0
 12 23  1  6  0  0  0
 12  7  1  0  0  0  0
 15  3  1  0  0  0  0
 19  9  1  0  0  0  0
 20 10  1  0  0  0  0
 21 11  1  0  0  0  0
 22 11  1  0  0  0  0
 24 12  1  0  0  0  0
 24 26  2  0  0  0  0
 25 24  1  0  0  0  0
M  END
>  <minimizedAffinity>
-3.84607005

$$$$

 OpenBabel03262521503D

 26 27  0  0  1  0  0  0  0  0999 V2000
   37.2060   23.4860   32.6450 C   0  0  0  0  0  0  0  0  0  0  0  0
   37.3930   22.2010   32.0950 C   0  0  0  0  0  0  0  0  0  0  0  0
   38.2180   21.3140   32.7890 C   0  0  0  0  0  0  0  0  0  0  0  0
   38.7850   21.7480   33.9470 N   0  0  0  0  0  0  0  0  0  0  0  0
   38.5800   22.9930   34.4430 C   0  0  0  0  0  0  0  0  0  0  0  0
   37.7940   23.8630   33.7960 N   0  0  0  0  0  0  0  0  0  0  0  0
   39.2050   23.3670   35.6500 N   0  0  0  0  0  0  0  0  0  0  0  0
   38.5990   24.3490   36.5400 C   0  0  0  0  0  0  0  0  0  0  0  0
   38.4880   23.7900   37.9060 C   0  0  0  0  0  0  0  0  0  0  0  0
   39.2360   22.6340   38.1960 N   0  0  0  0  0  0  0  0  0  0  0  0
   40.3990   22.3450   37.4470 C   0  0  0  0  0  0  0  0  0  0  0  0
   40.4800   22.7800   36.0450 C   0  0  2  0  0  0  0  0  0  0  0  0
   36.5700   24.1580   32.1020 H   0  0  0  0  0  0  0  0  0  0  0  0
   36.9240   21.8920   31.1720 H   0  0  0  0  0  0  0  0  0  0  0  0
   38.4120   20.3130   32.4340 H   0  0  0  0  0  0  0  0  0  0  0  0
   37.6050   24.6500   36.1030 H   0  0  0  0  0  0  0  0  0  0  0  0
   39.2120   25.2940   36.4960 H   0  0  0  0  0  0  0  0  0  0  0  0
   37.4080   23.5920   38.1110 H   0  0  0  0  0  0  0  0  0  0  0  0
   38.7780   24.6020   38.6220 H   0  0  0  0  0  0  0  0  0  0  0  0
   39.4200   22.5270   39.1980 H   0  0  0  0  0  0  0  0  0  0  0  0
   40.5980   21.2410   37.5300 H   0  0  0  0  0  0  0  0  0  0  0  0
   41.2780   22.7960   37.9910 H   0  0  0  0  0  0  0  0  0  0  0  0
   40.6870   21.9190   35.3770 H   0  0  0  0  0  0  0  0  0  0  0  0
   41.6010   23.7590   35.8060 C   0  0  0  0  0  0  0  0  0  0  0  0
   41.3790   24.5470   35.0900 H   0  0  0  0  0  0  0  0  0  0  0  0
   42.6320   23.5760   36.4280 O   0  0  0  0  0  0  0  0  0  0  0  0
  1  6  1  0  0  0  0
  2  1  2  0  0  0  0
  2  3  1  0  0  0  0
  3  4  2  0  0  0  0
  4  5  1  0  0  0  0
  5  7  1  0  0  0  0
  6  5  2  0  0  0  0
  7 12  1  0  0  0  0
  7  8  1  0  0  0  0
  8  9  1  0  0  0  0
  9 18  1  0  0  0  0
  9 10  1  0  0  0  0
  9 19  1  0  0  0  0
 10 20  1  0  0  0  0
 11 21  1  0  0  0  0
 11 22  1  0  0  0  0
 11 10  1  0  0  0  0
 12 23  1  6  0  0  0
 12 11  1  0  0  0  0
 13  1  1  0  0  0  0
 14  2  1  0  0  0  0
 15  3  1  0  0  0  0
 16  8  1  0  0  0  0
 17  8  1  0  0  0  0
 24 12  1  0  0  0  0
 24 26  2  0  0  0  0
 25 24  1  0  0  0  0
M  END
>  <minimizedAffinity>
-3.83066487

$$$$

 OpenBabel03262521503D

 26 27  0  0  1  0  0  0  0  0999 V2000
   37.8560   24.2310   38.2400 C   0  0  0  0  0  0  0  0  0  0  0  0
   38.8990   23.3840   38.6700 C   0  0  0  0  0  0  0  0  0  0  0  0
   39.7510   22.8620   37.6960 C   0  0  0  0  0  0  0  0  0  0  0  0
   39.5180   23.2040   36.3990 N   0  0  0  0  0  0  0  0  0  0  0  0
   38.5030   24.0220   36.0270 C   0  0  0  0  0  0  0  0  0  0  0  0
   37.6720   24.5360   36.9420 N   0  0  0  0  0  0  0  0  0  0  0  0
   38.3290   24.3290   34.6610 N   0  0  0  0  0  0  0  0  0  0  0  0
   37.7410   25.5940   34.2420 C   0  0  0  0  0  0  0  0  0  0  0  0
   38.6360   26.2690   33.2760 C   0  0  0  0  0  0  0  0  0  0  0  0
   39.6570   25.4990   32.6900 N   0  0  0  0  0  0  0  0  0  0  0  0
   39.5140   24.0960   32.6020 C   0  0  0  0  0  0  0  0  0  0  0  0
   38.7330   23.3850   33.6250 C   0  0  2  0  0  0  0  0  0  0  0  0
   37.2080   24.6250   38.9990 H   0  0  0  0  0  0  0  0  0  0  0  0
   39.0520   23.1360   39.7110 H   0  0  0  0  0  0  0  0  0  0  0  0
   40.5720   22.2060   37.9420 H   0  0  0  0  0  0  0  0  0  0  0  0
   37.5420   26.2100   35.1650 H   0  0  0  0  0  0  0  0  0  0  0  0
   36.7140   25.3890   33.8270 H   0  0  0  0  0  0  0  0  0  0  0  0
   39.0880   27.1560   33.7840 H   0  0  0  0  0  0  0  0  0  0  0  0
   37.9890   26.6960   32.4650 H   0  0  0  0  0  0  0  0  0  0  0  0
   39.9740   25.8820   31.7940 H   0  0  0  0  0  0  0  0  0  0  0  0
   40.5420   23.6480   32.5080 H   0  0  0  0  0  0  0  0  0  0  0  0
   39.0490   23.8600   31.6010 H   0  0  0  0  0  0  0  0  0  0  0  0
   39.3400   22.5870   34.1010 H   0  0  0  0  0  0  0  0  0  0  0  0
   37.5240   22.6900   33.0550 C   0  0  0  0  0  0  0  0  0  0  0  0
   37.2090   23.0420   32.0760 H   0  0  0  0  0  0  0  0  0  0  0  0
   37.0240   21.8130   33.7360 O   0  0  0  0  0  0  0  0  0  0  0  0
  1  2  1  0  0  0  0
  1 13  1  0  0  0  0
  2 14  1  0  0  0  0
  3 15  1  0  0  0  0
  3  2  2  0  0  0  0
  4  3  1  0  0  0  0
  5  4  2  0  0  0  0
  5  6  1  0  0  0  0
  6  1  2  0  0  0  0
  7  5  1  0  0  0  0
  8  7  1  0  0  0  0
  8 16  1  0  0  0  0
  9 18  1  0  0  0  0
  9  8  1  0  0  0  0
 10  9  1  0  0  0  0
 11 10  1  0  0  0  0
 11 12  1  0  0  0  0
 12 23  1  1  0  0  0
 12  7  1  0  0  0  0
 17  8  1  0  0  0  0
 19  9  1  0  0  0  0
 20 10  1  0  0  0  0
 21 11  1  0  0  0  0
 22 11  1  0  0  0  0
 24 12  1  0  0  0  0
 24 26  2  0  0  0  0
 25 24  1  0  0  0  0
M  END
>  <minimizedAffinity>
-3.71851349

$$$$

 OpenBabel03262521503D

 26 27  0  0  1  0  0  0  0  0999 V2000
   35.0130   32.1550   36.8110 C   0  0  0  0  0  0  0  0  0  0  0  0
   35.9620   31.7680   35.8420 C   0  0  0  0  0  0  0  0  0  0  0  0
   35.5640   30.8320   34.8850 C   0  0  0  0  0  0  0  0  0  0  0  0
   34.2900   30.3570   34.9530 N   0  0  0  0  0  0  0  0  0  0  0  0
   33.4080   30.7550   35.9020 C   0  0  0  0  0  0  0  0  0  0  0  0
   33.7650   31.6520   36.8300 N   0  0  0  0  0  0  0  0  0  0  0  0
   32.1050   30.2160   35.9030 N   0  0  0  0  0  0  0  0  0  0  0  0
   30.9740   30.9780   36.4160 C   0  0  0  0  0  0  0  0  0  0  0  0
   29.9000   31.0290   35.3990 C   0  0  0  0  0  0  0  0  0  0  0  0
   29.9780   30.1210   34.3270 N   0  0  0  0  0  0  0  0  0  0  0  0
   30.6980   28.9150   34.4800 C   0  0  0  0  0  0  0  0  0  0  0  0
   31.8510   28.8740   35.3910 C   0  0  2  0  0  0  0  0  0  0  0  0
   35.3310   32.8750   37.5400 H   0  0  0  0  0  0  0  0  0  0  0  0
   36.9650   32.1690   35.8210 H   0  0  0  0  0  0  0  0  0  0  0  0
   36.2310   30.4840   34.1100 H   0  0  0  0  0  0  0  0  0  0  0  0
   31.3470   31.9980   36.7160 H   0  0  0  0  0  0  0  0  0  0  0  0
   30.6440   30.5130   37.3870 H   0  0  0  0  0  0  0  0  0  0  0  0
   29.8520   32.0700   34.9990 H   0  0  0  0  0  0  0  0  0  0  0  0
   28.9270   30.8770   35.9360 H   0  0  0  0  0  0  0  0  0  0  0  0
   29.0660   29.9410   33.8970 H   0  0  0  0  0  0  0  0  0  0  0  0
   30.9900   28.5540   33.4560 H   0  0  0  0  0  0  0  0  0  0  0  0
   29.9710   28.1230   34.8230 H   0  0  0  0  0  0  0  0  0  0  0  0
   32.7620   28.5280   34.8590 H   0  0  0  0  0  0  0  0  0  0  0  0
   31.6560   27.9090   36.5320 C   0  0  0  0  0  0  0  0  0  0  0  0
   32.3910   27.9840   37.3290 H   0  0  0  0  0  0  0  0  0  0  0  0
   30.7080   27.1490   36.4510 O   0  0  0  0  0  0  0  0  0  0  0  0
  1  6  1  0  0  0  0
  1 13  1  0  0  0  0
  2  1  2  0  0  0  0
  3  4  2  0  0  0  0
  3  2  1  0  0  0  0
  4  5  1  0  0  0  0
  5  7  1  0  0  0  0
  5  6  2  0  0  0  0
  7  8  1  0  0  0  0
  8 16  1  0  0  0  0
  8 17  1  0  0  0  0
  9 19  1  0  0  0  0
  9  8  1  0  0  0  0
 10 11  1  0  0  0  0
 10  9  1  0  0  0  0
 11 22  1  0  0  0  0
 11 12  1  0  0  0  0
 12 23  1  6  0  0  0
 12  7  1  0  0  0  0
 12 24  1  0  0  0  0
 14  2  1  0  0  0  0
 15  3  1  0  0  0  0
 18  9  1  0  0  0  0
 20 10  1  0  0  0  0
 21 11  1  0  0  0  0
 24 25  1  0  0  0  0
 26 24  2  0  0  0  0
M  END
>  <minimizedAffinity>
-3.71211171

$$$$

 OpenBabel03262521503D

 26 27  0  0  1  0  0  0  0  0999 V2000
   36.5830   25.7010   32.0340 C   0  0  0  0  0  0  0  0  0  0  0  0
   36.4380   24.6710   31.0820 C   0  0  0  0  0  0  0  0  0  0  0  0
   36.9800   23.4230   31.3930 C   0  0  0  0  0  0  0  0  0  0  0  0
   37.6110   23.2850   32.5920 N   0  0  0  0  0  0  0  0  0  0  0  0
   37.7290   24.3020   33.4800 C   0  0  0  0  0  0  0  0  0  0  0  0
   37.2190   25.5090   33.2050 N   0  0  0  0  0  0  0  0  0  0  0  0
   38.3980   24.0780   34.7010 N   0  0  0  0  0  0  0  0  0  0  0  0
   38.0500   24.8290   35.9000 C   0  0  0  0  0  0  0  0  0  0  0  0
   37.7570   23.8960   37.0110 C   0  0  0  0  0  0  0  0  0  0  0  0
   38.1650   22.5590   36.8580 N   0  0  0  0  0  0  0  0  0  0  0  0
   39.2290   22.2450   35.9840 C   0  0  0  0  0  0  0  0  0  0  0  0
   39.4610   23.0850   34.8000 C   0  0  2  0  0  0  0  0  0  0  0  0
   36.1630   26.6560   31.7830 H   0  0  0  0  0  0  0  0  0  0  0  0
   35.9290   24.8200   30.1410 H   0  0  0  0  0  0  0  0  0  0  0  0
   36.9110   22.5820   30.7190 H   0  0  0  0  0  0  0  0  0  0  0  0
   37.1820   25.5040   35.6500 H   0  0  0  0  0  0  0  0  0  0  0  0
   38.8910   25.5420   36.1290 H   0  0  0  0  0  0  0  0  0  0  0  0
   36.6580   23.9270   37.2090 H   0  0  0  0  0  0  0  0  0  0  0  0
   38.2320   24.3200   37.9340 H   0  0  0  0  0  0  0  0  0  0  0  0
   38.2870   22.0800   37.7560 H   0  0  0  0  0  0  0  0  0  0  0  0
   39.1270   21.1640   35.6880 H   0  0  0  0  0  0  0  0  0  0  0  0
   40.1820   22.2460   36.5880 H   0  0  0  0  0  0  0  0  0  0  0  0
   39.4510   22.4730   33.8740 H   0  0  0  0  0  0  0  0  0  0  0  0
   40.8060   23.7630   34.8230 C   0  0  0  0  0  0  0  0  0  0  0  0
   41.0900   24.2580   33.8980 H   0  0  0  0  0  0  0  0  0  0  0  0
   41.4380   23.6920   35.8620 O   0  0  0  0  0  0  0  0  0  0  0  0
  1  6  1  0  0  0  0
  2  3  1  0  0  0  0
  2  1  2  0  0  0  0
  3  4  2  0  0  0  0
  4  5  1  0  0  0  0
  5  7  1  0  0  0  0
  6  5  2  0  0  0  0
  7 12  1  0  0  0  0
  7  8  1  0  0  0  0
  8 17  1  0  0  0  0
  8  9  1  0  0  0  0
  9 18  1  0  0  0  0
  9 19  1  0  0  0  0
 10  9  1  0  0  0  0
 10 20  1  0  0  0  0
 11 22  1  0  0  0  0
 11 10  1  0  0  0  0
 12 23  1  6  0  0  0
 12 24  1  0  0  0  0
 12 11  1  0  0  0  0
 13  1  1  0  0  0  0
 14  2  1  0  0  0  0
 15  3  1  0  0  0  0
 16  8  1  0  0  0  0
 21 11  1  0  0  0  0
 24 26  2  0  0  0  0
 25 24  1  0  0  0  0
M  END
>  <minimizedAffinity>
-3.70248771

$$$$
