
 OpenBabel03272505563D

 28 29  0  0  1  0  0  0  0  0999 V2000
   38.1510   25.8030   33.6420 C   0  0  2  0  0  0  0  0  0  0  0  0
   38.3130   24.7750   34.7410 C   0  0  0  0  0  0  0  0  0  0  0  0
   37.7500   25.2380   36.0560 C   0  0  2  0  0  0  0  0  0  0  0  0
   38.3990   26.5280   36.4900 C   0  0  0  0  0  0  0  0  0  0  0  0
   38.3900   27.5660   35.4200 C   0  0  0  0  0  0  0  0  0  0  0  0
   37.7060   27.1340   34.1410 C   0  0  0  0  0  0  0  0  0  0  0  0
   39.1110   25.9030   33.0860 H   0  0  0  0  0  0  0  0  0  0  0  0
   37.9170   23.8060   34.4470 H   0  0  0  0  0  0  0  0  0  0  0  0
   39.4160   24.6480   34.9300 H   0  0  0  0  0  0  0  0  0  0  0  0
   36.6500   25.4400   35.9030 H   0  0  0  0  0  0  0  0  0  0  0  0
   37.9500   26.8680   37.4450 H   0  0  0  0  0  0  0  0  0  0  0  0
   39.4740   26.2520   36.7020 H   0  0  0  0  0  0  0  0  0  0  0  0
   39.4190   27.9490   35.1770 H   0  0  0  0  0  0  0  0  0  0  0  0
   37.8500   28.4600   35.7930 H   0  0  0  0  0  0  0  0  0  0  0  0
   36.6070   27.1280   34.2740 H   0  0  0  0  0  0  0  0  0  0  0  0
   37.9330   27.9280   33.4010 H   0  0  0  0  0  0  0  0  0  0  0  0
   37.1350   25.3260   32.6560 C   0  0  0  0  0  0  0  0  0  0  0  0
   36.3860   26.3180   32.0000 C   0  0  0  0  0  0  0  0  0  0  0  0
   35.4280   25.8910   31.0820 C   0  0  0  0  0  0  0  0  0  0  0  0
   35.2560   24.5410   30.8590 N   0  0  0  0  0  0  0  0  0  0  0  0
   36.0090   23.6110   31.5230 C   0  0  0  0  0  0  0  0  0  0  0  0
   36.9300   24.0120   32.4050 N   0  0  0  0  0  0  0  0  0  0  0  0
   36.4430   27.3690   32.1080 H   0  0  0  0  0  0  0  0  0  0  0  0
   34.7940   26.5720   30.5180 H   0  0  0  0  0  0  0  0  0  0  0  0
   35.8520   22.5600   31.3300 H   0  0  0  0  0  0  0  0  0  0  0  0
   37.9780   24.1950   37.0680 C   0  0  0  0  0  0  0  0  0  0  0  0
   38.1590   23.1620   36.7340 H   0  0  0  0  0  0  0  0  0  0  0  0
   37.9680   24.4630   38.2630 O   0  0  0  0  0  0  0  0  0  0  0  0
  1  7  1  6  0  0  0
  1  6  1  0  0  0  0
  1  2  1  0  0  0  0
  2  9  1  0  0  0  0
  2  3  1  0  0  0  0
  3 10  1  6  0  0  0
  3  4  1  0  0  0  0
  3 26  1  0  0  0  0
  4 12  1  0  0  0  0
  4 11  1  0  0  0  0
  5 14  1  0  0  0  0
  5  4  1  0  0  0  0
  6 15  1  0  0  0  0
  6  5  1  0  0  0  0
  8  2  1  0  0  0  0
 13  5  1  0  0  0  0
 16  6  1  0  0  0  0
 17  1  1  0  0  0  0
 18 23  1  0  0  0  0
 18 17  2  0  0  0  0
 19 18  1  0  0  0  0
 20 19  2  0  0  0  0
 20 21  1  0  0  0  0
 21 22  2  0  0  0  0
 22 17  1  0  0  0  0
 24 19  1  0  0  0  0
 25 21  1  0  0  0  0
 26 28  2  0  0  0  0
 27 26  1  0  0  0  0
M  END
>  <minimizedAffinity>
-4.24933863

$$$$

 OpenBabel03272505563D

 28 29  0  0  1  0  0  0  0  0999 V2000
   38.6850   24.9540   35.9120 C   0  0  2  0  0  0  0  0  0  0  0  0
   39.8290   23.9620   35.9140 C   0  0  0  0  0  0  0  0  0  0  0  0
   39.5310   22.7350   36.7290 C   0  0  2  0  0  0  0  0  0  0  0  0
   39.2010   23.1060   38.1530 C   0  0  0  0  0  0  0  0  0  0  0  0
   38.1590   24.1710   38.2430 C   0  0  0  0  0  0  0  0  0  0  0  0
   37.6240   24.6310   36.9050 C   0  0  0  0  0  0  0  0  0  0  0  0
   39.0850   25.9770   36.0960 H   0  0  0  0  0  0  0  0  0  0  0  0
   40.1470   23.7140   34.9050 H   0  0  0  0  0  0  0  0  0  0  0  0
   40.7020   24.4480   36.4360 H   0  0  0  0  0  0  0  0  0  0  0  0
   38.6190   22.2420   36.2820 H   0  0  0  0  0  0  0  0  0  0  0  0
   38.9540   22.1920   38.7300 H   0  0  0  0  0  0  0  0  0  0  0  0
   40.1630   23.5220   38.5720 H   0  0  0  0  0  0  0  0  0  0  0  0
   38.5030   25.0650   38.8310 H   0  0  0  0  0  0  0  0  0  0  0  0
   37.2980   23.7800   38.8230 H   0  0  0  0  0  0  0  0  0  0  0  0
   36.9410   23.8700   36.4800 H   0  0  0  0  0  0  0  0  0  0  0  0
   37.0050   25.5240   37.1260 H   0  0  0  0  0  0  0  0  0  0  0  0
   38.0490   24.9810   34.5610 C   0  0  0  0  0  0  0  0  0  0  0  0
   37.4990   26.2090   34.1530 C   0  0  0  0  0  0  0  0  0  0  0  0
   36.8950   26.2510   32.8980 C   0  0  0  0  0  0  0  0  0  0  0  0
   36.8610   25.1110   32.1230 N   0  0  0  0  0  0  0  0  0  0  0  0
   37.4090   23.9370   32.5630 C   0  0  0  0  0  0  0  0  0  0  0  0
   37.9910   23.8880   33.7650 N   0  0  0  0  0  0  0  0  0  0  0  0
   37.4730   27.1280   34.6770 H   0  0  0  0  0  0  0  0  0  0  0  0
   36.4380   27.1480   32.4830 H   0  0  0  0  0  0  0  0  0  0  0  0
   37.3680   23.0590   31.9340 H   0  0  0  0  0  0  0  0  0  0  0  0
   40.7020   21.8460   36.7010 C   0  0  0  0  0  0  0  0  0  0  0  0
   41.0630   21.4730   35.7300 H   0  0  0  0  0  0  0  0  0  0  0  0
   41.2720   21.5200   37.7350 O   0  0  0  0  0  0  0  0  0  0  0  0
  1  2  1  0  0  0  0
  1  7  1  1  0  0  0
  1  6  1  0  0  0  0
  2  9  1  0  0  0  0
  2  3  1  0  0  0  0
  3 10  1  6  0  0  0
  3  4  1  0  0  0  0
  4  5  1  0  0  0  0
  4 12  1  0  0  0  0
  4 11  1  0  0  0  0
  5 14  1  0  0  0  0
  5 13  1  0  0  0  0
  6 16  1  0  0  0  0
  6  5  1  0  0  0  0
  8  2  1  0  0  0  0
 15  6  1  0  0  0  0
 17  1  1  0  0  0  0
 18 17  1  0  0  0  0
 18 23  1  0  0  0  0
 19 18  2  0  0  0  0
 20 21  2  0  0  0  0
 20 19  1  0  0  0  0
 21 22  1  0  0  0  0
 22 17  2  0  0  0  0
 24 19  1  0  0  0  0
 25 21  1  0  0  0  0
 26  3  1  0  0  0  0
 26 28  2  0  0  0  0
 27 26  1  0  0  0  0
M  END
>  <minimizedAffinity>
-4.23718071

$$$$

 OpenBabel03272505563D

 28 29  0  0  1  0  0  0  0  0999 V2000
   37.4340   26.9410   33.2670 C   0  0  2  0  0  0  0  0  0  0  0  0
   38.9130   26.9280   32.9440 C   0  0  0  0  0  0  0  0  0  0  0  0
   39.7470   26.3760   34.0660 C   0  0  2  0  0  0  0  0  0  0  0  0
   39.5280   27.1650   35.3320 C   0  0  0  0  0  0  0  0  0  0  0  0
   38.0830   27.3300   35.6650 C   0  0  0  0  0  0  0  0  0  0  0  0
   37.1410   26.6480   34.6970 C   0  0  0  0  0  0  0  0  0  0  0  0
   37.0030   27.9270   32.9810 H   0  0  0  0  0  0  0  0  0  0  0  0
   39.1130   26.4250   32.0010 H   0  0  0  0  0  0  0  0  0  0  0  0
   39.2480   27.9980   32.8370 H   0  0  0  0  0  0  0  0  0  0  0  0
   39.4040   25.3180   34.2570 H   0  0  0  0  0  0  0  0  0  0  0  0
   40.1280   26.7250   36.1550 H   0  0  0  0  0  0  0  0  0  0  0  0
   39.9550   28.1860   35.1120 H   0  0  0  0  0  0  0  0  0  0  0  0
   37.7830   28.4070   35.7760 H   0  0  0  0  0  0  0  0  0  0  0  0
   37.8950   26.8920   36.6680 H   0  0  0  0  0  0  0  0  0  0  0  0
   37.1490   25.5530   34.8580 H   0  0  0  0  0  0  0  0  0  0  0  0
   36.1270   27.0030   34.9730 H   0  0  0  0  0  0  0  0  0  0  0  0
   36.7320   25.9130   32.4410 C   0  0  0  0  0  0  0  0  0  0  0  0
   35.7390   26.3860   31.5660 C   0  0  0  0  0  0  0  0  0  0  0  0
   35.0680   25.4390   30.7920 C   0  0  0  0  0  0  0  0  0  0  0  0
   35.3990   24.1060   30.9140 N   0  0  0  0  0  0  0  0  0  0  0  0
   36.3740   23.6930   31.7810 C   0  0  0  0  0  0  0  0  0  0  0  0
   37.0220   24.5940   32.5260 N   0  0  0  0  0  0  0  0  0  0  0  0
   35.4150   27.3810   31.4090 H   0  0  0  0  0  0  0  0  0  0  0  0
   34.2830   25.6940   30.0830 H   0  0  0  0  0  0  0  0  0  0  0  0
   36.6110   22.6420   31.8560 H   0  0  0  0  0  0  0  0  0  0  0  0
   41.1650   26.4300   33.6790 C   0  0  0  0  0  0  0  0  0  0  0  0
   41.6910   25.4890   33.4580 H   0  0  0  0  0  0  0  0  0  0  0  0
   41.7570   27.4990   33.6020 O   0  0  0  0  0  0  0  0  0  0  0  0
  1  7  1  6  0  0  0
  1  6  1  0  0  0  0
  2  1  1  0  0  0  0
  2  3  1  0  0  0  0
  3 10  1  1  0  0  0
  3  4  1  0  0  0  0
  4  5  1  0  0  0  0
  4 11  1  0  0  0  0
  5 13  1  0  0  0  0
  5 14  1  0  0  0  0
  6 15  1  0  0  0  0
  6 16  1  0  0  0  0
  6  5  1  0  0  0  0
  8  2  1  0  0  0  0
  9  2  1  0  0  0  0
 12  4  1  0  0  0  0
 17 22  1  0  0  0  0
 17  1  1  0  0  0  0
 18 17  2  0  0  0  0
 19 20  2  0  0  0  0
 19 18  1  0  0  0  0
 20 21  1  0  0  0  0
 21 25  1  0  0  0  0
 21 22  2  0  0  0  0
 23 18  1  0  0  0  0
 24 19  1  0  0  0  0
 26  3  1  0  0  0  0
 27 26  1  0  0  0  0
 28 26  2  0  0  0  0
M  END
>  <minimizedAffinity>
-4.12097168

$$$$

 OpenBabel03272505563D

 28 29  0  0  1  0  0  0  0  0999 V2000
   38.8450   24.7200   34.7590 C   0  0  2  0  0  0  0  0  0  0  0  0
   40.2260   25.2330   34.4050 C   0  0  0  0  0  0  0  0  0  0  0  0
   40.2670   26.7280   34.2520 C   0  0  2  0  0  0  0  0  0  0  0  0
   39.2890   27.1850   33.2000 C   0  0  0  0  0  0  0  0  0  0  0  0
   37.9210   26.6270   33.4040 C   0  0  0  0  0  0  0  0  0  0  0  0
   37.7830   25.7560   34.6340 C   0  0  0  0  0  0  0  0  0  0  0  0
   38.6030   23.8420   34.1180 H   0  0  0  0  0  0  0  0  0  0  0  0
   40.9780   24.8730   35.1020 H   0  0  0  0  0  0  0  0  0  0  0  0
   40.4870   24.8330   33.3850 H   0  0  0  0  0  0  0  0  0  0  0  0
   39.9500   27.1800   35.2360 H   0  0  0  0  0  0  0  0  0  0  0  0
   39.3130   28.2910   33.1230 H   0  0  0  0  0  0  0  0  0  0  0  0
   39.6950   26.7700   32.2310 H   0  0  0  0  0  0  0  0  0  0  0  0
   37.5430   26.0640   32.5080 H   0  0  0  0  0  0  0  0  0  0  0  0
   37.2060   27.4680   33.5170 H   0  0  0  0  0  0  0  0  0  0  0  0
   37.7670   26.3790   35.5490 H   0  0  0  0  0  0  0  0  0  0  0  0
   36.7820   25.2860   34.5520 H   0  0  0  0  0  0  0  0  0  0  0  0
   38.8390   24.2330   36.1710 C   0  0  0  0  0  0  0  0  0  0  0  0
   39.8060   23.2680   36.5030 C   0  0  0  0  0  0  0  0  0  0  0  0
   39.8100   22.7960   37.8140 C   0  0  0  0  0  0  0  0  0  0  0  0
   38.8870   23.2830   38.7140 N   0  0  0  0  0  0  0  0  0  0  0  0
   37.9640   24.2230   38.3440 C   0  0  0  0  0  0  0  0  0  0  0  0
   37.9520   24.6820   37.0890 N   0  0  0  0  0  0  0  0  0  0  0  0
   40.5460   22.8330   35.8840 H   0  0  0  0  0  0  0  0  0  0  0  0
   40.5140   22.0500   38.1790 H   0  0  0  0  0  0  0  0  0  0  0  0
   37.2510   24.5880   39.0700 H   0  0  0  0  0  0  0  0  0  0  0  0
   41.6320   27.1320   33.8800 C   0  0  0  0  0  0  0  0  0  0  0  0
   42.4700   26.8320   34.5270 H   0  0  0  0  0  0  0  0  0  0  0  0
   41.8400   27.7920   32.8690 O   0  0  0  0  0  0  0  0  0  0  0  0
  1  7  1  6  0  0  0
  1 17  1  0  0  0  0
  2  1  1  0  0  0  0
  2  8  1  0  0  0  0
  3  2  1  0  0  0  0
  3 10  1  1  0  0  0
  4  5  1  0  0  0  0
  4  3  1  0  0  0  0
  5 14  1  0  0  0  0
  5  6  1  0  0  0  0
  6  1  1  0  0  0  0
  6 15  1  0  0  0  0
  9  2  1  0  0  0  0
 11  4  1  0  0  0  0
 12  4  1  0  0  0  0
 13  5  1  0  0  0  0
 16  6  1  0  0  0  0
 17 18  2  0  0  0  0
 17 22  1  0  0  0  0
 18 19  1  0  0  0  0
 19 24  1  0  0  0  0
 19 20  2  0  0  0  0
 21 20  1  0  0  0  0
 21 25  1  0  0  0  0
 22 21  2  0  0  0  0
 23 18  1  0  0  0  0
 26  3  1  0  0  0  0
 26 27  1  0  0  0  0
 28 26  2  0  0  0  0
M  END
>  <minimizedAffinity>
-4.0560627

$$$$

 OpenBabel03272505563D

 28 29  0  0  1  0  0  0  0  0999 V2000
   37.7150   25.3410   35.6690 C   0  0  2  0  0  0  0  0  0  0  0  0
   37.8300   25.0600   34.1850 C   0  0  0  0  0  0  0  0  0  0  0  0
   38.5740   26.1370   33.4470 C   0  0  2  0  0  0  0  0  0  0  0  0
   37.9090   27.4760   33.6430 C   0  0  0  0  0  0  0  0  0  0  0  0
   37.6480   27.7850   35.0790 C   0  0  0  0  0  0  0  0  0  0  0  0
   38.1320   26.7220   36.0400 C   0  0  0  0  0  0  0  0  0  0  0  0
   36.6680   25.1540   35.9990 H   0  0  0  0  0  0  0  0  0  0  0  0
   38.2450   24.0740   33.9950 H   0  0  0  0  0  0  0  0  0  0  0  0
   36.7900   25.0810   33.7520 H   0  0  0  0  0  0  0  0  0  0  0  0
   39.6100   26.2000   33.8890 H   0  0  0  0  0  0  0  0  0  0  0  0
   38.4890   28.2610   33.1160 H   0  0  0  0  0  0  0  0  0  0  0  0
   36.9130   27.3830   33.1190 H   0  0  0  0  0  0  0  0  0  0  0  0
   36.5660   28.0060   35.2860 H   0  0  0  0  0  0  0  0  0  0  0  0
   38.1720   28.7270   35.3430 H   0  0  0  0  0  0  0  0  0  0  0  0
   39.2340   26.7600   36.1360 H   0  0  0  0  0  0  0  0  0  0  0  0
   37.7170   27.0060   37.0290 H   0  0  0  0  0  0  0  0  0  0  0  0
   38.5790   24.3870   36.4270 C   0  0  0  0  0  0  0  0  0  0  0  0
   38.1920   24.1090   37.7490 C   0  0  0  0  0  0  0  0  0  0  0  0
   38.9910   23.2260   38.4740 C   0  0  0  0  0  0  0  0  0  0  0  0
   40.1050   22.6730   37.8790 N   0  0  0  0  0  0  0  0  0  0  0  0
   40.4420   22.9750   36.5880 C   0  0  0  0  0  0  0  0  0  0  0  0
   39.6820   23.8200   35.8850 N   0  0  0  0  0  0  0  0  0  0  0  0
   37.3630   24.4850   38.2890 H   0  0  0  0  0  0  0  0  0  0  0  0
   38.7840   22.9400   39.5040 H   0  0  0  0  0  0  0  0  0  0  0  0
   41.3210   22.5280   36.1470 H   0  0  0  0  0  0  0  0  0  0  0  0
   38.6100   25.7990   32.0160 C   0  0  0  0  0  0  0  0  0  0  0  0
   39.3210   26.3270   31.3630 H   0  0  0  0  0  0  0  0  0  0  0  0
   37.8650   24.9450   31.5510 O   0  0  0  0  0  0  0  0  0  0  0  0
  1  7  1  1  0  0  0
  1  6  1  0  0  0  0
  1 17  1  0  0  0  0
  2  1  1  0  0  0  0
  3  4  1  0  0  0  0
  3 10  1  1  0  0  0
  3  2  1  0  0  0  0
  4  5  1  0  0  0  0
  5 13  1  0  0  0  0
  5 14  1  0  0  0  0
  5  6  1  0  0  0  0
  6 15  1  0  0  0  0
  6 16  1  0  0  0  0
  8  2  1  0  0  0  0
  9  2  1  0  0  0  0
 11  4  1  0  0  0  0
 12  4  1  0  0  0  0
 17 18  1  0  0  0  0
 18 23  1  0  0  0  0
 18 19  2  0  0  0  0
 19 24  1  0  0  0  0
 20 19  1  0  0  0  0
 21 20  2  0  0  0  0
 22 17  2  0  0  0  0
 22 21  1  0  0  0  0
 25 21  1  0  0  0  0
 26  3  1  0  0  0  0
 27 26  1  0  0  0  0
 28 26  2  0  0  0  0
M  END
>  <minimizedAffinity>
-3.99080443

$$$$

 OpenBabel03272505563D

 28 29  0  0  1  0  0  0  0  0999 V2000
   38.5040   23.8290   35.7030 C   0  0  2  0  0  0  0  0  0  0  0  0
   39.9400   23.3760   35.8620 C   0  0  0  0  0  0  0  0  0  0  0  0
   40.1200   22.4060   36.9960 C   0  0  2  0  0  0  0  0  0  0  0  0
   39.6490   23.0090   38.2950 C   0  0  0  0  0  0  0  0  0  0  0  0
   38.2780   23.5900   38.1960 C   0  0  0  0  0  0  0  0  0  0  0  0
   37.6300   23.4260   36.8390 C   0  0  0  0  0  0  0  0  0  0  0  0
   38.4790   24.9350   35.5730 H   0  0  0  0  0  0  0  0  0  0  0  0
   40.3460   22.9930   34.9290 H   0  0  0  0  0  0  0  0  0  0  0  0
   40.5520   24.2760   36.1550 H   0  0  0  0  0  0  0  0  0  0  0  0
   39.4740   21.5060   36.7800 H   0  0  0  0  0  0  0  0  0  0  0  0
   39.7610   22.2690   39.1130 H   0  0  0  0  0  0  0  0  0  0  0  0
   40.3720   23.8510   38.5000 H   0  0  0  0  0  0  0  0  0  0  0  0
   38.2440   24.6740   38.4940 H   0  0  0  0  0  0  0  0  0  0  0  0
   37.6220   23.0860   38.9360 H   0  0  0  0  0  0  0  0  0  0  0  0
   37.2980   22.3790   36.6950 H   0  0  0  0  0  0  0  0  0  0  0  0
   36.7130   24.0490   36.8720 H   0  0  0  0  0  0  0  0  0  0  0  0
   37.9280   23.2400   34.4570 C   0  0  0  0  0  0  0  0  0  0  0  0
   37.4880   21.9080   34.5410 C   0  0  0  0  0  0  0  0  0  0  0  0
   36.9550   21.3390   33.3850 C   0  0  0  0  0  0  0  0  0  0  0  0
   36.8820   22.0890   32.2310 N   0  0  0  0  0  0  0  0  0  0  0  0
   37.3240   23.3830   32.1970 C   0  0  0  0  0  0  0  0  0  0  0  0
   37.8370   23.9370   33.3010 N   0  0  0  0  0  0  0  0  0  0  0  0
   37.5080   21.2560   35.3740 H   0  0  0  0  0  0  0  0  0  0  0  0
   36.5850   20.3160   33.3380 H   0  0  0  0  0  0  0  0  0  0  0  0
   37.2560   23.9480   31.2790 H   0  0  0  0  0  0  0  0  0  0  0  0
   41.5420   22.0450   37.0960 C   0  0  0  0  0  0  0  0  0  0  0  0
   42.2880   22.6830   36.5980 H   0  0  0  0  0  0  0  0  0  0  0  0
   41.8990   21.0550   37.7210 O   0  0  0  0  0  0  0  0  0  0  0  0
  1  7  1  6  0  0  0
  1  2  1  0  0  0  0
  1  6  1  0  0  0  0
  2  9  1  0  0  0  0
  2  3  1  0  0  0  0
  3 10  1  6  0  0  0
  3 26  1  0  0  0  0
  3  4  1  0  0  0  0
  4 12  1  0  0  0  0
  4 11  1  0  0  0  0
  5  4  1  0  0  0  0
  5 13  1  0  0  0  0
  5 14  1  0  0  0  0
  6 16  1  0  0  0  0
  6  5  1  0  0  0  0
  8  2  1  0  0  0  0
 15  6  1  0  0  0  0
 17 18  1  0  0  0  0
 17  1  1  0  0  0  0
 18 23  1  0  0  0  0
 19 18  2  0  0  0  0
 20 19  1  0  0  0  0
 21 20  2  0  0  0  0
 21 22  1  0  0  0  0
 22 17  2  0  0  0  0
 24 19  1  0  0  0  0
 25 21  1  0  0  0  0
 26 28  2  0  0  0  0
 27 26  1  0  0  0  0
M  END
>  <minimizedAffinity>
-3.96170425

$$$$

 OpenBabel03272505563D

 28 29  0  0  1  0  0  0  0  0999 V2000
   38.6190   22.3220   35.0300 C   0  0  2  0  0  0  0  0  0  0  0  0
   37.9930   22.6520   36.3690 C   0  0  0  0  0  0  0  0  0  0  0  0
   38.9240   23.4070   37.2750 C   0  0  2  0  0  0  0  0  0  0  0  0
   40.1930   22.6270   37.5060 C   0  0  0  0  0  0  0  0  0  0  0  0
   40.8200   22.1570   36.2370 C   0  0  0  0  0  0  0  0  0  0  0  0
   40.0840   22.5850   34.9860 C   0  0  0  0  0  0  0  0  0  0  0  0
   38.4120   21.2570   34.7790 H   0  0  0  0  0  0  0  0  0  0  0  0
   37.0380   23.1590   36.2510 H   0  0  0  0  0  0  0  0  0  0  0  0
   37.7970   21.6800   36.9030 H   0  0  0  0  0  0  0  0  0  0  0  0
   39.2020   24.3690   36.7540 H   0  0  0  0  0  0  0  0  0  0  0  0
   40.8790   23.2120   38.1520 H   0  0  0  0  0  0  0  0  0  0  0  0
   39.8700   21.7190   38.0940 H   0  0  0  0  0  0  0  0  0  0  0  0
   40.9710   21.0430   36.2130 H   0  0  0  0  0  0  0  0  0  0  0  0
   41.8470   22.5720   36.1700 H   0  0  0  0  0  0  0  0  0  0  0  0
   40.2600   23.6590   34.7830 H   0  0  0  0  0  0  0  0  0  0  0  0
   40.5610   22.0240   34.1560 H   0  0  0  0  0  0  0  0  0  0  0  0
   37.9780   23.1450   33.9610 C   0  0  0  0  0  0  0  0  0  0  0  0
   37.2890   22.4410   32.9590 C   0  0  0  0  0  0  0  0  0  0  0  0
   36.6900   23.1930   31.9490 C   0  0  0  0  0  0  0  0  0  0  0  0
   36.7960   24.5670   31.9720 N   0  0  0  0  0  0  0  0  0  0  0  0
   37.4790   25.2090   32.9700 C   0  0  0  0  0  0  0  0  0  0  0  0
   38.0550   24.4960   33.9420 N   0  0  0  0  0  0  0  0  0  0  0  0
   37.1590   21.3960   32.8550 H   0  0  0  0  0  0  0  0  0  0  0  0
   36.1330   22.7510   31.1250 H   0  0  0  0  0  0  0  0  0  0  0  0
   37.5460   26.2870   32.9630 H   0  0  0  0  0  0  0  0  0  0  0  0
   38.2470   23.6560   38.5570 C   0  0  0  0  0  0  0  0  0  0  0  0
   37.9510   22.7970   39.1770 H   0  0  0  0  0  0  0  0  0  0  0  0
   38.0120   24.7970   38.9340 O   0  0  0  0  0  0  0  0  0  0  0  0
  1  7  1  6  0  0  0
  1  2  1  0  0  0  0
  2  9  1  0  0  0  0
  2  3  1  0  0  0  0
  3 10  1  6  0  0  0
  3  4  1  0  0  0  0
  3 26  1  0  0  0  0
  4 12  1  0  0  0  0
  4 11  1  0  0  0  0
  5  4  1  0  0  0  0
  6  1  1  0  0  0  0
  6  5  1  0  0  0  0
  8  2  1  0  0  0  0
 13  5  1  0  0  0  0
 14  5  1  0  0  0  0
 15  6  1  0  0  0  0
 16  6  1  0  0  0  0
 17  1  1  0  0  0  0
 18 17  2  0  0  0  0
 19 20  2  0  0  0  0
 19 18  1  0  0  0  0
 20 21  1  0  0  0  0
 21 22  2  0  0  0  0
 22 17  1  0  0  0  0
 23 18  1  0  0  0  0
 24 19  1  0  0  0  0
 25 21  1  0  0  0  0
 26 28  2  0  0  0  0
 26 27  1  0  0  0  0
M  END
>  <minimizedAffinity>
-3.94991517

$$$$

 OpenBabel03272505563D

 28 29  0  0  1  0  0  0  0  0999 V2000
   36.7880   21.6490   32.3450 C   0  0  2  0  0  0  0  0  0  0  0  0
   37.3540   20.8350   31.2000 C   0  0  0  0  0  0  0  0  0  0  0  0
   36.3440   19.8960   30.6020 C   0  0  2  0  0  0  0  0  0  0  0  0
   35.8010   18.9580   31.6500 C   0  0  0  0  0  0  0  0  0  0  0  0
   35.3270   19.6720   32.8710 C   0  0  0  0  0  0  0  0  0  0  0  0
   35.4510   21.1780   32.7970 C   0  0  0  0  0  0  0  0  0  0  0  0
   37.5080   21.6380   33.1950 H   0  0  0  0  0  0  0  0  0  0  0  0
   37.8180   21.4690   30.4480 H   0  0  0  0  0  0  0  0  0  0  0  0
   38.1550   20.1650   31.6210 H   0  0  0  0  0  0  0  0  0  0  0  0
   35.4840   20.5190   30.2180 H   0  0  0  0  0  0  0  0  0  0  0  0
   35.0370   18.2950   31.1960 H   0  0  0  0  0  0  0  0  0  0  0  0
   36.6790   18.3120   31.9410 H   0  0  0  0  0  0  0  0  0  0  0  0
   35.8260   19.3050   33.8090 H   0  0  0  0  0  0  0  0  0  0  0  0
   34.2530   19.4390   33.0270 H   0  0  0  0  0  0  0  0  0  0  0  0
   34.6690   21.5980   32.1360 H   0  0  0  0  0  0  0  0  0  0  0  0
   35.2300   21.5420   33.8210 H   0  0  0  0  0  0  0  0  0  0  0  0
   36.6480   23.0750   31.9230 C   0  0  0  0  0  0  0  0  0  0  0  0
   35.3840   23.4640   31.4440 C   0  0  0  0  0  0  0  0  0  0  0  0
   35.2370   24.7900   31.0390 C   0  0  0  0  0  0  0  0  0  0  0  0
   36.3120   25.6480   31.1220 N   0  0  0  0  0  0  0  0  0  0  0  0
   37.5240   25.2240   31.5940 C   0  0  0  0  0  0  0  0  0  0  0  0
   37.6750   23.9550   31.9860 N   0  0  0  0  0  0  0  0  0  0  0  0
   34.5080   22.8800   31.3400 H   0  0  0  0  0  0  0  0  0  0  0  0
   34.3040   25.1970   30.6540 H   0  0  0  0  0  0  0  0  0  0  0  0
   38.3500   25.9180   31.6480 H   0  0  0  0  0  0  0  0  0  0  0  0
   36.9850   19.1280   29.5230 C   0  0  0  0  0  0  0  0  0  0  0  0
   37.9940   18.7200   29.6890 H   0  0  0  0  0  0  0  0  0  0  0  0
   36.4140   18.9420   28.4560 O   0  0  0  0  0  0  0  0  0  0  0  0
  1  6  1  0  0  0  0
  1  7  1  1  0  0  0
  2  9  1  0  0  0  0
  2  1  1  0  0  0  0
  3 10  1  6  0  0  0
  3  2  1  0  0  0  0
  3  4  1  0  0  0  0
  4 12  1  0  0  0  0
  4  5  1  0  0  0  0
  5 14  1  0  0  0  0
  5 13  1  0  0  0  0
  6  5  1  0  0  0  0
  6 16  1  0  0  0  0
  8  2  1  0  0  0  0
 11  4  1  0  0  0  0
 15  6  1  0  0  0  0
 17 22  1  0  0  0  0
 17  1  1  0  0  0  0
 18 17  2  0  0  0  0
 19 20  2  0  0  0  0
 19 18  1  0  0  0  0
 20 21  1  0  0  0  0
 21 25  1  0  0  0  0
 21 22  2  0  0  0  0
 23 18  1  0  0  0  0
 24 19  1  0  0  0  0
 26 27  1  0  0  0  0
 26  3  1  0  0  0  0
 28 26  2  0  0  0  0
M  END
>  <minimizedAffinity>
-3.88844633

$$$$

 OpenBabel03272505563D

 28 29  0  0  1  0  0  0  0  0999 V2000
   38.4740   26.3840   35.4560 C   0  0  2  0  0  0  0  0  0  0  0  0
   37.3330   26.6250   34.4900 C   0  0  0  0  0  0  0  0  0  0  0  0
   37.7180   26.3630   33.0610 C   0  0  2  0  0  0  0  0  0  0  0  0
   38.8920   27.2200   32.6590 C   0  0  0  0  0  0  0  0  0  0  0  0
   40.0250   27.1340   33.6250 C   0  0  0  0  0  0  0  0  0  0  0  0
   39.7860   26.1870   34.7800 C   0  0  0  0  0  0  0  0  0  0  0  0
   38.5350   27.2330   36.1740 H   0  0  0  0  0  0  0  0  0  0  0  0
   36.4400   26.0770   34.7790 H   0  0  0  0  0  0  0  0  0  0  0  0
   37.0840   27.7230   34.5240 H   0  0  0  0  0  0  0  0  0  0  0  0
   38.0380   25.2830   32.9870 H   0  0  0  0  0  0  0  0  0  0  0  0
   39.1800   26.9900   31.6130 H   0  0  0  0  0  0  0  0  0  0  0  0
   38.4960   28.2770   32.6760 H   0  0  0  0  0  0  0  0  0  0  0  0
   40.3300   28.1380   34.0270 H   0  0  0  0  0  0  0  0  0  0  0  0
   40.9270   26.7720   33.0870 H   0  0  0  0  0  0  0  0  0  0  0  0
   39.8720   25.1360   34.4430 H   0  0  0  0  0  0  0  0  0  0  0  0
   40.6230   26.3640   35.4860 H   0  0  0  0  0  0  0  0  0  0  0  0
   38.1930   25.1600   36.2660 C   0  0  0  0  0  0  0  0  0  0  0  0
   38.1110   25.3370   37.6580 C   0  0  0  0  0  0  0  0  0  0  0  0
   37.8570   24.2040   38.4300 C   0  0  0  0  0  0  0  0  0  0  0  0
   37.6990   22.9820   37.8110 N   0  0  0  0  0  0  0  0  0  0  0  0
   37.7880   22.8590   36.4510 C   0  0  0  0  0  0  0  0  0  0  0  0
   38.0310   23.9400   35.7030 N   0  0  0  0  0  0  0  0  0  0  0  0
   38.2220   26.2270   38.2190 H   0  0  0  0  0  0  0  0  0  0  0  0
   37.7730   24.2260   39.5150 H   0  0  0  0  0  0  0  0  0  0  0  0
   37.6600   21.8890   35.9930 H   0  0  0  0  0  0  0  0  0  0  0  0
   36.5650   26.6520   32.1950 C   0  0  0  0  0  0  0  0  0  0  0  0
   35.5500   26.5410   32.6060 H   0  0  0  0  0  0  0  0  0  0  0  0
   36.7230   27.0100   31.0340 O   0  0  0  0  0  0  0  0  0  0  0  0
  1  7  1  1  0  0  0
  1 17  1  0  0  0  0
  2  9  1  0  0  0  0
  2  8  1  0  0  0  0
  2  1  1  0  0  0  0
  3 10  1  6  0  0  0
  3  2  1  0  0  0  0
  4 12  1  0  0  0  0
  4  3  1  0  0  0  0
  4  5  1  0  0  0  0
  5 13  1  0  0  0  0
  5  6  1  0  0  0  0
  6  1  1  0  0  0  0
  6 16  1  0  0  0  0
 11  4  1  0  0  0  0
 14  5  1  0  0  0  0
 15  6  1  0  0  0  0
 17 18  1  0  0  0  0
 18 23  1  0  0  0  0
 18 19  2  0  0  0  0
 19 24  1  0  0  0  0
 20 19  1  0  0  0  0
 21 20  2  0  0  0  0
 22 17  2  0  0  0  0
 22 21  1  0  0  0  0
 25 21  1  0  0  0  0
 26 27  1  0  0  0  0
 26  3  1  0  0  0  0
 28 26  2  0  0  0  0
M  END
>  <minimizedAffinity>
-3.85063243

$$$$
