
 OpenBabel03272504363D

 24 25  0  0  0  0  0  0  0  0999 V2000
   38.5940   30.9600   49.8180 Cl  0  0  0  0  0  0  0  0  0  0  0  0
   37.2380   30.4950   48.8420 C   0  0  0  0  0  0  0  0  0  0  0  0
   37.2400   30.7540   47.4960 C   0  0  0  0  0  0  0  0  0  0  0  0
   36.1750   30.3940   46.7090 C   0  0  0  0  0  0  0  0  0  0  0  0
   35.1010   29.7650   47.2950 C   0  0  0  0  0  0  0  0  0  0  0  0
   35.0990   29.5010   48.6570 C   0  0  0  0  0  0  0  0  0  0  0  0
   36.1710   29.8620   49.4670 C   0  0  0  0  0  0  0  0  0  0  0  0
   36.2130   30.6200   45.6350 H   0  0  0  0  0  0  0  0  0  0  0  0
   34.2980   29.5060   46.6260 H   0  0  0  0  0  0  0  0  0  0  0  0
   34.2220   28.9990   49.0780 H   0  0  0  0  0  0  0  0  0  0  0  0
   39.8040   33.2520   46.5820 C   0  0  0  0  0  0  0  0  0  0  0  0
   40.5490   32.5470   45.6320 C   0  0  0  0  0  0  0  0  0  0  0  0
   40.1550   31.2410   45.3300 C   0  0  0  0  0  0  0  0  0  0  0  0
   39.0780   30.7180   45.9650 N   0  0  0  0  0  0  0  0  0  0  0  0
   38.3790   31.4230   46.8780 C   0  0  0  0  0  0  0  0  0  0  0  0
   38.7490   32.6740   47.1740 N   0  0  0  0  0  0  0  0  0  0  0  0
   40.0860   34.2650   46.8360 H   0  0  0  0  0  0  0  0  0  0  0  0
   41.3840   33.0300   45.1760 H   0  0  0  0  0  0  0  0  0  0  0  0
   40.9290   30.5320   44.3530 N   0  0  0  0  0  0  0  0  0  0  0  0
   40.4790   30.2080   43.4620 H   0  0  0  0  0  0  0  0  0  0  0  0
   41.9530   30.2850   44.4290 H   0  0  0  0  0  0  0  0  0  0  0  0
   36.1630   29.5820   50.8990 C   0  0  0  0  0  0  0  0  0  0  0  0
   37.0760   29.7700   51.4440 H   0  0  0  0  0  0  0  0  0  0  0  0
   35.1320   29.1450   51.4460 O   0  0  0  0  0  0  0  0  0  0  0  0
  2  7  1  0  0  0  0
  2  1  1  0  0  0  0
  3  2  2  0  0  0  0
  4  5  2  0  0  0  0
  4  3  1  0  0  0  0
  5  6  1  0  0  0  0
  6 10  1  0  0  0  0
  6  7  2  0  0  0  0
  7 22  1  0  0  0  0
  8  4  1  0  0  0  0
  9  5  1  0  0  0  0
 11 17  1  0  0  0  0
 11 16  1  0  0  0  0
 12 11  2  0  0  0  0
 13 12  1  0  0  0  0
 13 14  2  0  0  0  0
 14 15  1  0  0  0  0
 15 16  2  0  0  0  0
 15  3  1  0  0  0  0
 18 12  1  0  0  0  0
 19 21  1  0  0  0  0
 19 13  1  0  0  0  0
 20 19  1  0  0  0  0
 22 23  1  0  0  0  0
 22 24  2  0  0  0  0
M  END
>  <minimizedAffinity>
-5.6133337

>  <minimizedRMSD>
2.5914886

$$$$
