
 OpenBabel03262522443D

 29 31  0  0  1  0  0  0  0  0999 V2000
   38.8670   26.5360   35.1640 C   0  0  1  0  0  0  0  0  0  0  0  0
   38.1580   26.4660   36.4540 C   0  0  0  0  0  0  0  0  0  0  0  0
   38.2450   25.2210   35.7170 C   0  0  2  0  0  0  0  0  0  0  0  0
   39.9470   26.4280   35.0310 H   0  0  0  0  0  0  0  0  0  0  0  0
   37.1900   27.0690   36.4760 H   0  0  0  0  0  0  0  0  0  0  0  0
   38.8090   26.8210   37.2720 H   0  0  0  0  0  0  0  0  0  0  0  0
   37.5650   24.9120   34.8790 H   0  0  0  0  0  0  0  0  0  0  0  0
   37.8220   23.9740   38.5420 Cl  0  0  0  0  0  0  0  0  0  0  0  0
   39.1230   23.5250   37.4600 C   0  0  0  0  0  0  0  0  0  0  0  0
   39.0840   24.1510   36.2230 C   0  0  0  0  0  0  0  0  0  0  0  0
   40.0400   23.7690   35.3330 C   0  0  0  0  0  0  0  0  0  0  0  0
   41.0120   22.8030   35.6370 C   0  0  0  0  0  0  0  0  0  0  0  0
   41.0170   22.1950   36.9000 C   0  0  0  0  0  0  0  0  0  0  0  0
   42.1590   20.9610   37.3990 Cl  0  0  0  0  0  0  0  0  0  0  0  0
   40.0470   22.5790   37.8120 C   0  0  0  0  0  0  0  0  0  0  0  0
   40.1750   24.1370   34.3260 H   0  0  0  0  0  0  0  0  0  0  0  0
   41.7850   22.4770   34.9540 H   0  0  0  0  0  0  0  0  0  0  0  0
   39.9500   22.1840   38.8140 H   0  0  0  0  0  0  0  0  0  0  0  0
   38.7480   27.1440   32.6790 C   0  0  0  0  0  0  0  0  0  0  0  0
   38.1660   27.1650   34.0010 C   0  0  0  0  0  0  0  0  0  0  0  0
   36.9510   27.8180   34.1610 C   0  0  0  0  0  0  0  0  0  0  0  0
   36.3640   28.4090   33.0650 N   0  0  0  0  0  0  0  0  0  0  0  0
   36.9440   28.3660   31.8430 C   0  0  0  0  0  0  0  0  0  0  0  0
   38.1200   27.7400   31.6570 N   0  0  0  0  0  0  0  0  0  0  0  0
   39.7060   26.6270   32.5580 H   0  0  0  0  0  0  0  0  0  0  0  0
   36.4800   27.8580   35.1370 H   0  0  0  0  0  0  0  0  0  0  0  0
   36.2580   29.0170   30.7320 C   0  0  0  0  0  0  0  0  0  0  0  0
   35.2090   29.3040   30.8460 H   0  0  0  0  0  0  0  0  0  0  0  0
   36.9070   29.2270   29.6740 O   0  0  0  0  0  0  0  0  0  0  0  0
  1  4  1  1  0  0  0
  1  3  1  0  0  0  0
  1  2  1  0  0  0  0
  2  5  1  0  0  0  0
  2  6  1  0  0  0  0
  3  7  1  6  0  0  0
  3 10  1  0  0  0  0
  3  2  1  0  0  0  0
  9 15  1  0  0  0  0
  9  8  1  0  0  0  0
 10  9  2  0  0  0  0
 11 12  2  0  0  0  0
 11 10  1  0  0  0  0
 12 13  1  0  0  0  0
 13 14  1  0  0  0  0
 13 15  2  0  0  0  0
 15 18  1  0  0  0  0
 16 11  1  0  0  0  0
 17 12  1  0  0  0  0
 19 20  1  0  0  0  0
 20 21  2  0  0  0  0
 20  1  1  0  0  0  0
 21 26  1  0  0  0  0
 22 21  1  0  0  0  0
 23 22  2  0  0  0  0
 24 23  1  0  0  0  0
 24 19  2  0  0  0  0
 25 19  1  0  0  0  0
 27 28  1  0  0  0  0
 27 23  1  0  0  0  0
 29 27  2  0  0  0  0
M  END
>  <minimizedAffinity>
-5.22868061

$$$$

 OpenBabel03262522443D

 29 31  0  0  1  0  0  0  0  0999 V2000
   36.2290   29.0020   33.2310 C   0  0  1  0  0  0  0  0  0  0  0  0
   35.4060   29.9070   32.4100 C   0  0  0  0  0  0  0  0  0  0  0  0
   34.7930   29.4430   33.6370 C   0  0  2  0  0  0  0  0  0  0  0  0
   36.9580   29.3190   33.9810 H   0  0  0  0  0  0  0  0  0  0  0  0
   35.1080   29.4650   31.4010 H   0  0  0  0  0  0  0  0  0  0  0  0
   35.9390   30.8570   32.2310 H   0  0  0  0  0  0  0  0  0  0  0  0
   34.2740   28.4560   33.7740 H   0  0  0  0  0  0  0  0  0  0  0  0
   32.2440   29.3490   35.4280 Cl  0  0  0  0  0  0  0  0  0  0  0  0
   33.4940   30.5660   35.5710 C   0  0  0  0  0  0  0  0  0  0  0  0
   34.5770   30.3800   34.7250 C   0  0  0  0  0  0  0  0  0  0  0  0
   35.5990   31.2680   34.8630 C   0  0  0  0  0  0  0  0  0  0  0  0
   35.5700   32.3130   35.8000 C   0  0  0  0  0  0  0  0  0  0  0  0
   34.4560   32.4660   36.6360 C   0  0  0  0  0  0  0  0  0  0  0  0
   34.3030   33.7120   37.8610 Cl  0  0  0  0  0  0  0  0  0  0  0  0
   33.4110   31.5670   36.5010 C   0  0  0  0  0  0  0  0  0  0  0  0
   36.5220   31.2890   34.3010 H   0  0  0  0  0  0  0  0  0  0  0  0
   36.3640   33.0340   35.9350 H   0  0  0  0  0  0  0  0  0  0  0  0
   32.5020   31.5830   37.0850 H   0  0  0  0  0  0  0  0  0  0  0  0
   35.8030   27.1220   31.5450 C   0  0  0  0  0  0  0  0  0  0  0  0
   36.3860   27.5830   32.7840 C   0  0  0  0  0  0  0  0  0  0  0  0
   37.0680   26.6550   33.5600 C   0  0  0  0  0  0  0  0  0  0  0  0
   37.1550   25.3530   33.1190 N   0  0  0  0  0  0  0  0  0  0  0  0
   36.5930   24.9640   31.9520 C   0  0  0  0  0  0  0  0  0  0  0  0
   35.9270   25.8390   31.1780 N   0  0  0  0  0  0  0  0  0  0  0  0
   35.2670   27.8570   30.9350 H   0  0  0  0  0  0  0  0  0  0  0  0
   37.5210   26.9590   34.4980 H   0  0  0  0  0  0  0  0  0  0  0  0
   36.7290   23.5670   31.5550 C   0  0  0  0  0  0  0  0  0  0  0  0
   37.6730   23.0470   31.7440 H   0  0  0  0  0  0  0  0  0  0  0  0
   35.7450   23.0060   31.0050 O   0  0  0  0  0  0  0  0  0  0  0  0
  1  3  1  0  0  0  0
  1  4  1  1  0  0  0
  2  1  1  0  0  0  0
  2  3  1  0  0  0  0
  3  7  1  6  0  0  0
  3 10  1  0  0  0  0
  5  2  1  0  0  0  0
  6  2  1  0  0  0  0
  8  9  1  0  0  0  0
  9 15  1  0  0  0  0
 10 11  1  0  0  0  0
 10  9  2  0  0  0  0
 11 12  2  0  0  0  0
 12 17  1  0  0  0  0
 12 13  1  0  0  0  0
 13 14  1  0  0  0  0
 15 13  2  0  0  0  0
 15 18  1  0  0  0  0
 16 11  1  0  0  0  0
 19 20  1  0  0  0  0
 20  1  1  0  0  0  0
 20 21  2  0  0  0  0
 21 26  1  0  0  0  0
 22 21  1  0  0  0  0
 23 22  2  0  0  0  0
 24 19  2  0  0  0  0
 24 23  1  0  0  0  0
 25 19  1  0  0  0  0
 27 28  1  0  0  0  0
 27 23  1  0  0  0  0
 29 27  2  0  0  0  0
M  END
>  <minimizedAffinity>
-4.83838797

$$$$

 OpenBabel03262522443D

 29 31  0  0  1  0  0  0  0  0999 V2000
   38.8800   26.2410   35.3090 C   0  0  1  0  0  0  0  0  0  0  0  0
   38.1340   25.6870   36.4520 C   0  0  0  0  0  0  0  0  0  0  0  0
   38.5760   24.7230   35.4650 C   0  0  2  0  0  0  0  0  0  0  0  0
   39.9580   26.4200   35.2870 H   0  0  0  0  0  0  0  0  0  0  0  0
   37.0460   26.0270   36.4950 H   0  0  0  0  0  0  0  0  0  0  0  0
   38.6230   25.9630   37.4030 H   0  0  0  0  0  0  0  0  0  0  0  0
   38.0490   24.4880   34.5020 H   0  0  0  0  0  0  0  0  0  0  0  0
   40.7910   23.8900   33.4370 Cl  0  0  0  0  0  0  0  0  0  0  0  0
   40.6360   23.2160   35.0450 C   0  0  0  0  0  0  0  0  0  0  0  0
   39.6250   23.7800   35.8090 C   0  0  0  0  0  0  0  0  0  0  0  0
   39.5250   23.3290   37.0900 C   0  0  0  0  0  0  0  0  0  0  0  0
   40.3860   22.3540   37.6160 C   0  0  0  0  0  0  0  0  0  0  0  0
   41.3950   21.8090   36.8100 C   0  0  0  0  0  0  0  0  0  0  0  0
   42.5480   20.6030   37.3490 Cl  0  0  0  0  0  0  0  0  0  0  0  0
   41.5030   22.2630   35.5050 C   0  0  0  0  0  0  0  0  0  0  0  0
   38.8080   23.6430   37.8350 H   0  0  0  0  0  0  0  0  0  0  0  0
   40.3340   21.9740   38.6270 H   0  0  0  0  0  0  0  0  0  0  0  0
   42.2360   21.9180   34.7900 H   0  0  0  0  0  0  0  0  0  0  0  0
   38.6140   27.0430   32.8920 C   0  0  0  0  0  0  0  0  0  0  0  0
   38.1170   26.9660   34.2460 C   0  0  0  0  0  0  0  0  0  0  0  0
   36.9240   27.6150   34.5330 C   0  0  0  0  0  0  0  0  0  0  0  0
   36.2770   28.2960   33.5250 N   0  0  0  0  0  0  0  0  0  0  0  0
   36.7780   28.3430   32.2700 C   0  0  0  0  0  0  0  0  0  0  0  0
   37.9310   27.7240   31.9610 N   0  0  0  0  0  0  0  0  0  0  0  0
   39.5550   26.5280   32.6690 H   0  0  0  0  0  0  0  0  0  0  0  0
   36.5150   27.5830   35.5370 H   0  0  0  0  0  0  0  0  0  0  0  0
   36.0340   29.0860   31.2590 C   0  0  0  0  0  0  0  0  0  0  0  0
   35.0470   29.4880   31.5090 H   0  0  0  0  0  0  0  0  0  0  0  0
   36.5600   29.2390   30.1250 O   0  0  0  0  0  0  0  0  0  0  0  0
  1  4  1  1  0  0  0
  1  3  1  0  0  0  0
  1  2  1  0  0  0  0
  2  5  1  0  0  0  0
  2  6  1  0  0  0  0
  3  7  1  6  0  0  0
  3 10  1  0  0  0  0
  3  2  1  0  0  0  0
  8  9  1  0  0  0  0
  9 15  2  0  0  0  0
  9 10  1  0  0  0  0
 10 11  2  0  0  0  0
 11 12  1  0  0  0  0
 11 16  1  0  0  0  0
 12 17  1  0  0  0  0
 13 14  1  0  0  0  0
 13 12  2  0  0  0  0
 15 13  1  0  0  0  0
 18 15  1  0  0  0  0
 19 20  1  0  0  0  0
 20 21  2  0  0  0  0
 20  1  1  0  0  0  0
 21 26  1  0  0  0  0
 22 21  1  0  0  0  0
 23 22  2  0  0  0  0
 24 23  1  0  0  0  0
 24 19  2  0  0  0  0
 25 19  1  0  0  0  0
 27 28  1  0  0  0  0
 27 23  1  0  0  0  0
 29 27  2  0  0  0  0
M  END
>  <minimizedAffinity>
-4.82491207

$$$$

 OpenBabel03262522443D

 29 31  0  0  1  0  0  0  0  0999 V2000
   36.8740   27.7100   32.0620 C   0  0  1  0  0  0  0  0  0  0  0  0
   36.5080   28.6000   30.9460 C   0  0  0  0  0  0  0  0  0  0  0  0
   35.6350   28.6510   32.1010 C   0  0  2  0  0  0  0  0  0  0  0  0
   37.5740   27.9590   32.8640 H   0  0  0  0  0  0  0  0  0  0  0  0
   36.1990   28.0420   30.0000 H   0  0  0  0  0  0  0  0  0  0  0  0
   37.3490   29.2700   30.6970 H   0  0  0  0  0  0  0  0  0  0  0  0
   34.8000   27.9330   32.3190 H   0  0  0  0  0  0  0  0  0  0  0  0
   35.4110   31.5180   30.8990 Cl  0  0  0  0  0  0  0  0  0  0  0  0
   35.6210   31.1880   32.6060 C   0  0  0  0  0  0  0  0  0  0  0  0
   35.6240   29.8400   32.9340 C   0  0  0  0  0  0  0  0  0  0  0  0
   35.7120   29.5510   34.2610 C   0  0  0  0  0  0  0  0  0  0  0  0
   35.7950   30.5480   35.2460 C   0  0  0  0  0  0  0  0  0  0  0  0
   35.7890   31.8980   34.8720 C   0  0  0  0  0  0  0  0  0  0  0  0
   35.8640   33.2380   36.0010 Cl  0  0  0  0  0  0  0  0  0  0  0  0
   35.7000   32.2000   33.5230 C   0  0  0  0  0  0  0  0  0  0  0  0
   35.7290   28.5700   34.7130 H   0  0  0  0  0  0  0  0  0  0  0  0
   35.8650   30.3530   36.3080 H   0  0  0  0  0  0  0  0  0  0  0  0
   35.6880   33.2000   33.1130 H   0  0  0  0  0  0  0  0  0  0  0  0
   35.5510   25.7660   31.0480 C   0  0  0  0  0  0  0  0  0  0  0  0
   36.5920   26.2470   31.9260 C   0  0  0  0  0  0  0  0  0  0  0  0
   37.2970   25.3060   32.6650 C   0  0  0  0  0  0  0  0  0  0  0  0
   36.9760   23.9740   32.5270 N   0  0  0  0  0  0  0  0  0  0  0  0
   35.9920   23.5670   31.6920 C   0  0  0  0  0  0  0  0  0  0  0  0
   35.2920   24.4540   30.9640 N   0  0  0  0  0  0  0  0  0  0  0  0
   34.9970   26.5120   30.4660 H   0  0  0  0  0  0  0  0  0  0  0  0
   38.0870   25.6240   33.3370 H   0  0  0  0  0  0  0  0  0  0  0  0
   35.7120   22.1380   31.6040 C   0  0  0  0  0  0  0  0  0  0  0  0
   36.1940   21.5460   30.8200 H   0  0  0  0  0  0  0  0  0  0  0  0
   34.9180   21.6350   32.4420 O   0  0  0  0  0  0  0  0  0  0  0  0
  1  3  1  0  0  0  0
  1  4  1  1  0  0  0
  2  1  1  0  0  0  0
  2  3  1  0  0  0  0
  3  7  1  6  0  0  0
  3 10  1  0  0  0  0
  5  2  1  0  0  0  0
  6  2  1  0  0  0  0
  8  9  1  0  0  0  0
  9 10  2  0  0  0  0
  9 15  1  0  0  0  0
 10 11  1  0  0  0  0
 11 16  1  0  0  0  0
 11 12  2  0  0  0  0
 12 17  1  0  0  0  0
 13 12  1  0  0  0  0
 13 14  1  0  0  0  0
 15 13  2  0  0  0  0
 18 15  1  0  0  0  0
 19 20  1  0  0  0  0
 20  1  1  0  0  0  0
 20 21  2  0  0  0  0
 21 26  1  0  0  0  0
 22 21  1  0  0  0  0
 23 22  2  0  0  0  0
 24 19  2  0  0  0  0
 24 23  1  0  0  0  0
 25 19  1  0  0  0  0
 27 23  1  0  0  0  0
 27 29  2  0  0  0  0
 28 27  1  0  0  0  0
M  END
>  <minimizedAffinity>
-4.81147861

$$$$

 OpenBabel03262522443D

 29 31  0  0  1  0  0  0  0  0999 V2000
   38.7830   26.9970   34.4660 C   0  0  1  0  0  0  0  0  0  0  0  0
   39.0660   27.0880   33.0230 C   0  0  0  0  0  0  0  0  0  0  0  0
   37.6740   26.9040   33.3790 C   0  0  2  0  0  0  0  0  0  0  0  0
   38.6050   27.8480   35.1290 H   0  0  0  0  0  0  0  0  0  0  0  0
   39.6900   26.2200   32.6250 H   0  0  0  0  0  0  0  0  0  0  0  0
   39.5920   28.0310   32.7920 H   0  0  0  0  0  0  0  0  0  0  0  0
   37.1870   25.9210   33.6210 H   0  0  0  0  0  0  0  0  0  0  0  0
   36.8750   27.8870   30.5310 Cl  0  0  0  0  0  0  0  0  0  0  0  0
   36.3180   28.6320   32.0140 C   0  0  0  0  0  0  0  0  0  0  0  0
   36.7350   27.9910   33.1710 C   0  0  0  0  0  0  0  0  0  0  0  0
   36.2590   28.5030   34.3390 C   0  0  0  0  0  0  0  0  0  0  0  0
   35.3970   29.6110   34.3820 C   0  0  0  0  0  0  0  0  0  0  0  0
   34.9990   30.2290   33.1890 C   0  0  0  0  0  0  0  0  0  0  0  0
   33.9120   31.6020   33.1020 Cl  0  0  0  0  0  0  0  0  0  0  0  0
   35.4810   29.7150   31.9960 C   0  0  0  0  0  0  0  0  0  0  0  0
   36.4660   28.1460   35.3370 H   0  0  0  0  0  0  0  0  0  0  0  0
   35.0000   30.0410   35.2910 H   0  0  0  0  0  0  0  0  0  0  0  0
   35.2470   30.1050   31.0160 H   0  0  0  0  0  0  0  0  0  0  0  0
   38.2630   25.1960   36.2120 C   0  0  0  0  0  0  0  0  0  0  0  0
   39.1230   25.7260   35.1780 C   0  0  0  0  0  0  0  0  0  0  0  0
   40.2910   25.0320   34.8930 C   0  0  0  0  0  0  0  0  0  0  0  0
   40.5740   23.8850   35.6010 N   0  0  0  0  0  0  0  0  0  0  0  0
   39.7400   23.4240   36.5620 C   0  0  0  0  0  0  0  0  0  0  0  0
   38.6010   24.0740   36.8600 N   0  0  0  0  0  0  0  0  0  0  0  0
   37.3420   25.7470   36.4330 H   0  0  0  0  0  0  0  0  0  0  0  0
   40.9650   25.3950   34.1250 H   0  0  0  0  0  0  0  0  0  0  0  0
   40.1120   22.2020   37.2670 C   0  0  0  0  0  0  0  0  0  0  0  0
   39.3250   21.5540   37.6660 H   0  0  0  0  0  0  0  0  0  0  0  0
   41.3370   21.9360   37.3920 O   0  0  0  0  0  0  0  0  0  0  0  0
  1  4  1  1  0  0  0
  1 20  1  0  0  0  0
  2  3  1  0  0  0  0
  2  1  1  0  0  0  0
  3  7  1  6  0  0  0
  3  1  1  0  0  0  0
  5  2  1  0  0  0  0
  6  2  1  0  0  0  0
  8  9  1  0  0  0  0
  9 10  1  0  0  0  0
 10  3  1  0  0  0  0
 10 11  2  0  0  0  0
 11 12  1  0  0  0  0
 11 16  1  0  0  0  0
 12 17  1  0  0  0  0
 13 12  2  0  0  0  0
 14 13  1  0  0  0  0
 15  9  2  0  0  0  0
 15 13  1  0  0  0  0
 18 15  1  0  0  0  0
 19 25  1  0  0  0  0
 19 24  1  0  0  0  0
 20 19  2  0  0  0  0
 21 20  1  0  0  0  0
 21 22  2  0  0  0  0
 22 23  1  0  0  0  0
 23 24  2  0  0  0  0
 23 27  1  0  0  0  0
 26 21  1  0  0  0  0
 27 29  2  0  0  0  0
 27 28  1  0  0  0  0
M  END
>  <minimizedAffinity>
-4.78212357

$$$$

 OpenBabel03262522443D

 29 31  0  0  1  0  0  0  0  0999 V2000
   38.1990   27.1090   34.6400 C   0  0  1  0  0  0  0  0  0  0  0  0
   38.4370   27.2480   36.0880 C   0  0  0  0  0  0  0  0  0  0  0  0
   37.9170   25.9660   35.6580 C   0  0  2  0  0  0  0  0  0  0  0  0
   38.9460   26.7980   33.9060 H   0  0  0  0  0  0  0  0  0  0  0  0
   37.7610   28.0180   36.5900 H   0  0  0  0  0  0  0  0  0  0  0  0
   39.4880   27.5280   36.2800 H   0  0  0  0  0  0  0  0  0  0  0  0
   36.8360   25.7340   35.4590 H   0  0  0  0  0  0  0  0  0  0  0  0
   37.8600   24.0010   38.0770 Cl  0  0  0  0  0  0  0  0  0  0  0  0
   38.9640   23.8560   36.7260 C   0  0  0  0  0  0  0  0  0  0  0  0
   38.7700   24.7930   35.7220 C   0  0  0  0  0  0  0  0  0  0  0  0
   39.5650   24.6620   34.6250 C   0  0  0  0  0  0  0  0  0  0  0  0
   40.5240   23.6440   34.5050 C   0  0  0  0  0  0  0  0  0  0  0  0
   40.6880   22.7170   35.5430 C   0  0  0  0  0  0  0  0  0  0  0  0
   41.8310   21.3880   35.5100 Cl  0  0  0  0  0  0  0  0  0  0  0  0
   39.8830   22.8440   36.6630 C   0  0  0  0  0  0  0  0  0  0  0  0
   39.5660   25.2880   33.7450 H   0  0  0  0  0  0  0  0  0  0  0  0
   41.1700   23.5110   33.6480 H   0  0  0  0  0  0  0  0  0  0  0  0
   39.9170   22.1940   37.5260 H   0  0  0  0  0  0  0  0  0  0  0  0
   36.5590   27.4770   32.7080 C   0  0  0  0  0  0  0  0  0  0  0  0
   37.0000   27.7820   34.0490 C   0  0  0  0  0  0  0  0  0  0  0  0
   36.2940   28.7450   34.7570 C   0  0  0  0  0  0  0  0  0  0  0  0
   35.2180   29.3590   34.1560 N   0  0  0  0  0  0  0  0  0  0  0  0
   34.8390   29.0430   32.8960 C   0  0  0  0  0  0  0  0  0  0  0  0
   35.5020   28.1140   32.1850 N   0  0  0  0  0  0  0  0  0  0  0  0
   37.1180   26.7160   32.1530 H   0  0  0  0  0  0  0  0  0  0  0  0
   36.5920   29.0050   35.7680 H   0  0  0  0  0  0  0  0  0  0  0  0
   33.6890   29.7390   32.3290 C   0  0  0  0  0  0  0  0  0  0  0  0
   33.8550   30.5470   31.6100 H   0  0  0  0  0  0  0  0  0  0  0  0
   32.5380   29.3800   32.6920 O   0  0  0  0  0  0  0  0  0  0  0  0
  1  4  1  6  0  0  0
  1  3  1  0  0  0  0
  1  2  1  0  0  0  0
  2  6  1  0  0  0  0
  2  5  1  0  0  0  0
  3  7  1  1  0  0  0
  3 10  1  0  0  0  0
  3  2  1  0  0  0  0
  9  8  1  0  0  0  0
 10  9  2  0  0  0  0
 11 10  1  0  0  0  0
 12 11  2  0  0  0  0
 12 13  1  0  0  0  0
 13 15  2  0  0  0  0
 14 13  1  0  0  0  0
 15  9  1  0  0  0  0
 15 18  1  0  0  0  0
 16 11  1  0  0  0  0
 17 12  1  0  0  0  0
 19 20  1  0  0  0  0
 20  1  1  0  0  0  0
 20 21  2  0  0  0  0
 21 26  1  0  0  0  0
 22 21  1  0  0  0  0
 23 22  2  0  0  0  0
 24 19  2  0  0  0  0
 24 23  1  0  0  0  0
 25 19  1  0  0  0  0
 27 29  2  0  0  0  0
 27 23  1  0  0  0  0
 28 27  1  0  0  0  0
M  END
>  <minimizedAffinity>
-4.76617622

$$$$

 OpenBabel03262522443D

 29 31  0  0  1  0  0  0  0  0999 V2000
   38.0460   25.6420   35.6440 C   0  0  1  0  0  0  0  0  0  0  0  0
   38.4180   26.9680   36.1680 C   0  0  0  0  0  0  0  0  0  0  0  0
   38.4150   26.8430   34.7250 C   0  0  2  0  0  0  0  0  0  0  0  0
   37.0250   25.3050   35.4490 H   0  0  0  0  0  0  0  0  0  0  0  0
   39.3960   26.9690   36.7550 H   0  0  0  0  0  0  0  0  0  0  0  0
   37.6200   27.3630   36.8200 H   0  0  0  0  0  0  0  0  0  0  0  0
   39.2500   26.4190   34.1050 H   0  0  0  0  0  0  0  0  0  0  0  0
   38.0980   26.4290   31.6520 Cl  0  0  0  0  0  0  0  0  0  0  0  0
   37.1460   27.5620   32.5880 C   0  0  0  0  0  0  0  0  0  0  0  0
   37.3990   27.5340   33.9520 C   0  0  0  0  0  0  0  0  0  0  0  0
   36.6240   28.3510   34.7170 C   0  0  0  0  0  0  0  0  0  0  0  0
   35.6280   29.1760   34.1700 C   0  0  0  0  0  0  0  0  0  0  0  0
   35.4050   29.1730   32.7860 C   0  0  0  0  0  0  0  0  0  0  0  0
   34.1800   30.1360   31.9810 Cl  0  0  0  0  0  0  0  0  0  0  0  0
   36.1900   28.3450   32.0020 C   0  0  0  0  0  0  0  0  0  0  0  0
   36.6670   28.4710   35.7900 H   0  0  0  0  0  0  0  0  0  0  0  0
   34.9950   29.8350   34.7490 H   0  0  0  0  0  0  0  0  0  0  0  0
   36.1140   28.2580   30.9270 H   0  0  0  0  0  0  0  0  0  0  0  0
   38.7690   23.3250   36.4580 C   0  0  0  0  0  0  0  0  0  0  0  0
   39.0520   24.5380   35.7270 C   0  0  0  0  0  0  0  0  0  0  0  0
   40.3020   24.6560   35.1340 C   0  0  0  0  0  0  0  0  0  0  0  0
   41.2040   23.6250   35.2690 N   0  0  0  0  0  0  0  0  0  0  0  0
   40.8970   22.5050   35.9640 C   0  0  0  0  0  0  0  0  0  0  0  0
   39.6950   22.3600   36.5490 N   0  0  0  0  0  0  0  0  0  0  0  0
   37.7810   23.2350   36.9240 H   0  0  0  0  0  0  0  0  0  0  0  0
   40.5570   25.5510   34.5760 H   0  0  0  0  0  0  0  0  0  0  0  0
   41.9080   21.4570   36.0610 C   0  0  0  0  0  0  0  0  0  0  0  0
   41.8410   20.5870   35.4010 H   0  0  0  0  0  0  0  0  0  0  0  0
   42.8280   21.5950   36.9100 O   0  0  0  0  0  0  0  0  0  0  0  0
  1  4  1  1  0  0  0
  1 20  1  0  0  0  0
  1  2  1  0  0  0  0
  2  5  1  0  0  0  0
  2  6  1  0  0  0  0
  3  7  1  6  0  0  0
  3  1  1  0  0  0  0
  3  2  1  0  0  0  0
  8  9  1  0  0  0  0
  9 10  1  0  0  0  0
 10 11  2  0  0  0  0
 10  3  1  0  0  0  0
 11 16  1  0  0  0  0
 12 11  1  0  0  0  0
 12 17  1  0  0  0  0
 13 12  2  0  0  0  0
 14 13  1  0  0  0  0
 15  9  2  0  0  0  0
 15 13  1  0  0  0  0
 18 15  1  0  0  0  0
 19 24  1  0  0  0  0
 19 25  1  0  0  0  0
 20 19  2  0  0  0  0
 21 22  2  0  0  0  0
 21 20  1  0  0  0  0
 22 23  1  0  0  0  0
 23 27  1  0  0  0  0
 23 24  2  0  0  0  0
 26 21  1  0  0  0  0
 27 29  2  0  0  0  0
 28 27  1  0  0  0  0
M  END
>  <minimizedAffinity>
-4.75930595

$$$$

 OpenBabel03262522443D

 29 31  0  0  1  0  0  0  0  0999 V2000
   38.2610   24.1970   35.5380 C   0  0  1  0  0  0  0  0  0  0  0  0
   37.8490   25.2540   36.4780 C   0  0  0  0  0  0  0  0  0  0  0  0
   38.6540   25.6910   35.3570 C   0  0  2  0  0  0  0  0  0  0  0  0
   37.6730   23.8450   34.6870 H   0  0  0  0  0  0  0  0  0  0  0  0
   38.3020   25.1420   37.5190 H   0  0  0  0  0  0  0  0  0  0  0  0
   36.7490   25.2740   36.5770 H   0  0  0  0  0  0  0  0  0  0  0  0
   39.7750   25.6350   35.2980 H   0  0  0  0  0  0  0  0  0  0  0  0
   39.5340   25.5000   32.3730 Cl  0  0  0  0  0  0  0  0  0  0  0  0
   38.3450   26.6380   32.9700 C   0  0  0  0  0  0  0  0  0  0  0  0
   38.0480   26.5040   34.3180 C   0  0  0  0  0  0  0  0  0  0  0  0
   37.0750   27.3260   34.7970 C   0  0  0  0  0  0  0  0  0  0  0  0
   36.4050   28.2560   33.9850 C   0  0  0  0  0  0  0  0  0  0  0  0
   36.7360   28.3590   32.6270 C   0  0  0  0  0  0  0  0  0  0  0  0
   35.9620   29.4590   31.5030 Cl  0  0  0  0  0  0  0  0  0  0  0  0
   37.7260   27.5260   32.1330 C   0  0  0  0  0  0  0  0  0  0  0  0
   36.7040   27.3730   35.8110 H   0  0  0  0  0  0  0  0  0  0  0  0
   35.6270   28.9220   34.3330 H   0  0  0  0  0  0  0  0  0  0  0  0
   38.0690   27.5140   31.1080 H   0  0  0  0  0  0  0  0  0  0  0  0
   39.6000   22.9710   37.3440 C   0  0  0  0  0  0  0  0  0  0  0  0
   39.3590   23.2670   35.9520 C   0  0  0  0  0  0  0  0  0  0  0  0
   40.2020   22.6870   35.0130 C   0  0  0  0  0  0  0  0  0  0  0  0
   41.2180   21.8650   35.4480 N   0  0  0  0  0  0  0  0  0  0  0  0
   41.4090   21.6140   36.7640 C   0  0  0  0  0  0  0  0  0  0  0  0
   40.6090   22.1610   37.6970 N   0  0  0  0  0  0  0  0  0  0  0  0
   38.9330   23.4300   38.0820 H   0  0  0  0  0  0  0  0  0  0  0  0
   40.0560   22.8840   33.9560 H   0  0  0  0  0  0  0  0  0  0  0  0
   42.5080   20.7340   37.1440 C   0  0  0  0  0  0  0  0  0  0  0  0
   42.3620   20.0170   37.9580 H   0  0  0  0  0  0  0  0  0  0  0  0
   43.5940   20.8330   36.5140 O   0  0  0  0  0  0  0  0  0  0  0  0
  1  4  1  6  0  0  0
  1 20  1  0  0  0  0
  1  2  1  0  0  0  0
  2  6  1  0  0  0  0
  2  5  1  0  0  0  0
  3  7  1  1  0  0  0
  3  1  1  0  0  0  0
  3  2  1  0  0  0  0
  8  9  1  0  0  0  0
  9 10  1  0  0  0  0
 10 11  2  0  0  0  0
 10  3  1  0  0  0  0
 11 16  1  0  0  0  0
 12 17  1  0  0  0  0
 12 11  1  0  0  0  0
 13 12  2  0  0  0  0
 14 13  1  0  0  0  0
 15 13  1  0  0  0  0
 15  9  2  0  0  0  0
 18 15  1  0  0  0  0
 19 24  1  0  0  0  0
 19 25  1  0  0  0  0
 20 19  2  0  0  0  0
 21 22  2  0  0  0  0
 21 20  1  0  0  0  0
 22 23  1  0  0  0  0
 23 27  1  0  0  0  0
 23 24  2  0  0  0  0
 26 21  1  0  0  0  0
 27 28  1  0  0  0  0
 29 27  2  0  0  0  0
M  END
>  <minimizedAffinity>
-4.72662592

$$$$

 OpenBabel03262522443D

 29 31  0  0  1  0  0  0  0  0999 V2000
   35.7300   30.8180   34.8710 C   0  0  1  0  0  0  0  0  0  0  0  0
   34.8620   29.6820   34.5120 C   0  0  0  0  0  0  0  0  0  0  0  0
   35.0330   30.6900   33.4860 C   0  0  2  0  0  0  0  0  0  0  0  0
   36.8160   30.8410   34.7580 H   0  0  0  0  0  0  0  0  0  0  0  0
   33.9030   29.6280   35.1270 H   0  0  0  0  0  0  0  0  0  0  0  0
   35.4060   28.7290   34.6300 H   0  0  0  0  0  0  0  0  0  0  0  0
   34.4630   31.6550   33.4180 H   0  0  0  0  0  0  0  0  0  0  0  0
   36.6890   32.8340   31.9450 Cl  0  0  0  0  0  0  0  0  0  0  0  0
   36.5130   31.1740   31.4210 C   0  0  0  0  0  0  0  0  0  0  0  0
   35.7940   30.3690   32.2920 C   0  0  0  0  0  0  0  0  0  0  0  0
   35.7010   29.0550   31.9480 C   0  0  0  0  0  0  0  0  0  0  0  0
   36.2920   28.5350   30.7860 C   0  0  0  0  0  0  0  0  0  0  0  0
   37.0110   29.3830   29.9330 C   0  0  0  0  0  0  0  0  0  0  0  0
   37.8160   28.8570   28.4660 Cl  0  0  0  0  0  0  0  0  0  0  0  0
   37.1100   30.7210   30.2750 C   0  0  0  0  0  0  0  0  0  0  0  0
   35.1880   28.2760   32.4930 H   0  0  0  0  0  0  0  0  0  0  0  0
   36.2380   27.4980   30.4850 H   0  0  0  0  0  0  0  0  0  0  0  0
   37.6340   31.4700   29.6980 H   0  0  0  0  0  0  0  0  0  0  0  0
   34.0500   31.5910   36.6430 C   0  0  0  0  0  0  0  0  0  0  0  0
   35.1860   31.8630   35.7940 C   0  0  0  0  0  0  0  0  0  0  0  0
   35.7340   33.1380   35.8380 C   0  0  0  0  0  0  0  0  0  0  0  0
   35.1750   34.0750   36.6790 N   0  0  0  0  0  0  0  0  0  0  0  0
   34.1100   33.7770   37.4590 C   0  0  0  0  0  0  0  0  0  0  0  0
   33.5580   32.5510   37.4380 N   0  0  0  0  0  0  0  0  0  0  0  0
   33.6210   30.5840   36.6050 H   0  0  0  0  0  0  0  0  0  0  0  0
   36.5880   33.3850   35.2160 H   0  0  0  0  0  0  0  0  0  0  0  0
   33.5760   34.8240   38.3220 C   0  0  0  0  0  0  0  0  0  0  0  0
   32.5790   35.2290   38.1190 H   0  0  0  0  0  0  0  0  0  0  0  0
   34.2890   35.2280   39.2790 O   0  0  0  0  0  0  0  0  0  0  0  0
  1  4  1  1  0  0  0
  1 20  1  0  0  0  0
  2  6  1  0  0  0  0
  2  1  1  0  0  0  0
  2  5  1  0  0  0  0
  3  7  1  6  0  0  0
  3  2  1  0  0  0  0
  3  1  1  0  0  0  0
  9  8  1  0  0  0  0
  9 10  1  0  0  0  0
 10  3  1  0  0  0  0
 11 10  2  0  0  0  0
 11 16  1  0  0  0  0
 12 11  1  0  0  0  0
 13 15  1  0  0  0  0
 13 12  2  0  0  0  0
 14 13  1  0  0  0  0
 15  9  2  0  0  0  0
 17 12  1  0  0  0  0
 18 15  1  0  0  0  0
 19 24  1  0  0  0  0
 20 21  1  0  0  0  0
 20 19  2  0  0  0  0
 21 22  2  0  0  0  0
 22 23  1  0  0  0  0
 23 27  1  0  0  0  0
 24 23  2  0  0  0  0
 25 19  1  0  0  0  0
 26 21  1  0  0  0  0
 27 29  2  0  0  0  0
 28 27  1  0  0  0  0
M  END
>  <minimizedAffinity>
-4.68986559

$$$$
