
 OpenBabel03272510263D

 39 42  0  0  1  0  0  0  0  0999 V2000
   35.9760   30.0680   46.9200 C   0  0  0  0  0  0  0  0  0  0  0  0
   36.8950   30.6400   47.7690 C   0  0  0  0  0  0  0  0  0  0  0  0
   37.8680   31.5360   47.2920 C   0  0  0  0  0  0  0  0  0  0  0  0
   37.8350   31.7980   45.9260 C   0  0  0  0  0  0  0  0  0  0  0  0
   38.6710   32.6350   45.2260 N   0  0  0  0  0  0  0  0  0  0  0  0
   38.2640   32.5750   43.9440 C   0  0  0  0  0  0  0  0  0  0  0  0
   37.2370   31.7550   43.8400 N   0  0  0  0  0  0  0  0  0  0  0  0
   36.9390   31.2510   45.0500 C   0  0  0  0  0  0  0  0  0  0  0  0
   35.9850   30.3620   45.5640 C   0  0  0  0  0  0  0  0  0  0  0  0
   35.2160   29.3720   47.2640 H   0  0  0  0  0  0  0  0  0  0  0  0
   38.6020   31.9980   47.9470 H   0  0  0  0  0  0  0  0  0  0  0  0
   39.4670   33.2020   45.6230 H   0  0  0  0  0  0  0  0  0  0  0  0
   35.2730   29.9240   44.8810 H   0  0  0  0  0  0  0  0  0  0  0  0
   37.5900   30.2200   51.4430 C   0  0  0  0  0  0  0  0  0  0  0  0
   37.8140   30.6150   50.1250 C   0  0  0  0  0  0  0  0  0  0  0  0
   36.8610   30.3180   49.1870 C   0  0  0  0  0  0  0  0  0  0  0  0
   35.7370   29.6410   49.6160 N   0  0  0  0  0  0  0  0  0  0  0  0
   35.5310   29.2640   50.8890 C   0  0  0  0  0  0  0  0  0  0  0  0
   36.4560   29.5540   51.7880 N   0  0  0  0  0  0  0  0  0  0  0  0
   38.3550   30.4630   52.1740 H   0  0  0  0  0  0  0  0  0  0  0  0
   38.6790   31.1430   49.7680 H   0  0  0  0  0  0  0  0  0  0  0  0
   34.6050   28.7400   51.0800 H   0  0  0  0  0  0  0  0  0  0  0  0
   38.8830   33.3040   42.9280 O   0  0  0  0  0  0  0  0  0  0  0  0
   39.9590   31.2900   42.6020 N   0  0  0  0  0  0  0  0  0  0  0  0
   39.5800   32.5380   41.9540 C   0  0  1  0  0  0  0  0  0  0  0  0
   38.7330   32.2740   40.8020 C   0  0  0  0  0  0  0  0  0  0  0  0
   39.4680   31.5330   39.8600 O   0  0  0  0  0  0  0  0  0  0  0  0
   40.0340   30.3850   40.3300 C   0  0  0  0  0  0  0  0  0  0  0  0
   40.7860   30.6160   41.6290 C   0  0  2  0  0  0  0  0  0  0  0  0
   39.2270   30.6340   42.8260 H   0  0  0  0  0  0  0  0  0  0  0  0
   40.5290   33.0140   41.6390 H   0  0  0  0  0  0  0  0  0  0  0  0
   38.5650   33.2620   40.2730 H   0  0  0  0  0  0  0  0  0  0  0  0
   37.7970   31.7850   40.8240 H   0  0  0  0  0  0  0  0  0  0  0  0
   39.2180   29.6680   40.5590 H   0  0  0  0  0  0  0  0  0  0  0  0
   40.7420   30.0210   39.5890 H   0  0  0  0  0  0  0  0  0  0  0  0
   41.6640   31.2500   41.3910 H   0  0  0  0  0  0  0  0  0  0  0  0
   41.1910   29.3090   42.2080 C   0  0  0  0  0  0  0  0  0  0  0  0
   41.6870   29.2760   43.1890 H   0  0  0  0  0  0  0  0  0  0  0  0
   40.9560   28.2820   41.5600 O   0  0  0  0  0  0  0  0  0  0  0  0
  1 10  1  0  0  0  0
  1  2  1  0  0  0  0
  2 16  1  0  0  0  0
  3  2  2  0  0  0  0
  3 11  1  0  0  0  0
  4  3  1  0  0  0  0
  5 12  1  0  0  0  0
  5  4  1  0  0  0  0
  6  5  1  0  0  0  0
  7  6  2  0  0  0  0
  7  8  1  0  0  0  0
  8  9  1  0  0  0  0
  8  4  2  0  0  0  0
  9  1  2  0  0  0  0
 13  9  1  0  0  0  0
 14 19  1  0  0  0  0
 14 20  1  0  0  0  0
 15 14  2  0  0  0  0
 16 17  2  0  0  0  0
 16 15  1  0  0  0  0
 17 18  1  0  0  0  0
 18 22  1  0  0  0  0
 18 19  2  0  0  0  0
 21 15  1  0  0  0  0
 23  6  1  0  0  0  0
 24 30  1  0  0  0  0
 25 31  1  6  0  0  0
 25 24  1  0  0  0  0
 25 23  1  0  0  0  0
 26 33  1  0  0  0  0
 26 25  1  0  0  0  0
 27 28  1  0  0  0  0
 27 26  1  0  0  0  0
 28 34  1  0  0  0  0
 28 29  1  0  0  0  0
 29 36  1  6  0  0  0
 29 37  1  0  0  0  0
 29 24  1  0  0  0  0
 32 26  1  0  0  0  0
 35 28  1  0  0  0  0
 37 38  1  0  0  0  0
 39 37  2  0  0  0  0
M  END
>  <minimizedAffinity>
-5.5851264

>  <minimizedRMSD>
1.30451977

$$$$
