
 OpenBabel03272510263D

 39 42  0  0  1  0  0  0  0  0999 V2000
   36.2440   30.1990   46.8510 C   0  0  0  0  0  0  0  0  0  0  0  0
   37.0890   30.7400   47.7920 C   0  0  0  0  0  0  0  0  0  0  0  0
   38.0950   31.6530   47.4300 C   0  0  0  0  0  0  0  0  0  0  0  0
   38.1730   31.9650   46.0770 C   0  0  0  0  0  0  0  0  0  0  0  0
   39.0620   32.8270   45.4780 N   0  0  0  0  0  0  0  0  0  0  0  0
   38.7600   32.8150   44.1670 C   0  0  0  0  0  0  0  0  0  0  0  0
   37.7480   31.9990   43.9480 N   0  0  0  0  0  0  0  0  0  0  0  0
   37.3540   31.4510   45.1110 C   0  0  0  0  0  0  0  0  0  0  0  0
   36.3640   30.5430   45.5110 C   0  0  0  0  0  0  0  0  0  0  0  0
   35.4610   29.4910   47.1050 H   0  0  0  0  0  0  0  0  0  0  0  0
   38.7720   32.0910   48.1600 H   0  0  0  0  0  0  0  0  0  0  0  0
   39.8200   33.3800   45.9600 H   0  0  0  0  0  0  0  0  0  0  0  0
   35.7120   30.1300   44.7570 H   0  0  0  0  0  0  0  0  0  0  0  0
   37.4930   30.1650   51.4890 C   0  0  0  0  0  0  0  0  0  0  0  0
   37.8250   30.6040   50.2080 C   0  0  0  0  0  0  0  0  0  0  0  0
   36.9400   30.3650   49.1900 C   0  0  0  0  0  0  0  0  0  0  0  0
   35.7720   29.7010   49.5060 N   0  0  0  0  0  0  0  0  0  0  0  0
   35.4620   29.2810   50.7450 C   0  0  0  0  0  0  0  0  0  0  0  0
   36.3220   29.5150   51.7210 N   0  0  0  0  0  0  0  0  0  0  0  0
   38.2050   30.3620   52.2840 H   0  0  0  0  0  0  0  0  0  0  0  0
   38.7260   31.1230   49.9390 H   0  0  0  0  0  0  0  0  0  0  0  0
   34.5120   28.7740   50.8450 H   0  0  0  0  0  0  0  0  0  0  0  0
   39.4590   33.5810   43.2320 O   0  0  0  0  0  0  0  0  0  0  0  0
   39.5760   31.8380   41.7270 N   0  0  0  0  0  0  0  0  0  0  0  0
   39.2370   33.2470   41.8690 C   0  0  1  0  0  0  0  0  0  0  0  0
   37.8480   33.4730   41.5010 C   0  0  0  0  0  0  0  0  0  0  0  0
   37.6810   33.1490   40.1430 O   0  0  0  0  0  0  0  0  0  0  0  0
   38.0890   31.8980   39.7850 C   0  0  0  0  0  0  0  0  0  0  0  0
   39.4800   31.5850   40.3090 C   0  0  2  0  0  0  0  0  0  0  0  0
   38.9660   31.1610   42.1580 H   0  0  0  0  0  0  0  0  0  0  0  0
   39.9150   33.7900   41.1820 H   0  0  0  0  0  0  0  0  0  0  0  0
   37.6730   34.5930   41.5170 H   0  0  0  0  0  0  0  0  0  0  0  0
   37.0080   33.0320   41.9650 H   0  0  0  0  0  0  0  0  0  0  0  0
   37.4010   31.1640   40.2540 H   0  0  0  0  0  0  0  0  0  0  0  0
   38.1160   31.8420   38.6990 H   0  0  0  0  0  0  0  0  0  0  0  0
   40.1900   32.2440   39.7690 H   0  0  0  0  0  0  0  0  0  0  0  0
   39.7840   30.1490   40.0840 C   0  0  0  0  0  0  0  0  0  0  0  0
   40.6330   29.8640   39.4440 H   0  0  0  0  0  0  0  0  0  0  0  0
   39.0650   29.3020   40.6270 O   0  0  0  0  0  0  0  0  0  0  0  0
  1 10  1  0  0  0  0
  1  2  1  0  0  0  0
  2 16  1  0  0  0  0
  3  2  2  0  0  0  0
  3 11  1  0  0  0  0
  4  3  1  0  0  0  0
  5 12  1  0  0  0  0
  5  4  1  0  0  0  0
  6  5  1  0  0  0  0
  7  6  2  0  0  0  0
  7  8  1  0  0  0  0
  8  9  1  0  0  0  0
  8  4  2  0  0  0  0
  9  1  2  0  0  0  0
 13  9  1  0  0  0  0
 14 19  1  0  0  0  0
 14 20  1  0  0  0  0
 15 14  2  0  0  0  0
 16 17  2  0  0  0  0
 16 15  1  0  0  0  0
 17 18  1  0  0  0  0
 18 22  1  0  0  0  0
 18 19  2  0  0  0  0
 21 15  1  0  0  0  0
 23  6  1  0  0  0  0
 24 25  1  0  0  0  0
 24 30  1  0  0  0  0
 25 31  1  6  0  0  0
 25 23  1  0  0  0  0
 26 32  1  0  0  0  0
 26 25  1  0  0  0  0
 26 33  1  0  0  0  0
 27 26  1  0  0  0  0
 28 27  1  0  0  0  0
 28 34  1  0  0  0  0
 28 29  1  0  0  0  0
 29 36  1  6  0  0  0
 29 24  1  0  0  0  0
 35 28  1  0  0  0  0
 37 29  1  0  0  0  0
 37 39  2  0  0  0  0
 38 37  1  0  0  0  0
M  END
>  <minimizedAffinity>
-5.49237394

>  <minimizedRMSD>
0.0308419503

$$$$
