
 OpenBabel03272510263D

 39 42  0  0  1  0  0  0  0  0999 V2000
   36.2430   30.1990   46.8510 C   0  0  0  0  0  0  0  0  0  0  0  0
   37.0880   30.7390   47.7920 C   0  0  0  0  0  0  0  0  0  0  0  0
   38.0930   31.6520   47.4300 C   0  0  0  0  0  0  0  0  0  0  0  0
   38.1710   31.9650   46.0770 C   0  0  0  0  0  0  0  0  0  0  0  0
   39.0600   32.8270   45.4790 N   0  0  0  0  0  0  0  0  0  0  0  0
   38.7590   32.8140   44.1670 C   0  0  0  0  0  0  0  0  0  0  0  0
   37.7470   31.9990   43.9490 N   0  0  0  0  0  0  0  0  0  0  0  0
   37.3520   31.4500   45.1110 C   0  0  0  0  0  0  0  0  0  0  0  0
   36.3620   30.5430   45.5110 C   0  0  0  0  0  0  0  0  0  0  0  0
   35.4590   29.4910   47.1050 H   0  0  0  0  0  0  0  0  0  0  0  0
   38.7700   32.0900   48.1600 H   0  0  0  0  0  0  0  0  0  0  0  0
   39.8190   33.3790   45.9610 H   0  0  0  0  0  0  0  0  0  0  0  0
   35.7100   30.1300   44.7570 H   0  0  0  0  0  0  0  0  0  0  0  0
   37.4910   30.1650   51.4890 C   0  0  0  0  0  0  0  0  0  0  0  0
   37.8230   30.6040   50.2080 C   0  0  0  0  0  0  0  0  0  0  0  0
   36.9380   30.3640   49.1900 C   0  0  0  0  0  0  0  0  0  0  0  0
   35.7710   29.6990   49.5050 N   0  0  0  0  0  0  0  0  0  0  0  0
   35.4610   29.2790   50.7440 C   0  0  0  0  0  0  0  0  0  0  0  0
   36.3200   29.5130   51.7210 N   0  0  0  0  0  0  0  0  0  0  0  0
   38.2020   30.3620   52.2850 H   0  0  0  0  0  0  0  0  0  0  0  0
   38.7230   31.1230   49.9390 H   0  0  0  0  0  0  0  0  0  0  0  0
   34.5110   28.7710   50.8440 H   0  0  0  0  0  0  0  0  0  0  0  0
   39.4580   33.5800   43.2330 O   0  0  0  0  0  0  0  0  0  0  0  0
   39.5760   31.8370   41.7280 N   0  0  0  0  0  0  0  0  0  0  0  0
   39.2370   33.2460   41.8690 C   0  0  1  0  0  0  0  0  0  0  0  0
   37.8480   33.4720   41.5000 C   0  0  0  0  0  0  0  0  0  0  0  0
   37.6820   33.1480   40.1430 O   0  0  0  0  0  0  0  0  0  0  0  0
   38.0910   31.8960   39.7860 C   0  0  0  0  0  0  0  0  0  0  0  0
   39.4800   31.5840   40.3100 C   0  0  2  0  0  0  0  0  0  0  0  0
   38.9650   31.1600   42.1590 H   0  0  0  0  0  0  0  0  0  0  0  0
   39.9150   33.7890   41.1830 H   0  0  0  0  0  0  0  0  0  0  0  0
   37.6730   34.5920   41.5160 H   0  0  0  0  0  0  0  0  0  0  0  0
   37.0080   33.0320   41.9640 H   0  0  0  0  0  0  0  0  0  0  0  0
   37.4020   31.1630   40.2540 H   0  0  0  0  0  0  0  0  0  0  0  0
   38.1180   31.8400   38.6990 H   0  0  0  0  0  0  0  0  0  0  0  0
   40.1910   32.2430   39.7710 H   0  0  0  0  0  0  0  0  0  0  0  0
   39.7850   30.1470   40.0860 C   0  0  0  0  0  0  0  0  0  0  0  0
   39.3340   29.3840   40.7390 H   0  0  0  0  0  0  0  0  0  0  0  0
   40.5460   29.8450   39.1590 O   0  0  0  0  0  0  0  0  0  0  0  0
  1 10  1  0  0  0  0
  1  2  1  0  0  0  0
  2 16  1  0  0  0  0
  3  2  2  0  0  0  0
  3 11  1  0  0  0  0
  4  3  1  0  0  0  0
  5 12  1  0  0  0  0
  5  4  1  0  0  0  0
  6  5  1  0  0  0  0
  7  6  2  0  0  0  0
  7  8  1  0  0  0  0
  8  9  1  0  0  0  0
  8  4  2  0  0  0  0
  9  1  2  0  0  0  0
 13  9  1  0  0  0  0
 14 19  1  0  0  0  0
 14 20  1  0  0  0  0
 15 14  2  0  0  0  0
 16 17  2  0  0  0  0
 16 15  1  0  0  0  0
 17 18  1  0  0  0  0
 18 22  1  0  0  0  0
 18 19  2  0  0  0  0
 21 15  1  0  0  0  0
 23  6  1  0  0  0  0
 24 25  1  0  0  0  0
 24 30  1  0  0  0  0
 25 31  1  6  0  0  0
 25 23  1  0  0  0  0
 26 32  1  0  0  0  0
 26 25  1  0  0  0  0
 26 33  1  0  0  0  0
 27 26  1  0  0  0  0
 28 27  1  0  0  0  0
 28 34  1  0  0  0  0
 28 29  1  0  0  0  0
 29 36  1  6  0  0  0
 29 24  1  0  0  0  0
 35 28  1  0  0  0  0
 37 29  1  0  0  0  0
 37 38  1  0  0  0  0
 39 37  2  0  0  0  0
M  END
>  <minimizedAffinity>
-5.48625708

>  <minimizedRMSD>
0.0307196882

$$$$
