
 OpenBabel03272510263D

 39 42  0  0  1  0  0  0  0  0999 V2000
   35.9680   30.0720   46.9360 C   0  0  0  0  0  0  0  0  0  0  0  0
   36.8940   30.6370   47.7830 C   0  0  0  0  0  0  0  0  0  0  0  0
   37.8730   31.5260   47.3030 C   0  0  0  0  0  0  0  0  0  0  0  0
   37.8380   31.7870   45.9370 C   0  0  0  0  0  0  0  0  0  0  0  0
   38.6800   32.6170   45.2350 N   0  0  0  0  0  0  0  0  0  0  0  0
   38.2680   32.5600   43.9540 C   0  0  0  0  0  0  0  0  0  0  0  0
   37.2350   31.7480   43.8530 N   0  0  0  0  0  0  0  0  0  0  0  0
   36.9360   31.2470   45.0640 C   0  0  0  0  0  0  0  0  0  0  0  0
   35.9760   30.3650   45.5800 C   0  0  0  0  0  0  0  0  0  0  0  0
   35.2040   29.3820   47.2820 H   0  0  0  0  0  0  0  0  0  0  0  0
   38.6120   31.9820   47.9560 H   0  0  0  0  0  0  0  0  0  0  0  0
   39.4810   33.1790   45.6300 H   0  0  0  0  0  0  0  0  0  0  0  0
   35.2600   29.9330   44.8990 H   0  0  0  0  0  0  0  0  0  0  0  0
   37.5920   30.2180   51.4560 C   0  0  0  0  0  0  0  0  0  0  0  0
   37.8150   30.6130   50.1380 C   0  0  0  0  0  0  0  0  0  0  0  0
   36.8610   30.3150   49.2010 C   0  0  0  0  0  0  0  0  0  0  0  0
   35.7370   29.6400   49.6310 N   0  0  0  0  0  0  0  0  0  0  0  0
   35.5320   29.2630   50.9050 C   0  0  0  0  0  0  0  0  0  0  0  0
   36.4580   29.5540   51.8030 N   0  0  0  0  0  0  0  0  0  0  0  0
   38.3580   30.4610   52.1860 H   0  0  0  0  0  0  0  0  0  0  0  0
   38.6800   31.1390   49.7800 H   0  0  0  0  0  0  0  0  0  0  0  0
   34.6050   28.7400   51.0970 H   0  0  0  0  0  0  0  0  0  0  0  0
   38.8910   33.2840   42.9360 O   0  0  0  0  0  0  0  0  0  0  0  0
   39.9910   31.2860   42.5950 N   0  0  0  0  0  0  0  0  0  0  0  0
   39.5510   32.5120   41.9430 C   0  0  1  0  0  0  0  0  0  0  0  0
   38.6500   32.2050   40.8430 C   0  0  0  0  0  0  0  0  0  0  0  0
   39.3500   31.4590   39.8790 O   0  0  0  0  0  0  0  0  0  0  0  0
   39.9640   30.3330   40.3420 C   0  0  0  0  0  0  0  0  0  0  0  0
   40.7790   30.6080   41.5940 C   0  0  2  0  0  0  0  0  0  0  0  0
   39.2850   30.6210   42.8710 H   0  0  0  0  0  0  0  0  0  0  0  0
   40.4720   33.0000   41.5670 H   0  0  0  0  0  0  0  0  0  0  0  0
   38.4340   33.1780   40.3030 H   0  0  0  0  0  0  0  0  0  0  0  0
   37.7280   31.6980   40.9260 H   0  0  0  0  0  0  0  0  0  0  0  0
   39.1780   29.6050   40.6290 H   0  0  0  0  0  0  0  0  0  0  0  0
   40.6400   29.9670   39.5720 H   0  0  0  0  0  0  0  0  0  0  0  0
   41.6300   31.2540   41.2970 H   0  0  0  0  0  0  0  0  0  0  0  0
   41.2420   29.3220   42.1770 C   0  0  0  0  0  0  0  0  0  0  0  0
   42.2760   29.2290   42.5420 H   0  0  0  0  0  0  0  0  0  0  0  0
   40.4410   28.3810   42.2350 O   0  0  0  0  0  0  0  0  0  0  0  0
  1 10  1  0  0  0  0
  1  2  1  0  0  0  0
  2 16  1  0  0  0  0
  3  2  2  0  0  0  0
  3 11  1  0  0  0  0
  4  3  1  0  0  0  0
  5 12  1  0  0  0  0
  5  4  1  0  0  0  0
  6  5  1  0  0  0  0
  7  6  2  0  0  0  0
  7  8  1  0  0  0  0
  8  9  1  0  0  0  0
  8  4  2  0  0  0  0
  9  1  2  0  0  0  0
 13  9  1  0  0  0  0
 14 19  1  0  0  0  0
 14 20  1  0  0  0  0
 15 14  2  0  0  0  0
 16 17  2  0  0  0  0
 16 15  1  0  0  0  0
 17 18  1  0  0  0  0
 18 22  1  0  0  0  0
 18 19  2  0  0  0  0
 21 15  1  0  0  0  0
 23  6  1  0  0  0  0
 24 30  1  0  0  0  0
 25 31  1  6  0  0  0
 25 24  1  0  0  0  0
 25 23  1  0  0  0  0
 26 33  1  0  0  0  0
 26 25  1  0  0  0  0
 27 28  1  0  0  0  0
 27 26  1  0  0  0  0
 28 34  1  0  0  0  0
 28 29  1  0  0  0  0
 29 36  1  6  0  0  0
 29 37  1  0  0  0  0
 29 24  1  0  0  0  0
 32 26  1  0  0  0  0
 35 28  1  0  0  0  0
 37 39  2  0  0  0  0
 37 38  1  0  0  0  0
M  END
>  <minimizedAffinity>
-5.59896946

>  <minimizedRMSD>
1.28528976

$$$$
