
 OpenBabel03272508493D

 34 37  0  0  0  0  0  0  0  0999 V2000
   37.4650   27.5090   33.7720 C   0  0  0  0  0  0  0  0  0  0  0  0
   36.8770   27.7290   32.5420 C   0  0  0  0  0  0  0  0  0  0  0  0
   35.8760   28.6560   32.8200 C   0  0  0  0  0  0  0  0  0  0  0  0
   35.8980   28.9500   34.1710 C   0  0  0  0  0  0  0  0  0  0  0  0
   36.8620   28.2440   34.7010 O   0  0  0  0  0  0  0  0  0  0  0  0
   37.1550   27.2760   31.6210 H   0  0  0  0  0  0  0  0  0  0  0  0
   35.1900   29.0730   32.0750 H   0  0  0  0  0  0  0  0  0  0  0  0
   33.6470   29.7810   34.6780 C   0  0  0  0  0  0  0  0  0  0  0  0
   35.0190   29.8710   34.8820 C   0  0  0  0  0  0  0  0  0  0  0  0
   35.5820   30.8050   35.7400 C   0  0  0  0  0  0  0  0  0  0  0  0
   34.7710   31.6940   36.4290 C   0  0  0  0  0  0  0  0  0  0  0  0
   34.9910   32.6860   37.3050 N   0  0  0  0  0  0  0  0  0  0  0  0
   33.8180   33.1930   37.6320 N   0  0  0  0  0  0  0  0  0  0  0  0
   32.8330   32.5400   36.9790 C   0  0  0  0  0  0  0  0  0  0  0  0
   33.4160   31.5590   36.1880 C   0  0  0  0  0  0  0  0  0  0  0  0
   32.7990   30.6630   35.3600 C   0  0  0  0  0  0  0  0  0  0  0  0
   33.1910   29.0630   34.0160 H   0  0  0  0  0  0  0  0  0  0  0  0
   36.6650   30.8490   35.8770 H   0  0  0  0  0  0  0  0  0  0  0  0
   35.9670   32.9510   37.6220 H   0  0  0  0  0  0  0  0  0  0  0  0
   31.7680   32.7810   37.0880 H   0  0  0  0  0  0  0  0  0  0  0  0
   31.7280   30.6490   35.2480 H   0  0  0  0  0  0  0  0  0  0  0  0
   38.5870   26.5970   33.9980 C   0  0  0  0  0  0  0  0  0  0  0  0
   39.6960   26.9160   33.5360 O   0  0  0  0  0  0  0  0  0  0  0  0
   38.0920   23.0530   34.6850 C   0  0  0  0  0  0  0  0  0  0  0  0
   37.9680   23.0040   36.0620 C   0  0  0  0  0  0  0  0  0  0  0  0
   38.0530   24.1760   36.7680 C   0  0  0  0  0  0  0  0  0  0  0  0
   38.2500   25.3290   36.1040 N   0  0  0  0  0  0  0  0  0  0  0  0
   38.3710   25.3670   34.7430 C   0  0  0  0  0  0  0  0  0  0  0  0
   38.2890   24.2210   34.0450 N   0  0  0  0  0  0  0  0  0  0  0  0
   38.0160   22.0870   34.1810 H   0  0  0  0  0  0  0  0  0  0  0  0
   37.8100   22.0750   36.5870 H   0  0  0  0  0  0  0  0  0  0  0  0
   37.9240   24.1340   38.2190 C   0  0  0  0  0  0  0  0  0  0  0  0
   37.0560   24.5190   38.7390 H   0  0  0  0  0  0  0  0  0  0  0  0
   38.8100   23.6500   38.9420 O   0  0  0  0  0  0  0  0  0  0  0  0
  1 22  1  0  0  0  0
  1  5  1  0  0  0  0
  2  3  1  0  0  0  0
  2  1  2  0  0  0  0
  3  4  2  0  0  0  0
  4  5  1  0  0  0  0
  4  9  1  0  0  0  0
  6  2  1  0  0  0  0
  7  3  1  0  0  0  0
  8  9  2  0  0  0  0
  8 16  1  0  0  0  0
  9 10  1  0  0  0  0
 10 18  1  0  0  0  0
 10 11  2  0  0  0  0
 11 12  1  0  0  0  0
 12 19  1  0  0  0  0
 12 13  1  0  0  0  0
 14 20  1  0  0  0  0
 14 13  2  0  0  0  0
 15 11  1  0  0  0  0
 15 14  1  0  0  0  0
 16 15  2  0  0  0  0
 17  8  1  0  0  0  0
 21 16  1  0  0  0  0
 22 28  1  0  0  0  0
 23 22  2  0  0  0  0
 24 25  1  0  0  0  0
 25 31  1  0  0  0  0
 25 26  2  0  0  0  0
 26 32  1  0  0  0  0
 27 26  1  0  0  0  0
 28 27  2  0  0  0  0
 29 24  2  0  0  0  0
 29 28  1  0  0  0  0
 30 24  1  0  0  0  0
 32 33  1  0  0  0  0
 32 34  2  0  0  0  0
M  END
>  <minimizedAffinity>
-5.94333696

$$$$

 OpenBabel03272508493D

 34 37  0  0  0  0  0  0  0  0999 V2000
   36.1140   28.4940   33.3880 C   0  0  0  0  0  0  0  0  0  0  0  0
   36.9710   28.2930   32.3240 C   0  0  0  0  0  0  0  0  0  0  0  0
   37.7840   27.2470   32.7520 C   0  0  0  0  0  0  0  0  0  0  0  0
   37.3960   26.8690   34.0240 C   0  0  0  0  0  0  0  0  0  0  0  0
   36.3970   27.6390   34.3650 O   0  0  0  0  0  0  0  0  0  0  0  0
   36.9750   28.8340   31.4080 H   0  0  0  0  0  0  0  0  0  0  0  0
   38.5950   26.8080   32.1620 H   0  0  0  0  0  0  0  0  0  0  0  0
   38.8880   24.9360   34.2550 C   0  0  0  0  0  0  0  0  0  0  0  0
   37.9820   25.8130   34.8420 C   0  0  0  0  0  0  0  0  0  0  0  0
   37.6170   25.7190   36.1770 C   0  0  0  0  0  0  0  0  0  0  0  0
   38.1580   24.7250   36.9780 C   0  0  0  0  0  0  0  0  0  0  0  0
   38.0200   24.3720   38.2640 N   0  0  0  0  0  0  0  0  0  0  0  0
   38.7970   23.3270   38.4740 N   0  0  0  0  0  0  0  0  0  0  0  0
   39.4430   22.9950   37.3370 C   0  0  0  0  0  0  0  0  0  0  0  0
   39.0520   23.8820   36.3430 C   0  0  0  0  0  0  0  0  0  0  0  0
   39.4540   23.9200   35.0370 C   0  0  0  0  0  0  0  0  0  0  0  0
   39.1840   24.9920   33.2210 H   0  0  0  0  0  0  0  0  0  0  0  0
   36.9030   26.4250   36.6060 H   0  0  0  0  0  0  0  0  0  0  0  0
   37.3770   24.8940   38.9260 H   0  0  0  0  0  0  0  0  0  0  0  0
   40.1490   22.1570   37.2600 H   0  0  0  0  0  0  0  0  0  0  0  0
   40.1610   23.2070   34.6470 H   0  0  0  0  0  0  0  0  0  0  0  0
   35.0580   29.5060   33.4170 C   0  0  0  0  0  0  0  0  0  0  0  0
   34.3300   29.6130   32.4140 O   0  0  0  0  0  0  0  0  0  0  0  0
   35.8520   31.8740   36.0700 C   0  0  0  0  0  0  0  0  0  0  0  0
   34.6820   31.9430   36.8040 C   0  0  0  0  0  0  0  0  0  0  0  0
   33.6130   31.1840   36.4020 C   0  0  0  0  0  0  0  0  0  0  0  0
   33.7360   30.4010   35.3150 N   0  0  0  0  0  0  0  0  0  0  0  0
   34.8960   30.3410   34.5970 C   0  0  0  0  0  0  0  0  0  0  0  0
   35.9480   31.0820   34.9850 N   0  0  0  0  0  0  0  0  0  0  0  0
   36.6660   32.5010   36.4400 H   0  0  0  0  0  0  0  0  0  0  0  0
   34.5920   32.5720   37.6750 H   0  0  0  0  0  0  0  0  0  0  0  0
   32.3760   31.2500   37.1690 C   0  0  0  0  0  0  0  0  0  0  0  0
   32.3430   31.5890   38.1970 H   0  0  0  0  0  0  0  0  0  0  0  0
   31.2830   30.9180   36.6810 O   0  0  0  0  0  0  0  0  0  0  0  0
  1 22  1  0  0  0  0
  1  5  1  0  0  0  0
  2  3  1  0  0  0  0
  2  1  2  0  0  0  0
  3  4  2  0  0  0  0
  4  5  1  0  0  0  0
  4  9  1  0  0  0  0
  6  2  1  0  0  0  0
  7  3  1  0  0  0  0
  8  9  2  0  0  0  0
  8 16  1  0  0  0  0
  9 10  1  0  0  0  0
 10 18  1  0  0  0  0
 10 11  2  0  0  0  0
 11 12  1  0  0  0  0
 12 13  1  0  0  0  0
 12 19  1  0  0  0  0
 14 13  2  0  0  0  0
 15 11  1  0  0  0  0
 15 14  1  0  0  0  0
 16 15  2  0  0  0  0
 17  8  1  0  0  0  0
 20 14  1  0  0  0  0
 21 16  1  0  0  0  0
 22 28  1  0  0  0  0
 23 22  2  0  0  0  0
 24 30  1  0  0  0  0
 24 25  1  0  0  0  0
 25 31  1  0  0  0  0
 26 25  2  0  0  0  0
 26 32  1  0  0  0  0
 27 26  1  0  0  0  0
 28 29  1  0  0  0  0
 28 27  2  0  0  0  0
 29 24  2  0  0  0  0
 32 33  1  0  0  0  0
 34 32  2  0  0  0  0
M  END
>  <minimizedAffinity>
-5.87557793

$$$$

 OpenBabel03272508493D

 34 37  0  0  0  0  0  0  0  0999 V2000
   38.2540   24.4280   35.4010 C   0  0  0  0  0  0  0  0  0  0  0  0
   38.5370   25.2810   36.4500 C   0  0  0  0  0  0  0  0  0  0  0  0
   38.1430   26.5280   35.9710 C   0  0  0  0  0  0  0  0  0  0  0  0
   37.6530   26.3820   34.6870 C   0  0  0  0  0  0  0  0  0  0  0  0
   37.7370   25.1130   34.3860 O   0  0  0  0  0  0  0  0  0  0  0  0
   38.9560   25.0080   37.3880 H   0  0  0  0  0  0  0  0  0  0  0  0
   38.2180   27.4630   36.5360 H   0  0  0  0  0  0  0  0  0  0  0  0
   36.2580   28.3720   34.3540 C   0  0  0  0  0  0  0  0  0  0  0  0
   37.1360   27.4350   33.8200 C   0  0  0  0  0  0  0  0  0  0  0  0
   37.5390   27.4680   32.4930 C   0  0  0  0  0  0  0  0  0  0  0  0
   37.0640   28.4580   31.6460 C   0  0  0  0  0  0  0  0  0  0  0  0
   37.2500   28.7610   30.3530 N   0  0  0  0  0  0  0  0  0  0  0  0
   36.5270   29.8320   30.0890 N   0  0  0  0  0  0  0  0  0  0  0  0
   35.8700   30.2320   31.1980 C   0  0  0  0  0  0  0  0  0  0  0  0
   36.1950   29.3610   32.2300 C   0  0  0  0  0  0  0  0  0  0  0  0
   35.7600   29.3860   33.5260 C   0  0  0  0  0  0  0  0  0  0  0  0
   35.9340   28.3630   35.3820 H   0  0  0  0  0  0  0  0  0  0  0  0
   38.2300   26.7160   32.1060 H   0  0  0  0  0  0  0  0  0  0  0  0
   37.8840   28.1880   29.7260 H   0  0  0  0  0  0  0  0  0  0  0  0
   35.2030   31.1030   31.2290 H   0  0  0  0  0  0  0  0  0  0  0  0
   35.0770   30.1420   33.8740 H   0  0  0  0  0  0  0  0  0  0  0  0
   38.4960   22.9850   35.4230 C   0  0  0  0  0  0  0  0  0  0  0  0
   39.5690   22.5850   35.9110 O   0  0  0  0  0  0  0  0  0  0  0  0
   35.6950   20.6580   35.3020 C   0  0  0  0  0  0  0  0  0  0  0  0
   35.5740   20.3660   33.9560 C   0  0  0  0  0  0  0  0  0  0  0  0
   36.4450   20.9580   33.0780 C   0  0  0  0  0  0  0  0  0  0  0  0
   37.3840   21.7990   33.5510 N   0  0  0  0  0  0  0  0  0  0  0  0
   37.4940   22.0800   34.8830 C   0  0  0  0  0  0  0  0  0  0  0  0
   36.6430   21.5030   35.7490 N   0  0  0  0  0  0  0  0  0  0  0  0
   34.9730   20.1550   35.9490 H   0  0  0  0  0  0  0  0  0  0  0  0
   34.8200   19.6910   33.5840 H   0  0  0  0  0  0  0  0  0  0  0  0
   36.3260   20.6570   31.6570 C   0  0  0  0  0  0  0  0  0  0  0  0
   36.8800   19.8580   31.1810 H   0  0  0  0  0  0  0  0  0  0  0  0
   35.5750   21.3060   30.9100 O   0  0  0  0  0  0  0  0  0  0  0  0
  1 22  1  0  0  0  0
  1  2  2  0  0  0  0
  2  6  1  0  0  0  0
  3  2  1  0  0  0  0
  3  7  1  0  0  0  0
  4  3  2  0  0  0  0
  5  4  1  0  0  0  0
  5  1  1  0  0  0  0
  8 17  1  0  0  0  0
  9  8  1  0  0  0  0
  9  4  1  0  0  0  0
 10  9  2  0  0  0  0
 11 15  2  0  0  0  0
 11 10  1  0  0  0  0
 12 11  1  0  0  0  0
 13 12  1  0  0  0  0
 13 14  2  0  0  0  0
 14 20  1  0  0  0  0
 14 15  1  0  0  0  0
 15 16  1  0  0  0  0
 16 21  1  0  0  0  0
 16  8  2  0  0  0  0
 18 10  1  0  0  0  0
 19 12  1  0  0  0  0
 22 23  2  0  0  0  0
 24 29  1  0  0  0  0
 24 30  1  0  0  0  0
 25 24  2  0  0  0  0
 26 27  2  0  0  0  0
 26 25  1  0  0  0  0
 27 28  1  0  0  0  0
 28 22  1  0  0  0  0
 28 29  2  0  0  0  0
 31 25  1  0  0  0  0
 32 26  1  0  0  0  0
 33 32  1  0  0  0  0
 34 32  2  0  0  0  0
M  END
>  <minimizedAffinity>
-5.81260824

$$$$

 OpenBabel03272508493D

 34 37  0  0  0  0  0  0  0  0999 V2000
   37.1100   27.8850   32.4570 C   0  0  0  0  0  0  0  0  0  0  0  0
   38.2410   27.6640   31.6970 C   0  0  0  0  0  0  0  0  0  0  0  0
   38.9410   26.7050   32.4240 C   0  0  0  0  0  0  0  0  0  0  0  0
   38.2240   26.3940   33.5640 C   0  0  0  0  0  0  0  0  0  0  0  0
   37.1380   27.1210   33.5440 O   0  0  0  0  0  0  0  0  0  0  0  0
   38.4830   28.1380   30.7760 H   0  0  0  0  0  0  0  0  0  0  0  0
   39.9040   26.2790   32.1250 H   0  0  0  0  0  0  0  0  0  0  0  0
   39.6050   24.5200   34.3350 C   0  0  0  0  0  0  0  0  0  0  0  0
   38.5960   25.4390   34.6010 C   0  0  0  0  0  0  0  0  0  0  0  0
   37.9320   25.4790   35.8190 C   0  0  0  0  0  0  0  0  0  0  0  0
   38.2650   24.5820   36.8230 C   0  0  0  0  0  0  0  0  0  0  0  0
   37.8300   24.3630   38.0720 N   0  0  0  0  0  0  0  0  0  0  0  0
   38.5290   23.3580   38.5640 N   0  0  0  0  0  0  0  0  0  0  0  0
   39.4180   22.9200   37.6480 C   0  0  0  0  0  0  0  0  0  0  0  0
   39.2740   23.6920   36.5030 C   0  0  0  0  0  0  0  0  0  0  0  0
   39.9670   23.6000   35.3280 C   0  0  0  0  0  0  0  0  0  0  0  0
   40.1320   24.4720   33.3960 H   0  0  0  0  0  0  0  0  0  0  0  0
   37.1440   26.2140   35.9950 H   0  0  0  0  0  0  0  0  0  0  0  0
   37.0570   24.9410   38.5090 H   0  0  0  0  0  0  0  0  0  0  0  0
   40.1140   22.0900   37.8240 H   0  0  0  0  0  0  0  0  0  0  0  0
   40.7380   22.8620   35.1880 H   0  0  0  0  0  0  0  0  0  0  0  0
   36.0480   28.8260   32.1010 C   0  0  0  0  0  0  0  0  0  0  0  0
   35.8660   29.0670   30.8940 O   0  0  0  0  0  0  0  0  0  0  0  0
   33.1450   29.7530   34.1000 C   0  0  0  0  0  0  0  0  0  0  0  0
   33.6790   30.5570   35.0920 C   0  0  0  0  0  0  0  0  0  0  0  0
   35.0300   30.7900   35.0880 C   0  0  0  0  0  0  0  0  0  0  0  0
   35.7890   30.2340   34.1270 N   0  0  0  0  0  0  0  0  0  0  0  0
   35.2520   29.4420   33.1520 C   0  0  0  0  0  0  0  0  0  0  0  0
   33.9280   29.2090   33.1490 N   0  0  0  0  0  0  0  0  0  0  0  0
   32.0650   29.6060   34.1570 H   0  0  0  0  0  0  0  0  0  0  0  0
   33.0630   30.9990   35.8590 H   0  0  0  0  0  0  0  0  0  0  0  0
   35.6010   31.6360   36.1290 C   0  0  0  0  0  0  0  0  0  0  0  0
   36.6350   31.9550   36.1200 H   0  0  0  0  0  0  0  0  0  0  0  0
   34.9250   32.0380   37.0910 O   0  0  0  0  0  0  0  0  0  0  0  0
  1  5  1  0  0  0  0
  2  3  1  0  0  0  0
  2  1  2  0  0  0  0
  3  4  2  0  0  0  0
  4  9  1  0  0  0  0
  5  4  1  0  0  0  0
  6  2  1  0  0  0  0
  7  3  1  0  0  0  0
  8  9  2  0  0  0  0
  8 16  1  0  0  0  0
  9 10  1  0  0  0  0
 10 18  1  0  0  0  0
 10 11  2  0  0  0  0
 11 12  1  0  0  0  0
 12 19  1  0  0  0  0
 12 13  1  0  0  0  0
 14 20  1  0  0  0  0
 14 13  2  0  0  0  0
 15 11  1  0  0  0  0
 15 14  1  0  0  0  0
 16 15  2  0  0  0  0
 17  8  1  0  0  0  0
 21 16  1  0  0  0  0
 22  1  1  0  0  0  0
 22 28  1  0  0  0  0
 23 22  2  0  0  0  0
 24 30  1  0  0  0  0
 24 25  1  0  0  0  0
 25 31  1  0  0  0  0
 26 25  2  0  0  0  0
 26 32  1  0  0  0  0
 27 26  1  0  0  0  0
 28 27  2  0  0  0  0
 29 28  1  0  0  0  0
 29 24  2  0  0  0  0
 32 34  2  0  0  0  0
 33 32  1  0  0  0  0
M  END
>  <minimizedAffinity>
-5.73984575

$$$$

 OpenBabel03272508493D

 34 37  0  0  0  0  0  0  0  0999 V2000
   38.0730   25.2190   33.7400 C   0  0  0  0  0  0  0  0  0  0  0  0
   39.1620   25.8280   33.1490 C   0  0  0  0  0  0  0  0  0  0  0  0
   38.6950   27.1020   32.8380 C   0  0  0  0  0  0  0  0  0  0  0  0
   37.3770   27.2080   33.2400 C   0  0  0  0  0  0  0  0  0  0  0  0
   37.0460   26.0620   33.7740 O   0  0  0  0  0  0  0  0  0  0  0  0
   40.1180   25.3900   32.9900 H   0  0  0  0  0  0  0  0  0  0  0  0
   39.2910   27.8810   32.3510 H   0  0  0  0  0  0  0  0  0  0  0  0
   35.9180   28.9060   34.2420 C   0  0  0  0  0  0  0  0  0  0  0  0
   36.5090   28.3720   33.1030 C   0  0  0  0  0  0  0  0  0  0  0  0
   36.3040   28.9080   31.8390 C   0  0  0  0  0  0  0  0  0  0  0  0
   35.4840   30.0150   31.6780 C   0  0  0  0  0  0  0  0  0  0  0  0
   35.0900   30.7510   30.6290 N   0  0  0  0  0  0  0  0  0  0  0  0
   34.2930   31.6970   31.0850 N   0  0  0  0  0  0  0  0  0  0  0  0
   34.1620   31.5870   32.4240 C   0  0  0  0  0  0  0  0  0  0  0  0
   34.9220   30.5030   32.8440 C   0  0  0  0  0  0  0  0  0  0  0  0
   35.0830   30.0250   34.1140 C   0  0  0  0  0  0  0  0  0  0  0  0
   36.0640   28.5040   35.2310 H   0  0  0  0  0  0  0  0  0  0  0  0
   36.7840   28.4640   30.9650 H   0  0  0  0  0  0  0  0  0  0  0  0
   35.4110   30.5400   29.6400 H   0  0  0  0  0  0  0  0  0  0  0  0
   33.5480   32.2620   33.0330 H   0  0  0  0  0  0  0  0  0  0  0  0
   34.5940   30.4880   34.9540 H   0  0  0  0  0  0  0  0  0  0  0  0
   38.0690   23.8460   34.2460 C   0  0  0  0  0  0  0  0  0  0  0  0
   37.6950   22.9450   33.4740 O   0  0  0  0  0  0  0  0  0  0  0  0
   38.1140   23.9140   37.8890 C   0  0  0  0  0  0  0  0  0  0  0  0
   39.2150   23.1420   38.2140 C   0  0  0  0  0  0  0  0  0  0  0  0
   39.9510   22.5930   37.1960 C   0  0  0  0  0  0  0  0  0  0  0  0
   39.5820   22.8200   35.9220 N   0  0  0  0  0  0  0  0  0  0  0  0
   38.4920   23.5840   35.6120 C   0  0  0  0  0  0  0  0  0  0  0  0
   37.7660   24.1260   36.6050 N   0  0  0  0  0  0  0  0  0  0  0  0
   37.5700   24.3230   38.7430 H   0  0  0  0  0  0  0  0  0  0  0  0
   39.5040   22.9650   39.2370 H   0  0  0  0  0  0  0  0  0  0  0  0
   41.1120   21.7780   37.5280 C   0  0  0  0  0  0  0  0  0  0  0  0
   41.1520   21.1500   38.4100 H   0  0  0  0  0  0  0  0  0  0  0  0
   42.1270   21.7600   36.8130 O   0  0  0  0  0  0  0  0  0  0  0  0
  1  5  1  0  0  0  0
  1 22  1  0  0  0  0
  2  1  2  0  0  0  0
  3  2  1  0  0  0  0
  3  4  2  0  0  0  0
  4  5  1  0  0  0  0
  6  2  1  0  0  0  0
  7  3  1  0  0  0  0
  8 17  1  0  0  0  0
  9  4  1  0  0  0  0
  9  8  2  0  0  0  0
 10  9  1  0  0  0  0
 11 10  2  0  0  0  0
 11 15  1  0  0  0  0
 12 13  1  0  0  0  0
 12 11  1  0  0  0  0
 13 14  2  0  0  0  0
 14 15  1  0  0  0  0
 14 20  1  0  0  0  0
 15 16  2  0  0  0  0
 16  8  1  0  0  0  0
 16 21  1  0  0  0  0
 18 10  1  0  0  0  0
 19 12  1  0  0  0  0
 22 28  1  0  0  0  0
 23 22  2  0  0  0  0
 24 25  1  0  0  0  0
 24 30  1  0  0  0  0
 25 31  1  0  0  0  0
 26 32  1  0  0  0  0
 26 25  2  0  0  0  0
 27 26  1  0  0  0  0
 28 27  2  0  0  0  0
 28 29  1  0  0  0  0
 29 24  2  0  0  0  0
 32 33  1  0  0  0  0
 34 32  2  0  0  0  0
M  END
>  <minimizedAffinity>
-5.69885683

$$$$

 OpenBabel03272508493D

 34 37  0  0  0  0  0  0  0  0999 V2000
   37.1420   27.6300   32.5150 C   0  0  0  0  0  0  0  0  0  0  0  0
   37.0230   28.5880   31.5280 C   0  0  0  0  0  0  0  0  0  0  0  0
   36.1990   29.5510   32.1060 C   0  0  0  0  0  0  0  0  0  0  0  0
   35.8620   29.1450   33.3840 C   0  0  0  0  0  0  0  0  0  0  0  0
   36.4460   27.9930   33.5870 O   0  0  0  0  0  0  0  0  0  0  0  0
   37.4730   28.5600   30.5650 H   0  0  0  0  0  0  0  0  0  0  0  0
   35.8800   30.4740   31.6120 H   0  0  0  0  0  0  0  0  0  0  0  0
   33.6460   29.6280   34.3160 C   0  0  0  0  0  0  0  0  0  0  0  0
   35.0170   29.8560   34.3360 C   0  0  0  0  0  0  0  0  0  0  0  0
   35.6090   30.7370   35.2290 C   0  0  0  0  0  0  0  0  0  0  0  0
   34.8300   31.4280   36.1450 C   0  0  0  0  0  0  0  0  0  0  0  0
   35.0830   32.3220   37.1130 N   0  0  0  0  0  0  0  0  0  0  0  0
   33.9300   32.6380   37.6700 N   0  0  0  0  0  0  0  0  0  0  0  0
   32.9260   31.9580   37.0770 C   0  0  0  0  0  0  0  0  0  0  0  0
   33.4750   31.1620   36.0800 C   0  0  0  0  0  0  0  0  0  0  0  0
   32.8290   30.3090   35.2290 C   0  0  0  0  0  0  0  0  0  0  0  0
   33.1670   28.9480   33.6300 H   0  0  0  0  0  0  0  0  0  0  0  0
   36.6900   30.8940   35.2180 H   0  0  0  0  0  0  0  0  0  0  0  0
   36.0650   32.6610   37.3240 H   0  0  0  0  0  0  0  0  0  0  0  0
   31.8720   32.0530   37.3680 H   0  0  0  0  0  0  0  0  0  0  0  0
   31.7610   30.1790   35.2680 H   0  0  0  0  0  0  0  0  0  0  0  0
   37.9230   26.4000   32.3800 C   0  0  0  0  0  0  0  0  0  0  0  0
   39.1630   26.4920   32.4280 O   0  0  0  0  0  0  0  0  0  0  0  0
   35.4670   23.9740   31.2140 C   0  0  0  0  0  0  0  0  0  0  0  0
   35.8850   22.7880   31.7900 C   0  0  0  0  0  0  0  0  0  0  0  0
   37.0050   22.8040   32.5800 C   0  0  0  0  0  0  0  0  0  0  0  0
   37.6590   23.9650   32.7690 N   0  0  0  0  0  0  0  0  0  0  0  0
   37.2380   25.1310   32.1950 C   0  0  0  0  0  0  0  0  0  0  0  0
   36.1400   25.1220   31.4190 N   0  0  0  0  0  0  0  0  0  0  0  0
   34.5700   23.8960   30.5970 H   0  0  0  0  0  0  0  0  0  0  0  0
   35.3560   21.8610   31.6340 H   0  0  0  0  0  0  0  0  0  0  0  0
   37.4530   21.5590   33.1920 C   0  0  0  0  0  0  0  0  0  0  0  0
   36.8030   20.9380   33.7960 H   0  0  0  0  0  0  0  0  0  0  0  0
   38.6140   21.1390   33.0520 O   0  0  0  0  0  0  0  0  0  0  0  0
  1  5  1  0  0  0  0
  2  3  1  0  0  0  0
  2  1  2  0  0  0  0
  3  4  2  0  0  0  0
  4  5  1  0  0  0  0
  4  9  1  0  0  0  0
  6  2  1  0  0  0  0
  7  3  1  0  0  0  0
  8  9  2  0  0  0  0
  8 16  1  0  0  0  0
  9 10  1  0  0  0  0
 10 11  2  0  0  0  0
 11 12  1  0  0  0  0
 12 19  1  0  0  0  0
 12 13  1  0  0  0  0
 14 20  1  0  0  0  0
 14 13  2  0  0  0  0
 15 11  1  0  0  0  0
 15 14  1  0  0  0  0
 16 21  1  0  0  0  0
 16 15  2  0  0  0  0
 17  8  1  0  0  0  0
 18 10  1  0  0  0  0
 22 23  2  0  0  0  0
 22  1  1  0  0  0  0
 24 29  2  0  0  0  0
 24 25  1  0  0  0  0
 25 26  2  0  0  0  0
 26 27  1  0  0  0  0
 26 32  1  0  0  0  0
 28 22  1  0  0  0  0
 28 27  2  0  0  0  0
 29 28  1  0  0  0  0
 30 24  1  0  0  0  0
 31 25  1  0  0  0  0
 32 33  1  0  0  0  0
 34 32  2  0  0  0  0
M  END
>  <minimizedAffinity>
-5.68473101

$$$$

 OpenBabel03272508493D

 34 37  0  0  0  0  0  0  0  0999 V2000
   38.0100   26.6600   33.9650 C   0  0  0  0  0  0  0  0  0  0  0  0
   38.1600   27.3950   35.1240 C   0  0  0  0  0  0  0  0  0  0  0  0
   39.0840   26.6580   35.8610 C   0  0  0  0  0  0  0  0  0  0  0  0
   39.4440   25.5370   35.1360 C   0  0  0  0  0  0  0  0  0  0  0  0
   38.7800   25.5780   34.0110 O   0  0  0  0  0  0  0  0  0  0  0  0
   37.6660   28.3070   35.3590 H   0  0  0  0  0  0  0  0  0  0  0  0
   39.4520   26.9370   36.8530 H   0  0  0  0  0  0  0  0  0  0  0  0
   41.6510   24.4810   34.9640 C   0  0  0  0  0  0  0  0  0  0  0  0
   40.3850   24.4980   35.5390 C   0  0  0  0  0  0  0  0  0  0  0  0
   39.9860   23.5630   36.4820 C   0  0  0  0  0  0  0  0  0  0  0  0
   40.8600   22.5630   36.8840 C   0  0  0  0  0  0  0  0  0  0  0  0
   40.7880   21.5400   37.7470 N   0  0  0  0  0  0  0  0  0  0  0  0
   41.9480   20.9120   37.7150 N   0  0  0  0  0  0  0  0  0  0  0  0
   42.7780   21.5170   36.8390 C   0  0  0  0  0  0  0  0  0  0  0  0
   42.1040   22.5950   36.2800 C   0  0  0  0  0  0  0  0  0  0  0  0
   42.5590   23.4850   35.3480 C   0  0  0  0  0  0  0  0  0  0  0  0
   41.9790   25.1980   34.2290 H   0  0  0  0  0  0  0  0  0  0  0  0
   38.9840   23.6050   36.9150 H   0  0  0  0  0  0  0  0  0  0  0  0
   39.9150   21.3410   38.3140 H   0  0  0  0  0  0  0  0  0  0  0  0
   43.8020   21.1780   36.6370 H   0  0  0  0  0  0  0  0  0  0  0  0
   43.5540   23.4140   34.9430 H   0  0  0  0  0  0  0  0  0  0  0  0
   37.1270   27.0340   32.8590 C   0  0  0  0  0  0  0  0  0  0  0  0
   37.0340   28.2420   32.5750 O   0  0  0  0  0  0  0  0  0  0  0  0
   34.7110   25.4750   30.6210 C   0  0  0  0  0  0  0  0  0  0  0  0
   34.9770   24.1240   30.7480 C   0  0  0  0  0  0  0  0  0  0  0  0
   35.9820   23.7320   31.5950 C   0  0  0  0  0  0  0  0  0  0  0  0
   36.6710   24.6680   32.2730 N   0  0  0  0  0  0  0  0  0  0  0  0
   36.3990   26.0000   32.1410 C   0  0  0  0  0  0  0  0  0  0  0  0
   35.4160   26.3920   31.3120 N   0  0  0  0  0  0  0  0  0  0  0  0
   33.9010   25.7230   29.9330 H   0  0  0  0  0  0  0  0  0  0  0  0
   34.4210   23.3800   30.2010 H   0  0  0  0  0  0  0  0  0  0  0  0
   36.2700   22.3100   31.7340 C   0  0  0  0  0  0  0  0  0  0  0  0
   36.8850   21.7680   31.0280 H   0  0  0  0  0  0  0  0  0  0  0  0
   35.8210   21.6400   32.6790 O   0  0  0  0  0  0  0  0  0  0  0  0
  1  5  1  0  0  0  0
  1  2  2  0  0  0  0
  2  6  1  0  0  0  0
  2  3  1  0  0  0  0
  3  7  1  0  0  0  0
  4  9  1  0  0  0  0
  4  3  2  0  0  0  0
  5  4  1  0  0  0  0
  8 16  2  0  0  0  0
  8  9  1  0  0  0  0
  9 10  2  0  0  0  0
 10 11  1  0  0  0  0
 10 18  1  0  0  0  0
 11 12  1  0  0  0  0
 12 19  1  0  0  0  0
 13 12  1  0  0  0  0
 14 13  2  0  0  0  0
 15 14  1  0  0  0  0
 15 11  2  0  0  0  0
 16 15  1  0  0  0  0
 17  8  1  0  0  0  0
 20 14  1  0  0  0  0
 21 16  1  0  0  0  0
 22  1  1  0  0  0  0
 23 22  2  0  0  0  0
 24 25  2  0  0  0  0
 24 29  1  0  0  0  0
 25 26  1  0  0  0  0
 26 32  1  0  0  0  0
 26 27  2  0  0  0  0
 28 27  1  0  0  0  0
 28 22  1  0  0  0  0
 29 28  2  0  0  0  0
 30 24  1  0  0  0  0
 31 25  1  0  0  0  0
 32 34  2  0  0  0  0
 33 32  1  0  0  0  0
M  END
>  <minimizedAffinity>
-5.63733006

$$$$

 OpenBabel03272508493D

 34 37  0  0  0  0  0  0  0  0999 V2000
   36.9610   27.0240   33.5100 C   0  0  0  0  0  0  0  0  0  0  0  0
   37.0910   27.9450   34.5320 C   0  0  0  0  0  0  0  0  0  0  0  0
   37.7680   27.2400   35.5230 C   0  0  0  0  0  0  0  0  0  0  0  0
   38.0130   25.9560   35.0730 C   0  0  0  0  0  0  0  0  0  0  0  0
   37.5150   25.8700   33.8680 O   0  0  0  0  0  0  0  0  0  0  0  0
   36.7400   28.9490   34.5220 H   0  0  0  0  0  0  0  0  0  0  0  0
   38.0520   27.6530   36.4960 H   0  0  0  0  0  0  0  0  0  0  0  0
   38.1600   24.4430   36.9980 C   0  0  0  0  0  0  0  0  0  0  0  0
   38.6970   24.8890   35.7960 C   0  0  0  0  0  0  0  0  0  0  0  0
   39.8590   24.3540   35.2580 C   0  0  0  0  0  0  0  0  0  0  0  0
   40.5300   23.3400   35.9230 C   0  0  0  0  0  0  0  0  0  0  0  0
   41.6420   22.6300   35.6830 N   0  0  0  0  0  0  0  0  0  0  0  0
   41.7960   21.7840   36.6820 N   0  0  0  0  0  0  0  0  0  0  0  0
   40.7940   21.9330   37.5740 C   0  0  0  0  0  0  0  0  0  0  0  0
   39.9520   22.9360   37.1130 C   0  0  0  0  0  0  0  0  0  0  0  0
   38.8130   23.4180   37.6960 C   0  0  0  0  0  0  0  0  0  0  0  0
   37.2590   24.8460   37.4320 H   0  0  0  0  0  0  0  0  0  0  0  0
   40.2530   24.7280   34.3110 H   0  0  0  0  0  0  0  0  0  0  0  0
   42.2350   22.7870   34.8180 H   0  0  0  0  0  0  0  0  0  0  0  0
   40.7030   21.3390   38.4920 H   0  0  0  0  0  0  0  0  0  0  0  0
   38.4530   23.0260   38.6310 H   0  0  0  0  0  0  0  0  0  0  0  0
   36.3060   27.2980   32.2310 C   0  0  0  0  0  0  0  0  0  0  0  0
   36.4460   26.4640   31.3180 O   0  0  0  0  0  0  0  0  0  0  0  0
   35.3750   30.6460   31.1340 C   0  0  0  0  0  0  0  0  0  0  0  0
   34.1330   30.8410   31.7090 C   0  0  0  0  0  0  0  0  0  0  0  0
   33.6010   29.8360   32.4750 C   0  0  0  0  0  0  0  0  0  0  0  0
   34.3010   28.6980   32.6420 N   0  0  0  0  0  0  0  0  0  0  0  0
   35.5280   28.5160   32.0690 C   0  0  0  0  0  0  0  0  0  0  0  0
   36.0550   29.4980   31.3170 N   0  0  0  0  0  0  0  0  0  0  0  0
   35.7440   31.4830   30.5370 H   0  0  0  0  0  0  0  0  0  0  0  0
   33.5780   31.7560   31.5710 H   0  0  0  0  0  0  0  0  0  0  0  0
   32.2930   30.0330   33.0850 C   0  0  0  0  0  0  0  0  0  0  0  0
   31.7650   30.9770   33.0430 H   0  0  0  0  0  0  0  0  0  0  0  0
   31.7070   29.1190   33.6910 O   0  0  0  0  0  0  0  0  0  0  0  0
  1  5  1  0  0  0  0
  1  2  2  0  0  0  0
  2  3  1  0  0  0  0
  3  7  1  0  0  0  0
  4  3  2  0  0  0  0
  4  9  1  0  0  0  0
  5  4  1  0  0  0  0
  6  2  1  0  0  0  0
  8 17  1  0  0  0  0
  8 16  1  0  0  0  0
  9  8  2  0  0  0  0
 10  9  1  0  0  0  0
 10 11  2  0  0  0  0
 11 15  1  0  0  0  0
 12 11  1  0  0  0  0
 12 13  1  0  0  0  0
 13 14  2  0  0  0  0
 14 20  1  0  0  0  0
 15 14  1  0  0  0  0
 15 16  2  0  0  0  0
 16 21  1  0  0  0  0
 18 10  1  0  0  0  0
 19 12  1  0  0  0  0
 22  1  1  0  0  0  0
 23 22  2  0  0  0  0
 24 29  2  0  0  0  0
 24 25  1  0  0  0  0
 25 26  2  0  0  0  0
 26 27  1  0  0  0  0
 26 32  1  0  0  0  0
 28 22  1  0  0  0  0
 28 27  2  0  0  0  0
 29 28  1  0  0  0  0
 30 24  1  0  0  0  0
 31 25  1  0  0  0  0
 32 34  2  0  0  0  0
 33 32  1  0  0  0  0
M  END
>  <minimizedAffinity>
-5.56512737

$$$$

 OpenBabel03272508493D

 34 37  0  0  0  0  0  0  0  0999 V2000
   36.2000   28.6670   33.3920 C   0  0  0  0  0  0  0  0  0  0  0  0
   36.9320   28.4040   32.2510 C   0  0  0  0  0  0  0  0  0  0  0  0
   37.7280   27.3220   32.6170 C   0  0  0  0  0  0  0  0  0  0  0  0
   37.4520   26.9850   33.9290 C   0  0  0  0  0  0  0  0  0  0  0  0
   36.5340   27.8130   34.3530 O   0  0  0  0  0  0  0  0  0  0  0  0
   36.8710   28.9300   31.3290 H   0  0  0  0  0  0  0  0  0  0  0  0
   38.4510   26.8300   31.9580 H   0  0  0  0  0  0  0  0  0  0  0  0
   39.0380   25.1220   34.1070 C   0  0  0  0  0  0  0  0  0  0  0  0
   38.0620   25.9110   34.7050 C   0  0  0  0  0  0  0  0  0  0  0  0
   37.6480   25.7130   36.0150 C   0  0  0  0  0  0  0  0  0  0  0  0
   38.2100   24.6990   36.7760 C   0  0  0  0  0  0  0  0  0  0  0  0
   38.0390   24.2580   38.0310 N   0  0  0  0  0  0  0  0  0  0  0  0
   38.8630   23.2440   38.2100 N   0  0  0  0  0  0  0  0  0  0  0  0
   39.5730   23.0200   37.0840 C   0  0  0  0  0  0  0  0  0  0  0  0
   39.1740   23.9470   36.1310 C   0  0  0  0  0  0  0  0  0  0  0  0
   39.6270   24.0890   34.8490 C   0  0  0  0  0  0  0  0  0  0  0  0
   39.3720   25.2600   33.0920 H   0  0  0  0  0  0  0  0  0  0  0  0
   36.8790   26.3510   36.4540 H   0  0  0  0  0  0  0  0  0  0  0  0
   37.3410   24.7020   38.6940 H   0  0  0  0  0  0  0  0  0  0  0  0
   40.3260   22.2270   36.9880 H   0  0  0  0  0  0  0  0  0  0  0  0
   40.3870   23.4410   34.4470 H   0  0  0  0  0  0  0  0  0  0  0  0
   35.2060   29.7360   33.5060 C   0  0  0  0  0  0  0  0  0  0  0  0
   35.5830   30.9020   33.2950 O   0  0  0  0  0  0  0  0  0  0  0  0
   31.7060   28.7970   33.1280 C   0  0  0  0  0  0  0  0  0  0  0  0
   31.2350   28.7710   34.4280 C   0  0  0  0  0  0  0  0  0  0  0  0
   32.1050   29.0720   35.4440 C   0  0  0  0  0  0  0  0  0  0  0  0
   33.3800   29.3830   35.1470 N   0  0  0  0  0  0  0  0  0  0  0  0
   33.8340   29.4060   33.8580 C   0  0  0  0  0  0  0  0  0  0  0  0
   32.9870   29.1110   32.8570 N   0  0  0  0  0  0  0  0  0  0  0  0
   30.9660   28.5490   32.3640 H   0  0  0  0  0  0  0  0  0  0  0  0
   30.2120   28.5220   34.6590 H   0  0  0  0  0  0  0  0  0  0  0  0
   31.6180   29.0470   36.8180 C   0  0  0  0  0  0  0  0  0  0  0  0
   32.2530   28.7970   37.6580 H   0  0  0  0  0  0  0  0  0  0  0  0
   30.4380   29.3140   37.1000 O   0  0  0  0  0  0  0  0  0  0  0  0
  1 22  1  0  0  0  0
  1  5  1  0  0  0  0
  2  3  1  0  0  0  0
  2  1  2  0  0  0  0
  3  4  2  0  0  0  0
  4  5  1  0  0  0  0
  4  9  1  0  0  0  0
  6  2  1  0  0  0  0
  7  3  1  0  0  0  0
  8  9  2  0  0  0  0
  8 16  1  0  0  0  0
  9 10  1  0  0  0  0
 10 18  1  0  0  0  0
 10 11  2  0  0  0  0
 11 12  1  0  0  0  0
 12 13  1  0  0  0  0
 12 19  1  0  0  0  0
 14 13  2  0  0  0  0
 15 11  1  0  0  0  0
 15 14  1  0  0  0  0
 16 15  2  0  0  0  0
 17  8  1  0  0  0  0
 20 14  1  0  0  0  0
 21 16  1  0  0  0  0
 22 28  1  0  0  0  0
 23 22  2  0  0  0  0
 24 25  1  0  0  0  0
 25 31  1  0  0  0  0
 25 26  2  0  0  0  0
 26 32  1  0  0  0  0
 27 26  1  0  0  0  0
 28 27  2  0  0  0  0
 29 24  2  0  0  0  0
 29 28  1  0  0  0  0
 30 24  1  0  0  0  0
 32 34  2  0  0  0  0
 32 33  1  0  0  0  0
M  END
>  <minimizedAffinity>
-5.53977585

$$$$
