
 OpenBabel03272508473D

 34 37  0  0  0  0  0  0  0  0999 V2000
   35.5240   29.5790   49.7140 C   0  0  0  0  0  0  0  0  0  0  0  0
   36.5490   29.2380   50.5740 C   0  0  0  0  0  0  0  0  0  0  0  0
   37.6810   29.7640   49.9560 C   0  0  0  0  0  0  0  0  0  0  0  0
   37.3030   30.3830   48.7790 C   0  0  0  0  0  0  0  0  0  0  0  0
   36.0080   30.2490   48.6740 O   0  0  0  0  0  0  0  0  0  0  0  0
   36.4530   28.7000   51.4860 H   0  0  0  0  0  0  0  0  0  0  0  0
   38.6980   29.6890   50.3540 H   0  0  0  0  0  0  0  0  0  0  0  0
   38.5770   32.3650   48.0960 C   0  0  0  0  0  0  0  0  0  0  0  0
   38.1750   31.0620   47.8270 C   0  0  0  0  0  0  0  0  0  0  0  0
   38.5750   30.3830   46.6840 C   0  0  0  0  0  0  0  0  0  0  0  0
   39.4040   31.0030   45.7610 C   0  0  0  0  0  0  0  0  0  0  0  0
   39.9540   30.6370   44.5940 N   0  0  0  0  0  0  0  0  0  0  0  0
   40.6630   31.6580   44.1540 N   0  0  0  0  0  0  0  0  0  0  0  0
   40.5820   32.6880   45.0230 C   0  0  0  0  0  0  0  0  0  0  0  0
   39.7710   32.2970   46.0800 C   0  0  0  0  0  0  0  0  0  0  0  0
   39.4150   33.0210   47.1840 C   0  0  0  0  0  0  0  0  0  0  0  0
   38.2770   32.9090   48.9770 H   0  0  0  0  0  0  0  0  0  0  0  0
   38.2410   29.3590   46.5040 H   0  0  0  0  0  0  0  0  0  0  0  0
   39.7940   29.6780   44.1720 H   0  0  0  0  0  0  0  0  0  0  0  0
   41.0890   33.6500   44.8750 H   0  0  0  0  0  0  0  0  0  0  0  0
   39.7630   34.0290   47.3300 H   0  0  0  0  0  0  0  0  0  0  0  0
   34.1170   29.2410   49.9330 C   0  0  0  0  0  0  0  0  0  0  0  0
   33.5180   29.8220   50.8560 O   0  0  0  0  0  0  0  0  0  0  0  0
   31.4990   27.2050   48.4240 C   0  0  0  0  0  0  0  0  0  0  0  0
   32.1840   26.4170   47.5170 C   0  0  0  0  0  0  0  0  0  0  0  0
   33.5420   26.5710   47.4120 C   0  0  0  0  0  0  0  0  0  0  0  0
   34.1620   27.4780   48.1890 N   0  0  0  0  0  0  0  0  0  0  0  0
   33.4750   28.2520   49.0810 C   0  0  0  0  0  0  0  0  0  0  0  0
   32.1430   28.1060   49.1900 N   0  0  0  0  0  0  0  0  0  0  0  0
   30.4210   27.0350   48.4610 H   0  0  0  0  0  0  0  0  0  0  0  0
   31.6800   25.6910   46.8970 H   0  0  0  0  0  0  0  0  0  0  0  0
   34.2730   25.7450   46.4590 C   0  0  0  0  0  0  0  0  0  0  0  0
   34.6970   26.1430   45.5460 H   0  0  0  0  0  0  0  0  0  0  0  0
   34.4490   24.5300   46.6450 O   0  0  0  0  0  0  0  0  0  0  0  0
  1 22  1  0  0  0  0
  1  2  2  0  0  0  0
  2  6  1  0  0  0  0
  3  7  1  0  0  0  0
  3  2  1  0  0  0  0
  4  3  2  0  0  0  0
  5  4  1  0  0  0  0
  5  1  1  0  0  0  0
  8 17  1  0  0  0  0
  9  8  1  0  0  0  0
  9  4  1  0  0  0  0
 10  9  2  0  0  0  0
 11 15  2  0  0  0  0
 11 10  1  0  0  0  0
 12 11  1  0  0  0  0
 13 12  1  0  0  0  0
 13 14  2  0  0  0  0
 14 15  1  0  0  0  0
 15 16  1  0  0  0  0
 16 21  1  0  0  0  0
 16  8  2  0  0  0  0
 18 10  1  0  0  0  0
 19 12  1  0  0  0  0
 20 14  1  0  0  0  0
 22 23  2  0  0  0  0
 24 30  1  0  0  0  0
 24 29  1  0  0  0  0
 25 24  2  0  0  0  0
 26 25  1  0  0  0  0
 26 27  2  0  0  0  0
 27 28  1  0  0  0  0
 28 29  2  0  0  0  0
 28 22  1  0  0  0  0
 31 25  1  0  0  0  0
 32 34  2  0  0  0  0
 32 26  1  0  0  0  0
 33 32  1  0  0  0  0
M  END
>  <minimizedAffinity>
-6.29936171

>  <minimizedRMSD>
0.314258844

$$$$
