
 OpenBabel03272501343D

 30 32  0  0  1  0  0  0  0  0999 V2000
   37.9230   32.0070   47.3630 C   0  0  2  0  0  0  0  0  0  0  0  0
   38.2610   30.5300   47.1200 C   0  0  0  0  0  0  0  0  0  0  0  0
   39.2230   31.6750   46.7670 C   0  0  1  0  0  0  0  0  0  0  0  0
   37.1890   32.5410   46.7360 H   0  0  0  0  0  0  0  0  0  0  0  0
   37.7260   30.0340   46.2680 H   0  0  0  0  0  0  0  0  0  0  0  0
   38.5750   29.9090   47.9490 H   0  0  0  0  0  0  0  0  0  0  0  0
   40.1230   31.7570   47.3980 H   0  0  0  0  0  0  0  0  0  0  0  0
   39.4680   31.8110   45.3230 C   0  0  0  0  0  0  0  0  0  0  0  0
   38.9690   32.8790   44.5760 C   0  0  0  0  0  0  0  0  0  0  0  0
   39.2480   32.9000   43.2430 C   0  0  0  0  0  0  0  0  0  0  0  0
   39.9830   31.9380   42.6080 C   0  0  0  0  0  0  0  0  0  0  0  0
   40.4700   30.8830   43.3700 C   0  0  0  0  0  0  0  0  0  0  0  0
   40.2040   30.8450   44.6980 N   0  0  0  0  0  0  0  0  0  0  0  0
   38.3820   33.6520   45.0650 H   0  0  0  0  0  0  0  0  0  0  0  0
   38.8810   33.7100   42.6200 H   0  0  0  0  0  0  0  0  0  0  0  0
   40.2360   31.9020   41.5540 H   0  0  0  0  0  0  0  0  0  0  0  0
   41.0620   30.0900   42.9200 H   0  0  0  0  0  0  0  0  0  0  0  0
   37.7790   32.3080   48.8040 C   0  0  0  0  0  0  0  0  0  0  0  0
   38.1630   33.4460   49.2000 O   0  0  0  0  0  0  0  0  0  0  0  0
   37.3500   29.8740   51.6020 C   0  0  0  0  0  0  0  0  0  0  0  0
   37.9260   30.8340   50.7690 C   0  0  0  0  0  0  0  0  0  0  0  0
   37.2080   31.3030   49.6860 C   0  0  0  0  0  0  0  0  0  0  0  0
   35.9750   30.8050   49.4840 N   0  0  0  0  0  0  0  0  0  0  0  0
   35.4460   29.8690   50.3190 C   0  0  0  0  0  0  0  0  0  0  0  0
   36.1020   29.3980   51.3650 N   0  0  0  0  0  0  0  0  0  0  0  0
   37.8790   29.4760   52.4680 H   0  0  0  0  0  0  0  0  0  0  0  0
   38.9210   31.1750   51.0090 H   0  0  0  0  0  0  0  0  0  0  0  0
   34.1020   29.4230   49.9780 C   0  0  0  0  0  0  0  0  0  0  0  0
   33.2150   30.0030   50.1730 H   0  0  0  0  0  0  0  0  0  0  0  0
   33.9170   28.3070   49.4260 O   0  0  0  0  0  0  0  0  0  0  0  0
  1  4  1  6  0  0  0
  1 18  1  0  0  0  0
  2  1  1  0  0  0  0
  2  6  1  0  0  0  0
  3  2  1  0  0  0  0
  3  1  1  0  0  0  0
  3  7  1  1  0  0  0
  5  2  1  0  0  0  0
  8  3  1  0  0  0  0
  9 14  1  0  0  0  0
  9  8  2  0  0  0  0
 10  9  1  0  0  0  0
 11 10  2  0  0  0  0
 11 12  1  0  0  0  0
 12 13  2  0  0  0  0
 13  8  1  0  0  0  0
 15 10  1  0  0  0  0
 16 11  1  0  0  0  0
 17 12  1  0  0  0  0
 18 19  2  0  0  0  0
 18 22  1  0  0  0  0
 20 26  1  0  0  0  0
 21 27  1  0  0  0  0
 21 20  2  0  0  0  0
 22 21  1  0  0  0  0
 23 22  2  0  0  0  0
 23 24  1  0  0  0  0
 24 25  2  0  0  0  0
 25 20  1  0  0  0  0
 28 29  1  0  0  0  0
 28 24  1  0  0  0  0
 30 28  2  0  0  0  0
M  END
>  <minimizedAffinity>
-5.79145098

>  <minimizedRMSD>
0.502804637

$$$$
