
 OpenBabel03272508303D

 26 27  0  0  1  0  0  0  0  0999 V2000
   37.8350   31.0890   47.7660 N   0  0  0  0  0  0  0  0  0  0  0  0
   37.5310   30.6210   46.4080 C   0  0  0  0  0  0  0  0  0  0  0  0
   38.4800   31.1600   45.4030 C   0  0  0  0  0  0  0  0  0  0  0  0
   39.7350   31.4670   46.0240 N   0  0  0  0  0  0  0  0  0  0  0  0
   39.4740   32.6610   46.8510 C   0  0  0  0  0  0  0  0  0  0  0  0
   38.8260   32.1100   48.0920 C   0  0  1  0  0  0  0  0  0  0  0  0
   36.5100   30.9550   46.1750 H   0  0  0  0  0  0  0  0  0  0  0  0
   37.5590   29.5050   46.3600 H   0  0  0  0  0  0  0  0  0  0  0  0
   38.5960   30.4620   44.5500 H   0  0  0  0  0  0  0  0  0  0  0  0
   38.0680   32.1030   44.9850 H   0  0  0  0  0  0  0  0  0  0  0  0
   40.4820   31.6480   45.3320 H   0  0  0  0  0  0  0  0  0  0  0  0
   38.7890   33.3100   46.2720 H   0  0  0  0  0  0  0  0  0  0  0  0
   40.3830   33.2050   47.1090 H   0  0  0  0  0  0  0  0  0  0  0  0
   39.6470   31.5480   48.6230 H   0  0  0  0  0  0  0  0  0  0  0  0
   37.7760   29.9180   49.9360 C   0  0  0  0  0  0  0  0  0  0  0  0
   37.1260   30.5230   48.8610 C   0  0  0  0  0  0  0  0  0  0  0  0
   35.7220   30.5590   48.8900 C   0  0  0  0  0  0  0  0  0  0  0  0
   35.0760   30.0030   49.9670 N   0  0  0  0  0  0  0  0  0  0  0  0
   35.7720   29.4310   50.9780 C   0  0  0  0  0  0  0  0  0  0  0  0
   37.1320   29.3800   50.9790 N   0  0  0  0  0  0  0  0  0  0  0  0
   38.8590   29.8750   49.9440 H   0  0  0  0  0  0  0  0  0  0  0  0
   35.1660   31.0160   48.0820 H   0  0  0  0  0  0  0  0  0  0  0  0
   35.1690   29.0230   51.7750 H   0  0  0  0  0  0  0  0  0  0  0  0
   38.3300   33.1340   49.0240 C   0  0  0  0  0  0  0  0  0  0  0  0
   37.2510   33.2680   49.0880 H   0  0  0  0  0  0  0  0  0  0  0  0
   39.1340   33.7840   49.6800 O   0  0  0  0  0  0  0  0  0  0  0  0
  1  6  1  0  0  0  0
  1 16  1  0  0  0  0
  2  1  1  0  0  0  0
  3  4  1  0  0  0  0
  3  2  1  0  0  0  0
  4  5  1  0  0  0  0
  5 13  1  0  0  0  0
  5  6  1  0  0  0  0
  6 14  1  1  0  0  0
  6 24  1  0  0  0  0
  7  2  1  0  0  0  0
  8  2  1  0  0  0  0
  9  3  1  0  0  0  0
 10  3  1  0  0  0  0
 11  4  1  0  0  0  0
 12  5  1  0  0  0  0
 15 21  1  0  0  0  0
 15 20  1  0  0  0  0
 16 17  1  0  0  0  0
 16 15  2  0  0  0  0
 17 18  2  0  0  0  0
 18 19  1  0  0  0  0
 19 20  2  0  0  0  0
 19 23  1  0  0  0  0
 22 17  1  0  0  0  0
 24 25  1  0  0  0  0
 24 26  2  0  0  0  0
M  END
>  <minimizedAffinity>
-4.48212242

>  <minimizedRMSD>
0.895981669

$$$$
