
 OpenBabel03272508313D

 26 27  0  0  1  0  0  0  0  0999 V2000
   39.2160   22.7110   35.6670 N   0  0  0  0  0  0  0  0  0  0  0  0
   40.6450   22.4050   35.5360 C   0  0  0  0  0  0  0  0  0  0  0  0
   41.3120   22.2590   36.8530 C   0  0  0  0  0  0  0  0  0  0  0  0
   40.3590   21.8540   37.8460 N   0  0  0  0  0  0  0  0  0  0  0  0
   39.5140   23.0420   38.0750 C   0  0  0  0  0  0  0  0  0  0  0  0
   38.5440   23.0260   36.9240 C   0  0  1  0  0  0  0  0  0  0  0  0
   41.1000   23.2340   34.9760 H   0  0  0  0  0  0  0  0  0  0  0  0
   40.7960   21.4610   34.9550 H   0  0  0  0  0  0  0  0  0  0  0  0
   42.1710   21.5610   36.7900 H   0  0  0  0  0  0  0  0  0  0  0  0
   41.7260   23.2420   37.1600 H   0  0  0  0  0  0  0  0  0  0  0  0
   40.8130   21.5450   38.7220 H   0  0  0  0  0  0  0  0  0  0  0  0
   40.1830   23.9240   38.0470 H   0  0  0  0  0  0  0  0  0  0  0  0
   38.9760   23.0040   39.0220 H   0  0  0  0  0  0  0  0  0  0  0  0
   37.8780   22.1380   37.1200 H   0  0  0  0  0  0  0  0  0  0  0  0
   37.4210   21.7410   34.2800 C   0  0  0  0  0  0  0  0  0  0  0  0
   38.4040   22.7060   34.5000 C   0  0  0  0  0  0  0  0  0  0  0  0
   38.5720   23.6940   33.5160 C   0  0  0  0  0  0  0  0  0  0  0  0
   37.7660   23.6550   32.4050 N   0  0  0  0  0  0  0  0  0  0  0  0
   36.8310   22.6880   32.2570 C   0  0  0  0  0  0  0  0  0  0  0  0
   36.6430   21.7160   33.1910 N   0  0  0  0  0  0  0  0  0  0  0  0
   37.2660   20.9650   35.0200 H   0  0  0  0  0  0  0  0  0  0  0  0
   39.3200   24.4680   33.6350 H   0  0  0  0  0  0  0  0  0  0  0  0
   36.2510   22.7470   31.3480 H   0  0  0  0  0  0  0  0  0  0  0  0
   37.6750   24.2100   36.8450 C   0  0  0  0  0  0  0  0  0  0  0  0
   36.6000   24.0380   36.8200 H   0  0  0  0  0  0  0  0  0  0  0  0
   38.1850   25.3230   36.8120 O   0  0  0  0  0  0  0  0  0  0  0  0
  1  6  1  0  0  0  0
  2  1  1  0  0  0  0
  2  3  1  0  0  0  0
  3 10  1  0  0  0  0
  3  4  1  0  0  0  0
  4  5  1  0  0  0  0
  4 11  1  0  0  0  0
  5 13  1  0  0  0  0
  6 14  1  1  0  0  0
  6  5  1  0  0  0  0
  7  2  1  0  0  0  0
  8  2  1  0  0  0  0
  9  3  1  0  0  0  0
 12  5  1  0  0  0  0
 15 16  1  0  0  0  0
 15 21  1  0  0  0  0
 16  1  1  0  0  0  0
 17 22  1  0  0  0  0
 17 16  2  0  0  0  0
 18 17  1  0  0  0  0
 19 18  2  0  0  0  0
 19 20  1  0  0  0  0
 20 15  2  0  0  0  0
 23 19  1  0  0  0  0
 24  6  1  0  0  0  0
 25 24  1  0  0  0  0
 26 24  2  0  0  0  0
M  END
>  <minimizedAffinity>
-3.89509177

$$$$

 OpenBabel03272508313D

 26 27  0  0  1  0  0  0  0  0999 V2000
   33.1300   30.7920   36.0890 N   0  0  0  0  0  0  0  0  0  0  0  0
   34.4760   30.8650   35.5070 C   0  0  0  0  0  0  0  0  0  0  0  0
   35.3040   31.9220   36.1380 C   0  0  0  0  0  0  0  0  0  0  0  0
   34.8520   32.1690   37.4770 N   0  0  0  0  0  0  0  0  0  0  0  0
   33.5580   32.8620   37.3240 C   0  0  0  0  0  0  0  0  0  0  0  0
   32.5820   31.7520   37.0410 C   0  0  1  0  0  0  0  0  0  0  0  0
   34.3510   31.0780   34.4360 H   0  0  0  0  0  0  0  0  0  0  0  0
   35.0060   29.8870   35.6150 H   0  0  0  0  0  0  0  0  0  0  0  0
   36.3800   31.6580   36.1030 H   0  0  0  0  0  0  0  0  0  0  0  0
   35.1900   32.8630   35.5620 H   0  0  0  0  0  0  0  0  0  0  0  0
   35.5220   32.7430   38.0170 H   0  0  0  0  0  0  0  0  0  0  0  0
   33.6630   33.5570   36.4680 H   0  0  0  0  0  0  0  0  0  0  0  0
   33.2610   33.4080   38.2200 H   0  0  0  0  0  0  0  0  0  0  0  0
   32.5060   31.1800   38.0090 H   0  0  0  0  0  0  0  0  0  0  0  0
   31.8060   28.7840   36.6360 C   0  0  0  0  0  0  0  0  0  0  0  0
   32.2780   29.7170   35.7130 C   0  0  0  0  0  0  0  0  0  0  0  0
   31.8810   29.5630   34.3760 C   0  0  0  0  0  0  0  0  0  0  0  0
   31.0550   28.5120   34.0560 N   0  0  0  0  0  0  0  0  0  0  0  0
   30.6350   27.6430   35.0040 C   0  0  0  0  0  0  0  0  0  0  0  0
   31.0030   27.7650   36.3090 N   0  0  0  0  0  0  0  0  0  0  0  0
   32.0950   28.8750   37.6760 H   0  0  0  0  0  0  0  0  0  0  0  0
   32.2170   30.2580   33.6170 H   0  0  0  0  0  0  0  0  0  0  0  0
   29.9900   26.8530   34.6480 H   0  0  0  0  0  0  0  0  0  0  0  0
   31.2260   32.2090   36.7000 C   0  0  0  0  0  0  0  0  0  0  0  0
   30.5180   31.4560   36.3570 H   0  0  0  0  0  0  0  0  0  0  0  0
   30.9500   33.3960   36.8150 O   0  0  0  0  0  0  0  0  0  0  0  0
  1  6  1  0  0  0  0
  2  8  1  0  0  0  0
  2  1  1  0  0  0  0
  2  3  1  0  0  0  0
  3  4  1  0  0  0  0
  4 11  1  0  0  0  0
  5  4  1  0  0  0  0
  5 13  1  0  0  0  0
  6  5  1  0  0  0  0
  6 14  1  1  0  0  0
  7  2  1  0  0  0  0
  9  3  1  0  0  0  0
 10  3  1  0  0  0  0
 12  5  1  0  0  0  0
 15 21  1  0  0  0  0
 16  1  1  0  0  0  0
 16 15  2  0  0  0  0
 17 16  1  0  0  0  0
 18 17  2  0  0  0  0
 18 19  1  0  0  0  0
 19 20  2  0  0  0  0
 20 15  1  0  0  0  0
 22 17  1  0  0  0  0
 23 19  1  0  0  0  0
 24 26  2  0  0  0  0
 24  6  1  0  0  0  0
 25 24  1  0  0  0  0
M  END
>  <minimizedAffinity>
-3.77825356

$$$$

 OpenBabel03272508313D

 26 27  0  0  1  0  0  0  0  0999 V2000
   38.9910   24.2620   36.1930 N   0  0  0  0  0  0  0  0  0  0  0  0
   37.9190   24.2540   37.1960 C   0  0  0  0  0  0  0  0  0  0  0  0
   38.2100   23.3340   38.3230 C   0  0  0  0  0  0  0  0  0  0  0  0
   39.6270   23.1680   38.4710 N   0  0  0  0  0  0  0  0  0  0  0  0
   40.0430   22.3550   37.3120 C   0  0  0  0  0  0  0  0  0  0  0  0
   40.1270   23.3460   36.1830 C   0  0  1  0  0  0  0  0  0  0  0  0
   37.0010   23.9370   36.6820 H   0  0  0  0  0  0  0  0  0  0  0  0
   37.7570   25.2800   37.6090 H   0  0  0  0  0  0  0  0  0  0  0  0
   37.7310   23.6850   39.2590 H   0  0  0  0  0  0  0  0  0  0  0  0
   37.7740   22.3380   38.0990 H   0  0  0  0  0  0  0  0  0  0  0  0
   39.8770   22.7050   39.3610 H   0  0  0  0  0  0  0  0  0  0  0  0
   39.2510   21.5980   37.1480 H   0  0  0  0  0  0  0  0  0  0  0  0
   41.0070   21.8670   37.4600 H   0  0  0  0  0  0  0  0  0  0  0  0
   41.0160   23.9940   36.4320 H   0  0  0  0  0  0  0  0  0  0  0  0
   37.9410   25.2120   34.1740 C   0  0  0  0  0  0  0  0  0  0  0  0
   38.9420   25.2210   35.1450 C   0  0  0  0  0  0  0  0  0  0  0  0
   39.9190   26.2250   35.0580 C   0  0  0  0  0  0  0  0  0  0  0  0
   39.8340   27.1340   34.0310 N   0  0  0  0  0  0  0  0  0  0  0  0
   38.8350   27.0650   33.1220 C   0  0  0  0  0  0  0  0  0  0  0  0
   37.8720   26.1040   33.1780 N   0  0  0  0  0  0  0  0  0  0  0  0
   37.1720   24.4500   34.2130 H   0  0  0  0  0  0  0  0  0  0  0  0
   40.7190   26.2800   35.7860 H   0  0  0  0  0  0  0  0  0  0  0  0
   38.8600   27.8250   32.3550 H   0  0  0  0  0  0  0  0  0  0  0  0
   40.3860   22.7450   34.8660 C   0  0  0  0  0  0  0  0  0  0  0  0
   41.2700   23.0840   34.3290 H   0  0  0  0  0  0  0  0  0  0  0  0
   39.6110   21.9020   34.4320 O   0  0  0  0  0  0  0  0  0  0  0  0
  1  2  1  0  0  0  0
  2  8  1  0  0  0  0
  2  3  1  0  0  0  0
  3  4  1  0  0  0  0
  3  9  1  0  0  0  0
  4 11  1  0  0  0  0
  5 13  1  0  0  0  0
  5  4  1  0  0  0  0
  6  1  1  0  0  0  0
  6 14  1  1  0  0  0
  6  5  1  0  0  0  0
  7  2  1  0  0  0  0
 10  3  1  0  0  0  0
 12  5  1  0  0  0  0
 15 21  1  0  0  0  0
 15 16  1  0  0  0  0
 16  1  1  0  0  0  0
 17 16  2  0  0  0  0
 17 22  1  0  0  0  0
 18 17  1  0  0  0  0
 19 20  1  0  0  0  0
 19 18  2  0  0  0  0
 20 15  2  0  0  0  0
 23 19  1  0  0  0  0
 24  6  1  0  0  0  0
 25 24  1  0  0  0  0
 26 24  2  0  0  0  0
M  END
>  <minimizedAffinity>
-3.67810678

$$$$

 OpenBabel03272508313D

 26 27  0  0  1  0  0  0  0  0999 V2000
   39.7350   23.7800   35.8760 N   0  0  0  0  0  0  0  0  0  0  0  0
   41.1610   23.4510   35.7560 C   0  0  0  0  0  0  0  0  0  0  0  0
   41.6170   22.5290   36.8250 C   0  0  0  0  0  0  0  0  0  0  0  0
   40.5160   21.7430   37.3010 N   0  0  0  0  0  0  0  0  0  0  0  0
   39.6730   22.6840   38.0650 C   0  0  0  0  0  0  0  0  0  0  0  0
   38.8890   23.4120   37.0070 C   0  0  1  0  0  0  0  0  0  0  0  0
   41.7140   24.3980   35.8180 H   0  0  0  0  0  0  0  0  0  0  0  0
   41.3750   22.9800   34.7650 H   0  0  0  0  0  0  0  0  0  0  0  0
   42.4580   21.8980   36.4750 H   0  0  0  0  0  0  0  0  0  0  0  0
   42.0020   23.1260   37.6770 H   0  0  0  0  0  0  0  0  0  0  0  0
   40.8240   20.9530   37.8930 H   0  0  0  0  0  0  0  0  0  0  0  0
   40.3590   23.3570   38.6160 H   0  0  0  0  0  0  0  0  0  0  0  0
   38.9980   22.1820   38.7580 H   0  0  0  0  0  0  0  0  0  0  0  0
   38.1790   22.6400   36.5910 H   0  0  0  0  0  0  0  0  0  0  0  0
   38.1310   23.9460   34.0100 C   0  0  0  0  0  0  0  0  0  0  0  0
   39.1090   24.5100   34.8280 C   0  0  0  0  0  0  0  0  0  0  0  0
   39.4650   25.8460   34.5860 C   0  0  0  0  0  0  0  0  0  0  0  0
   38.8350   26.5160   33.5660 N   0  0  0  0  0  0  0  0  0  0  0  0
   37.8930   25.9060   32.8090 C   0  0  0  0  0  0  0  0  0  0  0  0
   37.5260   24.6120   33.0190 N   0  0  0  0  0  0  0  0  0  0  0  0
   37.8330   22.9170   34.1710 H   0  0  0  0  0  0  0  0  0  0  0  0
   40.2190   26.3340   35.1910 H   0  0  0  0  0  0  0  0  0  0  0  0
   37.4600   26.5200   32.0340 H   0  0  0  0  0  0  0  0  0  0  0  0
   38.0700   24.5230   37.5140 C   0  0  0  0  0  0  0  0  0  0  0  0
   37.5890   25.1640   36.7770 H   0  0  0  0  0  0  0  0  0  0  0  0
   37.9620   24.6800   38.7240 O   0  0  0  0  0  0  0  0  0  0  0  0
  1  6  1  0  0  0  0
  2  7  1  0  0  0  0
  2  1  1  0  0  0  0
  2  3  1  0  0  0  0
  3  4  1  0  0  0  0
  3 10  1  0  0  0  0
  4 11  1  0  0  0  0
  4  5  1  0  0  0  0
  5 12  1  0  0  0  0
  5 13  1  0  0  0  0
  6 14  1  6  0  0  0
  6 24  1  0  0  0  0
  6  5  1  0  0  0  0
  8  2  1  0  0  0  0
  9  3  1  0  0  0  0
 15 21  1  0  0  0  0
 15 16  1  0  0  0  0
 16  1  1  0  0  0  0
 17 16  2  0  0  0  0
 17 22  1  0  0  0  0
 18 17  1  0  0  0  0
 19 20  1  0  0  0  0
 19 18  2  0  0  0  0
 20 15  2  0  0  0  0
 23 19  1  0  0  0  0
 24 26  2  0  0  0  0
 25 24  1  0  0  0  0
M  END
>  <minimizedAffinity>
-3.66432142

$$$$

 OpenBabel03272508313D

 26 27  0  0  1  0  0  0  0  0999 V2000
   39.5780   24.4330   35.6230 N   0  0  0  0  0  0  0  0  0  0  0  0
   40.9960   24.5010   35.2480 C   0  0  0  0  0  0  0  0  0  0  0  0
   41.7210   23.2450   35.5610 C   0  0  0  0  0  0  0  0  0  0  0  0
   40.8090   22.1380   35.5640 N   0  0  0  0  0  0  0  0  0  0  0  0
   39.9930   22.3150   36.7800 C   0  0  0  0  0  0  0  0  0  0  0  0
   38.9700   23.3470   36.3850 C   0  0  1  0  0  0  0  0  0  0  0  0
   41.4360   25.3370   35.8110 H   0  0  0  0  0  0  0  0  0  0  0  0
   41.1050   24.7120   34.1560 H   0  0  0  0  0  0  0  0  0  0  0  0
   42.5650   23.0880   34.8610 H   0  0  0  0  0  0  0  0  0  0  0  0
   42.1620   23.3250   36.5760 H   0  0  0  0  0  0  0  0  0  0  0  0
   41.2990   21.2270   35.5730 H   0  0  0  0  0  0  0  0  0  0  0  0
   40.6720   22.6810   37.5750 H   0  0  0  0  0  0  0  0  0  0  0  0
   39.4990   21.3970   37.0980 H   0  0  0  0  0  0  0  0  0  0  0  0
   38.3010   22.8210   35.6450 H   0  0  0  0  0  0  0  0  0  0  0  0
   38.6940   26.7210   35.8830 C   0  0  0  0  0  0  0  0  0  0  0  0
   38.7130   25.4900   35.2280 C   0  0  0  0  0  0  0  0  0  0  0  0
   37.8360   25.3200   34.1440 C   0  0  0  0  0  0  0  0  0  0  0  0
   37.0190   26.3660   33.7940 N   0  0  0  0  0  0  0  0  0  0  0  0
   37.0530   27.5350   34.4750 C   0  0  0  0  0  0  0  0  0  0  0  0
   37.8910   27.7320   35.5300 N   0  0  0  0  0  0  0  0  0  0  0  0
   39.3580   26.8840   36.7230 H   0  0  0  0  0  0  0  0  0  0  0  0
   37.8090   24.3850   33.5990 H   0  0  0  0  0  0  0  0  0  0  0  0
   36.3700   28.2930   34.1200 H   0  0  0  0  0  0  0  0  0  0  0  0
   38.1160   23.8090   37.4890 C   0  0  0  0  0  0  0  0  0  0  0  0
   37.1210   24.1700   37.2320 H   0  0  0  0  0  0  0  0  0  0  0  0
   38.5480   23.7710   38.6340 O   0  0  0  0  0  0  0  0  0  0  0  0
  1  6  1  0  0  0  0
  2  3  1  0  0  0  0
  2  1  1  0  0  0  0
  2  7  1  0  0  0  0
  3  4  1  0  0  0  0
  3 10  1  0  0  0  0
  4 11  1  0  0  0  0
  4  5  1  0  0  0  0
  5 13  1  0  0  0  0
  5 12  1  0  0  0  0
  6 14  1  6  0  0  0
  6  5  1  0  0  0  0
  6 24  1  0  0  0  0
  8  2  1  0  0  0  0
  9  3  1  0  0  0  0
 15 21  1  0  0  0  0
 16  1  1  0  0  0  0
 16 15  2  0  0  0  0
 17 16  1  0  0  0  0
 18 17  2  0  0  0  0
 18 19  1  0  0  0  0
 19 20  2  0  0  0  0
 20 15  1  0  0  0  0
 22 17  1  0  0  0  0
 23 19  1  0  0  0  0
 24 26  2  0  0  0  0
 25 24  1  0  0  0  0
M  END
>  <minimizedAffinity>
-3.62695599

$$$$

 OpenBabel03272508313D

 26 27  0  0  1  0  0  0  0  0999 V2000
   37.8650   26.1860   33.9810 N   0  0  0  0  0  0  0  0  0  0  0  0
   37.4610   25.7530   35.3250 C   0  0  0  0  0  0  0  0  0  0  0  0
   38.3640   26.2770   36.3790 C   0  0  0  0  0  0  0  0  0  0  0  0
   38.9840   27.4930   35.9380 N   0  0  0  0  0  0  0  0  0  0  0  0
   39.9510   27.0780   34.9030 C   0  0  0  0  0  0  0  0  0  0  0  0
   39.1070   26.8880   33.6720 C   0  0  1  0  0  0  0  0  0  0  0  0
   37.4820   24.6550   35.3270 H   0  0  0  0  0  0  0  0  0  0  0  0
   36.4190   26.0890   35.5510 H   0  0  0  0  0  0  0  0  0  0  0  0
   37.8230   26.4090   37.3380 H   0  0  0  0  0  0  0  0  0  0  0  0
   39.1680   25.5350   36.5690 H   0  0  0  0  0  0  0  0  0  0  0  0
   39.4550   27.9950   36.7100 H   0  0  0  0  0  0  0  0  0  0  0  0
   40.4080   26.1310   35.2490 H   0  0  0  0  0  0  0  0  0  0  0  0
   40.7230   27.8260   34.7200 H   0  0  0  0  0  0  0  0  0  0  0  0
   38.7800   27.9270   33.3810 H   0  0  0  0  0  0  0  0  0  0  0  0
   36.7600   24.6160   32.4330 C   0  0  0  0  0  0  0  0  0  0  0  0
   37.0020   25.9130   32.8850 C   0  0  0  0  0  0  0  0  0  0  0  0
   36.3570   26.9630   32.2130 C   0  0  0  0  0  0  0  0  0  0  0  0
   35.5300   26.6560   31.1600 N   0  0  0  0  0  0  0  0  0  0  0  0
   35.3400   25.3730   30.7750 C   0  0  0  0  0  0  0  0  0  0  0  0
   35.9510   24.3320   31.4050 N   0  0  0  0  0  0  0  0  0  0  0  0
   37.2430   23.7830   32.9300 H   0  0  0  0  0  0  0  0  0  0  0  0
   36.5080   27.9900   32.5220 H   0  0  0  0  0  0  0  0  0  0  0  0
   34.6730   25.2400   29.9370 H   0  0  0  0  0  0  0  0  0  0  0  0
   39.8300   26.3250   32.5210 C   0  0  0  0  0  0  0  0  0  0  0  0
   40.0920   25.2690   32.5670 H   0  0  0  0  0  0  0  0  0  0  0  0
   40.1030   27.0510   31.5740 O   0  0  0  0  0  0  0  0  0  0  0  0
  1  2  1  0  0  0  0
  2  7  1  0  0  0  0
  2  8  1  0  0  0  0
  2  3  1  0  0  0  0
  3 10  1  0  0  0  0
  3  9  1  0  0  0  0
  4  3  1  0  0  0  0
  4 11  1  0  0  0  0
  5 12  1  0  0  0  0
  5  4  1  0  0  0  0
  6 14  1  6  0  0  0
  6  1  1  0  0  0  0
  6  5  1  0  0  0  0
 13  5  1  0  0  0  0
 15 16  1  0  0  0  0
 15 21  1  0  0  0  0
 16  1  1  0  0  0  0
 17 22  1  0  0  0  0
 17 16  2  0  0  0  0
 18 17  1  0  0  0  0
 19 18  2  0  0  0  0
 19 20  1  0  0  0  0
 20 15  2  0  0  0  0
 23 19  1  0  0  0  0
 24 25  1  0  0  0  0
 24  6  1  0  0  0  0
 26 24  2  0  0  0  0
M  END
>  <minimizedAffinity>
-3.5451827

$$$$

 OpenBabel03272508313D

 26 27  0  0  1  0  0  0  0  0999 V2000
   36.3560   23.4290   31.5720 N   0  0  0  0  0  0  0  0  0  0  0  0
   35.2740   24.3410   31.1800 C   0  0  0  0  0  0  0  0  0  0  0  0
   35.7420   25.7410   31.0390 C   0  0  0  0  0  0  0  0  0  0  0  0
   37.1400   25.7640   30.7220 N   0  0  0  0  0  0  0  0  0  0  0  0
   37.8230   25.3500   31.9630 C   0  0  0  0  0  0  0  0  0  0  0  0
   37.6970   23.8510   31.9650 C   0  0  1  0  0  0  0  0  0  0  0  0
   34.5060   24.2810   31.9640 H   0  0  0  0  0  0  0  0  0  0  0  0
   34.8180   24.0190   30.2120 H   0  0  0  0  0  0  0  0  0  0  0  0
   35.1360   26.2910   30.2910 H   0  0  0  0  0  0  0  0  0  0  0  0
   35.6050   26.2680   32.0060 H   0  0  0  0  0  0  0  0  0  0  0  0
   37.4580   26.6990   30.4150 H   0  0  0  0  0  0  0  0  0  0  0  0
   37.2760   25.8190   32.8040 H   0  0  0  0  0  0  0  0  0  0  0  0
   38.8740   25.6410   31.9860 H   0  0  0  0  0  0  0  0  0  0  0  0
   38.3620   23.5030   31.1240 H   0  0  0  0  0  0  0  0  0  0  0  0
   36.8320   21.1410   30.7840 C   0  0  0  0  0  0  0  0  0  0  0  0
   36.1060   22.0300   31.5760 C   0  0  0  0  0  0  0  0  0  0  0  0
   35.1010   21.4930   32.3960 C   0  0  0  0  0  0  0  0  0  0  0  0
   34.8930   20.1360   32.3730 N   0  0  0  0  0  0  0  0  0  0  0  0
   35.6360   19.3310   31.5780 C   0  0  0  0  0  0  0  0  0  0  0  0
   36.6180   19.8200   30.7720 N   0  0  0  0  0  0  0  0  0  0  0  0
   37.6150   21.5240   30.1400 H   0  0  0  0  0  0  0  0  0  0  0  0
   34.5060   22.1370   33.0320 H   0  0  0  0  0  0  0  0  0  0  0  0
   35.3920   18.2800   31.6330 H   0  0  0  0  0  0  0  0  0  0  0  0
   38.1800   23.2030   33.1940 C   0  0  0  0  0  0  0  0  0  0  0  0
   38.6940   22.2490   33.0850 H   0  0  0  0  0  0  0  0  0  0  0  0
   37.9880   23.7510   34.2720 O   0  0  0  0  0  0  0  0  0  0  0  0
  1 16  1  0  0  0  0
  1  6  1  0  0  0  0
  2  1  1  0  0  0  0
  2  7  1  0  0  0  0
  3  2  1  0  0  0  0
  3 10  1  0  0  0  0
  4  3  1  0  0  0  0
  4  5  1  0  0  0  0
  5  6  1  0  0  0  0
  5 13  1  0  0  0  0
  5 12  1  0  0  0  0
  6 14  1  6  0  0  0
  6 24  1  0  0  0  0
  8  2  1  0  0  0  0
  9  3  1  0  0  0  0
 11  4  1  0  0  0  0
 15 16  1  0  0  0  0
 16 17  2  0  0  0  0
 17 22  1  0  0  0  0
 18 17  1  0  0  0  0
 19 23  1  0  0  0  0
 19 18  2  0  0  0  0
 20 15  2  0  0  0  0
 20 19  1  0  0  0  0
 21 15  1  0  0  0  0
 24 26  2  0  0  0  0
 25 24  1  0  0  0  0
M  END
>  <minimizedAffinity>
-3.45789194

$$$$

 OpenBabel03272508313D

 26 27  0  0  1  0  0  0  0  0999 V2000
   38.9110   24.1400   34.5000 N   0  0  0  0  0  0  0  0  0  0  0  0
   39.9000   25.1040   34.0030 C   0  0  0  0  0  0  0  0  0  0  0  0
   39.7130   25.4100   32.5630 C   0  0  0  0  0  0  0  0  0  0  0  0
   38.3440   25.2020   32.1890 N   0  0  0  0  0  0  0  0  0  0  0  0
   38.1600   23.7380   32.2050 C   0  0  0  0  0  0  0  0  0  0  0  0
   37.9660   23.4110   33.6610 C   0  0  1  0  0  0  0  0  0  0  0  0
   40.8920   24.6580   34.1650 H   0  0  0  0  0  0  0  0  0  0  0  0
   39.8440   26.0600   34.5790 H   0  0  0  0  0  0  0  0  0  0  0  0
   40.0590   26.4360   32.3250 H   0  0  0  0  0  0  0  0  0  0  0  0
   40.3390   24.7180   31.9620 H   0  0  0  0  0  0  0  0  0  0  0  0
   38.1280   25.5950   31.2580 H   0  0  0  0  0  0  0  0  0  0  0  0
   39.0860   23.2910   31.7940 H   0  0  0  0  0  0  0  0  0  0  0  0
   37.2940   23.4130   31.6260 H   0  0  0  0  0  0  0  0  0  0  0  0
   36.9590   23.8460   33.9240 H   0  0  0  0  0  0  0  0  0  0  0  0
   39.8170   23.1230   36.5570 C   0  0  0  0  0  0  0  0  0  0  0  0
   38.8490   23.8800   35.8970 C   0  0  0  0  0  0  0  0  0  0  0  0
   37.7900   24.3900   36.6650 C   0  0  0  0  0  0  0  0  0  0  0  0
   37.7690   24.1180   38.0110 N   0  0  0  0  0  0  0  0  0  0  0  0
   38.7420   23.3740   38.5870 C   0  0  0  0  0  0  0  0  0  0  0  0
   39.7820   22.8660   37.8700 N   0  0  0  0  0  0  0  0  0  0  0  0
   40.6470   22.7160   35.9920 H   0  0  0  0  0  0  0  0  0  0  0  0
   37.0110   24.9850   36.2050 H   0  0  0  0  0  0  0  0  0  0  0  0
   38.6320   23.2180   39.6500 H   0  0  0  0  0  0  0  0  0  0  0  0
   37.9060   21.9710   33.9570 C   0  0  0  0  0  0  0  0  0  0  0  0
   38.8400   21.4140   33.9080 H   0  0  0  0  0  0  0  0  0  0  0  0
   36.8290   21.4650   34.2430 O   0  0  0  0  0  0  0  0  0  0  0  0
  1 16  1  0  0  0  0
  2  7  1  0  0  0  0
  2  1  1  0  0  0  0
  2  8  1  0  0  0  0
  3  2  1  0  0  0  0
  4  5  1  0  0  0  0
  4  3  1  0  0  0  0
  5  6  1  0  0  0  0
  6 14  1  1  0  0  0
  6 24  1  0  0  0  0
  6  1  1  0  0  0  0
  9  3  1  0  0  0  0
 10  3  1  0  0  0  0
 11  4  1  0  0  0  0
 12  5  1  0  0  0  0
 13  5  1  0  0  0  0
 15 20  1  0  0  0  0
 16 15  2  0  0  0  0
 16 17  1  0  0  0  0
 17 18  2  0  0  0  0
 18 19  1  0  0  0  0
 19 23  1  0  0  0  0
 20 19  2  0  0  0  0
 21 15  1  0  0  0  0
 22 17  1  0  0  0  0
 24 26  2  0  0  0  0
 25 24  1  0  0  0  0
M  END
>  <minimizedAffinity>
-3.43977857

$$$$

 OpenBabel03272508313D

 26 27  0  0  1  0  0  0  0  0999 V2000
   37.8790   26.0190   33.9770 N   0  0  0  0  0  0  0  0  0  0  0  0
   37.1910   27.3140   34.0260 C   0  0  0  0  0  0  0  0  0  0  0  0
   37.3980   28.0130   35.3180 C   0  0  0  0  0  0  0  0  0  0  0  0
   38.6320   27.5900   35.9140 N   0  0  0  0  0  0  0  0  0  0  0  0
   38.3870   26.2060   36.3650 C   0  0  0  0  0  0  0  0  0  0  0  0
   38.5390   25.3840   35.1130 C   0  0  1  0  0  0  0  0  0  0  0  0
   36.1200   27.1140   33.8770 H   0  0  0  0  0  0  0  0  0  0  0  0
   37.5440   27.9810   33.2010 H   0  0  0  0  0  0  0  0  0  0  0  0
   37.3530   29.1130   35.1890 H   0  0  0  0  0  0  0  0  0  0  0  0
   36.5760   27.7420   36.0120 H   0  0  0  0  0  0  0  0  0  0  0  0
   38.9140   28.1950   36.7040 H   0  0  0  0  0  0  0  0  0  0  0  0
   37.3550   26.1740   36.7650 H   0  0  0  0  0  0  0  0  0  0  0  0
   39.0970   25.8740   37.1230 H   0  0  0  0  0  0  0  0  0  0  0  0
   39.6380   25.4320   34.8670 H   0  0  0  0  0  0  0  0  0  0  0  0
   36.7700   24.8260   32.1250 C   0  0  0  0  0  0  0  0  0  0  0  0
   37.9220   25.3110   32.7440 C   0  0  0  0  0  0  0  0  0  0  0  0
   39.1490   25.0780   32.1030 C   0  0  0  0  0  0  0  0  0  0  0  0
   39.1460   24.3930   30.9130 N   0  0  0  0  0  0  0  0  0  0  0  0
   37.9890   23.9490   30.3680 C   0  0  0  0  0  0  0  0  0  0  0  0
   36.7830   24.1580   30.9640 N   0  0  0  0  0  0  0  0  0  0  0  0
   35.8070   24.9890   32.5930 H   0  0  0  0  0  0  0  0  0  0  0  0
   40.0740   25.4340   32.5390 H   0  0  0  0  0  0  0  0  0  0  0  0
   38.0960   23.4210   29.4320 H   0  0  0  0  0  0  0  0  0  0  0  0
   38.1930   23.9630   35.2750 C   0  0  0  0  0  0  0  0  0  0  0  0
   38.3380   23.3140   34.4120 H   0  0  0  0  0  0  0  0  0  0  0  0
   37.7630   23.5720   36.3520 O   0  0  0  0  0  0  0  0  0  0  0  0
  1  2  1  0  0  0  0
  1  6  1  0  0  0  0
  2  3  1  0  0  0  0
  3  4  1  0  0  0  0
  3 10  1  0  0  0  0
  4  5  1  0  0  0  0
  4 11  1  0  0  0  0
  5 12  1  0  0  0  0
  5 13  1  0  0  0  0
  6 14  1  6  0  0  0
  6 24  1  0  0  0  0
  6  5  1  0  0  0  0
  7  2  1  0  0  0  0
  8  2  1  0  0  0  0
  9  3  1  0  0  0  0
 15 21  1  0  0  0  0
 15 16  1  0  0  0  0
 16  1  1  0  0  0  0
 17 22  1  0  0  0  0
 17 16  2  0  0  0  0
 18 17  1  0  0  0  0
 19 18  2  0  0  0  0
 19 20  1  0  0  0  0
 20 15  2  0  0  0  0
 23 19  1  0  0  0  0
 24 26  2  0  0  0  0
 25 24  1  0  0  0  0
M  END
>  <minimizedAffinity>
-3.42151952

$$$$
