
 OpenBabel03272507203D

 24 25  0  0  1  0  0  0  0  0999 V2000
   39.9880   24.6370   35.2330 C   0  0  1  0  0  0  0  0  0  0  0  0
   39.7500   23.5710   36.2020 C   0  0  2  0  0  0  0  0  0  0  0  0
   39.7060   23.1990   34.7530 C   0  0  0  0  0  0  0  0  0  0  0  0
   40.9900   25.0310   34.9670 H   0  0  0  0  0  0  0  0  0  0  0  0
   40.6420   23.3640   36.8510 H   0  0  0  0  0  0  0  0  0  0  0  0
   38.7390   22.9820   34.2690 H   0  0  0  0  0  0  0  0  0  0  0  0
   40.6110   22.6740   34.4020 H   0  0  0  0  0  0  0  0  0  0  0  0
   38.9010   25.5880   34.8230 C   0  0  0  0  0  0  0  0  0  0  0  0
   38.7020   26.6730   35.6660 C   0  0  0  0  0  0  0  0  0  0  0  0
   37.6650   27.5330   35.2610 C   0  0  0  0  0  0  0  0  0  0  0  0
   36.9370   27.2820   34.1230 N   0  0  0  0  0  0  0  0  0  0  0  0
   37.1790   26.2040   33.3390 C   0  0  0  0  0  0  0  0  0  0  0  0
   38.1780   25.3450   33.7000 N   0  0  0  0  0  0  0  0  0  0  0  0
   39.2820   26.8420   36.5450 H   0  0  0  0  0  0  0  0  0  0  0  0
   37.4560   28.3900   35.8640 H   0  0  0  0  0  0  0  0  0  0  0  0
   36.4210   25.9270   32.1390 C   0  0  0  0  0  0  0  0  0  0  0  0
   36.3610   24.9550   31.7120 H   0  0  0  0  0  0  0  0  0  0  0  0
   35.7870   26.8580   31.5340 O   0  0  0  0  0  0  0  0  0  0  0  0
   38.5640   23.6190   36.9250 O   0  0  0  0  0  0  0  0  0  0  0  0
   38.3690   23.7870   38.2540 C   0  0  0  0  0  0  0  0  0  0  0  0
   37.9440   24.8540   38.7420 O   0  0  0  0  0  0  0  0  0  0  0  0
   38.7240   22.6010   38.9020 N   0  0  0  0  0  0  0  0  0  0  0  0
   39.6570   22.1510   38.9640 H   0  0  0  0  0  0  0  0  0  0  0  0
   37.9060   22.1400   39.3730 H   0  0  0  0  0  0  0  0  0  0  0  0
  1  4  1  6  0  0  0
  1  2  1  0  0  0  0
  2  5  1  1  0  0  0
  2 19  1  0  0  0  0
  3  1  1  0  0  0  0
  3  2  1  0  0  0  0
  6  3  1  0  0  0  0
  7  3  1  0  0  0  0
  8  1  1  0  0  0  0
  8  9  1  0  0  0  0
  9 14  1  0  0  0  0
 10  9  2  0  0  0  0
 10 15  1  0  0  0  0
 11 10  1  0  0  0  0
 12 13  1  0  0  0  0
 12 11  2  0  0  0  0
 13  8  2  0  0  0  0
 16 12  1  0  0  0  0
 17 16  1  0  0  0  0
 18 16  2  0  0  0  0
 19 20  1  0  0  0  0
 20 21  2  0  0  0  0
 20 22  1  0  0  0  0
 22 23  1  0  0  0  0
 22 24  1  0  0  0  0
M  END
>  <minimizedAffinity>
-4.17967796

$$$$

 OpenBabel03272507203D

 24 25  0  0  1  0  0  0  0  0999 V2000
   38.0890   26.8800   33.8280 C   0  0  1  0  0  0  0  0  0  0  0  0
   37.0680   27.2450   32.8480 C   0  0  2  0  0  0  0  0  0  0  0  0
   36.8580   27.7060   34.2570 C   0  0  0  0  0  0  0  0  0  0  0  0
   39.0630   27.3980   33.9420 H   0  0  0  0  0  0  0  0  0  0  0  0
   37.4580   27.9220   32.0440 H   0  0  0  0  0  0  0  0  0  0  0  0
   36.0900   27.2240   34.8850 H   0  0  0  0  0  0  0  0  0  0  0  0
   37.0870   28.7740   34.4120 H   0  0  0  0  0  0  0  0  0  0  0  0
   38.1100   25.5270   34.4790 C   0  0  0  0  0  0  0  0  0  0  0  0
   38.2780   24.4500   33.6190 C   0  0  0  0  0  0  0  0  0  0  0  0
   38.2760   23.1980   34.2610 C   0  0  0  0  0  0  0  0  0  0  0  0
   38.1180   23.0970   35.6210 N   0  0  0  0  0  0  0  0  0  0  0  0
   37.9580   24.1870   36.4090 C   0  0  0  0  0  0  0  0  0  0  0  0
   37.9540   25.4210   35.8230 N   0  0  0  0  0  0  0  0  0  0  0  0
   38.3970   24.5590   32.5650 H   0  0  0  0  0  0  0  0  0  0  0  0
   38.4010   22.3230   33.6590 H   0  0  0  0  0  0  0  0  0  0  0  0
   37.7900   24.0960   37.8420 C   0  0  0  0  0  0  0  0  0  0  0  0
   36.9190   24.4490   38.3400 H   0  0  0  0  0  0  0  0  0  0  0  0
   38.7000   23.5800   38.5780 O   0  0  0  0  0  0  0  0  0  0  0  0
   36.2740   26.2220   32.3450 O   0  0  0  0  0  0  0  0  0  0  0  0
   35.7290   26.0770   31.1140 C   0  0  0  0  0  0  0  0  0  0  0  0
   34.9640   25.1350   30.8240 O   0  0  0  0  0  0  0  0  0  0  0  0
   36.1790   27.1270   30.3100 N   0  0  0  0  0  0  0  0  0  0  0  0
   37.1480   27.3360   29.9990 H   0  0  0  0  0  0  0  0  0  0  0  0
   35.4010   27.7630   30.0050 H   0  0  0  0  0  0  0  0  0  0  0  0
  1  4  1  6  0  0  0
  1  3  1  0  0  0  0
  1  8  1  0  0  0  0
  2  5  1  6  0  0  0
  2  1  1  0  0  0  0
  2  3  1  0  0  0  0
  3  7  1  0  0  0  0
  3  6  1  0  0  0  0
  8 13  1  0  0  0  0
  9 10  1  0  0  0  0
  9  8  2  0  0  0  0
 10 11  2  0  0  0  0
 11 12  1  0  0  0  0
 12 16  1  0  0  0  0
 13 12  2  0  0  0  0
 14  9  1  0  0  0  0
 15 10  1  0  0  0  0
 16 17  1  0  0  0  0
 16 18  2  0  0  0  0
 19  2  1  0  0  0  0
 20 19  1  0  0  0  0
 21 20  2  0  0  0  0
 22 20  1  0  0  0  0
 23 22  1  0  0  0  0
 24 22  1  0  0  0  0
M  END
>  <minimizedAffinity>
-4.11617613

$$$$

 OpenBabel03272507203D

 24 25  0  0  1  0  0  0  0  0999 V2000
   38.0780   23.9510   34.3740 C   0  0  1  0  0  0  0  0  0  0  0  0
   38.3350   25.2570   33.7720 C   0  0  2  0  0  0  0  0  0  0  0  0
   39.2930   24.1530   33.4450 C   0  0  0  0  0  0  0  0  0  0  0  0
   37.3220   23.2280   34.0050 H   0  0  0  0  0  0  0  0  0  0  0  0
   37.5240   25.5790   33.0680 H   0  0  0  0  0  0  0  0  0  0  0  0
   40.3040   24.1520   33.8860 H   0  0  0  0  0  0  0  0  0  0  0  0
   39.1460   23.7220   32.4400 H   0  0  0  0  0  0  0  0  0  0  0  0
   38.4960   23.6350   35.7810 C   0  0  0  0  0  0  0  0  0  0  0  0
   37.6800   24.1490   36.7800 C   0  0  0  0  0  0  0  0  0  0  0  0
   38.1110   23.8480   38.0850 C   0  0  0  0  0  0  0  0  0  0  0  0
   39.2460   23.1070   38.3050 N   0  0  0  0  0  0  0  0  0  0  0  0
   40.0030   22.6320   37.2870 C   0  0  0  0  0  0  0  0  0  0  0  0
   39.6170   22.9030   36.0050 N   0  0  0  0  0  0  0  0  0  0  0  0
   36.8040   24.7230   36.5780 H   0  0  0  0  0  0  0  0  0  0  0  0
   37.5290   24.2130   38.9040 H   0  0  0  0  0  0  0  0  0  0  0  0
   41.2000   21.8500   37.5040 C   0  0  0  0  0  0  0  0  0  0  0  0
   41.6910   21.8050   38.4470 H   0  0  0  0  0  0  0  0  0  0  0  0
   41.7250   21.1750   36.5530 O   0  0  0  0  0  0  0  0  0  0  0  0
   38.7450   26.2790   34.6190 O   0  0  0  0  0  0  0  0  0  0  0  0
   38.0350   27.3110   35.1340 C   0  0  0  0  0  0  0  0  0  0  0  0
   37.0340   27.7890   34.5620 O   0  0  0  0  0  0  0  0  0  0  0  0
   38.6250   27.6890   36.3420 N   0  0  0  0  0  0  0  0  0  0  0  0
   39.5700   28.0880   36.5050 H   0  0  0  0  0  0  0  0  0  0  0  0
   37.9930   27.5290   37.1660 H   0  0  0  0  0  0  0  0  0  0  0  0
  1  4  1  6  0  0  0
  1  8  1  0  0  0  0
  2  5  1  6  0  0  0
  2  1  1  0  0  0  0
  2 19  1  0  0  0  0
  3  2  1  0  0  0  0
  3  6  1  0  0  0  0
  3  1  1  0  0  0  0
  7  3  1  0  0  0  0
  8 13  2  0  0  0  0
  8  9  1  0  0  0  0
  9 10  2  0  0  0  0
 10 11  1  0  0  0  0
 10 15  1  0  0  0  0
 12 16  1  0  0  0  0
 12 11  2  0  0  0  0
 13 12  1  0  0  0  0
 14  9  1  0  0  0  0
 16 17  1  0  0  0  0
 18 16  2  0  0  0  0
 19 20  1  0  0  0  0
 20 22  1  0  0  0  0
 21 20  2  0  0  0  0
 22 23  1  0  0  0  0
 22 24  1  0  0  0  0
M  END
>  <minimizedAffinity>
-4.11002111

$$$$

 OpenBabel03272507203D

 24 25  0  0  1  0  0  0  0  0999 V2000
   37.7440   23.3290   37.4280 C   0  0  1  0  0  0  0  0  0  0  0  0
   38.9270   23.0720   38.2460 C   0  0  2  0  0  0  0  0  0  0  0  0
   38.0910   24.2600   38.6080 C   0  0  0  0  0  0  0  0  0  0  0  0
   36.7820   22.7850   37.5280 H   0  0  0  0  0  0  0  0  0  0  0  0
   38.8690   22.1010   38.8040 H   0  0  0  0  0  0  0  0  0  0  0  0
   38.4560   25.2780   38.3900 H   0  0  0  0  0  0  0  0  0  0  0  0
   37.4490   24.0980   39.4910 H   0  0  0  0  0  0  0  0  0  0  0  0
   37.8360   24.0390   36.1090 C   0  0  0  0  0  0  0  0  0  0  0  0
   38.1090   23.2330   35.0110 C   0  0  0  0  0  0  0  0  0  0  0  0
   38.2050   23.9340   33.7940 C   0  0  0  0  0  0  0  0  0  0  0  0
   38.0370   25.2960   33.7430 N   0  0  0  0  0  0  0  0  0  0  0  0
   37.7720   26.0290   34.8510 C   0  0  0  0  0  0  0  0  0  0  0  0
   37.6710   25.3850   36.0520 N   0  0  0  0  0  0  0  0  0  0  0  0
   38.2360   22.1770   35.0810 H   0  0  0  0  0  0  0  0  0  0  0  0
   38.4140   23.3760   32.9070 H   0  0  0  0  0  0  0  0  0  0  0  0
   37.5920   27.4640   34.8130 C   0  0  0  0  0  0  0  0  0  0  0  0
   38.3880   28.1450   34.9990 H   0  0  0  0  0  0  0  0  0  0  0  0
   36.4500   27.9750   34.5510 O   0  0  0  0  0  0  0  0  0  0  0  0
   40.1670   23.2730   37.6530 O   0  0  0  0  0  0  0  0  0  0  0  0
   40.9990   22.3800   37.0660 C   0  0  0  0  0  0  0  0  0  0  0  0
   41.5680   22.6050   35.9780 O   0  0  0  0  0  0  0  0  0  0  0  0
   41.0670   21.2460   37.8790 N   0  0  0  0  0  0  0  0  0  0  0  0
   40.3110   20.5770   38.1240 H   0  0  0  0  0  0  0  0  0  0  0  0
   42.0290   21.0900   38.2710 H   0  0  0  0  0  0  0  0  0  0  0  0
  1  4  1  1  0  0  0
  1  2  1  0  0  0  0
  1  3  1  0  0  0  0
  2  3  1  0  0  0  0
  2  5  1  1  0  0  0
  3  7  1  0  0  0  0
  6  3  1  0  0  0  0
  8  1  1  0  0  0  0
  9 14  1  0  0  0  0
  9  8  2  0  0  0  0
 10  9  1  0  0  0  0
 11 10  2  0  0  0  0
 11 12  1  0  0  0  0
 12 13  2  0  0  0  0
 13  8  1  0  0  0  0
 15 10  1  0  0  0  0
 16 12  1  0  0  0  0
 16 17  1  0  0  0  0
 18 16  2  0  0  0  0
 19  2  1  0  0  0  0
 20 19  1  0  0  0  0
 20 22  1  0  0  0  0
 21 20  2  0  0  0  0
 22 23  1  0  0  0  0
 22 24  1  0  0  0  0
M  END
>  <minimizedAffinity>
-4.04665232

$$$$

 OpenBabel03272507203D

 24 25  0  0  1  0  0  0  0  0999 V2000
   38.9630   25.3100   34.9750 C   0  0  1  0  0  0  0  0  0  0  0  0
   37.9600   25.2710   36.0360 C   0  0  2  0  0  0  0  0  0  0  0  0
   38.6040   26.5930   35.7520 C   0  0  0  0  0  0  0  0  0  0  0  0
   38.7290   25.3380   33.8910 H   0  0  0  0  0  0  0  0  0  0  0  0
   36.9370   25.0060   35.6600 H   0  0  0  0  0  0  0  0  0  0  0  0
   39.3420   27.0090   36.4580 H   0  0  0  0  0  0  0  0  0  0  0  0
   37.9640   27.2830   35.1760 H   0  0  0  0  0  0  0  0  0  0  0  0
   40.3830   24.8880   35.2170 C   0  0  0  0  0  0  0  0  0  0  0  0
   41.3570   25.7680   34.7640 C   0  0  0  0  0  0  0  0  0  0  0  0
   42.6760   25.3330   34.9920 C   0  0  0  0  0  0  0  0  0  0  0  0
   42.9310   24.1340   35.6120 N   0  0  0  0  0  0  0  0  0  0  0  0
   41.9360   23.3170   36.0320 C   0  0  0  0  0  0  0  0  0  0  0  0
   40.6420   23.7050   35.8290 N   0  0  0  0  0  0  0  0  0  0  0  0
   41.1290   26.6930   34.2840 H   0  0  0  0  0  0  0  0  0  0  0  0
   43.4770   25.9620   34.6680 H   0  0  0  0  0  0  0  0  0  0  0  0
   42.1900   22.0520   36.6860 C   0  0  0  0  0  0  0  0  0  0  0  0
   43.0940   21.5080   36.5490 H   0  0  0  0  0  0  0  0  0  0  0  0
   41.3210   21.5300   37.4660 O   0  0  0  0  0  0  0  0  0  0  0  0
   38.2920   24.5930   37.2030 O   0  0  0  0  0  0  0  0  0  0  0  0
   37.9610   23.3410   37.5980 C   0  0  0  0  0  0  0  0  0  0  0  0
   36.9610   22.7400   37.1560 O   0  0  0  0  0  0  0  0  0  0  0  0
   38.9070   22.9130   38.5320 N   0  0  0  0  0  0  0  0  0  0  0  0
   39.1070   23.2970   39.4750 H   0  0  0  0  0  0  0  0  0  0  0  0
   39.4670   22.0920   38.1900 H   0  0  0  0  0  0  0  0  0  0  0  0
  1  4  1  6  0  0  0
  1  8  1  0  0  0  0
  1  3  1  0  0  0  0
  1  2  1  0  0  0  0
  2  5  1  6  0  0  0
  2 19  1  0  0  0  0
  3  2  1  0  0  0  0
  3  6  1  0  0  0  0
  7  3  1  0  0  0  0
  8 13  1  0  0  0  0
  9 10  1  0  0  0  0
  9  8  2  0  0  0  0
 10 11  2  0  0  0  0
 11 12  1  0  0  0  0
 12 16  1  0  0  0  0
 13 12  2  0  0  0  0
 14  9  1  0  0  0  0
 15 10  1  0  0  0  0
 16 18  2  0  0  0  0
 17 16  1  0  0  0  0
 19 20  1  0  0  0  0
 20 22  1  0  0  0  0
 21 20  2  0  0  0  0
 22 23  1  0  0  0  0
 24 22  1  0  0  0  0
M  END
>  <minimizedAffinity>
-3.99410796

$$$$

 OpenBabel03272507203D

 24 25  0  0  1  0  0  0  0  0999 V2000
   37.8670   27.5360   35.2610 C   0  0  1  0  0  0  0  0  0  0  0  0
   38.2160   26.4660   36.1930 C   0  0  2  0  0  0  0  0  0  0  0  0
   39.2960   26.9550   35.2780 C   0  0  0  0  0  0  0  0  0  0  0  0
   37.7940   28.6090   35.5360 H   0  0  0  0  0  0  0  0  0  0  0  0
   38.1460   26.7830   37.2660 H   0  0  0  0  0  0  0  0  0  0  0  0
   39.6240   26.3310   34.4300 H   0  0  0  0  0  0  0  0  0  0  0  0
   40.0270   27.6190   35.7710 H   0  0  0  0  0  0  0  0  0  0  0  0
   37.1630   27.2560   33.9650 C   0  0  0  0  0  0  0  0  0  0  0  0
   36.3860   28.2930   33.4670 C   0  0  0  0  0  0  0  0  0  0  0  0
   35.7280   27.9880   32.2600 C   0  0  0  0  0  0  0  0  0  0  0  0
   35.8710   26.7600   31.6630 N   0  0  0  0  0  0  0  0  0  0  0  0
   36.6460   25.7860   32.1990 C   0  0  0  0  0  0  0  0  0  0  0  0
   37.3000   26.0430   33.3700 N   0  0  0  0  0  0  0  0  0  0  0  0
   36.2920   29.2370   33.9530 H   0  0  0  0  0  0  0  0  0  0  0  0
   35.1120   28.7420   31.8200 H   0  0  0  0  0  0  0  0  0  0  0  0
   36.8050   24.4880   31.5810 C   0  0  0  0  0  0  0  0  0  0  0  0
   37.0310   24.3700   30.5490 H   0  0  0  0  0  0  0  0  0  0  0  0
   36.6770   23.4160   32.2660 O   0  0  0  0  0  0  0  0  0  0  0  0
   37.6530   25.2160   35.9670 O   0  0  0  0  0  0  0  0  0  0  0  0
   38.2030   23.9850   36.0930 C   0  0  0  0  0  0  0  0  0  0  0  0
   38.5610   23.5190   37.1930 O   0  0  0  0  0  0  0  0  0  0  0  0
   38.2760   23.4070   34.8230 N   0  0  0  0  0  0  0  0  0  0  0  0
   38.8330   23.7140   34.0020 H   0  0  0  0  0  0  0  0  0  0  0  0
   37.6720   22.5520   34.7350 H   0  0  0  0  0  0  0  0  0  0  0  0
  1  3  1  0  0  0  0
  1  4  1  1  0  0  0
  1  2  1  0  0  0  0
  2  5  1  1  0  0  0
  3  7  1  0  0  0  0
  3  2  1  0  0  0  0
  6  3  1  0  0  0  0
  8  1  1  0  0  0  0
  9 14  1  0  0  0  0
  9  8  1  0  0  0  0
 10  9  2  0  0  0  0
 11 12  2  0  0  0  0
 11 10  1  0  0  0  0
 12 13  1  0  0  0  0
 13  8  2  0  0  0  0
 15 10  1  0  0  0  0
 16 12  1  0  0  0  0
 16 18  2  0  0  0  0
 17 16  1  0  0  0  0
 19 20  1  0  0  0  0
 19  2  1  0  0  0  0
 20 21  2  0  0  0  0
 22 20  1  0  0  0  0
 23 22  1  0  0  0  0
 24 22  1  0  0  0  0
M  END
>  <minimizedAffinity>
-3.94862866

$$$$

 OpenBabel03272507203D

 24 25  0  0  1  0  0  0  0  0999 V2000
   38.4360   26.5970   32.6780 C   0  0  1  0  0  0  0  0  0  0  0  0
   37.3810   26.2830   31.7170 C   0  0  2  0  0  0  0  0  0  0  0  0
   37.3650   27.6510   32.3260 C   0  0  0  0  0  0  0  0  0  0  0  0
   39.4740   26.8750   32.4020 H   0  0  0  0  0  0  0  0  0  0  0  0
   37.7760   26.0870   30.6850 H   0  0  0  0  0  0  0  0  0  0  0  0
   36.6050   27.9070   33.0830 H   0  0  0  0  0  0  0  0  0  0  0  0
   37.7400   28.4400   31.6520 H   0  0  0  0  0  0  0  0  0  0  0  0
   38.3480   26.1680   34.1130 C   0  0  0  0  0  0  0  0  0  0  0  0
   38.4320   27.1880   35.0520 C   0  0  0  0  0  0  0  0  0  0  0  0
   38.3630   26.7470   36.3870 C   0  0  0  0  0  0  0  0  0  0  0  0
   38.2250   25.4140   36.6890 N   0  0  0  0  0  0  0  0  0  0  0  0
   38.1480   24.4640   35.7270 C   0  0  0  0  0  0  0  0  0  0  0  0
   38.2110   24.8520   34.4180 N   0  0  0  0  0  0  0  0  0  0  0  0
   38.5400   28.2150   34.7880 H   0  0  0  0  0  0  0  0  0  0  0  0
   38.4220   27.4800   37.1620 H   0  0  0  0  0  0  0  0  0  0  0  0
   38.0020   23.0570   36.0300 C   0  0  0  0  0  0  0  0  0  0  0  0
   37.0570   22.5690   36.0420 H   0  0  0  0  0  0  0  0  0  0  0  0
   39.0220   22.3350   36.3020 O   0  0  0  0  0  0  0  0  0  0  0  0
   36.4200   25.3580   32.1050 O   0  0  0  0  0  0  0  0  0  0  0  0
   35.5840   24.6100   31.3460 C   0  0  0  0  0  0  0  0  0  0  0  0
   35.4350   23.3840   31.5200 O   0  0  0  0  0  0  0  0  0  0  0  0
   34.9820   25.4480   30.4040 N   0  0  0  0  0  0  0  0  0  0  0  0
   35.4250   25.9750   29.6280 H   0  0  0  0  0  0  0  0  0  0  0  0
   33.9430   25.5240   30.5400 H   0  0  0  0  0  0  0  0  0  0  0  0
  1  4  1  6  0  0  0
  1  8  1  0  0  0  0
  2  5  1  6  0  0  0
  2 19  1  0  0  0  0
  2  3  1  0  0  0  0
  2  1  1  0  0  0  0
  3  1  1  0  0  0  0
  3  6  1  0  0  0  0
  7  3  1  0  0  0  0
  8 13  2  0  0  0  0
  8  9  1  0  0  0  0
  9 10  2  0  0  0  0
 10 11  1  0  0  0  0
 10 15  1  0  0  0  0
 12 16  1  0  0  0  0
 12 11  2  0  0  0  0
 13 12  1  0  0  0  0
 14  9  1  0  0  0  0
 16 17  1  0  0  0  0
 16 18  2  0  0  0  0
 20 21  2  0  0  0  0
 20 19  1  0  0  0  0
 22 24  1  0  0  0  0
 22 20  1  0  0  0  0
 23 22  1  0  0  0  0
M  END
>  <minimizedAffinity>
-3.90915036

$$$$

 OpenBabel03272507203D

 24 25  0  0  1  0  0  0  0  0999 V2000
   37.7190   25.6310   35.6090 C   0  0  1  0  0  0  0  0  0  0  0  0
   38.4170   26.7200   34.9310 C   0  0  2  0  0  0  0  0  0  0  0  0
   38.0280   25.5370   34.1000 C   0  0  0  0  0  0  0  0  0  0  0  0
   36.6400   25.6410   35.8660 H   0  0  0  0  0  0  0  0  0  0  0  0
   37.8320   27.6770   34.9270 H   0  0  0  0  0  0  0  0  0  0  0  0
   38.7990   24.8250   33.7610 H   0  0  0  0  0  0  0  0  0  0  0  0
   37.1430   25.7120   33.4660 H   0  0  0  0  0  0  0  0  0  0  0  0
   38.4590   24.5900   36.3980 C   0  0  0  0  0  0  0  0  0  0  0  0
   38.0150   24.3940   37.6990 C   0  0  0  0  0  0  0  0  0  0  0  0
   38.7420   23.4240   38.4140 C   0  0  0  0  0  0  0  0  0  0  0  0
   39.7930   22.7550   37.8360 N   0  0  0  0  0  0  0  0  0  0  0  0
   40.1790   22.9900   36.5590 C   0  0  0  0  0  0  0  0  0  0  0  0
   39.4980   23.9250   35.8320 N   0  0  0  0  0  0  0  0  0  0  0  0
   37.1970   24.9300   38.1220 H   0  0  0  0  0  0  0  0  0  0  0  0
   38.4550   23.2220   39.4230 H   0  0  0  0  0  0  0  0  0  0  0  0
   41.2830   22.2920   35.9380 C   0  0  0  0  0  0  0  0  0  0  0  0
   41.3980   21.2360   35.9950 H   0  0  0  0  0  0  0  0  0  0  0  0
   42.1800   22.9300   35.2860 O   0  0  0  0  0  0  0  0  0  0  0  0
   39.7560   26.9140   35.2480 O   0  0  0  0  0  0  0  0  0  0  0  0
   40.8480   26.8680   34.4480 C   0  0  0  0  0  0  0  0  0  0  0  0
   40.9240   27.5050   33.3780 O   0  0  0  0  0  0  0  0  0  0  0  0
   41.7870   26.0190   35.0390 N   0  0  0  0  0  0  0  0  0  0  0  0
   41.7160   24.9990   35.2190 H   0  0  0  0  0  0  0  0  0  0  0  0
   42.6640   26.5240   35.3220 H   0  0  0  0  0  0  0  0  0  0  0  0
  1  4  1  1  0  0  0
  1  8  1  0  0  0  0
  2  5  1  6  0  0  0
  2 19  1  0  0  0  0
  2  1  1  0  0  0  0
  3  2  1  0  0  0  0
  3  1  1  0  0  0  0
  6  3  1  0  0  0  0
  7  3  1  0  0  0  0
  8  9  1  0  0  0  0
  9 14  1  0  0  0  0
  9 10  2  0  0  0  0
 10 15  1  0  0  0  0
 11 10  1  0  0  0  0
 12 11  2  0  0  0  0
 13  8  2  0  0  0  0
 13 12  1  0  0  0  0
 16 17  1  0  0  0  0
 16 12  1  0  0  0  0
 18 16  2  0  0  0  0
 20 22  1  0  0  0  0
 20 19  1  0  0  0  0
 21 20  2  0  0  0  0
 22 23  1  0  0  0  0
 22 24  1  0  0  0  0
M  END
>  <minimizedAffinity>
-3.85874176

$$$$

 OpenBabel03272507203D

 24 25  0  0  1  0  0  0  0  0999 V2000
   37.7510   23.4960   37.3160 C   0  0  1  0  0  0  0  0  0  0  0  0
   38.8860   23.1440   38.1670 C   0  0  2  0  0  0  0  0  0  0  0  0
   38.1460   24.4030   38.4990 C   0  0  0  0  0  0  0  0  0  0  0  0
   36.7440   23.0380   37.3920 H   0  0  0  0  0  0  0  0  0  0  0  0
   38.7290   22.1870   38.7290 H   0  0  0  0  0  0  0  0  0  0  0  0
   38.6030   25.3840   38.2850 H   0  0  0  0  0  0  0  0  0  0  0  0
   37.4680   24.3040   39.3650 H   0  0  0  0  0  0  0  0  0  0  0  0
   37.9400   24.1840   35.9950 C   0  0  0  0  0  0  0  0  0  0  0  0
   37.7610   25.5610   36.0040 C   0  0  0  0  0  0  0  0  0  0  0  0
   37.9290   26.1700   34.7470 C   0  0  0  0  0  0  0  0  0  0  0  0
   38.2420   25.4290   33.6340 N   0  0  0  0  0  0  0  0  0  0  0  0
   38.4040   24.0860   33.6880 C   0  0  0  0  0  0  0  0  0  0  0  0
   38.2490   23.4570   34.8910 N   0  0  0  0  0  0  0  0  0  0  0  0
   37.5170   26.1110   36.8850 H   0  0  0  0  0  0  0  0  0  0  0  0
   37.8060   27.2300   34.6810 H   0  0  0  0  0  0  0  0  0  0  0  0
   38.7330   23.2920   32.5250 C   0  0  0  0  0  0  0  0  0  0  0  0
   38.6600   22.2310   32.5170 H   0  0  0  0  0  0  0  0  0  0  0  0
   39.1330   23.8460   31.4440 O   0  0  0  0  0  0  0  0  0  0  0  0
   40.1540   23.2330   37.6070 O   0  0  0  0  0  0  0  0  0  0  0  0
   40.9000   22.2770   37.0040 C   0  0  0  0  0  0  0  0  0  0  0  0
   41.3480   22.4050   35.8460 O   0  0  0  0  0  0  0  0  0  0  0  0
   41.0420   21.2080   37.8920 N   0  0  0  0  0  0  0  0  0  0  0  0
   40.3080   20.5790   38.2710 H   0  0  0  0  0  0  0  0  0  0  0  0
   42.0400   21.0600   38.1870 H   0  0  0  0  0  0  0  0  0  0  0  0
  1  4  1  1  0  0  0
  1  2  1  0  0  0  0
  1  3  1  0  0  0  0
  2  3  1  0  0  0  0
  2  5  1  1  0  0  0
  3  7  1  0  0  0  0
  6  3  1  0  0  0  0
  8  9  1  0  0  0  0
  8  1  1  0  0  0  0
  9 14  1  0  0  0  0
 10  9  2  0  0  0  0
 11 12  2  0  0  0  0
 11 10  1  0  0  0  0
 12 13  1  0  0  0  0
 13  8  2  0  0  0  0
 15 10  1  0  0  0  0
 16 12  1  0  0  0  0
 17 16  1  0  0  0  0
 18 16  2  0  0  0  0
 19  2  1  0  0  0  0
 20 19  1  0  0  0  0
 20 22  1  0  0  0  0
 21 20  2  0  0  0  0
 22 24  1  0  0  0  0
 22 23  1  0  0  0  0
M  END
>  <minimizedAffinity>
-3.80220509

$$$$
