
 OpenBabel03272506343D

 13 13  0  0  0  0  0  0  0  0999 V2000
   37.2900   29.9360   51.3060 C   0  0  0  0  0  0  0  0  0  0  0  0
   37.8190   30.9740   50.5170 C   0  0  0  0  0  0  0  0  0  0  0  0
   37.0700   31.3990   49.4230 C   0  0  0  0  0  0  0  0  0  0  0  0
   35.8760   30.7980   49.1690 N   0  0  0  0  0  0  0  0  0  0  0  0
   35.3990   29.7940   49.9590 C   0  0  0  0  0  0  0  0  0  0  0  0
   36.1060   29.3810   51.0060 N   0  0  0  0  0  0  0  0  0  0  0  0
   38.7670   31.4700   50.6960 H   0  0  0  0  0  0  0  0  0  0  0  0
   37.4080   32.1920   48.7660 H   0  0  0  0  0  0  0  0  0  0  0  0
   34.1220   29.1400   49.7000 C   0  0  0  0  0  0  0  0  0  0  0  0
   33.1510   29.5980   49.8840 H   0  0  0  0  0  0  0  0  0  0  0  0
   34.0370   27.9740   49.2360 O   0  0  0  0  0  0  0  0  0  0  0  0
   38.1370   29.6160   52.3560 O   0  0  0  0  0  0  0  0  0  0  0  0
   38.8770   28.9040   52.2960 H   0  0  0  0  0  0  0  0  0  0  0  0
  1 12  1  0  0  0  0
  2  7  1  0  0  0  0
  2  1  2  0  0  0  0
  3  2  1  0  0  0  0
  4  3  2  0  0  0  0
  4  5  1  0  0  0  0
  5  6  2  0  0  0  0
  6  1  1  0  0  0  0
  8  3  1  0  0  0  0
  9 10  1  0  0  0  0
  9  5  1  0  0  0  0
 11  9  2  0  0  0  0
 13 12  1  0  0  0  0
M  END
>  <minimizedAffinity>
-3.66328359

>  <minimizedRMSD>
0.740517616

$$$$
