
 OpenBabel03272500503D

 39 43  0  0  1  0  0  0  0  0999 V2000
   31.8860   27.7850   47.7920 C   0  0  1  0  0  0  0  0  0  0  0  0
   32.6680   26.7580   46.8870 C   0  0  0  0  0  0  0  0  0  0  0  0
   32.5600   28.2190   46.5680 C   0  0  2  0  0  0  0  0  0  0  0  0
   32.3760   27.9040   48.7970 H   0  0  0  0  0  0  0  0  0  0  0  0
   33.6350   26.4120   47.2600 H   0  0  0  0  0  0  0  0  0  0  0  0
   32.0390   26.0970   46.2840 H   0  0  0  0  0  0  0  0  0  0  0  0
   31.9260   28.4980   45.6990 H   0  0  0  0  0  0  0  0  0  0  0  0
   28.3300   28.1970   48.1690 C   0  0  0  0  0  0  0  0  0  0  0  0
   28.3830   26.9030   47.6700 C   0  0  0  0  0  0  0  0  0  0  0  0
   29.7420   26.5720   47.4590 C   0  0  0  0  0  0  0  0  0  0  0  0
   30.4450   27.6500   47.8290 N   0  0  0  0  0  0  0  0  0  0  0  0
   29.5910   28.5600   48.2300 N   0  0  0  0  0  0  0  0  0  0  0  0
   27.5810   26.2010   47.4510 H   0  0  0  0  0  0  0  0  0  0  0  0
   30.1210   25.6250   47.0730 H   0  0  0  0  0  0  0  0  0  0  0  0
   25.9520   28.1580   48.9800 C   0  0  0  0  0  0  0  0  0  0  0  0
   27.1040   28.8680   48.5020 C   0  0  0  0  0  0  0  0  0  0  0  0
   26.9880   30.2190   48.3760 C   0  0  0  0  0  0  0  0  0  0  0  0
   25.8090   30.8210   48.7020 N   0  0  0  0  0  0  0  0  0  0  0  0
   24.7510   30.1300   49.1460 C   0  0  0  0  0  0  0  0  0  0  0  0
   24.8120   28.7700   49.2930 N   0  0  0  0  0  0  0  0  0  0  0  0
   26.0340   27.0860   49.0840 H   0  0  0  0  0  0  0  0  0  0  0  0
   27.8410   30.7800   48.0190 H   0  0  0  0  0  0  0  0  0  0  0  0
   23.9180   30.8000   49.3470 H   0  0  0  0  0  0  0  0  0  0  0  0
   33.7900   29.0740   46.6570 C   0  0  0  0  0  0  0  0  0  0  0  0
   34.3600   29.7780   45.6170 C   0  0  0  0  0  0  0  0  0  0  0  0
   35.4430   30.4420   46.0940 N   0  0  0  0  0  0  0  0  0  0  0  0
   35.5630   30.1660   47.4280 C   0  0  0  0  0  0  0  0  0  0  0  0
   34.5540   29.3360   47.7520 N   0  0  0  0  0  0  0  0  0  0  0  0
   33.9740   29.7680   44.6150 H   0  0  0  0  0  0  0  0  0  0  0  0
   36.0780   31.0570   45.5490 H   0  0  0  0  0  0  0  0  0  0  0  0
   36.6110   30.6850   48.3560 C   0  0  0  0  0  0  0  0  0  0  0  0
   36.9490   29.9870   49.5190 C   0  0  0  0  0  0  0  0  0  0  0  0
   38.2490   31.0540   50.2550 S   0  0  0  0  0  0  0  0  0  0  0  0
   38.0940   32.2780   48.8250 C   0  0  0  0  0  0  0  0  0  0  0  0
   37.2960   31.7870   48.2100 N   0  0  0  0  0  0  0  0  0  0  0  0
   36.4880   29.0090   49.8520 H   0  0  0  0  0  0  0  0  0  0  0  0
   38.9890   33.4700   48.8780 C   0  0  0  0  0  0  0  0  0  0  0  0
   39.1730   33.8500   47.9060 H   0  0  0  0  0  0  0  0  0  0  0  0
   39.4390   33.9250   49.9370 O   0  0  0  0  0  0  0  0  0  0  0  0
  1 11  1  0  0  0  0
  1  4  1  1  0  0  0
  2  5  1  0  0  0  0
  2  1  1  0  0  0  0
  3  7  1  6  0  0  0
  3 24  1  0  0  0  0
  3  2  1  0  0  0  0
  3  1  1  0  0  0  0
  6  2  1  0  0  0  0
  8 12  2  0  0  0  0
  8 16  1  0  0  0  0
  9  8  1  0  0  0  0
 10  9  2  0  0  0  0
 10 11  1  0  0  0  0
 11 12  1  0  0  0  0
 13  9  1  0  0  0  0
 14 10  1  0  0  0  0
 15 21  1  0  0  0  0
 15 20  1  0  0  0  0
 16 15  2  0  0  0  0
 17 16  1  0  0  0  0
 17 18  2  0  0  0  0
 18 19  1  0  0  0  0
 19 20  2  0  0  0  0
 19 23  1  0  0  0  0
 22 17  1  0  0  0  0
 24 28  1  0  0  0  0
 25 26  1  0  0  0  0
 25 24  2  0  0  0  0
 26 27  1  0  0  0  0
 27 28  2  0  0  0  0
 27 31  1  0  0  0  0
 29 25  1  0  0  0  0
 30 26  1  0  0  0  0
 31 32  2  0  0  0  0
 32 36  1  0  0  0  0
 32 33  1  0  0  0  0
 34 37  1  0  0  0  0
 34 33  1  0  0  0  0
 35 31  1  0  0  0  0
 35 34  2  0  0  0  0
 37 39  2  0  0  0  0
 38 37  1  0  0  0  0
M  END
>  <minimizedAffinity>
-6.23763084

>  <minimizedRMSD>
0.91394496

$$$$
