
 OpenBabel03272510223D

 25 27  0  0  0  0  0  0  0  0999 V2000
   35.7260   29.9650   46.8700 C   0  0  0  0  0  0  0  0  0  0  0  0
   36.7240   30.5280   47.6370 C   0  0  0  0  0  0  0  0  0  0  0  0
   37.6770   31.3260   47.0530 C   0  0  0  0  0  0  0  0  0  0  0  0
   37.5960   31.5410   45.6830 C   0  0  0  0  0  0  0  0  0  0  0  0
   38.4240   32.2890   44.8980 N   0  0  0  0  0  0  0  0  0  0  0  0
   37.9450   32.1950   43.6450 C   0  0  0  0  0  0  0  0  0  0  0  0
   36.8540   31.4210   43.6110 N   0  0  0  0  0  0  0  0  0  0  0  0
   36.6070   30.9950   44.8660 C   0  0  0  0  0  0  0  0  0  0  0  0
   35.6580   30.1920   45.4890 C   0  0  0  0  0  0  0  0  0  0  0  0
   34.9340   29.3250   47.2400 H   0  0  0  0  0  0  0  0  0  0  0  0
   38.4610   31.7700   47.6410 H   0  0  0  0  0  0  0  0  0  0  0  0
   39.2630   32.8270   45.2130 H   0  0  0  0  0  0  0  0  0  0  0  0
   34.8850   29.7600   44.8790 H   0  0  0  0  0  0  0  0  0  0  0  0
   37.6080   30.2530   51.2840 C   0  0  0  0  0  0  0  0  0  0  0  0
   37.7190   30.5820   49.9340 C   0  0  0  0  0  0  0  0  0  0  0  0
   36.7100   30.2340   49.0610 C   0  0  0  0  0  0  0  0  0  0  0  0
   35.6290   29.5740   49.5600 N   0  0  0  0  0  0  0  0  0  0  0  0
   35.5280   29.2560   50.8800 C   0  0  0  0  0  0  0  0  0  0  0  0
   36.5100   29.5940   51.7310 N   0  0  0  0  0  0  0  0  0  0  0  0
   38.3970   30.5270   51.9560 H   0  0  0  0  0  0  0  0  0  0  0  0
   38.5710   31.0980   49.5620 H   0  0  0  0  0  0  0  0  0  0  0  0
   34.6640   28.7310   51.2610 H   0  0  0  0  0  0  0  0  0  0  0  0
   38.4830   32.8190   42.4430 C   0  0  0  0  0  0  0  0  0  0  0  0
   38.1300   32.6490   41.4420 H   0  0  0  0  0  0  0  0  0  0  0  0
   39.4440   33.6490   42.4400 O   0  0  0  0  0  0  0  0  0  0  0  0
  1 10  1  0  0  0  0
  1  2  1  0  0  0  0
  2 16  1  0  0  0  0
  3  2  2  0  0  0  0
  3 11  1  0  0  0  0
  4  3  1  0  0  0  0
  5 12  1  0  0  0  0
  5  4  1  0  0  0  0
  6  5  1  0  0  0  0
  7  6  2  0  0  0  0
  7  8  1  0  0  0  0
  8  9  1  0  0  0  0
  8  4  2  0  0  0  0
  9  1  2  0  0  0  0
 13  9  1  0  0  0  0
 14 19  1  0  0  0  0
 14 20  1  0  0  0  0
 15 14  2  0  0  0  0
 16 17  2  0  0  0  0
 16 15  1  0  0  0  0
 17 18  1  0  0  0  0
 18 22  1  0  0  0  0
 18 19  2  0  0  0  0
 21 15  1  0  0  0  0
 23  6  1  0  0  0  0
 24 23  1  0  0  0  0
 25 23  2  0  0  0  0
M  END
>  <minimizedAffinity>
-4.74819183

>  <minimizedRMSD>
1.91758156

$$$$
