
 OpenBabel03272503233D

 24 25  0  0  1  0  0  0  0  0999 V2000
   38.5400   24.1130   36.4100 N   0  0  0  0  0  0  0  0  0  0  0  0
   39.7810   23.3780   36.3610 C   0  0  1  0  0  0  0  0  0  0  0  0
   39.8680   22.7960   37.7580 C   0  0  0  0  0  0  0  0  0  0  0  0
   38.7130   23.4150   38.5510 C   0  0  0  0  0  0  0  0  0  0  0  0
   37.6900   23.5170   37.4410 C   0  0  0  0  0  0  0  0  0  0  0  0
   40.6570   24.0300   36.2250 H   0  0  0  0  0  0  0  0  0  0  0  0
   40.8390   22.9160   38.2340 H   0  0  0  0  0  0  0  0  0  0  0  0
   39.5620   21.7220   37.6570 H   0  0  0  0  0  0  0  0  0  0  0  0
   39.0250   24.4290   38.8450 H   0  0  0  0  0  0  0  0  0  0  0  0
   38.3530   22.7760   39.3550 H   0  0  0  0  0  0  0  0  0  0  0  0
   36.8820   24.2510   37.7260 H   0  0  0  0  0  0  0  0  0  0  0  0
   37.2690   22.5490   37.1610 H   0  0  0  0  0  0  0  0  0  0  0  0
   38.1860   25.2230   35.6090 C   0  0  0  0  0  0  0  0  0  0  0  0
   38.2900   26.4900   36.1760 C   0  0  0  0  0  0  0  0  0  0  0  0
   37.9550   27.6270   35.4340 C   0  0  0  0  0  0  0  0  0  0  0  0
   37.5310   27.4000   34.1420 N   0  0  0  0  0  0  0  0  0  0  0  0
   37.4420   26.1680   33.6200 C   0  0  0  0  0  0  0  0  0  0  0  0
   37.7720   25.0670   34.3560 N   0  0  0  0  0  0  0  0  0  0  0  0
   38.6190   26.6840   37.1860 H   0  0  0  0  0  0  0  0  0  0  0  0
   38.0200   28.6290   35.8350 H   0  0  0  0  0  0  0  0  0  0  0  0
   37.1070   26.0340   32.6090 H   0  0  0  0  0  0  0  0  0  0  0  0
   39.7810   22.3290   35.3170 C   0  0  0  0  0  0  0  0  0  0  0  0
   39.3410   21.3400   35.4800 H   0  0  0  0  0  0  0  0  0  0  0  0
   40.3070   22.6260   34.2440 O   0  0  0  0  0  0  0  0  0  0  0  0
  1  5  1  0  0  0  0
  2  6  1  6  0  0  0
  2  1  1  0  0  0  0
  2  3  1  0  0  0  0
  3  7  1  0  0  0  0
  3  4  1  0  0  0  0
  4  9  1  0  0  0  0
  4 10  1  0  0  0  0
  5 11  1  0  0  0  0
  5  4  1  0  0  0  0
  8  3  1  0  0  0  0
 12  5  1  0  0  0  0
 13 14  1  0  0  0  0
 13  1  1  0  0  0  0
 14 19  1  0  0  0  0
 15 20  1  0  0  0  0
 15 14  2  0  0  0  0
 16 15  1  0  0  0  0
 17 16  2  0  0  0  0
 17 18  1  0  0  0  0
 18 13  2  0  0  0  0
 21 17  1  0  0  0  0
 22 23  1  0  0  0  0
 22  2  1  0  0  0  0
 24 22  2  0  0  0  0
M  END
>  <minimizedAffinity>
-3.89615893

$$$$

 OpenBabel03272503233D

 24 25  0  0  1  0  0  0  0  0999 V2000
   38.4910   25.7470   35.3370 N   0  0  0  0  0  0  0  0  0  0  0  0
   37.4820   25.6950   34.3070 C   0  0  1  0  0  0  0  0  0  0  0  0
   37.0380   27.1410   34.2150 C   0  0  0  0  0  0  0  0  0  0  0  0
   37.7400   27.8760   35.3620 C   0  0  0  0  0  0  0  0  0  0  0  0
   39.0390   27.1030   35.3800 C   0  0  0  0  0  0  0  0  0  0  0  0
   36.6030   25.1020   34.6000 H   0  0  0  0  0  0  0  0  0  0  0  0
   35.9590   27.2790   34.2030 H   0  0  0  0  0  0  0  0  0  0  0  0
   37.5400   27.5540   33.3020 H   0  0  0  0  0  0  0  0  0  0  0  0
   37.1780   27.6570   36.2830 H   0  0  0  0  0  0  0  0  0  0  0  0
   37.9160   28.9300   35.1510 H   0  0  0  0  0  0  0  0  0  0  0  0
   39.5670   27.2590   36.3650 H   0  0  0  0  0  0  0  0  0  0  0  0
   39.6890   27.3430   34.5360 H   0  0  0  0  0  0  0  0  0  0  0  0
   38.8940   24.6820   36.1750 C   0  0  0  0  0  0  0  0  0  0  0  0
   38.1630   24.4620   37.3390 C   0  0  0  0  0  0  0  0  0  0  0  0
   38.5130   23.4230   38.2080 C   0  0  0  0  0  0  0  0  0  0  0  0
   39.5990   22.6620   37.8330 N   0  0  0  0  0  0  0  0  0  0  0  0
   40.2850   22.8960   36.7040 C   0  0  0  0  0  0  0  0  0  0  0  0
   39.9330   23.9130   35.8650 N   0  0  0  0  0  0  0  0  0  0  0  0
   37.3110   25.0490   37.6480 H   0  0  0  0  0  0  0  0  0  0  0  0
   37.9740   23.2170   39.1220 H   0  0  0  0  0  0  0  0  0  0  0  0
   41.1250   22.2800   36.4470 H   0  0  0  0  0  0  0  0  0  0  0  0
   38.0090   25.1900   33.0190 C   0  0  0  0  0  0  0  0  0  0  0  0
   38.4860   25.8450   32.2830 H   0  0  0  0  0  0  0  0  0  0  0  0
   37.8830   23.9820   32.8130 O   0  0  0  0  0  0  0  0  0  0  0  0
  1  5  1  0  0  0  0
  1 13  1  0  0  0  0
  2  6  1  1  0  0  0
  2  1  1  0  0  0  0
  3  2  1  0  0  0  0
  3  4  1  0  0  0  0
  4  5  1  0  0  0  0
  4  9  1  0  0  0  0
  5 11  1  0  0  0  0
  7  3  1  0  0  0  0
  8  3  1  0  0  0  0
 10  4  1  0  0  0  0
 12  5  1  0  0  0  0
 13 14  1  0  0  0  0
 14 19  1  0  0  0  0
 14 15  2  0  0  0  0
 15 20  1  0  0  0  0
 16 15  1  0  0  0  0
 17 16  2  0  0  0  0
 18 13  2  0  0  0  0
 18 17  1  0  0  0  0
 21 17  1  0  0  0  0
 22  2  1  0  0  0  0
 23 22  1  0  0  0  0
 24 22  2  0  0  0  0
M  END
>  <minimizedAffinity>
-3.72679806

$$$$

 OpenBabel03272503233D

 24 25  0  0  1  0  0  0  0  0999 V2000
   37.6830   26.4560   33.6420 N   0  0  0  0  0  0  0  0  0  0  0  0
   36.9730   27.1960   34.6580 C   0  0  1  0  0  0  0  0  0  0  0  0
   38.0880   27.6090   35.5970 C   0  0  0  0  0  0  0  0  0  0  0  0
   39.3500   26.8950   35.1000 C   0  0  0  0  0  0  0  0  0  0  0  0
   39.0700   26.9220   33.6150 C   0  0  0  0  0  0  0  0  0  0  0  0
   36.2770   26.5680   35.2340 H   0  0  0  0  0  0  0  0  0  0  0  0
   37.8750   27.4370   36.6500 H   0  0  0  0  0  0  0  0  0  0  0  0
   38.2970   28.6850   35.3650 H   0  0  0  0  0  0  0  0  0  0  0  0
   39.2990   25.8540   35.4570 H   0  0  0  0  0  0  0  0  0  0  0  0
   40.2670   27.4330   35.3340 H   0  0  0  0  0  0  0  0  0  0  0  0
   39.7080   26.1550   33.0870 H   0  0  0  0  0  0  0  0  0  0  0  0
   39.1930   27.9140   33.1770 H   0  0  0  0  0  0  0  0  0  0  0  0
   37.1490   25.4470   32.8070 C   0  0  0  0  0  0  0  0  0  0  0  0
   37.6240   24.1490   32.9760 C   0  0  0  0  0  0  0  0  0  0  0  0
   37.1340   23.1090   32.1800 C   0  0  0  0  0  0  0  0  0  0  0  0
   36.1770   23.4580   31.2500 N   0  0  0  0  0  0  0  0  0  0  0  0
   35.7370   24.7180   31.1110 C   0  0  0  0  0  0  0  0  0  0  0  0
   36.2240   25.7240   31.8940 N   0  0  0  0  0  0  0  0  0  0  0  0
   38.3720   23.8600   33.6970 H   0  0  0  0  0  0  0  0  0  0  0  0
   37.4740   22.0870   32.2760 H   0  0  0  0  0  0  0  0  0  0  0  0
   34.9910   24.9490   30.3750 H   0  0  0  0  0  0  0  0  0  0  0  0
   36.2450   28.3610   34.1080 C   0  0  0  0  0  0  0  0  0  0  0  0
   35.7870   28.3510   33.1140 H   0  0  0  0  0  0  0  0  0  0  0  0
   36.1790   29.3560   34.8310 O   0  0  0  0  0  0  0  0  0  0  0  0
  1  2  1  0  0  0  0
  2  6  1  1  0  0  0
  2  3  1  0  0  0  0
  3  7  1  0  0  0  0
  4 10  1  0  0  0  0
  4  9  1  0  0  0  0
  4  3  1  0  0  0  0
  5  1  1  0  0  0  0
  5  4  1  0  0  0  0
  8  3  1  0  0  0  0
 11  5  1  0  0  0  0
 12  5  1  0  0  0  0
 13 14  1  0  0  0  0
 13  1  1  0  0  0  0
 14 19  1  0  0  0  0
 15 20  1  0  0  0  0
 15 14  2  0  0  0  0
 16 15  1  0  0  0  0
 17 16  2  0  0  0  0
 17 18  1  0  0  0  0
 18 13  2  0  0  0  0
 21 17  1  0  0  0  0
 22  2  1  0  0  0  0
 22 24  2  0  0  0  0
 23 22  1  0  0  0  0
M  END
>  <minimizedAffinity>
-3.6653986

$$$$

 OpenBabel03272503233D

 24 25  0  0  1  0  0  0  0  0999 V2000
   36.1660   22.3400   32.0810 N   0  0  0  0  0  0  0  0  0  0  0  0
   36.7030   21.5490   33.1620 C   0  0  1  0  0  0  0  0  0  0  0  0
   35.8350   20.3080   33.1190 C   0  0  0  0  0  0  0  0  0  0  0  0
   34.7350   20.5940   32.0910 C   0  0  0  0  0  0  0  0  0  0  0  0
   35.5300   21.4390   31.1210 C   0  0  0  0  0  0  0  0  0  0  0  0
   36.5550   22.0170   34.1470 H   0  0  0  0  0  0  0  0  0  0  0  0
   35.4550   19.9930   34.0890 H   0  0  0  0  0  0  0  0  0  0  0  0
   36.4550   19.5220   32.6170 H   0  0  0  0  0  0  0  0  0  0  0  0
   33.9810   21.2270   32.5850 H   0  0  0  0  0  0  0  0  0  0  0  0
   34.3570   19.6950   31.6060 H   0  0  0  0  0  0  0  0  0  0  0  0
   34.8310   22.0320   30.4620 H   0  0  0  0  0  0  0  0  0  0  0  0
   36.2370   20.8550   30.5280 H   0  0  0  0  0  0  0  0  0  0  0  0
   36.2300   23.7470   31.9540 C   0  0  0  0  0  0  0  0  0  0  0  0
   35.2980   24.3650   31.1250 C   0  0  0  0  0  0  0  0  0  0  0  0
   35.3110   25.7540   30.9590 C   0  0  0  0  0  0  0  0  0  0  0  0
   36.2840   26.4370   31.6580 N   0  0  0  0  0  0  0  0  0  0  0  0
   37.1680   25.8150   32.4520 C   0  0  0  0  0  0  0  0  0  0  0  0
   37.1450   24.4590   32.6040 N   0  0  0  0  0  0  0  0  0  0  0  0
   34.5320   23.8450   30.5700 H   0  0  0  0  0  0  0  0  0  0  0  0
   34.6070   26.2740   30.3240 H   0  0  0  0  0  0  0  0  0  0  0  0
   37.9100   26.3830   32.9790 H   0  0  0  0  0  0  0  0  0  0  0  0
   38.1380   21.2340   32.9780 C   0  0  0  0  0  0  0  0  0  0  0  0
   38.5000   20.6130   32.1520 H   0  0  0  0  0  0  0  0  0  0  0  0
   38.9130   21.7090   33.8080 O   0  0  0  0  0  0  0  0  0  0  0  0
  1  2  1  0  0  0  0
  2  6  1  1  0  0  0
  3  2  1  0  0  0  0
  3  7  1  0  0  0  0
  4  9  1  0  0  0  0
  4  3  1  0  0  0  0
  5  1  1  0  0  0  0
  5  4  1  0  0  0  0
  8  3  1  0  0  0  0
 10  4  1  0  0  0  0
 11  5  1  0  0  0  0
 12  5  1  0  0  0  0
 13  1  1  0  0  0  0
 13 18  1  0  0  0  0
 14 13  2  0  0  0  0
 15 14  1  0  0  0  0
 15 16  2  0  0  0  0
 16 17  1  0  0  0  0
 17 18  2  0  0  0  0
 17 21  1  0  0  0  0
 19 14  1  0  0  0  0
 20 15  1  0  0  0  0
 22  2  1  0  0  0  0
 22 24  2  0  0  0  0
 23 22  1  0  0  0  0
M  END
>  <minimizedAffinity>
-3.61016297

$$$$

 OpenBabel03272503233D

 24 25  0  0  1  0  0  0  0  0999 V2000
   38.0550   25.8330   33.9320 N   0  0  0  0  0  0  0  0  0  0  0  0
   38.7900   27.0630   34.1050 C   0  0  1  0  0  0  0  0  0  0  0  0
   39.0110   27.1010   35.6040 C   0  0  0  0  0  0  0  0  0  0  0  0
   38.2030   25.9340   36.1830 C   0  0  0  0  0  0  0  0  0  0  0  0
   38.3700   24.9450   35.0510 C   0  0  0  0  0  0  0  0  0  0  0  0
   38.2010   27.9530   33.8390 H   0  0  0  0  0  0  0  0  0  0  0  0
   38.7860   28.0600   36.0660 H   0  0  0  0  0  0  0  0  0  0  0  0
   40.0720   26.7790   35.7620 H   0  0  0  0  0  0  0  0  0  0  0  0
   37.1510   26.2550   36.2280 H   0  0  0  0  0  0  0  0  0  0  0  0
   38.6210   25.5410   37.1080 H   0  0  0  0  0  0  0  0  0  0  0  0
   37.5800   24.1420   35.1210 H   0  0  0  0  0  0  0  0  0  0  0  0
   39.3730   24.5160   35.0050 H   0  0  0  0  0  0  0  0  0  0  0  0
   37.1740   25.5210   32.8710 C   0  0  0  0  0  0  0  0  0  0  0  0
   36.5000   26.5740   32.2580 C   0  0  0  0  0  0  0  0  0  0  0  0
   35.6160   26.3280   31.2020 C   0  0  0  0  0  0  0  0  0  0  0  0
   35.4720   25.0080   30.8300 N   0  0  0  0  0  0  0  0  0  0  0  0
   36.1360   24.0140   31.4380 C   0  0  0  0  0  0  0  0  0  0  0  0
   36.9950   24.2670   32.4670 N   0  0  0  0  0  0  0  0  0  0  0  0
   36.6010   27.6110   32.5380 H   0  0  0  0  0  0  0  0  0  0  0  0
   35.0720   27.1150   30.6980 H   0  0  0  0  0  0  0  0  0  0  0  0
   35.9960   22.9990   31.1180 H   0  0  0  0  0  0  0  0  0  0  0  0
   40.0650   27.0740   33.3520 C   0  0  0  0  0  0  0  0  0  0  0  0
   40.1000   27.0630   32.2580 H   0  0  0  0  0  0  0  0  0  0  0  0
   41.0970   27.0970   34.0240 O   0  0  0  0  0  0  0  0  0  0  0  0
  1  2  1  0  0  0  0
  1  5  1  0  0  0  0
  2  6  1  6  0  0  0
  2  3  1  0  0  0  0
  3  8  1  0  0  0  0
  3  7  1  0  0  0  0
  3  4  1  0  0  0  0
  4  9  1  0  0  0  0
  4 10  1  0  0  0  0
  5 11  1  0  0  0  0
  5  4  1  0  0  0  0
 12  5  1  0  0  0  0
 13  1  1  0  0  0  0
 14 19  1  0  0  0  0
 14 13  2  0  0  0  0
 15 14  1  0  0  0  0
 16 15  2  0  0  0  0
 16 17  1  0  0  0  0
 17 18  2  0  0  0  0
 18 13  1  0  0  0  0
 20 15  1  0  0  0  0
 21 17  1  0  0  0  0
 22 24  2  0  0  0  0
 22  2  1  0  0  0  0
 23 22  1  0  0  0  0
M  END
>  <minimizedAffinity>
-3.58419895

$$$$

 OpenBabel03272503233D

 24 25  0  0  1  0  0  0  0  0999 V2000
   38.9340   23.3260   35.6710 N   0  0  0  0  0  0  0  0  0  0  0  0
   38.5150   23.0700   37.0280 C   0  0  1  0  0  0  0  0  0  0  0  0
   39.8340   22.8440   37.7380 C   0  0  0  0  0  0  0  0  0  0  0  0
   40.9080   22.8230   36.6450 C   0  0  0  0  0  0  0  0  0  0  0  0
   40.3050   23.8370   35.6990 C   0  0  0  0  0  0  0  0  0  0  0  0
   37.9290   22.1440   37.1260 H   0  0  0  0  0  0  0  0  0  0  0  0
   39.8510   21.9690   38.3850 H   0  0  0  0  0  0  0  0  0  0  0  0
   40.0490   23.7970   38.2880 H   0  0  0  0  0  0  0  0  0  0  0  0
   40.8760   21.8280   36.1740 H   0  0  0  0  0  0  0  0  0  0  0  0
   41.8840   23.1510   36.9970 H   0  0  0  0  0  0  0  0  0  0  0  0
   40.7620   23.7280   34.6730 H   0  0  0  0  0  0  0  0  0  0  0  0
   40.3860   24.8620   36.0660 H   0  0  0  0  0  0  0  0  0  0  0  0
   38.1680   23.1220   34.5000 C   0  0  0  0  0  0  0  0  0  0  0  0
   37.5610   21.8810   34.3310 C   0  0  0  0  0  0  0  0  0  0  0  0
   36.7910   21.6190   33.1940 C   0  0  0  0  0  0  0  0  0  0  0  0
   36.6820   22.6520   32.2870 N   0  0  0  0  0  0  0  0  0  0  0  0
   37.2760   23.8400   32.4770 C   0  0  0  0  0  0  0  0  0  0  0  0
   38.0260   24.0810   33.5910 N   0  0  0  0  0  0  0  0  0  0  0  0
   37.6380   21.0620   35.0300 H   0  0  0  0  0  0  0  0  0  0  0  0
   36.3030   20.6690   33.0220 H   0  0  0  0  0  0  0  0  0  0  0  0
   37.1670   24.6190   31.7470 H   0  0  0  0  0  0  0  0  0  0  0  0
   37.7530   24.1980   37.6100 C   0  0  0  0  0  0  0  0  0  0  0  0
   36.9420   24.6980   37.0700 H   0  0  0  0  0  0  0  0  0  0  0  0
   38.0790   24.5510   38.7440 O   0  0  0  0  0  0  0  0  0  0  0  0
  1  5  1  0  0  0  0
  1  2  1  0  0  0  0
  2  6  1  1  0  0  0
  2 22  1  0  0  0  0
  2  3  1  0  0  0  0
  3  8  1  0  0  0  0
  3  7  1  0  0  0  0
  4 10  1  0  0  0  0
  4  3  1  0  0  0  0
  5 12  1  0  0  0  0
  5  4  1  0  0  0  0
  9  4  1  0  0  0  0
 11  5  1  0  0  0  0
 13  1  1  0  0  0  0
 14 13  1  0  0  0  0
 14 19  1  0  0  0  0
 15 14  2  0  0  0  0
 16 17  2  0  0  0  0
 16 15  1  0  0  0  0
 17 18  1  0  0  0  0
 18 13  2  0  0  0  0
 20 15  1  0  0  0  0
 21 17  1  0  0  0  0
 22 24  2  0  0  0  0
 23 22  1  0  0  0  0
M  END
>  <minimizedAffinity>
-3.57933116

$$$$

 OpenBabel03272503233D

 24 25  0  0  1  0  0  0  0  0999 V2000
   38.0350   25.8700   33.8990 N   0  0  0  0  0  0  0  0  0  0  0  0
   38.7930   27.0830   34.0960 C   0  0  1  0  0  0  0  0  0  0  0  0
   39.0250   27.0800   35.5930 C   0  0  0  0  0  0  0  0  0  0  0  0
   38.2030   25.9130   36.1500 C   0  0  0  0  0  0  0  0  0  0  0  0
   38.3430   24.9500   34.9930 C   0  0  0  0  0  0  0  0  0  0  0  0
   38.2160   27.9890   33.8570 H   0  0  0  0  0  0  0  0  0  0  0  0
   38.8210   28.0310   36.0810 H   0  0  0  0  0  0  0  0  0  0  0  0
   40.0830   26.7370   35.7340 H   0  0  0  0  0  0  0  0  0  0  0  0
   37.1560   26.2510   36.2120 H   0  0  0  0  0  0  0  0  0  0  0  0
   38.6210   25.4910   37.0620 H   0  0  0  0  0  0  0  0  0  0  0  0
   37.5400   24.1580   35.0500 H   0  0  0  0  0  0  0  0  0  0  0  0
   39.3390   24.5050   34.9290 H   0  0  0  0  0  0  0  0  0  0  0  0
   37.1410   25.5990   32.8380 C   0  0  0  0  0  0  0  0  0  0  0  0
   37.0130   24.2770   32.4210 C   0  0  0  0  0  0  0  0  0  0  0  0
   36.1440   23.9450   31.3770 C   0  0  0  0  0  0  0  0  0  0  0  0
   35.4480   24.9940   30.8150 N   0  0  0  0  0  0  0  0  0  0  0  0
   35.5890   26.2590   31.2380 C   0  0  0  0  0  0  0  0  0  0  0  0
   36.4410   26.5690   32.2580 N   0  0  0  0  0  0  0  0  0  0  0  0
   37.5510   23.4450   32.8500 H   0  0  0  0  0  0  0  0  0  0  0  0
   36.0150   22.9320   31.0210 H   0  0  0  0  0  0  0  0  0  0  0  0
   35.0290   27.0480   30.7740 H   0  0  0  0  0  0  0  0  0  0  0  0
   40.0610   27.0910   33.3330 C   0  0  0  0  0  0  0  0  0  0  0  0
   40.0880   27.0540   32.2390 H   0  0  0  0  0  0  0  0  0  0  0  0
   41.0980   27.1430   33.9960 O   0  0  0  0  0  0  0  0  0  0  0  0
  1  2  1  0  0  0  0
  1  5  1  0  0  0  0
  2  6  1  6  0  0  0
  2  3  1  0  0  0  0
  3  8  1  0  0  0  0
  3  7  1  0  0  0  0
  3  4  1  0  0  0  0
  4  9  1  0  0  0  0
  4 10  1  0  0  0  0
  5 11  1  0  0  0  0
  5  4  1  0  0  0  0
 12  5  1  0  0  0  0
 13  1  1  0  0  0  0
 14 13  1  0  0  0  0
 14 19  1  0  0  0  0
 15 14  2  0  0  0  0
 16 17  2  0  0  0  0
 16 15  1  0  0  0  0
 17 18  1  0  0  0  0
 18 13  2  0  0  0  0
 20 15  1  0  0  0  0
 21 17  1  0  0  0  0
 22 24  2  0  0  0  0
 22  2  1  0  0  0  0
 23 22  1  0  0  0  0
M  END
>  <minimizedAffinity>
-3.57159424

$$$$

 OpenBabel03272503233D

 24 25  0  0  1  0  0  0  0  0999 V2000
   39.2410   25.2410   34.7590 N   0  0  0  0  0  0  0  0  0  0  0  0
   38.1560   25.7960   33.9860 C   0  0  1  0  0  0  0  0  0  0  0  0
   38.8280   26.9450   33.2620 C   0  0  0  0  0  0  0  0  0  0  0  0
   40.2430   27.0450   33.8430 C   0  0  0  0  0  0  0  0  0  0  0  0
   40.5000   25.5770   34.0950 C   0  0  0  0  0  0  0  0  0  0  0  0
   37.3620   26.2260   34.6140 H   0  0  0  0  0  0  0  0  0  0  0  0
   38.2740   27.8820   33.2960 H   0  0  0  0  0  0  0  0  0  0  0  0
   39.0060   26.5820   32.2170 H   0  0  0  0  0  0  0  0  0  0  0  0
   40.1640   27.5670   34.8090 H   0  0  0  0  0  0  0  0  0  0  0  0
   40.9670   27.4530   33.1390 H   0  0  0  0  0  0  0  0  0  0  0  0
   41.3500   25.4540   34.8270 H   0  0  0  0  0  0  0  0  0  0  0  0
   40.6790   25.0120   33.1770 H   0  0  0  0  0  0  0  0  0  0  0  0
   39.1280   24.4990   35.9570 C   0  0  0  0  0  0  0  0  0  0  0  0
   38.1030   24.8400   36.8360 C   0  0  0  0  0  0  0  0  0  0  0  0
   37.9400   24.1420   38.0360 C   0  0  0  0  0  0  0  0  0  0  0  0
   38.8410   23.1250   38.2710 N   0  0  0  0  0  0  0  0  0  0  0  0
   39.8170   22.8170   37.4050 C   0  0  0  0  0  0  0  0  0  0  0  0
   39.9660   23.5060   36.2370 N   0  0  0  0  0  0  0  0  0  0  0  0
   37.3910   25.6340   36.6670 H   0  0  0  0  0  0  0  0  0  0  0  0
   37.1590   24.3740   38.7470 H   0  0  0  0  0  0  0  0  0  0  0  0
   40.4990   22.0180   37.6250 H   0  0  0  0  0  0  0  0  0  0  0  0
   37.5650   24.8150   33.0490 C   0  0  0  0  0  0  0  0  0  0  0  0
   37.2090   23.8320   33.3760 H   0  0  0  0  0  0  0  0  0  0  0  0
   37.4910   25.1600   31.8690 O   0  0  0  0  0  0  0  0  0  0  0  0
  1 13  1  0  0  0  0
  2  6  1  1  0  0  0
  2  1  1  0  0  0  0
  3  7  1  0  0  0  0
  3  4  1  0  0  0  0
  3  2  1  0  0  0  0
  4  5  1  0  0  0  0
  4  9  1  0  0  0  0
  5  1  1  0  0  0  0
  5 11  1  0  0  0  0
  8  3  1  0  0  0  0
 10  4  1  0  0  0  0
 12  5  1  0  0  0  0
 13 18  2  0  0  0  0
 13 14  1  0  0  0  0
 14 15  2  0  0  0  0
 15 16  1  0  0  0  0
 15 20  1  0  0  0  0
 17 21  1  0  0  0  0
 17 16  2  0  0  0  0
 18 17  1  0  0  0  0
 19 14  1  0  0  0  0
 22 23  1  0  0  0  0
 22  2  1  0  0  0  0
 24 22  2  0  0  0  0
M  END
>  <minimizedAffinity>
-3.51930809

$$$$

 OpenBabel03272503233D

 24 25  0  0  1  0  0  0  0  0999 V2000
   36.8590   25.4380   32.5320 N   0  0  0  0  0  0  0  0  0  0  0  0
   36.8680   24.0920   32.0110 C   0  0  1  0  0  0  0  0  0  0  0  0
   35.7050   24.1130   31.0390 C   0  0  0  0  0  0  0  0  0  0  0  0
   35.0140   25.4670   31.2310 C   0  0  0  0  0  0  0  0  0  0  0  0
   36.2290   26.3120   31.5430 C   0  0  0  0  0  0  0  0  0  0  0  0
   36.6370   23.3370   32.7780 H   0  0  0  0  0  0  0  0  0  0  0  0
   35.0320   23.2630   31.1260 H   0  0  0  0  0  0  0  0  0  0  0  0
   36.1650   24.2030   30.0210 H   0  0  0  0  0  0  0  0  0  0  0  0
   34.3890   25.3900   32.1340 H   0  0  0  0  0  0  0  0  0  0  0  0
   34.5120   25.8230   30.3330 H   0  0  0  0  0  0  0  0  0  0  0  0
   35.9130   27.2720   32.0450 H   0  0  0  0  0  0  0  0  0  0  0  0
   36.8500   26.5050   30.6660 H   0  0  0  0  0  0  0  0  0  0  0  0
   37.3660   25.8600   33.7820 C   0  0  0  0  0  0  0  0  0  0  0  0
   37.2490   27.2090   34.1060 C   0  0  0  0  0  0  0  0  0  0  0  0
   37.7320   27.6880   35.3280 C   0  0  0  0  0  0  0  0  0  0  0  0
   38.3100   26.7500   36.1580 N   0  0  0  0  0  0  0  0  0  0  0  0
   38.4070   25.4560   35.8210 C   0  0  0  0  0  0  0  0  0  0  0  0
   37.9330   25.0020   34.6250 N   0  0  0  0  0  0  0  0  0  0  0  0
   36.8010   27.9550   33.4680 H   0  0  0  0  0  0  0  0  0  0  0  0
   37.6620   28.7270   35.6200 H   0  0  0  0  0  0  0  0  0  0  0  0
   38.8640   24.7570   36.4950 H   0  0  0  0  0  0  0  0  0  0  0  0
   38.1450   23.7460   31.3480 C   0  0  0  0  0  0  0  0  0  0  0  0
   39.0620   23.5450   31.9110 H   0  0  0  0  0  0  0  0  0  0  0  0
   38.1260   23.6950   30.1180 O   0  0  0  0  0  0  0  0  0  0  0  0
  1 13  1  0  0  0  0
  2  1  1  0  0  0  0
  2  6  1  1  0  0  0
  3  7  1  0  0  0  0
  3  4  1  0  0  0  0
  3  2  1  0  0  0  0
  4  5  1  0  0  0  0
  4  9  1  0  0  0  0
  5 11  1  0  0  0  0
  5  1  1  0  0  0  0
  8  3  1  0  0  0  0
 10  4  1  0  0  0  0
 12  5  1  0  0  0  0
 13 14  2  0  0  0  0
 13 18  1  0  0  0  0
 14 15  1  0  0  0  0
 15 20  1  0  0  0  0
 15 16  2  0  0  0  0
 17 16  1  0  0  0  0
 17 21  1  0  0  0  0
 18 17  2  0  0  0  0
 19 14  1  0  0  0  0
 22 23  1  0  0  0  0
 22  2  1  0  0  0  0
 24 22  2  0  0  0  0
M  END
>  <minimizedAffinity>
-3.51488304

$$$$
