
 OpenBabel03272503553D

 28 30  0  0  0  0  0  0  0  0999 V2000
   34.9030   29.4430   48.5450 C   0  0  0  0  0  0  0  0  0  0  0  0
   34.0650   28.7730   49.3770 N   0  0  0  0  0  0  0  0  0  0  0  0
   32.9840   28.1240   48.9270 C   0  0  0  0  0  0  0  0  0  0  0  0
   32.6250   28.0710   47.6350 N   0  0  0  0  0  0  0  0  0  0  0  0
   33.4200   28.7180   46.7520 C   0  0  0  0  0  0  0  0  0  0  0  0
   33.0550   28.6660   45.4320 C   0  0  0  0  0  0  0  0  0  0  0  0
   33.8310   29.3110   44.4780 C   0  0  0  0  0  0  0  0  0  0  0  0
   34.9500   29.9820   44.9350 C   0  0  0  0  0  0  0  0  0  0  0  0
   35.2610   29.9970   46.2790 C   0  0  0  0  0  0  0  0  0  0  0  0
   34.5190   29.3730   47.2360 C   0  0  0  0  0  0  0  0  0  0  0  0
   32.3130   27.5850   49.6200 H   0  0  0  0  0  0  0  0  0  0  0  0
   32.1540   28.1170   45.1190 H   0  0  0  0  0  0  0  0  0  0  0  0
   33.5220   29.2540   43.4530 H   0  0  0  0  0  0  0  0  0  0  0  0
   35.5200   30.4690   44.1530 H   0  0  0  0  0  0  0  0  0  0  0  0
   36.1620   30.5570   46.4660 H   0  0  0  0  0  0  0  0  0  0  0  0
   37.5800   30.1730   50.8360 C   0  0  0  0  0  0  0  0  0  0  0  0
   38.3030   31.2440   50.3080 C   0  0  0  0  0  0  0  0  0  0  0  0
   37.8400   31.7390   49.0920 C   0  0  0  0  0  0  0  0  0  0  0  0
   36.7780   31.1670   48.5500 N   0  0  0  0  0  0  0  0  0  0  0  0
   36.0780   30.1580   49.0240 C   0  0  0  0  0  0  0  0  0  0  0  0
   36.5440   29.7120   50.1800 N   0  0  0  0  0  0  0  0  0  0  0  0
   39.1470   31.6390   50.8170 H   0  0  0  0  0  0  0  0  0  0  0  0
   37.9550   29.5660   52.1000 N   0  0  0  0  0  0  0  0  0  0  0  0
   37.3200   30.0340   52.7700 H   0  0  0  0  0  0  0  0  0  0  0  0
   38.7140   28.8560   52.0470 H   0  0  0  0  0  0  0  0  0  0  0  0
   38.4980   32.8400   48.4470 C   0  0  0  0  0  0  0  0  0  0  0  0
   38.4940   32.9430   47.3850 H   0  0  0  0  0  0  0  0  0  0  0  0
   39.1200   33.7590   49.0410 O   0  0  0  0  0  0  0  0  0  0  0  0
  1 20  1  0  0  0  0
  1  2  1  0  0  0  0
  3  2  2  0  0  0  0
  3 11  1  0  0  0  0
  4  3  1  0  0  0  0
  5 10  1  0  0  0  0
  5  4  2  0  0  0  0
  6  5  1  0  0  0  0
  7  8  1  0  0  0  0
  7  6  2  0  0  0  0
  8  9  2  0  0  0  0
  9 15  1  0  0  0  0
  9 10  1  0  0  0  0
 10  1  2  0  0  0  0
 12  6  1  0  0  0  0
 13  7  1  0  0  0  0
 14  8  1  0  0  0  0
 16 23  1  0  0  0  0
 17 22  1  0  0  0  0
 17 16  1  0  0  0  0
 18 17  2  0  0  0  0
 19 20  2  0  0  0  0
 19 18  1  0  0  0  0
 20 21  1  0  0  0  0
 21 16  2  0  0  0  0
 23 24  1  0  0  0  0
 25 23  1  0  0  0  0
 26 28  2  0  0  0  0
 26 18  1  0  0  0  0
 27 26  1  0  0  0  0
M  END
>  <minimizedAffinity>
-5.70652628

>  <minimizedRMSD>
0.097533524

$$$$
