
 OpenBabel03272509393D

 24 25  0  0  0  0  0  0  0  0999 V2000
   38.8360   24.3390   35.4470 C   0  0  0  0  0  0  0  0  0  0  0  0
   39.4000   25.0150   34.3740 C   0  0  0  0  0  0  0  0  0  0  0  0
   39.4400   26.4200   34.3530 C   0  0  0  0  0  0  0  0  0  0  0  0
   38.9170   27.1660   35.4020 C   0  0  0  0  0  0  0  0  0  0  0  0
   38.3640   26.4810   36.4520 C   0  0  0  0  0  0  0  0  0  0  0  0
   38.3350   25.1080   36.4580 C   0  0  0  0  0  0  0  0  0  0  0  0
   39.8070   24.4330   33.5570 H   0  0  0  0  0  0  0  0  0  0  0  0
   39.9020   26.8290   33.4670 H   0  0  0  0  0  0  0  0  0  0  0  0
   38.9720   28.2440   35.3360 H   0  0  0  0  0  0  0  0  0  0  0  0
   37.9740   27.1120   37.2390 H   0  0  0  0  0  0  0  0  0  0  0  0
   37.7240   24.5250   37.6310 C   0  0  0  0  0  0  0  0  0  0  0  0
   36.7850   24.2000   38.0240 H   0  0  0  0  0  0  0  0  0  0  0  0
   38.2700   24.1860   38.7090 O   0  0  0  0  0  0  0  0  0  0  0  0
   38.8030   22.8890   35.4300 C   0  0  0  0  0  0  0  0  0  0  0  0
   39.8420   22.3510   35.9510 O   0  0  0  0  0  0  0  0  0  0  0  0
   35.8090   20.8440   35.4380 C   0  0  0  0  0  0  0  0  0  0  0  0
   35.6040   20.5360   34.1010 C   0  0  0  0  0  0  0  0  0  0  0  0
   36.5070   21.0310   33.1550 C   0  0  0  0  0  0  0  0  0  0  0  0
   37.5640   21.8030   33.5770 N   0  0  0  0  0  0  0  0  0  0  0  0
   37.7200   22.0730   34.8870 C   0  0  0  0  0  0  0  0  0  0  0  0
   36.8520   21.5970   35.7950 N   0  0  0  0  0  0  0  0  0  0  0  0
   35.0670   20.4210   36.0990 H   0  0  0  0  0  0  0  0  0  0  0  0
   34.8020   19.9420   33.7070 H   0  0  0  0  0  0  0  0  0  0  0  0
   36.4730   20.8750   32.0990 H   0  0  0  0  0  0  0  0  0  0  0  0
  1  6  1  0  0  0  0
  2  1  2  0  0  0  0
  3  2  1  0  0  0  0
  3  4  2  0  0  0  0
  4  5  1  0  0  0  0
  5  6  2  0  0  0  0
  5 10  1  0  0  0  0
  6 11  1  0  0  0  0
  7  2  1  0  0  0  0
  8  3  1  0  0  0  0
  9  4  1  0  0  0  0
 11 12  1  0  0  0  0
 11 13  2  0  0  0  0
 14  1  1  0  0  0  0
 14 15  2  0  0  0  0
 16 21  1  0  0  0  0
 16 22  1  0  0  0  0
 17 16  2  0  0  0  0
 18 19  2  0  0  0  0
 18 17  1  0  0  0  0
 19 20  1  0  0  0  0
 20 14  1  0  0  0  0
 20 21  2  0  0  0  0
 23 17  1  0  0  0  0
 24 18  1  0  0  0  0
M  END
>  <minimizedAffinity>
-4.58717012

$$$$

 OpenBabel03272509393D

 24 25  0  0  0  0  0  0  0  0999 V2000
   38.9040   24.3960   35.7600 C   0  0  0  0  0  0  0  0  0  0  0  0
   38.1100   25.3580   36.3710 C   0  0  0  0  0  0  0  0  0  0  0  0
   38.3380   26.7260   36.1440 C   0  0  0  0  0  0  0  0  0  0  0  0
   39.3610   27.1510   35.3060 C   0  0  0  0  0  0  0  0  0  0  0  0
   40.1340   26.1890   34.7120 C   0  0  0  0  0  0  0  0  0  0  0  0
   39.8970   24.8550   34.9430 C   0  0  0  0  0  0  0  0  0  0  0  0
   37.3130   25.0250   37.0240 H   0  0  0  0  0  0  0  0  0  0  0  0
   37.6570   27.3740   36.6740 H   0  0  0  0  0  0  0  0  0  0  0  0
   39.4940   28.2150   35.1660 H   0  0  0  0  0  0  0  0  0  0  0  0
   40.9140   26.5770   34.0700 H   0  0  0  0  0  0  0  0  0  0  0  0
   40.7910   23.9570   34.2470 C   0  0  0  0  0  0  0  0  0  0  0  0
   40.9590   22.9220   34.0400 H   0  0  0  0  0  0  0  0  0  0  0  0
   41.8080   24.2380   33.5680 O   0  0  0  0  0  0  0  0  0  0  0  0
   38.6470   22.9940   36.0250 C   0  0  0  0  0  0  0  0  0  0  0  0
   39.3920   22.5060   36.9450 O   0  0  0  0  0  0  0  0  0  0  0  0
   35.7520   20.8440   35.6510 C   0  0  0  0  0  0  0  0  0  0  0  0
   35.6770   20.6080   34.2860 C   0  0  0  0  0  0  0  0  0  0  0  0
   36.6370   21.1900   33.4540 C   0  0  0  0  0  0  0  0  0  0  0  0
   37.6210   21.9740   34.0110 N   0  0  0  0  0  0  0  0  0  0  0  0
   37.6500   22.1730   35.3430 C   0  0  0  0  0  0  0  0  0  0  0  0
   36.7270   21.6120   36.1420 N   0  0  0  0  0  0  0  0  0  0  0  0
   34.9730   20.3560   36.2200 H   0  0  0  0  0  0  0  0  0  0  0  0
   34.9380   20.0100   33.7900 H   0  0  0  0  0  0  0  0  0  0  0  0
   36.7020   21.0960   32.3930 H   0  0  0  0  0  0  0  0  0  0  0  0
  1 14  1  0  0  0  0
  1  2  1  0  0  0  0
  2  7  1  0  0  0  0
  3  2  2  0  0  0  0
  3  8  1  0  0  0  0
  4  3  1  0  0  0  0
  5  6  1  0  0  0  0
  5  4  2  0  0  0  0
  6  1  2  0  0  0  0
  9  4  1  0  0  0  0
 10  5  1  0  0  0  0
 11  6  1  0  0  0  0
 12 11  1  0  0  0  0
 13 11  2  0  0  0  0
 14 15  2  0  0  0  0
 16 21  1  0  0  0  0
 16 22  1  0  0  0  0
 17 16  2  0  0  0  0
 18 19  2  0  0  0  0
 18 17  1  0  0  0  0
 19 20  1  0  0  0  0
 20 14  1  0  0  0  0
 20 21  2  0  0  0  0
 23 17  1  0  0  0  0
 24 18  1  0  0  0  0
M  END
>  <minimizedAffinity>
-4.50119638

$$$$

 OpenBabel03272509393D

 24 25  0  0  0  0  0  0  0  0999 V2000
   38.2410   24.3830   34.7230 C   0  0  0  0  0  0  0  0  0  0  0  0
   38.3310   23.0150   34.9410 C   0  0  0  0  0  0  0  0  0  0  0  0
   38.2760   22.4910   36.2440 C   0  0  0  0  0  0  0  0  0  0  0  0
   38.1330   23.3260   37.3450 C   0  0  0  0  0  0  0  0  0  0  0  0
   38.0470   24.6730   37.1110 C   0  0  0  0  0  0  0  0  0  0  0  0
   38.1000   25.1690   35.8310 C   0  0  0  0  0  0  0  0  0  0  0  0
   38.4410   22.3650   34.0830 H   0  0  0  0  0  0  0  0  0  0  0  0
   38.3560   21.4150   36.2840 H   0  0  0  0  0  0  0  0  0  0  0  0
   38.0980   22.8720   38.3260 H   0  0  0  0  0  0  0  0  0  0  0  0
   37.9370   25.2740   38.0040 H   0  0  0  0  0  0  0  0  0  0  0  0
   37.9940   26.6080   35.7390 C   0  0  0  0  0  0  0  0  0  0  0  0
   37.2860   27.3980   35.6200 H   0  0  0  0  0  0  0  0  0  0  0  0
   38.9110   27.4630   35.7880 O   0  0  0  0  0  0  0  0  0  0  0  0
   38.3110   24.8890   33.3660 C   0  0  0  0  0  0  0  0  0  0  0  0
   39.5080   25.1220   32.9720 O   0  0  0  0  0  0  0  0  0  0  0  0
   35.5080   24.0900   31.2090 C   0  0  0  0  0  0  0  0  0  0  0  0
   34.9950   25.3270   30.8480 C   0  0  0  0  0  0  0  0  0  0  0  0
   35.6120   26.4790   31.3430 C   0  0  0  0  0  0  0  0  0  0  0  0
   36.7040   26.3510   32.1690 N   0  0  0  0  0  0  0  0  0  0  0  0
   37.1660   25.1270   32.4910 C   0  0  0  0  0  0  0  0  0  0  0  0
   36.5720   24.0210   32.0140 N   0  0  0  0  0  0  0  0  0  0  0  0
   34.9720   23.2550   30.7820 H   0  0  0  0  0  0  0  0  0  0  0  0
   34.1480   25.4950   30.2110 H   0  0  0  0  0  0  0  0  0  0  0  0
   35.3260   27.4880   31.1500 H   0  0  0  0  0  0  0  0  0  0  0  0
  1  2  2  0  0  0  0
  1  6  1  0  0  0  0
  2  3  1  0  0  0  0
  3  8  1  0  0  0  0
  3  4  2  0  0  0  0
  4  9  1  0  0  0  0
  5  4  1  0  0  0  0
  5 10  1  0  0  0  0
  6  5  2  0  0  0  0
  7  2  1  0  0  0  0
 11 13  2  0  0  0  0
 11  6  1  0  0  0  0
 12 11  1  0  0  0  0
 14  1  1  0  0  0  0
 15 14  2  0  0  0  0
 16 21  1  0  0  0  0
 17 16  2  0  0  0  0
 17 18  1  0  0  0  0
 18 19  2  0  0  0  0
 19 20  1  0  0  0  0
 20 14  1  0  0  0  0
 21 20  2  0  0  0  0
 22 16  1  0  0  0  0
 23 17  1  0  0  0  0
 24 18  1  0  0  0  0
M  END
>  <minimizedAffinity>
-4.43256712

$$$$

 OpenBabel03272509393D

 24 25  0  0  0  0  0  0  0  0999 V2000
   39.3090   24.4730   35.3620 C   0  0  0  0  0  0  0  0  0  0  0  0
   40.0370   25.3920   34.6170 C   0  0  0  0  0  0  0  0  0  0  0  0
   39.8300   26.7720   34.7820 C   0  0  0  0  0  0  0  0  0  0  0  0
   38.8940   27.2520   35.6900 C   0  0  0  0  0  0  0  0  0  0  0  0
   38.1850   26.3300   36.4160 C   0  0  0  0  0  0  0  0  0  0  0  0
   38.4010   24.9840   36.2440 C   0  0  0  0  0  0  0  0  0  0  0  0
   40.7650   25.0170   33.9110 H   0  0  0  0  0  0  0  0  0  0  0  0
   40.4540   27.3840   34.1490 H   0  0  0  0  0  0  0  0  0  0  0  0
   38.7730   28.3230   35.7780 H   0  0  0  0  0  0  0  0  0  0  0  0
   37.4730   26.7610   37.1060 H   0  0  0  0  0  0  0  0  0  0  0  0
   37.5830   24.1340   37.0780 C   0  0  0  0  0  0  0  0  0  0  0  0
   36.6480   23.6160   37.1010 H   0  0  0  0  0  0  0  0  0  0  0  0
   37.8260   23.7040   38.2320 O   0  0  0  0  0  0  0  0  0  0  0  0
   39.5410   23.0560   35.1580 C   0  0  0  0  0  0  0  0  0  0  0  0
   38.6980   22.5120   34.3620 O   0  0  0  0  0  0  0  0  0  0  0  0
   42.6140   21.1420   35.3560 C   0  0  0  0  0  0  0  0  0  0  0  0
   42.7270   20.8180   36.7000 C   0  0  0  0  0  0  0  0  0  0  0  0
   41.7320   21.2540   37.5790 C   0  0  0  0  0  0  0  0  0  0  0  0
   40.6780   21.9880   37.0860 N   0  0  0  0  0  0  0  0  0  0  0  0
   40.6130   22.2770   35.7720 C   0  0  0  0  0  0  0  0  0  0  0  0
   41.5700   21.8570   34.9280 N   0  0  0  0  0  0  0  0  0  0  0  0
   43.4240   20.7650   34.7480 H   0  0  0  0  0  0  0  0  0  0  0  0
   43.5210   20.2510   37.1470 H   0  0  0  0  0  0  0  0  0  0  0  0
   41.6900   21.0800   38.6310 H   0  0  0  0  0  0  0  0  0  0  0  0
  1  6  1  0  0  0  0
  2  3  1  0  0  0  0
  2  1  2  0  0  0  0
  3  4  2  0  0  0  0
  4  9  1  0  0  0  0
  4  5  1  0  0  0  0
  5 10  1  0  0  0  0
  6  5  2  0  0  0  0
  6 11  1  0  0  0  0
  7  2  1  0  0  0  0
  8  3  1  0  0  0  0
 11 12  1  0  0  0  0
 11 13  2  0  0  0  0
 14  1  1  0  0  0  0
 14 20  1  0  0  0  0
 15 14  2  0  0  0  0
 16 17  1  0  0  0  0
 17 23  1  0  0  0  0
 17 18  2  0  0  0  0
 18 24  1  0  0  0  0
 19 18  1  0  0  0  0
 20 19  2  0  0  0  0
 21 16  2  0  0  0  0
 21 20  1  0  0  0  0
 22 16  1  0  0  0  0
M  END
>  <minimizedAffinity>
-4.3744092

$$$$

 OpenBabel03272509393D

 24 25  0  0  0  0  0  0  0  0999 V2000
   38.8240   24.3170   35.8960 C   0  0  0  0  0  0  0  0  0  0  0  0
   37.9390   24.7740   36.8640 C   0  0  0  0  0  0  0  0  0  0  0  0
   37.9830   24.2650   38.1730 C   0  0  0  0  0  0  0  0  0  0  0  0
   38.9090   23.2940   38.5330 C   0  0  0  0  0  0  0  0  0  0  0  0
   39.7740   22.8550   37.5650 C   0  0  0  0  0  0  0  0  0  0  0  0
   39.7190   23.3640   36.2900 C   0  0  0  0  0  0  0  0  0  0  0  0
   37.2180   25.5310   36.5830 H   0  0  0  0  0  0  0  0  0  0  0  0
   37.2460   24.6980   38.8330 H   0  0  0  0  0  0  0  0  0  0  0  0
   38.9000   22.9360   39.5530 H   0  0  0  0  0  0  0  0  0  0  0  0
   40.4720   22.1000   37.9010 H   0  0  0  0  0  0  0  0  0  0  0  0
   40.6940   22.8080   35.3790 C   0  0  0  0  0  0  0  0  0  0  0  0
   41.7100   22.9090   35.0610 H   0  0  0  0  0  0  0  0  0  0  0  0
   40.5530   21.8670   34.5620 O   0  0  0  0  0  0  0  0  0  0  0  0
   38.7430   24.8570   34.5530 C   0  0  0  0  0  0  0  0  0  0  0  0
   39.5810   25.8010   34.3340 O   0  0  0  0  0  0  0  0  0  0  0  0
   36.3050   25.1200   31.8820 C   0  0  0  0  0  0  0  0  0  0  0  0
   36.0560   23.8040   31.5190 C   0  0  0  0  0  0  0  0  0  0  0  0
   36.7290   22.7840   32.1970 C   0  0  0  0  0  0  0  0  0  0  0  0
   37.6130   23.1150   33.1980 N   0  0  0  0  0  0  0  0  0  0  0  0
   37.8200   24.4080   33.5140 C   0  0  0  0  0  0  0  0  0  0  0  0
   37.1730   25.3870   32.8620 N   0  0  0  0  0  0  0  0  0  0  0  0
   35.7430   25.8430   31.3090 H   0  0  0  0  0  0  0  0  0  0  0  0
   35.3810   23.4800   30.7500 H   0  0  0  0  0  0  0  0  0  0  0  0
   36.6360   21.7350   32.0240 H   0  0  0  0  0  0  0  0  0  0  0  0
  1  6  2  0  0  0  0
  1  2  1  0  0  0  0
  2  3  2  0  0  0  0
  3  4  1  0  0  0  0
  3  8  1  0  0  0  0
  4  9  1  0  0  0  0
  5 10  1  0  0  0  0
  5  4  2  0  0  0  0
  6  5  1  0  0  0  0
  7  2  1  0  0  0  0
 11  6  1  0  0  0  0
 12 11  1  0  0  0  0
 13 11  2  0  0  0  0
 14  1  1  0  0  0  0
 15 14  2  0  0  0  0
 16 21  1  0  0  0  0
 17 16  2  0  0  0  0
 17 18  1  0  0  0  0
 18 19  2  0  0  0  0
 19 20  1  0  0  0  0
 20 14  1  0  0  0  0
 21 20  2  0  0  0  0
 22 16  1  0  0  0  0
 23 17  1  0  0  0  0
 24 18  1  0  0  0  0
M  END
>  <minimizedAffinity>
-4.35797548

$$$$

 OpenBabel03272509393D

 24 25  0  0  0  0  0  0  0  0999 V2000
   35.0040   30.5740   34.7250 C   0  0  0  0  0  0  0  0  0  0  0  0
   35.7960   31.4350   35.4740 C   0  0  0  0  0  0  0  0  0  0  0  0
   35.2820   32.0690   36.6190 C   0  0  0  0  0  0  0  0  0  0  0  0
   33.9720   31.8530   37.0290 C   0  0  0  0  0  0  0  0  0  0  0  0
   33.2060   31.0020   36.2770 C   0  0  0  0  0  0  0  0  0  0  0  0
   33.7240   30.3880   35.1620 C   0  0  0  0  0  0  0  0  0  0  0  0
   36.8160   31.6020   35.1550 H   0  0  0  0  0  0  0  0  0  0  0  0
   35.9920   32.7120   37.1160 H   0  0  0  0  0  0  0  0  0  0  0  0
   33.6250   32.3660   37.9150 H   0  0  0  0  0  0  0  0  0  0  0  0
   32.1960   30.8710   36.6420 H   0  0  0  0  0  0  0  0  0  0  0  0
   32.8000   29.5170   34.4720 C   0  0  0  0  0  0  0  0  0  0  0  0
   32.7450   28.5900   33.9420 H   0  0  0  0  0  0  0  0  0  0  0  0
   31.5690   29.6720   34.2880 O   0  0  0  0  0  0  0  0  0  0  0  0
   35.5640   29.9460   33.5450 C   0  0  0  0  0  0  0  0  0  0  0  0
   35.5120   30.6870   32.5010 O   0  0  0  0  0  0  0  0  0  0  0  0
   37.1120   26.9060   34.7740 C   0  0  0  0  0  0  0  0  0  0  0  0
   37.2480   26.1130   33.6440 C   0  0  0  0  0  0  0  0  0  0  0  0
   36.8080   26.6160   32.4170 C   0  0  0  0  0  0  0  0  0  0  0  0
   36.2550   27.8750   32.3680 N   0  0  0  0  0  0  0  0  0  0  0  0
   36.1440   28.6060   33.4940 C   0  0  0  0  0  0  0  0  0  0  0  0
   36.5680   28.1210   34.6730 N   0  0  0  0  0  0  0  0  0  0  0  0
   37.4780   26.4410   35.6780 H   0  0  0  0  0  0  0  0  0  0  0  0
   37.6690   25.1260   33.6140 H   0  0  0  0  0  0  0  0  0  0  0  0
   36.8500   26.1200   31.4730 H   0  0  0  0  0  0  0  0  0  0  0  0
  1  6  2  0  0  0  0
  1  2  1  0  0  0  0
  2  3  2  0  0  0  0
  3  4  1  0  0  0  0
  3  8  1  0  0  0  0
  4  9  1  0  0  0  0
  5 10  1  0  0  0  0
  5  4  2  0  0  0  0
  6  5  1  0  0  0  0
  7  2  1  0  0  0  0
 11  6  1  0  0  0  0
 12 11  1  0  0  0  0
 13 11  2  0  0  0  0
 14  1  1  0  0  0  0
 15 14  2  0  0  0  0
 16 22  1  0  0  0  0
 17 16  2  0  0  0  0
 18 17  1  0  0  0  0
 19 18  2  0  0  0  0
 19 20  1  0  0  0  0
 20 14  1  0  0  0  0
 20 21  2  0  0  0  0
 21 16  1  0  0  0  0
 23 17  1  0  0  0  0
 24 18  1  0  0  0  0
M  END
>  <minimizedAffinity>
-4.2654438

$$$$

 OpenBabel03272509393D

 24 25  0  0  0  0  0  0  0  0999 V2000
   38.2160   25.1580   35.4960 C   0  0  0  0  0  0  0  0  0  0  0  0
   38.2060   26.3830   36.1510 C   0  0  0  0  0  0  0  0  0  0  0  0
   37.8700   27.5600   35.4610 C   0  0  0  0  0  0  0  0  0  0  0  0
   37.5420   27.5310   34.1110 C   0  0  0  0  0  0  0  0  0  0  0  0
   37.5580   26.3130   33.4830 C   0  0  0  0  0  0  0  0  0  0  0  0
   37.8870   25.1710   34.1720 C   0  0  0  0  0  0  0  0  0  0  0  0
   38.4610   26.4050   37.2020 H   0  0  0  0  0  0  0  0  0  0  0  0
   37.8970   28.4470   36.0760 H   0  0  0  0  0  0  0  0  0  0  0  0
   37.2920   28.4650   33.6280 H   0  0  0  0  0  0  0  0  0  0  0  0
   37.2940   26.3500   32.4340 H   0  0  0  0  0  0  0  0  0  0  0  0
   37.8580   23.9620   33.3790 C   0  0  0  0  0  0  0  0  0  0  0  0
   38.3370   23.0140   33.2640 H   0  0  0  0  0  0  0  0  0  0  0  0
   37.0960   23.6710   32.4260 O   0  0  0  0  0  0  0  0  0  0  0  0
   38.5780   23.9640   36.2370 C   0  0  0  0  0  0  0  0  0  0  0  0
   37.5860   23.4190   36.8370 O   0  0  0  0  0  0  0  0  0  0  0  0
   41.2210   21.7450   37.3470 C   0  0  0  0  0  0  0  0  0  0  0  0
   42.3370   22.1660   36.6400 C   0  0  0  0  0  0  0  0  0  0  0  0
   42.2030   23.2400   35.7550 C   0  0  0  0  0  0  0  0  0  0  0  0
   40.9750   23.8420   35.6150 N   0  0  0  0  0  0  0  0  0  0  0  0
   39.9210   23.3970   36.3240 C   0  0  0  0  0  0  0  0  0  0  0  0
   40.0510   22.3650   37.1750 N   0  0  0  0  0  0  0  0  0  0  0  0
   41.4140   20.9120   38.0080 H   0  0  0  0  0  0  0  0  0  0  0  0
   43.3210   21.7400   36.7030 H   0  0  0  0  0  0  0  0  0  0  0  0
   42.9720   23.6660   35.1500 H   0  0  0  0  0  0  0  0  0  0  0  0
  1  2  1  0  0  0  0
  1 14  1  0  0  0  0
  2  7  1  0  0  0  0
  3  8  1  0  0  0  0
  3  2  2  0  0  0  0
  4  3  1  0  0  0  0
  5  4  2  0  0  0  0
  5  6  1  0  0  0  0
  6  1  2  0  0  0  0
  9  4  1  0  0  0  0
 10  5  1  0  0  0  0
 11  6  1  0  0  0  0
 12 11  1  0  0  0  0
 13 11  2  0  0  0  0
 14 20  1  0  0  0  0
 14 15  2  0  0  0  0
 16 22  1  0  0  0  0
 17 23  1  0  0  0  0
 17 16  2  0  0  0  0
 18 17  1  0  0  0  0
 19 18  2  0  0  0  0
 19 20  1  0  0  0  0
 20 21  2  0  0  0  0
 21 16  1  0  0  0  0
 24 18  1  0  0  0  0
M  END
>  <minimizedAffinity>
-4.26532364

$$$$

 OpenBabel03272509393D

 24 25  0  0  0  0  0  0  0  0999 V2000
   38.8380   26.8900   33.3650 C   0  0  0  0  0  0  0  0  0  0  0  0
   39.7730   27.2340   32.3980 C   0  0  0  0  0  0  0  0  0  0  0  0
   41.1440   27.2650   32.7060 C   0  0  0  0  0  0  0  0  0  0  0  0
   41.5980   26.9550   33.9820 C   0  0  0  0  0  0  0  0  0  0  0  0
   40.6600   26.6180   34.9230 C   0  0  0  0  0  0  0  0  0  0  0  0
   39.3240   26.5910   34.6050 C   0  0  0  0  0  0  0  0  0  0  0  0
   39.4190   27.4750   31.4040 H   0  0  0  0  0  0  0  0  0  0  0  0
   41.7710   27.5460   31.8730 H   0  0  0  0  0  0  0  0  0  0  0  0
   42.6630   26.9940   34.1670 H   0  0  0  0  0  0  0  0  0  0  0  0
   41.0700   26.3860   35.8970 H   0  0  0  0  0  0  0  0  0  0  0  0
   38.4540   26.2170   35.6970 C   0  0  0  0  0  0  0  0  0  0  0  0
   37.9380   26.6160   36.5440 H   0  0  0  0  0  0  0  0  0  0  0  0
   37.9940   25.0830   35.9760 O   0  0  0  0  0  0  0  0  0  0  0  0
   37.4300   26.8790   33.0140 C   0  0  0  0  0  0  0  0  0  0  0  0
   36.8190   27.9580   33.3330 O   0  0  0  0  0  0  0  0  0  0  0  0
   35.0130   25.2330   30.8720 C   0  0  0  0  0  0  0  0  0  0  0  0
   35.2900   23.8820   31.0220 C   0  0  0  0  0  0  0  0  0  0  0  0
   36.3270   23.5030   31.8790 C   0  0  0  0  0  0  0  0  0  0  0  0
   37.0370   24.4770   32.5420 N   0  0  0  0  0  0  0  0  0  0  0  0
   36.7300   25.7760   32.3630 C   0  0  0  0  0  0  0  0  0  0  0  0
   35.7320   26.1380   31.5390 N   0  0  0  0  0  0  0  0  0  0  0  0
   34.1970   25.4370   30.1930 H   0  0  0  0  0  0  0  0  0  0  0  0
   34.7760   23.0760   30.5350 H   0  0  0  0  0  0  0  0  0  0  0  0
   36.6480   22.5070   32.0890 H   0  0  0  0  0  0  0  0  0  0  0  0
  1  6  1  0  0  0  0
  2  3  1  0  0  0  0
  2  1  2  0  0  0  0
  3  4  2  0  0  0  0
  4  9  1  0  0  0  0
  4  5  1  0  0  0  0
  5 10  1  0  0  0  0
  6  5  2  0  0  0  0
  6 11  1  0  0  0  0
  7  2  1  0  0  0  0
  8  3  1  0  0  0  0
 11 13  2  0  0  0  0
 11 12  1  0  0  0  0
 14 15  2  0  0  0  0
 14  1  1  0  0  0  0
 16 17  2  0  0  0  0
 16 21  1  0  0  0  0
 17 18  1  0  0  0  0
 18 24  1  0  0  0  0
 18 19  2  0  0  0  0
 20 19  1  0  0  0  0
 20 14  1  0  0  0  0
 21 20  2  0  0  0  0
 22 16  1  0  0  0  0
 23 17  1  0  0  0  0
M  END
>  <minimizedAffinity>
-4.25349808

$$$$

 OpenBabel03272509393D

 24 25  0  0  0  0  0  0  0  0999 V2000
   39.0500   27.1620   32.7300 C   0  0  0  0  0  0  0  0  0  0  0  0
   40.1370   27.2110   31.8670 C   0  0  0  0  0  0  0  0  0  0  0  0
   41.4490   27.1230   32.3630 C   0  0  0  0  0  0  0  0  0  0  0  0
   41.6930   26.9870   33.7240 C   0  0  0  0  0  0  0  0  0  0  0  0
   40.6070   26.9420   34.5590 C   0  0  0  0  0  0  0  0  0  0  0  0
   39.3310   27.0270   34.0590 C   0  0  0  0  0  0  0  0  0  0  0  0
   39.9470   27.3160   30.8070 H   0  0  0  0  0  0  0  0  0  0  0  0
   42.2080   27.1720   31.5960 H   0  0  0  0  0  0  0  0  0  0  0  0
   42.7210   26.9250   34.0530 H   0  0  0  0  0  0  0  0  0  0  0  0
   40.8560   26.8350   35.6070 H   0  0  0  0  0  0  0  0  0  0  0  0
   38.2880   26.9620   35.0580 C   0  0  0  0  0  0  0  0  0  0  0  0
   37.6630   26.2740   35.5850 H   0  0  0  0  0  0  0  0  0  0  0  0
   37.7480   27.9040   35.6850 O   0  0  0  0  0  0  0  0  0  0  0  0
   37.7100   27.2660   32.1840 C   0  0  0  0  0  0  0  0  0  0  0  0
   37.3110   28.4750   32.0420 O   0  0  0  0  0  0  0  0  0  0  0  0
   36.6510   23.8110   31.8830 C   0  0  0  0  0  0  0  0  0  0  0  0
   35.4250   23.8870   31.2390 C   0  0  0  0  0  0  0  0  0  0  0  0
   34.9300   25.1450   30.8870 C   0  0  0  0  0  0  0  0  0  0  0  0
   35.6710   26.2640   31.1890 N   0  0  0  0  0  0  0  0  0  0  0  0
   36.8570   26.1390   31.8150 C   0  0  0  0  0  0  0  0  0  0  0  0
   37.3310   24.9280   32.1530 N   0  0  0  0  0  0  0  0  0  0  0  0
   36.9580   22.8020   32.1180 H   0  0  0  0  0  0  0  0  0  0  0  0
   34.7990   23.0550   30.9770 H   0  0  0  0  0  0  0  0  0  0  0  0
   34.0080   25.3520   30.3920 H   0  0  0  0  0  0  0  0  0  0  0  0
  1  6  1  0  0  0  0
  2  3  1  0  0  0  0
  2  1  2  0  0  0  0
  3  4  2  0  0  0  0
  4  9  1  0  0  0  0
  4  5  1  0  0  0  0
  5 10  1  0  0  0  0
  6  5  2  0  0  0  0
  6 11  1  0  0  0  0
  7  2  1  0  0  0  0
  8  3  1  0  0  0  0
 11 12  1  0  0  0  0
 11 13  2  0  0  0  0
 14  1  1  0  0  0  0
 15 14  2  0  0  0  0
 16 22  1  0  0  0  0
 16 21  1  0  0  0  0
 17 16  2  0  0  0  0
 18 19  2  0  0  0  0
 18 17  1  0  0  0  0
 19 20  1  0  0  0  0
 20 21  2  0  0  0  0
 20 14  1  0  0  0  0
 23 17  1  0  0  0  0
 24 18  1  0  0  0  0
M  END
>  <minimizedAffinity>
-4.24487114

$$$$
