
 OpenBabel03272510223D

 25 27  0  0  0  0  0  0  0  0999 V2000
   36.2660   30.2120   46.8630 C   0  0  0  0  0  0  0  0  0  0  0  0
   37.0910   30.7590   47.8230 C   0  0  0  0  0  0  0  0  0  0  0  0
   38.0760   31.6450   47.4630 C   0  0  0  0  0  0  0  0  0  0  0  0
   38.2050   31.9640   46.1170 C   0  0  0  0  0  0  0  0  0  0  0  0
   39.1020   32.8120   45.5350 N   0  0  0  0  0  0  0  0  0  0  0  0
   38.8390   32.7950   44.2170 C   0  0  0  0  0  0  0  0  0  0  0  0
   37.8170   31.9750   43.9480 N   0  0  0  0  0  0  0  0  0  0  0  0
   37.3960   31.4390   45.1110 C   0  0  0  0  0  0  0  0  0  0  0  0
   36.4090   30.5440   45.5100 C   0  0  0  0  0  0  0  0  0  0  0  0
   35.4650   29.5070   47.0510 H   0  0  0  0  0  0  0  0  0  0  0  0
   38.7260   32.0780   48.2030 H   0  0  0  0  0  0  0  0  0  0  0  0
   39.8450   33.3620   46.0220 H   0  0  0  0  0  0  0  0  0  0  0  0
   35.7720   30.1260   44.7510 H   0  0  0  0  0  0  0  0  0  0  0  0
   37.4350   30.1540   51.5210 C   0  0  0  0  0  0  0  0  0  0  0  0
   37.7480   30.5850   50.2330 C   0  0  0  0  0  0  0  0  0  0  0  0
   36.8640   30.3520   49.2010 C   0  0  0  0  0  0  0  0  0  0  0  0
   35.7030   29.7000   49.4840 N   0  0  0  0  0  0  0  0  0  0  0  0
   35.4050   29.2820   50.7460 C   0  0  0  0  0  0  0  0  0  0  0  0
   36.2650   29.5080   51.7520 N   0  0  0  0  0  0  0  0  0  0  0  0
   38.1280   30.3400   52.3170 H   0  0  0  0  0  0  0  0  0  0  0  0
   38.6600   31.0940   50.0290 H   0  0  0  0  0  0  0  0  0  0  0  0
   34.4800   28.7650   50.9560 H   0  0  0  0  0  0  0  0  0  0  0  0
   39.5260   33.5380   43.1680 C   0  0  0  0  0  0  0  0  0  0  0  0
   40.4450   34.0830   43.2920 H   0  0  0  0  0  0  0  0  0  0  0  0
   39.1130   33.6270   41.9710 O   0  0  0  0  0  0  0  0  0  0  0  0
  1 10  1  0  0  0  0
  1  2  1  0  0  0  0
  2 16  1  0  0  0  0
  3  2  2  0  0  0  0
  3 11  1  0  0  0  0
  4  3  1  0  0  0  0
  5 12  1  0  0  0  0
  5  4  1  0  0  0  0
  6  5  1  0  0  0  0
  7  6  2  0  0  0  0
  7  8  1  0  0  0  0
  8  9  1  0  0  0  0
  8  4  2  0  0  0  0
  9  1  2  0  0  0  0
 13  9  1  0  0  0  0
 14 19  1  0  0  0  0
 14 20  1  0  0  0  0
 15 14  2  0  0  0  0
 16 17  2  0  0  0  0
 16 15  1  0  0  0  0
 17 18  1  0  0  0  0
 18 22  1  0  0  0  0
 18 19  2  0  0  0  0
 21 15  1  0  0  0  0
 23 24  1  0  0  0  0
 23  6  1  0  0  0  0
 25 23  2  0  0  0  0
M  END
>  <minimizedAffinity>
-5.17200232

>  <minimizedRMSD>
1.12757707

$$$$
