
 OpenBabel03272510003D

 15 15  0  0  0  0  0  0  0  0999 V2000
   38.2980   31.2970   50.0990 C   0  0  0  0  0  0  0  0  0  0  0  0
   38.3870   31.5040   48.7200 C   0  0  0  0  0  0  0  0  0  0  0  0
   37.3730   30.9810   47.9300 C   0  0  0  0  0  0  0  0  0  0  0  0
   36.3630   30.3030   48.5390 N   0  0  0  0  0  0  0  0  0  0  0  0
   36.3180   30.1290   49.8670 C   0  0  0  0  0  0  0  0  0  0  0  0
   37.2780   30.6210   50.6480 N   0  0  0  0  0  0  0  0  0  0  0  0
   39.0730   31.6920   50.7530 H   0  0  0  0  0  0  0  0  0  0  0  0
   39.2150   32.0530   48.2730 H   0  0  0  0  0  0  0  0  0  0  0  0
   35.1540   29.3670   50.4060 C   0  0  0  0  0  0  0  0  0  0  0  0
   35.2790   29.1230   51.7670 F   0  0  0  0  0  0  0  0  0  0  0  0
   33.9700   30.0780   50.2560 F   0  0  0  0  0  0  0  0  0  0  0  0
   34.9440   28.1630   49.8010 F   0  0  0  0  0  0  0  0  0  0  0  0
   37.3950   31.1540   46.4890 C   0  0  0  0  0  0  0  0  0  0  0  0
   36.9650   30.3810   45.8650 H   0  0  0  0  0  0  0  0  0  0  0  0
   37.9020   32.1820   45.9810 O   0  0  0  0  0  0  0  0  0  0  0  0
  1  6  1  0  0  0  0
  1  7  1  0  0  0  0
  2  1  2  0  0  0  0
  3  4  2  0  0  0  0
  3  2  1  0  0  0  0
  4  5  1  0  0  0  0
  5  9  1  0  0  0  0
  5  6  2  0  0  0  0
  8  2  1  0  0  0  0
  9 10  1  0  0  0  0
 11  9  1  0  0  0  0
 12  9  1  0  0  0  0
 13  3  1  0  0  0  0
 14 13  1  0  0  0  0
 15 13  2  0  0  0  0
M  END
>  <minimizedAffinity>
-4.48781395

>  <minimizedRMSD>
0.29922539

$$$$
