
 OpenBabel03272508363D

 38 40  0  0  1  0  0  0  0  0999 V2000
   39.7170   32.8110   45.6130 C   0  0  0  0  0  0  0  0  0  0  0  0
   40.2900   33.3750   46.4060 H   0  0  0  0  0  0  0  0  0  0  0  0
   39.1300   33.5910   45.1390 H   0  0  0  0  0  0  0  0  0  0  0  0
   37.6920   30.9880   47.9450 C   0  0  0  0  0  0  0  0  0  0  0  0
   36.9680   30.8520   46.8020 C   0  0  0  0  0  0  0  0  0  0  0  0
   37.6380   31.5110   45.7900 C   0  0  0  0  0  0  0  0  0  0  0  0
   38.7430   32.0210   46.3560 N   0  0  0  0  0  0  0  0  0  0  0  0
   38.7620   31.7000   47.6450 N   0  0  0  0  0  0  0  0  0  0  0  0
   36.0100   30.2990   46.7300 H   0  0  0  0  0  0  0  0  0  0  0  0
   37.1460   31.4680   44.8410 H   0  0  0  0  0  0  0  0  0  0  0  0
   37.4020   30.1360   51.6060 C   0  0  0  0  0  0  0  0  0  0  0  0
   37.9190   30.6580   50.4350 C   0  0  0  0  0  0  0  0  0  0  0  0
   37.2630   30.4600   49.2310 C   0  0  0  0  0  0  0  0  0  0  0  0
   36.1210   29.7360   49.3200 N   0  0  0  0  0  0  0  0  0  0  0  0
   35.6220   29.2300   50.4640 C   0  0  0  0  0  0  0  0  0  0  0  0
   36.2800   29.4410   51.6040 N   0  0  0  0  0  0  0  0  0  0  0  0
   37.9470   30.3140   52.5300 H   0  0  0  0  0  0  0  0  0  0  0  0
   38.8380   31.2340   50.3990 H   0  0  0  0  0  0  0  0  0  0  0  0
   34.6900   28.6560   50.4390 H   0  0  0  0  0  0  0  0  0  0  0  0
   40.6480   31.9560   44.9120 C   0  0  0  0  0  0  0  0  0  0  0  0
   41.6890   32.3420   44.9720 H   0  0  0  0  0  0  0  0  0  0  0  0
   40.7030   30.9660   45.4550 H   0  0  0  0  0  0  0  0  0  0  0  0
   40.4000   31.6510   43.5610 N   0  0  0  0  0  0  0  0  0  0  0  0
   39.6220   32.5730   42.8250 C   0  0  0  0  0  0  0  0  0  0  0  0
   38.3260   32.0920   42.3010 C   0  0  0  0  0  0  0  0  0  0  0  0
   38.4580   30.7860   41.7430 O   0  0  0  0  0  0  0  0  0  0  0  0
   38.8550   29.9590   42.7740 C   0  0  0  0  0  0  0  0  0  0  0  0
   40.2650   30.3280   43.1500 C   0  0  1  0  0  0  0  0  0  0  0  0
   39.6040   33.6140   43.0970 H   0  0  0  0  0  0  0  0  0  0  0  0
   40.2870   32.6470   41.8920 H   0  0  0  0  0  0  0  0  0  0  0  0
   38.2020   32.6790   41.2970 H   0  0  0  0  0  0  0  0  0  0  0  0
   37.3950   32.2880   42.7410 H   0  0  0  0  0  0  0  0  0  0  0  0
   38.1610   29.8260   43.5940 H   0  0  0  0  0  0  0  0  0  0  0  0
   38.9520   28.9250   42.3140 H   0  0  0  0  0  0  0  0  0  0  0  0
   40.5320   29.6560   44.0130 H   0  0  0  0  0  0  0  0  0  0  0  0
   41.1460   29.9190   42.0330 C   0  0  0  0  0  0  0  0  0  0  0  0
   41.2160   30.5400   41.1520 H   0  0  0  0  0  0  0  0  0  0  0  0
   41.8120   28.8780   42.0760 O   0  0  0  0  0  0  0  0  0  0  0  0
  1  7  1  0  0  0  0
  1  2  1  0  0  0  0
  3  1  1  0  0  0  0
  4 13  1  0  0  0  0
  5  4  1  0  0  0  0
  6  7  1  0  0  0  0
  6  5  2  0  0  0  0
  7  8  1  0  0  0  0
  8  4  2  0  0  0  0
  9  5  1  0  0  0  0
 10  6  1  0  0  0  0
 11 17  1  0  0  0  0
 12 11  2  0  0  0  0
 13 14  2  0  0  0  0
 13 12  1  0  0  0  0
 14 15  1  0  0  0  0
 15 16  2  0  0  0  0
 16 11  1  0  0  0  0
 18 12  1  0  0  0  0
 19 15  1  0  0  0  0
 20 21  1  0  0  0  0
 20 22  1  0  0  0  0
 20  1  1  0  0  0  0
 23 20  1  0  0  0  0
 24 29  1  0  0  0  0
 24 23  1  0  0  0  0
 25 32  1  0  0  0  0
 25 24  1  0  0  0  0
 26 25  1  0  0  0  0
 26 27  1  0  0  0  0
 27 28  1  0  0  0  0
 27 33  1  0  0  0  0
 28 23  1  0  0  0  0
 28 35  1  1  0  0  0
 30 24  1  0  0  0  0
 31 25  1  0  0  0  0
 34 27  1  0  0  0  0
 36 38  2  0  0  0  0
 36 28  1  0  0  0  0
 37 36  1  0  0  0  0
M  END
>  <minimizedAffinity>
-5.46223116

>  <minimizedRMSD>
0.233833238

$$$$
