
 OpenBabel03272503573D

 28 30  0  0  0  0  0  0  0  0999 V2000
   38.5620   24.2620   34.4370 C   0  0  0  0  0  0  0  0  0  0  0  0
   38.1270   23.5720   33.3520 N   0  0  0  0  0  0  0  0  0  0  0  0
   37.2970   24.1110   32.4500 C   0  0  0  0  0  0  0  0  0  0  0  0
   36.8180   25.3620   32.5270 N   0  0  0  0  0  0  0  0  0  0  0  0
   37.2130   26.1060   33.5860 C   0  0  0  0  0  0  0  0  0  0  0  0
   36.7260   27.3840   33.6670 C   0  0  0  0  0  0  0  0  0  0  0  0
   37.0950   28.1960   34.7310 C   0  0  0  0  0  0  0  0  0  0  0  0
   37.9540   27.6450   35.6650 C   0  0  0  0  0  0  0  0  0  0  0  0
   38.4080   26.3510   35.5260 C   0  0  0  0  0  0  0  0  0  0  0  0
   38.0630   25.5320   34.4930 C   0  0  0  0  0  0  0  0  0  0  0  0
   36.9540   23.5330   31.5740 H   0  0  0  0  0  0  0  0  0  0  0  0
   36.0440   27.7750   32.8960 H   0  0  0  0  0  0  0  0  0  0  0  0
   36.6980   29.1910   34.7690 H   0  0  0  0  0  0  0  0  0  0  0  0
   38.2100   28.3180   36.4750 H   0  0  0  0  0  0  0  0  0  0  0  0
   39.0690   26.0800   36.3320 H   0  0  0  0  0  0  0  0  0  0  0  0
   39.4460   22.8930   37.6450 C   0  0  0  0  0  0  0  0  0  0  0  0
   40.8050   22.5780   37.6060 C   0  0  0  0  0  0  0  0  0  0  0  0
   41.4510   22.8510   36.4020 C   0  0  0  0  0  0  0  0  0  0  0  0
   40.7390   23.3760   35.4200 N   0  0  0  0  0  0  0  0  0  0  0  0
   39.4590   23.6830   35.4280 C   0  0  0  0  0  0  0  0  0  0  0  0
   38.8760   23.4110   36.5860 N   0  0  0  0  0  0  0  0  0  0  0  0
   41.2950   22.1560   38.4490 H   0  0  0  0  0  0  0  0  0  0  0  0
   38.6570   22.6610   38.8410 N   0  0  0  0  0  0  0  0  0  0  0  0
   38.6570   23.5920   39.2930 H   0  0  0  0  0  0  0  0  0  0  0  0
   38.3000   21.6900   38.9590 H   0  0  0  0  0  0  0  0  0  0  0  0
   42.8490   22.5720   36.2360 C   0  0  0  0  0  0  0  0  0  0  0  0
   43.1830   21.6990   35.7220 H   0  0  0  0  0  0  0  0  0  0  0  0
   43.7860   23.2980   36.6600 O   0  0  0  0  0  0  0  0  0  0  0  0
  1 10  1  0  0  0  0
  1 20  1  0  0  0  0
  2  1  2  0  0  0  0
  3  4  2  0  0  0  0
  3  2  1  0  0  0  0
  4  5  1  0  0  0  0
  5  6  2  0  0  0  0
  5 10  1  0  0  0  0
  6  7  1  0  0  0  0
  7 13  1  0  0  0  0
  7  8  2  0  0  0  0
  8 14  1  0  0  0  0
  9  8  1  0  0  0  0
  9 15  1  0  0  0  0
 10  9  2  0  0  0  0
 11  3  1  0  0  0  0
 12  6  1  0  0  0  0
 16 23  1  0  0  0  0
 17 16  1  0  0  0  0
 17 22  1  0  0  0  0
 18 17  2  0  0  0  0
 19 20  2  0  0  0  0
 19 18  1  0  0  0  0
 20 21  1  0  0  0  0
 21 16  2  0  0  0  0
 23 25  1  0  0  0  0
 23 24  1  0  0  0  0
 26 18  1  0  0  0  0
 26 28  2  0  0  0  0
 27 26  1  0  0  0  0
M  END
>  <minimizedAffinity>
-5.53257465

$$$$

 OpenBabel03272503573D

 28 30  0  0  0  0  0  0  0  0999 V2000
   37.8100   23.0130   33.4950 C   0  0  0  0  0  0  0  0  0  0  0  0
   38.1730   23.9490   32.5810 N   0  0  0  0  0  0  0  0  0  0  0  0
   37.6660   23.9710   31.3420 C   0  0  0  0  0  0  0  0  0  0  0  0
   36.7660   23.0870   30.8860 N   0  0  0  0  0  0  0  0  0  0  0  0
   36.3590   22.1260   31.7480 C   0  0  0  0  0  0  0  0  0  0  0  0
   35.4400   21.2220   31.2840 C   0  0  0  0  0  0  0  0  0  0  0  0
   34.9850   20.2120   32.1210 C   0  0  0  0  0  0  0  0  0  0  0  0
   35.5040   20.1850   33.4030 C   0  0  0  0  0  0  0  0  0  0  0  0
   36.4290   21.1250   33.8080 C   0  0  0  0  0  0  0  0  0  0  0  0
   36.8920   22.1260   33.0080 C   0  0  0  0  0  0  0  0  0  0  0  0
   37.9750   24.7410   30.6130 H   0  0  0  0  0  0  0  0  0  0  0  0
   35.0570   21.2880   30.2540 H   0  0  0  0  0  0  0  0  0  0  0  0
   34.2660   19.5190   31.7330 H   0  0  0  0  0  0  0  0  0  0  0  0
   35.1180   19.3790   34.0150 H   0  0  0  0  0  0  0  0  0  0  0  0
   36.7260   20.9660   34.8310 H   0  0  0  0  0  0  0  0  0  0  0  0
   40.2980   22.2930   35.9920 C   0  0  0  0  0  0  0  0  0  0  0  0
   39.7840   22.7000   37.2250 C   0  0  0  0  0  0  0  0  0  0  0  0
   38.5080   23.2560   37.1890 C   0  0  0  0  0  0  0  0  0  0  0  0
   37.9020   23.3500   36.0180 N   0  0  0  0  0  0  0  0  0  0  0  0
   38.3610   22.9760   34.8420 C   0  0  0  0  0  0  0  0  0  0  0  0
   39.5750   22.4510   34.9110 N   0  0  0  0  0  0  0  0  0  0  0  0
   40.3470   22.5840   38.1180 H   0  0  0  0  0  0  0  0  0  0  0  0
   41.6160   21.6940   35.8900 N   0  0  0  0  0  0  0  0  0  0  0  0
   41.4010   20.6810   35.8830 H   0  0  0  0  0  0  0  0  0  0  0  0
   42.4100   22.3650   35.8500 H   0  0  0  0  0  0  0  0  0  0  0  0
   37.8700   23.7130   38.3910 C   0  0  0  0  0  0  0  0  0  0  0  0
   37.0800   23.1580   38.8450 H   0  0  0  0  0  0  0  0  0  0  0  0
   38.1640   24.7690   39.0090 O   0  0  0  0  0  0  0  0  0  0  0  0
  1 20  1  0  0  0  0
  2  1  2  0  0  0  0
  3  2  1  0  0  0  0
  4  3  2  0  0  0  0
  4  5  1  0  0  0  0
  5 10  1  0  0  0  0
  6  5  2  0  0  0  0
  6  7  1  0  0  0  0
  7  8  2  0  0  0  0
  8  9  1  0  0  0  0
  8 14  1  0  0  0  0
  9 15  1  0  0  0  0
 10  1  1  0  0  0  0
 10  9  2  0  0  0  0
 11  3  1  0  0  0  0
 12  6  1  0  0  0  0
 13  7  1  0  0  0  0
 16 17  1  0  0  0  0
 17 22  1  0  0  0  0
 18 17  2  0  0  0  0
 18 26  1  0  0  0  0
 19 18  1  0  0  0  0
 20 21  1  0  0  0  0
 20 19  2  0  0  0  0
 21 16  2  0  0  0  0
 23 16  1  0  0  0  0
 24 23  1  0  0  0  0
 25 23  1  0  0  0  0
 26 27  1  0  0  0  0
 26 28  2  0  0  0  0
M  END
>  <minimizedAffinity>
-5.30110121

$$$$

 OpenBabel03272503573D

 28 30  0  0  0  0  0  0  0  0999 V2000
   38.9820   22.2880   34.3610 C   0  0  0  0  0  0  0  0  0  0  0  0
   40.1920   21.8470   33.9340 N   0  0  0  0  0  0  0  0  0  0  0  0
   41.2460   21.7510   34.7540 C   0  0  0  0  0  0  0  0  0  0  0  0
   41.2140   22.0760   36.0560 N   0  0  0  0  0  0  0  0  0  0  0  0
   40.0350   22.5240   36.5470 C   0  0  0  0  0  0  0  0  0  0  0  0
   39.9990   22.8560   37.8750 C   0  0  0  0  0  0  0  0  0  0  0  0
   38.8180   23.3220   38.4370 C   0  0  0  0  0  0  0  0  0  0  0  0
   37.7250   23.4220   37.5950 C   0  0  0  0  0  0  0  0  0  0  0  0
   37.8270   23.0710   36.2650 C   0  0  0  0  0  0  0  0  0  0  0  0
   38.9730   22.6110   35.6880 C   0  0  0  0  0  0  0  0  0  0  0  0
   42.2230   21.3900   34.3880 H   0  0  0  0  0  0  0  0  0  0  0  0
   40.8980   22.7580   38.5030 H   0  0  0  0  0  0  0  0  0  0  0  0
   38.8180   23.5750   39.4790 H   0  0  0  0  0  0  0  0  0  0  0  0
   36.8300   23.7900   38.0800 H   0  0  0  0  0  0  0  0  0  0  0  0
   36.8890   23.2020   35.7520 H   0  0  0  0  0  0  0  0  0  0  0  0
   35.9760   21.1550   32.7400 C   0  0  0  0  0  0  0  0  0  0  0  0
   35.5330   22.1860   31.9100 C   0  0  0  0  0  0  0  0  0  0  0  0
   36.3160   23.3380   31.9140 C   0  0  0  0  0  0  0  0  0  0  0  0
   37.3900   23.3580   32.6850 N   0  0  0  0  0  0  0  0  0  0  0  0
   37.8310   22.4030   33.4750 C   0  0  0  0  0  0  0  0  0  0  0  0
   37.0650   21.3230   33.4480 N   0  0  0  0  0  0  0  0  0  0  0  0
   34.6540   22.0790   31.3240 H   0  0  0  0  0  0  0  0  0  0  0  0
   35.2540   19.8990   32.8250 N   0  0  0  0  0  0  0  0  0  0  0  0
   35.7780   19.2940   32.1680 H   0  0  0  0  0  0  0  0  0  0  0  0
   34.4420   19.8940   33.4760 H   0  0  0  0  0  0  0  0  0  0  0  0
   35.9650   24.4690   31.1030 C   0  0  0  0  0  0  0  0  0  0  0  0
   36.6950   24.9770   30.5140 H   0  0  0  0  0  0  0  0  0  0  0  0
   34.8100   24.9600   31.0070 O   0  0  0  0  0  0  0  0  0  0  0  0
  1 10  1  0  0  0  0
  2  1  2  0  0  0  0
  2  3  1  0  0  0  0
  3  4  2  0  0  0  0
  4  5  1  0  0  0  0
  5  6  1  0  0  0  0
  6  7  2  0  0  0  0
  6 12  1  0  0  0  0
  7 13  1  0  0  0  0
  8 14  1  0  0  0  0
  8  7  1  0  0  0  0
  9  8  2  0  0  0  0
 10  9  1  0  0  0  0
 10  5  2  0  0  0  0
 11  3  1  0  0  0  0
 15  9  1  0  0  0  0
 16 23  1  0  0  0  0
 16 21  1  0  0  0  0
 17 18  1  0  0  0  0
 17 16  2  0  0  0  0
 18 19  2  0  0  0  0
 19 20  1  0  0  0  0
 20  1  1  0  0  0  0
 21 20  2  0  0  0  0
 22 17  1  0  0  0  0
 23 25  1  0  0  0  0
 24 23  1  0  0  0  0
 26 18  1  0  0  0  0
 27 26  1  0  0  0  0
 28 26  2  0  0  0  0
M  END
>  <minimizedAffinity>
-5.29607201

$$$$

 OpenBabel03272503573D

 28 30  0  0  0  0  0  0  0  0999 V2000
   38.0780   23.1260   33.8150 C   0  0  0  0  0  0  0  0  0  0  0  0
   38.3650   24.1580   32.9800 N   0  0  0  0  0  0  0  0  0  0  0  0
   37.7180   24.3380   31.8220 C   0  0  0  0  0  0  0  0  0  0  0  0
   36.7410   23.5340   31.3760 N   0  0  0  0  0  0  0  0  0  0  0  0
   36.4040   22.4860   32.1620 C   0  0  0  0  0  0  0  0  0  0  0  0
   35.4060   21.6630   31.7090 C   0  0  0  0  0  0  0  0  0  0  0  0
   35.0170   20.5700   32.4710 C   0  0  0  0  0  0  0  0  0  0  0  0
   35.6800   20.3780   33.6700 C   0  0  0  0  0  0  0  0  0  0  0  0
   36.6770   21.2430   34.0680 C   0  0  0  0  0  0  0  0  0  0  0  0
   37.0790   22.3230   33.3410 C   0  0  0  0  0  0  0  0  0  0  0  0
   37.9670   25.1840   31.1560 H   0  0  0  0  0  0  0  0  0  0  0  0
   34.9090   21.8600   30.7480 H   0  0  0  0  0  0  0  0  0  0  0  0
   34.2330   19.9430   32.0930 H   0  0  0  0  0  0  0  0  0  0  0  0
   35.3400   19.5120   34.2250 H   0  0  0  0  0  0  0  0  0  0  0  0
   37.0860   20.9560   35.0230 H   0  0  0  0  0  0  0  0  0  0  0  0
   38.6640   23.5350   37.3410 C   0  0  0  0  0  0  0  0  0  0  0  0
   39.8040   22.7980   37.6650 C   0  0  0  0  0  0  0  0  0  0  0  0
   40.4010   22.1200   36.6050 C   0  0  0  0  0  0  0  0  0  0  0  0
   39.8520   22.2290   35.4070 N   0  0  0  0  0  0  0  0  0  0  0  0
   38.7800   22.9160   35.0740 C   0  0  0  0  0  0  0  0  0  0  0  0
   38.2370   23.5480   36.1030 N   0  0  0  0  0  0  0  0  0  0  0  0
   40.1740   22.7690   38.6600 H   0  0  0  0  0  0  0  0  0  0  0  0
   37.9480   24.2920   38.3530 N   0  0  0  0  0  0  0  0  0  0  0  0
   38.3280   25.2460   38.2280 H   0  0  0  0  0  0  0  0  0  0  0  0
   37.2720   23.7450   38.9230 H   0  0  0  0  0  0  0  0  0  0  0  0
   41.5800   21.3270   36.8090 C   0  0  0  0  0  0  0  0  0  0  0  0
   42.1800   21.0040   35.9880 H   0  0  0  0  0  0  0  0  0  0  0  0
   42.0100   20.9460   37.9290 O   0  0  0  0  0  0  0  0  0  0  0  0
  1 20  1  0  0  0  0
  2  1  2  0  0  0  0
  3  2  1  0  0  0  0
  4  3  2  0  0  0  0
  4  5  1  0  0  0  0
  5 10  1  0  0  0  0
  6  5  2  0  0  0  0
  6  7  1  0  0  0  0
  7  8  2  0  0  0  0
  8  9  1  0  0  0  0
  8 14  1  0  0  0  0
  9 15  1  0  0  0  0
 10  1  1  0  0  0  0
 10  9  2  0  0  0  0
 11  3  1  0  0  0  0
 12  6  1  0  0  0  0
 13  7  1  0  0  0  0
 16 17  1  0  0  0  0
 16 23  1  0  0  0  0
 17 22  1  0  0  0  0
 18 26  1  0  0  0  0
 18 17  2  0  0  0  0
 19 18  1  0  0  0  0
 20 19  2  0  0  0  0
 20 21  1  0  0  0  0
 21 16  2  0  0  0  0
 23 25  1  0  0  0  0
 24 23  1  0  0  0  0
 26 28  2  0  0  0  0
 27 26  1  0  0  0  0
M  END
>  <minimizedAffinity>
-5.28116512

$$$$

 OpenBabel03272503573D

 28 30  0  0  0  0  0  0  0  0999 V2000
   39.0470   22.9330   34.7770 C   0  0  0  0  0  0  0  0  0  0  0  0
   40.2640   22.3690   34.9860 N   0  0  0  0  0  0  0  0  0  0  0  0
   41.3640   23.1030   35.1940 C   0  0  0  0  0  0  0  0  0  0  0  0
   41.3760   24.4450   35.2160 N   0  0  0  0  0  0  0  0  0  0  0  0
   40.1930   25.0710   35.0150 C   0  0  0  0  0  0  0  0  0  0  0  0
   40.2030   26.4420   35.0370 C   0  0  0  0  0  0  0  0  0  0  0  0
   39.0210   27.1410   34.8360 C   0  0  0  0  0  0  0  0  0  0  0  0
   37.8800   26.3890   34.6220 C   0  0  0  0  0  0  0  0  0  0  0  0
   37.9390   25.0110   34.6110 C   0  0  0  0  0  0  0  0  0  0  0  0
   39.0840   24.2980   34.8050 C   0  0  0  0  0  0  0  0  0  0  0  0
   42.3450   22.6250   35.3620 H   0  0  0  0  0  0  0  0  0  0  0  0
   41.1390   26.9940   35.2120 H   0  0  0  0  0  0  0  0  0  0  0  0
   39.0570   28.2130   34.8580 H   0  0  0  0  0  0  0  0  0  0  0  0
   36.9860   26.9810   34.4700 H   0  0  0  0  0  0  0  0  0  0  0  0
   36.9670   24.5790   34.4370 H   0  0  0  0  0  0  0  0  0  0  0  0
   36.1190   21.0710   35.7280 C   0  0  0  0  0  0  0  0  0  0  0  0
   35.5110   20.6190   34.5570 C   0  0  0  0  0  0  0  0  0  0  0  0
   36.1470   20.9810   33.3710 C   0  0  0  0  0  0  0  0  0  0  0  0
   37.2500   21.7050   33.4540 N   0  0  0  0  0  0  0  0  0  0  0  0
   37.8450   22.1450   34.5420 C   0  0  0  0  0  0  0  0  0  0  0  0
   37.2150   21.7840   35.6500 N   0  0  0  0  0  0  0  0  0  0  0  0
   34.6210   20.0400   34.5890 H   0  0  0  0  0  0  0  0  0  0  0  0
   35.5600   20.7610   37.0310 N   0  0  0  0  0  0  0  0  0  0  0  0
   36.1170   19.9390   37.3240 H   0  0  0  0  0  0  0  0  0  0  0  0
   34.7900   21.3850   37.3470 H   0  0  0  0  0  0  0  0  0  0  0  0
   35.6190   20.5780   32.0990 C   0  0  0  0  0  0  0  0  0  0  0  0
   36.1530   20.7610   31.1940 H   0  0  0  0  0  0  0  0  0  0  0  0
   34.5190   19.9910   31.9260 O   0  0  0  0  0  0  0  0  0  0  0  0
  1 10  2  0  0  0  0
  1  2  1  0  0  0  0
  2  3  2  0  0  0  0
  3  4  1  0  0  0  0
  3 11  1  0  0  0  0
  5  6  1  0  0  0  0
  5  4  2  0  0  0  0
  6 12  1  0  0  0  0
  7 13  1  0  0  0  0
  7  6  2  0  0  0  0
  8  7  1  0  0  0  0
  9  8  2  0  0  0  0
  9 10  1  0  0  0  0
 10  5  1  0  0  0  0
 14  8  1  0  0  0  0
 15  9  1  0  0  0  0
 16 23  1  0  0  0  0
 17 22  1  0  0  0  0
 17 16  2  0  0  0  0
 18 19  2  0  0  0  0
 18 17  1  0  0  0  0
 19 20  1  0  0  0  0
 20  1  1  0  0  0  0
 20 21  2  0  0  0  0
 21 16  1  0  0  0  0
 23 24  1  0  0  0  0
 23 25  1  0  0  0  0
 26 18  1  0  0  0  0
 27 26  1  0  0  0  0
 28 26  2  0  0  0  0
M  END
>  <minimizedAffinity>
-5.2567091

$$$$

 OpenBabel03272503573D

 28 30  0  0  0  0  0  0  0  0999 V2000
   38.9640   22.1900   34.2390 C   0  0  0  0  0  0  0  0  0  0  0  0
   40.2080   21.8150   33.8430 N   0  0  0  0  0  0  0  0  0  0  0  0
   41.2490   21.8010   34.6840 C   0  0  0  0  0  0  0  0  0  0  0  0
   41.1730   22.1500   35.9780 N   0  0  0  0  0  0  0  0  0  0  0  0
   39.9600   22.5340   36.4380 C   0  0  0  0  0  0  0  0  0  0  0  0
   39.8790   22.8900   37.7580 C   0  0  0  0  0  0  0  0  0  0  0  0
   38.6610   23.2940   38.2890 C   0  0  0  0  0  0  0  0  0  0  0  0
   37.5800   23.3100   37.4260 C   0  0  0  0  0  0  0  0  0  0  0  0
   37.7290   22.9390   36.1060 C   0  0  0  0  0  0  0  0  0  0  0  0
   38.9110   22.5390   35.5590 C   0  0  0  0  0  0  0  0  0  0  0  0
   42.2540   21.4930   34.3420 H   0  0  0  0  0  0  0  0  0  0  0  0
   40.7690   22.8600   38.4040 H   0  0  0  0  0  0  0  0  0  0  0  0
   38.6260   23.5670   39.3250 H   0  0  0  0  0  0  0  0  0  0  0  0
   36.6550   23.6320   37.8880 H   0  0  0  0  0  0  0  0  0  0  0  0
   36.7940   23.0020   35.5740 H   0  0  0  0  0  0  0  0  0  0  0  0
   36.9280   23.5150   31.5850 C   0  0  0  0  0  0  0  0  0  0  0  0
   35.8320   22.6630   31.4330 C   0  0  0  0  0  0  0  0  0  0  0  0
   35.7980   21.5690   32.2940 C   0  0  0  0  0  0  0  0  0  0  0  0
   36.7830   21.4320   33.1650 N   0  0  0  0  0  0  0  0  0  0  0  0
   37.8260   22.2170   33.3310 C   0  0  0  0  0  0  0  0  0  0  0  0
   37.8280   23.2460   32.4980 N   0  0  0  0  0  0  0  0  0  0  0  0
   35.0870   22.8550   30.7010 H   0  0  0  0  0  0  0  0  0  0  0  0
   37.0820   24.6940   30.7530 N   0  0  0  0  0  0  0  0  0  0  0  0
   36.6990   25.4440   31.3550 H   0  0  0  0  0  0  0  0  0  0  0  0
   37.5090   24.5280   29.8180 H   0  0  0  0  0  0  0  0  0  0  0  0
   34.7230   20.6200   32.2370 C   0  0  0  0  0  0  0  0  0  0  0  0
   33.7060   20.9370   32.1790 H   0  0  0  0  0  0  0  0  0  0  0  0
   34.8610   19.3690   32.2470 O   0  0  0  0  0  0  0  0  0  0  0  0
  1 10  1  0  0  0  0
  2  1  2  0  0  0  0
  2  3  1  0  0  0  0
  3  4  2  0  0  0  0
  4  5  1  0  0  0  0
  5  6  1  0  0  0  0
  6  7  2  0  0  0  0
  6 12  1  0  0  0  0
  7 13  1  0  0  0  0
  8 14  1  0  0  0  0
  8  7  1  0  0  0  0
  9  8  2  0  0  0  0
 10  9  1  0  0  0  0
 10  5  2  0  0  0  0
 11  3  1  0  0  0  0
 15  9  1  0  0  0  0
 16 21  1  0  0  0  0
 17 16  2  0  0  0  0
 17 18  1  0  0  0  0
 18 19  2  0  0  0  0
 19 20  1  0  0  0  0
 20  1  1  0  0  0  0
 21 20  2  0  0  0  0
 22 17  1  0  0  0  0
 23 24  1  0  0  0  0
 23 16  1  0  0  0  0
 25 23  1  0  0  0  0
 26 28  2  0  0  0  0
 26 18  1  0  0  0  0
 27 26  1  0  0  0  0
M  END
>  <minimizedAffinity>
-5.14928627

$$$$

 OpenBabel03272503573D

 28 30  0  0  0  0  0  0  0  0999 V2000
   38.5340   25.1380   34.8690 C   0  0  0  0  0  0  0  0  0  0  0  0
   38.3780   26.4610   35.1300 N   0  0  0  0  0  0  0  0  0  0  0  0
   37.6280   27.2560   34.3570 C   0  0  0  0  0  0  0  0  0  0  0  0
   36.9680   26.8360   33.2680 N   0  0  0  0  0  0  0  0  0  0  0  0
   37.0800   25.5250   32.9510 C   0  0  0  0  0  0  0  0  0  0  0  0
   36.4060   25.0920   31.8390 C   0  0  0  0  0  0  0  0  0  0  0  0
   36.4830   23.7580   31.4630 C   0  0  0  0  0  0  0  0  0  0  0  0
   37.2560   22.9310   32.2580 C   0  0  0  0  0  0  0  0  0  0  0  0
   37.9100   23.4290   33.3650 C   0  0  0  0  0  0  0  0  0  0  0  0
   37.8520   24.7330   33.7580 C   0  0  0  0  0  0  0  0  0  0  0  0
   37.5140   28.3310   34.5860 H   0  0  0  0  0  0  0  0  0  0  0  0
   35.8040   25.7920   31.2400 H   0  0  0  0  0  0  0  0  0  0  0  0
   35.9460   23.4470   30.5890 H   0  0  0  0  0  0  0  0  0  0  0  0
   37.2840   21.9010   31.9220 H   0  0  0  0  0  0  0  0  0  0  0  0
   38.4610   22.6570   33.8750 H   0  0  0  0  0  0  0  0  0  0  0  0
   39.2440   23.0420   37.7060 C   0  0  0  0  0  0  0  0  0  0  0  0
   40.5550   22.5830   37.5710 C   0  0  0  0  0  0  0  0  0  0  0  0
   41.2300   23.0200   36.4330 C   0  0  0  0  0  0  0  0  0  0  0  0
   40.5870   23.8170   35.5960 N   0  0  0  0  0  0  0  0  0  0  0  0
   39.3540   24.2650   35.6990 C   0  0  0  0  0  0  0  0  0  0  0  0
   38.7410   23.8310   36.7900 N   0  0  0  0  0  0  0  0  0  0  0  0
   40.9890   21.9420   38.2980 H   0  0  0  0  0  0  0  0  0  0  0  0
   38.4310   22.6640   38.8480 N   0  0  0  0  0  0  0  0  0  0  0  0
   38.5440   23.4750   39.4810 H   0  0  0  0  0  0  0  0  0  0  0  0
   37.9600   21.7400   38.7740 H   0  0  0  0  0  0  0  0  0  0  0  0
   42.5830   22.6170   36.1800 C   0  0  0  0  0  0  0  0  0  0  0  0
   43.3390   23.3310   35.9410 H   0  0  0  0  0  0  0  0  0  0  0  0
   43.0030   21.4310   36.2120 O   0  0  0  0  0  0  0  0  0  0  0  0
  1  2  1  0  0  0  0
  1 20  1  0  0  0  0
  3 11  1  0  0  0  0
  3  2  2  0  0  0  0
  4  3  1  0  0  0  0
  5  4  2  0  0  0  0
  5 10  1  0  0  0  0
  6  5  1  0  0  0  0
  7  6  2  0  0  0  0
  7  8  1  0  0  0  0
  8  9  2  0  0  0  0
  9 10  1  0  0  0  0
  9 15  1  0  0  0  0
 10  1  2  0  0  0  0
 12  6  1  0  0  0  0
 13  7  1  0  0  0  0
 14  8  1  0  0  0  0
 16 23  1  0  0  0  0
 17 16  1  0  0  0  0
 17 22  1  0  0  0  0
 18 17  2  0  0  0  0
 19 20  2  0  0  0  0
 19 18  1  0  0  0  0
 20 21  1  0  0  0  0
 21 16  2  0  0  0  0
 23 24  1  0  0  0  0
 25 23  1  0  0  0  0
 26 28  2  0  0  0  0
 26 18  1  0  0  0  0
 27 26  1  0  0  0  0
M  END
>  <minimizedAffinity>
-5.0848403

$$$$

 OpenBabel03272503573D

 28 30  0  0  0  0  0  0  0  0999 V2000
   38.6840   21.7740   33.6220 C   0  0  0  0  0  0  0  0  0  0  0  0
   39.8940   21.3870   33.1430 N   0  0  0  0  0  0  0  0  0  0  0  0
   40.0220   20.4200   32.2260 C   0  0  0  0  0  0  0  0  0  0  0  0
   38.9880   19.7480   31.6980 N   0  0  0  0  0  0  0  0  0  0  0  0
   37.7520   20.0850   32.1310 C   0  0  0  0  0  0  0  0  0  0  0  0
   36.6940   19.4000   31.5930 C   0  0  0  0  0  0  0  0  0  0  0  0
   35.4010   19.7010   31.9980 C   0  0  0  0  0  0  0  0  0  0  0  0
   35.2620   20.7000   32.9450 C   0  0  0  0  0  0  0  0  0  0  0  0
   36.3680   21.3520   33.4480 C   0  0  0  0  0  0  0  0  0  0  0  0
   37.6480   21.0770   33.0680 C   0  0  0  0  0  0  0  0  0  0  0  0
   41.0160   20.1190   31.8500 H   0  0  0  0  0  0  0  0  0  0  0  0
   36.8590   18.6130   30.8420 H   0  0  0  0  0  0  0  0  0  0  0  0
   34.5920   19.1500   31.5610 H   0  0  0  0  0  0  0  0  0  0  0  0
   34.2350   20.8960   33.2280 H   0  0  0  0  0  0  0  0  0  0  0  0
   36.0870   22.1020   34.1680 H   0  0  0  0  0  0  0  0  0  0  0  0
   38.7960   23.1650   36.9380 C   0  0  0  0  0  0  0  0  0  0  0  0
   38.3810   24.4940   36.8490 C   0  0  0  0  0  0  0  0  0  0  0  0
   38.0460   24.9350   35.5710 C   0  0  0  0  0  0  0  0  0  0  0  0
   38.1460   24.0760   34.5710 N   0  0  0  0  0  0  0  0  0  0  0  0
   38.5340   22.8190   34.6250 C   0  0  0  0  0  0  0  0  0  0  0  0
   38.8440   22.4330   35.8530 N   0  0  0  0  0  0  0  0  0  0  0  0
   38.3320   25.1120   37.7120 H   0  0  0  0  0  0  0  0  0  0  0  0
   39.1690   22.5800   38.2130 N   0  0  0  0  0  0  0  0  0  0  0  0
   38.3010   22.0940   38.4990 H   0  0  0  0  0  0  0  0  0  0  0  0
   40.1460   22.7670   38.5210 H   0  0  0  0  0  0  0  0  0  0  0  0
   37.6040   26.2820   35.3480 C   0  0  0  0  0  0  0  0  0  0  0  0
   36.8380   26.5050   34.6400 H   0  0  0  0  0  0  0  0  0  0  0  0
   38.0550   27.2980   35.9400 O   0  0  0  0  0  0  0  0  0  0  0  0
  1 20  1  0  0  0  0
  2  1  1  0  0  0  0
  3  2  2  0  0  0  0
  4  5  2  0  0  0  0
  4  3  1  0  0  0  0
  5 10  1  0  0  0  0
  6  7  2  0  0  0  0
  6  5  1  0  0  0  0
  7  8  1  0  0  0  0
  8 14  1  0  0  0  0
  8  9  2  0  0  0  0
  9 15  1  0  0  0  0
 10  9  1  0  0  0  0
 10  1  2  0  0  0  0
 11  3  1  0  0  0  0
 12  6  1  0  0  0  0
 13  7  1  0  0  0  0
 16 23  1  0  0  0  0
 17 16  1  0  0  0  0
 17 22  1  0  0  0  0
 18 17  2  0  0  0  0
 19 20  2  0  0  0  0
 19 18  1  0  0  0  0
 20 21  1  0  0  0  0
 21 16  2  0  0  0  0
 23 24  1  0  0  0  0
 23 25  1  0  0  0  0
 26 18  1  0  0  0  0
 26 28  2  0  0  0  0
 27 26  1  0  0  0  0
M  END
>  <minimizedAffinity>
-5.05209541

$$$$

 OpenBabel03272503573D

 28 30  0  0  0  0  0  0  0  0999 V2000
   34.3210   29.6310   33.3930 C   0  0  0  0  0  0  0  0  0  0  0  0
   33.0620   29.1860   33.1500 N   0  0  0  0  0  0  0  0  0  0  0  0
   32.0370   29.4680   33.9640 C   0  0  0  0  0  0  0  0  0  0  0  0
   32.1480   30.2040   35.0800 N   0  0  0  0  0  0  0  0  0  0  0  0
   33.3780   30.6800   35.3810 C   0  0  0  0  0  0  0  0  0  0  0  0
   33.4940   31.4320   36.5210 C   0  0  0  0  0  0  0  0  0  0  0  0
   34.7310   31.9480   36.8820 C   0  0  0  0  0  0  0  0  0  0  0  0
   35.7940   31.6610   36.0450 C   0  0  0  0  0  0  0  0  0  0  0  0
   35.6110   30.8970   34.9110 C   0  0  0  0  0  0  0  0  0  0  0  0
   34.4090   30.3780   34.5320 C   0  0  0  0  0  0  0  0  0  0  0  0
   31.0200   29.0950   33.7490 H   0  0  0  0  0  0  0  0  0  0  0  0
   32.6160   31.6320   37.1530 H   0  0  0  0  0  0  0  0  0  0  0  0
   34.7930   32.5330   37.7780 H   0  0  0  0  0  0  0  0  0  0  0  0
   36.7360   32.0860   36.3710 H   0  0  0  0  0  0  0  0  0  0  0  0
   36.5340   30.7720   34.3700 H   0  0  0  0  0  0  0  0  0  0  0  0
   36.4520   30.0720   30.5270 C   0  0  0  0  0  0  0  0  0  0  0  0
   37.4390   29.0880   30.5830 C   0  0  0  0  0  0  0  0  0  0  0  0
   37.3670   28.2260   31.6750 C   0  0  0  0  0  0  0  0  0  0  0  0
   36.3890   28.4070   32.5460 N   0  0  0  0  0  0  0  0  0  0  0  0
   35.4450   29.3240   32.5180 C   0  0  0  0  0  0  0  0  0  0  0  0
   35.5430   30.1260   31.4690 N   0  0  0  0  0  0  0  0  0  0  0  0
   38.1890   29.0200   29.8340 H   0  0  0  0  0  0  0  0  0  0  0  0
   36.4110   31.0320   29.4390 N   0  0  0  0  0  0  0  0  0  0  0  0
   35.7160   30.6130   28.7970 H   0  0  0  0  0  0  0  0  0  0  0  0
   37.0390   31.8550   29.5460 H   0  0  0  0  0  0  0  0  0  0  0  0
   38.3250   27.1720   31.8470 C   0  0  0  0  0  0  0  0  0  0  0  0
   39.2930   27.2240   31.4010 H   0  0  0  0  0  0  0  0  0  0  0  0
   38.1330   26.1210   32.5120 O   0  0  0  0  0  0  0  0  0  0  0  0
  1 10  1  0  0  0  0
  2  1  2  0  0  0  0
  2  3  1  0  0  0  0
  3  4  2  0  0  0  0
  4  5  1  0  0  0  0
  5  6  1  0  0  0  0
  6  7  2  0  0  0  0
  6 12  1  0  0  0  0
  7 13  1  0  0  0  0
  8 14  1  0  0  0  0
  8  7  1  0  0  0  0
  9  8  2  0  0  0  0
 10  9  1  0  0  0  0
 10  5  2  0  0  0  0
 11  3  1  0  0  0  0
 15  9  1  0  0  0  0
 16 17  2  0  0  0  0
 16 21  1  0  0  0  0
 17 18  1  0  0  0  0
 18 26  1  0  0  0  0
 18 19  2  0  0  0  0
 20 19  1  0  0  0  0
 20  1  1  0  0  0  0
 21 20  2  0  0  0  0
 22 17  1  0  0  0  0
 23 25  1  0  0  0  0
 23 16  1  0  0  0  0
 24 23  1  0  0  0  0
 26 28  2  0  0  0  0
 27 26  1  0  0  0  0
M  END
>  <minimizedAffinity>
-5.02466154

$$$$
