
 OpenBabel03272505183D

 27 28  0  0  0  0  0  0  0  0999 V2000
   38.9220   32.3580   47.4700 C   0  0  0  0  0  0  0  0  0  0  0  0
   38.5230   31.0740   47.2640 C   0  0  0  0  0  0  0  0  0  0  0  0
   39.0100   30.4400   46.1410 C   0  0  0  0  0  0  0  0  0  0  0  0
   39.8440   31.0480   45.2710 C   0  0  0  0  0  0  0  0  0  0  0  0
   40.2660   32.3500   45.4510 C   0  0  0  0  0  0  0  0  0  0  0  0
   39.7830   32.9910   46.5730 C   0  0  0  0  0  0  0  0  0  0  0  0
   38.6950   29.4160   45.9730 H   0  0  0  0  0  0  0  0  0  0  0  0
   40.1800   30.4730   44.4110 H   0  0  0  0  0  0  0  0  0  0  0  0
   40.9350   32.7990   44.7300 H   0  0  0  0  0  0  0  0  0  0  0  0
   40.1550   34.0050   46.6490 H   0  0  0  0  0  0  0  0  0  0  0  0
   37.3260   29.5090   50.4210 C   0  0  0  0  0  0  0  0  0  0  0  0
   38.1320   30.1220   49.4400 C   0  0  0  0  0  0  0  0  0  0  0  0
   37.6250   30.4530   48.2000 C   0  0  0  0  0  0  0  0  0  0  0  0
   36.3170   30.1330   48.0450 N   0  0  0  0  0  0  0  0  0  0  0  0
   35.5380   29.5540   48.9580 C   0  0  0  0  0  0  0  0  0  0  0  0
   36.0510   29.2400   50.1600 N   0  0  0  0  0  0  0  0  0  0  0  0
   37.7400   29.2540   51.3980 H   0  0  0  0  0  0  0  0  0  0  0  0
   39.1780   30.3220   49.7100 H   0  0  0  0  0  0  0  0  0  0  0  0
   34.1430   29.2670   48.6530 C   0  0  0  0  0  0  0  0  0  0  0  0
   33.6440   29.7830   47.8480 H   0  0  0  0  0  0  0  0  0  0  0  0
   33.5040   28.4140   49.3230 O   0  0  0  0  0  0  0  0  0  0  0  0
   39.3310   34.2420   48.8950 N   0  0  0  0  0  0  0  0  0  0  0  0
   38.5720   33.2180   48.5620 C   0  0  0  0  0  0  0  0  0  0  0  0
   37.6140   33.4370   49.5620 N   0  0  0  0  0  0  0  0  0  0  0  0
   39.0650   34.8550   49.7010 H   0  0  0  0  0  0  0  0  0  0  0  0
   36.6730   33.9260   49.5360 H   0  0  0  0  0  0  0  0  0  0  0  0
   37.6500   33.1430   50.5680 H   0  0  0  0  0  0  0  0  0  0  0  0
  1 23  1  0  0  0  0
  2  1  1  0  0  0  0
  2 13  1  0  0  0  0
  3  2  2  0  0  0  0
  4  5  2  0  0  0  0
  4  3  1  0  0  0  0
  5  6  1  0  0  0  0
  6 10  1  0  0  0  0
  6  1  2  0  0  0  0
  7  3  1  0  0  0  0
  8  4  1  0  0  0  0
  9  5  1  0  0  0  0
 11 17  1  0  0  0  0
 12 18  1  0  0  0  0
 12 11  2  0  0  0  0
 13 12  1  0  0  0  0
 14 13  2  0  0  0  0
 14 15  1  0  0  0  0
 15 16  2  0  0  0  0
 16 11  1  0  0  0  0
 19 15  1  0  0  0  0
 19 21  2  0  0  0  0
 20 19  1  0  0  0  0
 22 25  1  0  0  0  0
 23 22  2  0  0  0  0
 23 24  1  0  0  0  0
 24 27  1  0  0  0  0
 26 24  1  0  0  0  0
M  END
>  <minimizedAffinity>
-5.74934578

>  <minimizedRMSD>
0.889707088

$$$$
