
 OpenBabel03272507383D

 28 29  0  0  0  0  0  0  0  0999 V2000
   36.9170   32.0220   48.8210 O   0  0  0  0  0  0  0  0  0  0  0  0
   38.6380   32.4540   47.1090 C   0  0  0  0  0  0  0  0  0  0  0  0
   38.0410   32.6580   48.3280 C   0  0  0  0  0  0  0  0  0  0  0  0
   38.5630   33.5860   49.2160 C   0  0  0  0  0  0  0  0  0  0  0  0
   39.7010   34.3080   48.8550 C   0  0  0  0  0  0  0  0  0  0  0  0
   40.2930   34.0940   47.6260 C   0  0  0  0  0  0  0  0  0  0  0  0
   39.7440   33.1650   46.7740 C   0  0  0  0  0  0  0  0  0  0  0  0
   38.1650   33.8070   50.1800 H   0  0  0  0  0  0  0  0  0  0  0  0
   40.1400   35.0420   49.5190 H   0  0  0  0  0  0  0  0  0  0  0  0
   41.1770   34.6460   47.3310 H   0  0  0  0  0  0  0  0  0  0  0  0
   40.3800   32.9360   45.4570 C   0  0  0  0  0  0  0  0  0  0  0  0
   41.0260   32.0810   45.3060 H   0  0  0  0  0  0  0  0  0  0  0  0
   40.1160   33.7950   44.5480 O   0  0  0  0  0  0  0  0  0  0  0  0
   37.5370   30.7110   45.5560 N   0  0  0  0  0  0  0  0  0  0  0  0
   38.0210   31.4780   46.2530 C   0  0  0  0  0  0  0  0  0  0  0  0
   36.9370   31.0190   49.7440 C   0  0  0  0  0  0  0  0  0  0  0  0
   36.3120   29.8670   49.2730 C   0  0  0  0  0  0  0  0  0  0  0  0
   36.2260   28.7390   50.0600 C   0  0  0  0  0  0  0  0  0  0  0  0
   36.7830   28.8060   51.3170 N   0  0  0  0  0  0  0  0  0  0  0  0
   37.3880   29.9360   51.7580 C   0  0  0  0  0  0  0  0  0  0  0  0
   37.4570   31.0060   50.9840 N   0  0  0  0  0  0  0  0  0  0  0  0
   35.7600   27.8050   49.7780 H   0  0  0  0  0  0  0  0  0  0  0  0
   37.8490   30.0790   52.7180 H   0  0  0  0  0  0  0  0  0  0  0  0
   34.3930   29.2480   47.8900 C   0  0  0  0  0  0  0  0  0  0  0  0
   33.5070   28.8100   48.7250 O   0  0  0  0  0  0  0  0  0  0  0  0
   35.7460   29.6870   48.0080 N   0  0  0  0  0  0  0  0  0  0  0  0
   33.4620   29.0150   47.3890 H   0  0  0  0  0  0  0  0  0  0  0  0
   35.8770   29.7210   46.9930 H   0  0  0  0  0  0  0  0  0  0  0  0
  1 16  1  0  0  0  0
  2  3  1  0  0  0  0
  3  1  1  0  0  0  0
  3  4  2  0  0  0  0
  4  8  1  0  0  0  0
  5  4  1  0  0  0  0
  5  9  1  0  0  0  0
  6  5  2  0  0  0  0
  7  2  2  0  0  0  0
  7  6  1  0  0  0  0
 10  6  1  0  0  0  0
 11  7  1  0  0  0  0
 12 11  1  0  0  0  0
 13 11  2  0  0  0  0
 14 15  3  0  0  0  0
 15  2  1  0  0  0  0
 16 21  1  0  0  0  0
 17 16  2  0  0  0  0
 17 18  1  0  0  0  0
 18 19  2  0  0  0  0
 19 20  1  0  0  0  0
 20 23  1  0  0  0  0
 21 20  2  0  0  0  0
 22 18  1  0  0  0  0
 24 26  1  0  0  0  0
 24 25  2  0  0  0  0
 26 17  1  0  0  0  0
 27 24  1  0  0  0  0
 28 26  1  0  0  0  0
M  END
>  <minimizedAffinity>
-4.93357086

>  <minimizedRMSD>
0.435612172

$$$$
