
 OpenBabel03272503223D

 24 25  0  0  1  0  0  0  0  0999 V2000
   36.5230   29.8090   49.1810 N   0  0  0  0  0  0  0  0  0  0  0  0
   37.2490   30.9840   48.7640 C   0  0  1  0  0  0  0  0  0  0  0  0
   38.0190   31.3510   50.0160 C   0  0  0  0  0  0  0  0  0  0  0  0
   37.5090   30.4170   51.1190 C   0  0  0  0  0  0  0  0  0  0  0  0
   37.2520   29.1820   50.2840 C   0  0  0  0  0  0  0  0  0  0  0  0
   36.5880   31.8310   48.5270 H   0  0  0  0  0  0  0  0  0  0  0  0
   37.9690   32.4060   50.2800 H   0  0  0  0  0  0  0  0  0  0  0  0
   39.0660   30.9940   49.8430 H   0  0  0  0  0  0  0  0  0  0  0  0
   36.5470   30.8200   51.4710 H   0  0  0  0  0  0  0  0  0  0  0  0
   38.2520   30.2180   51.8900 H   0  0  0  0  0  0  0  0  0  0  0  0
   36.5600   28.4810   50.8350 H   0  0  0  0  0  0  0  0  0  0  0  0
   38.1700   28.6780   49.9760 H   0  0  0  0  0  0  0  0  0  0  0  0
   35.3120   29.3280   48.6320 C   0  0  0  0  0  0  0  0  0  0  0  0
   34.7240   30.0700   47.6110 C   0  0  0  0  0  0  0  0  0  0  0  0
   33.5260   29.6450   47.0280 C   0  0  0  0  0  0  0  0  0  0  0  0
   32.9940   28.4750   47.5260 N   0  0  0  0  0  0  0  0  0  0  0  0
   33.5830   27.7790   48.5100 C   0  0  0  0  0  0  0  0  0  0  0  0
   34.7510   28.2050   49.0700 N   0  0  0  0  0  0  0  0  0  0  0  0
   35.1270   30.9880   47.2110 H   0  0  0  0  0  0  0  0  0  0  0  0
   33.0350   30.1910   46.2340 H   0  0  0  0  0  0  0  0  0  0  0  0
   33.1360   26.8720   48.8700 H   0  0  0  0  0  0  0  0  0  0  0  0
   38.1440   30.7220   47.6140 C   0  0  0  0  0  0  0  0  0  0  0  0
   38.0410   29.8340   46.9810 H   0  0  0  0  0  0  0  0  0  0  0  0
   39.0210   31.5600   47.4020 O   0  0  0  0  0  0  0  0  0  0  0  0
  1  5  1  0  0  0  0
  2  6  1  6  0  0  0
  2  1  1  0  0  0  0
  2  3  1  0  0  0  0
  3  7  1  0  0  0  0
  3  4  1  0  0  0  0
  4  9  1  0  0  0  0
  4 10  1  0  0  0  0
  5 11  1  0  0  0  0
  5  4  1  0  0  0  0
  8  3  1  0  0  0  0
 12  5  1  0  0  0  0
 13 18  1  0  0  0  0
 13  1  1  0  0  0  0
 14 13  2  0  0  0  0
 15 16  2  0  0  0  0
 15 14  1  0  0  0  0
 16 17  1  0  0  0  0
 17 21  1  0  0  0  0
 17 18  2  0  0  0  0
 19 14  1  0  0  0  0
 20 15  1  0  0  0  0
 22  2  1  0  0  0  0
 23 22  1  0  0  0  0
 24 22  2  0  0  0  0
M  END
>  <minimizedAffinity>
-4.38552809

>  <minimizedRMSD>
0.821600437

$$$$
