
 OpenBabel03272502303D

 23 24  0  0  1  0  0  0  0  0999 V2000
   37.1330   27.3160   33.8860 C   0  0  0  0  0  0  0  0  0  0  0  0
   36.0860   27.1920   33.5430 H   0  0  0  0  0  0  0  0  0  0  0  0
   37.3020   28.3820   34.1790 H   0  0  0  0  0  0  0  0  0  0  0  0
   38.3920   25.5160   34.9960 C   0  0  0  0  0  3  0  0  0  0  0  0
   37.4350   26.4060   35.0340 C   0  0  0  0  0  3  0  0  0  0  0  0
   38.2640   23.8390   38.3060 C   0  0  0  0  0  0  0  0  0  0  0  0
   37.9240   24.7210   37.2690 C   0  0  0  0  0  0  0  0  0  0  0  0
   38.6620   24.6570   36.1090 C   0  0  0  0  0  0  0  0  0  0  0  0
   39.6790   23.7590   35.9960 N   0  0  0  0  0  0  0  0  0  0  0  0
   39.9730   22.9250   37.0220 C   0  0  0  0  0  0  0  0  0  0  0  0
   39.2760   22.9580   38.1700 N   0  0  0  0  0  0  0  0  0  0  0  0
   37.6700   23.8950   39.2320 H   0  0  0  0  0  0  0  0  0  0  0  0
   37.1110   25.4230   37.3890 H   0  0  0  0  0  0  0  0  0  0  0  0
   40.7960   22.2390   36.8540 H   0  0  0  0  0  0  0  0  0  0  0  0
   38.1850   26.8880   32.4660 S   0  0  0  0  0  0  0  0  0  0  0  0
   37.1740   26.0130   31.2580 C   0  0  1  0  0  3  0  0  0  0  0  0
   36.7510   24.6330   31.7630 C   0  0  0  0  0  3  0  0  0  0  0  0
   36.4990   24.7290   32.8380 H   0  0  0  0  0  0  0  0  0  0  0  0
   35.4390   24.4590   31.0260 C   0  0  0  0  0  3  0  0  0  0  0  0
   35.6590   24.2020   29.9650 H   0  0  0  0  0  0  0  0  0  0  0  0
   34.8690   25.7150   31.1550 O   0  0  0  0  0  0  0  0  0  0  0  0
   35.8490   26.6650   31.0160 C   0  0  0  0  0  3  0  0  0  0  0  0
   35.7190   27.4160   31.8340 H   0  0  0  0  0  0  0  0  0  0  0  0
  1  3  1  0  0  0  0
  1  5  1  0  0  0  0
  2  1  1  0  0  0  0
  4  5  2  0  0  0  0
  4  8  1  0  0  0  0
  6 12  1  0  0  0  0
  7 13  1  0  0  0  0
  7  6  2  0  0  0  0
  8  7  1  0  0  0  0
  9  8  2  0  0  0  0
  9 10  1  0  0  0  0
 10 11  2  0  0  0  0
 11  6  1  0  0  0  0
 14 10  1  0  0  0  0
 15  1  1  0  0  0  0
 16 17  1  0  0  0  0
 16 15  1  1  0  0  0
 17 18  1  0  0  0  0
 19 21  1  0  0  0  0
 19 17  1  0  0  0  0
 20 19  1  0  0  0  0
 22 21  1  0  0  0  0
 22 16  1  0  0  0  0
 22 23  1  0  0  0  0
M  END
>  <minimizedAffinity>
-3.96435928

$$$$

 OpenBabel03272502303D

 23 24  0  0  1  0  0  0  0  0999 V2000
   37.2700   27.5340   34.3880 C   0  0  0  0  0  0  0  0  0  0  0  0
   36.3180   27.9910   34.7230 H   0  0  0  0  0  0  0  0  0  0  0  0
   38.0080   28.3430   34.1590 H   0  0  0  0  0  0  0  0  0  0  0  0
   38.0620   25.3460   35.1890 C   0  0  0  0  0  3  0  0  0  0  0  0
   37.8190   26.6080   35.4270 C   0  0  0  0  0  3  0  0  0  0  0  0
   38.5770   23.4840   38.3600 C   0  0  0  0  0  0  0  0  0  0  0  0
   37.9880   24.3580   37.4330 C   0  0  0  0  0  0  0  0  0  0  0  0
   38.5880   24.4790   36.2000 C   0  0  0  0  0  0  0  0  0  0  0  0
   39.7110   23.7650   35.9140 N   0  0  0  0  0  0  0  0  0  0  0  0
   40.2460   22.9310   36.8380 C   0  0  0  0  0  0  0  0  0  0  0  0
   39.6900   22.7860   38.0520 N   0  0  0  0  0  0  0  0  0  0  0  0
   38.0930   23.3910   39.3450 H   0  0  0  0  0  0  0  0  0  0  0  0
   37.0960   24.9120   37.6900 H   0  0  0  0  0  0  0  0  0  0  0  0
   41.1390   22.3970   36.5330 H   0  0  0  0  0  0  0  0  0  0  0  0
   36.8820   26.6040   32.8750 S   0  0  0  0  0  0  0  0  0  0  0  0
   35.8990   27.6630   31.7990 C   0  0  1  0  0  3  0  0  0  0  0  0
   35.7740   29.0820   32.3550 C   0  0  0  0  0  3  0  0  0  0  0  0
   36.7570   29.3650   32.7840 H   0  0  0  0  0  0  0  0  0  0  0  0
   35.6210   29.8700   31.0700 C   0  0  0  0  0  3  0  0  0  0  0  0
   34.5830   29.7350   30.6920 H   0  0  0  0  0  0  0  0  0  0  0  0
   36.5620   29.2690   30.2510 O   0  0  0  0  0  0  0  0  0  0  0  0
   36.5450   27.9150   30.4720 C   0  0  0  0  0  3  0  0  0  0  0  0
   37.6030   27.5680   30.5710 H   0  0  0  0  0  0  0  0  0  0  0  0
  1  2  1  0  0  0  0
  1  5  1  0  0  0  0
  3  1  1  0  0  0  0
  4  5  2  0  0  0  0
  4  8  1  0  0  0  0
  6 12  1  0  0  0  0
  7 13  1  0  0  0  0
  7  6  2  0  0  0  0
  8  7  1  0  0  0  0
  9  8  2  0  0  0  0
  9 10  1  0  0  0  0
 10 11  2  0  0  0  0
 11  6  1  0  0  0  0
 14 10  1  0  0  0  0
 15  1  1  0  0  0  0
 16 17  1  0  0  0  0
 16 15  1  1  0  0  0
 17 18  1  0  0  0  0
 19 17  1  0  0  0  0
 20 19  1  0  0  0  0
 21 22  1  0  0  0  0
 21 19  1  0  0  0  0
 22 23  1  0  0  0  0
 22 16  1  0  0  0  0
M  END
>  <minimizedAffinity>
-3.96346974

$$$$

 OpenBabel03272502303D

 23 24  0  0  1  0  0  0  0  0999 V2000
   35.7090   20.6280   33.6030 C   0  0  0  0  0  0  0  0  0  0  0  0
   35.3210   19.6020   33.7560 H   0  0  0  0  0  0  0  0  0  0  0  0
   34.8660   21.3020   33.3080 H   0  0  0  0  0  0  0  0  0  0  0  0
   37.4700   21.8610   34.8010 C   0  0  0  0  0  3  0  0  0  0  0  0
   36.3780   21.1430   34.8380 C   0  0  0  0  0  3  0  0  0  0  0  0
   39.9660   22.7230   37.4120 C   0  0  0  0  0  0  0  0  0  0  0  0
   39.4460   22.2210   36.2080 C   0  0  0  0  0  0  0  0  0  0  0  0
   38.0920   22.3430   35.9970 C   0  0  0  0  0  0  0  0  0  0  0  0
   37.3050   22.9340   36.9380 N   0  0  0  0  0  0  0  0  0  0  0  0
   37.8470   23.4060   38.0860 C   0  0  0  0  0  0  0  0  0  0  0  0
   39.1650   23.3050   38.3290 N   0  0  0  0  0  0  0  0  0  0  0  0
   41.0500   22.6230   37.5750 H   0  0  0  0  0  0  0  0  0  0  0  0
   40.0980   21.7570   35.4810 H   0  0  0  0  0  0  0  0  0  0  0  0
   37.1550   23.8630   38.7840 H   0  0  0  0  0  0  0  0  0  0  0  0
   36.9160   20.5170   32.2470 S   0  0  0  0  0  0  0  0  0  0  0  0
   36.6750   21.9350   31.1610 C   0  0  1  0  0  3  0  0  0  0  0  0
   35.5280   22.8280   31.6350 C   0  0  0  0  0  3  0  0  0  0  0  0
   35.5820   22.8890   32.7400 H   0  0  0  0  0  0  0  0  0  0  0  0
   35.9860   24.1710   31.1050 C   0  0  0  0  0  3  0  0  0  0  0  0
   35.7980   24.2040   30.0090 H   0  0  0  0  0  0  0  0  0  0  0  0
   37.3390   24.1510   31.4050 O   0  0  0  0  0  0  0  0  0  0  0  0
   37.8280   22.8900   31.1760 C   0  0  0  0  0  3  0  0  0  0  0  0
   38.4590   22.6000   32.0510 H   0  0  0  0  0  0  0  0  0  0  0  0
  1  2  1  0  0  0  0
  1  5  1  0  0  0  0
  3  1  1  0  0  0  0
  4  5  2  0  0  0  0
  4  8  1  0  0  0  0
  6 12  1  0  0  0  0
  6 11  1  0  0  0  0
  7  6  2  0  0  0  0
  8  7  1  0  0  0  0
  8  9  2  0  0  0  0
  9 10  1  0  0  0  0
 10 11  2  0  0  0  0
 10 14  1  0  0  0  0
 13  7  1  0  0  0  0
 15  1  1  0  0  0  0
 16 22  1  0  0  0  0
 16 17  1  0  0  0  0
 16 15  1  1  0  0  0
 17 18  1  0  0  0  0
 19 21  1  0  0  0  0
 19 17  1  0  0  0  0
 20 19  1  0  0  0  0
 22 21  1  0  0  0  0
 22 23  1  0  0  0  0
M  END
>  <minimizedAffinity>
-3.89890122

$$$$

 OpenBabel03272502303D

 23 24  0  0  1  0  0  0  0  0999 V2000
   38.5240   26.9470   36.1060 C   0  0  0  0  0  0  0  0  0  0  0  0
   39.5450   27.3550   36.2500 H   0  0  0  0  0  0  0  0  0  0  0  0
   38.0550   26.7650   37.1050 H   0  0  0  0  0  0  0  0  0  0  0  0
   37.0870   27.5140   34.1910 C   0  0  0  0  0  3  0  0  0  0  0  0
   37.6790   27.8800   35.2980 C   0  0  0  0  0  3  0  0  0  0  0  0
   34.5570   30.0450   33.2000 C   0  0  0  0  0  0  0  0  0  0  0  0
   35.2940   29.1790   34.0230 C   0  0  0  0  0  0  0  0  0  0  0  0
   36.2830   28.4250   33.4340 C   0  0  0  0  0  0  0  0  0  0  0  0
   36.5190   28.5340   32.0980 N   0  0  0  0  0  0  0  0  0  0  0  0
   35.7850   29.3830   31.3390 C   0  0  0  0  0  0  0  0  0  0  0  0
   34.8100   30.1350   31.8780 N   0  0  0  0  0  0  0  0  0  0  0  0
   33.7670   30.6460   33.6770 H   0  0  0  0  0  0  0  0  0  0  0  0
   35.0820   29.1150   35.0820 H   0  0  0  0  0  0  0  0  0  0  0  0
   36.0340   29.4120   30.2850 H   0  0  0  0  0  0  0  0  0  0  0  0
   38.7270   25.3720   35.2210 S   0  0  0  0  0  0  0  0  0  0  0  0
   38.7380   24.0410   36.4360 C   0  0  1  0  0  3  0  0  0  0  0  0
   38.1480   24.4860   37.7750 C   0  0  0  0  0  3  0  0  0  0  0  0
   37.2720   25.1290   37.5610 H   0  0  0  0  0  0  0  0  0  0  0  0
   37.6020   23.1690   38.2870 C   0  0  0  0  0  3  0  0  0  0  0  0
   38.4500   22.5530   38.6600 H   0  0  0  0  0  0  0  0  0  0  0  0
   37.0270   22.6330   37.1450 O   0  0  0  0  0  0  0  0  0  0  0  0
   37.8350   22.9030   36.0710 C   0  0  0  0  0  3  0  0  0  0  0  0
   37.1890   23.2760   35.2380 H   0  0  0  0  0  0  0  0  0  0  0  0
  1  2  1  0  0  0  0
  1  3  1  0  0  0  0
  4  5  2  0  0  0  0
  5  1  1  0  0  0  0
  6 12  1  0  0  0  0
  6  7  1  0  0  0  0
  7 13  1  0  0  0  0
  8  7  2  0  0  0  0
  8  4  1  0  0  0  0
  9  8  1  0  0  0  0
 10 11  1  0  0  0  0
 10  9  2  0  0  0  0
 11  6  2  0  0  0  0
 14 10  1  0  0  0  0
 15  1  1  0  0  0  0
 16 15  1  6  0  0  0
 16 17  1  0  0  0  0
 17 19  1  0  0  0  0
 18 17  1  0  0  0  0
 19 20  1  0  0  0  0
 21 19  1  0  0  0  0
 22 16  1  0  0  0  0
 22 21  1  0  0  0  0
 23 22  1  0  0  0  0
M  END
>  <minimizedAffinity>
-3.88272333

$$$$

 OpenBabel03272502303D

 23 24  0  0  1  0  0  0  0  0999 V2000
   39.1560   27.0210   33.0530 C   0  0  0  0  0  0  0  0  0  0  0  0
   38.6100   27.9850   33.0010 H   0  0  0  0  0  0  0  0  0  0  0  0
   40.2510   27.2100   32.9280 H   0  0  0  0  0  0  0  0  0  0  0  0
   39.4320   25.1670   34.6470 C   0  0  0  0  0  3  0  0  0  0  0  0
   38.8930   26.3200   34.3470 C   0  0  0  0  0  3  0  0  0  0  0  0
   37.9380   24.2040   37.9070 C   0  0  0  0  0  0  0  0  0  0  0  0
   38.1220   24.9020   36.7030 C   0  0  0  0  0  0  0  0  0  0  0  0
   39.1650   24.5160   35.8940 C   0  0  0  0  0  0  0  0  0  0  0  0
   39.9760   23.4890   36.2690 N   0  0  0  0  0  0  0  0  0  0  0  0
   39.7640   22.8410   37.4400 C   0  0  0  0  0  0  0  0  0  0  0  0
   38.7560   23.1890   38.2570 N   0  0  0  0  0  0  0  0  0  0  0  0
   37.1020   24.5170   38.5510 H   0  0  0  0  0  0  0  0  0  0  0  0
   37.4600   25.7140   36.4340 H   0  0  0  0  0  0  0  0  0  0  0  0
   40.4520   22.0350   37.6660 H   0  0  0  0  0  0  0  0  0  0  0  0
   38.5400   26.0150   31.6690 S   0  0  0  0  0  0  0  0  0  0  0  0
   36.8110   25.6180   31.9870 C   0  0  1  0  0  3  0  0  0  0  0  0
   35.8840   26.2200   30.9300 C   0  0  0  0  0  3  0  0  0  0  0  0
   36.3800   26.1110   29.9450 H   0  0  0  0  0  0  0  0  0  0  0  0
   34.7490   25.2170   30.9550 C   0  0  0  0  0  3  0  0  0  0  0  0
   34.1300   25.4020   31.8610 H   0  0  0  0  0  0  0  0  0  0  0  0
   35.4310   24.0130   31.0210 O   0  0  0  0  0  0  0  0  0  0  0  0
   36.5090   24.1570   31.8570 C   0  0  0  0  0  3  0  0  0  0  0  0
   37.3980   23.7010   31.3560 H   0  0  0  0  0  0  0  0  0  0  0  0
  1  5  1  0  0  0  0
  2  1  1  0  0  0  0
  3  1  1  0  0  0  0
  4  8  1  0  0  0  0
  5  4  2  0  0  0  0
  6 11  1  0  0  0  0
  6 12  1  0  0  0  0
  7  6  2  0  0  0  0
  8  9  2  0  0  0  0
  8  7  1  0  0  0  0
  9 10  1  0  0  0  0
 10 14  1  0  0  0  0
 10 11  2  0  0  0  0
 13  7  1  0  0  0  0
 15  1  1  0  0  0  0
 16 15  1  6  0  0  0
 17 19  1  0  0  0  0
 17 16  1  0  0  0  0
 18 17  1  0  0  0  0
 19 21  1  0  0  0  0
 19 20  1  0  0  0  0
 21 22  1  0  0  0  0
 22 16  1  0  0  0  0
 23 22  1  0  0  0  0
M  END
>  <minimizedAffinity>
-3.87446856

$$$$

 OpenBabel03272502303D

 23 24  0  0  1  0  0  0  0  0999 V2000
   37.9590   24.4390   32.2080 C   0  0  0  0  0  0  0  0  0  0  0  0
   37.7650   25.5300   32.2210 H   0  0  0  0  0  0  0  0  0  0  0  0
   38.8220   24.2250   31.5290 H   0  0  0  0  0  0  0  0  0  0  0  0
   38.2590   24.7000   34.6360 C   0  0  0  0  0  3  0  0  0  0  0  0
   38.2400   23.9240   33.5840 C   0  0  0  0  0  3  0  0  0  0  0  0
   38.1030   23.9720   38.2740 C   0  0  0  0  0  0  0  0  0  0  0  0
   37.7610   24.5290   37.0320 C   0  0  0  0  0  0  0  0  0  0  0  0
   38.5300   24.1840   35.9440 C   0  0  0  0  0  0  0  0  0  0  0  0
   39.5790   23.3300   36.0940 N   0  0  0  0  0  0  0  0  0  0  0  0
   39.8750   22.8150   37.3110 C   0  0  0  0  0  0  0  0  0  0  0  0
   39.1490   23.1280   38.3970 N   0  0  0  0  0  0  0  0  0  0  0  0
   37.4840   24.2520   39.1410 H   0  0  0  0  0  0  0  0  0  0  0  0
   36.9210   25.2050   36.9460 H   0  0  0  0  0  0  0  0  0  0  0  0
   40.7250   22.1420   37.3470 H   0  0  0  0  0  0  0  0  0  0  0  0
   36.4510   23.6620   31.5540 S   0  0  0  0  0  0  0  0  0  0  0  0
   36.4510   21.9280   32.0460 C   0  0  1  0  0  3  0  0  0  0  0  0
   35.0390   21.4200   32.3410 C   0  0  0  0  0  3  0  0  0  0  0  0
   34.3580   21.8560   31.5830 H   0  0  0  0  0  0  0  0  0  0  0  0
   35.1940   19.9540   31.9910 C   0  0  0  0  0  3  0  0  0  0  0  0
   35.7430   19.4480   32.8160 H   0  0  0  0  0  0  0  0  0  0  0  0
   35.9390   20.0160   30.8240 O   0  0  0  0  0  0  0  0  0  0  0  0
   36.8810   21.0050   30.9480 C   0  0  0  0  0  3  0  0  0  0  0  0
   36.8690   21.6130   30.0100 H   0  0  0  0  0  0  0  0  0  0  0  0
  1  2  1  0  0  0  0
  1  5  1  0  0  0  0
  3  1  1  0  0  0  0
  4  8  1  0  0  0  0
  5  4  2  0  0  0  0
  6 11  1  0  0  0  0
  6 12  1  0  0  0  0
  7  6  2  0  0  0  0
  8  9  2  0  0  0  0
  8  7  1  0  0  0  0
  9 10  1  0  0  0  0
 10 14  1  0  0  0  0
 10 11  2  0  0  0  0
 13  7  1  0  0  0  0
 15  1  1  0  0  0  0
 16 15  1  6  0  0  0
 16 17  1  0  0  0  0
 18 17  1  0  0  0  0
 19 17  1  0  0  0  0
 19 20  1  0  0  0  0
 21 22  1  0  0  0  0
 21 19  1  0  0  0  0
 22 16  1  0  0  0  0
 23 22  1  0  0  0  0
M  END
>  <minimizedAffinity>
-3.87093806

$$$$

 OpenBabel03272502303D

 23 24  0  0  1  0  0  0  0  0999 V2000
   35.8350   25.5390   31.2810 C   0  0  0  0  0  0  0  0  0  0  0  0
   36.3020   25.8760   30.3340 H   0  0  0  0  0  0  0  0  0  0  0  0
   34.9010   26.1260   31.4620 H   0  0  0  0  0  0  0  0  0  0  0  0
   36.4060   23.1630   31.5760 C   0  0  0  0  0  3  0  0  0  0  0  0
   35.5300   24.0750   31.2420 C   0  0  0  0  0  3  0  0  0  0  0  0
   34.8100   19.8590   32.1430 C   0  0  0  0  0  0  0  0  0  0  0  0
   35.0440   21.2390   32.2510 C   0  0  0  0  0  0  0  0  0  0  0  0
   36.0900   21.7670   31.5300 C   0  0  0  0  0  0  0  0  0  0  0  0
   36.8550   20.9600   30.7470 N   0  0  0  0  0  0  0  0  0  0  0  0
   36.5960   19.6330   30.6700 C   0  0  0  0  0  0  0  0  0  0  0  0
   35.5840   19.0790   31.3590 N   0  0  0  0  0  0  0  0  0  0  0  0
   33.9720   19.4410   32.7230 H   0  0  0  0  0  0  0  0  0  0  0  0
   34.4170   21.8530   32.8830 H   0  0  0  0  0  0  0  0  0  0  0  0
   37.2500   19.0590   30.0240 H   0  0  0  0  0  0  0  0  0  0  0  0
   37.0470   25.8820   32.5930 S   0  0  0  0  0  0  0  0  0  0  0  0
   37.0000   27.6470   32.9560 C   0  0  1  0  0  3  0  0  0  0  0  0
   35.8690   28.3530   32.2060 C   0  0  0  0  0  3  0  0  0  0  0  0
   34.9840   27.6870   32.2240 H   0  0  0  0  0  0  0  0  0  0  0  0
   35.5730   29.4910   33.1600 C   0  0  0  0  0  3  0  0  0  0  0  0
   36.3680   30.2620   33.0520 H   0  0  0  0  0  0  0  0  0  0  0  0
   35.6220   28.8540   34.3900 O   0  0  0  0  0  0  0  0  0  0  0  0
   36.6490   27.9460   34.3800 C   0  0  0  0  0  3  0  0  0  0  0  0
   36.2680   26.9880   34.8130 H   0  0  0  0  0  0  0  0  0  0  0  0
  1  3  1  0  0  0  0
  1 15  1  0  0  0  0
  2  1  1  0  0  0  0
  5  1  1  0  0  0  0
  5  4  2  0  0  0  0
  6  7  1  0  0  0  0
  6 12  1  0  0  0  0
  7 13  1  0  0  0  0
  8  4  1  0  0  0  0
  8  7  2  0  0  0  0
  9  8  1  0  0  0  0
 10  9  2  0  0  0  0
 10 11  1  0  0  0  0
 11  6  2  0  0  0  0
 14 10  1  0  0  0  0
 16 15  1  1  0  0  0
 16 22  1  0  0  0  0
 17 18  1  0  0  0  0
 17 16  1  0  0  0  0
 17 19  1  0  0  0  0
 19 21  1  0  0  0  0
 20 19  1  0  0  0  0
 22 21  1  0  0  0  0
 22 23  1  0  0  0  0
M  END
>  <minimizedAffinity>
-3.86494803

$$$$

 OpenBabel03272502303D

 23 24  0  0  1  0  0  0  0  0999 V2000
   35.5550   25.8260   31.1610 C   0  0  0  0  0  0  0  0  0  0  0  0
   35.1560   26.2960   30.2400 H   0  0  0  0  0  0  0  0  0  0  0  0
   35.0650   26.2890   32.0540 H   0  0  0  0  0  0  0  0  0  0  0  0
   36.2530   23.4930   31.5160 C   0  0  0  0  0  3  0  0  0  0  0  0
   35.3320   24.3470   31.1540 C   0  0  0  0  0  3  0  0  0  0  0  0
   36.5080   19.8520   30.8360 C   0  0  0  0  0  0  0  0  0  0  0  0
   36.8200   21.2200   30.7910 C   0  0  0  0  0  0  0  0  0  0  0  0
   36.0160   22.0810   31.5010 C   0  0  0  0  0  0  0  0  0  0  0  0
   34.9620   21.5990   32.2150 N   0  0  0  0  0  0  0  0  0  0  0  0
   34.6960   20.2710   32.2320 C   0  0  0  0  0  0  0  0  0  0  0  0
   35.4580   19.3980   31.5510 N   0  0  0  0  0  0  0  0  0  0  0  0
   37.1550   19.1670   30.2650 H   0  0  0  0  0  0  0  0  0  0  0  0
   37.6640   21.5720   30.2140 H   0  0  0  0  0  0  0  0  0  0  0  0
   33.8410   19.9660   32.8250 H   0  0  0  0  0  0  0  0  0  0  0  0
   37.3380   26.1820   31.1800 S   0  0  0  0  0  0  0  0  0  0  0  0
   37.7390   26.9670   32.7520 C   0  0  1  0  0  3  0  0  0  0  0  0
   36.6650   27.9670   33.1800 C   0  0  0  0  0  3  0  0  0  0  0  0
   35.6770   27.5280   32.9340 H   0  0  0  0  0  0  0  0  0  0  0  0
   36.8060   27.8960   34.6870 C   0  0  0  0  0  3  0  0  0  0  0  0
   37.7120   28.4680   34.9860 H   0  0  0  0  0  0  0  0  0  0  0  0
   36.9500   26.5340   34.8970 O   0  0  0  0  0  0  0  0  0  0  0  0
   37.7380   26.0110   33.9050 C   0  0  0  0  0  3  0  0  0  0  0  0
   37.2500   25.0770   33.5320 H   0  0  0  0  0  0  0  0  0  0  0  0
  1 15  1  0  0  0  0
  1  3  1  0  0  0  0
  2  1  1  0  0  0  0
  5  1  1  0  0  0  0
  5  4  2  0  0  0  0
  6 11  1  0  0  0  0
  7  6  2  0  0  0  0
  7  8  1  0  0  0  0
  8  4  1  0  0  0  0
  8  9  2  0  0  0  0
  9 10  1  0  0  0  0
 10 14  1  0  0  0  0
 11 10  2  0  0  0  0
 12  6  1  0  0  0  0
 13  7  1  0  0  0  0
 16 15  1  6  0  0  0
 16 17  1  0  0  0  0
 16 22  1  0  0  0  0
 17 19  1  0  0  0  0
 18 17  1  0  0  0  0
 19 21  1  0  0  0  0
 19 20  1  0  0  0  0
 22 21  1  0  0  0  0
 23 22  1  0  0  0  0
M  END
>  <minimizedAffinity>
-3.83845425

$$$$

 OpenBabel03272502303D

 23 24  0  0  1  0  0  0  0  0999 V2000
   37.2850   26.8360   34.0640 C   0  0  0  0  0  0  0  0  0  0  0  0
   36.2770   26.4260   33.8550 H   0  0  0  0  0  0  0  0  0  0  0  0
   37.1910   27.9060   34.3750 H   0  0  0  0  0  0  0  0  0  0  0  0
   38.2840   24.7820   34.9800 C   0  0  0  0  0  3  0  0  0  0  0  0
   37.9790   26.0450   35.1270 C   0  0  0  0  0  3  0  0  0  0  0  0
   40.7410   22.7360   36.8690 C   0  0  0  0  0  0  0  0  0  0  0  0
   40.1650   23.4360   35.7970 C   0  0  0  0  0  0  0  0  0  0  0  0
   38.9500   24.0450   36.0120 C   0  0  0  0  0  0  0  0  0  0  0  0
   38.3490   23.9590   37.2300 N   0  0  0  0  0  0  0  0  0  0  0  0
   38.9390   23.2740   38.2380 C   0  0  0  0  0  0  0  0  0  0  0  0
   40.1250   22.6650   38.0680 N   0  0  0  0  0  0  0  0  0  0  0  0
   41.7130   22.2500   36.6920 H   0  0  0  0  0  0  0  0  0  0  0  0
   40.6680   23.4860   34.8410 H   0  0  0  0  0  0  0  0  0  0  0  0
   38.3980   23.2520   39.1770 H   0  0  0  0  0  0  0  0  0  0  0  0
   38.2130   26.7230   32.5050 S   0  0  0  0  0  0  0  0  0  0  0  0
   37.1720   25.8960   31.2880 C   0  0  1  0  0  3  0  0  0  0  0  0
   36.6750   24.5400   31.7920 C   0  0  0  0  0  3  0  0  0  0  0  0
   36.4160   24.6520   32.8640 H   0  0  0  0  0  0  0  0  0  0  0  0
   35.3630   24.4310   31.0410 C   0  0  0  0  0  3  0  0  0  0  0  0
   35.5810   24.1600   29.9830 H   0  0  0  0  0  0  0  0  0  0  0  0
   34.8560   25.7140   31.1610 O   0  0  0  0  0  0  0  0  0  0  0  0
   35.8830   26.6130   31.0310 C   0  0  0  0  0  3  0  0  0  0  0  0
   35.7830   27.3720   31.8460 H   0  0  0  0  0  0  0  0  0  0  0  0
  1  3  1  0  0  0  0
  1  5  1  0  0  0  0
  2  1  1  0  0  0  0
  4  5  2  0  0  0  0
  4  8  1  0  0  0  0
  6 11  1  0  0  0  0
  7  8  1  0  0  0  0
  7  6  2  0  0  0  0
  8  9  2  0  0  0  0
  9 10  1  0  0  0  0
 10 14  1  0  0  0  0
 11 10  2  0  0  0  0
 12  6  1  0  0  0  0
 13  7  1  0  0  0  0
 15  1  1  0  0  0  0
 16 17  1  0  0  0  0
 16 15  1  1  0  0  0
 17 18  1  0  0  0  0
 19 21  1  0  0  0  0
 19 17  1  0  0  0  0
 20 19  1  0  0  0  0
 22 21  1  0  0  0  0
 22 16  1  0  0  0  0
 22 23  1  0  0  0  0
M  END
>  <minimizedAffinity>
-3.81116962

$$$$
