
 OpenBabel03272509433D

 37 39  0  0  1  0  0  0  0  0999 V2000
   37.0170   30.9160   49.0480 C   0  0  0  0  0  0  0  0  0  0  0  0
   36.7270   31.7910   50.0960 C   0  0  0  0  0  0  0  0  0  0  0  0
   37.3140   33.0460   50.1820 C   0  0  0  0  0  0  0  0  0  0  0  0
   38.2190   33.4500   49.1980 C   0  0  0  0  0  0  0  0  0  0  0  0
   38.4940   32.5830   48.1780 C   0  0  0  0  0  0  0  0  0  0  0  0
   37.8880   31.3360   48.1250 C   0  0  0  0  0  0  0  0  0  0  0  0
   36.0190   31.4640   50.8550 H   0  0  0  0  0  0  0  0  0  0  0  0
   37.0330   33.6470   51.0180 H   0  0  0  0  0  0  0  0  0  0  0  0
   38.6240   34.4330   49.3450 H   0  0  0  0  0  0  0  0  0  0  0  0
   39.2140   33.0340   47.4970 H   0  0  0  0  0  0  0  0  0  0  0  0
   36.4330   29.5940   48.9750 C   0  0  2  0  0  0  0  0  0  0  0  0
   36.9560   29.0790   48.0800 H   0  0  0  0  0  0  0  0  0  0  0  0
   33.5700   30.0770   46.7920 C   0  0  0  0  0  0  0  0  0  0  0  0
   32.8710   28.8890   46.8870 C   0  0  0  0  0  0  0  0  0  0  0  0
   33.3440   27.9250   47.7570 C   0  0  0  0  0  0  0  0  0  0  0  0
   34.4820   28.1750   48.4910 N   0  0  0  0  0  0  0  0  0  0  0  0
   35.1050   29.3290   48.3530 C   0  0  0  0  0  0  0  0  0  0  0  0
   34.6560   30.2850   47.5090 N   0  0  0  0  0  0  0  0  0  0  0  0
   33.1620   30.8020   46.0990 H   0  0  0  0  0  0  0  0  0  0  0  0
   31.9800   28.5970   46.3620 H   0  0  0  0  0  0  0  0  0  0  0  0
   32.9040   26.9550   47.9380 H   0  0  0  0  0  0  0  0  0  0  0  0
   36.8830   28.8060   49.8880 O   0  0  0  0  0  0  0  0  0  0  0  0
   36.4050   28.0110   50.1870 H   0  0  0  0  0  0  0  0  0  0  0  0
   38.2900   30.5100   47.0100 C   0  0  0  0  0  3  0  0  0  0  0  0
   39.0210   30.9500   45.9800 C   0  0  0  0  0  3  0  0  0  0  0  0
   39.5230   30.1900   44.8130 C   0  0  0  0  0  0  0  0  0  0  0  0
   40.3920   29.5920   45.1570 H   0  0  0  0  0  0  0  0  0  0  0  0
   38.7520   29.4800   44.4200 H   0  0  0  0  0  0  0  0  0  0  0  0
   40.0690   31.3310   43.5370 S   0  0  0  0  0  0  0  0  0  0  0  0
   38.6800   31.6100   42.4110 C   0  0  1  0  0  3  0  0  0  0  0  0
   37.4370   32.0920   43.1050 C   0  0  0  0  0  3  0  0  0  0  0  0
   37.6220   32.5050   44.1240 H   0  0  0  0  0  0  0  0  0  0  0  0
   36.8920   33.0920   42.1390 C   0  0  0  0  0  3  0  0  0  0  0  0
   36.0770   32.6550   41.5230 H   0  0  0  0  0  0  0  0  0  0  0  0
   37.8780   33.5070   41.2880 O   0  0  0  0  0  0  0  0  0  0  0  0
   39.0190   32.7870   41.5270 C   0  0  0  0  0  3  0  0  0  0  0  0
   39.8100   33.4240   42.0200 H   0  0  0  0  0  0  0  0  0  0  0  0
  1  2  1  0  0  0  0
  2  3  2  0  0  0  0
  2  7  1  0  0  0  0
  3  8  1  0  0  0  0
  4  9  1  0  0  0  0
  4  3  1  0  0  0  0
  5  4  2  0  0  0  0
  6  5  1  0  0  0  0
  6  1  2  0  0  0  0
 10  5  1  0  0  0  0
 11 12  1  6  0  0  0
 11  1  1  0  0  0  0
 11 22  1  0  0  0  0
 13 14  2  0  0  0  0
 13 18  1  0  0  0  0
 14 15  1  0  0  0  0
 15 21  1  0  0  0  0
 15 16  2  0  0  0  0
 17 16  1  0  0  0  0
 17 11  1  0  0  0  0
 18 17  2  0  0  0  0
 19 13  1  0  0  0  0
 20 14  1  0  0  0  0
 22 23  1  0  0  0  0
 24  6  1  0  0  0  0
 25 24  2  0  0  0  0
 26 27  1  0  0  0  0
 26 25  1  0  0  0  0
 28 26  1  0  0  0  0
 29 26  1  0  0  0  0
 30 31  1  0  0  0  0
 30 29  1  1  0  0  0
 31 32  1  0  0  0  0
 33 31  1  0  0  0  0
 34 33  1  0  0  0  0
 35 36  1  0  0  0  0
 35 33  1  0  0  0  0
 36 37  1  0  0  0  0
 36 30  1  0  0  0  0
M  END
>  <minimizedAffinity>
-5.59338999

>  <minimizedRMSD>
0.814320087

$$$$
