
 OpenBabel03272506413D

 18 19  0  0  1  0  0  0  0  0999 V2000
   37.2410   30.3090   51.3550 C   0  0  0  0  0  0  0  0  0  0  0  0
   38.1090   30.8220   50.3690 C   0  0  0  0  0  0  0  0  0  0  0  0
   37.8860   30.4760   49.0320 C   0  0  0  0  0  0  0  0  0  0  0  0
   36.8400   29.6580   48.7510 N   0  0  0  0  0  0  0  0  0  0  0  0
   36.0210   29.1770   49.7050 C   0  0  0  0  0  0  0  0  0  0  0  0
   36.2280   29.5050   50.9920 N   0  0  0  0  0  0  0  0  0  0  0  0
   37.4490   30.5980   52.3680 H   0  0  0  0  0  0  0  0  0  0  0  0
   38.9530   31.4760   50.5690 H   0  0  0  0  0  0  0  0  0  0  0  0
   38.5070   30.8300   48.2260 H   0  0  0  0  0  0  0  0  0  0  0  0
   34.6490   28.1030   49.3340 S   0  0  0  0  0  0  0  0  0  0  0  0
   33.6650   28.8500   48.0440 C   0  0  2  0  0  3  0  0  0  0  0  0
   33.8640   28.1800   46.6780 C   0  0  0  0  0  3  0  0  0  0  0  0
   33.2610   27.2710   46.5570 H   0  0  0  0  0  0  0  0  0  0  0  0
   33.3010   29.3440   45.8460 C   0  0  0  0  0  3  0  0  0  0  0  0
   32.3120   29.5580   46.2860 H   0  0  0  0  0  0  0  0  0  0  0  0
   34.1580   30.3540   46.3080 O   0  0  0  0  0  0  0  0  0  0  0  0
   34.1450   30.2480   47.6870 C   0  0  0  0  0  3  0  0  0  0  0  0
   33.4530   31.0330   48.0580 H   0  0  0  0  0  0  0  0  0  0  0  0
  1  7  1  0  0  0  0
  2  8  1  0  0  0  0
  2  1  2  0  0  0  0
  3  2  1  0  0  0  0
  4  3  2  0  0  0  0
  4  5  1  0  0  0  0
  5  6  2  0  0  0  0
  6  1  1  0  0  0  0
  9  3  1  0  0  0  0
 10  5  1  0  0  0  0
 11 10  1  1  0  0  0
 12 11  1  0  0  0  0
 13 12  1  0  0  0  0
 14 15  1  0  0  0  0
 14 16  1  0  0  0  0
 14 12  1  0  0  0  0
 16 17  1  0  0  0  0
 17 11  1  0  0  0  0
 17 18  1  0  0  0  0
M  END
>  <minimizedAffinity>
-3.70493627

>  <minimizedRMSD>
1.47750568

$$$$
