
 OpenBabel03272503423D

 40 43  0  0  1  0  0  0  0  0999 V2000
   38.3890   31.2200   45.9060 C   0  0  0  0  0  0  0  0  0  0  0  0
   39.7320   31.1150   46.1390 C   0  0  0  0  0  0  0  0  0  0  0  0
   40.3280   31.5440   44.9430 C   0  0  0  0  0  0  0  0  0  0  0  0
   39.3670   31.8770   44.0710 N   0  0  0  0  0  0  0  0  0  0  0  0
   38.1870   31.6800   44.6560 N   0  0  0  0  0  0  0  0  0  0  0  0
   40.2630   30.7840   47.0240 H   0  0  0  0  0  0  0  0  0  0  0  0
   41.4050   31.5690   44.8320 H   0  0  0  0  0  0  0  0  0  0  0  0
   39.6750   31.2080   41.7470 C   0  0  2  0  0  0  0  0  0  0  0  0
   39.6520   32.3580   42.7430 C   0  0  1  0  0  0  0  0  0  0  0  0
   38.4990   33.1410   42.1490 C   0  0  0  0  0  0  0  0  0  0  0  0
   38.5760   33.0170   40.7830 O   0  0  0  0  0  0  0  0  0  0  0  0
   39.4520   32.0270   40.4590 C   0  0  0  0  0  0  0  0  0  0  0  0
   40.6130   30.6780   41.6770 H   0  0  0  0  0  0  0  0  0  0  0  0
   40.5520   32.9640   42.7190 H   0  0  0  0  0  0  0  0  0  0  0  0
   37.5440   32.6380   42.4480 H   0  0  0  0  0  0  0  0  0  0  0  0
   38.5250   34.1950   42.4410 H   0  0  0  0  0  0  0  0  0  0  0  0
   39.0610   31.3070   39.7020 H   0  0  0  0  0  0  0  0  0  0  0  0
   40.4360   32.4390   40.1310 H   0  0  0  0  0  0  0  0  0  0  0  0
   38.5600   30.4360   41.9760 O   0  0  0  0  0  0  0  0  0  0  0  0
   38.7280   29.0980   41.9540 C   0  0  1  0  0  3  0  0  0  0  0  0
   39.9330   28.5800   41.2030 C   0  0  0  0  0  3  0  0  0  0  0  0
   40.8670   29.0580   41.5300 H   0  0  0  0  0  0  0  0  0  0  0  0
   39.9230   27.1520   41.7250 C   0  0  0  0  0  3  0  0  0  0  0  0
   39.1730   26.6060   41.0890 H   0  0  0  0  0  0  0  0  0  0  0  0
   39.4400   27.1740   43.0070 O   0  0  0  0  0  0  0  0  0  0  0  0
   38.9330   28.4270   43.2770 C   0  0  0  0  0  3  0  0  0  0  0  0
   39.6460   28.9320   43.9380 H   0  0  0  0  0  0  0  0  0  0  0  0
   36.4990   30.6350   49.0940 C   0  0  0  0  0  0  0  0  0  0  0  0
   37.5150   30.9630   48.2280 C   0  0  0  0  0  0  0  0  0  0  0  0
   37.3490   30.8860   46.8620 C   0  0  0  0  0  0  0  0  0  0  0  0
   36.1460   30.4740   46.4180 N   0  0  0  0  0  0  0  0  0  0  0  0
   35.1390   30.1500   47.2820 C   0  0  0  0  0  0  0  0  0  0  0  0
   35.2990   30.2240   48.5870 N   0  0  0  0  0  0  0  0  0  0  0  0
   38.5120   31.3020   48.5490 H   0  0  0  0  0  0  0  0  0  0  0  0
   34.1840   29.8230   46.8670 H   0  0  0  0  0  0  0  0  0  0  0  0
   36.8340   30.7680   50.4300 O   0  0  0  0  0  0  0  0  0  0  0  0
   36.8910   29.6890   51.3360 C   0  0  0  0  0  0  0  0  0  0  0  0
   35.6100   29.2430   51.6500 F   0  0  0  0  0  0  0  0  0  0  0  0
   37.5650   30.0910   52.4620 F   0  0  0  0  0  0  0  0  0  0  0  0
   37.6090   28.6740   50.7470 F   0  0  0  0  0  0  0  0  0  0  0  0
  1  2  1  0  0  0  0
  1 30  1  0  0  0  0
  2  6  1  0  0  0  0
  3  2  2  0  0  0  0
  4  5  1  0  0  0  0
  4  3  1  0  0  0  0
  5  1  2  0  0  0  0
  7  3  1  0  0  0  0
  8 13  1  1  0  0  0
  8 19  1  0  0  0  0
  8  9  1  0  0  0  0
  9 14  1  6  0  0  0
  9  4  1  0  0  0  0
 10 16  1  0  0  0  0
 10 15  1  0  0  0  0
 10  9  1  0  0  0  0
 11 10  1  0  0  0  0
 12 11  1  0  0  0  0
 12  8  1  0  0  0  0
 17 12  1  0  0  0  0
 18 12  1  0  0  0  0
 20 19  1  1  0  0  0
 20 26  1  0  0  0  0
 21 22  1  0  0  0  0
 21 23  1  0  0  0  0
 21 20  1  0  0  0  0
 23 25  1  0  0  0  0
 24 23  1  0  0  0  0
 25 26  1  0  0  0  0
 26 27  1  0  0  0  0
 28 36  1  0  0  0  0
 29 34  1  0  0  0  0
 29 28  2  0  0  0  0
 30 29  1  0  0  0  0
 31 30  2  0  0  0  0
 31 32  1  0  0  0  0
 32 33  2  0  0  0  0
 33 28  1  0  0  0  0
 35 32  1  0  0  0  0
 36 37  1  0  0  0  0
 37 38  1  0  0  0  0
 37 39  1  0  0  0  0
 40 37  1  0  0  0  0
M  END
>  <minimizedAffinity>
-6.14430523

>  <minimizedRMSD>
0.420087337

$$$$
