
 OpenBabel03272507413D

 40 43  0  0  1  0  0  0  0  0999 V2000
   36.7580   32.2230   49.1270 O   0  0  0  0  0  0  0  0  0  0  0  0
   38.2390   32.1740   47.1320 C   0  0  0  0  0  0  0  0  0  0  0  0
   37.8750   32.6160   48.3890 C   0  0  0  0  0  0  0  0  0  0  0  0
   38.6550   33.5530   49.0580 C   0  0  0  0  0  0  0  0  0  0  0  0
   39.8030   34.0410   48.4510 C   0  0  0  0  0  0  0  0  0  0  0  0
   40.1610   33.5940   47.1920 C   0  0  0  0  0  0  0  0  0  0  0  0
   39.3630   32.6660   46.5630 C   0  0  0  0  0  0  0  0  0  0  0  0
   38.4480   33.9450   50.0260 H   0  0  0  0  0  0  0  0  0  0  0  0
   40.4370   34.7730   48.9410 H   0  0  0  0  0  0  0  0  0  0  0  0
   41.0390   33.9450   46.6860 H   0  0  0  0  0  0  0  0  0  0  0  0
   39.7580   32.1980   45.2150 C   0  0  0  0  0  0  0  0  0  0  0  0
   40.6010   31.1730   44.8570 C   0  0  0  0  0  0  0  0  0  0  0  0
   40.6330   31.1480   43.4650 C   0  0  0  0  0  0  0  0  0  0  0  0
   39.8020   32.1660   43.0610 C   0  0  0  0  0  0  0  0  0  0  0  0
   39.2950   32.7750   44.1180 O   0  0  0  0  0  0  0  0  0  0  0  0
   41.1150   30.5370   45.5760 H   0  0  0  0  0  0  0  0  0  0  0  0
   41.2170   30.4400   42.8880 H   0  0  0  0  0  0  0  0  0  0  0  0
   39.6060   32.4160   42.0190 H   0  0  0  0  0  0  0  0  0  0  0  0
   36.7010   30.4410   46.0130 N   0  0  0  0  0  0  0  0  0  0  0  0
   37.3830   31.2150   46.5220 C   0  0  0  0  0  0  0  0  0  0  0  0
   36.7520   31.2140   50.0280 C   0  0  0  0  0  0  0  0  0  0  0  0
   35.7220   30.3100   49.7920 C   0  0  0  0  0  0  0  0  0  0  0  0
   35.5480   29.2010   50.6110 C   0  0  0  0  0  0  0  0  0  0  0  0
   36.4270   29.0440   51.6480 N   0  0  0  0  0  0  0  0  0  0  0  0
   37.4240   29.9420   51.8560 C   0  0  0  0  0  0  0  0  0  0  0  0
   37.5720   30.9970   51.0580 N   0  0  0  0  0  0  0  0  0  0  0  0
   34.7960   28.4580   50.5140 H   0  0  0  0  0  0  0  0  0  0  0  0
   38.1210   29.8250   52.6720 H   0  0  0  0  0  0  0  0  0  0  0  0
   34.3330   29.1810   48.1270 C   0  0  0  0  0  0  0  0  0  0  0  0
   34.6740   27.9420   48.2410 O   0  0  0  0  0  0  0  0  0  0  0  0
   34.7750   30.3680   48.7710 N   0  0  0  0  0  0  0  0  0  0  0  0
   34.3430   31.2530   48.4260 H   0  0  0  0  0  0  0  0  0  0  0  0
   33.2500   29.2580   47.0760 C   0  0  1  0  0  3  0  0  0  0  0  0
   33.1210   30.6220   46.4870 C   0  0  0  0  0  3  0  0  0  0  0  0
   34.1620   31.0170   46.3310 H   0  0  0  0  0  0  0  0  0  0  0  0
   32.5000   30.2910   45.1500 C   0  0  0  0  0  3  0  0  0  0  0  0
   31.3890   30.2140   45.3360 H   0  0  0  0  0  0  0  0  0  0  0  0
   32.9610   29.0380   44.7840 O   0  0  0  0  0  0  0  0  0  0  0  0
   33.6040   28.4530   45.8520 C   0  0  0  0  0  3  0  0  0  0  0  0
   33.2890   27.3860   45.9410 H   0  0  0  0  0  0  0  0  0  0  0  0
  1 21  1  0  0  0  0
  2  3  1  0  0  0  0
  3  4  2  0  0  0  0
  3  1  1  0  0  0  0
  4  8  1  0  0  0  0
  5  9  1  0  0  0  0
  5  4  1  0  0  0  0
  6  5  2  0  0  0  0
  7  2  2  0  0  0  0
  7  6  1  0  0  0  0
 10  6  1  0  0  0  0
 11  7  1  0  0  0  0
 12 11  2  0  0  0  0
 12 16  1  0  0  0  0
 13 12  1  0  0  0  0
 14 13  2  0  0  0  0
 14 15  1  0  0  0  0
 15 11  1  0  0  0  0
 17 13  1  0  0  0  0
 18 14  1  0  0  0  0
 19 20  3  0  0  0  0
 20  2  1  0  0  0  0
 21 26  1  0  0  0  0
 22 21  2  0  0  0  0
 22 23  1  0  0  0  0
 23 24  2  0  0  0  0
 24 25  1  0  0  0  0
 25 28  1  0  0  0  0
 26 25  2  0  0  0  0
 27 23  1  0  0  0  0
 29 30  2  0  0  0  0
 29 31  1  0  0  0  0
 31 22  1  0  0  0  0
 32 31  1  0  0  0  0
 33 29  1  1  0  0  0
 34 33  1  0  0  0  0
 35 34  1  0  0  0  0
 36 37  1  0  0  0  0
 36 34  1  0  0  0  0
 38 36  1  0  0  0  0
 38 39  1  0  0  0  0
 39 40  1  0  0  0  0
 39 33  1  0  0  0  0
M  END
>  <minimizedAffinity>
-5.82314682

>  <minimizedRMSD>
0.625486135

$$$$
