
 OpenBabel03272509433D

 37 39  0  0  1  0  0  0  0  0999 V2000
   37.0170   30.9220   49.0370 C   0  0  0  0  0  0  0  0  0  0  0  0
   36.7220   31.7940   50.0870 C   0  0  0  0  0  0  0  0  0  0  0  0
   37.3100   33.0490   50.1800 C   0  0  0  0  0  0  0  0  0  0  0  0
   38.2200   33.4540   49.2010 C   0  0  0  0  0  0  0  0  0  0  0  0
   38.4990   32.5920   48.1800 C   0  0  0  0  0  0  0  0  0  0  0  0
   37.8930   31.3450   48.1200 C   0  0  0  0  0  0  0  0  0  0  0  0
   36.0110   31.4650   50.8420 H   0  0  0  0  0  0  0  0  0  0  0  0
   37.0260   33.6460   51.0160 H   0  0  0  0  0  0  0  0  0  0  0  0
   38.6250   34.4370   49.3530 H   0  0  0  0  0  0  0  0  0  0  0  0
   39.2220   33.0440   47.5030 H   0  0  0  0  0  0  0  0  0  0  0  0
   36.4320   29.6010   48.9570 C   0  0  2  0  0  0  0  0  0  0  0  0
   36.9560   29.0900   48.0600 H   0  0  0  0  0  0  0  0  0  0  0  0
   33.5730   30.0960   46.7700 C   0  0  0  0  0  0  0  0  0  0  0  0
   32.8740   28.9080   46.8580 C   0  0  0  0  0  0  0  0  0  0  0  0
   33.3450   27.9390   47.7240 C   0  0  0  0  0  0  0  0  0  0  0  0
   34.4820   28.1850   48.4620 N   0  0  0  0  0  0  0  0  0  0  0  0
   35.1060   29.3390   48.3310 C   0  0  0  0  0  0  0  0  0  0  0  0
   34.6590   30.3000   47.4910 N   0  0  0  0  0  0  0  0  0  0  0  0
   33.1680   30.8240   46.0800 H   0  0  0  0  0  0  0  0  0  0  0  0
   31.9840   28.6190   46.3300 H   0  0  0  0  0  0  0  0  0  0  0  0
   32.9050   26.9680   47.8990 H   0  0  0  0  0  0  0  0  0  0  0  0
   36.8790   28.8090   49.8670 O   0  0  0  0  0  0  0  0  0  0  0  0
   36.4010   28.0130   50.1620 H   0  0  0  0  0  0  0  0  0  0  0  0
   38.2990   30.5220   47.0040 C   0  0  0  0  0  3  0  0  0  0  0  0
   39.0630   30.9560   45.9950 C   0  0  0  0  0  3  0  0  0  0  0  0
   39.5720   30.1980   44.8300 C   0  0  0  0  0  0  0  0  0  0  0  0
   40.4780   29.6500   45.1630 H   0  0  0  0  0  0  0  0  0  0  0  0
   38.8280   29.4430   44.4710 H   0  0  0  0  0  0  0  0  0  0  0  0
   40.0300   31.3380   43.5190 S   0  0  0  0  0  0  0  0  0  0  0  0
   38.5900   31.5540   42.4440 C   0  0  1  0  0  3  0  0  0  0  0  0
   37.4810   32.3380   43.0830 C   0  0  0  0  0  3  0  0  0  0  0  0
   37.8020   32.9310   43.9700 H   0  0  0  0  0  0  0  0  0  0  0  0
   36.9740   33.1690   41.9510 C   0  0  0  0  0  3  0  0  0  0  0  0
   36.0630   32.7250   41.4990 H   0  0  0  0  0  0  0  0  0  0  0  0
   37.9260   33.2530   40.9700 O   0  0  0  0  0  0  0  0  0  0  0  0
   38.9880   32.4540   41.2980 C   0  0  0  0  0  3  0  0  0  0  0  0
   39.8900   33.0690   41.5880 H   0  0  0  0  0  0  0  0  0  0  0  0
  1  2  1  0  0  0  0
  2  3  2  0  0  0  0
  2  7  1  0  0  0  0
  3  8  1  0  0  0  0
  4  9  1  0  0  0  0
  4  3  1  0  0  0  0
  5  4  2  0  0  0  0
  6  5  1  0  0  0  0
  6  1  2  0  0  0  0
 10  5  1  0  0  0  0
 11 12  1  6  0  0  0
 11  1  1  0  0  0  0
 11 22  1  0  0  0  0
 13 14  2  0  0  0  0
 13 18  1  0  0  0  0
 14 15  1  0  0  0  0
 15 21  1  0  0  0  0
 15 16  2  0  0  0  0
 17 16  1  0  0  0  0
 17 11  1  0  0  0  0
 18 17  2  0  0  0  0
 19 13  1  0  0  0  0
 20 14  1  0  0  0  0
 22 23  1  0  0  0  0
 24  6  1  0  0  0  0
 25 24  2  0  0  0  0
 26 27  1  0  0  0  0
 26 25  1  0  0  0  0
 28 26  1  0  0  0  0
 29 26  1  0  0  0  0
 30 31  1  0  0  0  0
 30 29  1  1  0  0  0
 31 32  1  0  0  0  0
 33 31  1  0  0  0  0
 34 33  1  0  0  0  0
 35 36  1  0  0  0  0
 35 33  1  0  0  0  0
 36 37  1  0  0  0  0
 36 30  1  0  0  0  0
M  END
>  <minimizedAffinity>
-5.56878328

>  <minimizedRMSD>
0.772810936

$$$$
