
 OpenBabel03272510313D

 31 33  0  0  1  0  0  0  0  0999 V2000
   37.3830   31.0600   49.3290 C   0  0  0  0  0  0  0  0  0  0  0  0
   38.4170   31.9760   49.2920 C   0  0  0  0  0  0  0  0  0  0  0  0
   38.7720   32.4140   48.0190 C   0  0  0  0  0  0  0  0  0  0  0  0
   38.1070   31.9370   46.9200 N   0  0  0  0  0  0  0  0  0  0  0  0
   37.0980   31.0390   47.0060 C   0  0  0  0  0  0  0  0  0  0  0  0
   36.7350   30.5950   48.2420 N   0  0  0  0  0  0  0  0  0  0  0  0
   38.9390   32.3520   50.1400 H   0  0  0  0  0  0  0  0  0  0  0  0
   39.5630   33.1320   47.8260 H   0  0  0  0  0  0  0  0  0  0  0  0
   36.9430   30.5810   50.6850 C   0  0  0  0  0  0  0  0  0  0  0  0
   36.0110   29.5190   50.8740 C   0  0  0  0  0  0  0  0  0  0  0  0
   37.4890   29.1750   51.0160 C   0  0  0  0  0  0  0  0  0  0  0  0
   37.1200   31.3500   51.4590 H   0  0  0  0  0  0  0  0  0  0  0  0
   35.5160   28.9700   50.0480 H   0  0  0  0  0  0  0  0  0  0  0  0
   35.4070   29.5200   51.8140 H   0  0  0  0  0  0  0  0  0  0  0  0
   37.8880   29.1030   52.0460 H   0  0  0  0  0  0  0  0  0  0  0  0
   37.9890   28.6120   50.2170 H   0  0  0  0  0  0  0  0  0  0  0  0
   36.3830   30.5380   45.8400 C   0  0  0  0  0  0  0  0  0  0  0  0
   35.7250   31.3730   45.4780 H   0  0  0  0  0  0  0  0  0  0  0  0
   35.8320   29.6310   46.0660 H   0  0  0  0  0  0  0  0  0  0  0  0
   37.4460   30.9500   43.6160 C   0  0  0  0  0  0  0  0  0  0  0  0
   36.6820   31.9300   43.3130 O   0  0  0  0  0  0  0  0  0  0  0  0
   37.3780   30.2200   44.8280 N   0  0  0  0  0  0  0  0  0  0  0  0
   38.0260   29.4410   45.0390 H   0  0  0  0  0  0  0  0  0  0  0  0
   38.4980   30.5200   42.6370 C   0  0  2  0  0  3  0  0  0  0  0  0
   39.6310   29.7700   43.3080 C   0  0  0  0  0  3  0  0  0  0  0  0
   39.4280   28.7110   43.4610 H   0  0  0  0  0  0  0  0  0  0  0  0
   40.7070   30.0040   42.2410 C   0  0  0  0  0  3  0  0  0  0  0  0
   40.4350   29.3170   41.3880 H   0  0  0  0  0  0  0  0  0  0  0  0
   40.5220   31.2910   41.7820 O   0  0  0  0  0  0  0  0  0  0  0  0
   39.2870   31.7550   42.1830 C   0  0  0  0  0  3  0  0  0  0  0  0
   39.4720   32.3430   43.1270 H   0  0  0  0  0  0  0  0  0  0  0  0
  1  9  1  0  0  0  0
  2  1  1  0  0  0  0
  2  7  1  0  0  0  0
  3  2  2  0  0  0  0
  4  5  2  0  0  0  0
  4  3  1  0  0  0  0
  5  6  1  0  0  0  0
  6  1  2  0  0  0  0
  8  3  1  0  0  0  0
  9 10  1  0  0  0  0
  9 11  1  0  0  0  0
  9 12  1  0  0  0  0
 10 11  1  0  0  0  0
 10 14  1  0  0  0  0
 11 15  1  0  0  0  0
 13 10  1  0  0  0  0
 16 11  1  0  0  0  0
 17 19  1  0  0  0  0
 17  5  1  0  0  0  0
 18 17  1  0  0  0  0
 20 22  1  0  0  0  0
 21 20  2  0  0  0  0
 22 23  1  0  0  0  0
 22 17  1  0  0  0  0
 24 25  1  0  0  0  0
 24 20  1  1  0  0  0
 25 26  1  0  0  0  0
 27 25  1  0  0  0  0
 28 27  1  0  0  0  0
 29 30  1  0  0  0  0
 29 27  1  0  0  0  0
 30 24  1  0  0  0  0
 30 31  1  0  0  0  0
M  END
>  <minimizedAffinity>
-4.78443623

>  <minimizedRMSD>
3.2205596

$$$$
