
 OpenBabel03272507413D

 40 43  0  0  1  0  0  0  0  0999 V2000
   36.7110   32.2890   49.2780 O   0  0  0  0  0  0  0  0  0  0  0  0
   38.2420   32.2580   47.3220 C   0  0  0  0  0  0  0  0  0  0  0  0
   37.8390   32.6990   48.5670 C   0  0  0  0  0  0  0  0  0  0  0  0
   38.5860   33.6500   49.2530 C   0  0  0  0  0  0  0  0  0  0  0  0
   39.7410   34.1550   48.6730 C   0  0  0  0  0  0  0  0  0  0  0  0
   40.1380   33.7110   47.4250 C   0  0  0  0  0  0  0  0  0  0  0  0
   39.3720   32.7670   46.7800 C   0  0  0  0  0  0  0  0  0  0  0  0
   38.3480   34.0420   50.2130 H   0  0  0  0  0  0  0  0  0  0  0  0
   40.3500   34.9000   49.1760 H   0  0  0  0  0  0  0  0  0  0  0  0
   41.0220   34.0740   46.9400 H   0  0  0  0  0  0  0  0  0  0  0  0
   39.8090   32.3010   45.4450 C   0  0  0  0  0  0  0  0  0  0  0  0
   40.6530   31.2690   45.1110 C   0  0  0  0  0  0  0  0  0  0  0  0
   40.7330   31.2500   43.7210 C   0  0  0  0  0  0  0  0  0  0  0  0
   39.9270   32.2780   43.2920 C   0  0  0  0  0  0  0  0  0  0  0  0
   39.3900   32.8870   44.3340 O   0  0  0  0  0  0  0  0  0  0  0  0
   41.1370   30.6250   45.8440 H   0  0  0  0  0  0  0  0  0  0  0  0
   41.3300   30.5390   43.1600 H   0  0  0  0  0  0  0  0  0  0  0  0
   39.7700   32.5340   42.2460 H   0  0  0  0  0  0  0  0  0  0  0  0
   36.7630   30.4950   46.1710 N   0  0  0  0  0  0  0  0  0  0  0  0
   37.4180   31.2830   46.6940 C   0  0  0  0  0  0  0  0  0  0  0  0
   36.6630   31.1990   50.0780 C   0  0  0  0  0  0  0  0  0  0  0  0
   35.5540   30.4040   49.8120 C   0  0  0  0  0  0  0  0  0  0  0  0
   35.3280   29.2360   50.5300 C   0  0  0  0  0  0  0  0  0  0  0  0
   36.2360   28.9110   51.5000 N   0  0  0  0  0  0  0  0  0  0  0  0
   37.3120   29.7050   51.7400 C   0  0  0  0  0  0  0  0  0  0  0  0
   37.5080   30.8200   51.0390 N   0  0  0  0  0  0  0  0  0  0  0  0
   34.5150   28.5660   50.4020 H   0  0  0  0  0  0  0  0  0  0  0  0
   38.0320   29.4560   52.5030 H   0  0  0  0  0  0  0  0  0  0  0  0
   34.1810   29.6050   47.9540 C   0  0  0  0  0  0  0  0  0  0  0  0
   34.6020   28.4000   47.7650 O   0  0  0  0  0  0  0  0  0  0  0  0
   34.5700   30.6350   48.8530 N   0  0  0  0  0  0  0  0  0  0  0  0
   34.0720   31.5440   48.7340 H   0  0  0  0  0  0  0  0  0  0  0  0
   33.0600   29.8510   46.9720 C   0  0  1  0  0  3  0  0  0  0  0  0
   33.5410   29.9300   45.5630 C   0  0  0  0  0  3  0  0  0  0  0  0
   34.3130   29.1250   45.4300 H   0  0  0  0  0  0  0  0  0  0  0  0
   32.2820   29.5540   44.8160 C   0  0  0  0  0  3  0  0  0  0  0  0
   31.6860   30.5080   44.7150 H   0  0  0  0  0  0  0  0  0  0  0  0
   31.5700   28.6860   45.6260 O   0  0  0  0  0  0  0  0  0  0  0  0
   32.1260   28.6730   46.8860 C   0  0  0  0  0  3  0  0  0  0  0  0
   31.3150   28.7160   47.6530 H   0  0  0  0  0  0  0  0  0  0  0  0
  1 21  1  0  0  0  0
  2  3  1  0  0  0  0
  3  4  2  0  0  0  0
  3  1  1  0  0  0  0
  4  8  1  0  0  0  0
  5  9  1  0  0  0  0
  5  4  1  0  0  0  0
  6  5  2  0  0  0  0
  7  2  2  0  0  0  0
  7  6  1  0  0  0  0
 10  6  1  0  0  0  0
 11  7  1  0  0  0  0
 12 11  2  0  0  0  0
 12 16  1  0  0  0  0
 13 12  1  0  0  0  0
 14 13  2  0  0  0  0
 14 15  1  0  0  0  0
 15 11  1  0  0  0  0
 17 13  1  0  0  0  0
 18 14  1  0  0  0  0
 19 20  3  0  0  0  0
 20  2  1  0  0  0  0
 21 26  1  0  0  0  0
 22 21  2  0  0  0  0
 22 23  1  0  0  0  0
 23 24  2  0  0  0  0
 24 25  1  0  0  0  0
 25 28  1  0  0  0  0
 26 25  2  0  0  0  0
 27 23  1  0  0  0  0
 29 31  1  0  0  0  0
 30 29  2  0  0  0  0
 31 22  1  0  0  0  0
 32 31  1  0  0  0  0
 33 29  1  1  0  0  0
 34 33  1  0  0  0  0
 35 34  1  0  0  0  0
 36 34  1  0  0  0  0
 36 38  1  0  0  0  0
 37 36  1  0  0  0  0
 38 39  1  0  0  0  0
 39 33  1  0  0  0  0
 39 40  1  0  0  0  0
M  END
>  <minimizedAffinity>
-5.86206007

>  <minimizedRMSD>
0.338403404

$$$$
