
 OpenBabel03272503243D

 31 33  0  0  1  0  0  0  0  0999 V2000
   36.3650   29.8520   49.3090 N   0  0  0  0  0  0  0  0  0  0  0  0
   36.8960   31.1680   49.1870 C   0  0  1  0  0  0  0  0  0  0  0  0
   37.5440   31.4290   50.5360 C   0  0  0  0  0  0  0  0  0  0  0  0
   37.2650   30.1490   51.3530 C   0  0  0  0  0  0  0  0  0  0  0  0
   37.1970   29.1460   50.2480 C   0  0  0  0  0  0  0  0  0  0  0  0
   36.0590   31.9410   49.1510 H   0  0  0  0  0  0  0  0  0  0  0  0
   38.6370   31.4620   50.3450 H   0  0  0  0  0  0  0  0  0  0  0  0
   37.1920   32.3290   51.0420 H   0  0  0  0  0  0  0  0  0  0  0  0
   38.1550   29.9820   51.9770 H   0  0  0  0  0  0  0  0  0  0  0  0
   36.3190   30.2400   51.9200 H   0  0  0  0  0  0  0  0  0  0  0  0
   38.1990   28.9190   49.8750 H   0  0  0  0  0  0  0  0  0  0  0  0
   36.7080   28.2030   50.5880 H   0  0  0  0  0  0  0  0  0  0  0  0
   35.2210   29.3440   48.6310 C   0  0  0  0  0  0  0  0  0  0  0  0
   34.5830   30.1800   47.7020 C   0  0  0  0  0  0  0  0  0  0  0  0
   33.4580   29.7080   47.0180 C   0  0  0  0  0  0  0  0  0  0  0  0
   33.0520   28.4320   47.3140 N   0  0  0  0  0  0  0  0  0  0  0  0
   33.6910   27.6510   48.2160 C   0  0  0  0  0  0  0  0  0  0  0  0
   34.8000   28.0990   48.8980 N   0  0  0  0  0  0  0  0  0  0  0  0
   34.9010   31.1800   47.4690 H   0  0  0  0  0  0  0  0  0  0  0  0
   32.9650   30.3330   46.3110 H   0  0  0  0  0  0  0  0  0  0  0  0
   33.2930   26.6590   48.3790 H   0  0  0  0  0  0  0  0  0  0  0  0
   37.7470   31.4280   48.0290 C   0  0  0  0  0  0  0  0  0  0  0  0
   38.1330   32.6080   47.9770 O   0  0  0  0  0  0  0  0  0  0  0  0
   38.2820   30.6520   46.8670 C   0  0  1  0  0  0  0  0  0  0  0  0
   37.5020   30.7160   45.6170 C   0  0  0  0  0  0  0  0  0  0  0  0
   36.7660   29.9000   45.4790 H   0  0  0  0  0  0  0  0  0  0  0  0
   38.5810   30.4510   44.5680 C   0  0  0  0  0  0  0  0  0  0  0  0
   38.6090   29.3650   44.2960 H   0  0  0  0  0  0  0  0  0  0  0  0
   39.7860   30.7350   45.1520 O   0  0  0  0  0  0  0  0  0  0  0  0
   39.5840   31.2600   46.3950 C   0  0  0  0  0  0  0  0  0  0  0  0
   40.3810   31.0040   47.1260 H   0  0  0  0  0  0  0  0  0  0  0  0
  1  5  1  0  0  0  0
  2  6  1  6  0  0  0
  2  1  1  0  0  0  0
  2  3  1  0  0  0  0
  3  8  1  0  0  0  0
  3  4  1  0  0  0  0
  4 10  1  0  0  0  0
  4  9  1  0  0  0  0
  5 12  1  0  0  0  0
  5  4  1  0  0  0  0
  7  3  1  0  0  0  0
 11  5  1  0  0  0  0
 13 18  1  0  0  0  0
 13  1  1  0  0  0  0
 14 13  2  0  0  0  0
 15 16  2  0  0  0  0
 15 14  1  0  0  0  0
 16 17  1  0  0  0  0
 17 21  1  0  0  0  0
 17 18  2  0  0  0  0
 19 14  1  0  0  0  0
 20 15  1  0  0  0  0
 22  2  1  0  0  0  0
 23 22  2  0  0  0  0
 24 22  1  1  0  0  0
 25 24  1  0  0  0  0
 26 25  1  0  0  0  0
 27 29  1  0  0  0  0
 27 25  1  0  0  0  0
 28 27  1  0  0  0  0
 29 30  1  0  0  0  0
 30 24  1  0  0  0  0
 30 31  1  0  0  0  0
M  END
>  <minimizedAffinity>
-5.29998636

>  <minimizedRMSD>
1.53715003

$$$$
