
 OpenBabel03272502303D

 23 24  0  0  1  0  0  0  0  0999 V2000
   39.3860   32.2600   46.3170 C   0  0  0  0  0  0  0  0  0  0  0  0
   39.8030   33.2830   46.4090 H   0  0  0  0  0  0  0  0  0  0  0  0
   40.2000   31.5560   46.0120 H   0  0  0  0  0  0  0  0  0  0  0  0
   38.0820   30.7030   47.7070 C   0  0  0  0  0  3  0  0  0  0  0  0
   38.7660   31.8120   47.6030 C   0  0  0  0  0  3  0  0  0  0  0  0
   37.3840   30.2350   51.3240 C   0  0  0  0  0  0  0  0  0  0  0  0
   38.0260   30.6850   50.1590 C   0  0  0  0  0  0  0  0  0  0  0  0
   37.4980   30.2950   48.9490 C   0  0  0  0  0  0  0  0  0  0  0  0
   36.3920   29.5030   48.9100 N   0  0  0  0  0  0  0  0  0  0  0  0
   35.8030   29.0920   50.0590 C   0  0  0  0  0  0  0  0  0  0  0  0
   36.2890   29.4500   51.2590 N   0  0  0  0  0  0  0  0  0  0  0  0
   37.8110   30.5500   52.2890 H   0  0  0  0  0  0  0  0  0  0  0  0
   38.9030   31.3130   50.2230 H   0  0  0  0  0  0  0  0  0  0  0  0
   34.9270   28.4640   49.9430 H   0  0  0  0  0  0  0  0  0  0  0  0
   38.1190   32.3430   45.0160 S   0  0  0  0  0  0  0  0  0  0  0  0
   38.6490   31.3000   43.6460 C   0  0  1  0  0  3  0  0  0  0  0  0
   39.3790   32.1030   42.5670 C   0  0  0  0  0  3  0  0  0  0  0  0
   40.0290   32.8410   43.0790 H   0  0  0  0  0  0  0  0  0  0  0  0
   40.2980   31.0370   42.0060 C   0  0  0  0  0  3  0  0  0  0  0  0
   39.7000   30.3620   41.3530 H   0  0  0  0  0  0  0  0  0  0  0  0
   40.7380   30.4020   43.1570 O   0  0  0  0  0  0  0  0  0  0  0  0
   39.6920   30.3000   44.0360 C   0  0  0  0  0  3  0  0  0  0  0  0
   40.0590   30.6130   45.0460 H   0  0  0  0  0  0  0  0  0  0  0  0
  1  2  1  0  0  0  0
  1  5  1  0  0  0  0
  3  1  1  0  0  0  0
  4  8  1  0  0  0  0
  5  4  2  0  0  0  0
  6 12  1  0  0  0  0
  7 13  1  0  0  0  0
  7  6  2  0  0  0  0
  8  7  1  0  0  0  0
  9  8  2  0  0  0  0
  9 10  1  0  0  0  0
 10 11  2  0  0  0  0
 11  6  1  0  0  0  0
 14 10  1  0  0  0  0
 15  1  1  0  0  0  0
 16 22  1  0  0  0  0
 16 15  1  1  0  0  0
 17 18  1  0  0  0  0
 17 16  1  0  0  0  0
 19 17  1  0  0  0  0
 19 21  1  0  0  0  0
 20 19  1  0  0  0  0
 21 22  1  0  0  0  0
 22 23  1  0  0  0  0
M  END
>  <minimizedAffinity>
-4.70684195

>  <minimizedRMSD>
1.65094018

$$$$
