
 OpenBabel03272502303D

 23 24  0  0  1  0  0  0  0  0999 V2000
   39.5320   32.7030   46.6090 C   0  0  0  0  0  0  0  0  0  0  0  0
   39.6340   33.8040   46.6810 H   0  0  0  0  0  0  0  0  0  0  0  0
   40.5460   32.2440   46.5010 H   0  0  0  0  0  0  0  0  0  0  0  0
   38.3070   30.9490   47.8250 C   0  0  0  0  0  3  0  0  0  0  0  0
   38.8330   32.1460   47.8080 C   0  0  0  0  0  3  0  0  0  0  0  0
   37.3360   30.2210   51.3340 C   0  0  0  0  0  0  0  0  0  0  0  0
   38.0480   30.7720   50.2570 C   0  0  0  0  0  0  0  0  0  0  0  0
   37.6430   30.4370   48.9860 C   0  0  0  0  0  0  0  0  0  0  0  0
   36.5860   29.5990   48.8050 N   0  0  0  0  0  0  0  0  0  0  0  0
   35.9250   29.0890   49.8720 C   0  0  0  0  0  0  0  0  0  0  0  0
   36.2910   29.3930   51.1290 N   0  0  0  0  0  0  0  0  0  0  0  0
   37.6640   30.4930   52.3500 H   0  0  0  0  0  0  0  0  0  0  0  0
   38.8840   31.4350   50.4340 H   0  0  0  0  0  0  0  0  0  0  0  0
   35.0940   28.4310   49.6450 H   0  0  0  0  0  0  0  0  0  0  0  0
   38.5460   32.3830   45.1150 S   0  0  0  0  0  0  0  0  0  0  0  0
   39.6550   32.3880   43.6950 C   0  0  1  0  0  3  0  0  0  0  0  0
   40.0300   30.9700   43.2600 C   0  0  0  0  0  3  0  0  0  0  0  0
   39.1220   30.3390   43.3420 H   0  0  0  0  0  0  0  0  0  0  0  0
   40.2700   31.1900   41.7810 C   0  0  0  0  0  3  0  0  0  0  0  0
   41.2590   31.6850   41.6510 H   0  0  0  0  0  0  0  0  0  0  0  0
   39.2160   32.0230   41.4400 O   0  0  0  0  0  0  0  0  0  0  0  0
   39.0170   32.9260   42.4520 C   0  0  0  0  0  3  0  0  0  0  0  0
   37.9200   32.9730   42.6620 H   0  0  0  0  0  0  0  0  0  0  0  0
  1  2  1  0  0  0  0
  1  5  1  0  0  0  0
  3  1  1  0  0  0  0
  4  8  1  0  0  0  0
  5  4  2  0  0  0  0
  6 12  1  0  0  0  0
  7 13  1  0  0  0  0
  7  6  2  0  0  0  0
  8  7  1  0  0  0  0
  9  8  2  0  0  0  0
  9 10  1  0  0  0  0
 10 11  2  0  0  0  0
 11  6  1  0  0  0  0
 14 10  1  0  0  0  0
 15  1  1  0  0  0  0
 16 15  1  1  0  0  0
 17 18  1  0  0  0  0
 17 16  1  0  0  0  0
 19 17  1  0  0  0  0
 20 19  1  0  0  0  0
 21 19  1  0  0  0  0
 21 22  1  0  0  0  0
 22 23  1  0  0  0  0
 22 16  1  0  0  0  0
M  END
>  <minimizedAffinity>
-4.71426105

>  <minimizedRMSD>
1.47518921

$$$$
