
 OpenBabel03272503413D

 40 43  0  0  1  0  0  0  0  0999 V2000
   38.3640   31.0880   45.8230 C   0  0  0  0  0  0  0  0  0  0  0  0
   39.6960   30.8340   46.0040 C   0  0  0  0  0  0  0  0  0  0  0  0
   40.2980   31.2720   44.8140 C   0  0  0  0  0  0  0  0  0  0  0  0
   39.3520   31.7510   43.9960 N   0  0  0  0  0  0  0  0  0  0  0  0
   38.1750   31.6400   44.6090 N   0  0  0  0  0  0  0  0  0  0  0  0
   40.2150   30.3990   46.8500 H   0  0  0  0  0  0  0  0  0  0  0  0
   41.3680   31.1950   44.6680 H   0  0  0  0  0  0  0  0  0  0  0  0
   39.6530   31.1710   41.6480 C   0  0  2  0  0  0  0  0  0  0  0  0
   39.6470   32.2810   42.6890 C   0  0  1  0  0  0  0  0  0  0  0  0
   38.5080   33.1050   42.1250 C   0  0  0  0  0  0  0  0  0  0  0  0
   38.5850   33.0340   40.7550 O   0  0  0  0  0  0  0  0  0  0  0  0
   39.4460   32.0440   40.3920 C   0  0  0  0  0  0  0  0  0  0  0  0
   40.5830   30.6290   41.5580 H   0  0  0  0  0  0  0  0  0  0  0  0
   40.5570   32.8730   42.6890 H   0  0  0  0  0  0  0  0  0  0  0  0
   37.5440   32.6060   42.4030 H   0  0  0  0  0  0  0  0  0  0  0  0
   38.5510   34.1460   42.4590 H   0  0  0  0  0  0  0  0  0  0  0  0
   39.0440   31.3610   39.6080 H   0  0  0  0  0  0  0  0  0  0  0  0
   40.4370   32.4520   40.0820 H   0  0  0  0  0  0  0  0  0  0  0  0
   38.5260   30.4090   41.8440 O   0  0  0  0  0  0  0  0  0  0  0  0
   38.6930   29.0700   41.8910 C   0  0  1  0  0  3  0  0  0  0  0  0
   40.0910   28.5720   42.1770 C   0  0  0  0  0  3  0  0  0  0  0  0
   40.5190   29.0250   43.0830 H   0  0  0  0  0  0  0  0  0  0  0  0
   39.7520   27.1230   42.4840 C   0  0  0  0  0  3  0  0  0  0  0  0
   39.6740   26.6160   41.4830 H   0  0  0  0  0  0  0  0  0  0  0  0
   38.5110   27.0930   43.0620 O   0  0  0  0  0  0  0  0  0  0  0  0
   37.9310   28.3380   42.9500 C   0  0  0  0  0  3  0  0  0  0  0  0
   37.9660   28.8030   43.9430 H   0  0  0  0  0  0  0  0  0  0  0  0
   36.4860   30.6160   49.0360 C   0  0  0  0  0  0  0  0  0  0  0  0
   37.5040   30.8960   48.1570 C   0  0  0  0  0  0  0  0  0  0  0  0
   37.3230   30.8030   46.7930 C   0  0  0  0  0  0  0  0  0  0  0  0
   36.1030   30.4240   46.3670 N   0  0  0  0  0  0  0  0  0  0  0  0
   35.0940   30.1470   47.2450 C   0  0  0  0  0  0  0  0  0  0  0  0
   35.2690   30.2370   48.5470 N   0  0  0  0  0  0  0  0  0  0  0  0
   38.5150   31.2080   48.4630 H   0  0  0  0  0  0  0  0  0  0  0  0
   34.1250   29.8450   46.8440 H   0  0  0  0  0  0  0  0  0  0  0  0
   36.8380   30.7590   50.3670 O   0  0  0  0  0  0  0  0  0  0  0  0
   36.9020   29.6870   51.2820 C   0  0  0  0  0  0  0  0  0  0  0  0
   35.6240   29.2600   51.6290 F   0  0  0  0  0  0  0  0  0  0  0  0
   37.6080   30.0910   52.3880 F   0  0  0  0  0  0  0  0  0  0  0  0
   37.5950   28.6590   50.6850 F   0  0  0  0  0  0  0  0  0  0  0  0
  1  2  1  0  0  0  0
  1 30  1  0  0  0  0
  2  6  1  0  0  0  0
  3  2  2  0  0  0  0
  4  5  1  0  0  0  0
  4  3  1  0  0  0  0
  5  1  2  0  0  0  0
  7  3  1  0  0  0  0
  8 13  1  6  0  0  0
  8 19  1  0  0  0  0
  8  9  1  0  0  0  0
  9 14  1  6  0  0  0
  9  4  1  0  0  0  0
 10 15  1  0  0  0  0
 10 16  1  0  0  0  0
 10  9  1  0  0  0  0
 11 10  1  0  0  0  0
 12 11  1  0  0  0  0
 12  8  1  0  0  0  0
 17 12  1  0  0  0  0
 18 12  1  0  0  0  0
 20 19  1  1  0  0  0
 20 21  1  0  0  0  0
 20 26  1  0  0  0  0
 21 23  1  0  0  0  0
 21 22  1  0  0  0  0
 23 25  1  0  0  0  0
 24 23  1  0  0  0  0
 26 25  1  0  0  0  0
 26 27  1  0  0  0  0
 28 36  1  0  0  0  0
 29 34  1  0  0  0  0
 29 28  2  0  0  0  0
 30 29  1  0  0  0  0
 31 30  2  0  0  0  0
 31 32  1  0  0  0  0
 32 33  2  0  0  0  0
 33 28  1  0  0  0  0
 35 32  1  0  0  0  0
 36 37  1  0  0  0  0
 37 38  1  0  0  0  0
 37 39  1  0  0  0  0
 40 37  1  0  0  0  0
M  END
>  <minimizedAffinity>
-6.07023621

>  <minimizedRMSD>
0.545419693

$$$$
