
 OpenBabel03272502303D

 23 24  0  0  1  0  0  0  0  0999 V2000
   39.4260   32.5160   46.5290 C   0  0  0  0  0  0  0  0  0  0  0  0
   39.6490   33.5990   46.6130 H   0  0  0  0  0  0  0  0  0  0  0  0
   40.3740   31.9580   46.3280 H   0  0  0  0  0  0  0  0  0  0  0  0
   38.1640   30.8460   47.8220 C   0  0  0  0  0  3  0  0  0  0  0  0
   38.7720   32.0020   47.7720 C   0  0  0  0  0  3  0  0  0  0  0  0
   37.3520   30.2110   51.3900 C   0  0  0  0  0  0  0  0  0  0  0  0
   38.0240   30.7220   50.2680 C   0  0  0  0  0  0  0  0  0  0  0  0
   37.5460   30.3750   49.0250 C   0  0  0  0  0  0  0  0  0  0  0  0
   36.4580   29.5640   48.9140 N   0  0  0  0  0  0  0  0  0  0  0  0
   35.8380   29.0940   50.0230 C   0  0  0  0  0  0  0  0  0  0  0  0
   36.2760   29.4090   51.2540 N   0  0  0  0  0  0  0  0  0  0  0  0
   37.7390   30.4920   52.3820 H   0  0  0  0  0  0  0  0  0  0  0  0
   38.8860   31.3630   50.3890 H   0  0  0  0  0  0  0  0  0  0  0  0
   34.9790   28.4550   49.8510 H   0  0  0  0  0  0  0  0  0  0  0  0
   38.2930   32.3400   45.1180 S   0  0  0  0  0  0  0  0  0  0  0  0
   39.2520   31.8030   43.6890 C   0  0  1  0  0  3  0  0  0  0  0  0
   40.5730   31.1540   44.1000 C   0  0  0  0  0  3  0  0  0  0  0  0
   40.3790   30.5270   44.9940 H   0  0  0  0  0  0  0  0  0  0  0  0
   40.7840   30.1990   42.9420 C   0  0  0  0  0  3  0  0  0  0  0  0
   41.1380   30.7830   42.0620 H   0  0  0  0  0  0  0  0  0  0  0  0
   39.5110   29.6870   42.7570 O   0  0  0  0  0  0  0  0  0  0  0  0
   38.5960   30.6960   42.9230 C   0  0  0  0  0  3  0  0  0  0  0  0
   37.7740   30.3110   43.5770 H   0  0  0  0  0  0  0  0  0  0  0  0
  1  2  1  0  0  0  0
  1  5  1  0  0  0  0
  3  1  1  0  0  0  0
  4  8  1  0  0  0  0
  5  4  2  0  0  0  0
  6 12  1  0  0  0  0
  7 13  1  0  0  0  0
  7  6  2  0  0  0  0
  8  7  1  0  0  0  0
  9  8  2  0  0  0  0
  9 10  1  0  0  0  0
 10 11  2  0  0  0  0
 11  6  1  0  0  0  0
 14 10  1  0  0  0  0
 15  1  1  0  0  0  0
 16 17  1  0  0  0  0
 16 15  1  1  0  0  0
 17 18  1  0  0  0  0
 19 17  1  0  0  0  0
 20 19  1  0  0  0  0
 21 22  1  0  0  0  0
 21 19  1  0  0  0  0
 22 23  1  0  0  0  0
 22 16  1  0  0  0  0
M  END
>  <minimizedAffinity>
-4.7422595

>  <minimizedRMSD>
1.10689366

$$$$
