
 OpenBabel03272509433D

 37 39  0  0  1  0  0  0  0  0999 V2000
   37.0160   30.9110   49.0940 C   0  0  0  0  0  0  0  0  0  0  0  0
   36.7010   31.8160   50.1090 C   0  0  0  0  0  0  0  0  0  0  0  0
   37.2770   33.0780   50.1670 C   0  0  0  0  0  0  0  0  0  0  0  0
   38.1970   33.4580   49.1870 C   0  0  0  0  0  0  0  0  0  0  0  0
   38.4960   32.5630   48.1990 C   0  0  0  0  0  0  0  0  0  0  0  0
   37.9010   31.3100   48.1740 C   0  0  0  0  0  0  0  0  0  0  0  0
   35.9820   31.5070   50.8660 H   0  0  0  0  0  0  0  0  0  0  0  0
   36.9770   33.7010   50.9780 H   0  0  0  0  0  0  0  0  0  0  0  0
   38.5910   34.4480   49.3100 H   0  0  0  0  0  0  0  0  0  0  0  0
   39.2250   32.9980   47.5170 H   0  0  0  0  0  0  0  0  0  0  0  0
   36.4430   29.5830   49.0520 C   0  0  2  0  0  0  0  0  0  0  0  0
   36.9490   29.0610   48.1500 H   0  0  0  0  0  0  0  0  0  0  0  0
   33.5950   29.9090   46.8200 C   0  0  0  0  0  0  0  0  0  0  0  0
   32.8480   28.7720   47.0610 C   0  0  0  0  0  0  0  0  0  0  0  0
   33.2840   27.9050   48.0450 C   0  0  0  0  0  0  0  0  0  0  0  0
   34.4340   28.1970   48.7450 N   0  0  0  0  0  0  0  0  0  0  0  0
   35.1040   29.2980   48.4650 C   0  0  0  0  0  0  0  0  0  0  0  0
   34.6920   30.1600   47.5080 N   0  0  0  0  0  0  0  0  0  0  0  0
   33.2150   30.5580   46.0410 H   0  0  0  0  0  0  0  0  0  0  0  0
   31.9440   28.4540   46.5740 H   0  0  0  0  0  0  0  0  0  0  0  0
   32.8050   26.9830   48.3440 H   0  0  0  0  0  0  0  0  0  0  0  0
   36.9220   28.8110   49.9630 O   0  0  0  0  0  0  0  0  0  0  0  0
   36.4590   28.0150   50.2840 H   0  0  0  0  0  0  0  0  0  0  0  0
   38.3280   30.4520   47.0920 C   0  0  0  0  0  3  0  0  0  0  0  0
   38.7070   30.9000   45.8900 C   0  0  0  0  0  3  0  0  0  0  0  0
   39.2000   30.1240   44.7300 C   0  0  0  0  0  0  0  0  0  0  0  0
   39.6330   29.1810   45.1230 H   0  0  0  0  0  0  0  0  0  0  0  0
   38.3700   29.8550   44.0300 H   0  0  0  0  0  0  0  0  0  0  0  0
   40.4890   31.0500   43.8870 S   0  0  0  0  0  0  0  0  0  0  0  0
   39.8470   31.5500   42.2710 C   0  0  1  0  0  3  0  0  0  0  0  0
   40.4830   30.8180   41.1230 C   0  0  0  0  0  3  0  0  0  0  0  0
   41.0060   29.8800   41.4220 H   0  0  0  0  0  0  0  0  0  0  0  0
   39.3310   30.6000   40.1990 C   0  0  0  0  0  3  0  0  0  0  0  0
   39.3170   31.3560   39.3850 H   0  0  0  0  0  0  0  0  0  0  0  0
   38.1530   30.7090   40.8850 O   0  0  0  0  0  0  0  0  0  0  0  0
   38.4090   31.0940   42.1720 C   0  0  0  0  0  3  0  0  0  0  0  0
   38.2230   30.2500   42.8990 H   0  0  0  0  0  0  0  0  0  0  0  0
  1  2  1  0  0  0  0
  2  3  2  0  0  0  0
  2  7  1  0  0  0  0
  3  8  1  0  0  0  0
  4  9  1  0  0  0  0
  4  3  1  0  0  0  0
  5  4  2  0  0  0  0
  6  5  1  0  0  0  0
  6  1  2  0  0  0  0
 10  5  1  0  0  0  0
 11 12  1  6  0  0  0
 11  1  1  0  0  0  0
 11 22  1  0  0  0  0
 13 14  2  0  0  0  0
 13 18  1  0  0  0  0
 14 15  1  0  0  0  0
 15 21  1  0  0  0  0
 15 16  2  0  0  0  0
 17 16  1  0  0  0  0
 17 11  1  0  0  0  0
 18 17  2  0  0  0  0
 19 13  1  0  0  0  0
 20 14  1  0  0  0  0
 22 23  1  0  0  0  0
 24  6  1  0  0  0  0
 25 24  2  0  0  0  0
 26 27  1  0  0  0  0
 26 25  1  0  0  0  0
 28 26  1  0  0  0  0
 29 26  1  0  0  0  0
 30 29  1  1  0  0  0
 31 32  1  0  0  0  0
 31 30  1  0  0  0  0
 33 35  1  0  0  0  0
 33 31  1  0  0  0  0
 34 33  1  0  0  0  0
 35 36  1  0  0  0  0
 36 30  1  0  0  0  0
 36 37  1  0  0  0  0
M  END
>  <minimizedAffinity>
-5.62950993

>  <minimizedRMSD>
1.65649354

$$$$
