
 OpenBabel03272509433D

 37 39  0  0  1  0  0  0  0  0999 V2000
   37.0750   30.9530   48.9970 C   0  0  0  0  0  0  0  0  0  0  0  0
   36.7880   31.8760   50.0050 C   0  0  0  0  0  0  0  0  0  0  0  0
   37.4010   33.1210   50.0510 C   0  0  0  0  0  0  0  0  0  0  0  0
   38.3290   33.4660   49.0660 C   0  0  0  0  0  0  0  0  0  0  0  0
   38.6000   32.5540   48.0850 C   0  0  0  0  0  0  0  0  0  0  0  0
   37.9690   31.3190   48.0720 C   0  0  0  0  0  0  0  0  0  0  0  0
   36.0630   31.5940   50.7660 H   0  0  0  0  0  0  0  0  0  0  0  0
   37.1210   33.7600   50.8570 H   0  0  0  0  0  0  0  0  0  0  0  0
   38.7520   34.4460   49.1800 H   0  0  0  0  0  0  0  0  0  0  0  0
   39.3390   32.9620   47.3980 H   0  0  0  0  0  0  0  0  0  0  0  0
   36.4640   29.6420   48.9680 C   0  0  2  0  0  0  0  0  0  0  0  0
   36.9690   29.0910   48.0830 H   0  0  0  0  0  0  0  0  0  0  0  0
   33.6550   30.0260   46.6950 C   0  0  0  0  0  0  0  0  0  0  0  0
   32.8790   28.9080   46.9300 C   0  0  0  0  0  0  0  0  0  0  0  0
   33.2800   28.0350   47.9220 C   0  0  0  0  0  0  0  0  0  0  0  0
   34.4270   28.3020   48.6370 N   0  0  0  0  0  0  0  0  0  0  0  0
   35.1260   29.3860   48.3630 C   0  0  0  0  0  0  0  0  0  0  0  0
   34.7480   30.2540   47.3970 N   0  0  0  0  0  0  0  0  0  0  0  0
   33.3020   30.6810   45.9090 H   0  0  0  0  0  0  0  0  0  0  0  0
   31.9740   28.6100   46.4320 H   0  0  0  0  0  0  0  0  0  0  0  0
   32.7760   27.1260   48.2180 H   0  0  0  0  0  0  0  0  0  0  0  0
   36.9050   28.8720   49.9000 O   0  0  0  0  0  0  0  0  0  0  0  0
   36.4140   28.0970   50.2250 H   0  0  0  0  0  0  0  0  0  0  0  0
   38.3690   30.4400   46.9970 C   0  0  0  0  0  3  0  0  0  0  0  0
   38.8450   30.8670   45.8220 C   0  0  0  0  0  3  0  0  0  0  0  0
   39.3220   30.0650   44.6730 C   0  0  0  0  0  0  0  0  0  0  0  0
   40.4050   30.2730   44.5510 H   0  0  0  0  0  0  0  0  0  0  0  0
   39.2020   28.9680   44.8560 H   0  0  0  0  0  0  0  0  0  0  0  0
   38.4600   30.5740   43.1810 S   0  0  0  0  0  0  0  0  0  0  0  0
   37.1210   31.6920   43.6670 C   0  0  1  0  0  3  0  0  0  0  0  0
   36.8640   32.7840   42.6700 C   0  0  0  0  0  3  0  0  0  0  0  0
   37.2900   32.5800   41.6590 H   0  0  0  0  0  0  0  0  0  0  0  0
   35.3750   32.8970   42.6870 C   0  0  0  0  0  3  0  0  0  0  0  0
   35.0420   33.7420   43.3240 H   0  0  0  0  0  0  0  0  0  0  0  0
   34.8250   31.7510   43.1940 O   0  0  0  0  0  0  0  0  0  0  0  0
   35.8240   30.9200   43.6270 C   0  0  0  0  0  3  0  0  0  0  0  0
   35.9320   30.0220   42.9510 H   0  0  0  0  0  0  0  0  0  0  0  0
  1  2  1  0  0  0  0
  2  3  2  0  0  0  0
  2  7  1  0  0  0  0
  3  8  1  0  0  0  0
  4  9  1  0  0  0  0
  4  3  1  0  0  0  0
  5  4  2  0  0  0  0
  6  5  1  0  0  0  0
  6  1  2  0  0  0  0
 10  5  1  0  0  0  0
 11 12  1  6  0  0  0
 11  1  1  0  0  0  0
 11 22  1  0  0  0  0
 13 14  2  0  0  0  0
 13 18  1  0  0  0  0
 14 15  1  0  0  0  0
 15 21  1  0  0  0  0
 15 16  2  0  0  0  0
 17 16  1  0  0  0  0
 17 11  1  0  0  0  0
 18 17  2  0  0  0  0
 19 13  1  0  0  0  0
 20 14  1  0  0  0  0
 22 23  1  0  0  0  0
 24  6  1  0  0  0  0
 25 24  2  0  0  0  0
 26 28  1  0  0  0  0
 26 25  1  0  0  0  0
 27 26  1  0  0  0  0
 29 26  1  0  0  0  0
 30 29  1  6  0  0  0
 31 33  1  0  0  0  0
 31 30  1  0  0  0  0
 32 31  1  0  0  0  0
 33 35  1  0  0  0  0
 33 34  1  0  0  0  0
 35 36  1  0  0  0  0
 36 30  1  0  0  0  0
 37 36  1  0  0  0  0
M  END
>  <minimizedAffinity>
-5.50952053

>  <minimizedRMSD>
0.866230667

$$$$
