
 OpenBabel03272510313D

 31 33  0  0  1  0  0  0  0  0999 V2000
   35.9680   23.7010   31.4100 C   0  0  0  0  0  0  0  0  0  0  0  0
   35.1400   24.6980   30.9310 C   0  0  0  0  0  0  0  0  0  0  0  0
   35.5490   25.9970   31.2220 C   0  0  0  0  0  0  0  0  0  0  0  0
   36.6990   26.2100   31.9340 N   0  0  0  0  0  0  0  0  0  0  0  0
   37.4810   25.2000   32.3830 C   0  0  0  0  0  0  0  0  0  0  0  0
   37.0990   23.9200   32.1120 N   0  0  0  0  0  0  0  0  0  0  0  0
   34.2440   24.5430   30.3770 H   0  0  0  0  0  0  0  0  0  0  0  0
   35.0050   26.8850   30.9140 H   0  0  0  0  0  0  0  0  0  0  0  0
   35.5840   22.2820   31.0940 C   0  0  0  0  0  0  0  0  0  0  0  0
   36.3330   21.1530   31.5370 C   0  0  0  0  0  0  0  0  0  0  0  0
   35.0890   21.5170   32.3400 C   0  0  0  0  0  0  0  0  0  0  0  0
   34.9170   22.2340   30.2140 H   0  0  0  0  0  0  0  0  0  0  0  0
   37.2670   21.2180   32.1310 H   0  0  0  0  0  0  0  0  0  0  0  0
   36.2760   20.2210   30.9260 H   0  0  0  0  0  0  0  0  0  0  0  0
   34.1760   20.9240   32.1430 H   0  0  0  0  0  0  0  0  0  0  0  0
   35.2050   21.9950   33.3220 H   0  0  0  0  0  0  0  0  0  0  0  0
   38.7100   25.4230   33.1330 C   0  0  0  0  0  0  0  0  0  0  0  0
   38.6740   26.4820   33.5060 H   0  0  0  0  0  0  0  0  0  0  0  0
   39.5900   25.2140   32.5330 H   0  0  0  0  0  0  0  0  0  0  0  0
   38.0740   24.8480   35.4800 C   0  0  0  0  0  0  0  0  0  0  0  0
   37.4630   25.9510   35.6980 O   0  0  0  0  0  0  0  0  0  0  0  0
   38.7020   24.5040   34.2580 N   0  0  0  0  0  0  0  0  0  0  0  0
   39.1750   23.5930   34.1200 H   0  0  0  0  0  0  0  0  0  0  0  0
   38.1480   23.8300   36.5790 C   0  0  2  0  0  3  0  0  0  0  0  0
   38.0690   24.4630   37.9520 C   0  0  0  0  0  3  0  0  0  0  0  0
   37.0520   24.6610   38.2880 H   0  0  0  0  0  0  0  0  0  0  0  0
   38.7310   23.3330   38.7500 C   0  0  0  0  0  3  0  0  0  0  0  0
   37.9540   22.5190   38.8150 H   0  0  0  0  0  0  0  0  0  0  0  0
   39.7470   22.8440   37.9550 O   0  0  0  0  0  0  0  0  0  0  0  0
   39.5840   23.2950   36.6620 C   0  0  0  0  0  3  0  0  0  0  0  0
   40.2380   24.2090   36.5710 H   0  0  0  0  0  0  0  0  0  0  0  0
  1  6  1  0  0  0  0
  2  3  1  0  0  0  0
  2  1  2  0  0  0  0
  3  4  2  0  0  0  0
  4  5  1  0  0  0  0
  5 17  1  0  0  0  0
  6  5  2  0  0  0  0
  7  2  1  0  0  0  0
  8  3  1  0  0  0  0
  9  1  1  0  0  0  0
  9 10  1  0  0  0  0
  9 11  1  0  0  0  0
 10 13  1  0  0  0  0
 10 11  1  0  0  0  0
 11 16  1  0  0  0  0
 12  9  1  0  0  0  0
 14 10  1  0  0  0  0
 15 11  1  0  0  0  0
 17 18  1  0  0  0  0
 17 22  1  0  0  0  0
 19 17  1  0  0  0  0
 20 21  2  0  0  0  0
 22 20  1  0  0  0  0
 23 22  1  0  0  0  0
 24 20  1  6  0  0  0
 24 30  1  0  0  0  0
 24 25  1  0  0  0  0
 25 26  1  0  0  0  0
 25 27  1  0  0  0  0
 27 28  1  0  0  0  0
 29 27  1  0  0  0  0
 30 29  1  0  0  0  0
 31 30  1  0  0  0  0
M  END
>  <minimizedAffinity>
-4.90366697

$$$$

 OpenBabel03272510313D

 31 33  0  0  1  0  0  0  0  0999 V2000
   35.9770   21.6850   31.7950 C   0  0  0  0  0  0  0  0  0  0  0  0
   37.1550   21.1960   31.2630 C   0  0  0  0  0  0  0  0  0  0  0  0
   37.9520   22.1430   30.6250 C   0  0  0  0  0  0  0  0  0  0  0  0
   37.5460   23.4500   30.5620 N   0  0  0  0  0  0  0  0  0  0  0  0
   36.3810   23.8830   31.1000 C   0  0  0  0  0  0  0  0  0  0  0  0
   35.5850   22.9730   31.7280 N   0  0  0  0  0  0  0  0  0  0  0  0
   37.4790   20.1830   31.3070 H   0  0  0  0  0  0  0  0  0  0  0  0
   38.9050   21.9140   30.1580 H   0  0  0  0  0  0  0  0  0  0  0  0
   35.0970   20.7050   32.5220 C   0  0  0  0  0  0  0  0  0  0  0  0
   35.5360   19.4090   32.9220 C   0  0  0  0  0  0  0  0  0  0  0  0
   35.5360   20.4990   33.9880 C   0  0  0  0  0  0  0  0  0  0  0  0
   34.0270   20.9430   32.3790 H   0  0  0  0  0  0  0  0  0  0  0  0
   36.5470   19.0020   32.7180 H   0  0  0  0  0  0  0  0  0  0  0  0
   34.7640   18.6100   33.0270 H   0  0  0  0  0  0  0  0  0  0  0  0
   34.6850   20.5060   34.6940 H   0  0  0  0  0  0  0  0  0  0  0  0
   36.4910   20.9350   34.3090 H   0  0  0  0  0  0  0  0  0  0  0  0
   35.9520   25.2740   31.0430 C   0  0  0  0  0  0  0  0  0  0  0  0
   34.8300   25.2660   30.9970 H   0  0  0  0  0  0  0  0  0  0  0  0
   36.4080   25.8000   30.2110 H   0  0  0  0  0  0  0  0  0  0  0  0
   37.5800   26.6800   32.3160 C   0  0  0  0  0  0  0  0  0  0  0  0
   38.3430   26.8930   31.3120 O   0  0  0  0  0  0  0  0  0  0  0  0
   36.3900   25.9110   32.2740 N   0  0  0  0  0  0  0  0  0  0  0  0
   35.7930   25.7750   33.1080 H   0  0  0  0  0  0  0  0  0  0  0  0
   37.9440   27.2730   33.6440 C   0  0  2  0  0  3  0  0  0  0  0  0
   39.3430   26.8870   34.0780 C   0  0  0  0  0  3  0  0  0  0  0  0
   40.1250   27.5150   33.6520 H   0  0  0  0  0  0  0  0  0  0  0  0
   39.1740   27.1160   35.5840 C   0  0  0  0  0  3  0  0  0  0  0  0
   39.1790   28.2360   35.7190 H   0  0  0  0  0  0  0  0  0  0  0  0
   37.9000   26.6910   35.8980 O   0  0  0  0  0  0  0  0  0  0  0  0
   37.1610   26.5430   34.7440 C   0  0  0  0  0  3  0  0  0  0  0  0
   37.2320   25.4500   34.4710 H   0  0  0  0  0  0  0  0  0  0  0  0
  1  9  1  0  0  0  0
  2  7  1  0  0  0  0
  2  1  2  0  0  0  0
  3  2  1  0  0  0  0
  4  3  2  0  0  0  0
  4  5  1  0  0  0  0
  5  6  2  0  0  0  0
  6  1  1  0  0  0  0
  8  3  1  0  0  0  0
  9 10  1  0  0  0  0
  9 11  1  0  0  0  0
 10 14  1  0  0  0  0
 10 11  1  0  0  0  0
 11 16  1  0  0  0  0
 11 15  1  0  0  0  0
 12  9  1  0  0  0  0
 13 10  1  0  0  0  0
 17  5  1  0  0  0  0
 17 22  1  0  0  0  0
 18 17  1  0  0  0  0
 19 17  1  0  0  0  0
 21 20  2  0  0  0  0
 22 20  1  0  0  0  0
 22 23  1  0  0  0  0
 24 20  1  6  0  0  0
 24 25  1  0  0  0  0
 24 30  1  0  0  0  0
 25 27  1  0  0  0  0
 26 25  1  0  0  0  0
 27 28  1  0  0  0  0
 27 29  1  0  0  0  0
 30 29  1  0  0  0  0
 31 30  1  0  0  0  0
M  END
>  <minimizedAffinity>
-4.65367985

$$$$

 OpenBabel03272510313D

 31 33  0  0  1  0  0  0  0  0999 V2000
   38.2960   24.8000   35.7270 C   0  0  0  0  0  0  0  0  0  0  0  0
   37.8980   26.1110   35.9140 C   0  0  0  0  0  0  0  0  0  0  0  0
   37.5620   26.7980   34.7510 C   0  0  0  0  0  0  0  0  0  0  0  0
   37.6370   26.1680   33.5370 N   0  0  0  0  0  0  0  0  0  0  0  0
   38.0320   24.8800   33.4030 C   0  0  0  0  0  0  0  0  0  0  0  0
   38.3680   24.1890   34.5280 N   0  0  0  0  0  0  0  0  0  0  0  0
   37.8370   26.6090   36.8530 H   0  0  0  0  0  0  0  0  0  0  0  0
   37.2310   27.8320   34.7350 H   0  0  0  0  0  0  0  0  0  0  0  0
   38.6390   24.0080   36.9580 C   0  0  0  0  0  0  0  0  0  0  0  0
   38.0530   24.2520   38.2340 C   0  0  0  0  0  0  0  0  0  0  0  0
   37.4760   23.1030   37.4160 C   0  0  0  0  0  0  0  0  0  0  0  0
   39.6170   23.5020   36.8500 H   0  0  0  0  0  0  0  0  0  0  0  0
   37.3130   25.0540   38.4370 H   0  0  0  0  0  0  0  0  0  0  0  0
   38.6430   23.9730   39.1390 H   0  0  0  0  0  0  0  0  0  0  0  0
   37.8080   22.0820   37.6860 H   0  0  0  0  0  0  0  0  0  0  0  0
   36.5000   23.2270   36.9290 H   0  0  0  0  0  0  0  0  0  0  0  0
   38.1040   24.2050   32.1140 C   0  0  0  0  0  0  0  0  0  0  0  0
   39.1880   23.9800   31.9250 H   0  0  0  0  0  0  0  0  0  0  0  0
   37.6480   24.7950   31.3260 H   0  0  0  0  0  0  0  0  0  0  0  0
   36.0000   22.8840   31.8380 C   0  0  0  0  0  0  0  0  0  0  0  0
   35.3310   23.8540   31.3390 O   0  0  0  0  0  0  0  0  0  0  0  0
   37.3570   22.9630   32.2350 N   0  0  0  0  0  0  0  0  0  0  0  0
   37.8650   22.1490   32.6220 H   0  0  0  0  0  0  0  0  0  0  0  0
   35.3250   21.5590   32.0290 C   0  0  2  0  0  3  0  0  0  0  0  0
   35.7500   20.8810   33.3150 C   0  0  0  0  0  3  0  0  0  0  0  0
   35.2000   21.2180   34.1930 H   0  0  0  0  0  0  0  0  0  0  0  0
   35.3940   19.4400   32.9280 C   0  0  0  0  0  3  0  0  0  0  0  0
   34.2690   19.3850   32.9860 H   0  0  0  0  0  0  0  0  0  0  0  0
   35.7240   19.3060   31.5950 O   0  0  0  0  0  0  0  0  0  0  0  0
   35.9220   20.5510   31.0380 C   0  0  0  0  0  3  0  0  0  0  0  0
   37.0350   20.7330   31.0780 H   0  0  0  0  0  0  0  0  0  0  0  0
  1  2  1  0  0  0  0
  1  9  1  0  0  0  0
  2  7  1  0  0  0  0
  3  2  2  0  0  0  0
  4  3  1  0  0  0  0
  5  4  2  0  0  0  0
  5  6  1  0  0  0  0
  6  1  2  0  0  0  0
  8  3  1  0  0  0  0
  9 11  1  0  0  0  0
  9 10  1  0  0  0  0
 10 13  1  0  0  0  0
 10 14  1  0  0  0  0
 11 15  1  0  0  0  0
 11 10  1  0  0  0  0
 12  9  1  0  0  0  0
 16 11  1  0  0  0  0
 17 22  1  0  0  0  0
 17  5  1  0  0  0  0
 18 17  1  0  0  0  0
 19 17  1  0  0  0  0
 20 22  1  0  0  0  0
 21 20  2  0  0  0  0
 22 23  1  0  0  0  0
 24 20  1  6  0  0  0
 24 25  1  0  0  0  0
 25 26  1  0  0  0  0
 27 28  1  0  0  0  0
 27 25  1  0  0  0  0
 29 27  1  0  0  0  0
 30 31  1  0  0  0  0
 30 29  1  0  0  0  0
 30 24  1  0  0  0  0
M  END
>  <minimizedAffinity>
-4.64461231

$$$$

 OpenBabel03272510313D

 31 33  0  0  1  0  0  0  0  0999 V2000
   40.0360   22.5210   36.7720 C   0  0  0  0  0  0  0  0  0  0  0  0
   39.2500   23.0590   37.7740 C   0  0  0  0  0  0  0  0  0  0  0  0
   38.1000   23.7100   37.3370 C   0  0  0  0  0  0  0  0  0  0  0  0
   37.8180   23.7790   35.9980 N   0  0  0  0  0  0  0  0  0  0  0  0
   38.6190   23.2350   35.0510 C   0  0  0  0  0  0  0  0  0  0  0  0
   39.7510   22.5950   35.4560 N   0  0  0  0  0  0  0  0  0  0  0  0
   39.4600   23.0100   38.8160 H   0  0  0  0  0  0  0  0  0  0  0  0
   37.3830   24.1820   38.0020 H   0  0  0  0  0  0  0  0  0  0  0  0
   41.2730   21.7800   37.1980 C   0  0  0  0  0  0  0  0  0  0  0  0
   42.1490   21.1310   36.2800 C   0  0  0  0  0  0  0  0  0  0  0  0
   42.5670   22.5100   36.7780 C   0  0  0  0  0  0  0  0  0  0  0  0
   41.2200   21.4890   38.2630 H   0  0  0  0  0  0  0  0  0  0  0  0
   41.9890   21.0960   35.1830 H   0  0  0  0  0  0  0  0  0  0  0  0
   42.7450   20.2640   36.6560 H   0  0  0  0  0  0  0  0  0  0  0  0
   43.3220   22.5420   37.5860 H   0  0  0  0  0  0  0  0  0  0  0  0
   42.4800   23.3730   36.1040 H   0  0  0  0  0  0  0  0  0  0  0  0
   38.3170   23.2990   33.6280 C   0  0  0  0  0  0  0  0  0  0  0  0
   39.2930   23.1880   33.0830 H   0  0  0  0  0  0  0  0  0  0  0  0
   37.7880   24.2110   33.3700 H   0  0  0  0  0  0  0  0  0  0  0  0
   36.3530   22.3160   32.4350 C   0  0  0  0  0  0  0  0  0  0  0  0
   36.0410   23.4010   31.8320 O   0  0  0  0  0  0  0  0  0  0  0  0
   37.4500   22.1740   33.3190 N   0  0  0  0  0  0  0  0  0  0  0  0
   37.6760   21.2720   33.7760 H   0  0  0  0  0  0  0  0  0  0  0  0
   35.5160   21.0930   32.2080 C   0  0  2  0  0  3  0  0  0  0  0  0
   35.6290   20.1030   33.3490 C   0  0  0  0  0  3  0  0  0  0  0  0
   34.9720   20.3220   34.1890 H   0  0  0  0  0  0  0  0  0  0  0  0
   35.1940   18.8450   32.5880 C   0  0  0  0  0  3  0  0  0  0  0  0
   34.0780   18.9430   32.4630 H   0  0  0  0  0  0  0  0  0  0  0  0
   35.7400   18.9500   31.3250 O   0  0  0  0  0  0  0  0  0  0  0  0
   36.1680   20.2430   31.1090 C   0  0  0  0  0  3  0  0  0  0  0  0
   37.2690   20.2480   31.3560 H   0  0  0  0  0  0  0  0  0  0  0  0
  1  9  1  0  0  0  0
  1  2  1  0  0  0  0
  2  7  1  0  0  0  0
  3  2  2  0  0  0  0
  3  8  1  0  0  0  0
  4  3  1  0  0  0  0
  5  6  1  0  0  0  0
  5  4  2  0  0  0  0
  6  1  2  0  0  0  0
  9 12  1  0  0  0  0
 10 14  1  0  0  0  0
 10 11  1  0  0  0  0
 10  9  1  0  0  0  0
 11  9  1  0  0  0  0
 11 15  1  0  0  0  0
 13 10  1  0  0  0  0
 16 11  1  0  0  0  0
 17  5  1  0  0  0  0
 18 17  1  0  0  0  0
 19 17  1  0  0  0  0
 20 22  1  0  0  0  0
 21 20  2  0  0  0  0
 22 17  1  0  0  0  0
 22 23  1  0  0  0  0
 24 20  1  1  0  0  0
 24 25  1  0  0  0  0
 25 26  1  0  0  0  0
 27 25  1  0  0  0  0
 28 27  1  0  0  0  0
 29 27  1  0  0  0  0
 30 29  1  0  0  0  0
 30 31  1  0  0  0  0
 30 24  1  0  0  0  0
M  END
>  <minimizedAffinity>
-4.63525534

$$$$

 OpenBabel03272510313D

 31 33  0  0  1  0  0  0  0  0999 V2000
   36.6750   26.2580   31.9450 C   0  0  0  0  0  0  0  0  0  0  0  0
   35.5050   26.0750   31.2320 C   0  0  0  0  0  0  0  0  0  0  0  0
   35.1560   24.7480   31.0010 C   0  0  0  0  0  0  0  0  0  0  0  0
   35.9530   23.7370   31.4700 N   0  0  0  0  0  0  0  0  0  0  0  0
   37.0920   23.9660   32.1650 C   0  0  0  0  0  0  0  0  0  0  0  0
   37.4540   25.2570   32.4020 N   0  0  0  0  0  0  0  0  0  0  0  0
   34.8790   26.8540   30.8640 H   0  0  0  0  0  0  0  0  0  0  0  0
   34.2660   24.4430   30.4570 H   0  0  0  0  0  0  0  0  0  0  0  0
   37.0770   27.6750   32.2470 C   0  0  0  0  0  0  0  0  0  0  0  0
   36.2040   28.7880   32.0740 C   0  0  0  0  0  0  0  0  0  0  0  0
   36.3510   28.2380   33.4870 C   0  0  0  0  0  0  0  0  0  0  0  0
   38.1770   27.7880   32.2520 H   0  0  0  0  0  0  0  0  0  0  0  0
   35.1680   28.7140   31.6850 H   0  0  0  0  0  0  0  0  0  0  0  0
   36.6670   29.7850   31.8760 H   0  0  0  0  0  0  0  0  0  0  0  0
   37.0300   28.7860   34.1680 H   0  0  0  0  0  0  0  0  0  0  0  0
   35.5330   27.6480   33.9220 H   0  0  0  0  0  0  0  0  0  0  0  0
   37.9370   22.8930   32.6740 C   0  0  0  0  0  0  0  0  0  0  0  0
   39.0010   23.2030   32.4920 H   0  0  0  0  0  0  0  0  0  0  0  0
   37.6890   21.9380   32.2210 H   0  0  0  0  0  0  0  0  0  0  0  0
   38.6680   23.1990   35.0440 C   0  0  0  0  0  0  0  0  0  0  0  0
   39.8090   23.6920   34.7410 O   0  0  0  0  0  0  0  0  0  0  0  0
   37.6910   22.7910   34.1030 N   0  0  0  0  0  0  0  0  0  0  0  0
   36.7730   22.4090   34.3930 H   0  0  0  0  0  0  0  0  0  0  0  0
   38.3120   23.0280   36.4910 C   0  0  2  0  0  3  0  0  0  0  0  0
   37.8410   24.3220   37.1210 C   0  0  0  0  0  3  0  0  0  0  0  0
   36.7860   24.5350   36.9510 H   0  0  0  0  0  0  0  0  0  0  0  0
   38.1300   23.9680   38.5840 C   0  0  0  0  0  3  0  0  0  0  0  0
   37.3180   23.2440   38.8830 H   0  0  0  0  0  0  0  0  0  0  0  0
   39.3090   23.2540   38.5830 O   0  0  0  0  0  0  0  0  0  0  0  0
   39.6030   22.8440   37.3000 C   0  0  0  0  0  3  0  0  0  0  0  0
   40.3150   23.6150   36.8860 H   0  0  0  0  0  0  0  0  0  0  0  0
  1  9  1  0  0  0  0
  1  6  1  0  0  0  0
  2  1  2  0  0  0  0
  3  2  1  0  0  0  0
  3  4  2  0  0  0  0
  4  5  1  0  0  0  0
  5  6  2  0  0  0  0
  5 17  1  0  0  0  0
  7  2  1  0  0  0  0
  8  3  1  0  0  0  0
  9 12  1  0  0  0  0
  9 11  1  0  0  0  0
 10  9  1  0  0  0  0
 10 11  1  0  0  0  0
 11 16  1  0  0  0  0
 11 15  1  0  0  0  0
 13 10  1  0  0  0  0
 14 10  1  0  0  0  0
 17 22  1  0  0  0  0
 18 17  1  0  0  0  0
 19 17  1  0  0  0  0
 21 20  2  0  0  0  0
 22 23  1  0  0  0  0
 22 20  1  0  0  0  0
 24 20  1  6  0  0  0
 24 25  1  0  0  0  0
 24 30  1  0  0  0  0
 25 27  1  0  0  0  0
 26 25  1  0  0  0  0
 27 28  1  0  0  0  0
 29 27  1  0  0  0  0
 30 29  1  0  0  0  0
 31 30  1  0  0  0  0
M  END
>  <minimizedAffinity>
-4.61777687

$$$$

 OpenBabel03272510313D

 31 33  0  0  1  0  0  0  0  0999 V2000
   39.3620   23.1300   36.7990 C   0  0  0  0  0  0  0  0  0  0  0  0
   40.5030   22.3640   36.6490 C   0  0  0  0  0  0  0  0  0  0  0  0
   40.8500   22.0730   35.3330 C   0  0  0  0  0  0  0  0  0  0  0  0
   40.0790   22.5410   34.3010 N   0  0  0  0  0  0  0  0  0  0  0  0
   38.9680   23.2890   34.4970 C   0  0  0  0  0  0  0  0  0  0  0  0
   38.6090   23.5850   35.7780 N   0  0  0  0  0  0  0  0  0  0  0  0
   41.1080   21.9970   37.4440 H   0  0  0  0  0  0  0  0  0  0  0  0
   41.7180   21.4830   35.0530 H   0  0  0  0  0  0  0  0  0  0  0  0
   38.9640   23.4960   38.2020 C   0  0  0  0  0  0  0  0  0  0  0  0
   37.9690   24.4720   38.5020 C   0  0  0  0  0  0  0  0  0  0  0  0
   37.5420   23.0090   38.5540 C   0  0  0  0  0  0  0  0  0  0  0  0
   39.7510   23.2200   38.9270 H   0  0  0  0  0  0  0  0  0  0  0  0
   37.4190   25.0570   37.7380 H   0  0  0  0  0  0  0  0  0  0  0  0
   38.0430   25.0040   39.4810 H   0  0  0  0  0  0  0  0  0  0  0  0
   37.4860   22.5410   39.5550 H   0  0  0  0  0  0  0  0  0  0  0  0
   36.9180   22.6030   37.7470 H   0  0  0  0  0  0  0  0  0  0  0  0
   38.1520   23.7960   33.4020 C   0  0  0  0  0  0  0  0  0  0  0  0
   38.8560   24.0560   32.5660 H   0  0  0  0  0  0  0  0  0  0  0  0
   37.5360   24.6320   33.7140 H   0  0  0  0  0  0  0  0  0  0  0  0
   36.4040   22.8680   31.8760 C   0  0  0  0  0  0  0  0  0  0  0  0
   36.3270   23.9190   31.1510 O   0  0  0  0  0  0  0  0  0  0  0  0
   37.2710   22.7170   32.9860 N   0  0  0  0  0  0  0  0  0  0  0  0
   37.3110   21.8420   33.5380 H   0  0  0  0  0  0  0  0  0  0  0  0
   35.5240   21.6970   31.5530 C   0  0  2  0  0  3  0  0  0  0  0  0
   35.2080   20.8640   32.7780 C   0  0  0  0  0  3  0  0  0  0  0  0
   34.3760   21.2470   33.3680 H   0  0  0  0  0  0  0  0  0  0  0  0
   34.8550   19.5540   32.0630 C   0  0  0  0  0  3  0  0  0  0  0  0
   33.8340   19.7240   31.6160 H   0  0  0  0  0  0  0  0  0  0  0  0
   35.7320   19.4430   31.0050 O   0  0  0  0  0  0  0  0  0  0  0  0
   36.3490   20.6560   30.7830 C   0  0  0  0  0  3  0  0  0  0  0  0
   37.3340   20.6060   31.3310 H   0  0  0  0  0  0  0  0  0  0  0  0
  1  9  1  0  0  0  0
  2  1  1  0  0  0  0
  2  7  1  0  0  0  0
  3  2  2  0  0  0  0
  4  5  2  0  0  0  0
  4  3  1  0  0  0  0
  5  6  1  0  0  0  0
  6  1  2  0  0  0  0
  8  3  1  0  0  0  0
  9 10  1  0  0  0  0
  9 11  1  0  0  0  0
  9 12  1  0  0  0  0
 10 11  1  0  0  0  0
 10 14  1  0  0  0  0
 11 15  1  0  0  0  0
 13 10  1  0  0  0  0
 16 11  1  0  0  0  0
 17 19  1  0  0  0  0
 17  5  1  0  0  0  0
 18 17  1  0  0  0  0
 20 22  1  0  0  0  0
 21 20  2  0  0  0  0
 22 17  1  0  0  0  0
 22 23  1  0  0  0  0
 24 20  1  1  0  0  0
 24 25  1  0  0  0  0
 25 26  1  0  0  0  0
 27 25  1  0  0  0  0
 28 27  1  0  0  0  0
 29 27  1  0  0  0  0
 30 29  1  0  0  0  0
 30 31  1  0  0  0  0
 30 24  1  0  0  0  0
M  END
>  <minimizedAffinity>
-4.58737946

$$$$

 OpenBabel03272510313D

 31 33  0  0  1  0  0  0  0  0999 V2000
   36.9500   27.2300   34.0070 C   0  0  0  0  0  0  0  0  0  0  0  0
   36.3410   28.4390   33.7310 C   0  0  0  0  0  0  0  0  0  0  0  0
   35.7410   28.5260   32.4780 C   0  0  0  0  0  0  0  0  0  0  0  0
   35.7810   27.4560   31.6230 N   0  0  0  0  0  0  0  0  0  0  0  0
   36.3900   26.2890   31.9390 C   0  0  0  0  0  0  0  0  0  0  0  0
   36.9860   26.1820   33.1590 N   0  0  0  0  0  0  0  0  0  0  0  0
   36.3040   29.2760   34.3890 H   0  0  0  0  0  0  0  0  0  0  0  0
   35.2230   29.4090   32.1160 H   0  0  0  0  0  0  0  0  0  0  0  0
   37.5850   27.0780   35.3620 C   0  0  0  0  0  0  0  0  0  0  0  0
   38.3010   25.9130   35.7620 C   0  0  0  0  0  0  0  0  0  0  0  0
   39.1260   27.1050   35.2930 C   0  0  0  0  0  0  0  0  0  0  0  0
   37.1320   27.7690   36.0970 H   0  0  0  0  0  0  0  0  0  0  0  0
   38.4370   25.0150   35.1260 H   0  0  0  0  0  0  0  0  0  0  0  0
   38.3420   25.6780   36.8530 H   0  0  0  0  0  0  0  0  0  0  0  0
   39.5790   27.7400   36.0790 H   0  0  0  0  0  0  0  0  0  0  0  0
   39.6020   27.0730   34.3030 H   0  0  0  0  0  0  0  0  0  0  0  0
   36.4260   25.1460   31.0350 C   0  0  0  0  0  0  0  0  0  0  0  0
   37.4210   25.1760   30.5150 H   0  0  0  0  0  0  0  0  0  0  0  0
   35.5870   25.1520   30.3480 H   0  0  0  0  0  0  0  0  0  0  0  0
   37.0610   22.7780   31.5210 C   0  0  0  0  0  0  0  0  0  0  0  0
   37.8520   22.6740   30.5220 O   0  0  0  0  0  0  0  0  0  0  0  0
   36.3320   23.9480   31.8520 N   0  0  0  0  0  0  0  0  0  0  0  0
   35.7120   23.9940   32.6790 H   0  0  0  0  0  0  0  0  0  0  0  0
   36.8690   21.5960   32.4230 C   0  0  2  0  0  3  0  0  0  0  0  0
   35.4060   21.3120   32.6910 C   0  0  0  0  0  3  0  0  0  0  0  0
   34.9220   20.7200   31.9140 H   0  0  0  0  0  0  0  0  0  0  0  0
   35.5730   20.5260   33.9970 C   0  0  0  0  0  3  0  0  0  0  0  0
   35.9630   19.5140   33.6880 H   0  0  0  0  0  0  0  0  0  0  0  0
   36.5940   21.1430   34.6900 O   0  0  0  0  0  0  0  0  0  0  0  0
   37.2850   21.9870   33.8470 C   0  0  0  0  0  3  0  0  0  0  0  0
   36.8410   23.0120   34.0060 H   0  0  0  0  0  0  0  0  0  0  0  0
  1  9  1  0  0  0  0
  2  1  1  0  0  0  0
  2  7  1  0  0  0  0
  3  2  2  0  0  0  0
  4  5  2  0  0  0  0
  4  3  1  0  0  0  0
  5  6  1  0  0  0  0
  6  1  2  0  0  0  0
  8  3  1  0  0  0  0
  9 10  1  0  0  0  0
  9 12  1  0  0  0  0
 10 14  1  0  0  0  0
 11  9  1  0  0  0  0
 11 10  1  0  0  0  0
 11 15  1  0  0  0  0
 13 10  1  0  0  0  0
 16 11  1  0  0  0  0
 17 22  1  0  0  0  0
 17  5  1  0  0  0  0
 18 17  1  0  0  0  0
 19 17  1  0  0  0  0
 20 22  1  0  0  0  0
 21 20  2  0  0  0  0
 22 23  1  0  0  0  0
 24 20  1  6  0  0  0
 24 25  1  0  0  0  0
 24 30  1  0  0  0  0
 25 27  1  0  0  0  0
 26 25  1  0  0  0  0
 27 29  1  0  0  0  0
 28 27  1  0  0  0  0
 30 31  1  0  0  0  0
 30 29  1  0  0  0  0
M  END
>  <minimizedAffinity>
-4.57183695

$$$$

 OpenBabel03272510313D

 31 33  0  0  1  0  0  0  0  0999 V2000
   36.5380   27.9620   32.1570 C   0  0  0  0  0  0  0  0  0  0  0  0
   36.1910   28.6260   33.3180 C   0  0  0  0  0  0  0  0  0  0  0  0
   36.5140   27.9620   34.4980 C   0  0  0  0  0  0  0  0  0  0  0  0
   37.1340   26.7400   34.4490 N   0  0  0  0  0  0  0  0  0  0  0  0
   37.4560   26.1290   33.2850 C   0  0  0  0  0  0  0  0  0  0  0  0
   37.1470   26.7600   32.1180 N   0  0  0  0  0  0  0  0  0  0  0  0
   35.7100   29.5750   33.3670 H   0  0  0  0  0  0  0  0  0  0  0  0
   36.3060   28.3540   35.4890 H   0  0  0  0  0  0  0  0  0  0  0  0
   36.2370   28.6560   30.8570 C   0  0  0  0  0  0  0  0  0  0  0  0
   36.2350   30.0730   30.7100 C   0  0  0  0  0  0  0  0  0  0  0  0
   37.4850   29.3320   30.2510 C   0  0  0  0  0  0  0  0  0  0  0  0
   35.6770   27.9940   30.1700 H   0  0  0  0  0  0  0  0  0  0  0  0
   36.4330   30.7860   31.5360 H   0  0  0  0  0  0  0  0  0  0  0  0
   35.5930   30.5110   29.9090 H   0  0  0  0  0  0  0  0  0  0  0  0
   37.5850   29.1480   29.1640 H   0  0  0  0  0  0  0  0  0  0  0  0
   38.3960   29.3830   30.8620 H   0  0  0  0  0  0  0  0  0  0  0  0
   38.1230   24.8350   33.2300 C   0  0  0  0  0  0  0  0  0  0  0  0
   39.1250   25.0060   32.7520 H   0  0  0  0  0  0  0  0  0  0  0  0
   37.5240   24.0960   32.7080 H   0  0  0  0  0  0  0  0  0  0  0  0
   37.9740   23.0590   34.9820 C   0  0  0  0  0  0  0  0  0  0  0  0
   37.5240   22.1630   34.1880 O   0  0  0  0  0  0  0  0  0  0  0  0
   38.3020   24.3830   34.6000 N   0  0  0  0  0  0  0  0  0  0  0  0
   38.6770   25.0730   35.2740 H   0  0  0  0  0  0  0  0  0  0  0  0
   38.1800   22.7110   36.4270 C   0  0  2  0  0  3  0  0  0  0  0  0
   37.8070   23.8540   37.3480 C   0  0  0  0  0  3  0  0  0  0  0  0
   36.7420   23.9060   37.5760 H   0  0  0  0  0  0  0  0  0  0  0  0
   38.6380   23.4300   38.5650 C   0  0  0  0  0  3  0  0  0  0  0  0
   38.0800   22.5620   39.0200 H   0  0  0  0  0  0  0  0  0  0  0  0
   39.8180   22.9200   38.0680 O   0  0  0  0  0  0  0  0  0  0  0  0
   39.6860   22.6730   36.7180 C   0  0  0  0  0  3  0  0  0  0  0  0
   40.1040   23.5820   36.1960 H   0  0  0  0  0  0  0  0  0  0  0  0
  1  2  1  0  0  0  0
  2  7  1  0  0  0  0
  2  3  2  0  0  0  0
  3  8  1  0  0  0  0
  4  3  1  0  0  0  0
  5  4  2  0  0  0  0
  6  1  2  0  0  0  0
  6  5  1  0  0  0  0
  9  1  1  0  0  0  0
 10  9  1  0  0  0  0
 10 13  1  0  0  0  0
 11 10  1  0  0  0  0
 11  9  1  0  0  0  0
 11 16  1  0  0  0  0
 12  9  1  0  0  0  0
 14 10  1  0  0  0  0
 15 11  1  0  0  0  0
 17  5  1  0  0  0  0
 17 22  1  0  0  0  0
 18 17  1  0  0  0  0
 19 17  1  0  0  0  0
 21 20  2  0  0  0  0
 22 20  1  0  0  0  0
 22 23  1  0  0  0  0
 24 20  1  6  0  0  0
 24 30  1  0  0  0  0
 24 25  1  0  0  0  0
 25 26  1  0  0  0  0
 25 27  1  0  0  0  0
 27 28  1  0  0  0  0
 29 27  1  0  0  0  0
 30 29  1  0  0  0  0
 31 30  1  0  0  0  0
M  END
>  <minimizedAffinity>
-4.53116894

$$$$

 OpenBabel03272510313D

 31 33  0  0  1  0  0  0  0  0999 V2000
   38.1880   25.0740   36.3500 C   0  0  0  0  0  0  0  0  0  0  0  0
   38.4050   26.4390   36.3180 C   0  0  0  0  0  0  0  0  0  0  0  0
   38.6550   26.9680   35.0550 C   0  0  0  0  0  0  0  0  0  0  0  0
   38.6700   26.1470   33.9590 N   0  0  0  0  0  0  0  0  0  0  0  0
   38.4500   24.8130   34.0390 C   0  0  0  0  0  0  0  0  0  0  0  0
   38.2050   24.2740   35.2660 N   0  0  0  0  0  0  0  0  0  0  0  0
   38.3960   27.0850   37.1640 H   0  0  0  0  0  0  0  0  0  0  0  0
   38.8440   28.0210   34.8670 H   0  0  0  0  0  0  0  0  0  0  0  0
   37.8830   24.4620   37.6890 C   0  0  0  0  0  0  0  0  0  0  0  0
   37.5530   23.0860   37.8620 C   0  0  0  0  0  0  0  0  0  0  0  0
   38.9910   23.4960   38.1580 C   0  0  0  0  0  0  0  0  0  0  0  0
   37.5860   25.2330   38.4240 H   0  0  0  0  0  0  0  0  0  0  0  0
   37.4730   22.3550   37.0320 H   0  0  0  0  0  0  0  0  0  0  0  0
   36.9230   22.8100   38.7410 H   0  0  0  0  0  0  0  0  0  0  0  0
   39.2610   23.6380   39.2220 H   0  0  0  0  0  0  0  0  0  0  0  0
   39.7830   23.2300   37.4450 H   0  0  0  0  0  0  0  0  0  0  0  0
   38.4560   23.9390   32.8730 C   0  0  0  0  0  0  0  0  0  0  0  0
   39.4300   23.3800   32.8920 H   0  0  0  0  0  0  0  0  0  0  0  0
   38.3020   24.4950   31.9540 H   0  0  0  0  0  0  0  0  0  0  0  0
   37.5570   21.6080   32.9540 C   0  0  0  0  0  0  0  0  0  0  0  0
   38.6930   21.0500   32.7690 O   0  0  0  0  0  0  0  0  0  0  0  0
   37.3500   23.0080   33.0270 N   0  0  0  0  0  0  0  0  0  0  0  0
   36.4140   23.4180   33.1920 H   0  0  0  0  0  0  0  0  0  0  0  0
   36.3400   20.7450   33.1050 C   0  0  2  0  0  3  0  0  0  0  0  0
   36.4290   19.4810   32.2760 C   0  0  0  0  0  3  0  0  0  0  0  0
   36.9830   18.6760   32.7580 H   0  0  0  0  0  0  0  0  0  0  0  0
   34.9290   19.1760   32.1860 C   0  0  0  0  0  3  0  0  0  0  0  0
   34.6440   18.7780   33.2030 H   0  0  0  0  0  0  0  0  0  0  0  0
   34.2950   20.3920   32.0500 O   0  0  0  0  0  0  0  0  0  0  0  0
   35.1670   21.4100   32.3730 C   0  0  0  0  0  3  0  0  0  0  0  0
   35.6020   21.7650   31.3940 H   0  0  0  0  0  0  0  0  0  0  0  0
  1  9  1  0  0  0  0
  2  1  1  0  0  0  0
  2  7  1  0  0  0  0
  3  2  2  0  0  0  0
  4  5  2  0  0  0  0
  4  3  1  0  0  0  0
  5  6  1  0  0  0  0
  6  1  2  0  0  0  0
  8  3  1  0  0  0  0
  9 10  1  0  0  0  0
  9 11  1  0  0  0  0
  9 12  1  0  0  0  0
 10 11  1  0  0  0  0
 10 14  1  0  0  0  0
 11 15  1  0  0  0  0
 13 10  1  0  0  0  0
 16 11  1  0  0  0  0
 17 18  1  0  0  0  0
 17 22  1  0  0  0  0
 17  5  1  0  0  0  0
 19 17  1  0  0  0  0
 20 22  1  0  0  0  0
 21 20  2  0  0  0  0
 22 23  1  0  0  0  0
 24 20  1  6  0  0  0
 25 26  1  0  0  0  0
 25 24  1  0  0  0  0
 27 25  1  0  0  0  0
 27 28  1  0  0  0  0
 29 27  1  0  0  0  0
 29 30  1  0  0  0  0
 30 24  1  0  0  0  0
 31 30  1  0  0  0  0
M  END
>  <minimizedAffinity>
-4.47624969

$$$$
