
 OpenBabel03272507413D

 40 43  0  0  1  0  0  0  0  0999 V2000
   36.7100   32.2880   49.2790 O   0  0  0  0  0  0  0  0  0  0  0  0
   38.2410   32.2580   47.3220 C   0  0  0  0  0  0  0  0  0  0  0  0
   37.8390   32.6980   48.5680 C   0  0  0  0  0  0  0  0  0  0  0  0
   38.5850   33.6500   49.2540 C   0  0  0  0  0  0  0  0  0  0  0  0
   39.7400   34.1550   48.6740 C   0  0  0  0  0  0  0  0  0  0  0  0
   40.1380   33.7110   47.4260 C   0  0  0  0  0  0  0  0  0  0  0  0
   39.3710   32.7670   46.7810 C   0  0  0  0  0  0  0  0  0  0  0  0
   38.3470   34.0420   50.2140 H   0  0  0  0  0  0  0  0  0  0  0  0
   40.3490   34.9000   49.1770 H   0  0  0  0  0  0  0  0  0  0  0  0
   41.0220   34.0740   46.9410 H   0  0  0  0  0  0  0  0  0  0  0  0
   39.8090   32.3010   45.4450 C   0  0  0  0  0  0  0  0  0  0  0  0
   40.6540   31.2700   45.1110 C   0  0  0  0  0  0  0  0  0  0  0  0
   40.7340   31.2510   43.7210 C   0  0  0  0  0  0  0  0  0  0  0  0
   39.9260   32.2780   43.2930 C   0  0  0  0  0  0  0  0  0  0  0  0
   39.3890   32.8870   44.3350 O   0  0  0  0  0  0  0  0  0  0  0  0
   41.1390   30.6270   45.8450 H   0  0  0  0  0  0  0  0  0  0  0  0
   41.3310   30.5410   43.1610 H   0  0  0  0  0  0  0  0  0  0  0  0
   39.7690   32.5330   42.2470 H   0  0  0  0  0  0  0  0  0  0  0  0
   36.7630   30.4940   46.1710 N   0  0  0  0  0  0  0  0  0  0  0  0
   37.4180   31.2830   46.6950 C   0  0  0  0  0  0  0  0  0  0  0  0
   36.6630   31.1990   50.0790 C   0  0  0  0  0  0  0  0  0  0  0  0
   35.5540   30.4030   49.8120 C   0  0  0  0  0  0  0  0  0  0  0  0
   35.3270   29.2350   50.5300 C   0  0  0  0  0  0  0  0  0  0  0  0
   36.2360   28.9100   51.5000 N   0  0  0  0  0  0  0  0  0  0  0  0
   37.3110   29.7050   51.7400 C   0  0  0  0  0  0  0  0  0  0  0  0
   37.5080   30.8190   51.0390 N   0  0  0  0  0  0  0  0  0  0  0  0
   34.5150   28.5650   50.4030 H   0  0  0  0  0  0  0  0  0  0  0  0
   38.0320   29.4550   52.5030 H   0  0  0  0  0  0  0  0  0  0  0  0
   34.1810   29.6040   47.9540 C   0  0  0  0  0  0  0  0  0  0  0  0
   34.6020   28.3990   47.7650 O   0  0  0  0  0  0  0  0  0  0  0  0
   34.5700   30.6340   48.8530 N   0  0  0  0  0  0  0  0  0  0  0  0
   34.0710   31.5430   48.7350 H   0  0  0  0  0  0  0  0  0  0  0  0
   33.0590   29.8500   46.9720 C   0  0  1  0  0  3  0  0  0  0  0  0
   33.5410   29.9290   45.5630 C   0  0  0  0  0  3  0  0  0  0  0  0
   34.3120   29.1230   45.4300 H   0  0  0  0  0  0  0  0  0  0  0  0
   32.2810   29.5540   44.8170 C   0  0  0  0  0  3  0  0  0  0  0  0
   31.6860   30.5070   44.7150 H   0  0  0  0  0  0  0  0  0  0  0  0
   31.5690   28.6860   45.6270 O   0  0  0  0  0  0  0  0  0  0  0  0
   32.1250   28.6720   46.8870 C   0  0  0  0  0  3  0  0  0  0  0  0
   31.3140   28.7160   47.6540 H   0  0  0  0  0  0  0  0  0  0  0  0
  1 21  1  0  0  0  0
  2  3  1  0  0  0  0
  3  4  2  0  0  0  0
  3  1  1  0  0  0  0
  4  8  1  0  0  0  0
  5  9  1  0  0  0  0
  5  4  1  0  0  0  0
  6  5  2  0  0  0  0
  7  2  2  0  0  0  0
  7  6  1  0  0  0  0
 10  6  1  0  0  0  0
 11  7  1  0  0  0  0
 12 11  2  0  0  0  0
 12 16  1  0  0  0  0
 13 12  1  0  0  0  0
 14 13  2  0  0  0  0
 14 15  1  0  0  0  0
 15 11  1  0  0  0  0
 17 13  1  0  0  0  0
 18 14  1  0  0  0  0
 19 20  3  0  0  0  0
 20  2  1  0  0  0  0
 21 26  1  0  0  0  0
 22 21  2  0  0  0  0
 22 23  1  0  0  0  0
 23 24  2  0  0  0  0
 24 25  1  0  0  0  0
 25 28  1  0  0  0  0
 26 25  2  0  0  0  0
 27 23  1  0  0  0  0
 29 31  1  0  0  0  0
 30 29  2  0  0  0  0
 31 22  1  0  0  0  0
 32 31  1  0  0  0  0
 33 29  1  1  0  0  0
 34 33  1  0  0  0  0
 35 34  1  0  0  0  0
 36 34  1  0  0  0  0
 36 38  1  0  0  0  0
 37 36  1  0  0  0  0
 38 39  1  0  0  0  0
 39 33  1  0  0  0  0
 39 40  1  0  0  0  0
M  END
>  <minimizedAffinity>
-5.86180496

>  <minimizedRMSD>
0.369031012

$$$$
