
 OpenBabel03272507433D

 40 43  0  0  1  0  0  0  0  0999 V2000
   37.2280   25.4120   32.3680 O   0  0  0  0  0  0  0  0  0  0  0  0
   37.9760   24.8260   34.6640 C   0  0  0  0  0  0  0  0  0  0  0  0
   37.5790   25.7150   33.6840 C   0  0  0  0  0  0  0  0  0  0  0  0
   37.4920   27.0750   33.9590 C   0  0  0  0  0  0  0  0  0  0  0  0
   37.8100   27.5320   35.2300 C   0  0  0  0  0  0  0  0  0  0  0  0
   38.2080   26.6380   36.2070 C   0  0  0  0  0  0  0  0  0  0  0  0
   38.2800   25.3000   35.8940 C   0  0  0  0  0  0  0  0  0  0  0  0
   37.1960   27.8240   33.2650 H   0  0  0  0  0  0  0  0  0  0  0  0
   37.7560   28.5860   35.4840 H   0  0  0  0  0  0  0  0  0  0  0  0
   38.4630   26.9480   37.2010 H   0  0  0  0  0  0  0  0  0  0  0  0
   38.7080   24.3530   36.9490 C   0  0  0  0  0  0  0  0  0  0  0  0
   38.1480   24.1030   38.1790 C   0  0  0  0  0  0  0  0  0  0  0  0
   38.9330   23.1250   38.7850 C   0  0  0  0  0  0  0  0  0  0  0  0
   39.9270   22.8390   37.8790 C   0  0  0  0  0  0  0  0  0  0  0  0
   39.7720   23.5810   36.7980 O   0  0  0  0  0  0  0  0  0  0  0  0
   37.2580   24.6090   38.5510 H   0  0  0  0  0  0  0  0  0  0  0  0
   38.7370   22.7190   39.7710 H   0  0  0  0  0  0  0  0  0  0  0  0
   40.7140   22.1070   38.0490 H   0  0  0  0  0  0  0  0  0  0  0  0
   38.0660   22.3420   34.0010 N   0  0  0  0  0  0  0  0  0  0  0  0
   38.0350   23.4540   34.2930 C   0  0  0  0  0  0  0  0  0  0  0  0
   38.0610   25.5260   31.3080 C   0  0  0  0  0  0  0  0  0  0  0  0
   38.2050   24.3230   30.6250 C   0  0  0  0  0  0  0  0  0  0  0  0
   39.0210   24.2350   29.5040 C   0  0  0  0  0  0  0  0  0  0  0  0
   39.6680   25.3730   29.1090 N   0  0  0  0  0  0  0  0  0  0  0  0
   39.5100   26.5360   29.7940 C   0  0  0  0  0  0  0  0  0  0  0  0
   38.7220   26.5970   30.8650 N   0  0  0  0  0  0  0  0  0  0  0  0
   39.1960   23.3670   28.9190 H   0  0  0  0  0  0  0  0  0  0  0  0
   40.0170   27.4390   29.4890 H   0  0  0  0  0  0  0  0  0  0  0  0
   36.1820   22.9770   30.8940 C   0  0  0  0  0  0  0  0  0  0  0  0
   35.2300   23.8160   30.6650 O   0  0  0  0  0  0  0  0  0  0  0  0
   37.5970   23.1070   30.9340 N   0  0  0  0  0  0  0  0  0  0  0  0
   38.1190   22.2450   31.2050 H   0  0  0  0  0  0  0  0  0  0  0  0
   35.5470   21.6320   31.1590 C   0  0  1  0  0  3  0  0  0  0  0  0
   36.5240   20.5100   31.0680 C   0  0  0  0  0  3  0  0  0  0  0  0
   37.4720   20.8530   31.5650 H   0  0  0  0  0  0  0  0  0  0  0  0
   35.8440   19.4740   31.9340 C   0  0  0  0  0  3  0  0  0  0  0  0
   35.1050   18.9470   31.2640 H   0  0  0  0  0  0  0  0  0  0  0  0
   35.1300   20.1600   32.9040 O   0  0  0  0  0  0  0  0  0  0  0  0
   35.0970   21.5000   32.5900 C   0  0  0  0  0  3  0  0  0  0  0  0
   34.0650   21.8960   32.7490 H   0  0  0  0  0  0  0  0  0  0  0  0
  1  3  1  0  0  0  0
  2  7  1  0  0  0  0
  3  4  1  0  0  0  0
  3  2  2  0  0  0  0
  4  5  2  0  0  0  0
  5  9  1  0  0  0  0
  5  6  1  0  0  0  0
  6 10  1  0  0  0  0
  7  6  2  0  0  0  0
  7 11  1  0  0  0  0
  8  4  1  0  0  0  0
 11 12  2  0  0  0  0
 12 16  1  0  0  0  0
 12 13  1  0  0  0  0
 13 17  1  0  0  0  0
 14 18  1  0  0  0  0
 14 13  2  0  0  0  0
 15 11  1  0  0  0  0
 15 14  1  0  0  0  0
 19 20  3  0  0  0  0
 20  2  1  0  0  0  0
 21  1  1  0  0  0  0
 22 31  1  0  0  0  0
 22 21  2  0  0  0  0
 23 22  1  0  0  0  0
 24 23  2  0  0  0  0
 24 25  1  0  0  0  0
 25 26  2  0  0  0  0
 26 21  1  0  0  0  0
 27 23  1  0  0  0  0
 28 25  1  0  0  0  0
 29 31  1  0  0  0  0
 30 29  2  0  0  0  0
 31 32  1  0  0  0  0
 33 29  1  1  0  0  0
 33 39  1  0  0  0  0
 34 33  1  0  0  0  0
 34 35  1  0  0  0  0
 34 36  1  0  0  0  0
 36 38  1  0  0  0  0
 37 36  1  0  0  0  0
 39 40  1  0  0  0  0
 39 38  1  0  0  0  0
M  END
>  <minimizedAffinity>
-5.82973003

$$$$

 OpenBabel03272507433D

 40 43  0  0  1  0  0  0  0  0999 V2000
   38.2070   24.0490   32.8010 O   0  0  0  0  0  0  0  0  0  0  0  0
   37.4220   26.1420   31.7160 C   0  0  0  0  0  0  0  0  0  0  0  0
   37.2830   24.8220   32.0970 C   0  0  0  0  0  0  0  0  0  0  0  0
   36.1260   24.1160   31.7850 C   0  0  0  0  0  0  0  0  0  0  0  0
   35.1100   24.7520   31.0850 C   0  0  0  0  0  0  0  0  0  0  0  0
   35.2550   26.0730   30.7050 C   0  0  0  0  0  0  0  0  0  0  0  0
   36.4160   26.7360   31.0340 C   0  0  0  0  0  0  0  0  0  0  0  0
   35.9390   23.1000   32.0400 H   0  0  0  0  0  0  0  0  0  0  0  0
   34.1930   24.2340   30.8220 H   0  0  0  0  0  0  0  0  0  0  0  0
   34.4970   26.6020   30.1630 H   0  0  0  0  0  0  0  0  0  0  0  0
   36.5570   28.1510   30.6210 C   0  0  0  0  0  0  0  0  0  0  0  0
   36.1470   29.2950   31.2620 C   0  0  0  0  0  0  0  0  0  0  0  0
   36.5220   30.3650   30.4530 C   0  0  0  0  0  0  0  0  0  0  0  0
   37.1430   29.8000   29.3630 C   0  0  0  0  0  0  0  0  0  0  0  0
   37.1510   28.4860   29.4860 O   0  0  0  0  0  0  0  0  0  0  0  0
   35.6290   29.2970   32.2200 H   0  0  0  0  0  0  0  0  0  0  0  0
   36.3310   31.4030   30.6980 H   0  0  0  0  0  0  0  0  0  0  0  0
   37.5580   30.3720   28.5350 H   0  0  0  0  0  0  0  0  0  0  0  0
   39.6230   27.3110   32.3540 N   0  0  0  0  0  0  0  0  0  0  0  0
   38.6370   26.7850   32.0780 C   0  0  0  0  0  0  0  0  0  0  0  0
   38.1620   23.8260   34.1340 C   0  0  0  0  0  0  0  0  0  0  0  0
   38.0470   22.4730   34.4340 C   0  0  0  0  0  0  0  0  0  0  0  0
   37.9840   22.0390   35.7520 C   0  0  0  0  0  0  0  0  0  0  0  0
   38.0400   22.9950   36.7290 N   0  0  0  0  0  0  0  0  0  0  0  0
   38.1530   24.3110   36.4100 C   0  0  0  0  0  0  0  0  0  0  0  0
   38.2110   24.7030   35.1390 N   0  0  0  0  0  0  0  0  0  0  0  0
   37.8960   21.0340   36.0820 H   0  0  0  0  0  0  0  0  0  0  0  0
   38.1980   25.0710   37.1750 H   0  0  0  0  0  0  0  0  0  0  0  0
   36.7300   20.8520   33.1640 C   0  0  0  0  0  0  0  0  0  0  0  0
   35.5210   21.0740   33.5560 O   0  0  0  0  0  0  0  0  0  0  0  0
   37.9820   21.4180   33.5260 N   0  0  0  0  0  0  0  0  0  0  0  0
   38.8170   20.9890   33.0690 H   0  0  0  0  0  0  0  0  0  0  0  0
   36.6750   19.7600   32.1210 C   0  0  1  0  0  3  0  0  0  0  0  0
   36.0430   20.2150   30.8500 C   0  0  0  0  0  3  0  0  0  0  0  0
   36.4280   21.2510   30.6400 H   0  0  0  0  0  0  0  0  0  0  0  0
   36.6530   19.2400   29.8690 C   0  0  0  0  0  3  0  0  0  0  0  0
   36.0100   18.3140   29.9120 H   0  0  0  0  0  0  0  0  0  0  0  0
   37.9110   18.9110   30.3490 O   0  0  0  0  0  0  0  0  0  0  0  0
   38.0500   19.3840   31.6360 C   0  0  0  0  0  3  0  0  0  0  0  0
   38.5260   18.5990   32.2720 H   0  0  0  0  0  0  0  0  0  0  0  0
  1 21  1  0  0  0  0
  2 20  1  0  0  0  0
  2  3  1  0  0  0  0
  3  1  1  0  0  0  0
  4  8  1  0  0  0  0
  4  3  2  0  0  0  0
  5  4  1  0  0  0  0
  6  7  1  0  0  0  0
  6  5  2  0  0  0  0
  7  2  2  0  0  0  0
  9  5  1  0  0  0  0
 10  6  1  0  0  0  0
 11  7  1  0  0  0  0
 11 12  2  0  0  0  0
 12 16  1  0  0  0  0
 13 17  1  0  0  0  0
 13 12  1  0  0  0  0
 14 15  1  0  0  0  0
 14 13  2  0  0  0  0
 15 11  1  0  0  0  0
 18 14  1  0  0  0  0
 20 19  3  0  0  0  0
 21 22  2  0  0  0  0
 21 26  1  0  0  0  0
 22 23  1  0  0  0  0
 23 27  1  0  0  0  0
 23 24  2  0  0  0  0
 25 24  1  0  0  0  0
 25 28  1  0  0  0  0
 26 25  2  0  0  0  0
 29 31  1  0  0  0  0
 29 30  2  0  0  0  0
 31 22  1  0  0  0  0
 32 31  1  0  0  0  0
 33 29  1  1  0  0  0
 34 33  1  0  0  0  0
 35 34  1  0  0  0  0
 36 37  1  0  0  0  0
 36 38  1  0  0  0  0
 36 34  1  0  0  0  0
 38 39  1  0  0  0  0
 39 33  1  0  0  0  0
 39 40  1  0  0  0  0
M  END
>  <minimizedAffinity>
-5.5145483

$$$$

 OpenBabel03272507433D

 40 43  0  0  1  0  0  0  0  0999 V2000
   38.6400   26.2080   32.1820 O   0  0  0  0  0  0  0  0  0  0  0  0
   36.9580   27.8870   32.9050 C   0  0  0  0  0  0  0  0  0  0  0  0
   37.7880   27.2940   31.9750 C   0  0  0  0  0  0  0  0  0  0  0  0
   37.8380   27.7700   30.6700 C   0  0  0  0  0  0  0  0  0  0  0  0
   37.0440   28.8490   30.3090 C   0  0  0  0  0  0  0  0  0  0  0  0
   36.2150   29.4400   31.2460 C   0  0  0  0  0  0  0  0  0  0  0  0
   36.1950   28.9380   32.5270 C   0  0  0  0  0  0  0  0  0  0  0  0
   38.4470   27.3710   29.8940 H   0  0  0  0  0  0  0  0  0  0  0  0
   37.0550   29.2500   29.3010 H   0  0  0  0  0  0  0  0  0  0  0  0
   35.5860   30.2750   31.0110 H   0  0  0  0  0  0  0  0  0  0  0  0
   35.3030   29.5800   33.5190 C   0  0  0  0  0  0  0  0  0  0  0  0
   35.5680   30.5950   34.4070 C   0  0  0  0  0  0  0  0  0  0  0  0
   34.3900   30.8280   35.1120 C   0  0  0  0  0  0  0  0  0  0  0  0
   33.4750   29.9350   34.6050 C   0  0  0  0  0  0  0  0  0  0  0  0
   34.0410   29.2060   33.6610 O   0  0  0  0  0  0  0  0  0  0  0  0
   36.5380   31.0820   34.4930 H   0  0  0  0  0  0  0  0  0  0  0  0
   34.2900   31.5780   35.8890 H   0  0  0  0  0  0  0  0  0  0  0  0
   32.4450   29.8590   34.9460 H   0  0  0  0  0  0  0  0  0  0  0  0
   36.9780   26.8690   35.2680 N   0  0  0  0  0  0  0  0  0  0  0  0
   36.9710   27.3340   34.2160 C   0  0  0  0  0  0  0  0  0  0  0  0
   38.4760   24.9880   31.6200 C   0  0  0  0  0  0  0  0  0  0  0  0
   38.2190   24.0060   32.5700 C   0  0  0  0  0  0  0  0  0  0  0  0
   38.0210   22.6840   32.1910 C   0  0  0  0  0  0  0  0  0  0  0  0
   38.0900   22.3990   30.8550 N   0  0  0  0  0  0  0  0  0  0  0  0
   38.3420   23.3770   29.9460 C   0  0  0  0  0  0  0  0  0  0  0  0
   38.5280   24.6370   30.3330 N   0  0  0  0  0  0  0  0  0  0  0  0
   37.8210   21.8660   32.8370 H   0  0  0  0  0  0  0  0  0  0  0  0
   38.3980   23.1600   28.8910 H   0  0  0  0  0  0  0  0  0  0  0  0
   39.2020   23.8060   34.7990 C   0  0  0  0  0  0  0  0  0  0  0  0
   40.3400   23.2400   34.5770 O   0  0  0  0  0  0  0  0  0  0  0  0
   38.1260   24.1800   33.9500 N   0  0  0  0  0  0  0  0  0  0  0  0
   37.2920   24.5810   34.4330 H   0  0  0  0  0  0  0  0  0  0  0  0
   39.1120   24.0740   36.2840 C   0  0  1  0  0  3  0  0  0  0  0  0
   37.7260   23.9160   36.8100 C   0  0  0  0  0  3  0  0  0  0  0  0
   37.2850   23.0070   36.3180 H   0  0  0  0  0  0  0  0  0  0  0  0
   38.0100   23.6190   38.2640 C   0  0  0  0  0  3  0  0  0  0  0  0
   38.1370   24.6210   38.7670 H   0  0  0  0  0  0  0  0  0  0  0  0
   39.2260   22.9560   38.3150 O   0  0  0  0  0  0  0  0  0  0  0  0
   39.8390   23.0250   37.0830 C   0  0  0  0  0  3  0  0  0  0  0  0
   40.9210   23.2660   37.2180 H   0  0  0  0  0  0  0  0  0  0  0  0
  2 20  1  0  0  0  0
  3  1  1  0  0  0  0
  3  2  2  0  0  0  0
  4  3  1  0  0  0  0
  5  4  2  0  0  0  0
  5  6  1  0  0  0  0
  6  7  2  0  0  0  0
  7  2  1  0  0  0  0
  7 11  1  0  0  0  0
  8  4  1  0  0  0  0
  9  5  1  0  0  0  0
 10  6  1  0  0  0  0
 11 15  1  0  0  0  0
 11 12  2  0  0  0  0
 12 16  1  0  0  0  0
 12 13  1  0  0  0  0
 13 17  1  0  0  0  0
 14 18  1  0  0  0  0
 14 13  2  0  0  0  0
 15 14  1  0  0  0  0
 20 19  3  0  0  0  0
 21  1  1  0  0  0  0
 21 22  1  0  0  0  0
 22 31  1  0  0  0  0
 23 22  2  0  0  0  0
 23 27  1  0  0  0  0
 24 23  1  0  0  0  0
 25 26  1  0  0  0  0
 25 24  2  0  0  0  0
 26 21  2  0  0  0  0
 28 25  1  0  0  0  0
 30 29  2  0  0  0  0
 31 32  1  0  0  0  0
 31 29  1  0  0  0  0
 33 29  1  6  0  0  0
 33 34  1  0  0  0  0
 33 39  1  0  0  0  0
 34 36  1  0  0  0  0
 35 34  1  0  0  0  0
 36 38  1  0  0  0  0
 36 37  1  0  0  0  0
 39 40  1  0  0  0  0
 39 38  1  0  0  0  0
M  END
>  <minimizedAffinity>
-5.46011543

$$$$

 OpenBabel03272507433D

 40 43  0  0  1  0  0  0  0  0999 V2000
   38.0850   24.5550   33.0240 O   0  0  0  0  0  0  0  0  0  0  0  0
   36.9760   26.7530   33.3590 C   0  0  0  0  0  0  0  0  0  0  0  0
   37.8540   25.7470   33.7110 C   0  0  0  0  0  0  0  0  0  0  0  0
   38.6300   25.8600   34.8590 C   0  0  0  0  0  0  0  0  0  0  0  0
   38.5130   26.9950   35.6500 C   0  0  0  0  0  0  0  0  0  0  0  0
   37.6310   27.9980   35.2920 C   0  0  0  0  0  0  0  0  0  0  0  0
   36.8810   27.8470   34.1480 C   0  0  0  0  0  0  0  0  0  0  0  0
   39.3290   25.1350   35.2020 H   0  0  0  0  0  0  0  0  0  0  0  0
   39.1000   27.1190   36.5540 H   0  0  0  0  0  0  0  0  0  0  0  0
   37.5080   28.8900   35.8740 H   0  0  0  0  0  0  0  0  0  0  0  0
   35.9410   28.9290   33.7770 C   0  0  0  0  0  0  0  0  0  0  0  0
   34.7370   29.2750   34.3420 C   0  0  0  0  0  0  0  0  0  0  0  0
   34.2530   30.3630   33.6200 C   0  0  0  0  0  0  0  0  0  0  0  0
   35.2000   30.6140   32.6550 C   0  0  0  0  0  0  0  0  0  0  0  0
   36.1920   29.7500   32.7680 O   0  0  0  0  0  0  0  0  0  0  0  0
   34.2990   28.7540   35.1920 H   0  0  0  0  0  0  0  0  0  0  0  0
   33.3130   30.8590   33.8350 H   0  0  0  0  0  0  0  0  0  0  0  0
   35.1220   31.4110   31.9180 H   0  0  0  0  0  0  0  0  0  0  0  0
   35.6130   26.4100   31.2030 N   0  0  0  0  0  0  0  0  0  0  0  0
   36.2240   26.5530   32.1680 C   0  0  0  0  0  0  0  0  0  0  0  0
   38.7220   24.4680   31.8340 C   0  0  0  0  0  0  0  0  0  0  0  0
   38.4710   23.2590   31.1950 C   0  0  0  0  0  0  0  0  0  0  0  0
   39.0360   22.9780   29.9570 C   0  0  0  0  0  0  0  0  0  0  0  0
   39.8420   23.9350   29.4050 N   0  0  0  0  0  0  0  0  0  0  0  0
   40.0720   25.1080   30.0510 C   0  0  0  0  0  0  0  0  0  0  0  0
   39.5190   25.3560   31.2360 N   0  0  0  0  0  0  0  0  0  0  0  0
   38.9070   22.0890   29.3920 H   0  0  0  0  0  0  0  0  0  0  0  0
   40.7060   25.8680   29.6220 H   0  0  0  0  0  0  0  0  0  0  0  0
   36.2640   22.2390   31.4530 C   0  0  0  0  0  0  0  0  0  0  0  0
   35.4680   23.1080   30.9280 O   0  0  0  0  0  0  0  0  0  0  0  0
   37.6700   22.2170   31.6600 N   0  0  0  0  0  0  0  0  0  0  0  0
   38.0350   21.3830   32.1710 H   0  0  0  0  0  0  0  0  0  0  0  0
   35.4230   21.0650   31.8970 C   0  0  1  0  0  3  0  0  0  0  0  0
   35.8110   19.7950   31.2190 C   0  0  0  0  0  3  0  0  0  0  0  0
   36.9340   19.7700   31.1770 H   0  0  0  0  0  0  0  0  0  0  0  0
   35.3180   18.7790   32.2230 C   0  0  0  0  0  3  0  0  0  0  0  0
   34.2240   18.6220   31.9950 H   0  0  0  0  0  0  0  0  0  0  0  0
   35.4150   19.3630   33.4760 O   0  0  0  0  0  0  0  0  0  0  0  0
   35.6830   20.7070   33.3370 C   0  0  0  0  0  3  0  0  0  0  0  0
   35.0430   21.2900   34.0420 H   0  0  0  0  0  0  0  0  0  0  0  0
  1  3  1  0  0  0  0
  2  3  2  0  0  0  0
  2  7  1  0  0  0  0
  3  4  1  0  0  0  0
  4  8  1  0  0  0  0
  4  5  2  0  0  0  0
  5  9  1  0  0  0  0
  6  5  1  0  0  0  0
  6 10  1  0  0  0  0
  7  6  2  0  0  0  0
 11  7  1  0  0  0  0
 11 12  2  0  0  0  0
 12 16  1  0  0  0  0
 13 17  1  0  0  0  0
 13 12  1  0  0  0  0
 14 15  1  0  0  0  0
 14 13  2  0  0  0  0
 15 11  1  0  0  0  0
 18 14  1  0  0  0  0
 19 20  3  0  0  0  0
 20  2  1  0  0  0  0
 21  1  1  0  0  0  0
 22 31  1  0  0  0  0
 22 21  2  0  0  0  0
 23 22  1  0  0  0  0
 24 23  2  0  0  0  0
 24 25  1  0  0  0  0
 25 26  2  0  0  0  0
 26 21  1  0  0  0  0
 27 23  1  0  0  0  0
 28 25  1  0  0  0  0
 29 31  1  0  0  0  0
 30 29  2  0  0  0  0
 31 32  1  0  0  0  0
 33 29  1  6  0  0  0
 33 39  1  0  0  0  0
 34 33  1  0  0  0  0
 34 36  1  0  0  0  0
 35 34  1  0  0  0  0
 36 38  1  0  0  0  0
 37 36  1  0  0  0  0
 39 38  1  0  0  0  0
 39 40  1  0  0  0  0
M  END
>  <minimizedAffinity>
-5.40469837

$$$$

 OpenBabel03272507433D

 40 43  0  0  1  0  0  0  0  0999 V2000
   36.1010   29.4650   30.8580 O   0  0  0  0  0  0  0  0  0  0  0  0
   35.6720   30.8940   32.8450 C   0  0  0  0  0  0  0  0  0  0  0  0
   36.1900   30.6510   31.5880 C   0  0  0  0  0  0  0  0  0  0  0  0
   36.8860   31.6440   30.9090 C   0  0  0  0  0  0  0  0  0  0  0  0
   37.0570   32.8840   31.5070 C   0  0  0  0  0  0  0  0  0  0  0  0
   36.5370   33.1220   32.7660 C   0  0  0  0  0  0  0  0  0  0  0  0
   35.8530   32.1120   33.4040 C   0  0  0  0  0  0  0  0  0  0  0  0
   37.3160   31.5400   29.9410 H   0  0  0  0  0  0  0  0  0  0  0  0
   37.5960   33.6850   31.0100 H   0  0  0  0  0  0  0  0  0  0  0  0
   36.6460   34.0640   33.2650 H   0  0  0  0  0  0  0  0  0  0  0  0
   35.3010   32.3800   34.7520 C   0  0  0  0  0  0  0  0  0  0  0  0
   35.8420   32.1170   35.9870 C   0  0  0  0  0  0  0  0  0  0  0  0
   34.9220   32.5650   36.9310 C   0  0  0  0  0  0  0  0  0  0  0  0
   33.8710   33.0770   36.2060 C   0  0  0  0  0  0  0  0  0  0  0  0
   34.1200   32.9550   34.9150 O   0  0  0  0  0  0  0  0  0  0  0  0
   36.8130   31.6440   36.1320 H   0  0  0  0  0  0  0  0  0  0  0  0
   35.0720   32.4920   38.0030 H   0  0  0  0  0  0  0  0  0  0  0  0
   32.9790   33.5110   36.6510 H   0  0  0  0  0  0  0  0  0  0  0  0
   34.4230   28.9420   33.9640 N   0  0  0  0  0  0  0  0  0  0  0  0
   34.9730   29.8210   33.4640 C   0  0  0  0  0  0  0  0  0  0  0  0
   37.1220   28.9180   30.1590 C   0  0  0  0  0  0  0  0  0  0  0  0
   37.9580   28.1540   30.9670 C   0  0  0  0  0  0  0  0  0  0  0  0
   39.0670   27.5080   30.4340 C   0  0  0  0  0  0  0  0  0  0  0  0
   39.2940   27.6580   29.0940 N   0  0  0  0  0  0  0  0  0  0  0  0
   38.4620   28.4090   28.3260 C   0  0  0  0  0  0  0  0  0  0  0  0
   37.4050   29.0190   28.8590 N   0  0  0  0  0  0  0  0  0  0  0  0
   39.7610   26.9070   30.9650 H   0  0  0  0  0  0  0  0  0  0  0  0
   38.6350   28.5320   27.2680 H   0  0  0  0  0  0  0  0  0  0  0  0
   37.1920   26.7530   32.8180 C   0  0  0  0  0  0  0  0  0  0  0  0
   36.6110   25.7650   32.2270 O   0  0  0  0  0  0  0  0  0  0  0  0
   37.8230   27.9320   32.3360 N   0  0  0  0  0  0  0  0  0  0  0  0
   38.1640   28.5900   33.0710 H   0  0  0  0  0  0  0  0  0  0  0  0
   37.1240   26.4950   34.3060 C   0  0  1  0  0  3  0  0  0  0  0  0
   37.9450   25.3210   34.7200 C   0  0  0  0  0  3  0  0  0  0  0  0
   38.9100   25.3720   34.1450 H   0  0  0  0  0  0  0  0  0  0  0  0
   38.2010   25.6570   36.1710 C   0  0  0  0  0  3  0  0  0  0  0  0
   37.2990   25.2860   36.7390 H   0  0  0  0  0  0  0  0  0  0  0  0
   38.2320   27.0390   36.2710 O   0  0  0  0  0  0  0  0  0  0  0  0
   37.7840   27.5950   35.0930 C   0  0  0  0  0  3  0  0  0  0  0  0
   37.0850   28.4360   35.3190 H   0  0  0  0  0  0  0  0  0  0  0  0
  1  3  1  0  0  0  0
  2  7  1  0  0  0  0
  2 20  1  0  0  0  0
  3  2  2  0  0  0  0
  4  5  2  0  0  0  0
  4  3  1  0  0  0  0
  5  6  1  0  0  0  0
  6 10  1  0  0  0  0
  6  7  2  0  0  0  0
  7 11  1  0  0  0  0
  8  4  1  0  0  0  0
  9  5  1  0  0  0  0
 11 15  1  0  0  0  0
 11 12  2  0  0  0  0
 12 16  1  0  0  0  0
 12 13  1  0  0  0  0
 13 17  1  0  0  0  0
 14 18  1  0  0  0  0
 14 13  2  0  0  0  0
 15 14  1  0  0  0  0
 20 19  3  0  0  0  0
 21  1  1  0  0  0  0
 21 22  1  0  0  0  0
 22 31  1  0  0  0  0
 23 27  1  0  0  0  0
 23 22  2  0  0  0  0
 24 23  1  0  0  0  0
 25 26  1  0  0  0  0
 25 24  2  0  0  0  0
 26 21  2  0  0  0  0
 28 25  1  0  0  0  0
 30 29  2  0  0  0  0
 31 29  1  0  0  0  0
 31 32  1  0  0  0  0
 33 29  1  6  0  0  0
 33 34  1  0  0  0  0
 33 39  1  0  0  0  0
 34 36  1  0  0  0  0
 35 34  1  0  0  0  0
 36 38  1  0  0  0  0
 36 37  1  0  0  0  0
 39 40  1  0  0  0  0
 39 38  1  0  0  0  0
M  END
>  <minimizedAffinity>
-5.38776875

$$$$

 OpenBabel03272507433D

 40 43  0  0  1  0  0  0  0  0999 V2000
   36.7130   26.4630   32.5710 O   0  0  0  0  0  0  0  0  0  0  0  0
   38.0870   25.2460   34.2450 C   0  0  0  0  0  0  0  0  0  0  0  0
   37.4010   26.3510   33.7790 C   0  0  0  0  0  0  0  0  0  0  0  0
   37.3430   27.5150   34.5360 C   0  0  0  0  0  0  0  0  0  0  0  0
   37.9820   27.5570   35.7680 C   0  0  0  0  0  0  0  0  0  0  0  0
   38.6670   26.4480   36.2290 C   0  0  0  0  0  0  0  0  0  0  0  0
   38.7000   25.3150   35.4490 C   0  0  0  0  0  0  0  0  0  0  0  0
   36.8390   28.4080   34.2530 H   0  0  0  0  0  0  0  0  0  0  0  0
   37.9600   28.4480   36.3880 H   0  0  0  0  0  0  0  0  0  0  0  0
   39.1740   26.4370   37.1730 H   0  0  0  0  0  0  0  0  0  0  0  0
   39.4370   24.1340   35.9550 C   0  0  0  0  0  0  0  0  0  0  0  0
   39.0360   23.1660   36.8440 C   0  0  0  0  0  0  0  0  0  0  0  0
   40.1020   22.2810   36.9810 C   0  0  0  0  0  0  0  0  0  0  0  0
   41.0920   22.7690   36.1610 C   0  0  0  0  0  0  0  0  0  0  0  0
   40.6740   23.8700   35.5630 O   0  0  0  0  0  0  0  0  0  0  0  0
   38.0540   23.1520   37.3160 H   0  0  0  0  0  0  0  0  0  0  0  0
   40.0810   21.4070   37.6220 H   0  0  0  0  0  0  0  0  0  0  0  0
   42.0670   22.3010   36.0390 H   0  0  0  0  0  0  0  0  0  0  0  0
   38.0780   23.1710   32.7230 N   0  0  0  0  0  0  0  0  0  0  0  0
   38.0920   24.0990   33.4040 C   0  0  0  0  0  0  0  0  0  0  0  0
   37.1420   27.1830   31.5090 C   0  0  0  0  0  0  0  0  0  0  0  0
   36.2620   28.2100   31.1840 C   0  0  0  0  0  0  0  0  0  0  0  0
   36.5270   29.0630   30.1200 C   0  0  0  0  0  0  0  0  0  0  0  0
   37.6800   28.8470   29.4150 N   0  0  0  0  0  0  0  0  0  0  0  0
   38.5230   27.8360   29.7530 C   0  0  0  0  0  0  0  0  0  0  0  0
   38.2480   27.0320   30.7780 N   0  0  0  0  0  0  0  0  0  0  0  0
   35.9210   29.8720   29.7940 H   0  0  0  0  0  0  0  0  0  0  0  0
   39.4340   27.6600   29.2030 H   0  0  0  0  0  0  0  0  0  0  0  0
   34.9920   29.6330   32.7130 C   0  0  0  0  0  0  0  0  0  0  0  0
   35.8710   30.4740   33.1420 O   0  0  0  0  0  0  0  0  0  0  0  0
   35.0670   28.5230   31.8280 N   0  0  0  0  0  0  0  0  0  0  0  0
   34.1810   27.9840   31.7090 H   0  0  0  0  0  0  0  0  0  0  0  0
   33.6680   30.0000   33.3420 C   0  0  1  0  0  3  0  0  0  0  0  0
   32.5590   29.1050   32.9050 C   0  0  0  0  0  3  0  0  0  0  0  0
   32.9650   28.0570   32.8880 H   0  0  0  0  0  0  0  0  0  0  0  0
   31.6010   29.2600   34.0650 C   0  0  0  0  0  3  0  0  0  0  0  0
   31.0000   30.1890   33.8480 H   0  0  0  0  0  0  0  0  0  0  0  0
   32.3660   29.4970   35.1960 O   0  0  0  0  0  0  0  0  0  0  0  0
   33.6690   29.7470   34.8260 C   0  0  0  0  0  3  0  0  0  0  0  0
   34.0610   30.6170   35.4070 H   0  0  0  0  0  0  0  0  0  0  0  0
  1  3  1  0  0  0  0
  2  7  1  0  0  0  0
  3  2  2  0  0  0  0
  3  4  1  0  0  0  0
  4  5  2  0  0  0  0
  5  6  1  0  0  0  0
  5  9  1  0  0  0  0
  6 10  1  0  0  0  0
  7 11  1  0  0  0  0
  7  6  2  0  0  0  0
  8  4  1  0  0  0  0
 11 12  2  0  0  0  0
 12 13  1  0  0  0  0
 12 16  1  0  0  0  0
 13 17  1  0  0  0  0
 14 13  2  0  0  0  0
 15 11  1  0  0  0  0
 15 14  1  0  0  0  0
 18 14  1  0  0  0  0
 19 20  3  0  0  0  0
 20  2  1  0  0  0  0
 21  1  1  0  0  0  0
 22 21  1  0  0  0  0
 22 31  1  0  0  0  0
 23 22  2  0  0  0  0
 24 25  2  0  0  0  0
 24 23  1  0  0  0  0
 25 26  1  0  0  0  0
 26 21  2  0  0  0  0
 27 23  1  0  0  0  0
 28 25  1  0  0  0  0
 29 30  2  0  0  0  0
 31 29  1  0  0  0  0
 32 31  1  0  0  0  0
 33 29  1  6  0  0  0
 33 39  1  0  0  0  0
 34 33  1  0  0  0  0
 34 36  1  0  0  0  0
 35 34  1  0  0  0  0
 36 38  1  0  0  0  0
 37 36  1  0  0  0  0
 39 38  1  0  0  0  0
 39 40  1  0  0  0  0
M  END
>  <minimizedAffinity>
-5.3846879

$$$$

 OpenBabel03272507433D

 40 43  0  0  1  0  0  0  0  0999 V2000
   38.3320   26.8700   34.2570 O   0  0  0  0  0  0  0  0  0  0  0  0
   39.9670   25.1070   34.8850 C   0  0  0  0  0  0  0  0  0  0  0  0
   39.6210   26.3550   34.4060 C   0  0  0  0  0  0  0  0  0  0  0  0
   40.6030   27.2550   34.0090 C   0  0  0  0  0  0  0  0  0  0  0  0
   41.9390   26.8860   34.0980 C   0  0  0  0  0  0  0  0  0  0  0  0
   42.2790   25.6350   34.5790 C   0  0  0  0  0  0  0  0  0  0  0  0
   41.2760   24.7740   34.9620 C   0  0  0  0  0  0  0  0  0  0  0  0
   40.4240   28.2330   33.6290 H   0  0  0  0  0  0  0  0  0  0  0  0
   42.7340   27.5600   33.7970 H   0  0  0  0  0  0  0  0  0  0  0  0
   43.2960   25.3090   34.6640 H   0  0  0  0  0  0  0  0  0  0  0  0
   41.6550   23.4380   35.4740 C   0  0  0  0  0  0  0  0  0  0  0  0
   41.9290   23.0390   36.7610 C   0  0  0  0  0  0  0  0  0  0  0  0
   42.2310   21.6810   36.7030 C   0  0  0  0  0  0  0  0  0  0  0  0
   42.1210   21.3360   35.3760 C   0  0  0  0  0  0  0  0  0  0  0  0
   41.7780   22.3960   34.6670 O   0  0  0  0  0  0  0  0  0  0  0  0
   41.8980   23.7090   37.6190 H   0  0  0  0  0  0  0  0  0  0  0  0
   42.4910   21.0830   37.5700 H   0  0  0  0  0  0  0  0  0  0  0  0
   42.2950   20.3330   34.9910 H   0  0  0  0  0  0  0  0  0  0  0  0
   38.0420   23.5540   35.5930 N   0  0  0  0  0  0  0  0  0  0  0  0
   38.8960   24.2530   35.2690 C   0  0  0  0  0  0  0  0  0  0  0  0
   37.6510   26.9030   33.0890 C   0  0  0  0  0  0  0  0  0  0  0  0
   36.5260   27.7170   33.1640 C   0  0  0  0  0  0  0  0  0  0  0  0
   35.6930   27.8820   32.0640 C   0  0  0  0  0  0  0  0  0  0  0  0
   36.0280   27.2130   30.9180 N   0  0  0  0  0  0  0  0  0  0  0  0
   37.1340   26.4240   30.8710 C   0  0  0  0  0  0  0  0  0  0  0  0
   37.9170   26.2820   31.9380 N   0  0  0  0  0  0  0  0  0  0  0  0
   34.8160   28.4770   32.0210 H   0  0  0  0  0  0  0  0  0  0  0  0
   37.4050   25.8940   29.9720 H   0  0  0  0  0  0  0  0  0  0  0  0
   35.7600   29.8190   34.1480 C   0  0  0  0  0  0  0  0  0  0  0  0
   35.8230   30.6520   33.1650 O   0  0  0  0  0  0  0  0  0  0  0  0
   36.0900   28.4420   34.2710 N   0  0  0  0  0  0  0  0  0  0  0  0
   35.9810   28.0390   35.2270 H   0  0  0  0  0  0  0  0  0  0  0  0
   35.2180   30.5690   35.3430 C   0  0  1  0  0  3  0  0  0  0  0  0
   36.1450   31.6350   35.8180 C   0  0  0  0  0  3  0  0  0  0  0  0
   36.5620   32.1440   34.9060 H   0  0  0  0  0  0  0  0  0  0  0  0
   35.1750   32.5600   36.5160 C   0  0  0  0  0  3  0  0  0  0  0  0
   35.0440   32.1450   37.5570 H   0  0  0  0  0  0  0  0  0  0  0  0
   33.9610   32.4530   35.8550 O   0  0  0  0  0  0  0  0  0  0  0  0
   34.0060   31.3880   34.9820 C   0  0  0  0  0  3  0  0  0  0  0  0
   33.0580   30.8020   35.0590 H   0  0  0  0  0  0  0  0  0  0  0  0
  1  3  1  0  0  0  0
  2  7  1  0  0  0  0
  2 20  1  0  0  0  0
  3  2  2  0  0  0  0
  4  5  2  0  0  0  0
  4  3  1  0  0  0  0
  5  6  1  0  0  0  0
  6 10  1  0  0  0  0
  6  7  2  0  0  0  0
  7 11  1  0  0  0  0
  8  4  1  0  0  0  0
  9  5  1  0  0  0  0
 11 12  2  0  0  0  0
 12 16  1  0  0  0  0
 13 12  1  0  0  0  0
 13 17  1  0  0  0  0
 14 13  2  0  0  0  0
 15 14  1  0  0  0  0
 15 11  1  0  0  0  0
 18 14  1  0  0  0  0
 20 19  3  0  0  0  0
 21 22  1  0  0  0  0
 21  1  1  0  0  0  0
 22 31  1  0  0  0  0
 23 22  2  0  0  0  0
 24 23  1  0  0  0  0
 25 24  2  0  0  0  0
 25 26  1  0  0  0  0
 26 21  2  0  0  0  0
 27 23  1  0  0  0  0
 28 25  1  0  0  0  0
 29 31  1  0  0  0  0
 30 29  2  0  0  0  0
 31 32  1  0  0  0  0
 33 29  1  6  0  0  0
 33 34  1  0  0  0  0
 34 36  1  0  0  0  0
 35 34  1  0  0  0  0
 36 37  1  0  0  0  0
 38 36  1  0  0  0  0
 39 40  1  0  0  0  0
 39 33  1  0  0  0  0
 39 38  1  0  0  0  0
M  END
>  <minimizedAffinity>
-5.34667349

$$$$

 OpenBabel03272507433D

 40 43  0  0  1  0  0  0  0  0999 V2000
   37.4000   27.1110   32.7320 O   0  0  0  0  0  0  0  0  0  0  0  0
   38.0830   25.4150   34.4140 C   0  0  0  0  0  0  0  0  0  0  0  0
   37.5730   25.8050   33.1910 C   0  0  0  0  0  0  0  0  0  0  0  0
   37.1680   24.8540   32.2610 C   0  0  0  0  0  0  0  0  0  0  0  0
   37.2800   23.5070   32.5730 C   0  0  0  0  0  0  0  0  0  0  0  0
   37.7900   23.1220   33.8000 C   0  0  0  0  0  0  0  0  0  0  0  0
   38.1800   24.0940   34.6920 C   0  0  0  0  0  0  0  0  0  0  0  0
   36.7660   25.0690   31.2990 H   0  0  0  0  0  0  0  0  0  0  0  0
   36.9730   22.7350   31.8740 H   0  0  0  0  0  0  0  0  0  0  0  0
   37.8930   22.0940   34.0820 H   0  0  0  0  0  0  0  0  0  0  0  0
   38.7250   23.6680   36.0010 C   0  0  0  0  0  0  0  0  0  0  0  0
   39.9600   23.1490   36.3090 C   0  0  0  0  0  0  0  0  0  0  0  0
   39.9660   22.9160   37.6820 C   0  0  0  0  0  0  0  0  0  0  0  0
   38.7260   23.3110   38.1270 C   0  0  0  0  0  0  0  0  0  0  0  0
   38.0080   23.7530   37.1110 O   0  0  0  0  0  0  0  0  0  0  0  0
   40.7420   22.9770   35.5700 H   0  0  0  0  0  0  0  0  0  0  0  0
   40.8130   22.5060   38.2200 H   0  0  0  0  0  0  0  0  0  0  0  0
   38.4070   23.2580   39.1660 H   0  0  0  0  0  0  0  0  0  0  0  0
   38.7840   27.3080   36.0080 N   0  0  0  0  0  0  0  0  0  0  0  0
   38.4730   26.4540   35.3020 C   0  0  0  0  0  0  0  0  0  0  0  0
   37.8040   27.5570   31.5200 C   0  0  0  0  0  0  0  0  0  0  0  0
   36.8640   28.3980   30.9330 C   0  0  0  0  0  0  0  0  0  0  0  0
   37.0950   28.9600   29.6840 C   0  0  0  0  0  0  0  0  0  0  0  0
   38.2760   28.6500   29.0660 N   0  0  0  0  0  0  0  0  0  0  0  0
   39.1770   27.8250   29.6610 C   0  0  0  0  0  0  0  0  0  0  0  0
   38.9340   27.2990   30.8590 N   0  0  0  0  0  0  0  0  0  0  0  0
   36.4440   29.6090   29.1550 H   0  0  0  0  0  0  0  0  0  0  0  0
   40.1100   27.5760   29.1810 H   0  0  0  0  0  0  0  0  0  0  0  0
   35.4770   30.0600   32.0670 C   0  0  0  0  0  0  0  0  0  0  0  0
   36.2980   31.0280   32.3020 O   0  0  0  0  0  0  0  0  0  0  0  0
   35.6360   28.7820   31.4680 N   0  0  0  0  0  0  0  0  0  0  0  0
   34.7830   28.1800   31.4640 H   0  0  0  0  0  0  0  0  0  0  0  0
   34.1180   30.4870   32.5720 C   0  0  1  0  0  3  0  0  0  0  0  0
   33.2940   31.1400   31.5140 C   0  0  0  0  0  3  0  0  0  0  0  0
   33.4450   30.5540   30.5670 H   0  0  0  0  0  0  0  0  0  0  0  0
   31.9030   30.8900   32.0500 C   0  0  0  0  0  3  0  0  0  0  0  0
   31.7000   31.7200   32.7860 H   0  0  0  0  0  0  0  0  0  0  0  0
   31.9440   29.6950   32.7510 O   0  0  0  0  0  0  0  0  0  0  0  0
   33.2540   29.3030   32.9140 C   0  0  0  0  0  3  0  0  0  0  0  0
   33.4100   28.9500   33.9620 H   0  0  0  0  0  0  0  0  0  0  0  0
  1  3  1  0  0  0  0
  2  7  1  0  0  0  0
  2 20  1  0  0  0  0
  3  2  2  0  0  0  0
  4  5  2  0  0  0  0
  4  3  1  0  0  0  0
  5  6  1  0  0  0  0
  6 10  1  0  0  0  0
  6  7  2  0  0  0  0
  7 11  1  0  0  0  0
  8  4  1  0  0  0  0
  9  5  1  0  0  0  0
 11 12  2  0  0  0  0
 11 15  1  0  0  0  0
 12 13  1  0  0  0  0
 13 14  2  0  0  0  0
 13 17  1  0  0  0  0
 14 18  1  0  0  0  0
 15 14  1  0  0  0  0
 16 12  1  0  0  0  0
 20 19  3  0  0  0  0
 21  1  1  0  0  0  0
 22 31  1  0  0  0  0
 22 21  1  0  0  0  0
 23 22  2  0  0  0  0
 24 25  2  0  0  0  0
 24 23  1  0  0  0  0
 25 26  1  0  0  0  0
 26 21  2  0  0  0  0
 27 23  1  0  0  0  0
 28 25  1  0  0  0  0
 29 30  2  0  0  0  0
 31 29  1  0  0  0  0
 32 31  1  0  0  0  0
 33 29  1  6  0  0  0
 33 39  1  0  0  0  0
 34 36  1  0  0  0  0
 34 33  1  0  0  0  0
 35 34  1  0  0  0  0
 36 38  1  0  0  0  0
 36 37  1  0  0  0  0
 38 39  1  0  0  0  0
 39 40  1  0  0  0  0
M  END
>  <minimizedAffinity>
-5.2966938

$$$$

 OpenBabel03272507433D

 40 43  0  0  1  0  0  0  0  0999 V2000
   38.9490   26.4020   32.3490 O   0  0  0  0  0  0  0  0  0  0  0  0
   37.0800   28.0160   32.6200 C   0  0  0  0  0  0  0  0  0  0  0  0
   38.0250   27.3350   31.8780 C   0  0  0  0  0  0  0  0  0  0  0  0
   38.1300   27.5450   30.5080 C   0  0  0  0  0  0  0  0  0  0  0  0
   37.2750   28.4470   29.8910 C   0  0  0  0  0  0  0  0  0  0  0  0
   36.3310   29.1260   30.6390 C   0  0  0  0  0  0  0  0  0  0  0  0
   36.2590   28.8890   31.9930 C   0  0  0  0  0  0  0  0  0  0  0  0
   38.8280   27.0630   29.8650 H   0  0  0  0  0  0  0  0  0  0  0  0
   37.3270   28.6390   28.8240 H   0  0  0  0  0  0  0  0  0  0  0  0
   35.6520   29.8320   30.2040 H   0  0  0  0  0  0  0  0  0  0  0  0
   35.2440   29.6240   32.7820 C   0  0  0  0  0  0  0  0  0  0  0  0
   35.3430   30.8320   33.4290 C   0  0  0  0  0  0  0  0  0  0  0  0
   34.1060   31.0740   34.0200 C   0  0  0  0  0  0  0  0  0  0  0  0
   33.3250   29.9900   33.6930 C   0  0  0  0  0  0  0  0  0  0  0  0
   34.0230   29.1430   32.9580 O   0  0  0  0  0  0  0  0  0  0  0  0
   36.2490   31.4370   33.4390 H   0  0  0  0  0  0  0  0  0  0  0  0
   33.8780   31.9580   34.6030 H   0  0  0  0  0  0  0  0  0  0  0  0
   32.2890   29.8690   34.0040 H   0  0  0  0  0  0  0  0  0  0  0  0
   37.0140   27.5310   35.1460 N   0  0  0  0  0  0  0  0  0  0  0  0
   37.0430   27.7370   34.0150 C   0  0  0  0  0  0  0  0  0  0  0  0
   40.2270   26.6920   32.6860 C   0  0  0  0  0  0  0  0  0  0  0  0
   40.5180   26.3260   33.9960 C   0  0  0  0  0  0  0  0  0  0  0  0
   41.7820   26.5430   34.5310 C   0  0  0  0  0  0  0  0  0  0  0  0
   42.7140   27.1260   33.7170 N   0  0  0  0  0  0  0  0  0  0  0  0
   42.4050   27.4740   32.4410 C   0  0  0  0  0  0  0  0  0  0  0  0
   41.1860   27.2560   31.9500 N   0  0  0  0  0  0  0  0  0  0  0  0
   42.1000   26.3010   35.5140 H   0  0  0  0  0  0  0  0  0  0  0  0
   43.1350   27.9340   31.7940 H   0  0  0  0  0  0  0  0  0  0  0  0
   39.7300   24.3330   35.1710 C   0  0  0  0  0  0  0  0  0  0  0  0
   40.4520   23.3860   34.6750 O   0  0  0  0  0  0  0  0  0  0  0  0
   39.6520   25.7280   34.9090 N   0  0  0  0  0  0  0  0  0  0  0  0
   38.9170   26.2430   35.4420 H   0  0  0  0  0  0  0  0  0  0  0  0
   38.8340   23.7170   36.2200 C   0  0  1  0  0  3  0  0  0  0  0  0
   39.6020   23.1290   37.3550 C   0  0  0  0  0  3  0  0  0  0  0  0
   40.4360   23.8440   37.5970 H   0  0  0  0  0  0  0  0  0  0  0  0
   38.5620   23.1740   38.4500 C   0  0  0  0  0  3  0  0  0  0  0  0
   37.9410   22.2400   38.3270 H   0  0  0  0  0  0  0  0  0  0  0  0
   37.7490   24.2670   38.1970 O   0  0  0  0  0  0  0  0  0  0  0  0
   38.0200   24.7590   36.9390 C   0  0  0  0  0  3  0  0  0  0  0  0
   37.0610   24.9880   36.4140 H   0  0  0  0  0  0  0  0  0  0  0  0
  1 21  1  0  0  0  0
  2 20  1  0  0  0  0
  3  1  1  0  0  0  0
  3  2  2  0  0  0  0
  4  3  1  0  0  0  0
  5  4  2  0  0  0  0
  5  6  1  0  0  0  0
  6  7  2  0  0  0  0
  7  2  1  0  0  0  0
  7 11  1  0  0  0  0
  8  4  1  0  0  0  0
  9  5  1  0  0  0  0
 10  6  1  0  0  0  0
 11 15  1  0  0  0  0
 11 12  2  0  0  0  0
 12 16  1  0  0  0  0
 12 13  1  0  0  0  0
 13 17  1  0  0  0  0
 14 18  1  0  0  0  0
 14 13  2  0  0  0  0
 15 14  1  0  0  0  0
 20 19  3  0  0  0  0
 21 22  1  0  0  0  0
 22 23  2  0  0  0  0
 22 31  1  0  0  0  0
 23 27  1  0  0  0  0
 24 23  1  0  0  0  0
 25 24  2  0  0  0  0
 26 25  1  0  0  0  0
 26 21  2  0  0  0  0
 28 25  1  0  0  0  0
 30 29  2  0  0  0  0
 31 29  1  0  0  0  0
 31 32  1  0  0  0  0
 33 29  1  6  0  0  0
 33 39  1  0  0  0  0
 33 34  1  0  0  0  0
 34 35  1  0  0  0  0
 34 36  1  0  0  0  0
 37 36  1  0  0  0  0
 38 36  1  0  0  0  0
 39 38  1  0  0  0  0
 40 39  1  0  0  0  0
M  END
>  <minimizedAffinity>
-5.28743076

$$$$
