
 OpenBabel03272509433D

 37 39  0  0  1  0  0  0  0  0999 V2000
   37.0780   30.9380   49.0500 C   0  0  0  0  0  0  0  0  0  0  0  0
   36.8040   31.8700   50.0530 C   0  0  0  0  0  0  0  0  0  0  0  0
   37.4050   33.1210   50.0710 C   0  0  0  0  0  0  0  0  0  0  0  0
   38.3070   33.4640   49.0610 C   0  0  0  0  0  0  0  0  0  0  0  0
   38.5660   32.5430   48.0860 C   0  0  0  0  0  0  0  0  0  0  0  0
   37.9480   31.3010   48.1020 C   0  0  0  0  0  0  0  0  0  0  0  0
   36.0980   31.5900   50.8330 H   0  0  0  0  0  0  0  0  0  0  0  0
   37.1360   33.7670   50.8760 H   0  0  0  0  0  0  0  0  0  0  0  0
   38.7230   34.4490   49.1540 H   0  0  0  0  0  0  0  0  0  0  0  0
   39.2860   32.9500   47.3780 H   0  0  0  0  0  0  0  0  0  0  0  0
   36.4800   29.6210   49.0500 C   0  0  2  0  0  0  0  0  0  0  0  0
   36.9810   29.0600   48.1690 H   0  0  0  0  0  0  0  0  0  0  0  0
   33.6160   29.9790   46.8440 C   0  0  0  0  0  0  0  0  0  0  0  0
   32.8760   28.8330   47.0660 C   0  0  0  0  0  0  0  0  0  0  0  0
   33.3230   27.9480   48.0280 C   0  0  0  0  0  0  0  0  0  0  0  0
   34.4760   28.2310   48.7260 N   0  0  0  0  0  0  0  0  0  0  0  0
   35.1390   29.3410   48.4650 C   0  0  0  0  0  0  0  0  0  0  0  0
   34.7160   30.2210   47.5300 N   0  0  0  0  0  0  0  0  0  0  0  0
   33.2280   30.6430   46.0820 H   0  0  0  0  0  0  0  0  0  0  0  0
   31.9710   28.5210   46.5780 H   0  0  0  0  0  0  0  0  0  0  0  0
   32.8510   27.0180   48.3110 H   0  0  0  0  0  0  0  0  0  0  0  0
   36.9400   28.8710   49.9890 O   0  0  0  0  0  0  0  0  0  0  0  0
   36.4610   28.0950   50.3330 H   0  0  0  0  0  0  0  0  0  0  0  0
   38.3340   30.4140   47.0280 C   0  0  0  0  0  0  0  0  0  0  0  0
   38.8430   30.8290   45.8630 C   0  0  0  0  0  0  0  0  0  0  0  0
   39.3090   30.0150   44.7180 C   0  0  0  0  0  0  0  0  0  0  0  0
   39.8260   29.1260   45.1330 H   0  0  0  0  0  0  0  0  0  0  0  0
   38.4540   29.6540   44.0920 H   0  0  0  0  0  0  0  0  0  0  0  0
   40.4790   30.9640   43.7380 S   0  0  0  0  0  0  0  0  0  0  0  0
   39.5850   31.6580   42.3250 C   0  0  1  0  0  0  0  0  0  0  0  0
   38.3180   30.9200   41.9990 C   0  0  0  0  0  0  0  0  0  0  0  0
   37.9470   30.2730   42.8300 H   0  0  0  0  0  0  0  0  0  0  0  0
   37.3830   32.0240   41.6290 C   0  0  0  0  0  0  0  0  0  0  0  0
   37.3060   32.1350   40.5270 H   0  0  0  0  0  0  0  0  0  0  0  0
   37.8360   33.2110   42.1370 O   0  0  0  0  0  0  0  0  0  0  0  0
   39.0590   33.0170   42.7220 C   0  0  0  0  0  0  0  0  0  0  0  0
   38.9910   33.0910   43.8470 H   0  0  0  0  0  0  0  0  0  0  0  0
  1  2  1  0  0  0  0
  2  3  2  0  0  0  0
  2  7  1  0  0  0  0
  3  8  1  0  0  0  0
  4  9  1  0  0  0  0
  4  3  1  0  0  0  0
  5  6  1  0  0  0  0
  5  4  2  0  0  0  0
  6  1  2  0  0  0  0
 10  5  1  0  0  0  0
 11 12  1  6  0  0  0
 11  1  1  0  0  0  0
 11 22  1  0  0  0  0
 13 14  2  0  0  0  0
 13 18  1  0  0  0  0
 14 15  1  0  0  0  0
 15 21  1  0  0  0  0
 15 16  2  0  0  0  0
 17 16  1  0  0  0  0
 17 11  1  0  0  0  0
 18 17  2  0  0  0  0
 19 13  1  0  0  0  0
 20 14  1  0  0  0  0
 22 23  1  0  0  0  0
 24  6  1  0  0  0  0
 25 24  2  0  0  0  0
 26 27  1  0  0  0  0
 26 25  1  0  0  0  0
 28 26  1  0  0  0  0
 29 26  1  0  0  0  0
 30 36  1  0  0  0  0
 30 29  1  1  0  0  0
 31 30  1  0  0  0  0
 31 32  1  0  0  0  0
 33 31  1  0  0  0  0
 33 35  1  0  0  0  0
 34 33  1  0  0  0  0
 35 36  1  0  0  0  0
 36 37  1  0  0  0  0
M  END
>  <minimizedAffinity>
-5.71120548

>  <minimizedRMSD>
1.13314676

$$$$
