
 OpenBabel03272506413D

 18 19  0  0  1  0  0  0  0  0999 V2000
   37.2080   30.2180   51.4160 C   0  0  0  0  0  0  0  0  0  0  0  0
   38.1200   30.8180   50.5230 C   0  0  0  0  0  0  0  0  0  0  0  0
   37.9830   30.5660   49.1540 C   0  0  0  0  0  0  0  0  0  0  0  0
   36.9750   29.7510   48.7520 N   0  0  0  0  0  0  0  0  0  0  0  0
   36.1140   29.1850   49.6180 C   0  0  0  0  0  0  0  0  0  0  0  0
   36.2380   29.4220   50.9360 N   0  0  0  0  0  0  0  0  0  0  0  0
   37.3490   30.4360   52.4570 H   0  0  0  0  0  0  0  0  0  0  0  0
   38.9340   31.4730   50.8200 H   0  0  0  0  0  0  0  0  0  0  0  0
   38.6420   30.9910   48.4140 H   0  0  0  0  0  0  0  0  0  0  0  0
   34.7920   28.1140   49.0900 S   0  0  0  0  0  0  0  0  0  0  0  0
   33.5760   29.0890   48.2180 C   0  0  2  0  0  3  0  0  0  0  0  0
   32.9280   28.3310   47.0520 C   0  0  0  0  0  3  0  0  0  0  0  0
   32.1110   27.6700   47.3740 H   0  0  0  0  0  0  0  0  0  0  0  0
   32.3910   29.5770   46.3290 C   0  0  0  0  0  3  0  0  0  0  0  0
   31.8210   30.1300   47.0960 H   0  0  0  0  0  0  0  0  0  0  0  0
   33.6070   30.2620   46.1840 O   0  0  0  0  0  0  0  0  0  0  0  0
   34.2030   30.2280   47.4300 C   0  0  0  0  0  3  0  0  0  0  0  0
   34.0080   31.2150   47.9010 H   0  0  0  0  0  0  0  0  0  0  0  0
  1  7  1  0  0  0  0
  2  8  1  0  0  0  0
  2  1  2  0  0  0  0
  3  2  1  0  0  0  0
  4  3  2  0  0  0  0
  4  5  1  0  0  0  0
  5  6  2  0  0  0  0
  6  1  1  0  0  0  0
  9  3  1  0  0  0  0
 10  5  1  0  0  0  0
 11 10  1  6  0  0  0
 12 13  1  0  0  0  0
 12 11  1  0  0  0  0
 14 12  1  0  0  0  0
 14 15  1  0  0  0  0
 16 14  1  0  0  0  0
 16 17  1  0  0  0  0
 17 18  1  0  0  0  0
 17 11  1  0  0  0  0
M  END
>  <minimizedAffinity>
-3.64059567

>  <minimizedRMSD>
1.78505445

$$$$
