
 OpenBabel03272502303D

 23 24  0  0  1  0  0  0  0  0999 V2000
   39.4790   32.5640   46.5620 C   0  0  0  0  0  0  0  0  0  0  0  0
   39.6870   33.6480   46.6530 H   0  0  0  0  0  0  0  0  0  0  0  0
   40.4370   32.0190   46.3700 H   0  0  0  0  0  0  0  0  0  0  0  0
   38.1940   30.8870   47.8240 C   0  0  0  0  0  3  0  0  0  0  0  0
   38.8190   32.0350   47.7960 C   0  0  0  0  0  3  0  0  0  0  0  0
   37.3550   30.2200   51.3790 C   0  0  0  0  0  0  0  0  0  0  0  0
   38.0330   30.7440   50.2670 C   0  0  0  0  0  0  0  0  0  0  0  0
   37.5700   30.4020   49.0180 C   0  0  0  0  0  0  0  0  0  0  0  0
   36.4900   29.5820   48.8910 N   0  0  0  0  0  0  0  0  0  0  0  0
   35.8650   29.0980   49.9910 C   0  0  0  0  0  0  0  0  0  0  0  0
   36.2870   29.4090   51.2270 N   0  0  0  0  0  0  0  0  0  0  0  0
   37.7300   30.4970   52.3770 H   0  0  0  0  0  0  0  0  0  0  0  0
   38.8880   31.3930   50.4010 H   0  0  0  0  0  0  0  0  0  0  0  0
   35.0130   28.4530   49.8060 H   0  0  0  0  0  0  0  0  0  0  0  0
   38.3660   32.3780   45.1370 S   0  0  0  0  0  0  0  0  0  0  0  0
   39.3740   32.1680   43.6580 C   0  0  1  0  0  3  0  0  0  0  0  0
   40.3640   31.0110   43.8010 C   0  0  0  0  0  3  0  0  0  0  0  0
   39.8440   30.1850   44.3260 H   0  0  0  0  0  0  0  0  0  0  0  0
   40.5010   30.5840   42.3540 C   0  0  0  0  0  3  0  0  0  0  0  0
   41.1540   31.3160   41.8290 H   0  0  0  0  0  0  0  0  0  0  0  0
   39.1890   30.6410   41.9130 O   0  0  0  0  0  0  0  0  0  0  0  0
   38.5810   31.7410   42.4610 C   0  0  0  0  0  3  0  0  0  0  0  0
   37.5810   31.4240   42.8490 H   0  0  0  0  0  0  0  0  0  0  0  0
  1  2  1  0  0  0  0
  1  5  1  0  0  0  0
  3  1  1  0  0  0  0
  4  8  1  0  0  0  0
  5  4  2  0  0  0  0
  6 12  1  0  0  0  0
  7 13  1  0  0  0  0
  7  6  2  0  0  0  0
  8  7  1  0  0  0  0
  9  8  2  0  0  0  0
  9 10  1  0  0  0  0
 10 11  2  0  0  0  0
 11  6  1  0  0  0  0
 14 10  1  0  0  0  0
 15  1  1  0  0  0  0
 16 17  1  0  0  0  0
 16 15  1  1  0  0  0
 17 18  1  0  0  0  0
 19 17  1  0  0  0  0
 20 19  1  0  0  0  0
 21 19  1  0  0  0  0
 21 22  1  0  0  0  0
 22 23  1  0  0  0  0
 22 16  1  0  0  0  0
M  END
>  <minimizedAffinity>
-4.68692017

>  <minimizedRMSD>
0.75677371

$$$$
