
 OpenBabel03272509433D

 37 39  0  0  1  0  0  0  0  0999 V2000
   37.0250   30.9200   49.0450 C   0  0  0  0  0  0  0  0  0  0  0  0
   36.7290   31.8080   50.0820 C   0  0  0  0  0  0  0  0  0  0  0  0
   37.3190   33.0620   50.1600 C   0  0  0  0  0  0  0  0  0  0  0  0
   38.2340   33.4520   49.1800 C   0  0  0  0  0  0  0  0  0  0  0  0
   38.5150   32.5750   48.1710 C   0  0  0  0  0  0  0  0  0  0  0  0
   37.9060   31.3290   48.1260 C   0  0  0  0  0  0  0  0  0  0  0  0
   36.0140   31.4900   50.8390 H   0  0  0  0  0  0  0  0  0  0  0  0
   37.0330   33.6720   50.9870 H   0  0  0  0  0  0  0  0  0  0  0  0
   38.6400   34.4360   49.3200 H   0  0  0  0  0  0  0  0  0  0  0  0
   39.2420   33.0170   47.4920 H   0  0  0  0  0  0  0  0  0  0  0  0
   36.4380   29.6000   48.9820 C   0  0  2  0  0  0  0  0  0  0  0  0
   36.9630   29.0760   48.0930 H   0  0  0  0  0  0  0  0  0  0  0  0
   33.5850   30.0730   46.7830 C   0  0  0  0  0  0  0  0  0  0  0  0
   32.8830   28.8870   46.8830 C   0  0  0  0  0  0  0  0  0  0  0  0
   33.3510   27.9280   47.7610 C   0  0  0  0  0  0  0  0  0  0  0  0
   34.4870   28.1810   48.4990 N   0  0  0  0  0  0  0  0  0  0  0  0
   35.1130   29.3330   48.3550 C   0  0  0  0  0  0  0  0  0  0  0  0
   34.6690   30.2850   47.5040 N   0  0  0  0  0  0  0  0  0  0  0  0
   33.1810   30.7940   46.0840 H   0  0  0  0  0  0  0  0  0  0  0  0
   31.9940   28.5930   46.3560 H   0  0  0  0  0  0  0  0  0  0  0  0
   32.9100   26.9590   47.9460 H   0  0  0  0  0  0  0  0  0  0  0  0
   36.8810   28.8180   49.9030 O   0  0  0  0  0  0  0  0  0  0  0  0
   36.4000   28.0270   50.2070 H   0  0  0  0  0  0  0  0  0  0  0  0
   38.3150   30.4900   47.0230 C   0  0  0  0  0  3  0  0  0  0  0  0
   39.0040   30.9310   45.9650 C   0  0  0  0  0  3  0  0  0  0  0  0
   39.5080   30.1610   44.8060 C   0  0  0  0  0  0  0  0  0  0  0  0
   40.3640   29.5520   45.1610 H   0  0  0  0  0  0  0  0  0  0  0  0
   38.7320   29.4610   44.4050 H   0  0  0  0  0  0  0  0  0  0  0  0
   40.0860   31.2910   43.5340 S   0  0  0  0  0  0  0  0  0  0  0  0
   38.7420   32.4460   43.1660 C   0  0  1  0  0  3  0  0  0  0  0  0
   39.0430   33.3650   42.0170 C   0  0  0  0  0  3  0  0  0  0  0  0
   39.8790   33.0150   41.3670 H   0  0  0  0  0  0  0  0  0  0  0  0
   37.7280   33.4520   41.3160 C   0  0  0  0  0  3  0  0  0  0  0  0
   37.1840   34.3810   41.5920 H   0  0  0  0  0  0  0  0  0  0  0  0
   36.9400   32.3900   41.6670 O   0  0  0  0  0  0  0  0  0  0  0  0
   37.5710   31.6540   42.6330 C   0  0  0  0  0  3  0  0  0  0  0  0
   37.9300   30.6640   42.2270 H   0  0  0  0  0  0  0  0  0  0  0  0
  1  2  1  0  0  0  0
  2  3  2  0  0  0  0
  2  7  1  0  0  0  0
  3  8  1  0  0  0  0
  4  9  1  0  0  0  0
  4  3  1  0  0  0  0
  5  4  2  0  0  0  0
  6  5  1  0  0  0  0
  6  1  2  0  0  0  0
 10  5  1  0  0  0  0
 11 12  1  6  0  0  0
 11  1  1  0  0  0  0
 11 22  1  0  0  0  0
 13 14  2  0  0  0  0
 13 18  1  0  0  0  0
 14 15  1  0  0  0  0
 15 21  1  0  0  0  0
 15 16  2  0  0  0  0
 17 16  1  0  0  0  0
 17 11  1  0  0  0  0
 18 17  2  0  0  0  0
 19 13  1  0  0  0  0
 20 14  1  0  0  0  0
 22 23  1  0  0  0  0
 24  6  1  0  0  0  0
 25 24  2  0  0  0  0
 26 27  1  0  0  0  0
 26 25  1  0  0  0  0
 28 26  1  0  0  0  0
 29 26  1  0  0  0  0
 30 29  1  6  0  0  0
 31 30  1  0  0  0  0
 32 31  1  0  0  0  0
 33 34  1  0  0  0  0
 33 35  1  0  0  0  0
 33 31  1  0  0  0  0
 35 36  1  0  0  0  0
 36 30  1  0  0  0  0
 37 36  1  0  0  0  0
M  END
>  <minimizedAffinity>
-5.5972538

>  <minimizedRMSD>
1.05944216

$$$$
