
 OpenBabel03272506413D

 18 19  0  0  1  0  0  0  0  0999 V2000
   37.3170   30.2520   51.2860 C   0  0  0  0  0  0  0  0  0  0  0  0
   38.1110   30.8940   50.3120 C   0  0  0  0  0  0  0  0  0  0  0  0
   37.8480   30.6450   48.9600 C   0  0  0  0  0  0  0  0  0  0  0  0
   36.8370   29.7920   48.6540 N   0  0  0  0  0  0  0  0  0  0  0  0
   36.0890   29.1880   49.5960 C   0  0  0  0  0  0  0  0  0  0  0  0
   36.3350   29.4220   50.8970 N   0  0  0  0  0  0  0  0  0  0  0  0
   37.5530   30.4700   52.3100 H   0  0  0  0  0  0  0  0  0  0  0  0
   38.9250   31.5780   50.5320 H   0  0  0  0  0  0  0  0  0  0  0  0
   38.4120   31.0990   48.1630 H   0  0  0  0  0  0  0  0  0  0  0  0
   34.7640   28.0680   49.1920 S   0  0  0  0  0  0  0  0  0  0  0  0
   33.6650   28.8710   48.0360 C   0  0  2  0  0  3  0  0  0  0  0  0
   32.3220   28.1450   47.8840 C   0  0  0  0  0  3  0  0  0  0  0  0
   31.6090   28.3990   48.6800 H   0  0  0  0  0  0  0  0  0  0  0  0
   31.9350   28.8000   46.5500 C   0  0  0  0  0  3  0  0  0  0  0  0
   32.0290   29.8860   46.7260 H   0  0  0  0  0  0  0  0  0  0  0  0
   33.0660   28.4280   45.8080 O   0  0  0  0  0  0  0  0  0  0  0  0
   34.1500   28.7550   46.5990 C   0  0  0  0  0  3  0  0  0  0  0  0
   34.5430   29.7200   46.2140 H   0  0  0  0  0  0  0  0  0  0  0  0
  1  7  1  0  0  0  0
  2  8  1  0  0  0  0
  2  1  2  0  0  0  0
  3  2  1  0  0  0  0
  4  3  2  0  0  0  0
  4  5  1  0  0  0  0
  5  6  2  0  0  0  0
  6  1  1  0  0  0  0
  9  3  1  0  0  0  0
 10  5  1  0  0  0  0
 11 10  1  1  0  0  0
 12 11  1  0  0  0  0
 12 13  1  0  0  0  0
 14 15  1  0  0  0  0
 14 12  1  0  0  0  0
 16 14  1  0  0  0  0
 16 17  1  0  0  0  0
 17 11  1  0  0  0  0
 18 17  1  0  0  0  0
M  END
>  <minimizedAffinity>
-3.58206439

>  <minimizedRMSD>
1.57750332

$$$$
