
 OpenBabel03272507263D

 36 38  0  0  1  0  0  0  0  0999 V2000
   37.0770   29.9770   48.8510 C   0  0  0  0  0  0  0  0  0  0  0  0
   38.0690   30.5380   48.0030 C   0  0  0  0  0  0  0  0  0  0  0  0
   37.6640   30.9310   46.7120 C   0  0  0  0  0  0  0  0  0  0  0  0
   36.3720   30.7560   46.3570 N   0  0  0  0  0  0  0  0  0  0  0  0
   35.4630   30.2180   47.2020 C   0  0  0  0  0  0  0  0  0  0  0  0
   35.8230   29.8360   48.4330 N   0  0  0  0  0  0  0  0  0  0  0  0
   38.5840   31.4910   45.8180 N   0  0  0  0  0  0  0  0  0  0  0  0
   39.7690   32.2700   46.2190 C   0  0  0  0  0  0  0  0  0  0  0  0
   40.3190   32.8700   44.9720 C   0  0  0  0  0  0  0  0  0  0  0  0
   39.1690   32.7950   44.0270 C   0  0  0  0  0  0  0  0  0  0  0  0
   38.5890   31.4410   44.3890 C   0  0  2  0  0  0  0  0  0  0  0  0
   37.5310   29.7250   49.8020 H   0  0  0  0  0  0  0  0  0  0  0  0
   39.1050   30.6900   48.2530 H   0  0  0  0  0  0  0  0  0  0  0  0
   34.4340   30.0710   46.9380 H   0  0  0  0  0  0  0  0  0  0  0  0
   40.4910   31.6650   46.7890 H   0  0  0  0  0  0  0  0  0  0  0  0
   39.3560   33.0620   46.9030 H   0  0  0  0  0  0  0  0  0  0  0  0
   41.2780   32.4860   44.6160 H   0  0  0  0  0  0  0  0  0  0  0  0
   40.4910   33.9500   45.1660 H   0  0  0  0  0  0  0  0  0  0  0  0
   39.5730   32.7430   42.9930 H   0  0  0  0  0  0  0  0  0  0  0  0
   38.4520   33.6170   44.1750 H   0  0  0  0  0  0  0  0  0  0  0  0
   37.3150   31.1700   43.6910 C   0  0  0  0  0  0  0  0  0  0  0  0
   36.4900   32.2540   43.9330 F   0  0  0  0  0  0  0  0  0  0  0  0
   36.6370   30.0710   44.1150 F   0  0  0  0  0  0  0  0  0  0  0  0
   37.5900   31.1770   42.3430 F   0  0  0  0  0  0  0  0  0  0  0  0
   39.5650   30.3700   44.0330 C   0  0  0  0  0  0  0  0  0  0  0  0
   40.5270   30.4600   44.5880 H   0  0  0  0  0  0  0  0  0  0  0  0
   39.8600   30.5840   42.9640 H   0  0  0  0  0  0  0  0  0  0  0  0
   39.0080   29.2870   44.1970 O   0  0  0  0  0  0  0  0  0  0  0  0
   39.4340   28.3330   43.2790 C   0  0  1  0  0  3  0  0  0  0  0  0
   38.3850   27.8410   42.3400 C   0  0  0  0  0  3  0  0  0  0  0  0
   37.8180   28.7180   41.9350 H   0  0  0  0  0  0  0  0  0  0  0  0
   39.2660   27.3070   41.2270 C   0  0  0  0  0  3  0  0  0  0  0  0
   39.3550   26.2120   41.3870 H   0  0  0  0  0  0  0  0  0  0  0  0
   40.5280   27.8550   41.3750 O   0  0  0  0  0  0  0  0  0  0  0  0
   40.4290   28.9090   42.2710 C   0  0  0  0  0  3  0  0  0  0  0  0
   40.0440   29.7870   41.7370 H   0  0  0  0  0  0  0  0  0  0  0  0
  1 12  1  0  0  0  0
  2 13  1  0  0  0  0
  2  1  2  0  0  0  0
  3  2  1  0  0  0  0
  4  3  2  0  0  0  0
  4  5  1  0  0  0  0
  5  6  2  0  0  0  0
  6  1  1  0  0  0  0
  7  8  1  0  0  0  0
  7  3  1  0  0  0  0
  8 15  1  0  0  0  0
  8 16  1  0  0  0  0
  9 18  1  0  0  0  0
  9  8  1  0  0  0  0
 10 20  1  0  0  0  0
 10 11  1  0  0  0  0
 10  9  1  0  0  0  0
 11 21  1  6  0  0  0
 11  7  1  0  0  0  0
 14  5  1  0  0  0  0
 17  9  1  0  0  0  0
 19 10  1  0  0  0  0
 21 22  1  0  0  0  0
 21 23  1  0  0  0  0
 24 21  1  0  0  0  0
 25 28  1  0  0  0  0
 25 11  1  0  0  0  0
 25 26  1  0  0  0  0
 27 25  1  0  0  0  0
 29 28  1  1  0  0  0
 30 29  1  0  0  0  0
 31 30  1  0  0  0  0
 32 34  1  0  0  0  0
 32 33  1  0  0  0  0
 32 30  1  0  0  0  0
 34 35  1  0  0  0  0
 35 29  1  0  0  0  0
 36 35  1  0  0  0  0
M  END
>  <minimizedAffinity>
-4.60022163

>  <minimizedRMSD>
1.17881119

$$$$
