
 OpenBabel03272503433D

 40 43  0  0  1  0  0  0  0  0999 V2000
   36.4190   28.0400   33.7220 C   0  0  0  0  0  0  0  0  0  0  0  0
   35.8890   28.4350   32.5260 C   0  0  0  0  0  0  0  0  0  0  0  0
   35.4100   29.7320   32.7700 C   0  0  0  0  0  0  0  0  0  0  0  0
   35.6570   30.0560   34.0450 N   0  0  0  0  0  0  0  0  0  0  0  0
   36.2710   29.0270   34.6250 N   0  0  0  0  0  0  0  0  0  0  0  0
   35.8290   27.9090   31.5810 H   0  0  0  0  0  0  0  0  0  0  0  0
   34.9290   30.3070   31.9880 H   0  0  0  0  0  0  0  0  0  0  0  0
   33.8070   31.3480   34.9660 C   0  0  2  0  0  0  0  0  0  0  0  0
   35.2860   31.3280   34.6120 C   0  0  1  0  0  0  0  0  0  0  0  0
   35.8490   31.5300   36.0040 C   0  0  0  0  0  0  0  0  0  0  0  0
   35.0030   32.3830   36.6710 O   0  0  0  0  0  0  0  0  0  0  0  0
   33.8380   32.5120   35.9800 C   0  0  0  0  0  0  0  0  0  0  0  0
   33.1420   31.5990   34.1530 H   0  0  0  0  0  0  0  0  0  0  0  0
   35.5860   32.1560   33.9760 H   0  0  0  0  0  0  0  0  0  0  0  0
   35.7920   30.5540   36.5500 H   0  0  0  0  0  0  0  0  0  0  0  0
   36.8640   31.9380   35.9800 H   0  0  0  0  0  0  0  0  0  0  0  0
   32.9240   32.3950   36.6090 H   0  0  0  0  0  0  0  0  0  0  0  0
   33.7990   33.4720   35.4130 H   0  0  0  0  0  0  0  0  0  0  0  0
   33.5240   30.1840   35.6420 O   0  0  0  0  0  0  0  0  0  0  0  0
   32.2960   29.6540   35.4590 C   0  0  1  0  0  3  0  0  0  0  0  0
   31.9920   29.1100   34.0830 C   0  0  0  0  0  3  0  0  0  0  0  0
   32.7520   28.3930   33.7390 H   0  0  0  0  0  0  0  0  0  0  0  0
   30.7300   28.3360   34.4240 C   0  0  0  0  0  3  0  0  0  0  0  0
   29.9000   29.0950   34.4110 H   0  0  0  0  0  0  0  0  0  0  0  0
   30.8510   27.8770   35.7090 O   0  0  0  0  0  0  0  0  0  0  0  0
   31.9500   28.4640   36.2970 C   0  0  0  0  0  3  0  0  0  0  0  0
   32.7360   27.7010   36.3510 H   0  0  0  0  0  0  0  0  0  0  0  0
   38.1870   25.1660   35.3650 C   0  0  0  0  0  0  0  0  0  0  0  0
   37.6070   26.3980   35.1780 C   0  0  0  0  0  0  0  0  0  0  0  0
   37.0430   26.7530   33.9710 C   0  0  0  0  0  0  0  0  0  0  0  0
   37.0890   25.8350   32.9860 N   0  0  0  0  0  0  0  0  0  0  0  0
   37.6660   24.6120   33.1760 C   0  0  0  0  0  0  0  0  0  0  0  0
   38.2040   24.2750   34.3300 N   0  0  0  0  0  0  0  0  0  0  0  0
   37.5490   27.1750   35.9550 H   0  0  0  0  0  0  0  0  0  0  0  0
   37.6740   23.9070   32.3430 H   0  0  0  0  0  0  0  0  0  0  0  0
   38.7040   24.9750   36.6340 O   0  0  0  0  0  0  0  0  0  0  0  0
   38.1110   24.1410   37.6050 C   0  0  0  0  0  0  0  0  0  0  0  0
   36.9240   23.5950   37.1260 F   0  0  0  0  0  0  0  0  0  0  0  0
   37.8960   24.8740   38.7460 F   0  0  0  0  0  0  0  0  0  0  0  0
   39.0030   23.1360   37.9050 F   0  0  0  0  0  0  0  0  0  0  0  0
  1 30  1  0  0  0  0
  1  5  2  0  0  0  0
  2  3  2  0  0  0  0
  2  1  1  0  0  0  0
  3  4  1  0  0  0  0
  4  9  1  0  0  0  0
  4  5  1  0  0  0  0
  6  2  1  0  0  0  0
  7  3  1  0  0  0  0
  8 13  1  6  0  0  0
  8 19  1  0  0  0  0
  8 12  1  0  0  0  0
  9 14  1  6  0  0  0
  9  8  1  0  0  0  0
  9 10  1  0  0  0  0
 10 15  1  0  0  0  0
 10 11  1  0  0  0  0
 12 17  1  0  0  0  0
 12 11  1  0  0  0  0
 16 10  1  0  0  0  0
 18 12  1  0  0  0  0
 20 19  1  6  0  0  0
 20 26  1  0  0  0  0
 21 23  1  0  0  0  0
 21 20  1  0  0  0  0
 22 21  1  0  0  0  0
 23 25  1  0  0  0  0
 24 23  1  0  0  0  0
 25 26  1  0  0  0  0
 26 27  1  0  0  0  0
 28 36  1  0  0  0  0
 29 28  1  0  0  0  0
 29 34  1  0  0  0  0
 30 29  2  0  0  0  0
 31 32  2  0  0  0  0
 31 30  1  0  0  0  0
 32 33  1  0  0  0  0
 33 28  2  0  0  0  0
 35 32  1  0  0  0  0
 36 37  1  0  0  0  0
 37 40  1  0  0  0  0
 37 39  1  0  0  0  0
 38 37  1  0  0  0  0
M  END
>  <minimizedAffinity>
-5.64313269

$$$$

 OpenBabel03272503433D

 40 43  0  0  1  0  0  0  0  0999 V2000
   37.0220   26.8920   33.3330 C   0  0  0  0  0  0  0  0  0  0  0  0
   37.3250   26.0870   32.2700 C   0  0  0  0  0  0  0  0  0  0  0  0
   37.8010   24.9030   32.8560 C   0  0  0  0  0  0  0  0  0  0  0  0
   37.7700   25.0320   34.1880 N   0  0  0  0  0  0  0  0  0  0  0  0
   37.2950   26.2410   34.4790 N   0  0  0  0  0  0  0  0  0  0  0  0
   37.2370   26.2720   31.2060 H   0  0  0  0  0  0  0  0  0  0  0  0
   38.1230   24.0680   32.2460 H   0  0  0  0  0  0  0  0  0  0  0  0
   39.7140   23.9130   35.1410 C   0  0  2  0  0  0  0  0  0  0  0  0
   38.1960   23.9850   35.0830 C   0  0  1  0  0  0  0  0  0  0  0  0
   37.9350   24.3210   36.5360 C   0  0  0  0  0  0  0  0  0  0  0  0
   38.8640   23.6460   37.2900 O   0  0  0  0  0  0  0  0  0  0  0  0
   39.8480   23.1620   36.4830 C   0  0  0  0  0  0  0  0  0  0  0  0
   40.1780   23.3320   34.3580 H   0  0  0  0  0  0  0  0  0  0  0  0
   37.7300   23.0340   34.8410 H   0  0  0  0  0  0  0  0  0  0  0  0
   38.1510   25.4100   36.6880 H   0  0  0  0  0  0  0  0  0  0  0  0
   36.9210   24.0490   36.8450 H   0  0  0  0  0  0  0  0  0  0  0  0
   40.8800   23.3750   36.8510 H   0  0  0  0  0  0  0  0  0  0  0  0
   39.7220   22.0710   36.2880 H   0  0  0  0  0  0  0  0  0  0  0  0
   40.1870   25.1940   35.3050 O   0  0  0  0  0  0  0  0  0  0  0  0
   41.1450   25.6060   34.4490 C   0  0  1  0  0  3  0  0  0  0  0  0
   41.0570   27.0380   33.9730 C   0  0  0  0  0  3  0  0  0  0  0  0
   40.9820   27.7520   34.8060 H   0  0  0  0  0  0  0  0  0  0  0  0
   42.4460   27.1570   33.3690 C   0  0  0  0  0  3  0  0  0  0  0  0
   42.3650   26.7110   32.3400 H   0  0  0  0  0  0  0  0  0  0  0  0
   43.2930   26.3650   34.0990 O   0  0  0  0  0  0  0  0  0  0  0  0
   42.5510   25.5830   34.9580 C   0  0  0  0  0  3  0  0  0  0  0  0
   42.6790   25.9970   35.9650 H   0  0  0  0  0  0  0  0  0  0  0  0
   35.3960   30.1770   34.1320 C   0  0  0  0  0  0  0  0  0  0  0  0
   35.8860   28.9020   34.2790 C   0  0  0  0  0  0  0  0  0  0  0  0
   36.4880   28.2380   33.2310 C   0  0  0  0  0  0  0  0  0  0  0  0
   36.5700   28.8990   32.0600 N   0  0  0  0  0  0  0  0  0  0  0  0
   36.0820   30.1660   31.9190 C   0  0  0  0  0  0  0  0  0  0  0  0
   35.5080   30.7990   32.9210 N   0  0  0  0  0  0  0  0  0  0  0  0
   35.8380   28.3280   35.2160 H   0  0  0  0  0  0  0  0  0  0  0  0
   36.1770   30.6540   30.9480 H   0  0  0  0  0  0  0  0  0  0  0  0
   34.8240   30.6950   35.2810 O   0  0  0  0  0  0  0  0  0  0  0  0
   35.3780   31.7590   36.0230 C   0  0  0  0  0  0  0  0  0  0  0  0
   34.8620   31.7780   37.3160 F   0  0  0  0  0  0  0  0  0  0  0  0
   35.1170   32.9370   35.3680 F   0  0  0  0  0  0  0  0  0  0  0  0
   36.7420   31.5850   36.0640 F   0  0  0  0  0  0  0  0  0  0  0  0
  1  5  2  0  0  0  0
  2  3  2  0  0  0  0
  2  1  1  0  0  0  0
  3  4  1  0  0  0  0
  4  5  1  0  0  0  0
  4  9  1  0  0  0  0
  6  2  1  0  0  0  0
  7  3  1  0  0  0  0
  8 13  1  6  0  0  0
  8 19  1  0  0  0  0
  8 12  1  0  0  0  0
  9 14  1  6  0  0  0
  9  8  1  0  0  0  0
  9 10  1  0  0  0  0
 10 15  1  0  0  0  0
 10 16  1  0  0  0  0
 10 11  1  0  0  0  0
 12 17  1  0  0  0  0
 12 11  1  0  0  0  0
 18 12  1  0  0  0  0
 20 26  1  0  0  0  0
 20 19  1  1  0  0  0
 21 20  1  0  0  0  0
 21 22  1  0  0  0  0
 23 21  1  0  0  0  0
 23 25  1  0  0  0  0
 24 23  1  0  0  0  0
 25 26  1  0  0  0  0
 26 27  1  0  0  0  0
 28 29  1  0  0  0  0
 28 36  1  0  0  0  0
 29 34  1  0  0  0  0
 30  1  1  0  0  0  0
 30 29  2  0  0  0  0
 31 30  1  0  0  0  0
 32 31  2  0  0  0  0
 32 33  1  0  0  0  0
 33 28  2  0  0  0  0
 35 32  1  0  0  0  0
 36 37  1  0  0  0  0
 37 40  1  0  0  0  0
 37 38  1  0  0  0  0
 39 37  1  0  0  0  0
M  END
>  <minimizedAffinity>
-5.5782218

$$$$

 OpenBabel03272503433D

 40 43  0  0  1  0  0  0  0  0999 V2000
   34.7930   29.3590   32.6150 C   0  0  0  0  0  0  0  0  0  0  0  0
   35.9750   29.9270   32.2280 C   0  0  0  0  0  0  0  0  0  0  0  0
   36.6400   28.9040   31.5320 C   0  0  0  0  0  0  0  0  0  0  0  0
   35.8700   27.8080   31.5260 N   0  0  0  0  0  0  0  0  0  0  0  0
   34.7470   28.0840   32.1850 N   0  0  0  0  0  0  0  0  0  0  0  0
   36.3570   30.9270   32.3930 H   0  0  0  0  0  0  0  0  0  0  0  0
   37.6200   29.0670   31.1010 H   0  0  0  0  0  0  0  0  0  0  0  0
   37.3040   25.8480   31.7320 C   0  0  2  0  0  0  0  0  0  0  0  0
   36.2700   26.5790   30.8890 C   0  0  1  0  0  0  0  0  0  0  0  0
   35.1790   25.5280   30.9180 C   0  0  0  0  0  0  0  0  0  0  0  0
   35.7900   24.2980   30.8860 O   0  0  0  0  0  0  0  0  0  0  0  0
   37.1210   24.4380   31.1310 C   0  0  0  0  0  0  0  0  0  0  0  0
   38.3250   26.1690   31.5880 H   0  0  0  0  0  0  0  0  0  0  0  0
   36.5890   26.7410   29.8640 H   0  0  0  0  0  0  0  0  0  0  0  0
   34.6630   25.5880   31.9100 H   0  0  0  0  0  0  0  0  0  0  0  0
   34.4850   25.6340   30.0780 H   0  0  0  0  0  0  0  0  0  0  0  0
   37.5170   23.7270   31.8940 H   0  0  0  0  0  0  0  0  0  0  0  0
   37.7220   24.3760   30.1930 H   0  0  0  0  0  0  0  0  0  0  0  0
   36.8510   25.8350   33.0300 O   0  0  0  0  0  0  0  0  0  0  0  0
   37.7300   26.1960   33.9880 C   0  0  1  0  0  3  0  0  0  0  0  0
   37.3550   27.3890   34.8370 C   0  0  0  0  0  3  0  0  0  0  0  0
   36.3540   27.2870   35.2820 H   0  0  0  0  0  0  0  0  0  0  0  0
   38.3850   27.2100   35.9390 C   0  0  0  0  0  3  0  0  0  0  0  0
   39.3310   27.6700   35.5430 H   0  0  0  0  0  0  0  0  0  0  0  0
   38.6100   25.8670   36.0920 O   0  0  0  0  0  0  0  0  0  0  0  0
   38.0060   25.1870   35.0570 C   0  0  0  0  0  3  0  0  0  0  0  0
   37.1130   24.7000   35.4660 H   0  0  0  0  0  0  0  0  0  0  0  0
   32.9900   31.6200   35.0060 C   0  0  0  0  0  0  0  0  0  0  0  0
   34.0080   31.0100   34.3140 C   0  0  0  0  0  0  0  0  0  0  0  0
   33.7550   30.0340   33.3730 C   0  0  0  0  0  0  0  0  0  0  0  0
   32.4640   29.7090   33.1670 N   0  0  0  0  0  0  0  0  0  0  0  0
   31.4550   30.3180   33.8580 C   0  0  0  0  0  0  0  0  0  0  0  0
   31.6990   31.2500   34.7550 N   0  0  0  0  0  0  0  0  0  0  0  0
   35.0740   31.2450   34.4520 H   0  0  0  0  0  0  0  0  0  0  0  0
   30.4280   30.0160   33.6490 H   0  0  0  0  0  0  0  0  0  0  0  0
   33.4190   32.5750   35.9110 O   0  0  0  0  0  0  0  0  0  0  0  0
   33.7620   32.2900   37.2490 C   0  0  0  0  0  0  0  0  0  0  0  0
   32.9600   31.2710   37.7560 F   0  0  0  0  0  0  0  0  0  0  0  0
   33.6350   33.4370   37.9920 F   0  0  0  0  0  0  0  0  0  0  0  0
   35.0830   31.9060   37.2780 F   0  0  0  0  0  0  0  0  0  0  0  0
  1 30  1  0  0  0  0
  2  6  1  0  0  0  0
  2  1  1  0  0  0  0
  3  2  2  0  0  0  0
  4  3  1  0  0  0  0
  4  5  1  0  0  0  0
  5  1  2  0  0  0  0
  7  3  1  0  0  0  0
  8 13  1  6  0  0  0
  8 19  1  0  0  0  0
  9 14  1  6  0  0  0
  9 10  1  0  0  0  0
  9  4  1  0  0  0  0
  9  8  1  0  0  0  0
 10 15  1  0  0  0  0
 11 10  1  0  0  0  0
 11 12  1  0  0  0  0
 12  8  1  0  0  0  0
 12 17  1  0  0  0  0
 16 10  1  0  0  0  0
 18 12  1  0  0  0  0
 20 19  1  6  0  0  0
 20 21  1  0  0  0  0
 20 26  1  0  0  0  0
 21 22  1  0  0  0  0
 21 23  1  0  0  0  0
 23 25  1  0  0  0  0
 24 23  1  0  0  0  0
 26 27  1  0  0  0  0
 26 25  1  0  0  0  0
 28 36  1  0  0  0  0
 29 34  1  0  0  0  0
 29 28  2  0  0  0  0
 30 29  1  0  0  0  0
 31 30  2  0  0  0  0
 31 32  1  0  0  0  0
 32 33  2  0  0  0  0
 33 28  1  0  0  0  0
 35 32  1  0  0  0  0
 36 37  1  0  0  0  0
 37 40  1  0  0  0  0
 37 38  1  0  0  0  0
 37 39  1  0  0  0  0
M  END
>  <minimizedAffinity>
-5.57541418

$$$$

 OpenBabel03272503433D

 40 43  0  0  1  0  0  0  0  0999 V2000
   35.8770   29.0140   31.6190 C   0  0  0  0  0  0  0  0  0  0  0  0
   37.0270   29.1480   30.8910 C   0  0  0  0  0  0  0  0  0  0  0  0
   37.3890   27.8300   30.5690 C   0  0  0  0  0  0  0  0  0  0  0  0
   36.4870   26.9890   31.0910 N   0  0  0  0  0  0  0  0  0  0  0  0
   35.5670   27.7090   31.7290 N   0  0  0  0  0  0  0  0  0  0  0  0
   37.5710   30.0390   30.6020 H   0  0  0  0  0  0  0  0  0  0  0  0
   38.2770   27.6220   29.9860 H   0  0  0  0  0  0  0  0  0  0  0  0
   37.3720   24.9440   32.0770 C   0  0  2  0  0  0  0  0  0  0  0  0
   36.5750   25.5590   30.9370 C   0  0  1  0  0  0  0  0  0  0  0  0
   35.2530   24.8650   31.1930 C   0  0  0  0  0  0  0  0  0  0  0  0
   35.5320   23.5930   31.6310 O   0  0  0  0  0  0  0  0  0  0  0  0
   36.8500   23.4960   31.9560 C   0  0  0  0  0  0  0  0  0  0  0  0
   38.4440   24.9500   31.9460 H   0  0  0  0  0  0  0  0  0  0  0  0
   36.9460   25.2810   29.9560 H   0  0  0  0  0  0  0  0  0  0  0  0
   34.7480   25.3790   32.0500 H   0  0  0  0  0  0  0  0  0  0  0  0
   34.6260   24.8330   30.2960 H   0  0  0  0  0  0  0  0  0  0  0  0
   37.0370   23.0190   32.9470 H   0  0  0  0  0  0  0  0  0  0  0  0
   37.4350   22.9790   31.1590 H   0  0  0  0  0  0  0  0  0  0  0  0
   36.9040   25.4830   33.2520 O   0  0  0  0  0  0  0  0  0  0  0  0
   37.8270   25.9010   34.1440 C   0  0  1  0  0  3  0  0  0  0  0  0
   37.7550   27.3520   34.5620 C   0  0  0  0  0  3  0  0  0  0  0  0
   36.7530   27.6360   34.9160 H   0  0  0  0  0  0  0  0  0  0  0  0
   38.6810   27.2820   35.7650 C   0  0  0  0  0  3  0  0  0  0  0  0
   39.7220   27.3550   35.3470 H   0  0  0  0  0  0  0  0  0  0  0  0
   38.5480   26.0400   36.3290 O   0  0  0  0  0  0  0  0  0  0  0  0
   37.8100   25.2380   35.4850 C   0  0  0  0  0  3  0  0  0  0  0  0
   36.8130   25.1310   35.9280 H   0  0  0  0  0  0  0  0  0  0  0  0
   34.3090   31.4380   34.0160 C   0  0  0  0  0  0  0  0  0  0  0  0
   35.0440   30.3830   33.5320 C   0  0  0  0  0  0  0  0  0  0  0  0
   35.1160   30.1150   32.1810 C   0  0  0  0  0  0  0  0  0  0  0  0
   34.4310   30.9360   31.3620 N   0  0  0  0  0  0  0  0  0  0  0  0
   33.7010   31.9840   31.8480 C   0  0  0  0  0  0  0  0  0  0  0  0
   33.6350   32.2380   33.1380 N   0  0  0  0  0  0  0  0  0  0  0  0
   35.6170   29.6890   34.1660 H   0  0  0  0  0  0  0  0  0  0  0  0
   33.1670   32.6170   31.1380 H   0  0  0  0  0  0  0  0  0  0  0  0
   34.3450   31.5630   35.3940 O   0  0  0  0  0  0  0  0  0  0  0  0
   35.4550   32.0600   36.1080 C   0  0  0  0  0  0  0  0  0  0  0  0
   35.0750   32.4750   37.3810 F   0  0  0  0  0  0  0  0  0  0  0  0
   36.0130   33.0930   35.3950 F   0  0  0  0  0  0  0  0  0  0  0  0
   36.3880   31.0530   36.2020 F   0  0  0  0  0  0  0  0  0  0  0  0
  1  5  2  0  0  0  0
  1 30  1  0  0  0  0
  2  1  1  0  0  0  0
  3  2  2  0  0  0  0
  3  4  1  0  0  0  0
  4  5  1  0  0  0  0
  6  2  1  0  0  0  0
  7  3  1  0  0  0  0
  8 13  1  6  0  0  0
  8 19  1  0  0  0  0
  9 14  1  6  0  0  0
  9  4  1  0  0  0  0
  9 10  1  0  0  0  0
  9  8  1  0  0  0  0
 10 11  1  0  0  0  0
 10 15  1  0  0  0  0
 11 12  1  0  0  0  0
 12  8  1  0  0  0  0
 12 17  1  0  0  0  0
 16 10  1  0  0  0  0
 18 12  1  0  0  0  0
 20 19  1  6  0  0  0
 20 21  1  0  0  0  0
 20 26  1  0  0  0  0
 21 22  1  0  0  0  0
 21 23  1  0  0  0  0
 23 25  1  0  0  0  0
 24 23  1  0  0  0  0
 26 27  1  0  0  0  0
 26 25  1  0  0  0  0
 28 36  1  0  0  0  0
 29 28  1  0  0  0  0
 29 34  1  0  0  0  0
 30 29  2  0  0  0  0
 31 32  2  0  0  0  0
 31 30  1  0  0  0  0
 32 33  1  0  0  0  0
 33 28  2  0  0  0  0
 35 32  1  0  0  0  0
 36 37  1  0  0  0  0
 37 40  1  0  0  0  0
 37 38  1  0  0  0  0
 39 37  1  0  0  0  0
M  END
>  <minimizedAffinity>
-5.51537228

$$$$

 OpenBabel03272503433D

 40 43  0  0  1  0  0  0  0  0999 V2000
   37.8530   26.9830   33.2580 C   0  0  0  0  0  0  0  0  0  0  0  0
   38.3470   27.5670   32.1240 C   0  0  0  0  0  0  0  0  0  0  0  0
   37.2730   28.3240   31.6280 C   0  0  0  0  0  0  0  0  0  0  0  0
   36.2200   28.1750   32.4420 N   0  0  0  0  0  0  0  0  0  0  0  0
   36.5720   27.3600   33.4330 N   0  0  0  0  0  0  0  0  0  0  0  0
   39.3290   27.4950   31.6730 H   0  0  0  0  0  0  0  0  0  0  0  0
   37.3730   28.9060   30.7200 H   0  0  0  0  0  0  0  0  0  0  0  0
   34.5520   29.6640   33.4120 C   0  0  2  0  0  0  0  0  0  0  0  0
   34.9560   28.8260   32.2080 C   0  0  1  0  0  0  0  0  0  0  0  0
   35.0570   29.9410   31.1870 C   0  0  0  0  0  0  0  0  0  0  0  0
   34.0680   30.8510   31.4710 O   0  0  0  0  0  0  0  0  0  0  0  0
   33.5480   30.5980   32.7030 C   0  0  0  0  0  0  0  0  0  0  0  0
   34.0450   29.1250   34.1980 H   0  0  0  0  0  0  0  0  0  0  0  0
   34.1910   28.1210   31.8990 H   0  0  0  0  0  0  0  0  0  0  0  0
   36.0250   30.4800   31.3520 H   0  0  0  0  0  0  0  0  0  0  0  0
   34.9540   29.5700   30.1630 H   0  0  0  0  0  0  0  0  0  0  0  0
   33.4610   31.5010   33.3510 H   0  0  0  0  0  0  0  0  0  0  0  0
   32.5670   30.0720   32.6370 H   0  0  0  0  0  0  0  0  0  0  0  0
   35.6470   30.4020   33.7920 O   0  0  0  0  0  0  0  0  0  0  0  0
   35.4110   31.5200   34.5110 C   0  0  1  0  0  3  0  0  0  0  0  0
   35.5310   31.3970   36.0130 C   0  0  0  0  0  3  0  0  0  0  0  0
   36.4930   30.9630   36.3220 H   0  0  0  0  0  0  0  0  0  0  0  0
   35.5450   32.8770   36.3570 C   0  0  0  0  0  3  0  0  0  0  0  0
   34.4660   33.1910   36.3730 H   0  0  0  0  0  0  0  0  0  0  0  0
   36.1550   33.5430   35.3260 O   0  0  0  0  0  0  0  0  0  0  0  0
   36.3260   32.6780   34.2670 C   0  0  0  0  0  3  0  0  0  0  0  0
   37.3900   32.4180   34.2290 H   0  0  0  0  0  0  0  0  0  0  0  0
   38.7640   24.4280   35.8500 C   0  0  0  0  0  0  0  0  0  0  0  0
   38.0120   25.2500   35.0460 C   0  0  0  0  0  0  0  0  0  0  0  0
   38.6000   26.0960   34.1300 C   0  0  0  0  0  0  0  0  0  0  0  0
   39.9460   26.0760   34.0630 N   0  0  0  0  0  0  0  0  0  0  0  0
   40.6890   25.2570   34.8640 C   0  0  0  0  0  0  0  0  0  0  0  0
   40.1250   24.4510   35.7380 N   0  0  0  0  0  0  0  0  0  0  0  0
   36.9120   25.2970   35.0700 H   0  0  0  0  0  0  0  0  0  0  0  0
   41.7760   25.2830   34.7660 H   0  0  0  0  0  0  0  0  0  0  0  0
   38.0140   23.6460   36.7120 O   0  0  0  0  0  0  0  0  0  0  0  0
   38.1510   23.6720   38.1160 C   0  0  0  0  0  0  0  0  0  0  0  0
   37.1680   22.8930   38.7190 F   0  0  0  0  0  0  0  0  0  0  0  0
   38.0840   24.9740   38.5430 F   0  0  0  0  0  0  0  0  0  0  0  0
   39.3980   23.1820   38.4310 F   0  0  0  0  0  0  0  0  0  0  0  0
  1  5  2  0  0  0  0
  1 30  1  0  0  0  0
  2  1  1  0  0  0  0
  3  2  2  0  0  0  0
  3  4  1  0  0  0  0
  4  5  1  0  0  0  0
  6  2  1  0  0  0  0
  7  3  1  0  0  0  0
  8 19  1  0  0  0  0
  8 13  1  1  0  0  0
  9 14  1  6  0  0  0
  9  4  1  0  0  0  0
  9  8  1  0  0  0  0
 10 15  1  0  0  0  0
 10 11  1  0  0  0  0
 10  9  1  0  0  0  0
 11 12  1  0  0  0  0
 12 17  1  0  0  0  0
 12  8  1  0  0  0  0
 16 10  1  0  0  0  0
 18 12  1  0  0  0  0
 20 19  1  6  0  0  0
 20 21  1  0  0  0  0
 21 22  1  0  0  0  0
 21 23  1  0  0  0  0
 23 24  1  0  0  0  0
 25 23  1  0  0  0  0
 26 20  1  0  0  0  0
 26 25  1  0  0  0  0
 27 26  1  0  0  0  0
 28 36  1  0  0  0  0
 29 34  1  0  0  0  0
 29 28  2  0  0  0  0
 30 29  1  0  0  0  0
 31 30  2  0  0  0  0
 31 32  1  0  0  0  0
 32 33  2  0  0  0  0
 33 28  1  0  0  0  0
 35 32  1  0  0  0  0
 36 37  1  0  0  0  0
 37 40  1  0  0  0  0
 37 39  1  0  0  0  0
 37 38  1  0  0  0  0
M  END
>  <minimizedAffinity>
-5.448843

$$$$

 OpenBabel03272503433D

 40 43  0  0  1  0  0  0  0  0999 V2000
   35.1180   30.3560   34.7330 C   0  0  0  0  0  0  0  0  0  0  0  0
   35.6840   31.0800   35.7450 C   0  0  0  0  0  0  0  0  0  0  0  0
   34.6880   31.9970   36.1150 C   0  0  0  0  0  0  0  0  0  0  0  0
   33.6070   31.8020   35.3480 N   0  0  0  0  0  0  0  0  0  0  0  0
   33.8690   30.8030   34.5070 N   0  0  0  0  0  0  0  0  0  0  0  0
   36.6680   31.0040   36.1940 H   0  0  0  0  0  0  0  0  0  0  0  0
   34.8550   32.7150   36.9090 H   0  0  0  0  0  0  0  0  0  0  0  0
   31.1860   31.6850   35.6040 C   0  0  2  0  0  0  0  0  0  0  0  0
   32.4060   32.5860   35.4790 C   0  0  1  0  0  0  0  0  0  0  0  0
   32.3080   33.2790   36.8220 C   0  0  0  0  0  0  0  0  0  0  0  0
   30.9740   33.4530   37.1010 O   0  0  0  0  0  0  0  0  0  0  0  0
   30.2230   32.7060   36.2460 C   0  0  0  0  0  0  0  0  0  0  0  0
   30.7710   31.3390   34.6690 H   0  0  0  0  0  0  0  0  0  0  0  0
   32.3160   33.3210   34.6850 H   0  0  0  0  0  0  0  0  0  0  0  0
   32.6940   32.5780   37.6060 H   0  0  0  0  0  0  0  0  0  0  0  0
   32.8300   34.2400   36.8270 H   0  0  0  0  0  0  0  0  0  0  0  0
   29.4300   32.1040   36.7490 H   0  0  0  0  0  0  0  0  0  0  0  0
   29.7800   33.3290   35.4330 H   0  0  0  0  0  0  0  0  0  0  0  0
   31.4790   30.7140   36.5320 O   0  0  0  0  0  0  0  0  0  0  0  0
   30.9130   29.5030   36.3490 C   0  0  1  0  0  3  0  0  0  0  0  0
   30.7370   29.0470   34.9190 C   0  0  0  0  0  3  0  0  0  0  0  0
   31.6740   29.1010   34.3440 H   0  0  0  0  0  0  0  0  0  0  0  0
   30.4290   27.5840   35.1880 C   0  0  0  0  0  3  0  0  0  0  0  0
   29.3330   27.5480   35.4340 H   0  0  0  0  0  0  0  0  0  0  0  0
   31.1190   27.2070   36.3110 O   0  0  0  0  0  0  0  0  0  0  0  0
   31.6500   28.3280   36.9120 C   0  0  0  0  0  3  0  0  0  0  0  0
   32.7270   28.3260   36.7090 H   0  0  0  0  0  0  0  0  0  0  0  0
   37.0440   27.2400   33.9200 C   0  0  0  0  0  0  0  0  0  0  0  0
   36.4420   28.2420   34.6410 C   0  0  0  0  0  0  0  0  0  0  0  0
   35.7710   29.2740   34.0190 C   0  0  0  0  0  0  0  0  0  0  0  0
   35.7370   29.2500   32.6720 N   0  0  0  0  0  0  0  0  0  0  0  0
   36.3370   28.2520   31.9590 C   0  0  0  0  0  0  0  0  0  0  0  0
   36.9760   27.2670   32.5560 N   0  0  0  0  0  0  0  0  0  0  0  0
   36.4470   28.2990   35.7400 H   0  0  0  0  0  0  0  0  0  0  0  0
   36.2770   28.2830   30.8700 H   0  0  0  0  0  0  0  0  0  0  0  0
   37.6730   26.2860   34.7010 O   0  0  0  0  0  0  0  0  0  0  0  0
   38.8170   26.5420   35.4850 C   0  0  0  0  0  0  0  0  0  0  0  0
   38.4560   27.0600   36.7260 F   0  0  0  0  0  0  0  0  0  0  0  0
   39.6340   27.4100   34.8050 F   0  0  0  0  0  0  0  0  0  0  0  0
   39.4950   25.3570   35.6500 F   0  0  0  0  0  0  0  0  0  0  0  0
  1  2  1  0  0  0  0
  2  3  2  0  0  0  0
  2  6  1  0  0  0  0
  3  7  1  0  0  0  0
  4  9  1  0  0  0  0
  4  3  1  0  0  0  0
  5  1  2  0  0  0  0
  5  4  1  0  0  0  0
  8 13  1  6  0  0  0
  8 12  1  0  0  0  0
  8 19  1  0  0  0  0
  9 14  1  6  0  0  0
  9  8  1  0  0  0  0
  9 10  1  0  0  0  0
 10 16  1  0  0  0  0
 10 11  1  0  0  0  0
 10 15  1  0  0  0  0
 12 17  1  0  0  0  0
 12 11  1  0  0  0  0
 18 12  1  0  0  0  0
 20 19  1  6  0  0  0
 20 26  1  0  0  0  0
 21 23  1  0  0  0  0
 21 20  1  0  0  0  0
 22 21  1  0  0  0  0
 23 24  1  0  0  0  0
 23 25  1  0  0  0  0
 25 26  1  0  0  0  0
 27 26  1  0  0  0  0
 28 29  1  0  0  0  0
 28 36  1  0  0  0  0
 29 34  1  0  0  0  0
 30 29  2  0  0  0  0
 30  1  1  0  0  0  0
 31 30  1  0  0  0  0
 32 33  1  0  0  0  0
 32 31  2  0  0  0  0
 33 28  2  0  0  0  0
 35 32  1  0  0  0  0
 36 37  1  0  0  0  0
 37 40  1  0  0  0  0
 37 38  1  0  0  0  0
 39 37  1  0  0  0  0
M  END
>  <minimizedAffinity>
-5.41197062

$$$$

 OpenBabel03272503433D

 40 43  0  0  1  0  0  0  0  0999 V2000
   39.1460   22.7190   35.0290 C   0  0  0  0  0  0  0  0  0  0  0  0
   39.9310   22.6710   36.1480 C   0  0  0  0  0  0  0  0  0  0  0  0
   41.0250   23.4960   35.8410 C   0  0  0  0  0  0  0  0  0  0  0  0
   40.8670   23.9880   34.6050 N   0  0  0  0  0  0  0  0  0  0  0  0
   39.7250   23.5160   34.1110 N   0  0  0  0  0  0  0  0  0  0  0  0
   39.7870   22.1370   37.0800 H   0  0  0  0  0  0  0  0  0  0  0  0
   41.8250   23.6520   36.5540 H   0  0  0  0  0  0  0  0  0  0  0  0
   41.2280   26.2620   33.8060 C   0  0  2  0  0  0  0  0  0  0  0  0
   41.8230   24.8750   33.9910 C   0  0  1  0  0  0  0  0  0  0  0  0
   42.9560   25.2440   34.9260 C   0  0  0  0  0  0  0  0  0  0  0  0
   43.4240   26.4770   34.5410 O   0  0  0  0  0  0  0  0  0  0  0  0
   42.5470   27.0530   33.6740 C   0  0  0  0  0  0  0  0  0  0  0  0
   40.6390   26.3950   32.9100 H   0  0  0  0  0  0  0  0  0  0  0  0
   42.2300   24.4570   33.0760 H   0  0  0  0  0  0  0  0  0  0  0  0
   42.5320   25.3850   35.9520 H   0  0  0  0  0  0  0  0  0  0  0  0
   43.7630   24.5040   34.9050 H   0  0  0  0  0  0  0  0  0  0  0  0
   42.2960   28.1110   33.9200 H   0  0  0  0  0  0  0  0  0  0  0  0
   42.8980   26.9730   32.6180 H   0  0  0  0  0  0  0  0  0  0  0  0
   40.6200   26.6170   34.9870 O   0  0  0  0  0  0  0  0  0  0  0  0
   39.3550   27.0820   34.9080 C   0  0  1  0  0  3  0  0  0  0  0  0
   38.6770   26.9740   33.5620 C   0  0  0  0  0  3  0  0  0  0  0  0
   38.7150   25.9540   33.1550 H   0  0  0  0  0  0  0  0  0  0  0  0
   37.2520   27.2560   34.0080 C   0  0  0  0  0  3  0  0  0  0  0  0
   37.1710   28.3750   34.0660 H   0  0  0  0  0  0  0  0  0  0  0  0
   37.1020   26.7630   35.2780 O   0  0  0  0  0  0  0  0  0  0  0  0
   38.3380   26.4040   35.7710 C   0  0  0  0  0  3  0  0  0  0  0  0
   38.3870   25.3080   35.7580 H   0  0  0  0  0  0  0  0  0  0  0  0
   36.1840   20.9610   33.5410 C   0  0  0  0  0  0  0  0  0  0  0  0
   37.3830   21.6250   33.6440 C   0  0  0  0  0  0  0  0  0  0  0  0
   37.8870   22.0160   34.8660 C   0  0  0  0  0  0  0  0  0  0  0  0
   37.1480   21.7160   35.9520 N   0  0  0  0  0  0  0  0  0  0  0  0
   35.9570   21.0550   35.8450 C   0  0  0  0  0  0  0  0  0  0  0  0
   35.4780   20.6830   34.6760 N   0  0  0  0  0  0  0  0  0  0  0  0
   38.0160   21.8890   32.7830 H   0  0  0  0  0  0  0  0  0  0  0  0
   35.4010   20.8380   36.7580 H   0  0  0  0  0  0  0  0  0  0  0  0
   35.8280   20.6440   32.2420 O   0  0  0  0  0  0  0  0  0  0  0  0
   35.4800   19.3440   31.8190 C   0  0  0  0  0  0  0  0  0  0  0  0
   36.0910   18.3850   32.6220 F   0  0  0  0  0  0  0  0  0  0  0  0
   35.8450   19.1940   30.5040 F   0  0  0  0  0  0  0  0  0  0  0  0
   34.1120   19.2210   31.9000 F   0  0  0  0  0  0  0  0  0  0  0  0
  1  2  1  0  0  0  0
  2  6  1  0  0  0  0
  3  2  2  0  0  0  0
  3  7  1  0  0  0  0
  4  3  1  0  0  0  0
  5  4  1  0  0  0  0
  5  1  2  0  0  0  0
  8 13  1  6  0  0  0
  8  9  1  0  0  0  0
  8 19  1  0  0  0  0
  9 14  1  6  0  0  0
  9  4  1  0  0  0  0
  9 10  1  0  0  0  0
 10 15  1  0  0  0  0
 11 10  1  0  0  0  0
 12  8  1  0  0  0  0
 12 17  1  0  0  0  0
 12 11  1  0  0  0  0
 16 10  1  0  0  0  0
 18 12  1  0  0  0  0
 20 19  1  6  0  0  0
 20 26  1  0  0  0  0
 21 23  1  0  0  0  0
 21 20  1  0  0  0  0
 22 21  1  0  0  0  0
 23 24  1  0  0  0  0
 23 25  1  0  0  0  0
 25 26  1  0  0  0  0
 27 26  1  0  0  0  0
 28 29  2  0  0  0  0
 28 33  1  0  0  0  0
 29 30  1  0  0  0  0
 30  1  1  0  0  0  0
 30 31  2  0  0  0  0
 32 31  1  0  0  0  0
 32 35  1  0  0  0  0
 33 32  2  0  0  0  0
 34 29  1  0  0  0  0
 36 28  1  0  0  0  0
 37 40  1  0  0  0  0
 37 36  1  0  0  0  0
 37 38  1  0  0  0  0
 39 37  1  0  0  0  0
M  END
>  <minimizedAffinity>
-5.3937192

$$$$

 OpenBabel03272503433D

 40 43  0  0  1  0  0  0  0  0999 V2000
   39.1580   25.6200   34.4810 C   0  0  0  0  0  0  0  0  0  0  0  0
   40.1110   26.5890   34.3280 C   0  0  0  0  0  0  0  0  0  0  0  0
   39.8540   27.1310   33.0590 C   0  0  0  0  0  0  0  0  0  0  0  0
   38.8040   26.4990   32.5180 N   0  0  0  0  0  0  0  0  0  0  0  0
   38.3810   25.5800   33.3830 N   0  0  0  0  0  0  0  0  0  0  0  0
   40.9010   26.9030   35.0000 H   0  0  0  0  0  0  0  0  0  0  0  0
   40.4620   27.9340   32.6610 H   0  0  0  0  0  0  0  0  0  0  0  0
   36.9460   27.5330   31.3280 C   0  0  2  0  0  0  0  0  0  0  0  0
   38.2870   26.8240   31.2130 C   0  0  1  0  0  0  0  0  0  0  0  0
   39.0660   27.9340   30.5390 C   0  0  0  0  0  0  0  0  0  0  0  0
   38.2100   28.5750   29.6770 O   0  0  0  0  0  0  0  0  0  0  0  0
   36.9270   28.1980   29.9360 C   0  0  0  0  0  0  0  0  0  0  0  0
   36.0880   26.8840   31.4260 H   0  0  0  0  0  0  0  0  0  0  0  0
   38.2570   25.9550   30.5630 H   0  0  0  0  0  0  0  0  0  0  0  0
   39.3410   28.6910   31.3160 H   0  0  0  0  0  0  0  0  0  0  0  0
   39.9390   27.5520   29.9990 H   0  0  0  0  0  0  0  0  0  0  0  0
   36.2130   29.0510   30.0130 H   0  0  0  0  0  0  0  0  0  0  0  0
   36.5600   27.4490   29.1940 H   0  0  0  0  0  0  0  0  0  0  0  0
   37.0740   28.5150   32.2820 O   0  0  0  0  0  0  0  0  0  0  0  0
   35.9340   29.0020   32.8150 C   0  0  1  0  0  3  0  0  0  0  0  0
   35.7830   28.8830   34.3150 C   0  0  0  0  0  3  0  0  0  0  0  0
   36.6440   29.3010   34.8560 H   0  0  0  0  0  0  0  0  0  0  0  0
   34.6060   29.8270   34.4950 C   0  0  0  0  0  3  0  0  0  0  0  0
   33.6920   29.2160   34.2590 H   0  0  0  0  0  0  0  0  0  0  0  0
   34.7040   30.8100   33.5440 O   0  0  0  0  0  0  0  0  0  0  0  0
   35.6850   30.4670   32.6400 C   0  0  0  0  0  3  0  0  0  0  0  0
   36.5530   31.1040   32.8450 H   0  0  0  0  0  0  0  0  0  0  0  0
   39.5400   22.8260   36.9560 C   0  0  0  0  0  0  0  0  0  0  0  0
   39.7100   23.5950   35.8310 C   0  0  0  0  0  0  0  0  0  0  0  0
   39.0140   24.7710   35.6500 C   0  0  0  0  0  0  0  0  0  0  0  0
   38.1610   25.1280   36.6290 N   0  0  0  0  0  0  0  0  0  0  0  0
   37.9940   24.3600   37.7470 C   0  0  0  0  0  0  0  0  0  0  0  0
   38.6600   23.2370   37.9170 N   0  0  0  0  0  0  0  0  0  0  0  0
   40.3960   23.3400   35.0080 H   0  0  0  0  0  0  0  0  0  0  0  0
   37.2890   24.6980   38.5080 H   0  0  0  0  0  0  0  0  0  0  0  0
   40.3140   21.6790   36.9760 O   0  0  0  0  0  0  0  0  0  0  0  0
   41.7250   21.6850   37.0110 C   0  0  0  0  0  0  0  0  0  0  0  0
   42.2040   22.9650   37.2720 F   0  0  0  0  0  0  0  0  0  0  0  0
   42.1990   21.2120   35.8130 F   0  0  0  0  0  0  0  0  0  0  0  0
   42.1300   20.8210   38.0020 F   0  0  0  0  0  0  0  0  0  0  0  0
  1 30  1  0  0  0  0
  2  1  1  0  0  0  0
  2  6  1  0  0  0  0
  3  2  2  0  0  0  0
  4  3  1  0  0  0  0
  4  5  1  0  0  0  0
  5  1  2  0  0  0  0
  7  3  1  0  0  0  0
  8 13  1  1  0  0  0
  8 19  1  0  0  0  0
  9 14  1  6  0  0  0
  9  8  1  0  0  0  0
  9  4  1  0  0  0  0
 10  9  1  0  0  0  0
 10 15  1  0  0  0  0
 11 12  1  0  0  0  0
 11 10  1  0  0  0  0
 12 17  1  0  0  0  0
 12  8  1  0  0  0  0
 16 10  1  0  0  0  0
 18 12  1  0  0  0  0
 20 19  1  1  0  0  0
 20 21  1  0  0  0  0
 21 23  1  0  0  0  0
 21 22  1  0  0  0  0
 24 23  1  0  0  0  0
 25 23  1  0  0  0  0
 26 20  1  0  0  0  0
 26 27  1  0  0  0  0
 26 25  1  0  0  0  0
 28 36  1  0  0  0  0
 28 33  1  0  0  0  0
 29 28  2  0  0  0  0
 30 29  1  0  0  0  0
 30 31  2  0  0  0  0
 31 32  1  0  0  0  0
 32 33  2  0  0  0  0
 32 35  1  0  0  0  0
 34 29  1  0  0  0  0
 36 37  1  0  0  0  0
 37 38  1  0  0  0  0
 37 40  1  0  0  0  0
 39 37  1  0  0  0  0
M  END
>  <minimizedAffinity>
-5.38761854

$$$$

 OpenBabel03272503433D

 40 43  0  0  1  0  0  0  0  0999 V2000
   39.0930   25.4080   32.8900 C   0  0  0  0  0  0  0  0  0  0  0  0
   40.1750   26.2370   33.0000 C   0  0  0  0  0  0  0  0  0  0  0  0
   40.0930   27.0680   31.8710 C   0  0  0  0  0  0  0  0  0  0  0  0
   39.0150   26.7250   31.1540 N   0  0  0  0  0  0  0  0  0  0  0  0
   38.4060   25.7160   31.7740 N   0  0  0  0  0  0  0  0  0  0  0  0
   40.9450   26.2840   33.7610 H   0  0  0  0  0  0  0  0  0  0  0  0
   40.8320   27.8390   31.6890 H   0  0  0  0  0  0  0  0  0  0  0  0
   37.3540   28.1690   30.1070 C   0  0  2  0  0  0  0  0  0  0  0  0
   38.6490   27.3910   29.9300 C   0  0  1  0  0  0  0  0  0  0  0  0
   39.5630   28.5540   29.6060 C   0  0  0  0  0  0  0  0  0  0  0  0
   38.8390   29.4530   28.8600 O   0  0  0  0  0  0  0  0  0  0  0  0
   37.5150   29.1400   28.9190 C   0  0  0  0  0  0  0  0  0  0  0  0
   36.4490   27.5930   29.9790 H   0  0  0  0  0  0  0  0  0  0  0  0
   38.6250   26.7040   29.0890 H   0  0  0  0  0  0  0  0  0  0  0  0
   39.8110   29.0810   30.5620 H   0  0  0  0  0  0  0  0  0  0  0  0
   40.4560   28.2350   29.0600 H   0  0  0  0  0  0  0  0  0  0  0  0
   36.8550   30.0110   29.1430 H   0  0  0  0  0  0  0  0  0  0  0  0
   37.1720   28.6210   27.9930 H   0  0  0  0  0  0  0  0  0  0  0  0
   37.4540   28.8840   31.2770 O   0  0  0  0  0  0  0  0  0  0  0  0
   36.3270   29.0270   32.0050 C   0  0  1  0  0  3  0  0  0  0  0  0
   36.3510   28.4660   33.4080 C   0  0  0  0  0  3  0  0  0  0  0  0
   37.2080   28.8320   33.9910 H   0  0  0  0  0  0  0  0  0  0  0  0
   35.0950   29.1370   33.9380 C   0  0  0  0  0  3  0  0  0  0  0  0
   34.2410   28.4920   33.5920 H   0  0  0  0  0  0  0  0  0  0  0  0
   34.9730   30.3530   33.3170 O   0  0  0  0  0  0  0  0  0  0  0  0
   35.8870   30.4290   32.2890 C   0  0  0  0  0  3  0  0  0  0  0  0
   36.6890   31.1010   32.6170 H   0  0  0  0  0  0  0  0  0  0  0  0
   37.9320   23.5810   35.9540 C   0  0  0  0  0  0  0  0  0  0  0  0
   38.2440   24.6070   35.0950 C   0  0  0  0  0  0  0  0  0  0  0  0
   38.7470   24.3620   33.8350 C   0  0  0  0  0  0  0  0  0  0  0  0
   38.9170   23.0710   33.4890 N   0  0  0  0  0  0  0  0  0  0  0  0
   38.6040   22.0550   34.3460 C   0  0  0  0  0  0  0  0  0  0  0  0
   38.1240   22.2910   35.5490 N   0  0  0  0  0  0  0  0  0  0  0  0
   38.1220   25.6730   35.3380 H   0  0  0  0  0  0  0  0  0  0  0  0
   38.7610   21.0280   34.0120 H   0  0  0  0  0  0  0  0  0  0  0  0
   37.4390   24.0020   37.1770 O   0  0  0  0  0  0  0  0  0  0  0  0
   38.0770   23.7490   38.4090 C   0  0  0  0  0  0  0  0  0  0  0  0
   37.4520   22.7020   39.0800 F   0  0  0  0  0  0  0  0  0  0  0  0
   38.0610   24.8990   39.1590 F   0  0  0  0  0  0  0  0  0  0  0  0
   39.3890   23.4250   38.1510 F   0  0  0  0  0  0  0  0  0  0  0  0
  1  2  1  0  0  0  0
  1 30  1  0  0  0  0
  2  6  1  0  0  0  0
  3  2  2  0  0  0  0
  4  5  1  0  0  0  0
  4  3  1  0  0  0  0
  5  1  2  0  0  0  0
  7  3  1  0  0  0  0
  8 13  1  6  0  0  0
  8 19  1  0  0  0  0
  9 14  1  6  0  0  0
  9  8  1  0  0  0  0
  9  4  1  0  0  0  0
 10  9  1  0  0  0  0
 10 15  1  0  0  0  0
 11 12  1  0  0  0  0
 11 10  1  0  0  0  0
 12 17  1  0  0  0  0
 12  8  1  0  0  0  0
 16 10  1  0  0  0  0
 18 12  1  0  0  0  0
 20 19  1  1  0  0  0
 20 26  1  0  0  0  0
 20 21  1  0  0  0  0
 21 23  1  0  0  0  0
 21 22  1  0  0  0  0
 24 23  1  0  0  0  0
 25 23  1  0  0  0  0
 26 27  1  0  0  0  0
 26 25  1  0  0  0  0
 28 36  1  0  0  0  0
 29 34  1  0  0  0  0
 29 28  2  0  0  0  0
 30 29  1  0  0  0  0
 31 30  2  0  0  0  0
 31 32  1  0  0  0  0
 32 33  2  0  0  0  0
 33 28  1  0  0  0  0
 35 32  1  0  0  0  0
 36 37  1  0  0  0  0
 37 38  1  0  0  0  0
 37 39  1  0  0  0  0
 40 37  1  0  0  0  0
M  END
>  <minimizedAffinity>
-5.30922651

$$$$
