
 OpenBabel03262521533D

 22 23  0  0  1  0  0  0  0  0999 V2000
   37.3820   21.9730   33.8880 C   0  0  0  0  0  0  0  0  0  0  0  0
   37.3770   20.8650   34.0650 H   0  0  0  0  0  0  0  0  0  0  0  0
   36.4110   22.3760   34.2910 H   0  0  0  0  0  0  0  0  0  0  0  0
   37.4720   22.4060   32.1580 S   0  0  0  0  0  0  0  0  0  0  0  0
   36.7460   24.0030   31.9080 C   0  0  0  0  0  0  0  0  0  0  0  0
   35.5920   24.0000   31.1320 C   0  0  0  0  0  0  0  0  0  0  0  0
   34.9570   25.2290   30.8870 C   0  0  0  0  0  0  0  0  0  0  0  0
   35.5150   26.3690   31.4310 N   0  0  0  0  0  0  0  0  0  0  0  0
   36.6280   26.3060   32.1710 C   0  0  0  0  0  0  0  0  0  0  0  0
   37.2370   25.1440   32.4070 N   0  0  0  0  0  0  0  0  0  0  0  0
   35.0880   23.1830   30.6720 H   0  0  0  0  0  0  0  0  0  0  0  0
   34.0600   25.3220   30.2980 H   0  0  0  0  0  0  0  0  0  0  0  0
   37.0200   27.2320   32.5720 H   0  0  0  0  0  0  0  0  0  0  0  0
   38.7030   22.7200   34.8790 S   0  0  0  0  0  0  0  0  0  0  0  0
   38.3060   22.9140   36.5990 C   0  0  2  0  0  3  0  0  0  0  0  0
   37.7200   24.2590   36.9700 C   0  0  0  0  0  3  0  0  0  0  0  0
   36.6400   24.3040   36.7260 H   0  0  0  0  0  0  0  0  0  0  0  0
   37.9420   24.2130   38.4810 C   0  0  0  0  0  3  0  0  0  0  0  0
   37.8790   25.1970   38.9620 H   0  0  0  0  0  0  0  0  0  0  0  0
   39.1250   23.5360   38.6970 O   0  0  0  0  0  0  0  0  0  0  0  0
   39.4770   22.8530   37.5440 C   0  0  0  0  0  3  0  0  0  0  0  0
   40.3500   23.3520   37.1000 H   0  0  0  0  0  0  0  0  0  0  0  0
  1  2  1  0  0  0  0
  1  3  1  0  0  0  0
  1 14  1  0  0  0  0
  4  1  1  0  0  0  0
  5  4  1  0  0  0  0
  5 10  1  0  0  0  0
  6  5  2  0  0  0  0
  7  6  1  0  0  0  0
  7  8  2  0  0  0  0
  8  9  1  0  0  0  0
  9 10  2  0  0  0  0
  9 13  1  0  0  0  0
 11  6  1  0  0  0  0
 12  7  1  0  0  0  0
 15 14  1  6  0  0  0
 15 16  1  0  0  0  0
 15 21  1  0  0  0  0
 16 18  1  0  0  0  0
 17 16  1  0  0  0  0
 18 20  1  0  0  0  0
 18 19  1  0  0  0  0
 21 20  1  0  0  0  0
 22 21  1  0  0  0  0
M  END
>  <minimizedAffinity>
-3.86698651

$$$$

 OpenBabel03262521533D

 22 23  0  0  1  0  0  0  0  0999 V2000
   38.8400   26.7730   34.2800 C   0  0  0  0  0  0  0  0  0  0  0  0
   39.8530   26.2910   34.2570 H   0  0  0  0  0  0  0  0  0  0  0  0
   38.9840   27.8260   34.6500 H   0  0  0  0  0  0  0  0  0  0  0  0
   37.7030   25.9600   35.3910 S   0  0  0  0  0  0  0  0  0  0  0  0
   38.5540   24.6880   36.2840 C   0  0  0  0  0  0  0  0  0  0  0  0
   38.0220   24.4060   37.5380 C   0  0  0  0  0  0  0  0  0  0  0  0
   38.6420   23.4100   38.3110 C   0  0  0  0  0  0  0  0  0  0  0  0
   39.7440   22.7680   37.7810 N   0  0  0  0  0  0  0  0  0  0  0  0
   40.2080   23.0850   36.5650 C   0  0  0  0  0  0  0  0  0  0  0  0
   39.6260   24.0290   35.8270 N   0  0  0  0  0  0  0  0  0  0  0  0
   37.1850   24.8410   38.0320 H   0  0  0  0  0  0  0  0  0  0  0  0
   38.3010   23.1270   39.2920 H   0  0  0  0  0  0  0  0  0  0  0  0
   41.0740   22.5470   36.2010 H   0  0  0  0  0  0  0  0  0  0  0  0
   38.2130   26.9010   32.5850 S   0  0  0  0  0  0  0  0  0  0  0  0
   36.6890   26.0340   32.3020 C   0  0  2  0  0  3  0  0  0  0  0  0
   36.8470   24.5940   31.8620 C   0  0  0  0  0  3  0  0  0  0  0  0
   37.0500   23.9340   32.7280 H   0  0  0  0  0  0  0  0  0  0  0  0
   35.4450   24.3550   31.3050 C   0  0  0  0  0  3  0  0  0  0  0  0
   35.3800   23.4800   30.6460 H   0  0  0  0  0  0  0  0  0  0  0  0
   35.0260   25.5420   30.7360 O   0  0  0  0  0  0  0  0  0  0  0  0
   35.8370   26.5720   31.1830 C   0  0  0  0  0  3  0  0  0  0  0  0
   36.4700   26.9000   30.3470 H   0  0  0  0  0  0  0  0  0  0  0  0
  1  3  1  0  0  0  0
  1  4  1  0  0  0  0
  2  1  1  0  0  0  0
  4  5  1  0  0  0  0
  5  6  1  0  0  0  0
  6 11  1  0  0  0  0
  6  7  2  0  0  0  0
  7 12  1  0  0  0  0
  8  7  1  0  0  0  0
  9  8  2  0  0  0  0
 10  5  2  0  0  0  0
 10  9  1  0  0  0  0
 13  9  1  0  0  0  0
 14  1  1  0  0  0  0
 15 14  1  6  0  0  0
 16 15  1  0  0  0  0
 16 17  1  0  0  0  0
 18 16  1  0  0  0  0
 19 18  1  0  0  0  0
 20 21  1  0  0  0  0
 20 18  1  0  0  0  0
 21 15  1  0  0  0  0
 22 21  1  0  0  0  0
M  END
>  <minimizedAffinity>
-3.79584002

$$$$

 OpenBabel03262521533D

 22 23  0  0  1  0  0  0  0  0999 V2000
   38.5220   23.1600   33.2610 C   0  0  0  0  0  0  0  0  0  0  0  0
   39.4940   22.6960   32.9450 H   0  0  0  0  0  0  0  0  0  0  0  0
   38.0060   23.5170   32.3270 H   0  0  0  0  0  0  0  0  0  0  0  0
   38.7360   24.5710   34.3350 S   0  0  0  0  0  0  0  0  0  0  0  0
   38.8720   24.0220   36.0140 C   0  0  0  0  0  0  0  0  0  0  0  0
   37.8880   24.5140   36.8660 C   0  0  0  0  0  0  0  0  0  0  0  0
   37.9260   24.1260   38.2150 C   0  0  0  0  0  0  0  0  0  0  0  0
   38.9380   23.2770   38.6190 N   0  0  0  0  0  0  0  0  0  0  0  0
   39.8570   22.8370   37.7500 C   0  0  0  0  0  0  0  0  0  0  0  0
   39.8270   23.2010   36.4680 N   0  0  0  0  0  0  0  0  0  0  0  0
   37.0740   25.1670   36.6540 H   0  0  0  0  0  0  0  0  0  0  0  0
   37.2070   24.4580   38.9450 H   0  0  0  0  0  0  0  0  0  0  0  0
   40.6260   22.1730   38.1230 H   0  0  0  0  0  0  0  0  0  0  0  0
   37.4650   21.8740   33.9760 S   0  0  0  0  0  0  0  0  0  0  0  0
   36.1980   21.2770   32.8840 C   0  0  2  0  0  3  0  0  0  0  0  0
   35.5100   20.0080   33.3390 C   0  0  0  0  0  3  0  0  0  0  0  0
   34.7360   20.2260   34.1020 H   0  0  0  0  0  0  0  0  0  0  0  0
   34.8740   19.5880   32.0150 C   0  0  0  0  0  3  0  0  0  0  0  0
   34.5640   18.5360   31.9940 H   0  0  0  0  0  0  0  0  0  0  0  0
   35.7480   19.9550   31.0110 O   0  0  0  0  0  0  0  0  0  0  0  0
   36.6670   20.8620   31.5150 C   0  0  0  0  0  3  0  0  0  0  0  0
   37.6420   20.3610   31.5840 H   0  0  0  0  0  0  0  0  0  0  0  0
  1 14  1  0  0  0  0
  1  4  1  0  0  0  0
  2  1  1  0  0  0  0
  3  1  1  0  0  0  0
  4  5  1  0  0  0  0
  5 10  2  0  0  0  0
  5  6  1  0  0  0  0
  6  7  2  0  0  0  0
  7  8  1  0  0  0  0
  7 12  1  0  0  0  0
  9 13  1  0  0  0  0
  9  8  2  0  0  0  0
 10  9  1  0  0  0  0
 11  6  1  0  0  0  0
 15 16  1  0  0  0  0
 15 14  1  1  0  0  0
 16 17  1  0  0  0  0
 18 16  1  0  0  0  0
 19 18  1  0  0  0  0
 20 21  1  0  0  0  0
 20 18  1  0  0  0  0
 21 22  1  0  0  0  0
 21 15  1  0  0  0  0
M  END
>  <minimizedAffinity>
-3.79539609

$$$$

 OpenBabel03262521533D

 22 23  0  0  1  0  0  0  0  0999 V2000
   37.8270   22.3920   33.5210 C   0  0  0  0  0  0  0  0  0  0  0  0
   37.4610   21.6460   34.2740 H   0  0  0  0  0  0  0  0  0  0  0  0
   38.7510   21.9570   33.0480 H   0  0  0  0  0  0  0  0  0  0  0  0
   38.2780   23.9590   34.2490 S   0  0  0  0  0  0  0  0  0  0  0  0
   38.4830   23.7630   35.9970 C   0  0  0  0  0  0  0  0  0  0  0  0
   39.5910   23.0090   36.3700 C   0  0  0  0  0  0  0  0  0  0  0  0
   39.8230   22.8060   37.7400 C   0  0  0  0  0  0  0  0  0  0  0  0
   38.9370   23.3660   38.6390 N   0  0  0  0  0  0  0  0  0  0  0  0
   37.8880   24.0840   38.2180 C   0  0  0  0  0  0  0  0  0  0  0  0
   37.6620   24.2800   36.9190 N   0  0  0  0  0  0  0  0  0  0  0  0
   40.3260   22.5390   35.7590 H   0  0  0  0  0  0  0  0  0  0  0  0
   40.6540   22.2350   38.1190 H   0  0  0  0  0  0  0  0  0  0  0  0
   37.2280   24.5000   38.9680 H   0  0  0  0  0  0  0  0  0  0  0  0
   36.5950   22.5470   32.2020 S   0  0  0  0  0  0  0  0  0  0  0  0
   35.6870   21.0570   31.8700 C   0  0  2  0  0  3  0  0  0  0  0  0
   35.5100   20.1400   33.0620 C   0  0  0  0  0  3  0  0  0  0  0  0
   34.6840   20.4870   33.7120 H   0  0  0  0  0  0  0  0  0  0  0  0
   35.1300   18.8560   32.3260 C   0  0  0  0  0  3  0  0  0  0  0  0
   35.2390   17.9530   32.9390 H   0  0  0  0  0  0  0  0  0  0  0  0
   35.8370   18.8420   31.1410 O   0  0  0  0  0  0  0  0  0  0  0  0
   36.3280   20.1130   30.8880 C   0  0  0  0  0  3  0  0  0  0  0  0
   37.4170   20.0970   31.0320 H   0  0  0  0  0  0  0  0  0  0  0  0
  1  4  1  0  0  0  0
  1  2  1  0  0  0  0
  3  1  1  0  0  0  0
  4  5  1  0  0  0  0
  5  6  2  0  0  0  0
  5 10  1  0  0  0  0
  6  7  1  0  0  0  0
  7 12  1  0  0  0  0
  7  8  2  0  0  0  0
  9  8  1  0  0  0  0
  9 13  1  0  0  0  0
 10  9  2  0  0  0  0
 11  6  1  0  0  0  0
 14  1  1  0  0  0  0
 15 14  1  1  0  0  0
 15 16  1  0  0  0  0
 16 17  1  0  0  0  0
 18 19  1  0  0  0  0
 18 16  1  0  0  0  0
 20 18  1  0  0  0  0
 21 22  1  0  0  0  0
 21 20  1  0  0  0  0
 21 15  1  0  0  0  0
M  END
>  <minimizedAffinity>
-3.76912141

$$$$

 OpenBabel03262521533D

 22 23  0  0  1  0  0  0  0  0999 V2000
   40.4090   24.6560   34.3460 C   0  0  0  0  0  0  0  0  0  0  0  0
   41.2230   24.1150   34.8970 H   0  0  0  0  0  0  0  0  0  0  0  0
   40.6770   24.6300   33.2530 H   0  0  0  0  0  0  0  0  0  0  0  0
   40.2570   26.3690   34.8260 S   0  0  0  0  0  0  0  0  0  0  0  0
   38.7900   27.0570   34.1080 C   0  0  0  0  0  0  0  0  0  0  0  0
   37.8200   27.4400   35.0280 C   0  0  0  0  0  0  0  0  0  0  0  0
   36.6260   27.9930   34.5380 C   0  0  0  0  0  0  0  0  0  0  0  0
   36.4840   28.1260   33.1700 N   0  0  0  0  0  0  0  0  0  0  0  0
   37.4560   27.7390   32.3350 C   0  0  0  0  0  0  0  0  0  0  0  0
   38.5920   27.2130   32.7930 N   0  0  0  0  0  0  0  0  0  0  0  0
   37.8330   27.3790   36.0910 H   0  0  0  0  0  0  0  0  0  0  0  0
   35.8200   28.3160   35.1750 H   0  0  0  0  0  0  0  0  0  0  0  0
   37.2900   27.8690   31.2730 H   0  0  0  0  0  0  0  0  0  0  0  0
   38.8640   23.7260   34.5220 S   0  0  0  0  0  0  0  0  0  0  0  0
   38.4870   23.2430   36.1890 C   0  0  2  0  0  3  0  0  0  0  0  0
   37.7970   24.3040   37.0190 C   0  0  0  0  0  3  0  0  0  0  0  0
   36.7130   24.3430   36.7950 H   0  0  0  0  0  0  0  0  0  0  0  0
   38.0520   23.7280   38.4110 C   0  0  0  0  0  3  0  0  0  0  0  0
   37.9160   24.4590   39.2170 H   0  0  0  0  0  0  0  0  0  0  0  0
   39.2920   23.1230   38.3790 O   0  0  0  0  0  0  0  0  0  0  0  0
   39.6770   22.9410   37.0600 C   0  0  0  0  0  3  0  0  0  0  0  0
   40.4950   23.6400   36.8400 H   0  0  0  0  0  0  0  0  0  0  0  0
  1 14  1  0  0  0  0
  1  4  1  0  0  0  0
  1  2  1  0  0  0  0
  3  1  1  0  0  0  0
  5  4  1  0  0  0  0
  5  6  1  0  0  0  0
  6 11  1  0  0  0  0
  7  6  2  0  0  0  0
  7 12  1  0  0  0  0
  8  7  1  0  0  0  0
  9 10  1  0  0  0  0
  9  8  2  0  0  0  0
 10  5  2  0  0  0  0
 13  9  1  0  0  0  0
 15 14  1  6  0  0  0
 15 16  1  0  0  0  0
 15 21  1  0  0  0  0
 16 18  1  0  0  0  0
 17 16  1  0  0  0  0
 18 19  1  0  0  0  0
 20 18  1  0  0  0  0
 21 20  1  0  0  0  0
 22 21  1  0  0  0  0
M  END
>  <minimizedAffinity>
-3.65391207

$$$$

 OpenBabel03262521533D

 22 23  0  0  1  0  0  0  0  0999 V2000
   37.9350   24.0490   33.5410 C   0  0  0  0  0  0  0  0  0  0  0  0
   36.9420   24.1670   34.0500 H   0  0  0  0  0  0  0  0  0  0  0  0
   38.2830   25.0800   33.2520 H   0  0  0  0  0  0  0  0  0  0  0  0
   37.8460   23.0700   32.0500 S   0  0  0  0  0  0  0  0  0  0  0  0
   36.8170   21.6550   32.3310 C   0  0  0  0  0  0  0  0  0  0  0  0
   36.5540   20.8950   31.1960 C   0  0  0  0  0  0  0  0  0  0  0  0
   35.7440   19.7560   31.3360 C   0  0  0  0  0  0  0  0  0  0  0  0
   35.2550   19.4560   32.5920 N   0  0  0  0  0  0  0  0  0  0  0  0
   35.5450   20.2280   33.6470 C   0  0  0  0  0  0  0  0  0  0  0  0
   36.3130   21.3100   33.5230 N   0  0  0  0  0  0  0  0  0  0  0  0
   36.8810   21.0420   30.1940 H   0  0  0  0  0  0  0  0  0  0  0  0
   35.4880   19.1110   30.5130 H   0  0  0  0  0  0  0  0  0  0  0  0
   35.1340   19.9430   34.6080 H   0  0  0  0  0  0  0  0  0  0  0  0
   39.1370   23.4150   34.7400 S   0  0  0  0  0  0  0  0  0  0  0  0
   38.5130   23.2720   36.3960 C   0  0  2  0  0  3  0  0  0  0  0  0
   37.9500   24.5510   36.9770 C   0  0  0  0  0  3  0  0  0  0  0  0
   36.9190   24.7330   36.6150 H   0  0  0  0  0  0  0  0  0  0  0  0
   37.9540   24.1680   38.4570 C   0  0  0  0  0  3  0  0  0  0  0  0
   37.8750   25.0300   39.1310 H   0  0  0  0  0  0  0  0  0  0  0  0
   39.0590   23.3680   38.6660 O   0  0  0  0  0  0  0  0  0  0  0  0
   39.5340   22.9180   37.4440 C   0  0  0  0  0  3  0  0  0  0  0  0
   40.4850   23.4270   37.2360 H   0  0  0  0  0  0  0  0  0  0  0  0
  1  2  1  0  0  0  0
  1 14  1  0  0  0  0
  3  1  1  0  0  0  0
  4  5  1  0  0  0  0
  4  1  1  0  0  0  0
  5 10  1  0  0  0  0
  6  7  1  0  0  0  0
  6  5  2  0  0  0  0
  7  8  2  0  0  0  0
  8  9  1  0  0  0  0
  9 13  1  0  0  0  0
 10  9  2  0  0  0  0
 11  6  1  0  0  0  0
 12  7  1  0  0  0  0
 15 14  1  6  0  0  0
 15 16  1  0  0  0  0
 15 21  1  0  0  0  0
 16 18  1  0  0  0  0
 17 16  1  0  0  0  0
 18 20  1  0  0  0  0
 18 19  1  0  0  0  0
 21 20  1  0  0  0  0
 22 21  1  0  0  0  0
M  END
>  <minimizedAffinity>
-3.60370517

$$$$

 OpenBabel03262521533D

 22 23  0  0  1  0  0  0  0  0999 V2000
   37.7830   23.2720   33.1360 C   0  0  0  0  0  0  0  0  0  0  0  0
   36.8380   23.8720   33.2170 H   0  0  0  0  0  0  0  0  0  0  0  0
   37.8320   22.8720   32.0850 H   0  0  0  0  0  0  0  0  0  0  0  0
   37.8240   21.8760   34.2490 S   0  0  0  0  0  0  0  0  0  0  0  0
   38.4810   22.3850   35.8140 C   0  0  0  0  0  0  0  0  0  0  0  0
   37.5950   23.1070   36.6070 C   0  0  0  0  0  0  0  0  0  0  0  0
   38.0420   23.5490   37.8640 C   0  0  0  0  0  0  0  0  0  0  0  0
   39.3350   23.2410   38.2390 N   0  0  0  0  0  0  0  0  0  0  0  0
   40.1400   22.5420   37.4300 C   0  0  0  0  0  0  0  0  0  0  0  0
   39.7230   22.1190   36.2360 N   0  0  0  0  0  0  0  0  0  0  0  0
   36.5890   23.3930   36.4100 H   0  0  0  0  0  0  0  0  0  0  0  0
   37.4260   24.1140   38.5430 H   0  0  0  0  0  0  0  0  0  0  0  0
   41.1430   22.3290   37.7780 H   0  0  0  0  0  0  0  0  0  0  0  0
   39.2010   24.3830   33.3330 S   0  0  0  0  0  0  0  0  0  0  0  0
   38.7930   25.9800   33.9930 C   0  0  2  0  0  3  0  0  0  0  0  0
   39.3010   26.2390   35.3950 C   0  0  0  0  0  3  0  0  0  0  0  0
   40.3710   26.5280   35.3840 H   0  0  0  0  0  0  0  0  0  0  0  0
   38.4140   27.4280   35.7590 C   0  0  0  0  0  3  0  0  0  0  0  0
   38.3670   27.6240   36.8380 H   0  0  0  0  0  0  0  0  0  0  0  0
   37.1910   27.2230   35.1530 O   0  0  0  0  0  0  0  0  0  0  0  0
   37.3230   26.2480   34.1780 C   0  0  0  0  0  3  0  0  0  0  0  0
   36.8130   25.3390   34.5270 H   0  0  0  0  0  0  0  0  0  0  0  0
  1  2  1  0  0  0  0
  1 14  1  0  0  0  0
  1  4  1  0  0  0  0
  3  1  1  0  0  0  0
  4  5  1  0  0  0  0
  5 10  2  0  0  0  0
  5  6  1  0  0  0  0
  6  7  2  0  0  0  0
  7  8  1  0  0  0  0
  7 12  1  0  0  0  0
  9 13  1  0  0  0  0
  9  8  2  0  0  0  0
 10  9  1  0  0  0  0
 11  6  1  0  0  0  0
 15 14  1  1  0  0  0
 15 21  1  0  0  0  0
 15 16  1  0  0  0  0
 16 18  1  0  0  0  0
 17 16  1  0  0  0  0
 18 19  1  0  0  0  0
 20 18  1  0  0  0  0
 21 22  1  0  0  0  0
 21 20  1  0  0  0  0
M  END
>  <minimizedAffinity>
-3.58487868

$$$$

 OpenBabel03262521533D

 22 23  0  0  1  0  0  0  0  0999 V2000
   38.9350   23.1230   32.7950 C   0  0  0  0  0  0  0  0  0  0  0  0
   38.7100   22.8670   31.7260 H   0  0  0  0  0  0  0  0  0  0  0  0
   40.0530   23.0750   32.9180 H   0  0  0  0  0  0  0  0  0  0  0  0
   38.2130   21.9750   33.9580 S   0  0  0  0  0  0  0  0  0  0  0  0
   38.7420   22.3830   35.5990 C   0  0  0  0  0  0  0  0  0  0  0  0
   37.7940   23.0570   36.3620 C   0  0  0  0  0  0  0  0  0  0  0  0
   38.1370   23.4170   37.6750 C   0  0  0  0  0  0  0  0  0  0  0  0
   39.3960   23.0830   38.1340 N   0  0  0  0  0  0  0  0  0  0  0  0
   40.2650   22.4330   37.3500 C   0  0  0  0  0  0  0  0  0  0  0  0
   39.9470   22.0880   36.1020 N   0  0  0  0  0  0  0  0  0  0  0  0
   36.8060   23.3570   36.1030 H   0  0  0  0  0  0  0  0  0  0  0  0
   37.4670   23.9400   38.3370 H   0  0  0  0  0  0  0  0  0  0  0  0
   41.2370   22.1960   37.7620 H   0  0  0  0  0  0  0  0  0  0  0  0
   38.4540   24.8430   33.1000 S   0  0  0  0  0  0  0  0  0  0  0  0
   36.8350   25.2660   32.5050 C   0  0  2  0  0  3  0  0  0  0  0  0
   36.1880   24.2210   31.6220 C   0  0  0  0  0  3  0  0  0  0  0  0
   35.7410   23.4090   32.2290 H   0  0  0  0  0  0  0  0  0  0  0  0
   35.1050   25.0850   30.9770 C   0  0  0  0  0  3  0  0  0  0  0  0
   34.6800   24.6440   30.0660 H   0  0  0  0  0  0  0  0  0  0  0  0
   35.6350   26.3490   30.8170 O   0  0  0  0  0  0  0  0  0  0  0  0
   36.7720   26.4690   31.6010 C   0  0  0  0  0  3  0  0  0  0  0  0
   37.6470   26.4920   30.9370 H   0  0  0  0  0  0  0  0  0  0  0  0
  1  3  1  0  0  0  0
  1 14  1  0  0  0  0
  1  4  1  0  0  0  0
  2  1  1  0  0  0  0
  4  5  1  0  0  0  0
  5 10  2  0  0  0  0
  5  6  1  0  0  0  0
  6  7  2  0  0  0  0
  7  8  1  0  0  0  0
  7 12  1  0  0  0  0
  9 13  1  0  0  0  0
  9  8  2  0  0  0  0
 10  9  1  0  0  0  0
 11  6  1  0  0  0  0
 15 14  1  6  0  0  0
 16 17  1  0  0  0  0
 16 15  1  0  0  0  0
 18 16  1  0  0  0  0
 19 18  1  0  0  0  0
 20 18  1  0  0  0  0
 20 21  1  0  0  0  0
 21 15  1  0  0  0  0
 22 21  1  0  0  0  0
M  END
>  <minimizedAffinity>
-3.58159232

$$$$

 OpenBabel03262521533D

 22 23  0  0  1  0  0  0  0  0999 V2000
   39.3820   24.9090   33.5210 C   0  0  0  0  0  0  0  0  0  0  0  0
   39.4930   24.7510   32.4150 H   0  0  0  0  0  0  0  0  0  0  0  0
   40.3840   24.6980   33.9870 H   0  0  0  0  0  0  0  0  0  0  0  0
   38.1920   23.8070   34.2690 S   0  0  0  0  0  0  0  0  0  0  0  0
   38.5750   23.6020   35.9870 C   0  0  0  0  0  0  0  0  0  0  0  0
   37.7090   24.2600   36.8550 C   0  0  0  0  0  0  0  0  0  0  0  0
   37.9450   24.1470   38.2350 C   0  0  0  0  0  0  0  0  0  0  0  0
   39.0230   23.3910   38.6510 N   0  0  0  0  0  0  0  0  0  0  0  0
   39.8200   22.7800   37.7650 C   0  0  0  0  0  0  0  0  0  0  0  0
   39.6020   22.8820   36.4540 N   0  0  0  0  0  0  0  0  0  0  0  0
   36.8590   24.8620   36.6360 H   0  0  0  0  0  0  0  0  0  0  0  0
   37.3290   24.6230   38.9790 H   0  0  0  0  0  0  0  0  0  0  0  0
   40.6490   22.2000   38.1490 H   0  0  0  0  0  0  0  0  0  0  0  0
   39.0250   26.6590   33.8300 S   0  0  0  0  0  0  0  0  0  0  0  0
   37.3450   27.1320   33.5040 C   0  0  2  0  0  3  0  0  0  0  0  0
   37.1560   28.0110   32.2860 C   0  0  0  0  0  3  0  0  0  0  0  0
   37.1570   27.4090   31.3560 H   0  0  0  0  0  0  0  0  0  0  0  0
   35.7600   28.5510   32.5910 C   0  0  0  0  0  3  0  0  0  0  0  0
   35.5040   29.4490   32.0150 H   0  0  0  0  0  0  0  0  0  0  0  0
   35.6700   28.6950   33.9610 O   0  0  0  0  0  0  0  0  0  0  0  0
   36.6950   27.9820   34.5620 C   0  0  0  0  0  3  0  0  0  0  0  0
   37.4200   28.6990   34.9720 H   0  0  0  0  0  0  0  0  0  0  0  0
  1 14  1  0  0  0  0
  1  3  1  0  0  0  0
  1  4  1  0  0  0  0
  2  1  1  0  0  0  0
  4  5  1  0  0  0  0
  5 10  2  0  0  0  0
  5  6  1  0  0  0  0
  6  7  2  0  0  0  0
  7  8  1  0  0  0  0
  7 12  1  0  0  0  0
  9 13  1  0  0  0  0
  9  8  2  0  0  0  0
 10  9  1  0  0  0  0
 11  6  1  0  0  0  0
 15 14  1  1  0  0  0
 15 21  1  0  0  0  0
 16 18  1  0  0  0  0
 16 15  1  0  0  0  0
 17 16  1  0  0  0  0
 18 20  1  0  0  0  0
 19 18  1  0  0  0  0
 20 21  1  0  0  0  0
 21 22  1  0  0  0  0
M  END
>  <minimizedAffinity>
-3.57591081

$$$$
