
 OpenBabel03272507423D

 40 43  0  0  1  0  0  0  0  0999 V2000
   36.6430   32.1890   49.2160 O   0  0  0  0  0  0  0  0  0  0  0  0
   38.1720   32.1850   47.2580 C   0  0  0  0  0  0  0  0  0  0  0  0
   37.7710   32.6080   48.5100 C   0  0  0  0  0  0  0  0  0  0  0  0
   38.5180   33.5500   49.2080 C   0  0  0  0  0  0  0  0  0  0  0  0
   39.6730   34.0640   48.6340 C   0  0  0  0  0  0  0  0  0  0  0  0
   40.0690   33.6360   47.3800 C   0  0  0  0  0  0  0  0  0  0  0  0
   39.3020   32.7020   46.7220 C   0  0  0  0  0  0  0  0  0  0  0  0
   38.2810   33.9290   50.1740 H   0  0  0  0  0  0  0  0  0  0  0  0
   40.2820   34.8010   49.1470 H   0  0  0  0  0  0  0  0  0  0  0  0
   40.9530   34.0060   46.9000 H   0  0  0  0  0  0  0  0  0  0  0  0
   39.7380   32.2540   45.3800 C   0  0  0  0  0  0  0  0  0  0  0  0
   40.5710   31.2180   45.0310 C   0  0  0  0  0  0  0  0  0  0  0  0
   40.6550   31.2230   43.6410 C   0  0  0  0  0  0  0  0  0  0  0  0
   39.8630   32.2690   43.2280 C   0  0  0  0  0  0  0  0  0  0  0  0
   39.3300   32.8650   44.2790 O   0  0  0  0  0  0  0  0  0  0  0  0
   41.0440   30.5550   45.7540 H   0  0  0  0  0  0  0  0  0  0  0  0
   41.2450   30.5150   43.0700 H   0  0  0  0  0  0  0  0  0  0  0  0
   39.7120   32.5450   42.1870 H   0  0  0  0  0  0  0  0  0  0  0  0
   36.6930   30.4380   46.0850 N   0  0  0  0  0  0  0  0  0  0  0  0
   37.3480   31.2190   46.6180 C   0  0  0  0  0  0  0  0  0  0  0  0
   36.6280   31.1590   50.0930 C   0  0  0  0  0  0  0  0  0  0  0  0
   35.5660   30.2920   49.8610 C   0  0  0  0  0  0  0  0  0  0  0  0
   35.3770   29.1690   50.6570 C   0  0  0  0  0  0  0  0  0  0  0  0
   36.2750   28.9600   51.6680 N   0  0  0  0  0  0  0  0  0  0  0  0
   37.3040   29.8230   51.8740 C   0  0  0  0  0  0  0  0  0  0  0  0
   37.4650   30.8920   51.0970 N   0  0  0  0  0  0  0  0  0  0  0  0
   34.6010   28.4520   50.5610 H   0  0  0  0  0  0  0  0  0  0  0  0
   38.0160   29.6650   52.6690 H   0  0  0  0  0  0  0  0  0  0  0  0
   34.2140   29.2700   48.0990 C   0  0  0  0  0  0  0  0  0  0  0  0
   34.6310   28.0490   48.0700 O   0  0  0  0  0  0  0  0  0  0  0  0
   34.5960   30.4030   48.8660 N   0  0  0  0  0  0  0  0  0  0  0  0
   34.1050   31.2930   48.6260 H   0  0  0  0  0  0  0  0  0  0  0  0
   33.1080   29.3940   47.0770 C   0  0  1  0  0  3  0  0  0  0  0  0
   33.5510   29.0110   45.7060 C   0  0  0  0  0  3  0  0  0  0  0  0
   34.1980   28.0970   45.8090 H   0  0  0  0  0  0  0  0  0  0  0  0
   32.2300   28.6290   45.0810 C   0  0  0  0  0  3  0  0  0  0  0  0
   31.7710   29.5930   44.7150 H   0  0  0  0  0  0  0  0  0  0  0  0
   31.4280   28.1300   46.0940 O   0  0  0  0  0  0  0  0  0  0  0  0
   32.0160   28.3850   47.3140 C   0  0  0  0  0  3  0  0  0  0  0  0
   31.2440   28.7550   48.0300 H   0  0  0  0  0  0  0  0  0  0  0  0
  1 21  1  0  0  0  0
  2  3  1  0  0  0  0
  3  4  2  0  0  0  0
  3  1  1  0  0  0  0
  4  8  1  0  0  0  0
  5  9  1  0  0  0  0
  5  4  1  0  0  0  0
  6  5  2  0  0  0  0
  7  2  2  0  0  0  0
  7  6  1  0  0  0  0
 10  6  1  0  0  0  0
 11  7  1  0  0  0  0
 12 11  2  0  0  0  0
 12 16  1  0  0  0  0
 13 12  1  0  0  0  0
 14 13  2  0  0  0  0
 14 15  1  0  0  0  0
 15 11  1  0  0  0  0
 17 13  1  0  0  0  0
 18 14  1  0  0  0  0
 19 20  3  0  0  0  0
 20  2  1  0  0  0  0
 21 26  1  0  0  0  0
 22 21  2  0  0  0  0
 22 23  1  0  0  0  0
 23 24  2  0  0  0  0
 24 25  1  0  0  0  0
 25 28  1  0  0  0  0
 26 25  2  0  0  0  0
 27 23  1  0  0  0  0
 29 31  1  0  0  0  0
 30 29  2  0  0  0  0
 31 22  1  0  0  0  0
 32 31  1  0  0  0  0
 33 39  1  0  0  0  0
 33 29  1  1  0  0  0
 34 35  1  0  0  0  0
 34 33  1  0  0  0  0
 36 34  1  0  0  0  0
 36 38  1  0  0  0  0
 37 36  1  0  0  0  0
 38 39  1  0  0  0  0
 39 40  1  0  0  0  0
M  END
>  <minimizedAffinity>
-5.78349209

>  <minimizedRMSD>
0.478137136

$$$$
