
 OpenBabel03272503413D

 40 43  0  0  1  0  0  0  0  0999 V2000
   38.3890   31.2190   45.9040 C   0  0  0  0  0  0  0  0  0  0  0  0
   39.7320   31.1120   46.1370 C   0  0  0  0  0  0  0  0  0  0  0  0
   40.3280   31.5410   44.9400 C   0  0  0  0  0  0  0  0  0  0  0  0
   39.3670   31.8750   44.0700 N   0  0  0  0  0  0  0  0  0  0  0  0
   38.1870   31.6800   44.6560 N   0  0  0  0  0  0  0  0  0  0  0  0
   40.2640   30.7790   47.0210 H   0  0  0  0  0  0  0  0  0  0  0  0
   41.4050   31.5640   44.8290 H   0  0  0  0  0  0  0  0  0  0  0  0
   39.6750   31.2080   41.7460 C   0  0  2  0  0  0  0  0  0  0  0  0
   39.6510   32.3580   42.7420 C   0  0  1  0  0  0  0  0  0  0  0  0
   38.4980   33.1400   42.1490 C   0  0  0  0  0  0  0  0  0  0  0  0
   38.5750   33.0170   40.7820 O   0  0  0  0  0  0  0  0  0  0  0  0
   39.4510   32.0280   40.4570 C   0  0  0  0  0  0  0  0  0  0  0  0
   40.6130   30.6780   41.6750 H   0  0  0  0  0  0  0  0  0  0  0  0
   40.5510   32.9640   42.7180 H   0  0  0  0  0  0  0  0  0  0  0  0
   37.5430   32.6370   42.4470 H   0  0  0  0  0  0  0  0  0  0  0  0
   38.5250   34.1940   42.4410 H   0  0  0  0  0  0  0  0  0  0  0  0
   39.0600   31.3080   39.7000 H   0  0  0  0  0  0  0  0  0  0  0  0
   40.4350   32.4400   40.1290 H   0  0  0  0  0  0  0  0  0  0  0  0
   38.5600   30.4360   41.9740 O   0  0  0  0  0  0  0  0  0  0  0  0
   38.7280   29.0970   41.9520 C   0  0  1  0  0  3  0  0  0  0  0  0
   39.9340   28.5800   41.2040 C   0  0  0  0  0  3  0  0  0  0  0  0
   40.8680   29.0580   41.5320 H   0  0  0  0  0  0  0  0  0  0  0  0
   39.9240   27.1510   41.7250 C   0  0  0  0  0  3  0  0  0  0  0  0
   39.1750   26.6060   41.0870 H   0  0  0  0  0  0  0  0  0  0  0  0
   39.4390   27.1740   43.0060 O   0  0  0  0  0  0  0  0  0  0  0  0
   38.9300   28.4260   43.2750 C   0  0  0  0  0  3  0  0  0  0  0  0
   39.6420   28.9310   43.9370 H   0  0  0  0  0  0  0  0  0  0  0  0
   36.5000   30.6350   49.0930 C   0  0  0  0  0  0  0  0  0  0  0  0
   37.5160   30.9620   48.2270 C   0  0  0  0  0  0  0  0  0  0  0  0
   37.3500   30.8850   46.8610 C   0  0  0  0  0  0  0  0  0  0  0  0
   36.1460   30.4740   46.4180 N   0  0  0  0  0  0  0  0  0  0  0  0
   35.1390   30.1500   47.2820 C   0  0  0  0  0  0  0  0  0  0  0  0
   35.3000   30.2240   48.5870 N   0  0  0  0  0  0  0  0  0  0  0  0
   38.5130   31.3010   48.5480 H   0  0  0  0  0  0  0  0  0  0  0  0
   34.1840   29.8230   46.8670 H   0  0  0  0  0  0  0  0  0  0  0  0
   36.8360   30.7680   50.4290 O   0  0  0  0  0  0  0  0  0  0  0  0
   36.8910   29.6890   51.3360 C   0  0  0  0  0  0  0  0  0  0  0  0
   35.6100   29.2430   51.6480 F   0  0  0  0  0  0  0  0  0  0  0  0
   37.5640   30.0920   52.4620 F   0  0  0  0  0  0  0  0  0  0  0  0
   37.6110   28.6740   50.7480 F   0  0  0  0  0  0  0  0  0  0  0  0
  1  2  1  0  0  0  0
  1 30  1  0  0  0  0
  2  6  1  0  0  0  0
  3  2  2  0  0  0  0
  4  5  1  0  0  0  0
  4  3  1  0  0  0  0
  5  1  2  0  0  0  0
  7  3  1  0  0  0  0
  8 13  1  1  0  0  0
  8 19  1  0  0  0  0
  8  9  1  0  0  0  0
  9 14  1  6  0  0  0
  9  4  1  0  0  0  0
 10 16  1  0  0  0  0
 10 15  1  0  0  0  0
 10  9  1  0  0  0  0
 11 10  1  0  0  0  0
 12 11  1  0  0  0  0
 12  8  1  0  0  0  0
 17 12  1  0  0  0  0
 18 12  1  0  0  0  0
 20 19  1  1  0  0  0
 20 26  1  0  0  0  0
 21 22  1  0  0  0  0
 21 23  1  0  0  0  0
 21 20  1  0  0  0  0
 23 25  1  0  0  0  0
 24 23  1  0  0  0  0
 25 26  1  0  0  0  0
 26 27  1  0  0  0  0
 28 36  1  0  0  0  0
 29 34  1  0  0  0  0
 29 28  2  0  0  0  0
 30 29  1  0  0  0  0
 31 30  2  0  0  0  0
 31 32  1  0  0  0  0
 32 33  2  0  0  0  0
 33 28  1  0  0  0  0
 35 32  1  0  0  0  0
 36 37  1  0  0  0  0
 37 38  1  0  0  0  0
 37 39  1  0  0  0  0
 40 37  1  0  0  0  0
M  END
>  <minimizedAffinity>
-6.14416885

>  <minimizedRMSD>
0.439184278

$$$$
