
 OpenBabel03272510313D

 31 33  0  0  1  0  0  0  0  0999 V2000
   37.4240   31.2140   49.0600 C   0  0  0  0  0  0  0  0  0  0  0  0
   38.4350   32.1550   49.1010 C   0  0  0  0  0  0  0  0  0  0  0  0
   38.8980   32.5810   47.8590 C   0  0  0  0  0  0  0  0  0  0  0  0
   38.3500   32.0690   46.7120 N   0  0  0  0  0  0  0  0  0  0  0  0
   37.3580   31.1480   46.7210 C   0  0  0  0  0  0  0  0  0  0  0  0
   36.8920   30.7160   47.9260 N   0  0  0  0  0  0  0  0  0  0  0  0
   38.8670   32.5580   49.9870 H   0  0  0  0  0  0  0  0  0  0  0  0
   39.6870   33.3150   47.7280 H   0  0  0  0  0  0  0  0  0  0  0  0
   36.8700   30.7460   50.3770 C   0  0  0  0  0  0  0  0  0  0  0  0
   35.9410   29.6720   50.4970 C   0  0  0  0  0  0  0  0  0  0  0  0
   37.4060   29.3550   50.7780 C   0  0  0  0  0  0  0  0  0  0  0  0
   36.9630   31.5300   51.1520 H   0  0  0  0  0  0  0  0  0  0  0  0
   35.5320   29.1030   49.6380 H   0  0  0  0  0  0  0  0  0  0  0  0
   35.2550   29.6750   51.3780 H   0  0  0  0  0  0  0  0  0  0  0  0
   37.7110   29.3040   51.8400 H   0  0  0  0  0  0  0  0  0  0  0  0
   37.9850   28.7890   50.0360 H   0  0  0  0  0  0  0  0  0  0  0  0
   36.7680   30.6100   45.5020 C   0  0  0  0  0  0  0  0  0  0  0  0
   36.1730   31.4410   45.0360 H   0  0  0  0  0  0  0  0  0  0  0  0
   36.1760   29.7230   45.7020 H   0  0  0  0  0  0  0  0  0  0  0  0
   37.8870   30.6480   43.2680 C   0  0  0  0  0  0  0  0  0  0  0  0
   36.9950   31.3780   42.7150 O   0  0  0  0  0  0  0  0  0  0  0  0
   37.8620   30.2330   44.6230 N   0  0  0  0  0  0  0  0  0  0  0  0
   38.6140   29.6530   45.0350 H   0  0  0  0  0  0  0  0  0  0  0  0
   39.0540   30.1820   42.4500 C   0  0  2  0  0  3  0  0  0  0  0  0
   39.3260   28.7030   42.6320 C   0  0  0  0  0  3  0  0  0  0  0  0
   38.7090   28.0610   42.0050 H   0  0  0  0  0  0  0  0  0  0  0  0
   40.7960   28.6980   42.1950 C   0  0  0  0  0  3  0  0  0  0  0  0
   40.7730   28.8020   41.0720 H   0  0  0  0  0  0  0  0  0  0  0  0
   41.3480   29.8620   42.6850 O   0  0  0  0  0  0  0  0  0  0  0  0
   40.3460   30.7250   43.0750 C   0  0  0  0  0  3  0  0  0  0  0  0
   40.2180   30.5660   44.1850 H   0  0  0  0  0  0  0  0  0  0  0  0
  1  2  1  0  0  0  0
  1  9  1  0  0  0  0
  2  7  1  0  0  0  0
  3  2  2  0  0  0  0
  4  5  2  0  0  0  0
  4  3  1  0  0  0  0
  5  6  1  0  0  0  0
  6  1  2  0  0  0  0
  8  3  1  0  0  0  0
  9 10  1  0  0  0  0
  9 11  1  0  0  0  0
  9 12  1  0  0  0  0
 10 11  1  0  0  0  0
 10 14  1  0  0  0  0
 11 15  1  0  0  0  0
 13 10  1  0  0  0  0
 16 11  1  0  0  0  0
 17 19  1  0  0  0  0
 17  5  1  0  0  0  0
 18 17  1  0  0  0  0
 20 22  1  0  0  0  0
 21 20  2  0  0  0  0
 22 23  1  0  0  0  0
 22 17  1  0  0  0  0
 24 25  1  0  0  0  0
 24 30  1  0  0  0  0
 24 20  1  1  0  0  0
 26 25  1  0  0  0  0
 27 25  1  0  0  0  0
 27 29  1  0  0  0  0
 28 27  1  0  0  0  0
 29 30  1  0  0  0  0
 30 31  1  0  0  0  0
M  END
>  <minimizedAffinity>
-4.95426273

>  <minimizedRMSD>
3.22276831

$$$$
