
 OpenBabel03272509433D

 37 39  0  0  1  0  0  0  0  0999 V2000
   37.0500   30.9290   49.0270 C   0  0  0  0  0  0  0  0  0  0  0  0
   36.7740   31.8190   50.0670 C   0  0  0  0  0  0  0  0  0  0  0  0
   37.3690   33.0710   50.1340 C   0  0  0  0  0  0  0  0  0  0  0  0
   38.2680   33.4580   49.1380 C   0  0  0  0  0  0  0  0  0  0  0  0
   38.5300   32.5780   48.1260 C   0  0  0  0  0  0  0  0  0  0  0  0
   37.9170   31.3340   48.0930 C   0  0  0  0  0  0  0  0  0  0  0  0
   36.0700   31.5050   50.8360 H   0  0  0  0  0  0  0  0  0  0  0  0
   37.0990   33.6830   50.9640 H   0  0  0  0  0  0  0  0  0  0  0  0
   38.6800   34.4410   49.2700 H   0  0  0  0  0  0  0  0  0  0  0  0
   39.2470   33.0170   47.4330 H   0  0  0  0  0  0  0  0  0  0  0  0
   36.4580   29.6100   48.9750 C   0  0  2  0  0  0  0  0  0  0  0  0
   36.9780   29.0780   48.0880 H   0  0  0  0  0  0  0  0  0  0  0  0
   33.5880   30.0920   46.8000 C   0  0  0  0  0  0  0  0  0  0  0  0
   32.8920   28.9020   46.8950 C   0  0  0  0  0  0  0  0  0  0  0  0
   33.3690   27.9370   47.7610 C   0  0  0  0  0  0  0  0  0  0  0  0
   34.5090   28.1880   48.4930 N   0  0  0  0  0  0  0  0  0  0  0  0
   35.1300   29.3440   48.3550 C   0  0  0  0  0  0  0  0  0  0  0  0
   34.6760   30.3010   47.5150 N   0  0  0  0  0  0  0  0  0  0  0  0
   33.1770   30.8170   46.1100 H   0  0  0  0  0  0  0  0  0  0  0  0
   32.0000   28.6090   46.3720 H   0  0  0  0  0  0  0  0  0  0  0  0
   32.9330   26.9650   47.9410 H   0  0  0  0  0  0  0  0  0  0  0  0
   36.9020   28.8340   49.9000 O   0  0  0  0  0  0  0  0  0  0  0  0
   36.4200   28.0470   50.2110 H   0  0  0  0  0  0  0  0  0  0  0  0
   38.3050   30.4920   46.9840 C   0  0  0  0  0  3  0  0  0  0  0  0
   39.0700   30.9030   45.9670 C   0  0  0  0  0  3  0  0  0  0  0  0
   39.5610   30.1230   44.8080 C   0  0  0  0  0  0  0  0  0  0  0  0
   40.5180   29.6500   45.1100 H   0  0  0  0  0  0  0  0  0  0  0  0
   38.8480   29.3080   44.5260 H   0  0  0  0  0  0  0  0  0  0  0  0
   39.8690   31.2270   43.4230 S   0  0  0  0  0  0  0  0  0  0  0  0
   38.3060   31.4570   42.5400 C   0  0  1  0  0  3  0  0  0  0  0  0
   37.3030   30.3700   42.8070 C   0  0  0  0  0  3  0  0  0  0  0  0
   37.5230   29.7700   43.7200 H   0  0  0  0  0  0  0  0  0  0  0  0
   36.0170   31.1250   42.8740 C   0  0  0  0  0  3  0  0  0  0  0  0
   35.4600   31.0590   41.9160 H   0  0  0  0  0  0  0  0  0  0  0  0
   36.2620   32.4480   43.1230 O   0  0  0  0  0  0  0  0  0  0  0  0
   37.6130   32.6690   43.1160 C   0  0  0  0  0  3  0  0  0  0  0  0
   38.0000   32.8760   44.1560 H   0  0  0  0  0  0  0  0  0  0  0  0
  1  2  1  0  0  0  0
  2  3  2  0  0  0  0
  2  7  1  0  0  0  0
  3  8  1  0  0  0  0
  4  9  1  0  0  0  0
  4  3  1  0  0  0  0
  5  4  2  0  0  0  0
  6  5  1  0  0  0  0
  6  1  2  0  0  0  0
 10  5  1  0  0  0  0
 11 12  1  6  0  0  0
 11  1  1  0  0  0  0
 11 22  1  0  0  0  0
 13 14  2  0  0  0  0
 13 18  1  0  0  0  0
 14 15  1  0  0  0  0
 15 21  1  0  0  0  0
 15 16  2  0  0  0  0
 17 16  1  0  0  0  0
 17 11  1  0  0  0  0
 18 17  2  0  0  0  0
 19 13  1  0  0  0  0
 20 14  1  0  0  0  0
 22 23  1  0  0  0  0
 24  6  1  0  0  0  0
 25 24  2  0  0  0  0
 26 27  1  0  0  0  0
 26 25  1  0  0  0  0
 28 26  1  0  0  0  0
 29 26  1  0  0  0  0
 30 31  1  0  0  0  0
 30 36  1  0  0  0  0
 30 29  1  1  0  0  0
 31 33  1  0  0  0  0
 31 32  1  0  0  0  0
 33 35  1  0  0  0  0
 34 33  1  0  0  0  0
 36 35  1  0  0  0  0
 36 37  1  0  0  0  0
M  END
>  <minimizedAffinity>
-5.54644537

>  <minimizedRMSD>
0.517895937

$$$$
