
 OpenBabel03272503413D

 40 43  0  0  1  0  0  0  0  0999 V2000
   38.4720   31.1230   45.9050 C   0  0  0  0  0  0  0  0  0  0  0  0
   39.8090   31.0240   46.1750 C   0  0  0  0  0  0  0  0  0  0  0  0
   40.4340   31.3970   44.9750 C   0  0  0  0  0  0  0  0  0  0  0  0
   39.4950   31.6940   44.0670 N   0  0  0  0  0  0  0  0  0  0  0  0
   38.3010   31.5270   44.6320 N   0  0  0  0  0  0  0  0  0  0  0  0
   40.3170   30.7310   47.0860 H   0  0  0  0  0  0  0  0  0  0  0  0
   41.5130   31.4140   44.8880 H   0  0  0  0  0  0  0  0  0  0  0  0
   39.7510   30.9370   41.7640 C   0  0  2  0  0  0  0  0  0  0  0  0
   39.8130   32.1150   42.7260 C   0  0  1  0  0  0  0  0  0  0  0  0
   38.7190   32.9610   42.1080 C   0  0  0  0  0  0  0  0  0  0  0  0
   38.7860   32.7930   40.7460 O   0  0  0  0  0  0  0  0  0  0  0  0
   39.5880   31.7330   40.4510 C   0  0  0  0  0  0  0  0  0  0  0  0
   40.6490   30.3390   41.7100 H   0  0  0  0  0  0  0  0  0  0  0  0
   40.7550   32.6530   42.6850 H   0  0  0  0  0  0  0  0  0  0  0  0
   37.7310   32.5380   42.4200 H   0  0  0  0  0  0  0  0  0  0  0  0
   38.8230   34.0190   42.3690 H   0  0  0  0  0  0  0  0  0  0  0  0
   39.1440   31.0220   39.7160 H   0  0  0  0  0  0  0  0  0  0  0  0
   40.5990   32.0620   40.1130 H   0  0  0  0  0  0  0  0  0  0  0  0
   38.5840   30.2560   42.0130 O   0  0  0  0  0  0  0  0  0  0  0  0
   38.6640   28.9100   42.0790 C   0  0  1  0  0  3  0  0  0  0  0  0
   38.4560   28.1550   40.7870 C   0  0  0  0  0  3  0  0  0  0  0  0
   39.1080   28.5190   39.9810 H   0  0  0  0  0  0  0  0  0  0  0  0
   38.9700   26.7980   41.2370 C   0  0  0  0  0  3  0  0  0  0  0  0
   38.1060   26.3130   41.7710 H   0  0  0  0  0  0  0  0  0  0  0  0
   39.9600   27.0060   42.1600 O   0  0  0  0  0  0  0  0  0  0  0  0
   39.9780   28.3390   42.5110 C   0  0  0  0  0  3  0  0  0  0  0  0
   40.8520   28.7910   42.0280 H   0  0  0  0  0  0  0  0  0  0  0  0
   36.5210   30.6340   49.0730 C   0  0  0  0  0  0  0  0  0  0  0  0
   37.5590   30.9170   48.2180 C   0  0  0  0  0  0  0  0  0  0  0  0
   37.4080   30.8350   46.8500 C   0  0  0  0  0  0  0  0  0  0  0  0
   36.1960   30.4640   46.3950 N   0  0  0  0  0  0  0  0  0  0  0  0
   35.1670   30.1830   47.2480 C   0  0  0  0  0  0  0  0  0  0  0  0
   35.3140   30.2630   48.5540 N   0  0  0  0  0  0  0  0  0  0  0  0
   38.5640   31.2230   48.5490 H   0  0  0  0  0  0  0  0  0  0  0  0
   34.2070   29.8880   46.8230 H   0  0  0  0  0  0  0  0  0  0  0  0
   36.8440   30.7660   50.4120 O   0  0  0  0  0  0  0  0  0  0  0  0
   36.8920   29.6860   51.3180 C   0  0  0  0  0  0  0  0  0  0  0  0
   35.6080   29.2470   51.6270 F   0  0  0  0  0  0  0  0  0  0  0  0
   37.5650   30.0850   52.4460 F   0  0  0  0  0  0  0  0  0  0  0  0
   37.6080   28.6680   50.7310 F   0  0  0  0  0  0  0  0  0  0  0  0
  1  2  1  0  0  0  0
  1 30  1  0  0  0  0
  2  6  1  0  0  0  0
  3  2  2  0  0  0  0
  4  5  1  0  0  0  0
  4  3  1  0  0  0  0
  5  1  2  0  0  0  0
  7  3  1  0  0  0  0
  8 13  1  1  0  0  0
  8 19  1  0  0  0  0
  8  9  1  0  0  0  0
  9 14  1  6  0  0  0
  9  4  1  0  0  0  0
 10 16  1  0  0  0  0
 10 15  1  0  0  0  0
 10  9  1  0  0  0  0
 11 10  1  0  0  0  0
 12 11  1  0  0  0  0
 12  8  1  0  0  0  0
 17 12  1  0  0  0  0
 18 12  1  0  0  0  0
 20 19  1  6  0  0  0
 20 26  1  0  0  0  0
 21 23  1  0  0  0  0
 21 20  1  0  0  0  0
 22 21  1  0  0  0  0
 23 24  1  0  0  0  0
 23 25  1  0  0  0  0
 25 26  1  0  0  0  0
 27 26  1  0  0  0  0
 28 36  1  0  0  0  0
 29 34  1  0  0  0  0
 29 28  2  0  0  0  0
 30 29  1  0  0  0  0
 31 30  2  0  0  0  0
 31 32  1  0  0  0  0
 32 33  2  0  0  0  0
 33 28  1  0  0  0  0
 35 32  1  0  0  0  0
 36 37  1  0  0  0  0
 37 38  1  0  0  0  0
 37 39  1  0  0  0  0
 40 37  1  0  0  0  0
M  END
>  <minimizedAffinity>
-6.04986095

>  <minimizedRMSD>
0.273046613

$$$$
