
 OpenBabel03262521433D

 29 31  0  0  1  0  0  0  0  0999 V2000
   37.9160   30.7260   47.2510 C   0  0  1  0  0  0  0  0  0  0  0  0
   36.8580   29.6680   47.5750 C   0  0  2  0  0  0  0  0  0  0  0  0
   35.7600   30.2690   46.7300 C   0  0  0  0  0  0  0  0  0  0  0  0
   36.3610   30.6210   45.5320 O   0  0  0  0  0  0  0  0  0  0  0  0
   37.7030   30.7860   45.7360 C   0  0  0  0  0  0  0  0  0  0  0  0
   38.9430   30.3850   47.4830 H   0  0  0  0  0  0  0  0  0  0  0  0
   37.2410   28.7310   47.1370 H   0  0  0  0  0  0  0  0  0  0  0  0
   35.2920   31.1160   47.2490 H   0  0  0  0  0  0  0  0  0  0  0  0
   35.0210   29.4720   46.4740 H   0  0  0  0  0  0  0  0  0  0  0  0
   38.3430   30.0570   45.2020 H   0  0  0  0  0  0  0  0  0  0  0  0
   37.9930   31.7860   45.3270 H   0  0  0  0  0  0  0  0  0  0  0  0
   36.5530   29.6030   49.0090 C   0  0  0  0  0  0  0  0  0  0  0  0
   37.5880   29.6580   49.9530 C   0  0  0  0  0  0  0  0  0  0  0  0
   37.2340   29.5700   51.3020 C   0  0  0  0  0  0  0  0  0  0  0  0
   35.9100   29.4340   51.6260 N   0  0  0  0  0  0  0  0  0  0  0  0
   34.9240   29.3840   50.6760 C   0  0  0  0  0  0  0  0  0  0  0  0
   35.2630   29.4700   49.3680 N   0  0  0  0  0  0  0  0  0  0  0  0
   38.6250   29.7650   49.6700 H   0  0  0  0  0  0  0  0  0  0  0  0
   37.9670   29.6030   52.0970 H   0  0  0  0  0  0  0  0  0  0  0  0
   33.9050   29.2750   51.0250 H   0  0  0  0  0  0  0  0  0  0  0  0
   37.6000   31.9590   47.7350 O   0  0  0  0  0  0  0  0  0  0  0  0
   38.7710   32.5410   48.2080 C   0  0  1  0  0  0  0  0  0  0  0  0
   39.3810   33.4610   47.1400 C   0  0  0  0  0  0  0  0  0  0  0  0
   39.8690   32.9180   46.3350 H   0  0  0  0  0  0  0  0  0  0  0  0
   40.3330   34.2210   48.0560 C   0  0  0  0  0  0  0  0  0  0  0  0
   41.2320   33.6010   48.2630 H   0  0  0  0  0  0  0  0  0  0  0  0
   39.5870   34.4860   49.1900 O   0  0  0  0  0  0  0  0  0  0  0  0
   38.5750   33.5400   49.2980 C   0  0  0  0  0  0  0  0  0  0  0  0
   37.6140   34.0610   49.1360 H   0  0  0  0  0  0  0  0  0  0  0  0
  1  6  1  1  0  0  0
  1  2  1  0  0  0  0
  1 21  1  0  0  0  0
  2  7  1  6  0  0  0
  2 12  1  0  0  0  0
  3  8  1  0  0  0  0
  3  2  1  0  0  0  0
  4  5  1  0  0  0  0
  4  3  1  0  0  0  0
  5  1  1  0  0  0  0
  9  3  1  0  0  0  0
 10  5  1  0  0  0  0
 11  5  1  0  0  0  0
 12 17  2  0  0  0  0
 12 13  1  0  0  0  0
 13 14  2  0  0  0  0
 14 15  1  0  0  0  0
 14 19  1  0  0  0  0
 16 20  1  0  0  0  0
 16 15  2  0  0  0  0
 17 16  1  0  0  0  0
 18 13  1  0  0  0  0
 22 21  1  6  0  0  0
 22 28  1  0  0  0  0
 23 25  1  0  0  0  0
 23 22  1  0  0  0  0
 24 23  1  0  0  0  0
 25 26  1  0  0  0  0
 25 27  1  0  0  0  0
 27 28  1  0  0  0  0
 29 28  1  0  0  0  0
M  END
>  <minimizedAffinity>
-3.98150134

>  <minimizedRMSD>
1.9577924

$$$$
