
 OpenBabel03262522163D

 44 47  0  0  1  0  0  0  0  0999 V2000
   39.5100   33.0170   44.0370 C   0  0  0  0  0  0  0  0  0  0  0  0
   38.4550   32.8490   44.2620 H   0  0  0  0  0  0  0  0  0  0  0  0
   39.5520   33.8570   43.3080 H   0  0  0  0  0  0  0  0  0  0  0  0
   39.2120   29.7270   42.7430 C   0  0  1  0  0  0  0  0  0  0  0  0
   39.2270   31.1880   42.3580 C   0  0  0  0  0  0  0  0  0  0  0  0
   40.1170   31.7630   43.4180 C   0  0  2  0  0  0  0  0  0  0  0  0
   40.3610   30.7880   44.3530 O   0  0  0  0  0  0  0  0  0  0  0  0
   39.3600   29.8260   44.2430 C   0  0  0  0  0  0  0  0  0  0  0  0
   40.0650   29.2390   42.2610 H   0  0  0  0  0  0  0  0  0  0  0  0
   39.5990   31.2980   41.3330 H   0  0  0  0  0  0  0  0  0  0  0  0
   38.1950   31.6230   42.4120 H   0  0  0  0  0  0  0  0  0  0  0  0
   41.0460   32.1260   42.9130 H   0  0  0  0  0  0  0  0  0  0  0  0
   39.7420   28.9060   44.7020 H   0  0  0  0  0  0  0  0  0  0  0  0
   38.4150   30.1850   44.6670 H   0  0  0  0  0  0  0  0  0  0  0  0
   38.0050   29.1270   42.3720 O   0  0  0  0  0  0  0  0  0  0  0  0
   38.2650   27.9310   41.7580 C   0  0  2  0  0  0  0  0  0  0  0  0
   38.1270   26.7180   42.6830 C   0  0  0  0  0  0  0  0  0  0  0  0
   38.6390   26.8680   43.6330 H   0  0  0  0  0  0  0  0  0  0  0  0
   38.9240   25.7150   41.8510 C   0  0  0  0  0  0  0  0  0  0  0  0
   38.2420   25.1940   41.1170 H   0  0  0  0  0  0  0  0  0  0  0  0
   39.8090   26.4350   41.0950 O   0  0  0  0  0  0  0  0  0  0  0  0
   39.7290   27.7710   41.4080 C   0  0  0  0  0  0  0  0  0  0  0  0
   40.0560   28.3970   40.5600 H   0  0  0  0  0  0  0  0  0  0  0  0
   40.5220   33.4420   45.4780 S   0  0  0  0  0  0  0  0  0  0  0  0
   37.7600   31.8630   47.8430 C   0  0  0  0  0  0  0  0  0  0  0  0
   37.8970   32.5600   49.0520 C   0  0  0  0  0  0  0  0  0  0  0  0
   38.8490   33.5470   49.1880 C   0  0  0  0  0  0  0  0  0  0  0  0
   39.6320   33.7980   48.0950 C   0  0  0  0  0  0  0  0  0  0  0  0
   39.4790   33.1040   46.9260 C   0  0  0  0  0  0  0  0  0  0  0  0
   38.5480   32.1340   46.7820 N   0  0  0  0  0  0  0  0  0  0  0  0
   37.2570   32.3370   49.9060 H   0  0  0  0  0  0  0  0  0  0  0  0
   39.0070   34.1180   50.0860 H   0  0  0  0  0  0  0  0  0  0  0  0
   40.4180   34.5610   48.0950 H   0  0  0  0  0  0  0  0  0  0  0  0
   36.7380   30.8430   47.7810 C   0  0  0  0  0  0  0  0  0  0  0  0
   36.3270   30.4180   46.6940 O   0  0  0  0  0  0  0  0  0  0  0  0
   36.9770   29.6200   49.9050 C   0  0  0  0  0  0  0  0  0  0  0  0
   36.1340   30.2570   48.9870 C   0  0  0  0  0  0  0  0  0  0  0  0
   34.7590   30.3180   49.2360 C   0  0  0  0  0  0  0  0  0  0  0  0
   34.2770   29.7450   50.3860 N   0  0  0  0  0  0  0  0  0  0  0  0
   35.1200   29.1340   51.2570 C   0  0  0  0  0  0  0  0  0  0  0  0
   36.4370   29.0750   51.0220 N   0  0  0  0  0  0  0  0  0  0  0  0
   38.0350   29.5760   49.7090 H   0  0  0  0  0  0  0  0  0  0  0  0
   34.1690   30.8140   48.5050 H   0  0  0  0  0  0  0  0  0  0  0  0
   34.7280   28.6830   52.1660 H   0  0  0  0  0  0  0  0  0  0  0  0
  1  2  1  0  0  0  0
  1 24  1  0  0  0  0
  3  1  1  0  0  0  0
  4  9  1  6  0  0  0
  4  8  1  0  0  0  0
  5 11  1  0  0  0  0
  5  4  1  0  0  0  0
  5  6  1  0  0  0  0
  6 12  1  6  0  0  0
  6  1  1  0  0  0  0
  6  7  1  0  0  0  0
  8  7  1  0  0  0  0
  8 14  1  0  0  0  0
  8 13  1  0  0  0  0
 10  5  1  0  0  0  0
 15  4  1  0  0  0  0
 16 15  1  1  0  0  0
 16 17  1  0  0  0  0
 17 18  1  0  0  0  0
 19 17  1  0  0  0  0
 20 19  1  0  0  0  0
 21 22  1  0  0  0  0
 21 19  1  0  0  0  0
 22 16  1  0  0  0  0
 23 22  1  0  0  0  0
 24 29  1  0  0  0  0
 25 26  1  0  0  0  0
 26 27  2  0  0  0  0
 26 31  1  0  0  0  0
 27 32  1  0  0  0  0
 28 27  1  0  0  0  0
 29 28  2  0  0  0  0
 30 29  1  0  0  0  0
 30 25  2  0  0  0  0
 33 28  1  0  0  0  0
 34 25  1  0  0  0  0
 34 37  1  0  0  0  0
 35 34  2  0  0  0  0
 36 41  1  0  0  0  0
 37 38  1  0  0  0  0
 37 36  2  0  0  0  0
 38 39  2  0  0  0  0
 39 40  1  0  0  0  0
 40 44  1  0  0  0  0
 41 40  2  0  0  0  0
 42 36  1  0  0  0  0
 43 38  1  0  0  0  0
M  END
>  <minimizedAffinity>
-5.36138678

>  <minimizedRMSD>
0.751093686

$$$$
