
 OpenBabel03272503243D

 31 33  0  0  1  0  0  0  0  0999 V2000
   36.3650   29.8520   49.3080 N   0  0  0  0  0  0  0  0  0  0  0  0
   36.8950   31.1690   49.1860 C   0  0  1  0  0  0  0  0  0  0  0  0
   37.5440   31.4300   50.5350 C   0  0  0  0  0  0  0  0  0  0  0  0
   37.2640   30.1500   51.3520 C   0  0  0  0  0  0  0  0  0  0  0  0
   37.1970   29.1480   50.2480 C   0  0  0  0  0  0  0  0  0  0  0  0
   36.0590   31.9410   49.1490 H   0  0  0  0  0  0  0  0  0  0  0  0
   38.6370   31.4630   50.3440 H   0  0  0  0  0  0  0  0  0  0  0  0
   37.1910   32.3310   51.0410 H   0  0  0  0  0  0  0  0  0  0  0  0
   38.1540   29.9840   51.9760 H   0  0  0  0  0  0  0  0  0  0  0  0
   36.3190   30.2420   51.9190 H   0  0  0  0  0  0  0  0  0  0  0  0
   38.1990   28.9200   49.8750 H   0  0  0  0  0  0  0  0  0  0  0  0
   36.7080   28.2040   50.5880 H   0  0  0  0  0  0  0  0  0  0  0  0
   35.2210   29.3440   48.6300 C   0  0  0  0  0  0  0  0  0  0  0  0
   34.5830   30.1800   47.7010 C   0  0  0  0  0  0  0  0  0  0  0  0
   33.4570   29.7080   47.0180 C   0  0  0  0  0  0  0  0  0  0  0  0
   33.0530   28.4310   47.3130 N   0  0  0  0  0  0  0  0  0  0  0  0
   33.6920   27.6500   48.2150 C   0  0  0  0  0  0  0  0  0  0  0  0
   34.8000   28.0990   48.8970 N   0  0  0  0  0  0  0  0  0  0  0  0
   34.8990   31.1810   47.4690 H   0  0  0  0  0  0  0  0  0  0  0  0
   32.9640   30.3320   46.3110 H   0  0  0  0  0  0  0  0  0  0  0  0
   33.2940   26.6580   48.3780 H   0  0  0  0  0  0  0  0  0  0  0  0
   37.7470   31.4280   48.0270 C   0  0  0  0  0  0  0  0  0  0  0  0
   38.1340   32.6070   47.9760 O   0  0  0  0  0  0  0  0  0  0  0  0
   38.2820   30.6510   46.8660 C   0  0  1  0  0  3  0  0  0  0  0  0
   37.5000   30.7150   45.6150 C   0  0  0  0  0  3  0  0  0  0  0  0
   36.7640   29.9010   45.4790 H   0  0  0  0  0  0  0  0  0  0  0  0
   38.5790   30.4490   44.5660 C   0  0  0  0  0  3  0  0  0  0  0  0
   38.6050   29.3640   44.2950 H   0  0  0  0  0  0  0  0  0  0  0  0
   39.7830   30.7330   45.1500 O   0  0  0  0  0  0  0  0  0  0  0  0
   39.5830   31.2580   46.3930 C   0  0  0  0  0  3  0  0  0  0  0  0
   40.3790   31.0010   47.1230 H   0  0  0  0  0  0  0  0  0  0  0  0
  1  5  1  0  0  0  0
  2  6  1  6  0  0  0
  2  1  1  0  0  0  0
  2  3  1  0  0  0  0
  3  8  1  0  0  0  0
  3  4  1  0  0  0  0
  4 10  1  0  0  0  0
  4  9  1  0  0  0  0
  5 12  1  0  0  0  0
  5  4  1  0  0  0  0
  7  3  1  0  0  0  0
 11  5  1  0  0  0  0
 13 18  1  0  0  0  0
 13  1  1  0  0  0  0
 14 13  2  0  0  0  0
 15 16  2  0  0  0  0
 15 14  1  0  0  0  0
 16 17  1  0  0  0  0
 17 21  1  0  0  0  0
 17 18  2  0  0  0  0
 19 14  1  0  0  0  0
 20 15  1  0  0  0  0
 22  2  1  0  0  0  0
 23 22  2  0  0  0  0
 24 22  1  1  0  0  0
 25 24  1  0  0  0  0
 26 25  1  0  0  0  0
 27 29  1  0  0  0  0
 27 25  1  0  0  0  0
 28 27  1  0  0  0  0
 29 30  1  0  0  0  0
 30 24  1  0  0  0  0
 30 31  1  0  0  0  0
M  END
>  <minimizedAffinity>
-5.29727125

>  <minimizedRMSD>
0.92515111

$$$$
