
 OpenBabel03272506413D

 18 19  0  0  1  0  0  0  0  0999 V2000
   37.2390   30.1460   51.4900 C   0  0  0  0  0  0  0  0  0  0  0  0
   38.1550   30.6980   50.5700 C   0  0  0  0  0  0  0  0  0  0  0  0
   37.9430   30.4870   49.2030 C   0  0  0  0  0  0  0  0  0  0  0  0
   36.8610   29.7580   48.8300 N   0  0  0  0  0  0  0  0  0  0  0  0
   35.9970   29.2370   49.7220 C   0  0  0  0  0  0  0  0  0  0  0  0
   36.1930   29.4350   51.0370 N   0  0  0  0  0  0  0  0  0  0  0  0
   37.4390   30.3290   52.5280 H   0  0  0  0  0  0  0  0  0  0  0  0
   39.0270   31.2830   50.8450 H   0  0  0  0  0  0  0  0  0  0  0  0
   38.6000   30.8780   48.4450 H   0  0  0  0  0  0  0  0  0  0  0  0
   34.5780   28.2780   49.2300 S   0  0  0  0  0  0  0  0  0  0  0  0
   34.1500   28.7050   47.5500 C   0  0  2  0  0  3  0  0  0  0  0  0
   33.9180   30.2090   47.3550 C   0  0  0  0  0  3  0  0  0  0  0  0
   34.8520   30.7700   47.2180 H   0  0  0  0  0  0  0  0  0  0  0  0
   33.1400   30.0830   46.0370 C   0  0  0  0  0  3  0  0  0  0  0  0
   33.7840   29.4710   45.3810 H   0  0  0  0  0  0  0  0  0  0  0  0
   32.1220   29.2280   46.4870 O   0  0  0  0  0  0  0  0  0  0  0  0
   32.7670   28.2080   47.1610 C   0  0  0  0  0  3  0  0  0  0  0  0
   32.8160   27.3470   46.4600 H   0  0  0  0  0  0  0  0  0  0  0  0
  1  7  1  0  0  0  0
  2  8  1  0  0  0  0
  2  1  2  0  0  0  0
  3  2  1  0  0  0  0
  4  3  2  0  0  0  0
  4  5  1  0  0  0  0
  5  6  2  0  0  0  0
  6  1  1  0  0  0  0
  9  3  1  0  0  0  0
 10  5  1  0  0  0  0
 11 10  1  1  0  0  0
 12 11  1  0  0  0  0
 13 12  1  0  0  0  0
 14 16  1  0  0  0  0
 14 12  1  0  0  0  0
 15 14  1  0  0  0  0
 16 17  1  0  0  0  0
 17 11  1  0  0  0  0
 18 17  1  0  0  0  0
M  END
>  <minimizedAffinity>
-3.85552859

>  <minimizedRMSD>
0.973387182

$$$$
