
 OpenBabel03272510053D

 36 38  0  0  1  0  0  0  0  0999 V2000
   36.7680   25.7040   32.3610 C   0  0  0  0  0  0  0  0  0  0  0  0
   37.3430   26.2250   33.4770 C   0  0  0  0  0  0  0  0  0  0  0  0
   37.1110   27.5540   33.8180 C   0  0  0  0  0  0  0  0  0  0  0  0
   36.3150   28.3890   33.0700 C   0  0  0  0  0  0  0  0  0  0  0  0
   35.7190   27.9020   31.9330 C   0  0  0  0  0  0  0  0  0  0  0  0
   35.9650   26.5880   31.6230 C   0  0  0  0  0  0  0  0  0  0  0  0
   37.5940   27.9400   34.7330 H   0  0  0  0  0  0  0  0  0  0  0  0
   36.2050   29.3930   33.4280 H   0  0  0  0  0  0  0  0  0  0  0  0
   35.1170   28.5880   31.3940 H   0  0  0  0  0  0  0  0  0  0  0  0
   35.4360   26.3280   30.6950 H   0  0  0  0  0  0  0  0  0  0  0  0
   40.3270   24.4020   34.6020 C   0  0  0  0  0  0  0  0  0  0  0  0
   39.4590   25.1660   33.8400 C   0  0  0  0  0  0  0  0  0  0  0  0
   38.2110   25.4480   34.2960 C   0  0  0  0  0  0  0  0  0  0  0  0
   37.8690   24.9530   35.5170 N   0  0  0  0  0  0  0  0  0  0  0  0
   38.7030   24.2180   36.2600 C   0  0  0  0  0  0  0  0  0  0  0  0
   39.9250   23.9450   35.7970 N   0  0  0  0  0  0  0  0  0  0  0  0
   41.3330   24.0860   34.3960 H   0  0  0  0  0  0  0  0  0  0  0  0
   40.0290   25.4220   32.9790 H   0  0  0  0  0  0  0  0  0  0  0  0
   38.2190   23.8010   37.6040 C   0  0  0  0  0  0  0  0  0  0  0  0
   37.2130   22.8570   37.5200 F   0  0  0  0  0  0  0  0  0  0  0  0
   39.2740   23.0650   38.2660 F   0  0  0  0  0  0  0  0  0  0  0  0
   37.9230   24.7550   38.4580 F   0  0  0  0  0  0  0  0  0  0  0  0
   36.9340   24.0880   31.8470 S   0  0  0  0  0  0  0  0  0  0  0  0
   37.5180   24.0250   30.4630 O   0  0  0  0  0  0  0  0  0  0  0  0
   35.5130   23.8200   31.4340 O   0  0  0  0  0  0  0  0  0  0  0  0
   36.8520   22.6820   32.7790 C   0  0  0  0  0  0  0  0  0  0  0  0
   37.7930   22.3330   33.2370 H   0  0  0  0  0  0  0  0  0  0  0  0
   36.3030   23.0050   33.7340 H   0  0  0  0  0  0  0  0  0  0  0  0
   35.9870   21.5910   32.2630 C   0  0  1  0  0  3  0  0  0  0  0  0
   36.5820   20.5880   31.3520 C   0  0  0  0  0  3  0  0  0  0  0  0
   37.6280   20.3370   31.5880 H   0  0  0  0  0  0  0  0  0  0  0  0
   35.7040   19.3560   31.6400 C   0  0  0  0  0  3  0  0  0  0  0  0
   36.2890   18.4180   31.5700 H   0  0  0  0  0  0  0  0  0  0  0  0
   35.1810   19.4910   32.8910 O   0  0  0  0  0  0  0  0  0  0  0  0
   35.5770   20.6750   33.4370 C   0  0  0  0  0  3  0  0  0  0  0  0
   36.5270   20.5570   34.0150 H   0  0  0  0  0  0  0  0  0  0  0  0
  1  2  1  0  0  0  0
  2  3  2  0  0  0  0
  2 13  1  0  0  0  0
  3  7  1  0  0  0  0
  4  8  1  0  0  0  0
  4  3  1  0  0  0  0
  5  4  2  0  0  0  0
  6  5  1  0  0  0  0
  6  1  2  0  0  0  0
  9  5  1  0  0  0  0
 10  6  1  0  0  0  0
 11 16  1  0  0  0  0
 12 13  1  0  0  0  0
 12 11  2  0  0  0  0
 13 14  2  0  0  0  0
 14 15  1  0  0  0  0
 15 19  1  0  0  0  0
 16 15  2  0  0  0  0
 17 11  1  0  0  0  0
 18 12  1  0  0  0  0
 19 21  1  0  0  0  0
 19 22  1  0  0  0  0
 20 19  1  0  0  0  0
 23  1  1  0  0  0  0
 23 26  1  0  0  0  0
 24 23  2  0  0  0  0
 25 23  2  0  0  0  0
 26 27  1  0  0  0  0
 26 28  1  0  0  0  0
 29 26  1  1  0  0  0
 29 35  1  0  0  0  0
 30 31  1  0  0  0  0
 30 32  1  0  0  0  0
 30 29  1  0  0  0  0
 32 34  1  0  0  0  0
 33 32  1  0  0  0  0
 34 35  1  0  0  0  0
 35 36  1  0  0  0  0
M  END
>  <minimizedAffinity>
-6.0082221

$$$$

 OpenBabel03272510053D

 36 38  0  0  1  0  0  0  0  0999 V2000
   36.8520   22.7790   32.5480 C   0  0  0  0  0  0  0  0  0  0  0  0
   37.0960   21.9390   33.5870 C   0  0  0  0  0  0  0  0  0  0  0  0
   36.3490   20.7720   33.7230 C   0  0  0  0  0  0  0  0  0  0  0  0
   35.3530   20.4170   32.8450 C   0  0  0  0  0  0  0  0  0  0  0  0
   35.0730   21.2420   31.7830 C   0  0  0  0  0  0  0  0  0  0  0  0
   35.8270   22.3840   31.6740 C   0  0  0  0  0  0  0  0  0  0  0  0
   36.5780   20.1140   34.5800 H   0  0  0  0  0  0  0  0  0  0  0  0
   34.8440   19.4960   33.0460 H   0  0  0  0  0  0  0  0  0  0  0  0
   34.2960   20.9210   31.1380 H   0  0  0  0  0  0  0  0  0  0  0  0
   35.5020   22.9520   30.7920 H   0  0  0  0  0  0  0  0  0  0  0  0
   40.3700   22.2180   35.2310 C   0  0  0  0  0  0  0  0  0  0  0  0
   39.3830   21.9520   34.2960 C   0  0  0  0  0  0  0  0  0  0  0  0
   38.0840   22.2400   34.5680 C   0  0  0  0  0  0  0  0  0  0  0  0
   37.8110   22.7970   35.7800 N   0  0  0  0  0  0  0  0  0  0  0  0
   38.7590   23.0600   36.6860 C   0  0  0  0  0  0  0  0  0  0  0  0
   40.0310   22.7670   36.4070 N   0  0  0  0  0  0  0  0  0  0  0  0
   41.4300   22.0530   35.1830 H   0  0  0  0  0  0  0  0  0  0  0  0
   39.9160   21.5630   33.4620 H   0  0  0  0  0  0  0  0  0  0  0  0
   38.3250   23.7320   37.9410 C   0  0  0  0  0  0  0  0  0  0  0  0
   37.2820   23.0610   38.5500 F   0  0  0  0  0  0  0  0  0  0  0  0
   39.3830   23.6080   38.9200 F   0  0  0  0  0  0  0  0  0  0  0  0
   38.1050   25.0260   37.8840 F   0  0  0  0  0  0  0  0  0  0  0  0
   37.7140   24.2170   32.2390 S   0  0  0  0  0  0  0  0  0  0  0  0
   36.9850   25.0720   31.2400 O   0  0  0  0  0  0  0  0  0  0  0  0
   38.7370   23.6810   31.2750 O   0  0  0  0  0  0  0  0  0  0  0  0
   38.9940   24.8770   33.1200 C   0  0  0  0  0  0  0  0  0  0  0  0
   39.6120   24.1740   33.7040 H   0  0  0  0  0  0  0  0  0  0  0  0
   39.7680   25.1680   32.3220 H   0  0  0  0  0  0  0  0  0  0  0  0
   38.7360   26.1700   33.8030 C   0  0  1  0  0  3  0  0  0  0  0  0
   37.4510   26.3470   34.5180 C   0  0  0  0  0  3  0  0  0  0  0  0
   37.0850   25.4310   35.0080 H   0  0  0  0  0  0  0  0  0  0  0  0
   37.8460   27.3630   35.6060 C   0  0  0  0  0  3  0  0  0  0  0  0
   37.2910   27.1820   36.5470 H   0  0  0  0  0  0  0  0  0  0  0  0
   39.1870   27.2550   35.8220 O   0  0  0  0  0  0  0  0  0  0  0  0
   39.7210   26.3230   34.9830 C   0  0  0  0  0  3  0  0  0  0  0  0
   39.7190   25.3070   35.4520 H   0  0  0  0  0  0  0  0  0  0  0  0
  1  2  1  0  0  0  0
  2  3  2  0  0  0  0
  2 13  1  0  0  0  0
  3  7  1  0  0  0  0
  4  8  1  0  0  0  0
  4  3  1  0  0  0  0
  5  4  2  0  0  0  0
  6  5  1  0  0  0  0
  6  1  2  0  0  0  0
  9  5  1  0  0  0  0
 10  6  1  0  0  0  0
 11 16  1  0  0  0  0
 12 13  1  0  0  0  0
 12 11  2  0  0  0  0
 13 14  2  0  0  0  0
 14 15  1  0  0  0  0
 15 19  1  0  0  0  0
 16 15  2  0  0  0  0
 17 11  1  0  0  0  0
 18 12  1  0  0  0  0
 19 20  1  0  0  0  0
 19 21  1  0  0  0  0
 22 19  1  0  0  0  0
 23  1  1  0  0  0  0
 23 26  1  0  0  0  0
 24 23  2  0  0  0  0
 25 23  2  0  0  0  0
 26 27  1  0  0  0  0
 28 26  1  0  0  0  0
 29 26  1  1  0  0  0
 29 30  1  0  0  0  0
 29 35  1  0  0  0  0
 30 31  1  0  0  0  0
 30 32  1  0  0  0  0
 32 34  1  0  0  0  0
 32 33  1  0  0  0  0
 35 36  1  0  0  0  0
 35 34  1  0  0  0  0
M  END
>  <minimizedAffinity>
-5.95824385

$$$$

 OpenBabel03272510053D

 36 38  0  0  1  0  0  0  0  0999 V2000
   38.3690   24.7750   35.8880 C   0  0  0  0  0  0  0  0  0  0  0  0
   38.3620   24.6200   34.5380 C   0  0  0  0  0  0  0  0  0  0  0  0
   38.3580   25.7410   33.7130 C   0  0  0  0  0  0  0  0  0  0  0  0
   38.3590   27.0260   34.2000 C   0  0  0  0  0  0  0  0  0  0  0  0
   38.3620   27.2260   35.5580 C   0  0  0  0  0  0  0  0  0  0  0  0
   38.3680   26.1020   36.3470 C   0  0  0  0  0  0  0  0  0  0  0  0
   38.3530   25.5730   32.6210 H   0  0  0  0  0  0  0  0  0  0  0  0
   38.3570   27.8130   33.4730 H   0  0  0  0  0  0  0  0  0  0  0  0
   38.3620   28.2360   35.8800 H   0  0  0  0  0  0  0  0  0  0  0  0
   38.3660   26.3990   37.4050 H   0  0  0  0  0  0  0  0  0  0  0  0
   39.4670   21.5720   32.8100 C   0  0  0  0  0  0  0  0  0  0  0  0
   39.4670   22.8200   33.4110 C   0  0  0  0  0  0  0  0  0  0  0  0
   38.3240   23.3270   33.9410 C   0  0  0  0  0  0  0  0  0  0  0  0
   37.2050   22.5570   33.8570 N   0  0  0  0  0  0  0  0  0  0  0  0
   37.1980   21.3500   33.2810 C   0  0  0  0  0  0  0  0  0  0  0  0
   38.3280   20.8660   32.7600 N   0  0  0  0  0  0  0  0  0  0  0  0
   40.2680   21.0290   32.3440 H   0  0  0  0  0  0  0  0  0  0  0  0
   40.4800   23.1360   33.3480 H   0  0  0  0  0  0  0  0  0  0  0  0
   35.9180   20.5910   33.3210 C   0  0  0  0  0  0  0  0  0  0  0  0
   36.0850   19.2770   32.9270 F   0  0  0  0  0  0  0  0  0  0  0  0
   35.5100   20.4480   34.7020 F   0  0  0  0  0  0  0  0  0  0  0  0
   34.8740   21.1440   32.7440 F   0  0  0  0  0  0  0  0  0  0  0  0
   38.4130   23.4960   37.0130 S   0  0  0  0  0  0  0  0  0  0  0  0
   37.0710   22.8260   37.1140 O   0  0  0  0  0  0  0  0  0  0  0  0
   38.2920   24.2900   38.2850 O   0  0  0  0  0  0  0  0  0  0  0  0
   39.7670   22.7490   37.6930 C   0  0  0  0  0  0  0  0  0  0  0  0
   40.1530   23.1790   38.6320 H   0  0  0  0  0  0  0  0  0  0  0  0
   39.3650   21.7560   38.1080 H   0  0  0  0  0  0  0  0  0  0  0  0
   40.8230   22.3010   36.7510 C   0  0  1  0  0  3  0  0  0  0  0  0
   41.8280   23.2870   36.2950 C   0  0  0  0  0  3  0  0  0  0  0  0
   42.1140   24.0200   37.0660 H   0  0  0  0  0  0  0  0  0  0  0  0
   43.0380   22.3780   36.0100 C   0  0  0  0  0  3  0  0  0  0  0  0
   43.9920   22.8890   36.2480 H   0  0  0  0  0  0  0  0  0  0  0  0
   42.9090   21.2490   36.7610 O   0  0  0  0  0  0  0  0  0  0  0  0
   41.7460   21.2920   37.4700 C   0  0  0  0  0  3  0  0  0  0  0  0
   41.9010   21.7580   38.4750 H   0  0  0  0  0  0  0  0  0  0  0  0
  1  6  1  0  0  0  0
  1 23  1  0  0  0  0
  2  1  2  0  0  0  0
  3  4  2  0  0  0  0
  3  2  1  0  0  0  0
  4  5  1  0  0  0  0
  5  9  1  0  0  0  0
  5  6  2  0  0  0  0
  6 10  1  0  0  0  0
  7  3  1  0  0  0  0
  8  4  1  0  0  0  0
 11 12  1  0  0  0  0
 12 13  2  0  0  0  0
 13  2  1  0  0  0  0
 14 13  1  0  0  0  0
 15 19  1  0  0  0  0
 15 14  2  0  0  0  0
 16 11  2  0  0  0  0
 16 15  1  0  0  0  0
 17 11  1  0  0  0  0
 18 12  1  0  0  0  0
 19 21  1  0  0  0  0
 20 19  1  0  0  0  0
 22 19  1  0  0  0  0
 23 24  2  0  0  0  0
 23 26  1  0  0  0  0
 23 25  2  0  0  0  0
 26 28  1  0  0  0  0
 26 27  1  0  0  0  0
 29 35  1  0  0  0  0
 29 26  1  1  0  0  0
 30 29  1  0  0  0  0
 30 31  1  0  0  0  0
 32 33  1  0  0  0  0
 32 30  1  0  0  0  0
 32 34  1  0  0  0  0
 34 35  1  0  0  0  0
 35 36  1  0  0  0  0
M  END
>  <minimizedAffinity>
-5.81473589

$$$$

 OpenBabel03272510053D

 36 38  0  0  1  0  0  0  0  0999 V2000
   37.8680   25.0020   33.8890 C   0  0  0  0  0  0  0  0  0  0  0  0
   38.0440   25.3950   35.1780 C   0  0  0  0  0  0  0  0  0  0  0  0
   37.7740   26.7110   35.5420 C   0  0  0  0  0  0  0  0  0  0  0  0
   37.3300   27.6570   34.6490 C   0  0  0  0  0  0  0  0  0  0  0  0
   37.1430   27.3000   33.3370 C   0  0  0  0  0  0  0  0  0  0  0  0
   37.4160   25.9970   33.0070 C   0  0  0  0  0  0  0  0  0  0  0  0
   37.9280   26.9910   36.6000 H   0  0  0  0  0  0  0  0  0  0  0  0
   37.1530   28.6380   35.0410 H   0  0  0  0  0  0  0  0  0  0  0  0
   36.8010   28.0680   32.6910 H   0  0  0  0  0  0  0  0  0  0  0  0
   37.2300   25.8450   31.9340 H   0  0  0  0  0  0  0  0  0  0  0  0
   38.2410   23.4290   38.2750 C   0  0  0  0  0  0  0  0  0  0  0  0
   37.7920   24.2870   37.2850 C   0  0  0  0  0  0  0  0  0  0  0  0
   38.5340   24.4950   36.1670 C   0  0  0  0  0  0  0  0  0  0  0  0
   39.7150   23.8250   36.0720 N   0  0  0  0  0  0  0  0  0  0  0  0
   40.1540   22.9920   37.0220 C   0  0  0  0  0  0  0  0  0  0  0  0
   39.4160   22.8010   38.1180 N   0  0  0  0  0  0  0  0  0  0  0  0
   37.7900   23.1560   39.2110 H   0  0  0  0  0  0  0  0  0  0  0  0
   36.8430   24.6130   37.6380 H   0  0  0  0  0  0  0  0  0  0  0  0
   41.4310   22.2760   36.7530 C   0  0  0  0  0  0  0  0  0  0  0  0
   42.5290   23.0970   36.9280 F   0  0  0  0  0  0  0  0  0  0  0  0
   41.6260   21.2800   37.7840 F   0  0  0  0  0  0  0  0  0  0  0  0
   41.5100   21.5870   35.6370 F   0  0  0  0  0  0  0  0  0  0  0  0
   38.1220   23.4180   33.3130 S   0  0  0  0  0  0  0  0  0  0  0  0
   39.4900   23.2840   32.7050 O   0  0  0  0  0  0  0  0  0  0  0  0
   37.3760   23.5140   32.0100 O   0  0  0  0  0  0  0  0  0  0  0  0
   37.2200   22.0290   33.6450 C   0  0  0  0  0  0  0  0  0  0  0  0
   37.6160   21.3510   34.4190 H   0  0  0  0  0  0  0  0  0  0  0  0
   36.2970   22.4170   34.2070 H   0  0  0  0  0  0  0  0  0  0  0  0
   36.6180   21.3330   32.4800 C   0  0  1  0  0  3  0  0  0  0  0  0
   37.1670   20.0170   32.0820 C   0  0  0  0  0  3  0  0  0  0  0  0
   37.4940   19.3960   32.9310 H   0  0  0  0  0  0  0  0  0  0  0  0
   35.9350   19.3560   31.4360 C   0  0  0  0  0  3  0  0  0  0  0  0
   35.9190   18.2640   31.6220 H   0  0  0  0  0  0  0  0  0  0  0  0
   34.8180   19.9390   31.9550 O   0  0  0  0  0  0  0  0  0  0  0  0
   35.1700   20.9230   32.8290 C   0  0  0  0  0  3  0  0  0  0  0  0
   35.2610   20.5260   33.8720 H   0  0  0  0  0  0  0  0  0  0  0  0
  1  2  1  0  0  0  0
  2  3  2  0  0  0  0
  2 13  1  0  0  0  0
  3  7  1  0  0  0  0
  4  8  1  0  0  0  0
  4  3  1  0  0  0  0
  5  4  2  0  0  0  0
  6  5  1  0  0  0  0
  6  1  2  0  0  0  0
  9  5  1  0  0  0  0
 10  6  1  0  0  0  0
 11 17  1  0  0  0  0
 12 18  1  0  0  0  0
 12 11  2  0  0  0  0
 13 12  1  0  0  0  0
 14 13  2  0  0  0  0
 14 15  1  0  0  0  0
 15 16  2  0  0  0  0
 16 11  1  0  0  0  0
 19 20  1  0  0  0  0
 19 15  1  0  0  0  0
 19 21  1  0  0  0  0
 22 19  1  0  0  0  0
 23 26  1  0  0  0  0
 23  1  1  0  0  0  0
 24 23  2  0  0  0  0
 25 23  2  0  0  0  0
 26 28  1  0  0  0  0
 26 27  1  0  0  0  0
 29 35  1  0  0  0  0
 29 26  1  1  0  0  0
 30 29  1  0  0  0  0
 30 31  1  0  0  0  0
 32 33  1  0  0  0  0
 32 34  1  0  0  0  0
 32 30  1  0  0  0  0
 34 35  1  0  0  0  0
 35 36  1  0  0  0  0
M  END
>  <minimizedAffinity>
-5.76125717

$$$$

 OpenBabel03272510053D

 36 38  0  0  1  0  0  0  0  0999 V2000
   37.3390   22.5100   33.3540 C   0  0  0  0  0  0  0  0  0  0  0  0
   37.2320   21.8840   34.5550 C   0  0  0  0  0  0  0  0  0  0  0  0
   36.3310   20.8340   34.7100 C   0  0  0  0  0  0  0  0  0  0  0  0
   35.5240   20.3870   33.6910 C   0  0  0  0  0  0  0  0  0  0  0  0
   35.6000   20.9960   32.4630 C   0  0  0  0  0  0  0  0  0  0  0  0
   36.4970   22.0270   32.3400 C   0  0  0  0  0  0  0  0  0  0  0  0
   36.2740   20.3500   35.7010 H   0  0  0  0  0  0  0  0  0  0  0  0
   34.8690   19.5710   33.9220 H   0  0  0  0  0  0  0  0  0  0  0  0
   34.9550   20.6140   31.7130 H   0  0  0  0  0  0  0  0  0  0  0  0
   36.4560   22.4270   31.3170 H   0  0  0  0  0  0  0  0  0  0  0  0
   38.1430   23.5470   37.7020 C   0  0  0  0  0  0  0  0  0  0  0  0
   37.4220   23.1120   36.6020 C   0  0  0  0  0  0  0  0  0  0  0  0
   38.0010   22.3000   35.6800 C   0  0  0  0  0  0  0  0  0  0  0  0
   39.2970   21.9410   35.8930 N   0  0  0  0  0  0  0  0  0  0  0  0
   39.9970   22.3550   36.9550 C   0  0  0  0  0  0  0  0  0  0  0  0
   39.4170   23.1560   37.8500 N   0  0  0  0  0  0  0  0  0  0  0  0
   37.8470   24.1850   38.5140 H   0  0  0  0  0  0  0  0  0  0  0  0
   36.4550   23.5280   36.7470 H   0  0  0  0  0  0  0  0  0  0  0  0
   41.3830   21.8290   37.0940 C   0  0  0  0  0  0  0  0  0  0  0  0
   41.8070   21.1840   35.9480 F   0  0  0  0  0  0  0  0  0  0  0  0
   42.2950   22.9500   37.1700 F   0  0  0  0  0  0  0  0  0  0  0  0
   41.6550   21.1330   38.1750 F   0  0  0  0  0  0  0  0  0  0  0  0
   38.4240   23.7800   33.0140 S   0  0  0  0  0  0  0  0  0  0  0  0
   38.4090   24.1180   31.5500 O   0  0  0  0  0  0  0  0  0  0  0  0
   39.7080   22.9970   32.9850 O   0  0  0  0  0  0  0  0  0  0  0  0
   39.1740   24.8330   34.1020 C   0  0  0  0  0  0  0  0  0  0  0  0
   39.4330   24.4230   35.0920 H   0  0  0  0  0  0  0  0  0  0  0  0
   40.2350   24.9640   33.6840 H   0  0  0  0  0  0  0  0  0  0  0  0
   38.6660   26.2270   34.1350 C   0  0  1  0  0  3  0  0  0  0  0  0
   37.2120   26.4540   33.9810 C   0  0  0  0  0  3  0  0  0  0  0  0
   36.5880   25.6760   34.4480 H   0  0  0  0  0  0  0  0  0  0  0  0
   37.0240   27.7680   34.7610 C   0  0  0  0  0  3  0  0  0  0  0  0
   36.0430   27.7960   35.2750 H   0  0  0  0  0  0  0  0  0  0  0  0
   38.0340   27.8710   35.6700 O   0  0  0  0  0  0  0  0  0  0  0  0
   38.8780   26.8080   35.5510 C   0  0  0  0  0  3  0  0  0  0  0  0
   38.5680   25.9670   36.2210 H   0  0  0  0  0  0  0  0  0  0  0  0
  1  2  1  0  0  0  0
  2  3  2  0  0  0  0
  2 13  1  0  0  0  0
  3  7  1  0  0  0  0
  4  8  1  0  0  0  0
  4  3  1  0  0  0  0
  5  4  2  0  0  0  0
  6  5  1  0  0  0  0
  6  1  2  0  0  0  0
  9  5  1  0  0  0  0
 10  6  1  0  0  0  0
 11 16  1  0  0  0  0
 11 17  1  0  0  0  0
 12 18  1  0  0  0  0
 12 11  2  0  0  0  0
 13 14  2  0  0  0  0
 13 12  1  0  0  0  0
 14 15  1  0  0  0  0
 15 19  1  0  0  0  0
 15 16  2  0  0  0  0
 19 21  1  0  0  0  0
 19 22  1  0  0  0  0
 20 19  1  0  0  0  0
 23  1  1  0  0  0  0
 23 26  1  0  0  0  0
 24 23  2  0  0  0  0
 25 23  2  0  0  0  0
 26 27  1  0  0  0  0
 28 26  1  0  0  0  0
 29 26  1  1  0  0  0
 29 35  1  0  0  0  0
 30 29  1  0  0  0  0
 30 31  1  0  0  0  0
 30 32  1  0  0  0  0
 32 33  1  0  0  0  0
 32 34  1  0  0  0  0
 35 34  1  0  0  0  0
 35 36  1  0  0  0  0
M  END
>  <minimizedAffinity>
-5.72823572

$$$$

 OpenBabel03272510053D

 36 38  0  0  1  0  0  0  0  0999 V2000
   37.0920   25.2190   32.7350 C   0  0  0  0  0  0  0  0  0  0  0  0
   37.4800   23.9740   33.1160 C   0  0  0  0  0  0  0  0  0  0  0  0
   36.9460   22.8580   32.4770 C   0  0  0  0  0  0  0  0  0  0  0  0
   36.0250   22.9490   31.4600 C   0  0  0  0  0  0  0  0  0  0  0  0
   35.6050   24.1900   31.0490 C   0  0  0  0  0  0  0  0  0  0  0  0
   36.1490   25.2710   31.6950 C   0  0  0  0  0  0  0  0  0  0  0  0
   37.2870   21.8630   32.8140 H   0  0  0  0  0  0  0  0  0  0  0  0
   35.6840   22.0240   31.0410 H   0  0  0  0  0  0  0  0  0  0  0  0
   34.8940   24.2030   30.2630 H   0  0  0  0  0  0  0  0  0  0  0  0
   35.7290   26.1960   31.2760 H   0  0  0  0  0  0  0  0  0  0  0  0
   40.6380   23.3790   34.8970 C   0  0  0  0  0  0  0  0  0  0  0  0
   39.7130   23.5860   33.8860 C   0  0  0  0  0  0  0  0  0  0  0  0
   38.4020   23.7790   34.1830 C   0  0  0  0  0  0  0  0  0  0  0  0
   38.0550   23.7640   35.5000 N   0  0  0  0  0  0  0  0  0  0  0  0
   38.9420   23.5690   36.4810 C   0  0  0  0  0  0  0  0  0  0  0  0
   40.2270   23.3760   36.1730 N   0  0  0  0  0  0  0  0  0  0  0  0
   41.6970   23.2100   34.8400 H   0  0  0  0  0  0  0  0  0  0  0  0
   40.2970   23.5780   32.9970 H   0  0  0  0  0  0  0  0  0  0  0  0
   38.4320   23.6450   37.8760 C   0  0  0  0  0  0  0  0  0  0  0  0
   39.4290   23.4110   38.8040 F   0  0  0  0  0  0  0  0  0  0  0  0
   38.0670   25.0170   38.1590 F   0  0  0  0  0  0  0  0  0  0  0  0
   37.3390   22.9700   38.1540 F   0  0  0  0  0  0  0  0  0  0  0  0
   37.6910   26.6690   33.4010 S   0  0  0  0  0  0  0  0  0  0  0  0
   39.0500   26.4580   34.0060 O   0  0  0  0  0  0  0  0  0  0  0  0
   36.9350   26.6670   34.7010 O   0  0  0  0  0  0  0  0  0  0  0  0
   37.1260   28.2420   33.1570 C   0  0  0  0  0  0  0  0  0  0  0  0
   37.8690   29.0540   33.2270 H   0  0  0  0  0  0  0  0  0  0  0  0
   36.9120   28.2960   32.0300 H   0  0  0  0  0  0  0  0  0  0  0  0
   35.8070   28.5750   33.7510 C   0  0  1  0  0  3  0  0  0  0  0  0
   35.6590   29.8600   34.4700 C   0  0  0  0  0  3  0  0  0  0  0  0
   36.2400   30.6860   34.0290 H   0  0  0  0  0  0  0  0  0  0  0  0
   34.1600   30.1510   34.2680 C   0  0  0  0  0  3  0  0  0  0  0  0
   33.9700   31.2380   34.1690 H   0  0  0  0  0  0  0  0  0  0  0  0
   33.7470   29.4970   33.1470 O   0  0  0  0  0  0  0  0  0  0  0  0
   34.7800   28.7850   32.6160 C   0  0  0  0  0  3  0  0  0  0  0  0
   35.3480   29.3910   31.8660 H   0  0  0  0  0  0  0  0  0  0  0  0
  1  2  1  0  0  0  0
  1 23  1  0  0  0  0
  2 13  1  0  0  0  0
  3  7  1  0  0  0  0
  3  2  2  0  0  0  0
  4  3  1  0  0  0  0
  5  4  2  0  0  0  0
  5  6  1  0  0  0  0
  6  1  2  0  0  0  0
  8  4  1  0  0  0  0
  9  5  1  0  0  0  0
 10  6  1  0  0  0  0
 11 16  1  0  0  0  0
 12 13  1  0  0  0  0
 12 11  2  0  0  0  0
 13 14  2  0  0  0  0
 14 15  1  0  0  0  0
 15 19  1  0  0  0  0
 16 15  2  0  0  0  0
 17 11  1  0  0  0  0
 18 12  1  0  0  0  0
 19 22  1  0  0  0  0
 19 21  1  0  0  0  0
 19 20  1  0  0  0  0
 23 24  2  0  0  0  0
 23 25  2  0  0  0  0
 26 27  1  0  0  0  0
 26 23  1  0  0  0  0
 28 26  1  0  0  0  0
 29 26  1  6  0  0  0
 29 30  1  0  0  0  0
 31 30  1  0  0  0  0
 32 30  1  0  0  0  0
 33 32  1  0  0  0  0
 34 32  1  0  0  0  0
 35 34  1  0  0  0  0
 35 29  1  0  0  0  0
 36 35  1  0  0  0  0
M  END
>  <minimizedAffinity>
-5.70929003

$$$$

 OpenBabel03272510053D

 36 38  0  0  1  0  0  0  0  0999 V2000
   37.0970   24.7500   32.7740 C   0  0  0  0  0  0  0  0  0  0  0  0
   37.5270   23.5250   33.1750 C   0  0  0  0  0  0  0  0  0  0  0  0
   37.0560   22.3820   32.5350 C   0  0  0  0  0  0  0  0  0  0  0  0
   36.1570   22.4250   31.4970 C   0  0  0  0  0  0  0  0  0  0  0  0
   35.6940   23.6430   31.0640 C   0  0  0  0  0  0  0  0  0  0  0  0
   36.1770   24.7530   31.7120 C   0  0  0  0  0  0  0  0  0  0  0  0
   37.4310   21.4060   32.8890 H   0  0  0  0  0  0  0  0  0  0  0  0
   35.8640   21.4840   31.0780 H   0  0  0  0  0  0  0  0  0  0  0  0
   35.0020   23.6200   30.2620 H   0  0  0  0  0  0  0  0  0  0  0  0
   35.7280   25.6550   31.2750 H   0  0  0  0  0  0  0  0  0  0  0  0
   40.6380   22.9200   35.0350 C   0  0  0  0  0  0  0  0  0  0  0  0
   39.7310   23.0830   34.0000 C   0  0  0  0  0  0  0  0  0  0  0  0
   38.4320   23.3780   34.2650 C   0  0  0  0  0  0  0  0  0  0  0  0
   38.0790   23.5070   35.5740 N   0  0  0  0  0  0  0  0  0  0  0  0
   38.9490   23.3540   36.5780 C   0  0  0  0  0  0  0  0  0  0  0  0
   40.2210   23.0600   36.3020 N   0  0  0  0  0  0  0  0  0  0  0  0
   41.6860   22.6850   35.0050 H   0  0  0  0  0  0  0  0  0  0  0  0
   40.3170   22.9590   33.1220 H   0  0  0  0  0  0  0  0  0  0  0  0
   38.4370   23.5900   37.9550 C   0  0  0  0  0  0  0  0  0  0  0  0
   39.4360   23.4730   38.9030 F   0  0  0  0  0  0  0  0  0  0  0  0
   38.0630   24.9820   38.0750 F   0  0  0  0  0  0  0  0  0  0  0  0
   37.3490   22.9440   38.3110 F   0  0  0  0  0  0  0  0  0  0  0  0
   37.6180   26.2290   33.4390 S   0  0  0  0  0  0  0  0  0  0  0  0
   36.9700   26.4730   34.7730 O   0  0  0  0  0  0  0  0  0  0  0  0
   36.7380   27.1670   32.6600 O   0  0  0  0  0  0  0  0  0  0  0  0
   38.9300   27.1830   32.9670 C   0  0  0  0  0  0  0  0  0  0  0  0
   38.8310   27.7290   32.0140 H   0  0  0  0  0  0  0  0  0  0  0  0
   38.9030   28.0780   33.6860 H   0  0  0  0  0  0  0  0  0  0  0  0
   40.2820   26.6190   33.2060 C   0  0  1  0  0  3  0  0  0  0  0  0
   41.4610   27.4030   32.7750 C   0  0  0  0  0  3  0  0  0  0  0  0
   41.3370   28.4920   32.8900 H   0  0  0  0  0  0  0  0  0  0  0  0
   42.5290   26.9220   33.7740 C   0  0  0  0  0  3  0  0  0  0  0  0
   43.2320   27.7370   34.0380 H   0  0  0  0  0  0  0  0  0  0  0  0
   41.8930   26.4690   34.8910 O   0  0  0  0  0  0  0  0  0  0  0  0
   40.5440   26.5590   34.7270 C   0  0  0  0  0  3  0  0  0  0  0  0
   40.1550   27.5430   35.0920 H   0  0  0  0  0  0  0  0  0  0  0  0
  1  2  1  0  0  0  0
  1 23  1  0  0  0  0
  2 13  1  0  0  0  0
  3  7  1  0  0  0  0
  3  2  2  0  0  0  0
  4  3  1  0  0  0  0
  5  4  2  0  0  0  0
  5  6  1  0  0  0  0
  6  1  2  0  0  0  0
  8  4  1  0  0  0  0
  9  5  1  0  0  0  0
 10  6  1  0  0  0  0
 11 16  1  0  0  0  0
 12 13  1  0  0  0  0
 12 11  2  0  0  0  0
 13 14  2  0  0  0  0
 14 15  1  0  0  0  0
 15 19  1  0  0  0  0
 16 15  2  0  0  0  0
 17 11  1  0  0  0  0
 18 12  1  0  0  0  0
 19 21  1  0  0  0  0
 19 22  1  0  0  0  0
 19 20  1  0  0  0  0
 23 24  2  0  0  0  0
 25 23  2  0  0  0  0
 26 23  1  0  0  0  0
 26 28  1  0  0  0  0
 27 26  1  0  0  0  0
 29 26  1  1  0  0  0
 29 35  1  0  0  0  0
 30 31  1  0  0  0  0
 30 29  1  0  0  0  0
 30 32  1  0  0  0  0
 32 33  1  0  0  0  0
 32 34  1  0  0  0  0
 35 34  1  0  0  0  0
 35 36  1  0  0  0  0
M  END
>  <minimizedAffinity>
-5.70272684

$$$$

 OpenBabel03272510053D

 36 38  0  0  1  0  0  0  0  0999 V2000
   38.9870   26.5280   33.8160 C   0  0  0  0  0  0  0  0  0  0  0  0
   38.7870   26.1850   32.5160 C   0  0  0  0  0  0  0  0  0  0  0  0
   39.7820   26.4310   31.5750 C   0  0  0  0  0  0  0  0  0  0  0  0
   40.9840   27.0170   31.8950 C   0  0  0  0  0  0  0  0  0  0  0  0
   41.2230   27.3810   33.1970 C   0  0  0  0  0  0  0  0  0  0  0  0
   40.2250   27.1250   34.1030 C   0  0  0  0  0  0  0  0  0  0  0  0
   39.5820   26.1370   30.5290 H   0  0  0  0  0  0  0  0  0  0  0  0
   41.6770   27.1570   31.0900 H   0  0  0  0  0  0  0  0  0  0  0  0
   42.1640   27.8300   33.3890 H   0  0  0  0  0  0  0  0  0  0  0  0
   40.5400   27.4660   35.0990 H   0  0  0  0  0  0  0  0  0  0  0  0
   35.4170   25.8810   31.0830 C   0  0  0  0  0  0  0  0  0  0  0  0
   36.6280   26.4060   31.5050 C   0  0  0  0  0  0  0  0  0  0  0  0
   37.5600   25.6050   32.0830 C   0  0  0  0  0  0  0  0  0  0  0  0
   37.2500   24.2860   32.2160 N   0  0  0  0  0  0  0  0  0  0  0  0
   36.0850   23.7710   31.8070 C   0  0  0  0  0  0  0  0  0  0  0  0
   35.1760   24.5720   31.2460 N   0  0  0  0  0  0  0  0  0  0  0  0
   34.5790   26.3640   30.6170 H   0  0  0  0  0  0  0  0  0  0  0  0
   36.5740   27.4320   31.2300 H   0  0  0  0  0  0  0  0  0  0  0  0
   35.9100   22.3010   31.9550 C   0  0  0  0  0  0  0  0  0  0  0  0
   36.3230   21.6170   30.8270 F   0  0  0  0  0  0  0  0  0  0  0  0
   36.8360   21.8250   32.9590 F   0  0  0  0  0  0  0  0  0  0  0  0
   34.7420   21.8750   32.3830 F   0  0  0  0  0  0  0  0  0  0  0  0
   37.8740   26.2500   35.0760 S   0  0  0  0  0  0  0  0  0  0  0  0
   36.7280   27.2200   35.0000 O   0  0  0  0  0  0  0  0  0  0  0  0
   38.5990   26.9470   36.1950 O   0  0  0  0  0  0  0  0  0  0  0  0
   37.7550   24.9030   36.0870 C   0  0  0  0  0  0  0  0  0  0  0  0
   37.0670   24.9840   36.9460 H   0  0  0  0  0  0  0  0  0  0  0  0
   37.1710   24.1330   35.4670 H   0  0  0  0  0  0  0  0  0  0  0  0
   39.0180   24.1830   36.3880 C   0  0  1  0  0  3  0  0  0  0  0  0
   39.0760   23.3310   37.5960 C   0  0  0  0  0  3  0  0  0  0  0  0
   38.1300   22.8120   37.8200 H   0  0  0  0  0  0  0  0  0  0  0  0
   40.1250   22.2830   37.1810 C   0  0  0  0  0  3  0  0  0  0  0  0
   39.8940   21.2880   37.6100 H   0  0  0  0  0  0  0  0  0  0  0  0
   40.1420   22.2150   35.8200 O   0  0  0  0  0  0  0  0  0  0  0  0
   39.2630   23.1160   35.2980 C   0  0  0  0  0  3  0  0  0  0  0  0
   38.2520   22.6600   35.1530 H   0  0  0  0  0  0  0  0  0  0  0  0
  1  6  1  0  0  0  0
  1 23  1  0  0  0  0
  2  1  2  0  0  0  0
  3  4  2  0  0  0  0
  3  2  1  0  0  0  0
  4  5  1  0  0  0  0
  5  9  1  0  0  0  0
  5  6  2  0  0  0  0
  6 10  1  0  0  0  0
  7  3  1  0  0  0  0
  8  4  1  0  0  0  0
 11 16  2  0  0  0  0
 11 12  1  0  0  0  0
 12 13  2  0  0  0  0
 13 14  1  0  0  0  0
 13  2  1  0  0  0  0
 15 19  1  0  0  0  0
 15 14  2  0  0  0  0
 16 15  1  0  0  0  0
 17 11  1  0  0  0  0
 18 12  1  0  0  0  0
 19 22  1  0  0  0  0
 19 21  1  0  0  0  0
 20 19  1  0  0  0  0
 23 26  1  0  0  0  0
 23 25  2  0  0  0  0
 24 23  2  0  0  0  0
 26 27  1  0  0  0  0
 28 26  1  0  0  0  0
 29 26  1  6  0  0  0
 29 30  1  0  0  0  0
 30 31  1  0  0  0  0
 32 30  1  0  0  0  0
 32 33  1  0  0  0  0
 34 32  1  0  0  0  0
 35 34  1  0  0  0  0
 35 29  1  0  0  0  0
 36 35  1  0  0  0  0
M  END
>  <minimizedAffinity>
-5.69447756

$$$$

 OpenBabel03272510053D

 36 38  0  0  1  0  0  0  0  0999 V2000
   40.0070   26.1420   33.0680 C   0  0  0  0  0  0  0  0  0  0  0  0
   40.5850   25.5390   34.1390 C   0  0  0  0  0  0  0  0  0  0  0  0
   41.8440   25.9490   34.5670 C   0  0  0  0  0  0  0  0  0  0  0  0
   42.5520   26.9530   33.9500 C   0  0  0  0  0  0  0  0  0  0  0  0
   42.0040   27.5850   32.8620 C   0  0  0  0  0  0  0  0  0  0  0  0
   40.7610   27.1610   32.4630 C   0  0  0  0  0  0  0  0  0  0  0  0
   42.2800   25.4350   35.4420 H   0  0  0  0  0  0  0  0  0  0  0  0
   43.5110   27.1870   34.3660 H   0  0  0  0  0  0  0  0  0  0  0  0
   42.5910   28.3510   32.4240 H   0  0  0  0  0  0  0  0  0  0  0  0
   40.4410   27.7410   31.5870 H   0  0  0  0  0  0  0  0  0  0  0  0
   39.2720   22.1820   34.8500 C   0  0  0  0  0  0  0  0  0  0  0  0
   39.8980   23.2470   34.2230 C   0  0  0  0  0  0  0  0  0  0  0  0
   39.9440   24.4650   34.8210 C   0  0  0  0  0  0  0  0  0  0  0  0
   39.3590   24.5790   36.0450 N   0  0  0  0  0  0  0  0  0  0  0  0
   38.7560   23.5540   36.6580 C   0  0  0  0  0  0  0  0  0  0  0  0
   38.7140   22.3640   36.0560 N   0  0  0  0  0  0  0  0  0  0  0  0
   39.1420   21.1670   34.5230 H   0  0  0  0  0  0  0  0  0  0  0  0
   40.2760   22.8290   33.3210 H   0  0  0  0  0  0  0  0  0  0  0  0
   38.2190   23.8070   38.0230 C   0  0  0  0  0  0  0  0  0  0  0  0
   37.2530   22.8840   38.3750 F   0  0  0  0  0  0  0  0  0  0  0  0
   39.2650   23.5390   38.9860 F   0  0  0  0  0  0  0  0  0  0  0  0
   37.8450   25.0350   38.3040 F   0  0  0  0  0  0  0  0  0  0  0  0
   38.4580   25.7680   32.4610 S   0  0  0  0  0  0  0  0  0  0  0  0
   38.5220   24.6000   31.5180 O   0  0  0  0  0  0  0  0  0  0  0  0
   38.3550   26.8270   31.3980 O   0  0  0  0  0  0  0  0  0  0  0  0
   36.9580   26.2950   33.0310 C   0  0  0  0  0  0  0  0  0  0  0  0
   36.0750   25.7110   32.7220 H   0  0  0  0  0  0  0  0  0  0  0  0
   36.9660   26.0220   34.1460 H   0  0  0  0  0  0  0  0  0  0  0  0
   36.7350   27.7620   33.0600 C   0  0  1  0  0  3  0  0  0  0  0  0
   35.5110   28.3040   32.4280 C   0  0  0  0  0  3  0  0  0  0  0  0
   34.6290   27.6540   32.5380 H   0  0  0  0  0  0  0  0  0  0  0  0
   35.2840   29.5850   33.2520 C   0  0  0  0  0  3  0  0  0  0  0  0
   34.2040   29.7950   33.3820 H   0  0  0  0  0  0  0  0  0  0  0  0
   35.8810   29.4200   34.4660 O   0  0  0  0  0  0  0  0  0  0  0  0
   36.5010   28.2090   34.5200 C   0  0  0  0  0  3  0  0  0  0  0  0
   35.8160   27.4200   34.9220 H   0  0  0  0  0  0  0  0  0  0  0  0
  1  2  1  0  0  0  0
  2  3  2  0  0  0  0
  2 13  1  0  0  0  0
  3  7  1  0  0  0  0
  4  8  1  0  0  0  0
  4  3  1  0  0  0  0
  5  4  2  0  0  0  0
  6  5  1  0  0  0  0
  6  1  2  0  0  0  0
  9  5  1  0  0  0  0
 10  6  1  0  0  0  0
 11 16  1  0  0  0  0
 12 13  1  0  0  0  0
 12 11  2  0  0  0  0
 13 14  2  0  0  0  0
 14 15  1  0  0  0  0
 15 19  1  0  0  0  0
 16 15  2  0  0  0  0
 17 11  1  0  0  0  0
 18 12  1  0  0  0  0
 19 22  1  0  0  0  0
 19 20  1  0  0  0  0
 19 21  1  0  0  0  0
 23 26  1  0  0  0  0
 23  1  1  0  0  0  0
 24 23  2  0  0  0  0
 25 23  2  0  0  0  0
 26 28  1  0  0  0  0
 27 26  1  0  0  0  0
 29 26  1  1  0  0  0
 29 35  1  0  0  0  0
 30 31  1  0  0  0  0
 30 29  1  0  0  0  0
 30 32  1  0  0  0  0
 32 33  1  0  0  0  0
 32 34  1  0  0  0  0
 34 35  1  0  0  0  0
 35 36  1  0  0  0  0
M  END
>  <minimizedAffinity>
-5.47558212

$$$$
