
 OpenBabel03272507553D

 22 23  0  0  1  0  0  0  0  0999 V2000
   35.4750   29.1550   50.4300 C   0  0  0  0  0  0  0  0  0  0  0  0
   36.2780   30.0610   49.7080 C   0  0  0  0  0  0  0  0  0  0  0  0
   36.1780   30.0730   48.3300 C   0  0  0  0  0  0  0  0  0  0  0  0
   35.3090   29.2080   47.7170 N   0  0  0  0  0  0  0  0  0  0  0  0
   34.5500   28.3470   48.4560 C   0  0  0  0  0  0  0  0  0  0  0  0
   34.6280   28.3160   49.8080 N   0  0  0  0  0  0  0  0  0  0  0  0
   33.7060   27.5260   47.6580 N   0  0  0  0  0  0  0  0  0  0  0  0
   35.5040   29.0930   51.5100 H   0  0  0  0  0  0  0  0  0  0  0  0
   32.9020   28.0090   47.1930 H   0  0  0  0  0  0  0  0  0  0  0  0
   33.9780   26.5020   47.6150 H   0  0  0  0  0  0  0  0  0  0  0  0
   36.9740   30.9910   47.4910 C   0  0  2  0  0  3  0  0  0  0  0  0
   36.5160   30.9950   46.0580 C   0  0  0  0  0  3  0  0  0  0  0  0
   35.8600   30.0950   45.9390 H   0  0  0  0  0  0  0  0  0  0  0  0
   37.7830   30.7870   45.2900 C   0  0  0  0  0  3  0  0  0  0  0  0
   37.9110   31.5940   44.5260 H   0  0  0  0  0  0  0  0  0  0  0  0
   38.8320   30.8720   46.1970 O   0  0  0  0  0  0  0  0  0  0  0  0
   38.3600   30.4470   47.4110 C   0  0  0  0  0  3  0  0  0  0  0  0
   39.0200   30.7990   48.2280 H   0  0  0  0  0  0  0  0  0  0  0  0
   37.2010   30.9580   50.4480 C   0  0  0  0  0  0  0  0  0  0  0  0
   38.5300   30.7700   50.0590 F   0  0  0  0  0  0  0  0  0  0  0  0
   36.8540   32.2540   50.2070 F   0  0  0  0  0  0  0  0  0  0  0  0
   37.1620   30.7520   51.8160 F   0  0  0  0  0  0  0  0  0  0  0  0
  1  8  1  0  0  0  0
  2  1  2  0  0  0  0
  2 19  1  0  0  0  0
  3  2  1  0  0  0  0
  4  3  2  0  0  0  0
  4  5  1  0  0  0  0
  5  6  2  0  0  0  0
  6  1  1  0  0  0  0
  7  5  1  0  0  0  0
  9  7  1  0  0  0  0
 10  7  1  0  0  0  0
 11  3  1  1  0  0  0
 12 11  1  0  0  0  0
 13 12  1  0  0  0  0
 14 12  1  0  0  0  0
 14 16  1  0  0  0  0
 15 14  1  0  0  0  0
 16 17  1  0  0  0  0
 17 11  1  0  0  0  0
 17 18  1  0  0  0  0
 19 22  1  0  0  0  0
 20 19  1  0  0  0  0
 21 19  1  0  0  0  0
M  END
>  <minimizedAffinity>
-4.80490971

>  <minimizedRMSD>
0.752983093

$$$$
