
 OpenBabel03272508273D

 37 40  0  0  1  0  0  0  0  0999 V2000
   33.9880   28.9680   47.3400 C   0  0  2  0  0  0  0  0  0  0  0  0
   34.7280   28.2300   48.4460 C   0  0  2  0  0  0  0  0  0  0  0  0
   33.8190   28.0730   49.4540 O   0  0  0  0  0  0  0  0  0  0  0  0
   32.5510   28.1150   48.9700 C   0  0  0  0  0  0  0  0  0  0  0  0
   32.6180   28.2890   47.4680 C   0  0  1  0  0  0  0  0  0  0  0  0
   33.8110   30.0190   47.5830 H   0  0  0  0  0  0  0  0  0  0  0  0
   35.0330   27.2600   47.9830 H   0  0  0  0  0  0  0  0  0  0  0  0
   31.9780   27.2180   49.2640 H   0  0  0  0  0  0  0  0  0  0  0  0
   32.0490   29.0240   49.4030 H   0  0  0  0  0  0  0  0  0  0  0  0
   32.6920   27.2920   46.9900 H   0  0  0  0  0  0  0  0  0  0  0  0
   35.7760   30.5180   49.0390 C   0  0  1  0  0  0  0  0  0  0  0  0
   35.8760   29.0890   48.8640 C   0  0  1  0  0  0  0  0  0  0  0  0
   36.0030   29.6130   50.2580 C   0  0  0  0  0  0  0  0  0  0  0  0
   34.8690   31.1220   49.1920 H   0  0  0  0  0  0  0  0  0  0  0  0
   36.8550   28.7100   48.4480 H   0  0  0  0  0  0  0  0  0  0  0  0
   35.1470   29.3850   50.9170 H   0  0  0  0  0  0  0  0  0  0  0  0
   36.9760   29.6360   50.7680 H   0  0  0  0  0  0  0  0  0  0  0  0
   36.9680   31.4260   48.7870 C   0  0  0  0  0  0  0  0  0  0  0  0
   37.1830   32.4720   49.6850 C   0  0  0  0  0  0  0  0  0  0  0  0
   38.2710   33.2840   49.3920 C   0  0  0  0  0  0  0  0  0  0  0  0
   39.0560   33.0460   48.2900 N   0  0  0  0  0  0  0  0  0  0  0  0
   38.8060   32.0170   47.4490 C   0  0  0  0  0  0  0  0  0  0  0  0
   37.7530   31.2010   47.7010 N   0  0  0  0  0  0  0  0  0  0  0  0
   36.5390   32.6120   50.5280 H   0  0  0  0  0  0  0  0  0  0  0  0
   38.4710   34.1080   50.0660 H   0  0  0  0  0  0  0  0  0  0  0  0
   39.4560   31.8790   46.6010 H   0  0  0  0  0  0  0  0  0  0  0  0
   34.5320   28.7750   46.0840 O   0  0  0  0  0  0  0  0  0  0  0  0
   34.5310   27.7990   45.9040 H   0  0  0  0  0  0  0  0  0  0  0  0
   31.6200   29.0630   46.9410 O   0  0  0  0  0  0  0  0  0  0  0  0
   30.8840   28.4550   45.9460 C   0  0  2  0  0  3  0  0  0  0  0  0
   31.2920   27.0090   45.7260 C   0  0  0  0  0  3  0  0  0  0  0  0
   30.7030   26.2930   46.2970 H   0  0  0  0  0  0  0  0  0  0  0  0
   30.9240   26.8530   44.2590 C   0  0  0  0  0  3  0  0  0  0  0  0
   29.8510   26.5430   44.1670 H   0  0  0  0  0  0  0  0  0  0  0  0
   31.1620   28.0690   43.6510 O   0  0  0  0  0  0  0  0  0  0  0  0
   31.2870   29.0500   44.6210 C   0  0  0  0  0  3  0  0  0  0  0  0
   30.7610   29.9940   44.3750 H   0  0  0  0  0  0  0  0  0  0  0  0
  1  5  1  0  0  0  0
  1  6  1  1  0  0  0
  1  2  1  0  0  0  0
  2  7  1  6  0  0  0
  2 12  1  0  0  0  0
  2  3  1  0  0  0  0
  4  8  1  0  0  0  0
  4  9  1  0  0  0  0
  4  3  1  0  0  0  0
  5 10  1  6  0  0  0
  5  4  1  0  0  0  0
 11 14  1  6  0  0  0
 11 13  1  0  0  0  0
 12 15  1  6  0  0  0
 12 11  1  0  0  0  0
 12 13  1  0  0  0  0
 13 17  1  0  0  0  0
 13 16  1  0  0  0  0
 18 11  1  0  0  0  0
 18 19  1  0  0  0  0
 19 24  1  0  0  0  0
 20 19  2  0  0  0  0
 20 25  1  0  0  0  0
 21 20  1  0  0  0  0
 22 23  1  0  0  0  0
 22 21  2  0  0  0  0
 23 18  2  0  0  0  0
 26 22  1  0  0  0  0
 27  1  1  0  0  0  0
 28 27  1  0  0  0  0
 29  5  1  0  0  0  0
 30 29  1  1  0  0  0
 31 30  1  0  0  0  0
 31 32  1  0  0  0  0
 33 31  1  0  0  0  0
 34 33  1  0  0  0  0
 35 33  1  0  0  0  0
 35 36  1  0  0  0  0
 36 30  1  0  0  0  0
 37 36  1  0  0  0  0
M  END
>  <minimizedAffinity>
-4.67171478

>  <minimizedRMSD>
0.141331449

$$$$
