
 OpenBabel03272506153D

 23 24  0  0  1  0  0  0  0  0999 V2000
   38.5400   24.5940   35.1270 C   0  0  0  0  0  0  0  0  0  0  0  0
   38.1540   25.9010   34.7940 C   0  0  0  0  0  0  0  0  0  0  0  0
   37.4970   26.0930   33.5870 C   0  0  0  0  0  0  0  0  0  0  0  0
   37.2550   25.0260   32.7880 N   0  0  0  0  0  0  0  0  0  0  0  0
   37.6430   23.7630   33.1390 C   0  0  0  0  0  0  0  0  0  0  0  0
   38.2890   23.5460   34.3150 N   0  0  0  0  0  0  0  0  0  0  0  0
   38.4010   26.6550   35.5030 H   0  0  0  0  0  0  0  0  0  0  0  0
   37.4160   22.9520   32.4500 H   0  0  0  0  0  0  0  0  0  0  0  0
   37.0940   27.4520   33.2370 C   0  0  2  0  0  3  0  0  0  0  0  0
   36.4040   28.1700   34.4050 C   0  0  0  0  0  3  0  0  0  0  0  0
   35.6100   27.5540   34.8250 H   0  0  0  0  0  0  0  0  0  0  0  0
   35.7400   29.2860   33.5870 C   0  0  0  0  0  3  0  0  0  0  0  0
   35.0000   29.8340   34.1710 H   0  0  0  0  0  0  0  0  0  0  0  0
   35.2620   28.6830   32.4540 O   0  0  0  0  0  0  0  0  0  0  0  0
   36.0380   27.5660   32.1870 C   0  0  0  0  0  3  0  0  0  0  0  0
   35.3700   26.6690   32.2860 H   0  0  0  0  0  0  0  0  0  0  0  0
   39.2060   24.2150   36.2910 O   0  0  0  0  0  0  0  0  0  0  0  0
   37.8260   24.4550   38.5670 O   0  0  0  0  0  0  0  0  0  0  0  0
   38.4100   23.4500   37.6020 P   0  0  0  0  0  0  0  0  0  0  0  0
   37.2150   22.4630   36.9120 O   0  0  0  0  0  0  0  0  0  0  0  0
   37.5830   22.0450   36.1030 H   0  0  0  0  0  0  0  0  0  0  0  0
   39.5280   22.5210   38.4650 O   0  0  0  0  0  0  0  0  0  0  0  0
   39.1780   22.2400   39.3420 H   0  0  0  0  0  0  0  0  0  0  0  0
  1 17  1  0  0  0  0
  2  1  1  0  0  0  0
  2  7  1  0  0  0  0
  3  2  2  0  0  0  0
  4  5  2  0  0  0  0
  4  3  1  0  0  0  0
  5  6  1  0  0  0  0
  6  1  2  0  0  0  0
  8  5  1  0  0  0  0
  9  3  1  1  0  0  0
  9 10  1  0  0  0  0
 10 11  1  0  0  0  0
 12 13  1  0  0  0  0
 12 10  1  0  0  0  0
 14 12  1  0  0  0  0
 15 16  1  0  0  0  0
 15 14  1  0  0  0  0
 15  9  1  0  0  0  0
 17 19  1  0  0  0  0
 19 22  1  0  0  0  0
 19 18  2  0  0  0  0
 20 19  1  0  0  0  0
 21 20  1  0  0  0  0
 22 23  1  0  0  0  0
M  END
>  <minimizedAffinity>
-4.72008181

$$$$

 OpenBabel03272506153D

 23 24  0  0  1  0  0  0  0  0999 V2000
   38.4000   23.7690   35.1470 C   0  0  0  0  0  0  0  0  0  0  0  0
   37.9000   24.5280   34.0790 C   0  0  0  0  0  0  0  0  0  0  0  0
   37.5790   23.8600   32.9060 C   0  0  0  0  0  0  0  0  0  0  0  0
   37.7560   22.5190   32.8380 N   0  0  0  0  0  0  0  0  0  0  0  0
   38.2460   21.8050   33.8970 C   0  0  0  0  0  0  0  0  0  0  0  0
   38.5690   22.4340   35.0570 N   0  0  0  0  0  0  0  0  0  0  0  0
   37.8070   25.5730   34.2540 H   0  0  0  0  0  0  0  0  0  0  0  0
   38.3630   20.7300   33.7730 H   0  0  0  0  0  0  0  0  0  0  0  0
   37.0580   24.6470   31.7920 C   0  0  2  0  0  3  0  0  0  0  0  0
   36.5930   26.0410   32.2350 C   0  0  0  0  0  3  0  0  0  0  0  0
   35.9290   25.9740   33.0960 H   0  0  0  0  0  0  0  0  0  0  0  0
   35.7320   26.3630   31.0070 C   0  0  0  0  0  3  0  0  0  0  0  0
   35.1050   27.2420   31.1680 H   0  0  0  0  0  0  0  0  0  0  0  0
   35.0560   25.2080   30.7140 O   0  0  0  0  0  0  0  0  0  0  0  0
   35.8060   24.1320   31.1620 C   0  0  0  0  0  3  0  0  0  0  0  0
   35.2090   23.6280   31.9690 H   0  0  0  0  0  0  0  0  0  0  0  0
   38.7750   24.2680   36.3930 O   0  0  0  0  0  0  0  0  0  0  0  0
   38.3130   24.3680   39.0240 O   0  0  0  0  0  0  0  0  0  0  0  0
   38.4670   23.4250   37.8540 P   0  0  0  0  0  0  0  0  0  0  0  0
   37.0620   22.5150   37.5810 O   0  0  0  0  0  0  0  0  0  0  0  0
   37.0960   22.1500   36.6710 H   0  0  0  0  0  0  0  0  0  0  0  0
   39.7770   22.4130   38.1990 O   0  0  0  0  0  0  0  0  0  0  0  0
   39.7510   22.0760   39.1230 H   0  0  0  0  0  0  0  0  0  0  0  0
  1 17  1  0  0  0  0
  2  7  1  0  0  0  0
  2  1  2  0  0  0  0
  3  2  1  0  0  0  0
  4  3  2  0  0  0  0
  4  5  1  0  0  0  0
  5  6  2  0  0  0  0
  6  1  1  0  0  0  0
  8  5  1  0  0  0  0
  9 10  1  0  0  0  0
  9  3  1  1  0  0  0
 10 11  1  0  0  0  0
 12 13  1  0  0  0  0
 12 10  1  0  0  0  0
 14 12  1  0  0  0  0
 14 15  1  0  0  0  0
 15  9  1  0  0  0  0
 15 16  1  0  0  0  0
 17 19  1  0  0  0  0
 19 22  1  0  0  0  0
 19 18  2  0  0  0  0
 20 19  1  0  0  0  0
 21 20  1  0  0  0  0
 22 23  1  0  0  0  0
M  END
>  <minimizedAffinity>
-4.64013624

$$$$

 OpenBabel03272506153D

 23 24  0  0  1  0  0  0  0  0999 V2000
   38.2860   22.7670   34.5110 C   0  0  0  0  0  0  0  0  0  0  0  0
   37.3870   21.8300   33.9820 C   0  0  0  0  0  0  0  0  0  0  0  0
   36.7610   22.1400   32.7830 C   0  0  0  0  0  0  0  0  0  0  0  0
   37.0380   23.3200   32.1770 N   0  0  0  0  0  0  0  0  0  0  0  0
   37.9200   24.2150   32.7180 C   0  0  0  0  0  0  0  0  0  0  0  0
   38.5460   23.9360   33.8900 N   0  0  0  0  0  0  0  0  0  0  0  0
   37.2520   20.9410   34.5500 H   0  0  0  0  0  0  0  0  0  0  0  0
   38.0960   25.1430   32.1780 H   0  0  0  0  0  0  0  0  0  0  0  0
   35.8240   21.1660   32.2290 C   0  0  2  0  0  3  0  0  0  0  0  0
   35.6090   19.9710   33.1680 C   0  0  0  0  0  3  0  0  0  0  0  0
   36.5620   19.5550   33.4910 H   0  0  0  0  0  0  0  0  0  0  0  0
   35.0100   19.0110   32.1320 C   0  0  0  0  0  3  0  0  0  0  0  0
   34.9550   17.9880   32.5090 H   0  0  0  0  0  0  0  0  0  0  0  0
   35.7570   19.1760   30.9960 O   0  0  0  0  0  0  0  0  0  0  0  0
   36.2770   20.4610   30.9930 C   0  0  0  0  0  3  0  0  0  0  0  0
   37.3950   20.3630   31.0540 H   0  0  0  0  0  0  0  0  0  0  0  0
   39.0010   22.6270   35.6990 O   0  0  0  0  0  0  0  0  0  0  0  0
   38.2360   24.6470   37.2730 O   0  0  0  0  0  0  0  0  0  0  0  0
   38.3860   23.1450   37.2130 P   0  0  0  0  0  0  0  0  0  0  0  0
   36.9000   22.3500   37.4100 O   0  0  0  0  0  0  0  0  0  0  0  0
   36.9900   21.4300   37.0790 H   0  0  0  0  0  0  0  0  0  0  0  0
   39.4680   22.7020   38.4330 O   0  0  0  0  0  0  0  0  0  0  0  0
   39.2750   23.1600   39.2840 H   0  0  0  0  0  0  0  0  0  0  0  0
  1 17  1  0  0  0  0
  2  1  1  0  0  0  0
  2  7  1  0  0  0  0
  3  2  2  0  0  0  0
  4  5  2  0  0  0  0
  4  3  1  0  0  0  0
  5  6  1  0  0  0  0
  6  1  2  0  0  0  0
  8  5  1  0  0  0  0
  9  3  1  1  0  0  0
  9 10  1  0  0  0  0
 10 11  1  0  0  0  0
 12 13  1  0  0  0  0
 12 10  1  0  0  0  0
 14 12  1  0  0  0  0
 15 14  1  0  0  0  0
 15 16  1  0  0  0  0
 15  9  1  0  0  0  0
 17 19  1  0  0  0  0
 19 18  2  0  0  0  0
 19 20  1  0  0  0  0
 19 22  1  0  0  0  0
 21 20  1  0  0  0  0
 22 23  1  0  0  0  0
M  END
>  <minimizedAffinity>
-4.57401848

$$$$

 OpenBabel03272506153D

 23 24  0  0  1  0  0  0  0  0999 V2000
   36.1040   24.8890   31.2630 C   0  0  0  0  0  0  0  0  0  0  0  0
   35.4710   23.6510   31.4480 C   0  0  0  0  0  0  0  0  0  0  0  0
   36.2050   22.5040   31.1800 C   0  0  0  0  0  0  0  0  0  0  0  0
   37.4850   22.6210   30.7550 N   0  0  0  0  0  0  0  0  0  0  0  0
   38.0760   23.8420   30.5830 C   0  0  0  0  0  0  0  0  0  0  0  0
   37.3820   24.9810   30.8380 N   0  0  0  0  0  0  0  0  0  0  0  0
   34.4630   23.6890   31.7850 H   0  0  0  0  0  0  0  0  0  0  0  0
   39.1090   23.8630   30.2400 H   0  0  0  0  0  0  0  0  0  0  0  0
   35.5490   21.2130   31.3720 C   0  0  2  0  0  3  0  0  0  0  0  0
   35.5610   20.7710   32.8420 C   0  0  0  0  0  3  0  0  0  0  0  0
   36.5640   20.8390   33.2600 H   0  0  0  0  0  0  0  0  0  0  0  0
   35.2570   19.2860   32.6050 C   0  0  0  0  0  3  0  0  0  0  0  0
   35.4160   18.6890   33.5040 H   0  0  0  0  0  0  0  0  0  0  0  0
   36.0080   18.9210   31.5190 O   0  0  0  0  0  0  0  0  0  0  0  0
   36.2200   20.0430   30.7320 C   0  0  0  0  0  3  0  0  0  0  0  0
   37.3240   20.2450   30.7390 H   0  0  0  0  0  0  0  0  0  0  0  0
   35.5260   26.1380   31.4800 O   0  0  0  0  0  0  0  0  0  0  0  0
   35.5280   28.8100   31.5450 O   0  0  0  0  0  0  0  0  0  0  0  0
   36.3510   27.6050   31.1550 P   0  0  0  0  0  0  0  0  0  0  0  0
   37.8080   27.5230   32.0210 O   0  0  0  0  0  0  0  0  0  0  0  0
   38.1580   26.6080   31.9600 H   0  0  0  0  0  0  0  0  0  0  0  0
   36.6480   27.7200   29.4950 O   0  0  0  0  0  0  0  0  0  0  0  0
   36.9190   28.6280   29.2290 H   0  0  0  0  0  0  0  0  0  0  0  0
  1  2  1  0  0  0  0
  1 17  1  0  0  0  0
  2  7  1  0  0  0  0
  3  2  2  0  0  0  0
  4  3  1  0  0  0  0
  5  4  2  0  0  0  0
  5  6  1  0  0  0  0
  6  1  2  0  0  0  0
  8  5  1  0  0  0  0
  9  3  1  1  0  0  0
  9 10  1  0  0  0  0
 10 11  1  0  0  0  0
 12 10  1  0  0  0  0
 12 13  1  0  0  0  0
 14 12  1  0  0  0  0
 15 16  1  0  0  0  0
 15  9  1  0  0  0  0
 15 14  1  0  0  0  0
 19 17  1  0  0  0  0
 19 18  2  0  0  0  0
 19 20  1  0  0  0  0
 21 20  1  0  0  0  0
 22 19  1  0  0  0  0
 23 22  1  0  0  0  0
M  END
>  <minimizedAffinity>
-4.39135647

$$$$

 OpenBabel03272506153D

 23 24  0  0  1  0  0  0  0  0999 V2000
   37.3700   26.3090   33.6920 C   0  0  0  0  0  0  0  0  0  0  0  0
   37.5270   25.1590   34.4790 C   0  0  0  0  0  0  0  0  0  0  0  0
   37.9780   25.3230   35.7810 C   0  0  0  0  0  0  0  0  0  0  0  0
   38.2470   26.5700   36.2370 N   0  0  0  0  0  0  0  0  0  0  0  0
   38.0850   27.6730   35.4450 C   0  0  0  0  0  0  0  0  0  0  0  0
   37.6440   27.5420   34.1670 N   0  0  0  0  0  0  0  0  0  0  0  0
   37.2840   24.2360   34.0080 H   0  0  0  0  0  0  0  0  0  0  0  0
   38.3180   28.6450   35.8760 H   0  0  0  0  0  0  0  0  0  0  0  0
   38.1420   24.1270   36.6030 C   0  0  2  0  0  3  0  0  0  0  0  0
   38.0320   24.4360   38.1030 C   0  0  0  0  0  3  0  0  0  0  0  0
   38.6780   25.2690   38.3760 H   0  0  0  0  0  0  0  0  0  0  0  0
   38.6900   23.1490   38.6190 C   0  0  0  0  0  3  0  0  0  0  0  0
   38.9270   23.2110   39.6820 H   0  0  0  0  0  0  0  0  0  0  0  0
   39.7590   22.9210   37.7930 O   0  0  0  0  0  0  0  0  0  0  0  0
   39.4900   23.4870   36.5570 C   0  0  0  0  0  3  0  0  0  0  0  0
   40.2440   24.3050   36.3990 H   0  0  0  0  0  0  0  0  0  0  0  0
   36.9310   26.3360   32.3700 O   0  0  0  0  0  0  0  0  0  0  0  0
   38.6130   27.9740   31.0920 O   0  0  0  0  0  0  0  0  0  0  0  0
   37.1510   27.6980   31.3530 P   0  0  0  0  0  0  0  0  0  0  0  0
   36.3040   27.3550   29.9230 O   0  0  0  0  0  0  0  0  0  0  0  0
   35.4630   26.9070   30.1570 H   0  0  0  0  0  0  0  0  0  0  0  0
   36.5130   29.0670   32.1120 O   0  0  0  0  0  0  0  0  0  0  0  0
   36.8030   29.9010   31.6770 H   0  0  0  0  0  0  0  0  0  0  0  0
  1  6  2  0  0  0  0
  1  2  1  0  0  0  0
  2  3  2  0  0  0  0
  3  4  1  0  0  0  0
  5  8  1  0  0  0  0
  5  4  2  0  0  0  0
  6  5  1  0  0  0  0
  7  2  1  0  0  0  0
  9  3  1  6  0  0  0
  9 10  1  0  0  0  0
 10 11  1  0  0  0  0
 10 12  1  0  0  0  0
 12 13  1  0  0  0  0
 14 12  1  0  0  0  0
 15  9  1  0  0  0  0
 15 14  1  0  0  0  0
 16 15  1  0  0  0  0
 17  1  1  0  0  0  0
 18 19  2  0  0  0  0
 19 22  1  0  0  0  0
 19 17  1  0  0  0  0
 20 21  1  0  0  0  0
 20 19  1  0  0  0  0
 23 22  1  0  0  0  0
M  END
>  <minimizedAffinity>
-4.34593153

$$$$

 OpenBabel03272506153D

 23 24  0  0  1  0  0  0  0  0999 V2000
   37.2340   25.7800   33.1550 C   0  0  0  0  0  0  0  0  0  0  0  0
   37.8250   25.6550   34.4210 C   0  0  0  0  0  0  0  0  0  0  0  0
   38.2390   24.3910   34.8180 C   0  0  0  0  0  0  0  0  0  0  0  0
   38.0600   23.3410   33.9820 N   0  0  0  0  0  0  0  0  0  0  0  0
   37.4800   23.4940   32.7530 C   0  0  0  0  0  0  0  0  0  0  0  0
   37.0650   24.7200   32.3380 N   0  0  0  0  0  0  0  0  0  0  0  0
   37.9110   26.5520   34.9850 H   0  0  0  0  0  0  0  0  0  0  0  0
   37.3670   22.6080   32.1310 H   0  0  0  0  0  0  0  0  0  0  0  0
   38.8550   24.2580   36.1360 C   0  0  2  0  0  3  0  0  0  0  0  0
   39.5080   22.8830   36.3330 C   0  0  0  0  0  3  0  0  0  0  0  0
   38.8170   22.0830   36.0700 H   0  0  0  0  0  0  0  0  0  0  0  0
   39.6050   22.9270   37.8640 C   0  0  0  0  0  3  0  0  0  0  0  0
   39.8560   21.9520   38.2840 H   0  0  0  0  0  0  0  0  0  0  0  0
   38.4210   23.4630   38.2960 O   0  0  0  0  0  0  0  0  0  0  0  0
   37.9160   24.2800   37.2970 C   0  0  0  0  0  3  0  0  0  0  0  0
   36.9490   23.8210   36.9540 H   0  0  0  0  0  0  0  0  0  0  0  0
   36.7600   26.9630   32.5920 O   0  0  0  0  0  0  0  0  0  0  0  0
   36.2350   28.6030   30.5470 O   0  0  0  0  0  0  0  0  0  0  0  0
   36.5960   27.1790   30.8990 P   0  0  0  0  0  0  0  0  0  0  0  0
   38.0820   26.7150   30.2230 O   0  0  0  0  0  0  0  0  0  0  0  0
   38.4100   25.9230   30.7010 H   0  0  0  0  0  0  0  0  0  0  0  0
   35.3470   26.1920   30.3320 O   0  0  0  0  0  0  0  0  0  0  0  0
   35.0690   26.4340   29.4190 H   0  0  0  0  0  0  0  0  0  0  0  0
  1  2  1  0  0  0  0
  2  3  2  0  0  0  0
  2  7  1  0  0  0  0
  4  3  1  0  0  0  0
  5  4  2  0  0  0  0
  6  5  1  0  0  0  0
  6  1  2  0  0  0  0
  8  5  1  0  0  0  0
  9  3  1  6  0  0  0
  9 10  1  0  0  0  0
  9 15  1  0  0  0  0
 10 12  1  0  0  0  0
 11 10  1  0  0  0  0
 12 13  1  0  0  0  0
 12 14  1  0  0  0  0
 15 14  1  0  0  0  0
 16 15  1  0  0  0  0
 17  1  1  0  0  0  0
 18 19  2  0  0  0  0
 19 17  1  0  0  0  0
 20 21  1  0  0  0  0
 20 19  1  0  0  0  0
 22 19  1  0  0  0  0
 23 22  1  0  0  0  0
M  END
>  <minimizedAffinity>
-4.29848671

$$$$

 OpenBabel03272506153D

 23 24  0  0  1  0  0  0  0  0999 V2000
   38.3410   25.7850   35.8280 C   0  0  0  0  0  0  0  0  0  0  0  0
   37.3130   26.3690   35.0730 C   0  0  0  0  0  0  0  0  0  0  0  0
   37.6690   27.0750   33.9330 C   0  0  0  0  0  0  0  0  0  0  0  0
   38.9770   27.1720   33.5950 N   0  0  0  0  0  0  0  0  0  0  0  0
   39.9580   26.5910   34.3510 C   0  0  0  0  0  0  0  0  0  0  0  0
   39.6380   25.8950   35.4730 N   0  0  0  0  0  0  0  0  0  0  0  0
   36.3250   26.2230   35.4410 H   0  0  0  0  0  0  0  0  0  0  0  0
   40.9890   26.7090   34.0220 H   0  0  0  0  0  0  0  0  0  0  0  0
   36.6010   27.6840   33.1450 C   0  0  2  0  0  3  0  0  0  0  0  0
   37.1320   28.3570   31.8720 C   0  0  0  0  0  3  0  0  0  0  0  0
   37.9640   29.0220   32.1020 H   0  0  0  0  0  0  0  0  0  0  0  0
   35.9050   29.2330   31.5840 C   0  0  0  0  0  3  0  0  0  0  0  0
   36.1120   29.9850   30.8210 H   0  0  0  0  0  0  0  0  0  0  0  0
   35.5070   29.7250   32.7990 O   0  0  0  0  0  0  0  0  0  0  0  0
   35.8970   28.8340   33.7860 C   0  0  0  0  0  3  0  0  0  0  0  0
   36.6450   29.3660   34.4330 H   0  0  0  0  0  0  0  0  0  0  0  0
   38.1720   25.0450   36.9960 O   0  0  0  0  0  0  0  0  0  0  0  0
   37.0780   22.6160   36.7840 O   0  0  0  0  0  0  0  0  0  0  0  0
   38.3750   23.3440   37.0480 P   0  0  0  0  0  0  0  0  0  0  0  0
   39.5570   22.9790   35.8870 O   0  0  0  0  0  0  0  0  0  0  0  0
   40.2530   23.6700   35.9190 H   0  0  0  0  0  0  0  0  0  0  0  0
   38.8950   22.8930   38.5920 O   0  0  0  0  0  0  0  0  0  0  0  0
   38.8180   21.9220   38.7400 H   0  0  0  0  0  0  0  0  0  0  0  0
  1 17  1  0  0  0  0
  2  7  1  0  0  0  0
  2  1  2  0  0  0  0
  3  2  1  0  0  0  0
  4  3  2  0  0  0  0
  4  5  1  0  0  0  0
  5  6  2  0  0  0  0
  6  1  1  0  0  0  0
  8  5  1  0  0  0  0
  9 15  1  0  0  0  0
  9  3  1  1  0  0  0
 10 11  1  0  0  0  0
 10  9  1  0  0  0  0
 12 10  1  0  0  0  0
 12 14  1  0  0  0  0
 13 12  1  0  0  0  0
 14 15  1  0  0  0  0
 15 16  1  0  0  0  0
 17 19  1  0  0  0  0
 18 19  2  0  0  0  0
 19 22  1  0  0  0  0
 20 21  1  0  0  0  0
 20 19  1  0  0  0  0
 22 23  1  0  0  0  0
M  END
>  <minimizedAffinity>
-4.26310253

$$$$

 OpenBabel03272506153D

 23 24  0  0  1  0  0  0  0  0999 V2000
   37.4030   24.7770   32.7140 C   0  0  0  0  0  0  0  0  0  0  0  0
   37.0560   23.4550   32.3990 C   0  0  0  0  0  0  0  0  0  0  0  0
   35.9950   23.2560   31.5270 C   0  0  0  0  0  0  0  0  0  0  0  0
   35.3440   24.3300   31.0200 N   0  0  0  0  0  0  0  0  0  0  0  0
   35.7050   25.6080   31.3450 C   0  0  0  0  0  0  0  0  0  0  0  0
   36.7400   25.8320   32.1970 N   0  0  0  0  0  0  0  0  0  0  0  0
   37.6420   22.6970   32.8620 H   0  0  0  0  0  0  0  0  0  0  0  0
   35.1390   26.4240   30.9010 H   0  0  0  0  0  0  0  0  0  0  0  0
   35.6320   21.8800   31.1970 C   0  0  2  0  0  3  0  0  0  0  0  0
   34.9820   21.1530   32.3830 C   0  0  0  0  0  3  0  0  0  0  0  0
   35.5860   21.2610   33.2830 H   0  0  0  0  0  0  0  0  0  0  0  0
   35.1740   19.7210   31.8650 C   0  0  0  0  0  3  0  0  0  0  0  0
   34.9740   18.9780   32.6390 H   0  0  0  0  0  0  0  0  0  0  0  0
   36.4340   19.6840   31.3300 O   0  0  0  0  0  0  0  0  0  0  0  0
   36.7710   20.9600   30.9060 C   0  0  0  0  0  3  0  0  0  0  0  0
   37.6410   21.2960   31.5320 H   0  0  0  0  0  0  0  0  0  0  0  0
   38.4340   25.1660   33.5680 O   0  0  0  0  0  0  0  0  0  0  0  0
   37.9000   25.0200   36.1830 O   0  0  0  0  0  0  0  0  0  0  0  0
   38.1470   25.9850   35.0460 P   0  0  0  0  0  0  0  0  0  0  0  0
   39.5160   26.9500   35.3190 O   0  0  0  0  0  0  0  0  0  0  0  0
   39.8040   27.3340   34.4620 H   0  0  0  0  0  0  0  0  0  0  0  0
   36.7620   26.9410   34.8930 O   0  0  0  0  0  0  0  0  0  0  0  0
   36.4320   27.2570   35.7650 H   0  0  0  0  0  0  0  0  0  0  0  0
  1 17  1  0  0  0  0
  2  1  1  0  0  0  0
  2  7  1  0  0  0  0
  3  2  2  0  0  0  0
  4  5  2  0  0  0  0
  4  3  1  0  0  0  0
  5  6  1  0  0  0  0
  6  1  2  0  0  0  0
  8  5  1  0  0  0  0
  9  3  1  1  0  0  0
  9 10  1  0  0  0  0
 10 11  1  0  0  0  0
 12 10  1  0  0  0  0
 12 13  1  0  0  0  0
 14 12  1  0  0  0  0
 15  9  1  0  0  0  0
 15 14  1  0  0  0  0
 15 16  1  0  0  0  0
 17 19  1  0  0  0  0
 19 20  1  0  0  0  0
 19 18  2  0  0  0  0
 21 20  1  0  0  0  0
 22 19  1  0  0  0  0
 22 23  1  0  0  0  0
M  END
>  <minimizedAffinity>
-4.21062231

$$$$

 OpenBabel03272506153D

 23 24  0  0  1  0  0  0  0  0999 V2000
   38.4180   24.7450   35.1530 C   0  0  0  0  0  0  0  0  0  0  0  0
   38.1120   25.9900   34.5860 C   0  0  0  0  0  0  0  0  0  0  0  0
   37.5940   26.0040   33.2990 C   0  0  0  0  0  0  0  0  0  0  0  0
   37.4060   24.8310   32.6480 N   0  0  0  0  0  0  0  0  0  0  0  0
   37.7150   23.6310   33.2270 C   0  0  0  0  0  0  0  0  0  0  0  0
   38.2230   23.5890   34.4860 N   0  0  0  0  0  0  0  0  0  0  0  0
   38.3050   26.8400   35.1960 H   0  0  0  0  0  0  0  0  0  0  0  0
   37.5370   22.7280   32.6470 H   0  0  0  0  0  0  0  0  0  0  0  0
   37.2740   27.3000   32.7050 C   0  0  2  0  0  3  0  0  0  0  0  0
   35.9730   27.2580   31.8910 C   0  0  0  0  0  3  0  0  0  0  0  0
   35.9800   26.4250   31.1900 H   0  0  0  0  0  0  0  0  0  0  0  0
   36.2020   28.5440   31.0860 C   0  0  0  0  0  3  0  0  0  0  0  0
   35.4960   28.6380   30.2600 H   0  0  0  0  0  0  0  0  0  0  0  0
   37.5240   28.5270   30.7260 O   0  0  0  0  0  0  0  0  0  0  0  0
   38.2270   27.7910   31.6660 C   0  0  0  0  0  3  0  0  0  0  0  0
   38.6390   26.8900   31.1370 H   0  0  0  0  0  0  0  0  0  0  0  0
   38.9450   24.5390   36.4270 O   0  0  0  0  0  0  0  0  0  0  0  0
   40.0280   22.1140   36.7240 O   0  0  0  0  0  0  0  0  0  0  0  0
   38.9110   23.0110   37.2030 P   0  0  0  0  0  0  0  0  0  0  0  0
   39.0190   23.3290   38.8660 O   0  0  0  0  0  0  0  0  0  0  0  0
   38.4760   24.1210   39.0700 H   0  0  0  0  0  0  0  0  0  0  0  0
   37.4550   22.2330   36.8360 O   0  0  0  0  0  0  0  0  0  0  0  0
   37.4760   21.2780   37.0720 H   0  0  0  0  0  0  0  0  0  0  0  0
  1 17  1  0  0  0  0
  2  1  1  0  0  0  0
  2  7  1  0  0  0  0
  3  2  2  0  0  0  0
  4  5  2  0  0  0  0
  4  3  1  0  0  0  0
  5  6  1  0  0  0  0
  6  1  2  0  0  0  0
  8  5  1  0  0  0  0
  9  3  1  6  0  0  0
 10  9  1  0  0  0  0
 11 10  1  0  0  0  0
 12 10  1  0  0  0  0
 13 12  1  0  0  0  0
 14 12  1  0  0  0  0
 14 15  1  0  0  0  0
 15  9  1  0  0  0  0
 16 15  1  0  0  0  0
 17 19  1  0  0  0  0
 18 19  2  0  0  0  0
 19 20  1  0  0  0  0
 20 21  1  0  0  0  0
 22 23  1  0  0  0  0
 22 19  1  0  0  0  0
M  END
>  <minimizedAffinity>
-4.06241035

$$$$
