
 OpenBabel03272507373D

 22 23  0  0  1  0  0  0  0  0999 V2000
   37.2780   30.5970   49.2330 C   0  0  0  0  0  0  0  0  0  0  0  0
   36.2970   29.6660   48.9420 C   0  0  0  0  0  0  0  0  0  0  0  0
   35.7200   28.9420   49.9580 C   0  0  0  0  0  0  0  0  0  0  0  0
   36.1580   29.1850   51.2330 N   0  0  0  0  0  0  0  0  0  0  0  0
   37.1220   30.1040   51.5060 C   0  0  0  0  0  0  0  0  0  0  0  0
   37.6650   30.7920   50.5080 N   0  0  0  0  0  0  0  0  0  0  0  0
   34.9460   28.2000   49.7760 H   0  0  0  0  0  0  0  0  0  0  0  0
   37.4480   30.2740   52.5240 H   0  0  0  0  0  0  0  0  0  0  0  0
   34.5900   29.9610   47.2240 C   0  0  0  0  0  0  0  0  0  0  0  0
   33.7200   30.7440   47.7240 O   0  0  0  0  0  0  0  0  0  0  0  0
   35.8230   29.3890   47.6510 N   0  0  0  0  0  0  0  0  0  0  0  0
   34.1560   29.7660   46.2410 H   0  0  0  0  0  0  0  0  0  0  0  0
   36.2690   28.8020   46.9370 H   0  0  0  0  0  0  0  0  0  0  0  0
   37.7680   31.2490   48.1190 O   0  0  0  0  0  0  0  0  0  0  0  0
   38.8260   32.1460   48.3620 C   0  0  2  0  0  3  0  0  0  0  0  0
   38.3940   33.3930   49.1060 C   0  0  0  0  0  3  0  0  0  0  0  0
   38.3150   33.2610   50.1920 H   0  0  0  0  0  0  0  0  0  0  0  0
   39.5080   34.3390   48.6970 C   0  0  0  0  0  3  0  0  0  0  0  0
   39.1130   35.3550   48.5070 H   0  0  0  0  0  0  0  0  0  0  0  0
   40.1180   33.8050   47.5840 O   0  0  0  0  0  0  0  0  0  0  0  0
   39.3220   32.8100   47.0750 C   0  0  0  0  0  3  0  0  0  0  0  0
   39.8880   32.0320   46.5290 H   0  0  0  0  0  0  0  0  0  0  0  0
  1  6  1  0  0  0  0
  2  1  2  0  0  0  0
  2  3  1  0  0  0  0
  3  4  2  0  0  0  0
  4  5  1  0  0  0  0
  5  8  1  0  0  0  0
  6  5  2  0  0  0  0
  7  3  1  0  0  0  0
  9 11  1  0  0  0  0
  9 10  2  0  0  0  0
 11  2  1  0  0  0  0
 12  9  1  0  0  0  0
 13 11  1  0  0  0  0
 14  1  1  0  0  0  0
 15 14  1  6  0  0  0
 15 16  1  0  0  0  0
 16 17  1  0  0  0  0
 18 16  1  0  0  0  0
 19 18  1  0  0  0  0
 20 18  1  0  0  0  0
 21 20  1  0  0  0  0
 21 15  1  0  0  0  0
 22 21  1  0  0  0  0
M  END
>  <minimizedAffinity>
-4.01302433

>  <minimizedRMSD>
5.26975155

$$$$
