
 OpenBabel03272508283D

 37 40  0  0  1  0  0  0  0  0999 V2000
   33.8040   28.8870   47.2210 C   0  0  2  0  0  0  0  0  0  0  0  0
   34.5220   28.1190   48.3190 C   0  0  2  0  0  0  0  0  0  0  0  0
   33.6040   27.9630   49.3190 O   0  0  0  0  0  0  0  0  0  0  0  0
   32.3400   28.0380   48.8280 C   0  0  0  0  0  0  0  0  0  0  0  0
   32.4200   28.2340   47.3290 C   0  0  1  0  0  0  0  0  0  0  0  0
   33.6460   29.9380   47.4780 H   0  0  0  0  0  0  0  0  0  0  0  0
   34.8110   27.1500   47.8430 H   0  0  0  0  0  0  0  0  0  0  0  0
   31.7480   27.1470   49.1040 H   0  0  0  0  0  0  0  0  0  0  0  0
   31.8530   28.9490   49.2720 H   0  0  0  0  0  0  0  0  0  0  0  0
   32.4780   27.2430   46.8360 H   0  0  0  0  0  0  0  0  0  0  0  0
   35.5980   30.3670   49.0060 C   0  0  1  0  0  0  0  0  0  0  0  0
   35.6840   28.9480   48.7580 C   0  0  1  0  0  0  0  0  0  0  0  0
   35.8410   29.4010   50.1730 C   0  0  0  0  0  0  0  0  0  0  0  0
   34.6980   30.9690   49.2060 H   0  0  0  0  0  0  0  0  0  0  0  0
   36.6520   28.5840   48.3040 H   0  0  0  0  0  0  0  0  0  0  0  0
   34.9950   29.1450   50.8370 H   0  0  0  0  0  0  0  0  0  0  0  0
   36.8230   29.3920   50.6660 H   0  0  0  0  0  0  0  0  0  0  0  0
   36.7910   31.2790   48.7770 C   0  0  0  0  0  0  0  0  0  0  0  0
   37.0380   32.2690   49.7290 C   0  0  0  0  0  0  0  0  0  0  0  0
   38.1260   33.0880   49.4560 C   0  0  0  0  0  0  0  0  0  0  0  0
   38.8800   32.9090   48.3210 N   0  0  0  0  0  0  0  0  0  0  0  0
   38.6000   31.9340   47.4290 C   0  0  0  0  0  0  0  0  0  0  0  0
   37.5460   31.1120   47.6590 N   0  0  0  0  0  0  0  0  0  0  0  0
   36.4170   32.3640   50.5950 H   0  0  0  0  0  0  0  0  0  0  0  0
   38.3500   33.8690   50.1720 H   0  0  0  0  0  0  0  0  0  0  0  0
   39.2270   31.8410   46.5570 H   0  0  0  0  0  0  0  0  0  0  0  0
   34.3520   28.7030   45.9650 O   0  0  0  0  0  0  0  0  0  0  0  0
   34.3330   27.7310   45.7690 H   0  0  0  0  0  0  0  0  0  0  0  0
   31.4410   29.0350   46.8080 O   0  0  0  0  0  0  0  0  0  0  0  0
   30.2530   28.3900   46.5370 C   0  0  2  0  0  3  0  0  0  0  0  0
   29.8150   28.5670   45.0930 C   0  0  0  0  0  3  0  0  0  0  0  0
   30.1440   27.7680   44.4320 H   0  0  0  0  0  0  0  0  0  0  0  0
   28.3080   28.4450   45.2590 C   0  0  0  0  0  3  0  0  0  0  0  0
   28.0050   27.3670   45.1990 H   0  0  0  0  0  0  0  0  0  0  0  0
   27.9900   29.0020   46.4820 O   0  0  0  0  0  0  0  0  0  0  0  0
   29.1400   29.1240   47.2440 C   0  0  0  0  0  3  0  0  0  0  0  0
   29.0100   28.8280   48.3030 H   0  0  0  0  0  0  0  0  0  0  0  0
  1  5  1  0  0  0  0
  1  6  1  1  0  0  0
  1  2  1  0  0  0  0
  2  7  1  6  0  0  0
  2 12  1  0  0  0  0
  2  3  1  0  0  0  0
  4  8  1  0  0  0  0
  4  9  1  0  0  0  0
  4  3  1  0  0  0  0
  5 10  1  6  0  0  0
  5  4  1  0  0  0  0
 11 14  1  6  0  0  0
 11 13  1  0  0  0  0
 12 15  1  6  0  0  0
 12 11  1  0  0  0  0
 12 13  1  0  0  0  0
 13 17  1  0  0  0  0
 13 16  1  0  0  0  0
 18 11  1  0  0  0  0
 18 19  1  0  0  0  0
 19 24  1  0  0  0  0
 20 19  2  0  0  0  0
 20 25  1  0  0  0  0
 21 20  1  0  0  0  0
 22 23  1  0  0  0  0
 22 21  2  0  0  0  0
 23 18  2  0  0  0  0
 26 22  1  0  0  0  0
 27  1  1  0  0  0  0
 28 27  1  0  0  0  0
 29  5  1  0  0  0  0
 30 29  1  6  0  0  0
 30 36  1  0  0  0  0
 31 33  1  0  0  0  0
 31 30  1  0  0  0  0
 32 31  1  0  0  0  0
 33 35  1  0  0  0  0
 34 33  1  0  0  0  0
 35 36  1  0  0  0  0
 36 37  1  0  0  0  0
M  END
>  <minimizedAffinity>
-5.00882626

>  <minimizedRMSD>
0.754139543

$$$$
