
 OpenBabel03272508033D

 27 29  0  0  1  0  0  0  0  0999 V2000
   37.4370   26.1000   34.2480 C   0  0  0  0  0  0  0  0  0  0  0  0
   36.9890   27.2700   34.8230 C   0  0  0  0  0  0  0  0  0  0  0  0
   36.5990   28.1710   33.8380 C   0  0  0  0  0  0  0  0  0  0  0  0
   36.8320   27.4910   32.6680 N   0  0  0  0  0  0  0  0  0  0  0  0
   37.3190   26.2930   32.9220 N   0  0  0  0  0  0  0  0  0  0  0  0
   36.9380   27.4820   35.8960 H   0  0  0  0  0  0  0  0  0  0  0  0
   36.2060   29.1660   33.9660 H   0  0  0  0  0  0  0  0  0  0  0  0
   37.9300   24.9170   34.9320 C   0  0  0  0  0  0  0  0  0  0  0  0
   37.8700   24.8850   36.3400 C   0  0  0  0  0  0  0  0  0  0  0  0
   38.3490   23.7380   36.9990 C   0  0  0  0  0  0  0  0  0  0  0  0
   38.8410   22.7270   36.2310 N   0  0  0  0  0  0  0  0  0  0  0  0
   38.8860   22.7800   34.8900 C   0  0  0  0  0  0  0  0  0  0  0  0
   38.4260   23.8840   34.2530 N   0  0  0  0  0  0  0  0  0  0  0  0
   37.4680   25.7190   36.9170 H   0  0  0  0  0  0  0  0  0  0  0  0
   39.2960   21.9270   34.3600 H   0  0  0  0  0  0  0  0  0  0  0  0
   38.2960   23.6830   38.4740 C   0  0  0  0  0  0  0  0  0  0  0  0
   37.8500   24.9300   38.8860 F   0  0  0  0  0  0  0  0  0  0  0  0
   37.4140   22.7240   38.9420 F   0  0  0  0  0  0  0  0  0  0  0  0
   39.5570   23.4770   39.0350 F   0  0  0  0  0  0  0  0  0  0  0  0
   36.5710   28.0480   31.3800 C   0  0  1  0  0  3  0  0  0  0  0  0
   36.2630   29.5300   31.3920 C   0  0  0  0  0  3  0  0  0  0  0  0
   35.1700   29.7200   31.4100 H   0  0  0  0  0  0  0  0  0  0  0  0
   36.7450   29.8880   29.9790 C   0  0  0  0  0  3  0  0  0  0  0  0
   36.1120   29.3500   29.2550 H   0  0  0  0  0  0  0  0  0  0  0  0
   37.9920   29.2580   29.9850 O   0  0  0  0  0  0  0  0  0  0  0  0
   37.7580   27.9820   30.4500 C   0  0  0  0  0  3  0  0  0  0  0  0
   37.5740   27.3450   29.5540 H   0  0  0  0  0  0  0  0  0  0  0  0
  1  2  1  0  0  0  0
  1  8  1  0  0  0  0
  2  6  1  0  0  0  0
  3  7  1  0  0  0  0
  3  2  2  0  0  0  0
  4  5  1  0  0  0  0
  4  3  1  0  0  0  0
  5  1  2  0  0  0  0
  8  9  1  0  0  0  0
  9 14  1  0  0  0  0
  9 10  2  0  0  0  0
 10 16  1  0  0  0  0
 11 10  1  0  0  0  0
 12 11  2  0  0  0  0
 13 12  1  0  0  0  0
 13  8  2  0  0  0  0
 15 12  1  0  0  0  0
 16 17  1  0  0  0  0
 16 18  1  0  0  0  0
 16 19  1  0  0  0  0
 20 21  1  0  0  0  0
 20  4  1  1  0  0  0
 21 22  1  0  0  0  0
 23 25  1  0  0  0  0
 23 21  1  0  0  0  0
 24 23  1  0  0  0  0
 25 26  1  0  0  0  0
 26 20  1  0  0  0  0
 27 26  1  0  0  0  0
M  END
>  <minimizedAffinity>
-5.49979067

$$$$

 OpenBabel03272508033D

 27 29  0  0  1  0  0  0  0  0999 V2000
   37.4360   26.5460   34.2420 C   0  0  0  0  0  0  0  0  0  0  0  0
   37.4030   26.8180   32.8910 C   0  0  0  0  0  0  0  0  0  0  0  0
   36.6690   27.9740   32.6520 C   0  0  0  0  0  0  0  0  0  0  0  0
   36.2740   28.3710   33.9050 N   0  0  0  0  0  0  0  0  0  0  0  0
   36.7250   27.5320   34.8160 N   0  0  0  0  0  0  0  0  0  0  0  0
   37.8780   26.2250   32.1030 H   0  0  0  0  0  0  0  0  0  0  0  0
   36.4620   28.4460   31.7050 H   0  0  0  0  0  0  0  0  0  0  0  0
   38.0980   25.4320   34.8980 C   0  0  0  0  0  0  0  0  0  0  0  0
   37.8550   25.2250   36.2720 C   0  0  0  0  0  0  0  0  0  0  0  0
   38.4970   24.1450   36.9040 C   0  0  0  0  0  0  0  0  0  0  0  0
   39.3160   23.3650   36.1460 N   0  0  0  0  0  0  0  0  0  0  0  0
   39.5320   23.5820   34.8390 C   0  0  0  0  0  0  0  0  0  0  0  0
   38.9150   24.6220   34.2270 N   0  0  0  0  0  0  0  0  0  0  0  0
   37.1890   25.8750   36.8410 H   0  0  0  0  0  0  0  0  0  0  0  0
   40.2020   22.9090   34.3140 H   0  0  0  0  0  0  0  0  0  0  0  0
   38.2560   23.9090   38.3420 C   0  0  0  0  0  0  0  0  0  0  0  0
   39.4500   23.4240   38.8540 F   0  0  0  0  0  0  0  0  0  0  0  0
   37.9230   25.0660   39.0260 F   0  0  0  0  0  0  0  0  0  0  0  0
   37.2770   22.9380   38.5550 F   0  0  0  0  0  0  0  0  0  0  0  0
   35.4820   29.5360   34.1390 C   0  0  1  0  0  3  0  0  0  0  0  0
   35.9900   30.4220   35.2560 C   0  0  0  0  0  3  0  0  0  0  0  0
   35.4810   30.2000   36.2170 H   0  0  0  0  0  0  0  0  0  0  0  0
   35.4340   31.7680   34.7690 C   0  0  0  0  0  3  0  0  0  0  0  0
   34.3340   31.7050   34.7710 H   0  0  0  0  0  0  0  0  0  0  0  0
   35.8460   31.7270   33.4350 O   0  0  0  0  0  0  0  0  0  0  0  0
   35.4640   30.4880   32.9680 C   0  0  0  0  0  3  0  0  0  0  0  0
   34.4480   30.6140   32.5250 H   0  0  0  0  0  0  0  0  0  0  0  0
  1  5  2  0  0  0  0
  1  8  1  0  0  0  0
  2  1  1  0  0  0  0
  3  2  2  0  0  0  0
  3  4  1  0  0  0  0
  4  5  1  0  0  0  0
  6  2  1  0  0  0  0
  7  3  1  0  0  0  0
  8  9  1  0  0  0  0
  9 14  1  0  0  0  0
  9 10  2  0  0  0  0
 10 16  1  0  0  0  0
 11 10  1  0  0  0  0
 12 11  2  0  0  0  0
 13 12  1  0  0  0  0
 13  8  2  0  0  0  0
 15 12  1  0  0  0  0
 16 19  1  0  0  0  0
 16 17  1  0  0  0  0
 16 18  1  0  0  0  0
 20  4  1  6  0  0  0
 20 21  1  0  0  0  0
 21 22  1  0  0  0  0
 23 24  1  0  0  0  0
 23 21  1  0  0  0  0
 25 23  1  0  0  0  0
 26 25  1  0  0  0  0
 26 20  1  0  0  0  0
 27 26  1  0  0  0  0
M  END
>  <minimizedAffinity>
-5.4708395

$$$$

 OpenBabel03272508033D

 27 29  0  0  1  0  0  0  0  0999 V2000
   37.7340   25.9880   33.9520 C   0  0  0  0  0  0  0  0  0  0  0  0
   38.2150   26.3160   32.7030 C   0  0  0  0  0  0  0  0  0  0  0  0
   37.6950   27.5390   32.2930 C   0  0  0  0  0  0  0  0  0  0  0  0
   36.8940   27.9160   33.3420 N   0  0  0  0  0  0  0  0  0  0  0  0
   36.9260   27.0070   34.2960 N   0  0  0  0  0  0  0  0  0  0  0  0
   38.9080   25.7180   32.1020 H   0  0  0  0  0  0  0  0  0  0  0  0
   37.8790   28.0640   31.3700 H   0  0  0  0  0  0  0  0  0  0  0  0
   38.0370   24.7970   34.7260 C   0  0  0  0  0  0  0  0  0  0  0  0
   37.9860   24.8820   36.1320 C   0  0  0  0  0  0  0  0  0  0  0  0
   38.2800   23.7270   36.8790 C   0  0  0  0  0  0  0  0  0  0  0  0
   38.5970   22.5940   36.1920 N   0  0  0  0  0  0  0  0  0  0  0  0
   38.6380   22.5370   34.8510 C   0  0  0  0  0  0  0  0  0  0  0  0
   38.3560   23.6490   34.1290 N   0  0  0  0  0  0  0  0  0  0  0  0
   37.7270   25.8110   36.6420 H   0  0  0  0  0  0  0  0  0  0  0  0
   38.9010   21.5920   34.3890 H   0  0  0  0  0  0  0  0  0  0  0  0
   38.2320   23.7930   38.3530 C   0  0  0  0  0  0  0  0  0  0  0  0
   39.4870   23.3990   38.7930 F   0  0  0  0  0  0  0  0  0  0  0  0
   37.9830   25.0710   38.8240 F   0  0  0  0  0  0  0  0  0  0  0  0
   37.2980   22.9050   38.8860 F   0  0  0  0  0  0  0  0  0  0  0  0
   36.1470   29.1330   33.3520 C   0  0  1  0  0  3  0  0  0  0  0  0
   35.5030   29.4800   32.0260 C   0  0  0  0  0  3  0  0  0  0  0  0
   36.1340   30.1750   31.4350 H   0  0  0  0  0  0  0  0  0  0  0  0
   34.3140   30.3030   32.5440 C   0  0  0  0  0  3  0  0  0  0  0  0
   34.7120   31.1990   33.0470 H   0  0  0  0  0  0  0  0  0  0  0  0
   33.8460   29.4440   33.5410 O   0  0  0  0  0  0  0  0  0  0  0  0
   34.9550   29.0940   34.2780 C   0  0  0  0  0  3  0  0  0  0  0  0
   35.0290   29.8290   35.1130 H   0  0  0  0  0  0  0  0  0  0  0  0
  1  5  2  0  0  0  0
  1  8  1  0  0  0  0
  2  1  1  0  0  0  0
  3  2  2  0  0  0  0
  3  4  1  0  0  0  0
  4  5  1  0  0  0  0
  6  2  1  0  0  0  0
  7  3  1  0  0  0  0
  8  9  1  0  0  0  0
  9 14  1  0  0  0  0
  9 10  2  0  0  0  0
 10 16  1  0  0  0  0
 11 10  1  0  0  0  0
 12 11  2  0  0  0  0
 13  8  2  0  0  0  0
 13 12  1  0  0  0  0
 15 12  1  0  0  0  0
 16 17  1  0  0  0  0
 16 18  1  0  0  0  0
 16 19  1  0  0  0  0
 20  4  1  6  0  0  0
 20 26  1  0  0  0  0
 21 23  1  0  0  0  0
 21 20  1  0  0  0  0
 22 21  1  0  0  0  0
 23 24  1  0  0  0  0
 23 25  1  0  0  0  0
 25 26  1  0  0  0  0
 26 27  1  0  0  0  0
M  END
>  <minimizedAffinity>
-5.30493307

$$$$

 OpenBabel03272508033D

 27 29  0  0  1  0  0  0  0  0999 V2000
   37.9480   25.1780   34.8740 C   0  0  0  0  0  0  0  0  0  0  0  0
   37.8680   24.7240   33.5750 C   0  0  0  0  0  0  0  0  0  0  0  0
   37.3860   25.7300   32.7440 C   0  0  0  0  0  0  0  0  0  0  0  0
   37.1870   26.7870   33.5980 N   0  0  0  0  0  0  0  0  0  0  0  0
   37.5160   26.4510   34.8290 N   0  0  0  0  0  0  0  0  0  0  0  0
   38.1390   23.7230   33.2240 H   0  0  0  0  0  0  0  0  0  0  0  0
   37.2120   25.6870   31.6810 H   0  0  0  0  0  0  0  0  0  0  0  0
   38.4010   24.4360   36.0380 C   0  0  0  0  0  0  0  0  0  0  0  0
   39.5830   23.6750   35.9270 C   0  0  0  0  0  0  0  0  0  0  0  0
   40.0190   22.9580   37.0560 C   0  0  0  0  0  0  0  0  0  0  0  0
   39.2680   23.0450   38.1880 N   0  0  0  0  0  0  0  0  0  0  0  0
   38.1460   23.7760   38.2700 C   0  0  0  0  0  0  0  0  0  0  0  0
   37.7230   24.4680   37.1840 N   0  0  0  0  0  0  0  0  0  0  0  0
   40.1540   23.6340   34.9990 H   0  0  0  0  0  0  0  0  0  0  0  0
   37.6110   23.7870   39.2140 H   0  0  0  0  0  0  0  0  0  0  0  0
   41.2550   22.1540   36.9620 C   0  0  0  0  0  0  0  0  0  0  0  0
   42.3020   23.0640   36.9690 F   0  0  0  0  0  0  0  0  0  0  0  0
   41.4150   21.2920   38.0330 F   0  0  0  0  0  0  0  0  0  0  0  0
   41.3230   21.4380   35.7670 F   0  0  0  0  0  0  0  0  0  0  0  0
   36.6880   28.0520   33.1650 C   0  0  1  0  0  3  0  0  0  0  0  0
   35.6470   27.9710   32.0690 C   0  0  0  0  0  3  0  0  0  0  0  0
   36.1020   28.0980   31.0640 H   0  0  0  0  0  0  0  0  0  0  0  0
   34.8800   29.2670   32.3680 C   0  0  0  0  0  3  0  0  0  0  0  0
   35.5660   30.1150   32.2110 H   0  0  0  0  0  0  0  0  0  0  0  0
   34.7040   29.1270   33.7460 O   0  0  0  0  0  0  0  0  0  0  0  0
   35.9460   28.8010   34.2450 C   0  0  0  0  0  3  0  0  0  0  0  0
   36.4390   29.7610   34.5260 H   0  0  0  0  0  0  0  0  0  0  0  0
  1  8  1  0  0  0  0
  2  1  1  0  0  0  0
  3  2  2  0  0  0  0
  3  4  1  0  0  0  0
  4  5  1  0  0  0  0
  5  1  2  0  0  0  0
  6  2  1  0  0  0  0
  7  3  1  0  0  0  0
  8 13  1  0  0  0  0
  9  8  2  0  0  0  0
  9 10  1  0  0  0  0
 10 11  2  0  0  0  0
 11 12  1  0  0  0  0
 12 15  1  0  0  0  0
 13 12  2  0  0  0  0
 14  9  1  0  0  0  0
 16 17  1  0  0  0  0
 16 10  1  0  0  0  0
 16 18  1  0  0  0  0
 19 16  1  0  0  0  0
 20  4  1  1  0  0  0
 20 26  1  0  0  0  0
 21 23  1  0  0  0  0
 21 20  1  0  0  0  0
 22 21  1  0  0  0  0
 23 25  1  0  0  0  0
 24 23  1  0  0  0  0
 25 26  1  0  0  0  0
 26 27  1  0  0  0  0
M  END
>  <minimizedAffinity>
-5.19613409

$$$$

 OpenBabel03272508033D

 27 29  0  0  1  0  0  0  0  0999 V2000
   38.0830   26.4760   34.3420 C   0  0  0  0  0  0  0  0  0  0  0  0
   39.4290   26.7460   34.4650 C   0  0  0  0  0  0  0  0  0  0  0  0
   40.0810   25.6750   35.0650 C   0  0  0  0  0  0  0  0  0  0  0  0
   39.0750   24.7680   35.2890 N   0  0  0  0  0  0  0  0  0  0  0  0
   37.9220   25.2470   34.8650 N   0  0  0  0  0  0  0  0  0  0  0  0
   39.9340   27.6630   34.1450 H   0  0  0  0  0  0  0  0  0  0  0  0
   41.1300   25.5810   35.2970 H   0  0  0  0  0  0  0  0  0  0  0  0
   37.0620   27.3370   33.7700 C   0  0  0  0  0  0  0  0  0  0  0  0
   36.6160   28.4390   34.5280 C   0  0  0  0  0  0  0  0  0  0  0  0
   35.6270   29.2700   33.9720 C   0  0  0  0  0  0  0  0  0  0  0  0
   35.1620   28.9560   32.7310 N   0  0  0  0  0  0  0  0  0  0  0  0
   35.6030   27.9010   32.0280 C   0  0  0  0  0  0  0  0  0  0  0  0
   36.5550   27.0980   32.5620 N   0  0  0  0  0  0  0  0  0  0  0  0
   37.0170   28.6540   35.5190 H   0  0  0  0  0  0  0  0  0  0  0  0
   35.1740   27.7260   31.0470 H   0  0  0  0  0  0  0  0  0  0  0  0
   35.1450   30.4310   34.7470 C   0  0  0  0  0  0  0  0  0  0  0  0
   36.1150   30.6760   35.7080 F   0  0  0  0  0  0  0  0  0  0  0  0
   34.9970   31.5690   33.9720 F   0  0  0  0  0  0  0  0  0  0  0  0
   33.9490   30.1560   35.4110 F   0  0  0  0  0  0  0  0  0  0  0  0
   39.2950   23.4970   35.9000 C   0  0  1  0  0  3  0  0  0  0  0  0
   40.7490   23.1860   36.1850 C   0  0  0  0  0  3  0  0  0  0  0  0
   41.2040   22.5830   35.3720 H   0  0  0  0  0  0  0  0  0  0  0  0
   40.5630   22.2380   37.3790 C   0  0  0  0  0  3  0  0  0  0  0  0
   40.0200   21.3460   37.0260 H   0  0  0  0  0  0  0  0  0  0  0  0
   39.6680   22.9900   38.1430 O   0  0  0  0  0  0  0  0  0  0  0  0
   38.6750   23.3810   37.2720 C   0  0  0  0  0  3  0  0  0  0  0  0
   37.8800   22.6020   37.3250 H   0  0  0  0  0  0  0  0  0  0  0  0
  1  2  1  0  0  0  0
  1  5  2  0  0  0  0
  2  3  2  0  0  0  0
  3  4  1  0  0  0  0
  3  7  1  0  0  0  0
  5  4  1  0  0  0  0
  6  2  1  0  0  0  0
  8  1  1  0  0  0  0
  8  9  1  0  0  0  0
  9 14  1  0  0  0  0
 10  9  2  0  0  0  0
 10 16  1  0  0  0  0
 11 10  1  0  0  0  0
 12 13  1  0  0  0  0
 12 11  2  0  0  0  0
 13  8  2  0  0  0  0
 15 12  1  0  0  0  0
 16 19  1  0  0  0  0
 16 17  1  0  0  0  0
 18 16  1  0  0  0  0
 20  4  1  1  0  0  0
 20 21  1  0  0  0  0
 20 26  1  0  0  0  0
 21 23  1  0  0  0  0
 22 21  1  0  0  0  0
 23 25  1  0  0  0  0
 24 23  1  0  0  0  0
 26 27  1  0  0  0  0
 26 25  1  0  0  0  0
M  END
>  <minimizedAffinity>
-5.13834286

$$$$

 OpenBabel03272508033D

 27 29  0  0  1  0  0  0  0  0999 V2000
   37.9730   25.6320   35.4640 C   0  0  0  0  0  0  0  0  0  0  0  0
   37.8090   26.9870   35.6580 C   0  0  0  0  0  0  0  0  0  0  0  0
   37.3170   27.5830   34.5020 C   0  0  0  0  0  0  0  0  0  0  0  0
   37.1980   26.5340   33.6240 N   0  0  0  0  0  0  0  0  0  0  0  0
   37.5830   25.4100   34.1960 N   0  0  0  0  0  0  0  0  0  0  0  0
   38.0270   27.5360   36.5800 H   0  0  0  0  0  0  0  0  0  0  0  0
   37.0850   28.6220   34.3370 H   0  0  0  0  0  0  0  0  0  0  0  0
   38.4620   24.6590   36.4250 C   0  0  0  0  0  0  0  0  0  0  0  0
   39.6260   23.9300   36.1040 C   0  0  0  0  0  0  0  0  0  0  0  0
   40.0970   22.9880   37.0360 C   0  0  0  0  0  0  0  0  0  0  0  0
   39.3960   22.8400   38.1940 N   0  0  0  0  0  0  0  0  0  0  0  0
   38.2900   23.5460   38.4770 C   0  0  0  0  0  0  0  0  0  0  0  0
   37.8340   24.4540   37.5810 N   0  0  0  0  0  0  0  0  0  0  0  0
   40.1570   24.0810   35.1630 H   0  0  0  0  0  0  0  0  0  0  0  0
   37.7950   23.3610   39.4250 H   0  0  0  0  0  0  0  0  0  0  0  0
   41.3150   22.2140   36.7220 C   0  0  0  0  0  0  0  0  0  0  0  0
   41.4600   21.2960   37.7520 F   0  0  0  0  0  0  0  0  0  0  0  0
   41.2150   21.5210   35.5270 F   0  0  0  0  0  0  0  0  0  0  0  0
   42.4550   23.0170   36.7060 F   0  0  0  0  0  0  0  0  0  0  0  0
   36.7210   26.6890   32.2880 C   0  0  1  0  0  3  0  0  0  0  0  0
   36.3920   28.1160   31.9040 C   0  0  0  0  0  3  0  0  0  0  0  0
   35.3120   28.3360   32.0390 H   0  0  0  0  0  0  0  0  0  0  0  0
   36.6320   28.0210   30.3910 C   0  0  0  0  0  3  0  0  0  0  0  0
   35.9010   27.3110   29.9720 H   0  0  0  0  0  0  0  0  0  0  0  0
   37.8750   27.3840   30.3860 O   0  0  0  0  0  0  0  0  0  0  0  0
   37.7440   26.3130   31.2430 C   0  0  0  0  0  3  0  0  0  0  0  0
   37.4300   25.4430   30.6200 H   0  0  0  0  0  0  0  0  0  0  0  0
  1  2  1  0  0  0  0
  1  8  1  0  0  0  0
  2  6  1  0  0  0  0
  3  2  2  0  0  0  0
  4  5  1  0  0  0  0
  4  3  1  0  0  0  0
  5  1  2  0  0  0  0
  7  3  1  0  0  0  0
  8 13  1  0  0  0  0
  9  8  2  0  0  0  0
  9 10  1  0  0  0  0
 10 11  2  0  0  0  0
 11 12  1  0  0  0  0
 12 15  1  0  0  0  0
 13 12  2  0  0  0  0
 14  9  1  0  0  0  0
 16 10  1  0  0  0  0
 16 17  1  0  0  0  0
 18 16  1  0  0  0  0
 19 16  1  0  0  0  0
 20  4  1  1  0  0  0
 21 22  1  0  0  0  0
 21 20  1  0  0  0  0
 23 21  1  0  0  0  0
 24 23  1  0  0  0  0
 25 23  1  0  0  0  0
 25 26  1  0  0  0  0
 26 20  1  0  0  0  0
 27 26  1  0  0  0  0
M  END
>  <minimizedAffinity>
-5.11617279

$$$$

 OpenBabel03272508033D

 27 29  0  0  1  0  0  0  0  0999 V2000
   37.4740   27.0540   34.2410 C   0  0  0  0  0  0  0  0  0  0  0  0
   37.9370   27.5800   35.4270 C   0  0  0  0  0  0  0  0  0  0  0  0
   38.3010   26.5580   36.2980 C   0  0  0  0  0  0  0  0  0  0  0  0
   38.0360   25.4160   35.5830 N   0  0  0  0  0  0  0  0  0  0  0  0
   37.5560   25.7200   34.3930 N   0  0  0  0  0  0  0  0  0  0  0  0
   38.0180   28.6440   35.6720 H   0  0  0  0  0  0  0  0  0  0  0  0
   38.6970   26.6450   37.2960 H   0  0  0  0  0  0  0  0  0  0  0  0
   37.0000   27.7860   33.0800 C   0  0  0  0  0  0  0  0  0  0  0  0
   37.7970   27.7850   31.9180 C   0  0  0  0  0  0  0  0  0  0  0  0
   37.3350   28.4960   30.7950 C   0  0  0  0  0  0  0  0  0  0  0  0
   36.1410   29.1420   30.9030 N   0  0  0  0  0  0  0  0  0  0  0  0
   35.3990   29.1280   32.0220 C   0  0  0  0  0  0  0  0  0  0  0  0
   35.8420   28.4450   33.1050 N   0  0  0  0  0  0  0  0  0  0  0  0
   38.7490   27.2530   31.8740 H   0  0  0  0  0  0  0  0  0  0  0  0
   34.4610   29.6720   32.0180 H   0  0  0  0  0  0  0  0  0  0  0  0
   38.1540   28.5080   29.5660 C   0  0  0  0  0  0  0  0  0  0  0  0
   37.2740   28.7580   28.5230 F   0  0  0  0  0  0  0  0  0  0  0  0
   39.1180   29.5010   29.5750 F   0  0  0  0  0  0  0  0  0  0  0  0
   38.7550   27.2720   29.3260 F   0  0  0  0  0  0  0  0  0  0  0  0
   38.2620   24.1050   36.1000 C   0  0  1  0  0  3  0  0  0  0  0  0
   39.7200   23.6990   36.1540 C   0  0  0  0  0  3  0  0  0  0  0  0
   40.0140   23.1150   35.2570 H   0  0  0  0  0  0  0  0  0  0  0  0
   39.6500   22.7030   37.3200 C   0  0  0  0  0  3  0  0  0  0  0  0
   39.0070   21.8620   37.0130 H   0  0  0  0  0  0  0  0  0  0  0  0
   38.9230   23.4630   38.2400 O   0  0  0  0  0  0  0  0  0  0  0  0
   37.8420   23.9520   37.5420 C   0  0  0  0  0  3  0  0  0  0  0  0
   37.0150   23.2170   37.6780 H   0  0  0  0  0  0  0  0  0  0  0  0
  1  5  2  0  0  0  0
  1  2  1  0  0  0  0
  2  6  1  0  0  0  0
  2  3  2  0  0  0  0
  3  7  1  0  0  0  0
  4  3  1  0  0  0  0
  5  4  1  0  0  0  0
  8 13  1  0  0  0  0
  8  1  1  0  0  0  0
  9  8  2  0  0  0  0
 10 11  2  0  0  0  0
 10  9  1  0  0  0  0
 11 12  1  0  0  0  0
 12 13  2  0  0  0  0
 14  9  1  0  0  0  0
 15 12  1  0  0  0  0
 16 18  1  0  0  0  0
 16 10  1  0  0  0  0
 17 16  1  0  0  0  0
 19 16  1  0  0  0  0
 20  4  1  1  0  0  0
 20 21  1  0  0  0  0
 20 26  1  0  0  0  0
 21 23  1  0  0  0  0
 22 21  1  0  0  0  0
 23 25  1  0  0  0  0
 24 23  1  0  0  0  0
 26 27  1  0  0  0  0
 26 25  1  0  0  0  0
M  END
>  <minimizedAffinity>
-5.05737925

$$$$

 OpenBabel03272508033D

 27 29  0  0  1  0  0  0  0  0999 V2000
   36.6680   27.8450   33.6790 C   0  0  0  0  0  0  0  0  0  0  0  0
   36.4330   28.4180   32.4480 C   0  0  0  0  0  0  0  0  0  0  0  0
   35.8880   29.6880   32.6050 C   0  0  0  0  0  0  0  0  0  0  0  0
   35.8120   29.8410   33.9670 N   0  0  0  0  0  0  0  0  0  0  0  0
   36.2670   28.7640   34.5760 N   0  0  0  0  0  0  0  0  0  0  0  0
   36.6370   27.9600   31.4750 H   0  0  0  0  0  0  0  0  0  0  0  0
   35.5960   30.3860   31.8370 H   0  0  0  0  0  0  0  0  0  0  0  0
   37.2280   26.5320   33.9450 C   0  0  0  0  0  0  0  0  0  0  0  0
   37.4140   26.1440   35.2880 C   0  0  0  0  0  0  0  0  0  0  0  0
   37.9560   24.8710   35.5420 C   0  0  0  0  0  0  0  0  0  0  0  0
   38.2690   24.0910   34.4700 N   0  0  0  0  0  0  0  0  0  0  0  0
   38.0820   24.4830   33.1990 C   0  0  0  0  0  0  0  0  0  0  0  0
   37.5600   25.7090   32.9510 N   0  0  0  0  0  0  0  0  0  0  0  0
   37.1490   26.8000   36.1170 H   0  0  0  0  0  0  0  0  0  0  0  0
   38.3610   23.7960   32.4070 H   0  0  0  0  0  0  0  0  0  0  0  0
   38.1590   24.4430   36.9410 C   0  0  0  0  0  0  0  0  0  0  0  0
   37.0630   23.6560   37.2610 F   0  0  0  0  0  0  0  0  0  0  0  0
   39.3070   23.6870   37.1090 F   0  0  0  0  0  0  0  0  0  0  0  0
   38.1760   25.5250   37.8210 F   0  0  0  0  0  0  0  0  0  0  0  0
   35.3020   31.0190   34.5900 C   0  0  1  0  0  3  0  0  0  0  0  0
   35.9720   31.3720   35.9020 C   0  0  0  0  0  3  0  0  0  0  0  0
   35.4020   30.9790   36.7700 H   0  0  0  0  0  0  0  0  0  0  0  0
   35.7500   32.8910   35.8850 C   0  0  0  0  0  3  0  0  0  0  0  0
   34.6650   33.0790   35.9220 H   0  0  0  0  0  0  0  0  0  0  0  0
   36.1740   33.1800   34.5860 O   0  0  0  0  0  0  0  0  0  0  0  0
   35.5300   32.2700   33.7770 C   0  0  0  0  0  3  0  0  0  0  0  0
   34.5810   32.7530   33.4460 H   0  0  0  0  0  0  0  0  0  0  0  0
  1  8  1  0  0  0  0
  1  5  2  0  0  0  0
  2  3  2  0  0  0  0
  2  1  1  0  0  0  0
  3  4  1  0  0  0  0
  4  5  1  0  0  0  0
  6  2  1  0  0  0  0
  7  3  1  0  0  0  0
  8  9  1  0  0  0  0
  9 10  2  0  0  0  0
  9 14  1  0  0  0  0
 10 16  1  0  0  0  0
 11 10  1  0  0  0  0
 12 11  2  0  0  0  0
 13 12  1  0  0  0  0
 13  8  2  0  0  0  0
 15 12  1  0  0  0  0
 16 18  1  0  0  0  0
 16 17  1  0  0  0  0
 16 19  1  0  0  0  0
 20  4  1  6  0  0  0
 20 21  1  0  0  0  0
 21 22  1  0  0  0  0
 23 21  1  0  0  0  0
 23 24  1  0  0  0  0
 25 23  1  0  0  0  0
 26 25  1  0  0  0  0
 26 20  1  0  0  0  0
 27 26  1  0  0  0  0
M  END
>  <minimizedAffinity>
-5.02500248

$$$$

 OpenBabel03272508033D

 27 29  0  0  1  0  0  0  0  0999 V2000
   37.6370   25.5900   34.4470 C   0  0  0  0  0  0  0  0  0  0  0  0
   37.6390   26.7340   35.2150 C   0  0  0  0  0  0  0  0  0  0  0  0
   37.0240   27.7760   34.5290 C   0  0  0  0  0  0  0  0  0  0  0  0
   36.6610   27.2040   33.3340 N   0  0  0  0  0  0  0  0  0  0  0  0
   37.0240   25.9370   33.3020 N   0  0  0  0  0  0  0  0  0  0  0  0
   38.0580   26.8340   36.2220 H   0  0  0  0  0  0  0  0  0  0  0  0
   36.8690   28.7900   34.8590 H   0  0  0  0  0  0  0  0  0  0  0  0
   38.1810   24.2910   34.8030 C   0  0  0  0  0  0  0  0  0  0  0  0
   39.0080   24.2020   35.9420 C   0  0  0  0  0  0  0  0  0  0  0  0
   39.5340   22.9430   36.2830 C   0  0  0  0  0  0  0  0  0  0  0  0
   39.2080   21.8860   35.4890 N   0  0  0  0  0  0  0  0  0  0  0  0
   38.4180   21.9950   34.4100 C   0  0  0  0  0  0  0  0  0  0  0  0
   37.9110   23.2070   34.0780 N   0  0  0  0  0  0  0  0  0  0  0  0
   39.2430   25.0760   36.5510 H   0  0  0  0  0  0  0  0  0  0  0  0
   38.2130   21.0990   33.8340 H   0  0  0  0  0  0  0  0  0  0  0  0
   40.4020   22.8260   37.4720 C   0  0  0  0  0  0  0  0  0  0  0  0
   41.5600   23.5260   37.1690 F   0  0  0  0  0  0  0  0  0  0  0  0
   39.8360   23.3840   38.6060 F   0  0  0  0  0  0  0  0  0  0  0  0
   40.7610   21.5030   37.7290 F   0  0  0  0  0  0  0  0  0  0  0  0
   35.9880   27.9230   32.3010 C   0  0  1  0  0  3  0  0  0  0  0  0
   36.2730   29.4100   32.2880 C   0  0  0  0  0  3  0  0  0  0  0  0
   35.4940   29.9800   32.8360 H   0  0  0  0  0  0  0  0  0  0  0  0
   36.0480   29.6870   30.7950 C   0  0  0  0  0  3  0  0  0  0  0  0
   34.9910   29.4760   30.5640 H   0  0  0  0  0  0  0  0  0  0  0  0
   36.8050   28.6500   30.2440 O   0  0  0  0  0  0  0  0  0  0  0  0
   36.4150   27.5110   30.9130 C   0  0  0  0  0  3  0  0  0  0  0  0
   35.5860   27.0610   30.3190 H   0  0  0  0  0  0  0  0  0  0  0  0
  1  8  1  0  0  0  0
  1  2  1  0  0  0  0
  2  6  1  0  0  0  0
  3  7  1  0  0  0  0
  3  2  2  0  0  0  0
  4  3  1  0  0  0  0
  5  4  1  0  0  0  0
  5  1  2  0  0  0  0
  8  9  1  0  0  0  0
  9 10  2  0  0  0  0
  9 14  1  0  0  0  0
 10 16  1  0  0  0  0
 11 10  1  0  0  0  0
 12 11  2  0  0  0  0
 13 12  1  0  0  0  0
 13  8  2  0  0  0  0
 15 12  1  0  0  0  0
 16 19  1  0  0  0  0
 16 18  1  0  0  0  0
 17 16  1  0  0  0  0
 20  4  1  1  0  0  0
 21 20  1  0  0  0  0
 21 22  1  0  0  0  0
 23 21  1  0  0  0  0
 24 23  1  0  0  0  0
 25 23  1  0  0  0  0
 25 26  1  0  0  0  0
 26 20  1  0  0  0  0
 27 26  1  0  0  0  0
M  END
>  <minimizedAffinity>
-4.99328041

$$$$
