
 OpenBabel03262523333D

 39 43  0  0  1  0  0  0  0  0999 V2000
   35.8520   29.4520   50.6760 C   0  0  0  0  0  0  0  0  0  0  0  0
   36.6090   30.1800   49.7760 C   0  0  0  0  0  0  0  0  0  0  0  0
   36.2960   30.0900   48.4230 C   0  0  0  0  0  0  0  0  0  0  0  0
   35.2490   29.2840   48.0170 N   0  0  0  0  0  0  0  0  0  0  0  0
   34.5500   28.5980   48.9540 C   0  0  0  0  0  0  0  0  0  0  0  0
   34.8250   28.6650   50.2510 N   0  0  0  0  0  0  0  0  0  0  0  0
   36.0820   29.5110   51.7310 H   0  0  0  0  0  0  0  0  0  0  0  0
   37.4100   30.7970   50.0890 H   0  0  0  0  0  0  0  0  0  0  0  0
   36.6390   30.5610   46.0660 C   0  0  0  0  0  0  0  0  0  0  0  0
   37.0220   30.8110   47.3880 C   0  0  0  0  0  0  0  0  0  0  0  0
   38.0370   31.6920   47.6380 C   0  0  0  0  0  0  0  0  0  0  0  0
   38.6650   32.3190   46.5860 C   0  0  0  0  0  0  0  0  0  0  0  0
   39.6820   33.2130   46.6010 N   0  0  0  0  0  0  0  0  0  0  0  0
   39.9520   33.5340   45.3390 C   0  0  0  0  0  0  0  0  0  0  0  0
   39.1430   32.8770   44.5160 N   0  0  0  0  0  0  0  0  0  0  0  0
   38.3210   32.1040   45.2640 C   0  0  0  0  0  0  0  0  0  0  0  0
   37.2900   31.2080   45.0140 C   0  0  0  0  0  0  0  0  0  0  0  0
   35.8550   29.8880   45.7750 H   0  0  0  0  0  0  0  0  0  0  0  0
   38.3350   31.8900   48.6350 H   0  0  0  0  0  0  0  0  0  0  0  0
   40.2250   33.6400   47.3850 H   0  0  0  0  0  0  0  0  0  0  0  0
   40.6710   34.2000   44.8700 H   0  0  0  0  0  0  0  0  0  0  0  0
   37.0370   31.0530   43.9920 H   0  0  0  0  0  0  0  0  0  0  0  0
   33.4450   27.7670   48.4860 C   0  0  0  0  0  0  0  0  0  0  0  0
   33.6240   26.6200   47.9920 O   0  0  0  0  0  0  0  0  0  0  0  0
   32.0300   28.3050   48.5960 C   0  0  1  0  0  0  0  0  0  0  0  0
   30.9990   27.5490   47.7330 C   0  0  0  0  0  0  0  0  0  0  0  0
   31.0030   27.4600   49.2070 C   0  0  2  0  0  0  0  0  0  0  0  0
   31.9820   29.4170   48.4780 H   0  0  0  0  0  0  0  0  0  0  0  0
   30.2710   28.2110   47.2300 H   0  0  0  0  0  0  0  0  0  0  0  0
   31.3720   26.7150   47.1220 H   0  0  0  0  0  0  0  0  0  0  0  0
   31.3890   26.5120   49.6620 H   0  0  0  0  0  0  0  0  0  0  0  0
   29.8100   27.9780   49.9240 C   0  0  1  0  0  0  0  0  0  0  0  0
   28.7350   28.5360   48.9960 C   0  0  0  0  0  0  0  0  0  0  0  0
   28.9950   29.5090   48.5820 H   0  0  0  0  0  0  0  0  0  0  0  0
   27.6130   28.6150   50.0350 C   0  0  0  0  0  0  0  0  0  0  0  0
   27.8810   29.4730   50.6940 H   0  0  0  0  0  0  0  0  0  0  0  0
   27.7230   27.4650   50.7930 O   0  0  0  0  0  0  0  0  0  0  0  0
   29.0120   26.9620   50.6680 C   0  0  0  0  0  0  0  0  0  0  0  0
   28.8890   25.9980   50.1140 H   0  0  0  0  0  0  0  0  0  0  0  0
  1  7  1  0  0  0  0
  2  8  1  0  0  0  0
  2  1  2  0  0  0  0
  3  2  1  0  0  0  0
  4  3  2  0  0  0  0
  4  5  1  0  0  0  0
  5  6  2  0  0  0  0
  6  1  1  0  0  0  0
  9 10  1  0  0  0  0
 10 11  2  0  0  0  0
 10  3  1  0  0  0  0
 11 19  1  0  0  0  0
 12 13  1  0  0  0  0
 12 11  1  0  0  0  0
 13 20  1  0  0  0  0
 14 13  1  0  0  0  0
 15 16  1  0  0  0  0
 15 14  2  0  0  0  0
 16 12  2  0  0  0  0
 17 16  1  0  0  0  0
 17  9  2  0  0  0  0
 18  9  1  0  0  0  0
 21 14  1  0  0  0  0
 22 17  1  0  0  0  0
 23 25  1  0  0  0  0
 23  5  1  0  0  0  0
 24 23  2  0  0  0  0
 25 28  1  1  0  0  0
 25 27  1  0  0  0  0
 26 25  1  0  0  0  0
 26 27  1  0  0  0  0
 27 31  1  1  0  0  0
 27 32  1  0  0  0  0
 29 26  1  0  0  0  0
 30 26  1  0  0  0  0
 32 33  1  6  0  0  0
 32 38  1  0  0  0  0
 33 35  1  0  0  0  0
 34 33  1  0  0  0  0
 35 36  1  0  0  0  0
 35 37  1  0  0  0  0
 38 37  1  0  0  0  0
 39 38  1  0  0  0  0
M  END
>  <minimizedAffinity>
-6.87835455

>  <minimizedRMSD>
0.975710034

$$$$
