
 OpenBabel03272507483D

 45 49  0  0  1  0  0  0  0  0999 V2000
   32.0030   28.1750   47.3820 N   0  0  0  0  0  0  0  0  0  0  0  0
   32.4320   27.6870   48.6470 C   0  0  0  0  0  0  0  0  0  0  0  0
   33.6790   28.2670   49.1980 C   0  0  0  0  0  0  0  0  0  0  0  0
   34.7570   28.5310   48.2450 C   0  0  1  0  0  0  0  0  0  0  0  0
   34.2280   28.9800   46.8710 C   0  0  0  0  0  0  0  0  0  0  0  0
   33.1110   28.0010   46.4760 C   0  0  0  0  0  0  0  0  0  0  0  0
   31.6050   27.8190   49.3860 H   0  0  0  0  0  0  0  0  0  0  0  0
   32.5770   26.5890   48.5690 H   0  0  0  0  0  0  0  0  0  0  0  0
   34.0050   27.6980   50.0780 H   0  0  0  0  0  0  0  0  0  0  0  0
   33.3160   29.2860   49.5600 H   0  0  0  0  0  0  0  0  0  0  0  0
   35.3040   27.5810   47.9950 H   0  0  0  0  0  0  0  0  0  0  0  0
   33.8210   29.9940   46.9590 H   0  0  0  0  0  0  0  0  0  0  0  0
   34.9950   28.8840   46.1010 H   0  0  0  0  0  0  0  0  0  0  0  0
   33.5270   26.9800   46.4510 H   0  0  0  0  0  0  0  0  0  0  0  0
   32.7750   28.2530   45.4490 H   0  0  0  0  0  0  0  0  0  0  0  0
   35.8870   29.7990   50.0140 C   0  0  0  0  0  0  0  0  0  0  0  0
   35.7020   29.5990   48.6570 C   0  0  0  0  0  0  0  0  0  0  0  0
   36.3200   30.3430   47.6880 C   0  0  0  0  0  0  0  0  0  0  0  0
   37.1780   31.3520   48.0970 C   0  0  0  0  0  0  0  0  0  0  0  0
   37.3630   31.5550   49.4480 C   0  0  0  0  0  0  0  0  0  0  0  0
   36.7420   30.8060   50.4320 C   0  0  0  0  0  0  0  0  0  0  0  0
   38.2640   32.6190   49.6590 O   0  0  0  0  0  0  0  0  0  0  0  0
   38.8530   32.8550   48.3890 C   0  0  0  0  0  0  0  0  0  0  0  0
   37.9780   32.3040   47.4460 O   0  0  0  0  0  0  0  0  0  0  0  0
   35.4680   29.2730   50.8590 H   0  0  0  0  0  0  0  0  0  0  0  0
   36.1590   30.1660   46.6510 H   0  0  0  0  0  0  0  0  0  0  0  0
   36.9350   31.0200   51.4870 H   0  0  0  0  0  0  0  0  0  0  0  0
   38.8250   33.9650   48.2490 H   0  0  0  0  0  0  0  0  0  0  0  0
   39.8870   32.4940   48.3050 H   0  0  0  0  0  0  0  0  0  0  0  0
   30.7370   28.7270   47.0430 C   0  0  0  0  0  0  0  0  0  0  0  0
   30.4880   29.5260   45.9250 C   0  0  0  0  0  0  0  0  0  0  0  0
   29.1720   29.9710   45.7500 C   0  0  0  0  0  0  0  0  0  0  0  0
   28.2110   29.6080   46.6660 N   0  0  0  0  0  0  0  0  0  0  0  0
   28.5200   28.8450   47.7080 C   0  0  0  0  0  0  0  0  0  0  0  0
   29.7420   28.4090   47.9050 N   0  0  0  0  0  0  0  0  0  0  0  0
   31.3080   29.7420   45.2860 H   0  0  0  0  0  0  0  0  0  0  0  0
   29.0110   30.5840   44.8800 H   0  0  0  0  0  0  0  0  0  0  0  0
   27.4200   28.4920   48.6630 C   0  0  1  0  0  0  0  0  0  0  0  0
   27.4190   26.9910   48.9070 C   0  0  0  0  0  0  0  0  0  0  0  0
   28.3160   26.5110   48.4450 H   0  0  0  0  0  0  0  0  0  0  0  0
   27.6010   26.8840   50.4050 C   0  0  0  0  0  0  0  0  0  0  0  0
   26.6740   27.1070   50.9660 H   0  0  0  0  0  0  0  0  0  0  0  0
   28.4720   27.9500   50.6640 O   0  0  0  0  0  0  0  0  0  0  0  0
   27.7660   28.9970   50.0680 C   0  0  0  0  0  0  0  0  0  0  0  0
   26.8980   29.3290   50.6360 H   0  0  0  0  0  0  0  0  0  0  0  0
  1  2  1  0  0  0  0
  2  3  1  0  0  0  0
  2  7  1  0  0  0  0
  3 10  1  0  0  0  0
  3  9  1  0  0  0  0
  4 11  1  6  0  0  0
  4 17  1  0  0  0  0
  4  3  1  0  0  0  0
  5 12  1  0  0  0  0
  5  4  1  0  0  0  0
  6  5  1  0  0  0  0
  6  1  1  0  0  0  0
  8  2  1  0  0  0  0
 13  5  1  0  0  0  0
 14  6  1  0  0  0  0
 15  6  1  0  0  0  0
 16 21  1  0  0  0  0
 16 25  1  0  0  0  0
 17 16  2  0  0  0  0
 18 19  2  0  0  0  0
 18 17  1  0  0  0  0
 19 20  1  0  0  0  0
 20 22  1  0  0  0  0
 20 21  2  0  0  0  0
 21 27  1  0  0  0  0
 23 22  1  0  0  0  0
 24 19  1  0  0  0  0
 24 23  1  0  0  0  0
 26 18  1  0  0  0  0
 28 23  1  0  0  0  0
 29 23  1  0  0  0  0
 30  1  1  0  0  0  0
 30 35  1  0  0  0  0
 31 30  2  0  0  0  0
 32 31  1  0  0  0  0
 32 33  2  0  0  0  0
 33 34  1  0  0  0  0
 34 35  2  0  0  0  0
 36 31  1  0  0  0  0
 37 32  1  0  0  0  0
 38 34  1  6  0  0  0
 38 39  1  0  0  0  0
 38 44  1  0  0  0  0
 39 41  1  0  0  0  0
 40 39  1  0  0  0  0
 41 43  1  0  0  0  0
 41 42  1  0  0  0  0
 44 45  1  0  0  0  0
 44 43  1  0  0  0  0
M  END
>  <minimizedAffinity>
-7.41706324

>  <minimizedRMSD>
0.950435817

$$$$
