
 OpenBabel03272506193D

 33 35  0  0  1  0  0  0  0  0999 V2000
   35.5280   30.2940   49.7220 C   0  0  0  0  0  0  0  0  0  0  0  0
   36.4590   31.1730   48.9180 C   0  0  0  0  0  0  0  0  0  0  0  0
   37.9040   30.8240   49.1160 C   0  0  0  0  0  0  0  0  0  0  0  0
   38.3170   30.8230   50.5630 C   0  0  0  0  0  0  0  0  0  0  0  0
   37.3190   30.1660   51.4640 C   0  0  0  0  0  0  0  0  0  0  0  0
   36.2270   29.4320   50.7130 C   0  0  0  0  0  0  0  0  0  0  0  0
   34.7900   30.9300   50.2340 H   0  0  0  0  0  0  0  0  0  0  0  0
   36.2500   31.1730   47.8370 H   0  0  0  0  0  0  0  0  0  0  0  0
   36.3380   32.2210   49.2520 H   0  0  0  0  0  0  0  0  0  0  0  0
   38.5190   31.5770   48.6070 H   0  0  0  0  0  0  0  0  0  0  0  0
   38.1170   29.8490   48.6140 H   0  0  0  0  0  0  0  0  0  0  0  0
   38.5700   31.8520   50.9020 H   0  0  0  0  0  0  0  0  0  0  0  0
   39.2920   30.2580   50.5940 H   0  0  0  0  0  0  0  0  0  0  0  0
   36.8940   30.9340   52.1310 H   0  0  0  0  0  0  0  0  0  0  0  0
   37.8320   29.3720   52.0670 H   0  0  0  0  0  0  0  0  0  0  0  0
   35.4660   29.1710   51.5000 H   0  0  0  0  0  0  0  0  0  0  0  0
   36.5750   28.4720   50.3210 H   0  0  0  0  0  0  0  0  0  0  0  0
   34.7620   29.4000   48.8000 C   0  0  0  0  0  0  0  0  0  0  0  0
   34.2390   29.9980   47.6420 C   0  0  0  0  0  0  0  0  0  0  0  0
   33.5140   29.1780   46.7760 C   0  0  0  0  0  0  0  0  0  0  0  0
   33.3460   27.8550   47.0860 N   0  0  0  0  0  0  0  0  0  0  0  0
   33.8720   27.3090   48.2280 C   0  0  0  0  0  0  0  0  0  0  0  0
   34.5690   28.0850   49.0630 N   0  0  0  0  0  0  0  0  0  0  0  0
   34.3320   31.0110   47.3460 H   0  0  0  0  0  0  0  0  0  0  0  0
   33.6950   26.2570   48.3990 H   0  0  0  0  0  0  0  0  0  0  0  0
   32.9040   29.6720   45.5150 C   0  0  2  0  0  0  0  0  0  0  0  0
   33.9520   30.1240   44.5380 C   0  0  0  0  0  0  0  0  0  0  0  0
   34.2110   29.3430   43.8080 H   0  0  0  0  0  0  0  0  0  0  0  0
   33.2310   31.2270   43.8090 C   0  0  0  0  0  0  0  0  0  0  0  0
   33.9640   32.0470   43.6040 H   0  0  0  0  0  0  0  0  0  0  0  0
   32.2670   31.7550   44.6410 O   0  0  0  0  0  0  0  0  0  0  0  0
   32.1300   30.9470   45.7360 C   0  0  0  0  0  0  0  0  0  0  0  0
   32.4860   31.5030   46.6350 H   0  0  0  0  0  0  0  0  0  0  0  0
  1  7  1  0  0  0  0
  1  6  1  0  0  0  0
  2  3  1  0  0  0  0
  2  9  1  0  0  0  0
  2  1  1  0  0  0  0
  3  4  1  0  0  0  0
  4 13  1  0  0  0  0
  4 12  1  0  0  0  0
  4  5  1  0  0  0  0
  5 15  1  0  0  0  0
  5 14  1  0  0  0  0
  6  5  1  0  0  0  0
  6 16  1  0  0  0  0
  8  2  1  0  0  0  0
 10  3  1  0  0  0  0
 11  3  1  0  0  0  0
 17  6  1  0  0  0  0
 18 23  1  0  0  0  0
 18  1  1  0  0  0  0
 19 18  2  0  0  0  0
 20 21  2  0  0  0  0
 20 19  1  0  0  0  0
 21 22  1  0  0  0  0
 22 25  1  0  0  0  0
 22 23  2  0  0  0  0
 24 19  1  0  0  0  0
 26 32  1  0  0  0  0
 26 20  1  1  0  0  0
 27 26  1  0  0  0  0
 28 27  1  0  0  0  0
 29 27  1  0  0  0  0
 29 31  1  0  0  0  0
 30 29  1  0  0  0  0
 31 32  1  0  0  0  0
 32 33  1  0  0  0  0
M  END
>  <minimizedAffinity>
-5.27924061

>  <minimizedRMSD>
0.418236583

$$$$
