
 OpenBabel03272503493D

 36 38  0  0  1  0  0  0  0  0999 V2000
   32.9870   27.3840   45.9600 C   0  0  1  0  0  0  0  0  0  0  0  0
   33.9130   27.5100   47.1920 C   0  0  2  0  0  0  0  0  0  0  0  0
   33.8650   26.2700   47.7440 O   0  0  0  0  0  0  0  0  0  0  0  0
   34.0020   25.4040   46.6800 C   0  0  0  0  0  0  0  0  0  0  0  0
   33.3270   25.9980   45.4870 C   0  0  2  0  0  0  0  0  0  0  0  0
   33.3210   28.1720   45.2650 H   0  0  0  0  0  0  0  0  0  0  0  0
   34.9180   27.8360   46.8020 H   0  0  0  0  0  0  0  0  0  0  0  0
   33.6760   24.3730   46.9210 H   0  0  0  0  0  0  0  0  0  0  0  0
   35.1050   25.3170   46.4630 H   0  0  0  0  0  0  0  0  0  0  0  0
   32.3770   25.4820   45.2960 H   0  0  0  0  0  0  0  0  0  0  0  0
   31.6690   27.5670   46.3300 O   0  0  0  0  0  0  0  0  0  0  0  0
   31.3670   28.4860   46.1990 H   0  0  0  0  0  0  0  0  0  0  0  0
   33.3840   28.5370   47.9160 O   0  0  0  0  0  0  0  0  0  0  0  0
   35.3500   29.8610   46.7550 O   0  0  0  0  0  0  0  0  0  0  0  0
   34.1200   30.0250   47.6340 P   0  0  1  0  0  0  0  0  0  0  0  0
   33.0820   31.0330   46.7570 O   0  0  0  0  0  0  0  0  0  0  0  0
   32.8630   30.6830   45.8800 H   0  0  0  0  0  0  0  0  0  0  0  0
   34.4600   30.7240   49.1490 O   0  0  0  0  0  0  0  0  0  0  0  0
   35.6890   30.5410   49.7810 C   0  0  0  0  0  0  0  0  0  0  0  0
   35.9980   29.5120   50.6920 C   0  0  0  0  0  0  0  0  0  0  0  0
   37.2780   29.4800   51.2290 C   0  0  0  0  0  0  0  0  0  0  0  0
   38.1760   30.4460   50.8510 N   0  0  0  0  0  0  0  0  0  0  0  0
   37.8450   31.4260   49.9700 C   0  0  0  0  0  0  0  0  0  0  0  0
   36.5990   31.4760   49.4320 N   0  0  0  0  0  0  0  0  0  0  0  0
   35.1950   28.8200   50.8990 H   0  0  0  0  0  0  0  0  0  0  0  0
   37.4980   28.6940   51.9180 H   0  0  0  0  0  0  0  0  0  0  0  0
   38.5820   32.1690   49.6980 H   0  0  0  0  0  0  0  0  0  0  0  0
   34.1880   26.0520   44.4100 O   0  0  0  0  0  0  0  0  0  0  0  0
   33.6720   25.6450   43.2220 C   0  0  2  0  0  3  0  0  0  0  0  0
   33.2620   26.7090   42.2570 C   0  0  0  0  0  3  0  0  0  0  0  0
   34.1220   27.2100   41.7660 H   0  0  0  0  0  0  0  0  0  0  0  0
   32.4380   25.8730   41.2940 C   0  0  0  0  0  3  0  0  0  0  0  0
   33.1560   25.3120   40.6640 H   0  0  0  0  0  0  0  0  0  0  0  0
   31.7200   25.0380   42.1160 O   0  0  0  0  0  0  0  0  0  0  0  0
   32.4280   24.8070   43.2790 C   0  0  0  0  0  3  0  0  0  0  0  0
   31.7630   25.0540   44.1260 H   0  0  0  0  0  0  0  0  0  0  0  0
  1  6  1  6  0  0  0
  1 11  1  0  0  0  0
  1  2  1  0  0  0  0
  2  7  1  6  0  0  0
  2  3  1  0  0  0  0
  2 13  1  0  0  0  0
  4  8  1  0  0  0  0
  4  3  1  0  0  0  0
  5 10  1  6  0  0  0
  5  1  1  0  0  0  0
  5  4  1  0  0  0  0
  9  4  1  0  0  0  0
 12 11  1  0  0  0  0
 15 14  2  6  0  0  0
 15 13  1  0  0  0  0
 15 18  1  0  0  0  0
 16 15  1  0  0  0  0
 17 16  1  0  0  0  0
 18 19  1  0  0  0  0
 19 20  1  0  0  0  0
 20 25  1  0  0  0  0
 20 21  2  0  0  0  0
 21 26  1  0  0  0  0
 22 21  1  0  0  0  0
 23 22  2  0  0  0  0
 24 19  2  0  0  0  0
 24 23  1  0  0  0  0
 27 23  1  0  0  0  0
 28  5  1  0  0  0  0
 29 35  1  0  0  0  0
 29 28  1  1  0  0  0
 30 29  1  0  0  0  0
 31 30  1  0  0  0  0
 32 34  1  0  0  0  0
 32 30  1  0  0  0  0
 33 32  1  0  0  0  0
 34 35  1  0  0  0  0
 35 36  1  0  0  0  0
M  END
>  <minimizedAffinity>
-3.83869839

>  <minimizedRMSD>
0.405685723

$$$$
