
 OpenBabel03272500033D

 27 29  0  0  1  0  0  0  0  0999 V2000
   36.6460   29.6050   49.3530 C   0  0  0  0  0  0  0  0  0  0  0  0
   36.5110   30.6250   48.3890 C   0  0  0  0  0  0  0  0  0  0  0  0
   35.4460   30.5290   47.4860 C   0  0  0  0  0  0  0  0  0  0  0  0
   34.6020   29.4680   47.5840 N   0  0  0  0  0  0  0  0  0  0  0  0
   34.7540   28.5110   48.5120 C   0  0  0  0  0  0  0  0  0  0  0  0
   35.7670   28.5720   49.3950 N   0  0  0  0  0  0  0  0  0  0  0  0
   37.4590   29.6460   50.0690 H   0  0  0  0  0  0  0  0  0  0  0  0
   35.3520   31.3140   46.7530 H   0  0  0  0  0  0  0  0  0  0  0  0
   37.4660   31.6790   48.3990 N   0  0  0  0  0  0  0  0  0  0  0  0
   37.5930   32.5080   49.4500 C   0  0  0  0  0  0  0  0  0  0  0  0
   38.5340   33.5300   49.4340 C   0  0  0  0  0  0  0  0  0  0  0  0
   39.2750   33.5830   48.2750 C   0  0  0  0  0  0  0  0  0  0  0  0
   40.1490   34.5120   48.2320 O   0  0  0  0  0  0  0  0  0  0  0  0
   39.1780   32.7780   47.2140 N   0  0  0  0  0  0  0  0  0  0  0  0
   38.2390   31.7980   47.2910 C   0  0  0  0  0  0  0  0  0  0  0  0
   38.1250   31.0270   46.3060 O   0  0  0  0  0  0  0  0  0  0  0  0
   36.9670   32.3980   50.3280 H   0  0  0  0  0  0  0  0  0  0  0  0
   38.6860   34.2240   50.2370 H   0  0  0  0  0  0  0  0  0  0  0  0
   39.7910   32.9000   46.3750 H   0  0  0  0  0  0  0  0  0  0  0  0
   33.8240   27.3490   48.6120 C   0  0  2  0  0  0  0  0  0  0  0  0
   33.8180   26.4810   47.3970 C   0  0  0  0  0  0  0  0  0  0  0  0
   34.7030   26.7850   46.7910 H   0  0  0  0  0  0  0  0  0  0  0  0
   32.5840   26.9020   46.6390 C   0  0  0  0  0  0  0  0  0  0  0  0
   32.2220   26.0850   45.9990 H   0  0  0  0  0  0  0  0  0  0  0  0
   31.6930   27.1720   47.6590 O   0  0  0  0  0  0  0  0  0  0  0  0
   32.3720   27.8110   48.6700 C   0  0  0  0  0  0  0  0  0  0  0  0
   31.9480   27.4940   49.6420 H   0  0  0  0  0  0  0  0  0  0  0  0
  1  6  1  0  0  0  0
  1  7  1  0  0  0  0
  2  9  1  0  0  0  0
  2  1  2  0  0  0  0
  3  4  2  0  0  0  0
  3  2  1  0  0  0  0
  4  5  1  0  0  0  0
  5  6  2  0  0  0  0
  8  3  1  0  0  0  0
  9 10  1  0  0  0  0
 10 17  1  0  0  0  0
 11 10  2  0  0  0  0
 11 18  1  0  0  0  0
 12 11  1  0  0  0  0
 13 12  2  0  0  0  0
 14 15  1  0  0  0  0
 14 12  1  0  0  0  0
 15  9  1  0  0  0  0
 16 15  2  0  0  0  0
 19 14  1  0  0  0  0
 20  5  1  6  0  0  0
 20 26  1  0  0  0  0
 21 20  1  0  0  0  0
 22 21  1  0  0  0  0
 23 21  1  0  0  0  0
 23 25  1  0  0  0  0
 24 23  1  0  0  0  0
 25 26  1  0  0  0  0
 26 27  1  0  0  0  0
M  END
>  <minimizedAffinity>
-5.54874134

>  <minimizedRMSD>
1.34513021

$$$$
