
 OpenBabel03272508083D

 23 24  0  0  1  0  0  0  0  0999 V2000
   39.1280   32.8250   48.1330 O   0  0  0  0  0  0  0  0  0  0  0  0
   38.7270   31.8390   47.0820 P   0  0  2  0  0  0  0  0  0  0  0  0
   37.6920   32.5940   45.9670 O   0  0  0  0  0  0  0  0  0  0  0  0
   37.2390   33.3450   46.4650 H   0  0  0  0  0  0  0  0  0  0  0  0
   38.0390   30.4130   47.6770 O   0  0  0  0  0  0  0  0  0  0  0  0
   37.3420   30.2020   51.3110 C   0  0  0  0  0  0  0  0  0  0  0  0
   38.0420   30.5580   50.1610 C   0  0  0  0  0  0  0  0  0  0  0  0
   37.5410   30.1840   48.9180 C   0  0  0  0  0  0  0  0  0  0  0  0
   36.3660   29.4710   48.8950 N   0  0  0  0  0  0  0  0  0  0  0  0
   35.7210   29.1460   50.0400 C   0  0  0  0  0  0  0  0  0  0  0  0
   36.1970   29.5040   51.2300 N   0  0  0  0  0  0  0  0  0  0  0  0
   37.8650   30.5690   52.1890 H   0  0  0  0  0  0  0  0  0  0  0  0
   38.9660   31.1150   50.1000 H   0  0  0  0  0  0  0  0  0  0  0  0
   34.7950   28.5850   50.0410 H   0  0  0  0  0  0  0  0  0  0  0  0
   40.1360   31.4240   46.2180 O   0  0  0  0  0  0  0  0  0  0  0  0
   39.7640   31.1540   44.9140 C   0  0  1  0  0  3  0  0  0  0  0  0
   39.2510   29.7750   44.6750 C   0  0  0  0  0  3  0  0  0  0  0  0
   39.0300   29.2110   45.6260 H   0  0  0  0  0  0  0  0  0  0  0  0
   37.9630   30.0210   43.9000 C   0  0  0  0  0  3  0  0  0  0  0  0
   37.0720   30.0530   44.5510 H   0  0  0  0  0  0  0  0  0  0  0  0
   38.1410   31.2960   43.3420 O   0  0  0  0  0  0  0  0  0  0  0  0
   38.6260   32.0310   44.4460 C   0  0  0  0  0  3  0  0  0  0  0  0
   38.9810   33.0200   44.0540 H   0  0  0  0  0  0  0  0  0  0  0  0
  2  5  1  0  0  0  0
  2  1  2  1  0  0  0
  3  4  1  0  0  0  0
  3  2  1  0  0  0  0
  5  8  1  0  0  0  0
  6 12  1  0  0  0  0
  7  6  2  0  0  0  0
  8  7  1  0  0  0  0
  9  8  2  0  0  0  0
  9 10  1  0  0  0  0
 10 14  1  0  0  0  0
 10 11  2  0  0  0  0
 11  6  1  0  0  0  0
 13  7  1  0  0  0  0
 15  2  1  0  0  0  0
 16 15  1  1  0  0  0
 17 16  1  0  0  0  0
 17 18  1  0  0  0  0
 19 20  1  0  0  0  0
 19 17  1  0  0  0  0
 21 19  1  0  0  0  0
 21 22  1  0  0  0  0
 22 16  1  0  0  0  0
 23 22  1  0  0  0  0
M  END
>  <minimizedAffinity>
-4.91042614

>  <minimizedRMSD>
0.273339421

$$$$
