
 OpenBabel03272505423D

 44 47  0  0  1  0  0  0  0  0999 V2000
   35.7500   30.2200   46.5170 C   0  0  0  0  0  0  0  0  0  0  0  0
   34.4170   29.8190   46.5920 C   0  0  0  0  0  0  0  0  0  0  0  0
   33.7520   29.4560   45.4350 C   0  0  0  0  0  0  0  0  0  0  0  0
   34.3360   29.4630   44.1840 C   0  0  0  0  0  0  0  0  0  0  0  0
   35.6660   29.8630   44.1070 C   0  0  0  0  0  0  0  0  0  0  0  0
   36.3120   30.2230   45.2800 C   0  0  0  0  0  0  0  0  0  0  0  0
   33.8770   29.7830   47.5330 H   0  0  0  0  0  0  0  0  0  0  0  0
   32.7160   29.1480   45.5220 H   0  0  0  0  0  0  0  0  0  0  0  0
   33.7660   29.1670   43.3090 H   0  0  0  0  0  0  0  0  0  0  0  0
   36.0720   29.8530   43.1200 H   0  0  0  0  0  0  0  0  0  0  0  0
   37.6580   30.6010   45.0060 N   0  0  0  0  0  0  0  0  0  0  0  0
   38.9600   30.0060   45.0380 C   0  0  0  0  0  0  0  0  0  0  0  0
   39.8350   30.8770   45.9100 C   0  0  0  0  0  0  0  0  0  0  0  0
   40.0690   32.1130   45.2020 N   0  0  0  0  0  0  0  0  0  0  0  0
   39.0700   32.4300   44.2410 C   0  0  0  0  0  0  0  0  0  0  0  0
   37.6930   31.9590   44.5670 C   0  0  0  0  0  0  0  0  0  0  0  0
   38.9160   28.9630   45.3870 H   0  0  0  0  0  0  0  0  0  0  0  0
   39.4050   30.0590   44.0210 H   0  0  0  0  0  0  0  0  0  0  0  0
   39.7620   30.8520   46.9490 H   0  0  0  0  0  0  0  0  0  0  0  0
   40.8350   30.3330   45.7500 H   0  0  0  0  0  0  0  0  0  0  0  0
   40.9980   32.2540   44.8050 H   0  0  0  0  0  0  0  0  0  0  0  0
   39.0050   33.5600   44.2290 H   0  0  0  0  0  0  0  0  0  0  0  0
   39.4090   32.1800   43.2140 H   0  0  0  0  0  0  0  0  0  0  0  0
   37.0710   32.6800   45.0850 H   0  0  0  0  0  0  0  0  0  0  0  0
   37.2010   31.9020   43.5430 H   0  0  0  0  0  0  0  0  0  0  0  0
   37.1410   30.1600   49.8860 C   0  0  0  0  0  0  0  0  0  0  0  0
   37.8140   31.3900   49.9590 C   0  0  0  0  0  0  0  0  0  0  0  0
   37.7830   32.2290   48.8440 C   0  0  0  0  0  0  0  0  0  0  0  0
   37.0910   31.7670   47.7690 N   0  0  0  0  0  0  0  0  0  0  0  0
   36.4600   30.6060   47.7090 C   0  0  0  0  0  0  0  0  0  0  0  0
   36.4840   29.7910   48.7800 N   0  0  0  0  0  0  0  0  0  0  0  0
   38.3540   31.7240   50.8300 H   0  0  0  0  0  0  0  0  0  0  0  0
   38.4790   33.5180   48.9010 C   0  0  2  0  0  3  0  0  0  0  0  0
   39.4760   33.7110   47.7840 C   0  0  0  0  0  3  0  0  0  0  0  0
   39.0400   34.1150   46.8520 H   0  0  0  0  0  0  0  0  0  0  0  0
   40.3590   34.7840   48.4020 C   0  0  0  0  0  3  0  0  0  0  0  0
   41.4350   34.5770   48.2250 H   0  0  0  0  0  0  0  0  0  0  0  0
   40.0940   34.8300   49.7440 O   0  0  0  0  0  0  0  0  0  0  0  0
   39.4240   33.6550   50.0890 C   0  0  0  0  0  3  0  0  0  0  0  0
   40.2130   32.8650   50.0710 H   0  0  0  0  0  0  0  0  0  0  0  0
   37.1900   29.2870   51.1140 C   0  0  0  0  0  0  0  0  0  0  0  0
   35.8660   28.9590   51.4590 F   0  0  0  0  0  0  0  0  0  0  0  0
   37.9290   28.2070   50.8420 F   0  0  0  0  0  0  0  0  0  0  0  0
   37.6710   30.0360   52.1590 F   0  0  0  0  0  0  0  0  0  0  0  0
  1  2  1  0  0  0  0
  1 30  1  0  0  0  0
  2  7  1  0  0  0  0
  3  8  1  0  0  0  0
  3  2  2  0  0  0  0
  4  3  1  0  0  0  0
  5  4  2  0  0  0  0
  5  6  1  0  0  0  0
  6  1  2  0  0  0  0
  9  4  1  0  0  0  0
 10  5  1  0  0  0  0
 11 12  1  0  0  0  0
 11  6  1  0  0  0  0
 12 17  1  0  0  0  0
 12 13  1  0  0  0  0
 13 19  1  0  0  0  0
 14 13  1  0  0  0  0
 15 16  1  0  0  0  0
 15 14  1  0  0  0  0
 16 11  1  0  0  0  0
 16 24  1  0  0  0  0
 18 12  1  0  0  0  0
 20 13  1  0  0  0  0
 21 14  1  0  0  0  0
 22 15  1  0  0  0  0
 23 15  1  0  0  0  0
 25 16  1  0  0  0  0
 26 27  1  0  0  0  0
 26 41  1  0  0  0  0
 27 32  1  0  0  0  0
 28 27  2  0  0  0  0
 29 28  1  0  0  0  0
 30 29  2  0  0  0  0
 30 31  1  0  0  0  0
 31 26  2  0  0  0  0
 33 28  1  6  0  0  0
 33 39  1  0  0  0  0
 34 36  1  0  0  0  0
 34 33  1  0  0  0  0
 35 34  1  0  0  0  0
 36 38  1  0  0  0  0
 37 36  1  0  0  0  0
 38 39  1  0  0  0  0
 40 39  1  0  0  0  0
 41 42  1  0  0  0  0
 41 44  1  0  0  0  0
 43 41  1  0  0  0  0
M  END
>  <minimizedAffinity>
-5.81075239

>  <minimizedRMSD>
0.592514992

$$$$
