
 OpenBabel03262521213D

 32 33  0  0  1  0  0  0  0  0999 V2000
   38.6440   32.3100   46.1880 C   0  0  0  0  0  0  0  0  0  0  0  0
   37.8830   31.6010   45.7670 H   0  0  0  0  0  0  0  0  0  0  0  0
   38.1440   33.3190   46.1180 H   0  0  0  0  0  0  0  0  0  0  0  0
   39.1380   32.0230   47.4120 C   0  0  0  0  0  0  0  0  0  0  0  0
   38.7170   31.0310   47.7750 H   0  0  0  0  0  0  0  0  0  0  0  0
   40.2360   31.7950   47.4900 H   0  0  0  0  0  0  0  0  0  0  0  0
   38.8420   32.9910   48.5090 C   0  0  0  0  0  0  0  0  0  0  0  0
   38.5420   33.9860   48.0930 H   0  0  0  0  0  0  0  0  0  0  0  0
   39.7430   33.2050   49.1560 H   0  0  0  0  0  0  0  0  0  0  0  0
   37.5410   32.4710   49.6150 S   0  0  0  0  0  0  0  0  0  0  0  0
   37.5690   30.6810   49.8130 C   0  0  1  0  0  0  0  0  0  0  0  0
   37.2090   30.3560   51.2460 C   0  0  0  0  0  0  0  0  0  0  0  0
   36.6940   31.1980   51.7650 H   0  0  0  0  0  0  0  0  0  0  0  0
   36.2670   29.2080   51.0690 C   0  0  0  0  0  0  0  0  0  0  0  0
   36.6530   28.3210   51.6220 H   0  0  0  0  0  0  0  0  0  0  0  0
   36.2180   28.8510   49.7440 O   0  0  0  0  0  0  0  0  0  0  0  0
   36.4870   29.9990   48.9960 C   0  0  0  0  0  0  0  0  0  0  0  0
   36.8880   29.7590   48.0080 H   0  0  0  0  0  0  0  0  0  0  0  0
   39.7990   32.3800   45.4700 O   0  0  0  0  0  0  0  0  0  0  0  0
   39.7270   32.2820   44.1020 C   0  0  0  0  0  0  0  0  0  0  0  0
   40.2980   31.1350   43.6300 C   0  0  0  0  0  0  0  0  0  0  0  0
   40.3130   30.8730   42.2450 C   0  0  0  0  0  0  0  0  0  0  0  0
   39.7280   31.8270   41.4320 N   0  0  0  0  0  0  0  0  0  0  0  0
   39.1690   32.9590   41.9410 C   0  0  0  0  0  0  0  0  0  0  0  0
   39.1870   33.1480   43.2530 N   0  0  0  0  0  0  0  0  0  0  0  0
   38.6710   33.4870   39.6700 C   0  0  0  0  0  0  0  0  0  0  0  0
   39.1960   32.4240   39.2170 O   0  0  0  0  0  0  0  0  0  0  0  0
   38.5920   33.8770   41.0310 N   0  0  0  0  0  0  0  0  0  0  0  0
   40.7690   30.3520   44.2030 H   0  0  0  0  0  0  0  0  0  0  0  0
   40.7530   29.9800   41.8300 H   0  0  0  0  0  0  0  0  0  0  0  0
   38.2620   34.1130   38.8850 H   0  0  0  0  0  0  0  0  0  0  0  0
   38.1440   34.7700   41.3290 H   0  0  0  0  0  0  0  0  0  0  0  0
  1  4  1  0  0  0  0
  2  1  1  0  0  0  0
  3  1  1  0  0  0  0
  4  6  1  0  0  0  0
  4  5  1  0  0  0  0
  4  7  1  0  0  0  0
  7  9  1  0  0  0  0
  7 10  1  0  0  0  0
  8  7  1  0  0  0  0
 11 10  1  1  0  0  0
 11 12  1  0  0  0  0
 12 13  1  0  0  0  0
 14 12  1  0  0  0  0
 14 15  1  0  0  0  0
 16 14  1  0  0  0  0
 17 16  1  0  0  0  0
 17 11  1  0  0  0  0
 18 17  1  0  0  0  0
 19  1  1  0  0  0  0
 20 19  1  0  0  0  0
 21 20  1  0  0  0  0
 21 29  1  0  0  0  0
 22 21  2  0  0  0  0
 23 24  2  0  0  0  0
 23 22  1  0  0  0  0
 24 25  1  0  0  0  0
 25 20  2  0  0  0  0
 26 28  1  0  0  0  0
 27 26  2  0  0  0  0
 28 32  1  0  0  0  0
 28 24  1  0  0  0  0
 30 22  1  0  0  0  0
 31 26  1  0  0  0  0
M  END
>  <minimizedAffinity>
-4.54034376

>  <minimizedRMSD>
3.35698676

$$$$
