
 OpenBabel03262521573D

 38 40  0  0  1  0  0  0  0  0999 V2000
   37.6630   24.5450   31.2010 C   0  0  1  0  0  0  0  0  0  0  0  0
   37.4620   25.4370   32.4170 C   0  0  2  0  0  0  0  0  0  0  0  0
   36.2780   26.2960   32.1580 C   0  0  0  0  0  0  0  0  0  0  0  0
   35.6800   26.0740   30.9430 O   0  0  0  0  0  0  0  0  0  0  0  0
   35.2730   24.7450   30.7900 C   0  0  0  0  0  0  0  0  0  0  0  0
   36.3880   23.7640   31.0370 C   0  0  2  0  0  0  0  0  0  0  0  0
   38.5050   23.8570   31.3840 H   0  0  0  0  0  0  0  0  0  0  0  0
   37.2300   24.7540   33.2720 H   0  0  0  0  0  0  0  0  0  0  0  0
   35.5250   26.2390   32.9880 H   0  0  0  0  0  0  0  0  0  0  0  0
   36.6060   27.3700   32.1500 H   0  0  0  0  0  0  0  0  0  0  0  0
   34.3890   24.5720   31.4050 H   0  0  0  0  0  0  0  0  0  0  0  0
   34.9740   24.6230   29.7110 H   0  0  0  0  0  0  0  0  0  0  0  0
   36.5140   23.0300   30.2430 H   0  0  0  0  0  0  0  0  0  0  0  0
   37.8270   25.3060   30.0440 O   0  0  0  0  0  0  0  0  0  0  0  0
   38.5890   25.9300   30.1780 H   0  0  0  0  0  0  0  0  0  0  0  0
   38.9280   26.4370   32.7670 S   0  0  0  0  0  0  0  0  0  0  0  0
   38.9820   26.8980   34.5090 C   0  0  0  0  0  0  0  0  0  0  0  0
   40.0250   26.7380   34.8500 H   0  0  0  0  0  0  0  0  0  0  0  0
   38.7920   28.0050   34.5530 H   0  0  0  0  0  0  0  0  0  0  0  0
   37.8000   26.0520   35.5290 S   0  0  0  0  0  0  0  0  0  0  0  0
   38.6090   24.7060   36.3860 C   0  0  0  0  0  0  0  0  0  0  0  0
   38.0820   24.4240   37.6320 C   0  0  0  0  0  0  0  0  0  0  0  0
   38.6670   23.3720   38.3750 C   0  0  0  0  0  0  0  0  0  0  0  0
   39.7240   22.6990   37.8070 N   0  0  0  0  0  0  0  0  0  0  0  0
   40.1820   23.0390   36.5810 C   0  0  0  0  0  0  0  0  0  0  0  0
   39.6370   24.0150   35.8920 N   0  0  0  0  0  0  0  0  0  0  0  0
   37.2490   24.9200   38.1300 H   0  0  0  0  0  0  0  0  0  0  0  0
   38.2990   23.1080   39.3450 H   0  0  0  0  0  0  0  0  0  0  0  0
   41.0190   22.4250   36.2580 H   0  0  0  0  0  0  0  0  0  0  0  0
   36.1600   23.1130   32.2610 O   0  0  0  0  0  0  0  0  0  0  0  0
   36.4590   21.7600   32.1820 C   0  0  2  0  0  3  0  0  0  0  0  0
   35.4290   21.1320   31.2660 C   0  0  0  0  0  3  0  0  0  0  0  0
   35.8330   20.7170   30.3410 H   0  0  0  0  0  0  0  0  0  0  0  0
   34.8250   20.0040   32.0700 C   0  0  0  0  0  3  0  0  0  0  0  0
   33.7340   20.1070   32.2290 H   0  0  0  0  0  0  0  0  0  0  0  0
   35.5430   19.9130   33.2540 O   0  0  0  0  0  0  0  0  0  0  0  0
   36.0910   21.1470   33.5220 C   0  0  0  0  0  3  0  0  0  0  0  0
   37.0020   20.9830   34.1680 H   0  0  0  0  0  0  0  0  0  0  0  0
  1  7  1  1  0  0  0
  1  2  1  0  0  0  0
  2 16  1  0  0  0  0
  2  8  1  1  0  0  0
  3  2  1  0  0  0  0
  3  9  1  0  0  0  0
  4  3  1  0  0  0  0
  5  4  1  0  0  0  0
  5  6  1  0  0  0  0
  5 11  1  0  0  0  0
  6 13  1  6  0  0  0
  6  1  1  0  0  0  0
  6 30  1  0  0  0  0
 10  3  1  0  0  0  0
 12  5  1  0  0  0  0
 14 15  1  0  0  0  0
 14  1  1  0  0  0  0
 16 17  1  0  0  0  0
 17 19  1  0  0  0  0
 17 18  1  0  0  0  0
 17 20  1  0  0  0  0
 20 21  1  0  0  0  0
 21 22  1  0  0  0  0
 22 27  1  0  0  0  0
 22 23  2  0  0  0  0
 23 28  1  0  0  0  0
 24 23  1  0  0  0  0
 25 24  2  0  0  0  0
 26 21  2  0  0  0  0
 26 25  1  0  0  0  0
 29 25  1  0  0  0  0
 31 30  1  1  0  0  0
 31 37  1  0  0  0  0
 32 34  1  0  0  0  0
 32 31  1  0  0  0  0
 33 32  1  0  0  0  0
 34 35  1  0  0  0  0
 34 36  1  0  0  0  0
 36 37  1  0  0  0  0
 37 38  1  0  0  0  0
M  END
>  <minimizedAffinity>
-5.04784489

$$$$

 OpenBabel03262521573D

 38 40  0  0  1  0  0  0  0  0999 V2000
   37.5260   26.6590   35.1900 C   0  0  1  0  0  0  0  0  0  0  0  0
   37.6560   26.5760   33.6770 C   0  0  2  0  0  0  0  0  0  0  0  0
   39.0560   26.9250   33.3220 C   0  0  0  0  0  0  0  0  0  0  0  0
   39.8520   27.2140   34.4020 O   0  0  0  0  0  0  0  0  0  0  0  0
   39.9040   26.1580   35.3180 C   0  0  0  0  0  0  0  0  0  0  0  0
   38.5380   25.6990   35.7520 C   0  0  2  0  0  0  0  0  0  0  0  0
   36.5100   26.3540   35.4900 H   0  0  0  0  0  0  0  0  0  0  0  0
   37.4730   25.5060   33.4050 H   0  0  0  0  0  0  0  0  0  0  0  0
   39.5350   26.1450   32.6730 H   0  0  0  0  0  0  0  0  0  0  0  0
   39.0470   27.8520   32.6880 H   0  0  0  0  0  0  0  0  0  0  0  0
   40.5250   25.3630   34.9040 H   0  0  0  0  0  0  0  0  0  0  0  0
   40.4160   26.5560   36.2380 H   0  0  0  0  0  0  0  0  0  0  0  0
   38.4170   25.6390   36.8330 H   0  0  0  0  0  0  0  0  0  0  0  0
   37.8680   27.9290   35.6530 O   0  0  0  0  0  0  0  0  0  0  0  0
   37.2980   28.6010   35.1920 H   0  0  0  0  0  0  0  0  0  0  0  0
   36.4800   27.6660   32.8400 S   0  0  0  0  0  0  0  0  0  0  0  0
   36.1670   27.0920   31.1600 C   0  0  0  0  0  0  0  0  0  0  0  0
   35.6890   27.9350   30.6180 H   0  0  0  0  0  0  0  0  0  0  0  0
   37.1720   26.9300   30.6850 H   0  0  0  0  0  0  0  0  0  0  0  0
   35.2140   25.5970   31.0600 S   0  0  0  0  0  0  0  0  0  0  0  0
   36.3190   24.1940   30.9550 C   0  0  0  0  0  0  0  0  0  0  0  0
   35.7440   22.9870   31.3060 C   0  0  0  0  0  0  0  0  0  0  0  0
   36.5530   21.8280   31.2490 C   0  0  0  0  0  0  0  0  0  0  0  0
   37.8600   21.9790   30.8490 N   0  0  0  0  0  0  0  0  0  0  0  0
   38.3470   23.1980   30.5230 C   0  0  0  0  0  0  0  0  0  0  0  0
   37.5950   24.2740   30.5750 N   0  0  0  0  0  0  0  0  0  0  0  0
   34.7180   22.8080   31.6280 H   0  0  0  0  0  0  0  0  0  0  0  0
   36.1600   20.8660   31.5080 H   0  0  0  0  0  0  0  0  0  0  0  0
   39.3930   23.1690   30.2260 H   0  0  0  0  0  0  0  0  0  0  0  0
   38.2690   24.4500   35.1690 O   0  0  0  0  0  0  0  0  0  0  0  0
   38.0840   23.4670   36.1310 C   0  0  2  0  0  3  0  0  0  0  0  0
   37.7070   24.1730   37.4170 C   0  0  0  0  0  3  0  0  0  0  0  0
   36.7020   23.9510   37.7820 H   0  0  0  0  0  0  0  0  0  0  0  0
   38.7050   23.6830   38.4400 C   0  0  0  0  0  3  0  0  0  0  0  0
   39.3160   24.4920   38.8870 H   0  0  0  0  0  0  0  0  0  0  0  0
   39.4670   22.6950   37.8330 O   0  0  0  0  0  0  0  0  0  0  0  0
   39.4590   22.9200   36.4740 C   0  0  0  0  0  3  0  0  0  0  0  0
   39.6530   21.9330   35.9630 H   0  0  0  0  0  0  0  0  0  0  0  0
  1  7  1  1  0  0  0
  1 14  1  0  0  0  0
  1  6  1  0  0  0  0
  2  8  1  6  0  0  0
  2  1  1  0  0  0  0
  3  2  1  0  0  0  0
  3  4  1  0  0  0  0
  4  5  1  0  0  0  0
  5  6  1  0  0  0  0
  5 12  1  0  0  0  0
  6 13  1  1  0  0  0
  9  3  1  0  0  0  0
 10  3  1  0  0  0  0
 11  5  1  0  0  0  0
 15 14  1  0  0  0  0
 16  2  1  0  0  0  0
 17 16  1  0  0  0  0
 18 17  1  0  0  0  0
 19 17  1  0  0  0  0
 20 17  1  0  0  0  0
 21 20  1  0  0  0  0
 21 22  1  0  0  0  0
 22 27  1  0  0  0  0
 23 22  2  0  0  0  0
 23 28  1  0  0  0  0
 24 23  1  0  0  0  0
 25 26  1  0  0  0  0
 25 24  2  0  0  0  0
 26 21  2  0  0  0  0
 29 25  1  0  0  0  0
 30  6  1  0  0  0  0
 31 30  1  6  0  0  0
 31 37  1  0  0  0  0
 31 32  1  0  0  0  0
 32 33  1  0  0  0  0
 32 34  1  0  0  0  0
 34 35  1  0  0  0  0
 36 34  1  0  0  0  0
 37 36  1  0  0  0  0
 38 37  1  0  0  0  0
M  END
>  <minimizedAffinity>
-4.98648787

$$$$

 OpenBabel03262521573D

 38 40  0  0  1  0  0  0  0  0999 V2000
   37.7170   23.7720   31.1080 C   0  0  1  0  0  0  0  0  0  0  0  0
   37.9710   24.5050   32.4170 C   0  0  2  0  0  0  0  0  0  0  0  0
   36.9060   25.5280   32.5760 C   0  0  0  0  0  0  0  0  0  0  0  0
   35.9920   25.5500   31.5530 O   0  0  0  0  0  0  0  0  0  0  0  0
   35.3610   24.3140   31.3810 C   0  0  0  0  0  0  0  0  0  0  0  0
   36.3380   23.1810   31.2170 C   0  0  2  0  0  0  0  0  0  0  0  0
   38.4620   22.9680   30.9850 H   0  0  0  0  0  0  0  0  0  0  0  0
   37.8620   23.7430   33.2290 H   0  0  0  0  0  0  0  0  0  0  0  0
   36.3880   25.4480   33.5690 H   0  0  0  0  0  0  0  0  0  0  0  0
   37.3810   26.5450   32.5880 H   0  0  0  0  0  0  0  0  0  0  0  0
   34.6470   24.1660   32.1920 H   0  0  0  0  0  0  0  0  0  0  0  0
   34.7820   24.3800   30.4170 H   0  0  0  0  0  0  0  0  0  0  0  0
   36.1440   22.5540   30.3490 H   0  0  0  0  0  0  0  0  0  0  0  0
   37.6970   24.6590   30.0330 O   0  0  0  0  0  0  0  0  0  0  0  0
   38.5540   25.1620   30.0180 H   0  0  0  0  0  0  0  0  0  0  0  0
   39.6130   25.2620   32.4560 S   0  0  0  0  0  0  0  0  0  0  0  0
   40.7110   24.3390   33.5490 C   0  0  0  0  0  0  0  0  0  0  0  0
   41.6410   24.1430   32.9760 H   0  0  0  0  0  0  0  0  0  0  0  0
   40.9880   25.0370   34.3860 H   0  0  0  0  0  0  0  0  0  0  0  0
   40.0040   22.8560   34.2200 S   0  0  0  0  0  0  0  0  0  0  0  0
   39.2420   23.2210   35.7970 C   0  0  0  0  0  0  0  0  0  0  0  0
   39.9640   22.7880   36.8930 C   0  0  0  0  0  0  0  0  0  0  0  0
   39.4280   23.0380   38.1780 C   0  0  0  0  0  0  0  0  0  0  0  0
   38.2220   23.6970   38.2520 N   0  0  0  0  0  0  0  0  0  0  0  0
   37.5780   24.0860   37.1280 C   0  0  0  0  0  0  0  0  0  0  0  0
   38.0760   23.8540   35.9360 N   0  0  0  0  0  0  0  0  0  0  0  0
   40.9190   22.2640   36.8960 H   0  0  0  0  0  0  0  0  0  0  0  0
   39.9440   22.7270   39.0630 H   0  0  0  0  0  0  0  0  0  0  0  0
   36.6390   24.5940   37.3350 H   0  0  0  0  0  0  0  0  0  0  0  0
   36.3310   22.3990   32.3850 O   0  0  0  0  0  0  0  0  0  0  0  0
   35.3040   21.4660   32.3670 C   0  0  2  0  0  3  0  0  0  0  0  0
   35.5170   20.5510   33.5550 C   0  0  0  0  0  3  0  0  0  0  0  0
   34.7310   20.5930   34.3110 H   0  0  0  0  0  0  0  0  0  0  0  0
   35.5470   19.1560   32.9760 C   0  0  0  0  0  3  0  0  0  0  0  0
   36.4980   18.6190   33.1610 H   0  0  0  0  0  0  0  0  0  0  0  0
   35.2350   19.2630   31.6280 O   0  0  0  0  0  0  0  0  0  0  0  0
   35.5800   20.5270   31.2050 C   0  0  0  0  0  3  0  0  0  0  0  0
   34.9390   20.7750   30.3100 H   0  0  0  0  0  0  0  0  0  0  0  0
  1  7  1  6  0  0  0
  1  6  1  0  0  0  0
  1  2  1  0  0  0  0
  2 16  1  0  0  0  0
  2  3  1  0  0  0  0
  2  8  1  1  0  0  0
  3 10  1  0  0  0  0
  3  9  1  0  0  0  0
  4  3  1  0  0  0  0
  5  4  1  0  0  0  0
  5 11  1  0  0  0  0
  6 13  1  6  0  0  0
  6  5  1  0  0  0  0
  6 30  1  0  0  0  0
 12  5  1  0  0  0  0
 14  1  1  0  0  0  0
 15 14  1  0  0  0  0
 16 17  1  0  0  0  0
 17 20  1  0  0  0  0
 17 19  1  0  0  0  0
 18 17  1  0  0  0  0
 20 21  1  0  0  0  0
 21 26  2  0  0  0  0
 21 22  1  0  0  0  0
 22 27  1  0  0  0  0
 22 23  2  0  0  0  0
 23 24  1  0  0  0  0
 23 28  1  0  0  0  0
 25 29  1  0  0  0  0
 25 24  2  0  0  0  0
 26 25  1  0  0  0  0
 31 30  1  1  0  0  0
 31 32  1  0  0  0  0
 32 33  1  0  0  0  0
 34 35  1  0  0  0  0
 34 32  1  0  0  0  0
 36 34  1  0  0  0  0
 37 36  1  0  0  0  0
 37 31  1  0  0  0  0
 38 37  1  0  0  0  0
M  END
>  <minimizedAffinity>
-4.95006418

$$$$

 OpenBabel03262521573D

 38 40  0  0  1  0  0  0  0  0999 V2000
   38.0910   26.5250   35.8030 C   0  0  1  0  0  0  0  0  0  0  0  0
   37.5050   26.7870   34.4240 C   0  0  2  0  0  0  0  0  0  0  0  0
   38.6300   27.0910   33.5030 C   0  0  0  0  0  0  0  0  0  0  0  0
   39.8660   27.0530   34.0980 O   0  0  0  0  0  0  0  0  0  0  0  0
   40.1320   25.8120   34.6860 C   0  0  0  0  0  0  0  0  0  0  0  0
   39.0520   25.3800   35.6410 C   0  0  2  0  0  0  0  0  0  0  0  0
   37.2840   26.2440   36.5000 H   0  0  0  0  0  0  0  0  0  0  0  0
   37.0250   25.8290   34.1000 H   0  0  0  0  0  0  0  0  0  0  0  0
   38.6110   26.4470   32.5850 H   0  0  0  0  0  0  0  0  0  0  0  0
   38.5060   28.1380   33.1150 H   0  0  0  0  0  0  0  0  0  0  0  0
   40.3410   25.0860   33.8990 H   0  0  0  0  0  0  0  0  0  0  0  0
   41.0680   25.9410   35.2990 H   0  0  0  0  0  0  0  0  0  0  0  0
   39.4230   25.0790   36.6200 H   0  0  0  0  0  0  0  0  0  0  0  0
   38.8320   27.6200   36.2470 O   0  0  0  0  0  0  0  0  0  0  0  0
   38.2500   28.4250   36.2370 H   0  0  0  0  0  0  0  0  0  0  0  0
   36.3010   28.1360   34.4490 S   0  0  0  0  0  0  0  0  0  0  0  0
   36.1320   28.8680   32.8110 C   0  0  0  0  0  0  0  0  0  0  0  0
   37.1020   28.7200   32.2930 H   0  0  0  0  0  0  0  0  0  0  0  0
   35.3730   28.2470   32.2600 H   0  0  0  0  0  0  0  0  0  0  0  0
   35.6190   30.5680   32.8140 S   0  0  0  0  0  0  0  0  0  0  0  0
   34.9120   30.9730   34.4060 C   0  0  0  0  0  0  0  0  0  0  0  0
   35.7560   31.6780   35.2430 C   0  0  0  0  0  0  0  0  0  0  0  0
   35.2710   32.0370   36.5220 C   0  0  0  0  0  0  0  0  0  0  0  0
   33.9890   31.6590   36.8500 N   0  0  0  0  0  0  0  0  0  0  0  0
   33.2270   30.9670   35.9720 C   0  0  0  0  0  0  0  0  0  0  0  0
   33.6780   30.6360   34.7840 N   0  0  0  0  0  0  0  0  0  0  0  0
   36.7760   32.0030   35.0380 H   0  0  0  0  0  0  0  0  0  0  0  0
   35.8800   32.5840   37.2120 H   0  0  0  0  0  0  0  0  0  0  0  0
   32.2390   30.7360   36.3620 H   0  0  0  0  0  0  0  0  0  0  0  0
   38.3230   24.3280   35.0610 O   0  0  0  0  0  0  0  0  0  0  0  0
   38.3330   23.1970   35.8650 C   0  0  2  0  0  3  0  0  0  0  0  0
   38.7980   23.6350   37.2380 C   0  0  0  0  0  3  0  0  0  0  0  0
   38.0550   23.5240   38.0300 H   0  0  0  0  0  0  0  0  0  0  0  0
   39.9730   22.7390   37.5590 C   0  0  0  0  0  3  0  0  0  0  0  0
   40.9180   23.2910   37.7280 H   0  0  0  0  0  0  0  0  0  0  0  0
   40.0630   21.8000   36.5410 O   0  0  0  0  0  0  0  0  0  0  0  0
   39.4990   22.3380   35.4060 C   0  0  0  0  0  3  0  0  0  0  0  0
   39.1530   21.4820   34.7570 H   0  0  0  0  0  0  0  0  0  0  0  0
  1 14  1  0  0  0  0
  1  7  1  1  0  0  0
  2  8  1  6  0  0  0
  2 16  1  0  0  0  0
  2  1  1  0  0  0  0
  3  4  1  0  0  0  0
  3  2  1  0  0  0  0
  4  5  1  0  0  0  0
  5 12  1  0  0  0  0
  5  6  1  0  0  0  0
  6  1  1  0  0  0  0
  6 13  1  1  0  0  0
  9  3  1  0  0  0  0
 10  3  1  0  0  0  0
 11  5  1  0  0  0  0
 15 14  1  0  0  0  0
 17 20  1  0  0  0  0
 17 16  1  0  0  0  0
 18 17  1  0  0  0  0
 19 17  1  0  0  0  0
 20 21  1  0  0  0  0
 21 26  2  0  0  0  0
 21 22  1  0  0  0  0
 22 23  2  0  0  0  0
 23 24  1  0  0  0  0
 23 28  1  0  0  0  0
 25 29  1  0  0  0  0
 25 24  2  0  0  0  0
 26 25  1  0  0  0  0
 27 22  1  0  0  0  0
 30  6  1  0  0  0  0
 31 30  1  6  0  0  0
 31 32  1  0  0  0  0
 32 34  1  0  0  0  0
 32 33  1  0  0  0  0
 34 35  1  0  0  0  0
 36 34  1  0  0  0  0
 37 31  1  0  0  0  0
 37 36  1  0  0  0  0
 38 37  1  0  0  0  0
M  END
>  <minimizedAffinity>
-4.948071

$$$$

 OpenBabel03262521573D

 38 40  0  0  1  0  0  0  0  0999 V2000
   37.9090   26.7250   35.6990 C   0  0  1  0  0  0  0  0  0  0  0  0
   37.4260   26.9870   34.2800 C   0  0  2  0  0  0  0  0  0  0  0  0
   38.6200   27.2480   33.4350 C   0  0  0  0  0  0  0  0  0  0  0  0
   39.8110   27.1810   34.1140 O   0  0  0  0  0  0  0  0  0  0  0  0
   39.9990   25.9400   34.7310 C   0  0  0  0  0  0  0  0  0  0  0  0
   38.8440   25.5500   35.6140 C   0  0  2  0  0  0  0  0  0  0  0  0
   37.0480   26.4760   36.3410 H   0  0  0  0  0  0  0  0  0  0  0  0
   36.9410   26.0400   33.9340 H   0  0  0  0  0  0  0  0  0  0  0  0
   38.6450   26.5930   32.5240 H   0  0  0  0  0  0  0  0  0  0  0  0
   38.5540   28.2930   33.0290 H   0  0  0  0  0  0  0  0  0  0  0  0
   40.2390   25.1980   33.9680 H   0  0  0  0  0  0  0  0  0  0  0  0
   40.8950   26.0480   35.4050 H   0  0  0  0  0  0  0  0  0  0  0  0
   39.1390   25.2510   36.6180 H   0  0  0  0  0  0  0  0  0  0  0  0
   38.6500   27.8030   36.1820 O   0  0  0  0  0  0  0  0  0  0  0  0
   38.0940   28.6250   36.1230 H   0  0  0  0  0  0  0  0  0  0  0  0
   36.2640   28.3710   34.2100 S   0  0  0  0  0  0  0  0  0  0  0  0
   35.6800   28.6250   32.5230 C   0  0  0  0  0  0  0  0  0  0  0  0
   36.1620   27.8470   31.8970 H   0  0  0  0  0  0  0  0  0  0  0  0
   34.5780   28.4000   32.5290 H   0  0  0  0  0  0  0  0  0  0  0  0
   35.9480   30.2630   31.8920 S   0  0  0  0  0  0  0  0  0  0  0  0
   36.7410   30.1620   30.2930 C   0  0  0  0  0  0  0  0  0  0  0  0
   37.2580   28.9160   29.9900 C   0  0  0  0  0  0  0  0  0  0  0  0
   37.9030   28.7530   28.7410 C   0  0  0  0  0  0  0  0  0  0  0  0
   37.9740   29.8470   27.9100 N   0  0  0  0  0  0  0  0  0  0  0  0
   37.4430   31.0340   28.2830 C   0  0  0  0  0  0  0  0  0  0  0  0
   36.8440   31.1840   29.4420 N   0  0  0  0  0  0  0  0  0  0  0  0
   37.2320   28.0180   30.6060 H   0  0  0  0  0  0  0  0  0  0  0  0
   38.3220   27.8110   28.4530 H   0  0  0  0  0  0  0  0  0  0  0  0
   37.5710   31.8090   27.5310 H   0  0  0  0  0  0  0  0  0  0  0  0
   38.1250   24.5130   34.9950 O   0  0  0  0  0  0  0  0  0  0  0  0
   38.1020   23.3700   35.7820 C   0  0  2  0  0  3  0  0  0  0  0  0
   38.7130   23.7400   37.1180 C   0  0  0  0  0  3  0  0  0  0  0  0
   38.0300   23.6780   37.9670 H   0  0  0  0  0  0  0  0  0  0  0  0
   39.8270   22.7410   37.3290 C   0  0  0  0  0  3  0  0  0  0  0  0
   40.8280   23.2060   37.4270 H   0  0  0  0  0  0  0  0  0  0  0  0
   39.7530   21.8170   36.2960 O   0  0  0  0  0  0  0  0  0  0  0  0
   39.1480   22.4230   35.2180 C   0  0  0  0  0  3  0  0  0  0  0  0
   38.6780   21.6130   34.5900 H   0  0  0  0  0  0  0  0  0  0  0  0
  1 14  1  0  0  0  0
  1  7  1  1  0  0  0
  2  8  1  6  0  0  0
  2  1  1  0  0  0  0
  3  4  1  0  0  0  0
  3  2  1  0  0  0  0
  4  5  1  0  0  0  0
  5 12  1  0  0  0  0
  5  6  1  0  0  0  0
  6  1  1  0  0  0  0
  6 13  1  1  0  0  0
  9  3  1  0  0  0  0
 10  3  1  0  0  0  0
 11  5  1  0  0  0  0
 15 14  1  0  0  0  0
 16  2  1  0  0  0  0
 17 19  1  0  0  0  0
 17 16  1  0  0  0  0
 18 17  1  0  0  0  0
 20 17  1  0  0  0  0
 21 20  1  0  0  0  0
 22 21  1  0  0  0  0
 22 27  1  0  0  0  0
 23 22  2  0  0  0  0
 24 25  2  0  0  0  0
 24 23  1  0  0  0  0
 25 26  1  0  0  0  0
 26 21  2  0  0  0  0
 28 23  1  0  0  0  0
 29 25  1  0  0  0  0
 30  6  1  0  0  0  0
 31 30  1  6  0  0  0
 31 32  1  0  0  0  0
 32 34  1  0  0  0  0
 32 33  1  0  0  0  0
 34 35  1  0  0  0  0
 36 34  1  0  0  0  0
 37 31  1  0  0  0  0
 37 36  1  0  0  0  0
 38 37  1  0  0  0  0
M  END
>  <minimizedAffinity>
-4.72876787

$$$$

 OpenBabel03262521573D

 38 40  0  0  1  0  0  0  0  0999 V2000
   35.7580   27.2230   31.7460 C   0  0  1  0  0  0  0  0  0  0  0  0
   36.9730   26.7810   32.5470 C   0  0  2  0  0  0  0  0  0  0  0  0
   38.1670   27.4410   31.9590 C   0  0  0  0  0  0  0  0  0  0  0  0
   37.8880   28.2570   30.8920 O   0  0  0  0  0  0  0  0  0  0  0  0
   36.9750   29.2640   31.2230 C   0  0  0  0  0  0  0  0  0  0  0  0
   35.7150   28.7240   31.8430 C   0  0  2  0  0  0  0  0  0  0  0  0
   34.8460   26.7910   32.1910 H   0  0  0  0  0  0  0  0  0  0  0  0
   36.8230   27.1690   33.5860 H   0  0  0  0  0  0  0  0  0  0  0  0
   38.7710   27.9880   32.7310 H   0  0  0  0  0  0  0  0  0  0  0  0
   38.8620   26.6490   31.5690 H   0  0  0  0  0  0  0  0  0  0  0  0
   37.4810   30.0130   31.8340 H   0  0  0  0  0  0  0  0  0  0  0  0
   36.6720   29.7530   30.2550 H   0  0  0  0  0  0  0  0  0  0  0  0
   34.8020   29.0890   31.3750 H   0  0  0  0  0  0  0  0  0  0  0  0
   35.9040   26.9050   30.3970 O   0  0  0  0  0  0  0  0  0  0  0  0
   36.0680   25.9280   30.3150 H   0  0  0  0  0  0  0  0  0  0  0  0
   37.1580   24.9810   32.5490 S   0  0  0  0  0  0  0  0  0  0  0  0
   38.6720   24.5000   33.4020 C   0  0  0  0  0  0  0  0  0  0  0  0
   39.4970   24.5950   32.6660 H   0  0  0  0  0  0  0  0  0  0  0  0
   38.8530   25.2760   34.1940 H   0  0  0  0  0  0  0  0  0  0  0  0
   38.6140   22.8900   34.1490 S   0  0  0  0  0  0  0  0  0  0  0  0
   38.7950   23.0500   35.9210 C   0  0  0  0  0  0  0  0  0  0  0  0
   37.7890   23.7740   36.5340 C   0  0  0  0  0  0  0  0  0  0  0  0
   37.8600   23.9460   37.9370 C   0  0  0  0  0  0  0  0  0  0  0  0
   38.9260   23.3810   38.5980 N   0  0  0  0  0  0  0  0  0  0  0  0
   39.8700   22.6870   37.9220 C   0  0  0  0  0  0  0  0  0  0  0  0
   39.8030   22.5280   36.6200 N   0  0  0  0  0  0  0  0  0  0  0  0
   36.9250   24.2410   36.0640 H   0  0  0  0  0  0  0  0  0  0  0  0
   37.1090   24.4960   38.4650 H   0  0  0  0  0  0  0  0  0  0  0  0
   40.6520   22.2980   38.5690 H   0  0  0  0  0  0  0  0  0  0  0  0
   35.7090   29.0350   33.2130 O   0  0  0  0  0  0  0  0  0  0  0  0
   34.7910   30.0340   33.5050 C   0  0  2  0  0  3  0  0  0  0  0  0
   35.5240   31.0860   34.3120 C   0  0  0  0  0  3  0  0  0  0  0  0
   35.6060   32.0590   33.8250 H   0  0  0  0  0  0  0  0  0  0  0  0
   34.7090   31.2510   35.5740 C   0  0  0  0  0  3  0  0  0  0  0  0
   35.2720   31.0180   36.4990 H   0  0  0  0  0  0  0  0  0  0  0  0
   33.5620   30.4840   35.4260 O   0  0  0  0  0  0  0  0  0  0  0  0
   33.8350   29.4660   34.5400 C   0  0  0  0  0  3  0  0  0  0  0  0
   32.8580   29.1480   34.0730 H   0  0  0  0  0  0  0  0  0  0  0  0
  1  6  1  0  0  0  0
  1  7  1  1  0  0  0
  1  2  1  0  0  0  0
  2 16  1  0  0  0  0
  2  8  1  1  0  0  0
  3  2  1  0  0  0  0
  3  9  1  0  0  0  0
  4  5  1  0  0  0  0
  4  3  1  0  0  0  0
  5 11  1  0  0  0  0
  5  6  1  0  0  0  0
  6 13  1  6  0  0  0
  6 30  1  0  0  0  0
 10  3  1  0  0  0  0
 12  5  1  0  0  0  0
 14  1  1  0  0  0  0
 15 14  1  0  0  0  0
 16 17  1  0  0  0  0
 17 20  1  0  0  0  0
 17 19  1  0  0  0  0
 18 17  1  0  0  0  0
 20 21  1  0  0  0  0
 21 22  2  0  0  0  0
 21 26  1  0  0  0  0
 22 23  1  0  0  0  0
 23 28  1  0  0  0  0
 23 24  2  0  0  0  0
 25 29  1  0  0  0  0
 25 24  1  0  0  0  0
 26 25  2  0  0  0  0
 27 22  1  0  0  0  0
 31 30  1  1  0  0  0
 31 32  1  0  0  0  0
 31 37  1  0  0  0  0
 32 34  1  0  0  0  0
 33 32  1  0  0  0  0
 34 35  1  0  0  0  0
 36 34  1  0  0  0  0
 37 36  1  0  0  0  0
 38 37  1  0  0  0  0
M  END
>  <minimizedAffinity>
-4.7227664

$$$$

 OpenBabel03262521573D

 38 40  0  0  1  0  0  0  0  0999 V2000
   37.9030   26.6960   35.6650 C   0  0  1  0  0  0  0  0  0  0  0  0
   37.4770   26.9200   34.2220 C   0  0  2  0  0  0  0  0  0  0  0  0
   38.7030   27.1800   33.4230 C   0  0  0  0  0  0  0  0  0  0  0  0
   39.8650   27.1460   34.1530 O   0  0  0  0  0  0  0  0  0  0  0  0
   40.0430   25.9210   34.8050 C   0  0  0  0  0  0  0  0  0  0  0  0
   38.8570   25.5330   35.6460 C   0  0  2  0  0  0  0  0  0  0  0  0
   37.0190   26.4470   36.2760 H   0  0  0  0  0  0  0  0  0  0  0  0
   37.0210   25.9580   33.8760 H   0  0  0  0  0  0  0  0  0  0  0  0
   38.7760   26.5070   32.5290 H   0  0  0  0  0  0  0  0  0  0  0  0
   38.6390   28.2150   32.9920 H   0  0  0  0  0  0  0  0  0  0  0  0
   40.3270   25.1680   34.0690 H   0  0  0  0  0  0  0  0  0  0  0  0
   40.9080   26.0580   35.5140 H   0  0  0  0  0  0  0  0  0  0  0  0
   39.1130   25.2600   36.6690 H   0  0  0  0  0  0  0  0  0  0  0  0
   38.6080   27.7940   36.1560 O   0  0  0  0  0  0  0  0  0  0  0  0
   38.0430   28.6060   36.0550 H   0  0  0  0  0  0  0  0  0  0  0  0
   36.3000   28.2840   34.0720 S   0  0  0  0  0  0  0  0  0  0  0  0
   35.8450   28.5440   32.3470 C   0  0  0  0  0  0  0  0  0  0  0  0
   36.7450   28.3110   31.7410 H   0  0  0  0  0  0  0  0  0  0  0  0
   35.0750   27.7640   32.0980 H   0  0  0  0  0  0  0  0  0  0  0  0
   35.1920   30.1570   31.9950 S   0  0  0  0  0  0  0  0  0  0  0  0
   33.4400   30.1810   32.3560 C   0  0  0  0  0  0  0  0  0  0  0  0
   32.7490   31.2180   31.7580 C   0  0  0  0  0  0  0  0  0  0  0  0
   31.3570   31.3070   31.9940 C   0  0  0  0  0  0  0  0  0  0  0  0
   30.7830   30.3560   32.8050 N   0  0  0  0  0  0  0  0  0  0  0  0
   31.5320   29.3720   33.3540 C   0  0  0  0  0  0  0  0  0  0  0  0
   32.8240   29.2900   33.1330 N   0  0  0  0  0  0  0  0  0  0  0  0
   33.1480   31.9970   31.1090 H   0  0  0  0  0  0  0  0  0  0  0  0
   30.7700   32.0890   31.5560 H   0  0  0  0  0  0  0  0  0  0  0  0
   30.9500   28.6920   33.9710 H   0  0  0  0  0  0  0  0  0  0  0  0
   38.1810   24.4720   35.0210 O   0  0  0  0  0  0  0  0  0  0  0  0
   38.1660   23.3370   35.8180 C   0  0  2  0  0  3  0  0  0  0  0  0
   38.6530   23.7540   37.1900 C   0  0  0  0  0  3  0  0  0  0  0  0
   37.9130   23.6570   37.9870 H   0  0  0  0  0  0  0  0  0  0  0  0
   39.8060   22.8260   37.4970 C   0  0  0  0  0  3  0  0  0  0  0  0
   40.7670   23.3510   37.6630 H   0  0  0  0  0  0  0  0  0  0  0  0
   39.8650   21.8910   36.4730 O   0  0  0  0  0  0  0  0  0  0  0  0
   39.3060   22.4500   35.3450 C   0  0  0  0  0  3  0  0  0  0  0  0
   38.9340   21.6080   34.6940 H   0  0  0  0  0  0  0  0  0  0  0  0
  1 14  1  0  0  0  0
  1  7  1  1  0  0  0
  2  8  1  6  0  0  0
  2  1  1  0  0  0  0
  3  4  1  0  0  0  0
  3  2  1  0  0  0  0
  4  5  1  0  0  0  0
  5 12  1  0  0  0  0
  5  6  1  0  0  0  0
  6  1  1  0  0  0  0
  6 13  1  1  0  0  0
  9  3  1  0  0  0  0
 10  3  1  0  0  0  0
 11  5  1  0  0  0  0
 15 14  1  0  0  0  0
 16  2  1  0  0  0  0
 17 16  1  0  0  0  0
 18 17  1  0  0  0  0
 19 17  1  0  0  0  0
 20 17  1  0  0  0  0
 20 21  1  0  0  0  0
 21 26  1  0  0  0  0
 22 23  1  0  0  0  0
 22 21  2  0  0  0  0
 23 24  2  0  0  0  0
 24 25  1  0  0  0  0
 25 29  1  0  0  0  0
 26 25  2  0  0  0  0
 27 22  1  0  0  0  0
 28 23  1  0  0  0  0
 30  6  1  0  0  0  0
 31 30  1  6  0  0  0
 31 32  1  0  0  0  0
 32 34  1  0  0  0  0
 32 33  1  0  0  0  0
 34 35  1  0  0  0  0
 36 34  1  0  0  0  0
 37 31  1  0  0  0  0
 37 36  1  0  0  0  0
 38 37  1  0  0  0  0
M  END
>  <minimizedAffinity>
-4.68454552

$$$$

 OpenBabel03262521573D

 38 40  0  0  1  0  0  0  0  0999 V2000
   37.1490   26.3120   33.7840 C   0  0  1  0  0  0  0  0  0  0  0  0
   38.2240   25.5980   32.9780 C   0  0  2  0  0  0  0  0  0  0  0  0
   39.5130   26.2950   33.2240 C   0  0  0  0  0  0  0  0  0  0  0  0
   39.4190   27.3570   34.0880 O   0  0  0  0  0  0  0  0  0  0  0  0
   38.9020   26.9810   35.3330 C   0  0  0  0  0  0  0  0  0  0  0  0
   37.5910   26.2510   35.2200 C   0  0  2  0  0  0  0  0  0  0  0  0
   36.1870   25.7860   33.6630 H   0  0  0  0  0  0  0  0  0  0  0  0
   38.2910   24.5610   33.3930 H   0  0  0  0  0  0  0  0  0  0  0  0
   40.3200   25.5870   33.5510 H   0  0  0  0  0  0  0  0  0  0  0  0
   39.8860   26.7180   32.2530 H   0  0  0  0  0  0  0  0  0  0  0  0
   39.6680   26.4310   35.8820 H   0  0  0  0  0  0  0  0  0  0  0  0
   38.6900   27.9350   35.8930 H   0  0  0  0  0  0  0  0  0  0  0  0
   36.8060   26.6550   35.8570 H   0  0  0  0  0  0  0  0  0  0  0  0
   37.0750   27.6600   33.4370 O   0  0  0  0  0  0  0  0  0  0  0  0
   36.9140   27.7290   32.4580 H   0  0  0  0  0  0  0  0  0  0  0  0
   37.8290   25.5640   31.2130 S   0  0  0  0  0  0  0  0  0  0  0  0
   37.3610   23.9010   30.6990 C   0  0  0  0  0  0  0  0  0  0  0  0
   37.2460   23.9270   29.5960 H   0  0  0  0  0  0  0  0  0  0  0  0
   38.2430   23.2390   30.9170 H   0  0  0  0  0  0  0  0  0  0  0  0
   35.9210   23.2580   31.5140 S   0  0  0  0  0  0  0  0  0  0  0  0
   36.0910   21.4890   31.7170 C   0  0  0  0  0  0  0  0  0  0  0  0
   34.9120   20.8320   32.0100 C   0  0  0  0  0  0  0  0  0  0  0  0
   34.9630   19.4290   32.1860 C   0  0  0  0  0  0  0  0  0  0  0  0
   36.1840   18.8110   32.0540 N   0  0  0  0  0  0  0  0  0  0  0  0
   37.2940   19.5290   31.7660 C   0  0  0  0  0  0  0  0  0  0  0  0
   37.2460   20.8310   31.6020 N   0  0  0  0  0  0  0  0  0  0  0  0
   33.9190   21.2660   32.1260 H   0  0  0  0  0  0  0  0  0  0  0  0
   34.0800   18.8670   32.4140 H   0  0  0  0  0  0  0  0  0  0  0  0
   38.1870   18.9130   31.6910 H   0  0  0  0  0  0  0  0  0  0  0  0
   37.7980   24.8930   35.5160 O   0  0  0  0  0  0  0  0  0  0  0  0
   38.7330   24.7290   36.5290 C   0  0  2  0  0  3  0  0  0  0  0  0
   39.6630   23.6150   36.0950 C   0  0  0  0  0  3  0  0  0  0  0  0
   40.6990   23.9210   35.9350 H   0  0  0  0  0  0  0  0  0  0  0  0
   39.6330   22.6150   37.2270 C   0  0  0  0  0  3  0  0  0  0  0  0
   39.2730   21.6120   36.9240 H   0  0  0  0  0  0  0  0  0  0  0  0
   38.8830   23.1750   38.2520 O   0  0  0  0  0  0  0  0  0  0  0  0
   38.0080   24.0840   37.6980 C   0  0  0  0  0  3  0  0  0  0  0  0
   37.7520   24.8400   38.4950 H   0  0  0  0  0  0  0  0  0  0  0  0
  1  7  1  6  0  0  0
  1  6  1  0  0  0  0
  2  3  1  0  0  0  0
  2  8  1  1  0  0  0
  2  1  1  0  0  0  0
  3  9  1  0  0  0  0
  3  4  1  0  0  0  0
  4  5  1  0  0  0  0
  5 11  1  0  0  0  0
  5 12  1  0  0  0  0
  6  5  1  0  0  0  0
  6 30  1  0  0  0  0
  6 13  1  1  0  0  0
 10  3  1  0  0  0  0
 14  1  1  0  0  0  0
 15 14  1  0  0  0  0
 16  2  1  0  0  0  0
 17 19  1  0  0  0  0
 17 16  1  0  0  0  0
 17 20  1  0  0  0  0
 18 17  1  0  0  0  0
 20 21  1  0  0  0  0
 21 22  1  0  0  0  0
 22 27  1  0  0  0  0
 22 23  2  0  0  0  0
 23 28  1  0  0  0  0
 24 23  1  0  0  0  0
 25 24  2  0  0  0  0
 26 21  2  0  0  0  0
 26 25  1  0  0  0  0
 29 25  1  0  0  0  0
 31 30  1  6  0  0  0
 31 37  1  0  0  0  0
 32 31  1  0  0  0  0
 32 34  1  0  0  0  0
 33 32  1  0  0  0  0
 34 36  1  0  0  0  0
 35 34  1  0  0  0  0
 37 36  1  0  0  0  0
 37 38  1  0  0  0  0
M  END
>  <minimizedAffinity>
-4.65721369

$$$$

 OpenBabel03262521573D

 38 40  0  0  1  0  0  0  0  0999 V2000
   37.8620   23.4180   30.8840 C   0  0  1  0  0  0  0  0  0  0  0  0
   38.4570   24.0790   32.1190 C   0  0  2  0  0  0  0  0  0  0  0  0
   37.6560   25.2960   32.4110 C   0  0  0  0  0  0  0  0  0  0  0  0
   36.6190   25.5070   31.5380 O   0  0  0  0  0  0  0  0  0  0  0  0
   35.7340   24.4250   31.4980 C   0  0  0  0  0  0  0  0  0  0  0  0
   36.4260   23.1180   31.2180 C   0  0  2  0  0  0  0  0  0  0  0  0
   38.4020   22.4800   30.6720 H   0  0  0  0  0  0  0  0  0  0  0  0
   38.3240   23.3520   32.9590 H   0  0  0  0  0  0  0  0  0  0  0  0
   37.2930   25.3190   33.4720 H   0  0  0  0  0  0  0  0  0  0  0  0
   38.3230   26.1960   32.3220 H   0  0  0  0  0  0  0  0  0  0  0  0
   35.1380   24.4220   32.4120 H   0  0  0  0  0  0  0  0  0  0  0  0
   35.0380   24.6110   30.6310 H   0  0  0  0  0  0  0  0  0  0  0  0
   35.9790   22.5470   30.4070 H   0  0  0  0  0  0  0  0  0  0  0  0
   37.8550   24.2950   29.8010 O   0  0  0  0  0  0  0  0  0  0  0  0
   38.7820   24.6140   29.6420 H   0  0  0  0  0  0  0  0  0  0  0  0
   40.2030   24.4870   31.8880 S   0  0  0  0  0  0  0  0  0  0  0  0
   41.2370   23.5020   32.9880 C   0  0  0  0  0  0  0  0  0  0  0  0
   40.7000   22.5460   33.1610 H   0  0  0  0  0  0  0  0  0  0  0  0
   42.1680   23.2500   32.4110 H   0  0  0  0  0  0  0  0  0  0  0  0
   41.6790   24.3140   34.5040 S   0  0  0  0  0  0  0  0  0  0  0  0
   40.2740   25.2360   35.1160 C   0  0  0  0  0  0  0  0  0  0  0  0
   39.3070   24.4630   35.7310 C   0  0  0  0  0  0  0  0  0  0  0  0
   38.1630   25.1190   36.2420 C   0  0  0  0  0  0  0  0  0  0  0  0
   38.0870   26.4840   36.0930 N   0  0  0  0  0  0  0  0  0  0  0  0
   39.0780   27.1680   35.4760 C   0  0  0  0  0  0  0  0  0  0  0  0
   40.1400   26.5580   35.0030 N   0  0  0  0  0  0  0  0  0  0  0  0
   39.3130   23.3830   35.8770 H   0  0  0  0  0  0  0  0  0  0  0  0
   37.3820   24.5710   36.7290 H   0  0  0  0  0  0  0  0  0  0  0  0
   38.8860   28.2370   35.4290 H   0  0  0  0  0  0  0  0  0  0  0  0
   36.4430   22.3500   32.3940 O   0  0  0  0  0  0  0  0  0  0  0  0
   35.3530   21.4930   32.4580 C   0  0  2  0  0  3  0  0  0  0  0  0
   35.6020   20.5450   33.6130 C   0  0  0  0  0  3  0  0  0  0  0  0
   34.8900   20.6300   34.4360 H   0  0  0  0  0  0  0  0  0  0  0  0
   35.4800   19.1610   33.0190 C   0  0  0  0  0  3  0  0  0  0  0  0
   36.4020   18.5540   33.1140 H   0  0  0  0  0  0  0  0  0  0  0  0
   35.0600   19.3130   31.7050 O   0  0  0  0  0  0  0  0  0  0  0  0
   35.4570   20.5560   31.2660 C   0  0  0  0  0  3  0  0  0  0  0  0
   34.7600   20.8630   30.4340 H   0  0  0  0  0  0  0  0  0  0  0  0
  1  7  1  6  0  0  0
  1  6  1  0  0  0  0
  1  2  1  0  0  0  0
  2  3  1  0  0  0  0
  2  8  1  1  0  0  0
  3  9  1  0  0  0  0
  4  3  1  0  0  0  0
  5  4  1  0  0  0  0
  5 11  1  0  0  0  0
  6 13  1  6  0  0  0
  6  5  1  0  0  0  0
  6 30  1  0  0  0  0
 10  3  1  0  0  0  0
 12  5  1  0  0  0  0
 14  1  1  0  0  0  0
 15 14  1  0  0  0  0
 16  2  1  0  0  0  0
 16 17  1  0  0  0  0
 17 18  1  0  0  0  0
 17 20  1  0  0  0  0
 19 17  1  0  0  0  0
 20 21  1  0  0  0  0
 21 22  1  0  0  0  0
 22 27  1  0  0  0  0
 22 23  2  0  0  0  0
 23 28  1  0  0  0  0
 24 23  1  0  0  0  0
 25 24  2  0  0  0  0
 26 21  2  0  0  0  0
 26 25  1  0  0  0  0
 29 25  1  0  0  0  0
 31 30  1  6  0  0  0
 31 32  1  0  0  0  0
 32 33  1  0  0  0  0
 34 35  1  0  0  0  0
 34 32  1  0  0  0  0
 36 34  1  0  0  0  0
 37 36  1  0  0  0  0
 37 31  1  0  0  0  0
 38 37  1  0  0  0  0
M  END
>  <minimizedAffinity>
-4.57016611

$$$$
