
 OpenBabel03272507513D

 27 29  0  0  1  0  0  0  0  0999 V2000
   36.0100   29.9580   48.7570 C   0  0  0  0  0  0  0  0  0  0  0  0
   36.4220   30.7000   47.6380 C   0  0  0  0  0  0  0  0  0  0  0  0
   35.7800   30.4100   46.4240 C   0  0  0  0  0  0  0  0  0  0  0  0
   34.8180   29.4560   46.3920 N   0  0  0  0  0  0  0  0  0  0  0  0
   34.4490   28.7680   47.4800 C   0  0  0  0  0  0  0  0  0  0  0  0
   35.0500   29.0220   48.6700 N   0  0  0  0  0  0  0  0  0  0  0  0
   36.1030   30.9840   45.5660 H   0  0  0  0  0  0  0  0  0  0  0  0
   33.6700   28.0360   47.3130 H   0  0  0  0  0  0  0  0  0  0  0  0
   37.4400   31.6740   47.7950 N   0  0  0  0  0  0  0  0  0  0  0  0
   37.4100   32.5760   48.7820 C   0  0  0  0  0  0  0  0  0  0  0  0
   38.4330   33.5170   48.9080 C   0  0  0  0  0  0  0  0  0  0  0  0
   39.4070   33.4010   47.9500 C   0  0  0  0  0  0  0  0  0  0  0  0
   40.3600   34.2500   48.0390 O   0  0  0  0  0  0  0  0  0  0  0  0
   39.4710   32.5170   46.9510 N   0  0  0  0  0  0  0  0  0  0  0  0
   38.4430   31.6290   46.8850 C   0  0  0  0  0  0  0  0  0  0  0  0
   38.4880   30.7820   45.9400 O   0  0  0  0  0  0  0  0  0  0  0  0
   36.5980   32.6120   49.5090 H   0  0  0  0  0  0  0  0  0  0  0  0
   38.4690   34.2720   49.6820 H   0  0  0  0  0  0  0  0  0  0  0  0
   40.2680   32.5260   46.2780 H   0  0  0  0  0  0  0  0  0  0  0  0
   36.5740   30.1220   50.0950 C   0  0  2  0  0  3  0  0  0  0  0  0
   37.8940   29.3760   50.2620 C   0  0  0  0  0  3  0  0  0  0  0  0
   38.7480   30.0730   50.1620 H   0  0  0  0  0  0  0  0  0  0  0  0
   37.8110   28.9210   51.6970 C   0  0  0  0  0  3  0  0  0  0  0  0
   37.6700   27.8190   51.7990 H   0  0  0  0  0  0  0  0  0  0  0  0
   36.6640   29.5170   52.2450 O   0  0  0  0  0  0  0  0  0  0  0  0
   35.7430   29.4730   51.1750 C   0  0  0  0  0  3  0  0  0  0  0  0
   34.8510   30.0610   51.4510 H   0  0  0  0  0  0  0  0  0  0  0  0
  2  9  1  0  0  0  0
  2  1  2  0  0  0  0
  3  2  1  0  0  0  0
  4  3  2  0  0  0  0
  4  5  1  0  0  0  0
  5  6  2  0  0  0  0
  6  1  1  0  0  0  0
  7  3  1  0  0  0  0
  8  5  1  0  0  0  0
  9 10  1  0  0  0  0
 10 11  2  0  0  0  0
 10 17  1  0  0  0  0
 11 18  1  0  0  0  0
 12 13  2  0  0  0  0
 12 11  1  0  0  0  0
 14 12  1  0  0  0  0
 15 14  1  0  0  0  0
 15  9  1  0  0  0  0
 16 15  2  0  0  0  0
 19 14  1  0  0  0  0
 20  1  1  6  0  0  0
 20 21  1  0  0  0  0
 20 26  1  0  0  0  0
 21 23  1  0  0  0  0
 22 21  1  0  0  0  0
 23 24  1  0  0  0  0
 23 25  1  0  0  0  0
 26 27  1  0  0  0  0
 26 25  1  0  0  0  0
M  END
>  <minimizedAffinity>
-4.29131317

>  <minimizedRMSD>
1.48985016

$$$$
