
 OpenBabel03272506283D

 41 44  0  0  1  0  0  0  0  0999 V2000
   40.7480   25.0750   34.3020 C   0  0  0  0  0  0  0  0  0  0  0  0
   41.2470   26.3070   34.6800 C   0  0  0  0  0  0  0  0  0  0  0  0
   41.4660   27.3670   33.8000 C   0  0  0  0  0  0  0  0  0  0  0  0
   41.1600   27.1710   32.4400 C   0  0  0  0  0  0  0  0  0  0  0  0
   40.6620   25.9320   32.0850 C   0  0  0  0  0  0  0  0  0  0  0  0
   40.4520   24.9040   32.9560 C   0  0  0  0  0  0  0  0  0  0  0  0
   41.4980   26.4970   35.7330 H   0  0  0  0  0  0  0  0  0  0  0  0
   41.8620   28.2940   34.2090 H   0  0  0  0  0  0  0  0  0  0  0  0
   41.3630   28.0470   31.8460 H   0  0  0  0  0  0  0  0  0  0  0  0
   40.5060   25.9850   31.0370 H   0  0  0  0  0  0  0  0  0  0  0  0
   41.6540   23.2040   35.5420 C   0  0  0  0  0  0  0  0  0  0  0  0
   40.5890   24.0990   35.3480 C   0  0  0  0  0  0  0  0  0  0  0  0
   39.4660   23.9740   36.1760 C   0  0  0  0  0  0  0  0  0  0  0  0
   39.4550   23.0010   37.1260 N   0  0  0  0  0  0  0  0  0  0  0  0
   40.5080   22.1460   37.2910 C   0  0  0  0  0  0  0  0  0  0  0  0
   41.6050   22.2520   36.4970 N   0  0  0  0  0  0  0  0  0  0  0  0
   42.5320   23.2740   34.9220 H   0  0  0  0  0  0  0  0  0  0  0  0
   40.4250   21.3990   38.0660 H   0  0  0  0  0  0  0  0  0  0  0  0
   38.2660   24.8460   36.0850 C   0  0  0  0  0  0  0  0  0  0  0  0
   37.2670   24.3570   36.9490 F   0  0  0  0  0  0  0  0  0  0  0  0
   38.4610   26.1530   36.3490 F   0  0  0  0  0  0  0  0  0  0  0  0
   37.6910   24.7200   34.8190 F   0  0  0  0  0  0  0  0  0  0  0  0
   39.8150   23.3370   32.4890 S   0  0  0  0  0  0  0  0  0  0  0  0
   38.2200   20.6710   32.4510 Cl  0  0  0  0  0  0  0  0  0  0  0  0
   37.4650   22.1720   31.9570 C   0  0  0  0  0  0  0  0  0  0  0  0
   38.1320   23.3890   31.9380 C   0  0  0  0  0  0  0  0  0  0  0  0
   37.4980   24.5250   31.5300 C   0  0  0  0  0  0  0  0  0  0  0  0
   36.1770   24.4460   31.1380 C   0  0  0  0  0  0  0  0  0  0  0  0
   35.4990   23.2260   31.1540 C   0  0  0  0  0  0  0  0  0  0  0  0
   36.1330   22.0700   31.5630 C   0  0  0  0  0  0  0  0  0  0  0  0
   37.9320   25.4880   31.4460 H   0  0  0  0  0  0  0  0  0  0  0  0
   35.6320   25.3280   30.8070 H   0  0  0  0  0  0  0  0  0  0  0  0
   34.4690   23.2370   30.8320 H   0  0  0  0  0  0  0  0  0  0  0  0
   35.4390   20.7580   31.5860 C   0  0  2  0  0  3  0  0  0  0  0  0
   35.2360   20.2150   32.9820 C   0  0  0  0  0  3  0  0  0  0  0  0
   35.9540   20.6130   33.7160 H   0  0  0  0  0  0  0  0  0  0  0  0
   35.5060   18.7270   32.8340 C   0  0  0  0  0  3  0  0  0  0  0  0
   36.3230   18.3770   33.5300 H   0  0  0  0  0  0  0  0  0  0  0  0
   35.7540   18.4660   31.5100 O   0  0  0  0  0  0  0  0  0  0  0  0
   36.1320   19.6500   30.8820 C   0  0  0  0  0  3  0  0  0  0  0  0
   37.2220   19.6640   30.8760 H   0  0  0  0  0  0  0  0  0  0  0  0
  1  2  1  0  0  0  0
  1 12  1  0  0  0  0
  2  7  1  0  0  0  0
  3  8  1  0  0  0  0
  3  2  2  0  0  0  0
  4  3  1  0  0  0  0
  5  4  2  0  0  0  0
  5  6  1  0  0  0  0
  6  1  2  0  0  0  0
  9  4  1  0  0  0  0
 10  5  1  0  0  0  0
 11 16  1  0  0  0  0
 12 11  2  0  0  0  0
 12 13  1  0  0  0  0
 13 14  2  0  0  0  0
 14 15  1  0  0  0  0
 15 18  1  0  0  0  0
 16 15  2  0  0  0  0
 17 11  1  0  0  0  0
 19 13  1  0  0  0  0
 19 21  1  0  0  0  0
 19 20  1  0  0  0  0
 22 19  1  0  0  0  0
 23  6  1  0  0  0  0
 25 24  1  0  0  0  0
 26 25  1  0  0  0  0
 26 23  1  0  0  0  0
 27 26  2  0  0  0  0
 28 29  2  0  0  0  0
 28 27  1  0  0  0  0
 29 30  1  0  0  0  0
 30 25  2  0  0  0  0
 31 27  1  0  0  0  0
 32 28  1  0  0  0  0
 33 29  1  0  0  0  0
 34 30  1  1  0  0  0
 34 35  1  0  0  0  0
 35 36  1  0  0  0  0
 37 35  1  0  0  0  0
 37 38  1  0  0  0  0
 39 37  1  0  0  0  0
 40 39  1  0  0  0  0
 40 34  1  0  0  0  0
 41 40  1  0  0  0  0
M  END
>  <minimizedAffinity>
-6.33613825

$$$$

 OpenBabel03272506283D

 41 44  0  0  1  0  0  0  0  0999 V2000
   39.4900   24.5330   35.0200 C   0  0  0  0  0  0  0  0  0  0  0  0
   40.8160   24.1490   35.0870 C   0  0  0  0  0  0  0  0  0  0  0  0
   41.8930   25.0240   34.9450 C   0  0  0  0  0  0  0  0  0  0  0  0
   41.6140   26.3840   34.7170 C   0  0  0  0  0  0  0  0  0  0  0  0
   40.2820   26.7450   34.6540 C   0  0  0  0  0  0  0  0  0  0  0  0
   39.2380   25.8800   34.7970 C   0  0  0  0  0  0  0  0  0  0  0  0
   41.0730   23.0940   35.2630 H   0  0  0  0  0  0  0  0  0  0  0  0
   42.8970   24.6100   35.0170 H   0  0  0  0  0  0  0  0  0  0  0  0
   42.5100   26.9740   34.6230 H   0  0  0  0  0  0  0  0  0  0  0  0
   40.2860   27.7910   34.4720 H   0  0  0  0  0  0  0  0  0  0  0  0
   38.1030   22.8160   34.0280 C   0  0  0  0  0  0  0  0  0  0  0  0
   38.5110   23.4910   35.1890 C   0  0  0  0  0  0  0  0  0  0  0  0
   37.9410   23.1050   36.4100 C   0  0  0  0  0  0  0  0  0  0  0  0
   37.0240   22.1010   36.4180 N   0  0  0  0  0  0  0  0  0  0  0  0
   36.6480   21.4620   35.2710 C   0  0  0  0  0  0  0  0  0  0  0  0
   37.1900   21.8230   34.0780 N   0  0  0  0  0  0  0  0  0  0  0  0
   38.5220   23.0880   33.0740 H   0  0  0  0  0  0  0  0  0  0  0  0
   35.9150   20.6750   35.3570 H   0  0  0  0  0  0  0  0  0  0  0  0
   38.2750   23.7300   37.7160 C   0  0  0  0  0  0  0  0  0  0  0  0
   39.5930   23.3840   38.0750 F   0  0  0  0  0  0  0  0  0  0  0  0
   38.1490   25.0700   37.7830 F   0  0  0  0  0  0  0  0  0  0  0  0
   37.5020   23.1510   38.7230 F   0  0  0  0  0  0  0  0  0  0  0  0
   37.5510   26.3560   34.7170 S   0  0  0  0  0  0  0  0  0  0  0  0
   36.0970   29.1020   34.7090 Cl  0  0  0  0  0  0  0  0  0  0  0  0
   36.4440   28.2710   33.2080 C   0  0  0  0  0  0  0  0  0  0  0  0
   37.0770   27.0360   33.1510 C   0  0  0  0  0  0  0  0  0  0  0  0
   37.3100   26.4270   31.9550 C   0  0  0  0  0  0  0  0  0  0  0  0
   36.9100   27.0610   30.7950 C   0  0  0  0  0  0  0  0  0  0  0  0
   36.2740   28.3030   30.8450 C   0  0  0  0  0  0  0  0  0  0  0  0
   36.0310   28.9260   32.0510 C   0  0  0  0  0  0  0  0  0  0  0  0
   37.7500   25.4730   31.8120 H   0  0  0  0  0  0  0  0  0  0  0  0
   37.0770   26.6120   29.8180 H   0  0  0  0  0  0  0  0  0  0  0  0
   35.9850   28.7400   29.9010 H   0  0  0  0  0  0  0  0  0  0  0  0
   35.3520   30.2440   32.1340 C   0  0  2  0  0  3  0  0  0  0  0  0
   33.8470   30.1340   32.2200 C   0  0  0  0  0  3  0  0  0  0  0  0
   33.4510   29.1940   31.8030 H   0  0  0  0  0  0  0  0  0  0  0  0
   33.3510   31.2710   31.3410 C   0  0  0  0  0  3  0  0  0  0  0  0
   32.6690   30.9020   30.5200 H   0  0  0  0  0  0  0  0  0  0  0  0
   34.4420   31.9690   30.8870 O   0  0  0  0  0  0  0  0  0  0  0  0
   35.5670   31.1540   30.9800 C   0  0  0  0  0  3  0  0  0  0  0  0
   35.7020   30.6970   30.0000 H   0  0  0  0  0  0  0  0  0  0  0  0
  1  2  1  0  0  0  0
  1 12  1  0  0  0  0
  2  7  1  0  0  0  0
  3  8  1  0  0  0  0
  3  2  2  0  0  0  0
  4  3  1  0  0  0  0
  5  4  2  0  0  0  0
  5  6  1  0  0  0  0
  6  1  2  0  0  0  0
  9  4  1  0  0  0  0
 10  5  1  0  0  0  0
 11 16  2  0  0  0  0
 11 12  1  0  0  0  0
 12 13  2  0  0  0  0
 13 14  1  0  0  0  0
 13 19  1  0  0  0  0
 15 18  1  0  0  0  0
 15 14  2  0  0  0  0
 16 15  1  0  0  0  0
 17 11  1  0  0  0  0
 19 21  1  0  0  0  0
 19 20  1  0  0  0  0
 19 22  1  0  0  0  0
 23  6  1  0  0  0  0
 25 24  1  0  0  0  0
 26 25  1  0  0  0  0
 26 23  1  0  0  0  0
 27 26  2  0  0  0  0
 28 29  2  0  0  0  0
 28 27  1  0  0  0  0
 29 30  1  0  0  0  0
 30 25  2  0  0  0  0
 31 27  1  0  0  0  0
 32 28  1  0  0  0  0
 33 29  1  0  0  0  0
 34 30  1  6  0  0  0
 34 35  1  0  0  0  0
 36 35  1  0  0  0  0
 37 35  1  0  0  0  0
 38 37  1  0  0  0  0
 39 40  1  0  0  0  0
 39 37  1  0  0  0  0
 40 34  1  0  0  0  0
 41 40  1  0  0  0  0
M  END
>  <minimizedAffinity>
-6.22587633

$$$$

 OpenBabel03272506283D

 41 44  0  0  1  0  0  0  0  0999 V2000
   37.9260   22.3130   34.2080 C   0  0  0  0  0  0  0  0  0  0  0  0
   37.0580   21.2480   34.3540 C   0  0  0  0  0  0  0  0  0  0  0  0
   35.9840   20.9890   33.5020 C   0  0  0  0  0  0  0  0  0  0  0  0
   35.7690   21.8690   32.4240 C   0  0  0  0  0  0  0  0  0  0  0  0
   36.6490   22.9260   32.2970 C   0  0  0  0  0  0  0  0  0  0  0  0
   37.6960   23.1660   33.1370 C   0  0  0  0  0  0  0  0  0  0  0  0
   37.1940   20.5400   35.1850 H   0  0  0  0  0  0  0  0  0  0  0  0
   35.3650   20.1190   33.7130 H   0  0  0  0  0  0  0  0  0  0  0  0
   34.9190   21.5820   31.8290 H   0  0  0  0  0  0  0  0  0  0  0  0
   36.3160   23.4630   31.4450 H   0  0  0  0  0  0  0  0  0  0  0  0
   40.2520   21.9840   34.7910 C   0  0  0  0  0  0  0  0  0  0  0  0
   38.9780   22.4220   35.1850 C   0  0  0  0  0  0  0  0  0  0  0  0
   38.8270   22.9260   36.4830 C   0  0  0  0  0  0  0  0  0  0  0  0
   39.9140   22.9690   37.3000 N   0  0  0  0  0  0  0  0  0  0  0  0
   41.1410   22.5360   36.8880 C   0  0  0  0  0  0  0  0  0  0  0  0
   41.3060   22.0440   35.6320 N   0  0  0  0  0  0  0  0  0  0  0  0
   40.4000   21.5910   33.7990 H   0  0  0  0  0  0  0  0  0  0  0  0
   41.9550   22.6020   37.5930 H   0  0  0  0  0  0  0  0  0  0  0  0
   37.5410   23.4220   37.0380 C   0  0  0  0  0  0  0  0  0  0  0  0
   37.7460   23.8760   38.3560 F   0  0  0  0  0  0  0  0  0  0  0  0
   36.9300   24.3980   36.3370 F   0  0  0  0  0  0  0  0  0  0  0  0
   36.6560   22.3550   37.1950 F   0  0  0  0  0  0  0  0  0  0  0  0
   38.8060   24.5130   32.9580 S   0  0  0  0  0  0  0  0  0  0  0  0
   36.5070   26.2850   31.8500 Cl  0  0  0  0  0  0  0  0  0  0  0  0
   37.3020   26.6910   33.3570 C   0  0  0  0  0  0  0  0  0  0  0  0
   38.3430   25.9460   33.8920 C   0  0  0  0  0  0  0  0  0  0  0  0
   38.9350   26.3160   35.0630 C   0  0  0  0  0  0  0  0  0  0  0  0
   38.4790   27.4460   35.7120 C   0  0  0  0  0  0  0  0  0  0  0  0
   37.4310   28.2000   35.1800 C   0  0  0  0  0  0  0  0  0  0  0  0
   36.8270   27.8340   33.9950 C   0  0  0  0  0  0  0  0  0  0  0  0
   39.7580   25.8360   35.5280 H   0  0  0  0  0  0  0  0  0  0  0  0
   38.9210   27.7770   36.6490 H   0  0  0  0  0  0  0  0  0  0  0  0
   37.1270   29.0720   35.7390 H   0  0  0  0  0  0  0  0  0  0  0  0
   35.7150   28.6200   33.4030 C   0  0  2  0  0  3  0  0  0  0  0  0
   36.1860   29.7040   32.4610 C   0  0  0  0  0  3  0  0  0  0  0  0
   37.2200   30.0330   32.6530 H   0  0  0  0  0  0  0  0  0  0  0  0
   35.2660   30.8740   32.7660 C   0  0  0  0  0  3  0  0  0  0  0  0
   35.8440   31.7980   33.0610 H   0  0  0  0  0  0  0  0  0  0  0  0
   34.3520   30.4670   33.7060 O   0  0  0  0  0  0  0  0  0  0  0  0
   34.8570   29.3520   34.3690 C   0  0  0  0  0  3  0  0  0  0  0  0
   35.3290   29.7200   35.2800 H   0  0  0  0  0  0  0  0  0  0  0  0
  1  2  1  0  0  0  0
  1 12  1  0  0  0  0
  2  7  1  0  0  0  0
  3  8  1  0  0  0  0
  3  2  2  0  0  0  0
  4  3  1  0  0  0  0
  5  4  2  0  0  0  0
  5  6  1  0  0  0  0
  6  1  2  0  0  0  0
  9  4  1  0  0  0  0
 10  5  1  0  0  0  0
 11 12  2  0  0  0  0
 11 16  1  0  0  0  0
 12 13  1  0  0  0  0
 13 19  1  0  0  0  0
 13 14  2  0  0  0  0
 15 14  1  0  0  0  0
 15 18  1  0  0  0  0
 16 15  2  0  0  0  0
 17 11  1  0  0  0  0
 19 22  1  0  0  0  0
 19 20  1  0  0  0  0
 21 19  1  0  0  0  0
 23  6  1  0  0  0  0
 23 26  1  0  0  0  0
 24 25  1  0  0  0  0
 25 26  2  0  0  0  0
 25 30  1  0  0  0  0
 26 27  1  0  0  0  0
 27 31  1  0  0  0  0
 27 28  2  0  0  0  0
 28 32  1  0  0  0  0
 29 28  1  0  0  0  0
 29 33  1  0  0  0  0
 30 29  2  0  0  0  0
 34 30  1  1  0  0  0
 34 40  1  0  0  0  0
 35 36  1  0  0  0  0
 35 37  1  0  0  0  0
 35 34  1  0  0  0  0
 37 38  1  0  0  0  0
 37 39  1  0  0  0  0
 39 40  1  0  0  0  0
 40 41  1  0  0  0  0
M  END
>  <minimizedAffinity>
-6.19442225

$$$$

 OpenBabel03272506283D

 41 44  0  0  1  0  0  0  0  0999 V2000
   35.1720   29.8670   32.9230 C   0  0  0  0  0  0  0  0  0  0  0  0
   35.0260   30.6880   31.8220 C   0  0  0  0  0  0  0  0  0  0  0  0
   35.8470   30.6420   30.6950 C   0  0  0  0  0  0  0  0  0  0  0  0
   36.8920   29.6980   30.6770 C   0  0  0  0  0  0  0  0  0  0  0  0
   37.0180   28.8880   31.7880 C   0  0  0  0  0  0  0  0  0  0  0  0
   36.2080   28.9430   32.8830 C   0  0  0  0  0  0  0  0  0  0  0  0
   34.2220   31.4380   31.8000 H   0  0  0  0  0  0  0  0  0  0  0  0
   35.6390   31.3380   29.8850 H   0  0  0  0  0  0  0  0  0  0  0  0
   37.4640   29.7430   29.7660 H   0  0  0  0  0  0  0  0  0  0  0  0
   37.8530   28.2640   31.5830 H   0  0  0  0  0  0  0  0  0  0  0  0
   32.9880   29.4200   33.8660 C   0  0  0  0  0  0  0  0  0  0  0  0
   34.2320   30.0590   33.9960 C   0  0  0  0  0  0  0  0  0  0  0  0
   34.4600   30.8270   35.1450 C   0  0  0  0  0  0  0  0  0  0  0  0
   33.4760   30.9190   36.0800 N   0  0  0  0  0  0  0  0  0  0  0  0
   32.2770   30.2850   35.9250 C   0  0  0  0  0  0  0  0  0  0  0  0
   32.0370   29.5360   34.8160 N   0  0  0  0  0  0  0  0  0  0  0  0
   32.7810   28.8230   32.9940 H   0  0  0  0  0  0  0  0  0  0  0  0
   31.5450   30.4060   36.7090 H   0  0  0  0  0  0  0  0  0  0  0  0
   35.7240   31.5590   35.4170 C   0  0  0  0  0  0  0  0  0  0  0  0
   36.6970   30.6530   35.8860 F   0  0  0  0  0  0  0  0  0  0  0  0
   36.2440   32.2500   34.3830 F   0  0  0  0  0  0  0  0  0  0  0  0
   35.5410   32.4260   36.4950 F   0  0  0  0  0  0  0  0  0  0  0  0
   36.3810   27.9020   34.2850 S   0  0  0  0  0  0  0  0  0  0  0  0
   38.3500   26.7320   36.3840 Cl  0  0  0  0  0  0  0  0  0  0  0  0
   38.0030   25.8640   34.9040 C   0  0  0  0  0  0  0  0  0  0  0  0
   37.1450   26.3440   33.9240 C   0  0  0  0  0  0  0  0  0  0  0  0
   36.9210   25.6330   32.7830 C   0  0  0  0  0  0  0  0  0  0  0  0
   37.5610   24.4200   32.6180 C   0  0  0  0  0  0  0  0  0  0  0  0
   38.4250   23.9300   33.5990 C   0  0  0  0  0  0  0  0  0  0  0  0
   38.6590   24.6440   34.7570 C   0  0  0  0  0  0  0  0  0  0  0  0
   36.3170   25.9330   31.9660 H   0  0  0  0  0  0  0  0  0  0  0  0
   37.4110   23.8190   31.7250 H   0  0  0  0  0  0  0  0  0  0  0  0
   38.8930   22.9780   33.4040 H   0  0  0  0  0  0  0  0  0  0  0  0
   39.5770   24.1500   35.8140 C   0  0  2  0  0  3  0  0  0  0  0  0
   40.8160   23.4820   35.2640 C   0  0  0  0  0  3  0  0  0  0  0  0
   40.6850   23.0880   34.2430 H   0  0  0  0  0  0  0  0  0  0  0  0
   41.0290   22.2970   36.1910 C   0  0  0  0  0  3  0  0  0  0  0  0
   41.0560   21.3200   35.6260 H   0  0  0  0  0  0  0  0  0  0  0  0
   40.0740   22.3450   37.1750 O   0  0  0  0  0  0  0  0  0  0  0  0
   39.0120   23.1290   36.7320 C   0  0  0  0  0  3  0  0  0  0  0  0
   38.2700   22.4440   36.3230 H   0  0  0  0  0  0  0  0  0  0  0  0
  1 12  1  0  0  0  0
  2  1  2  0  0  0  0
  3  2  1  0  0  0  0
  4  3  2  0  0  0  0
  4  5  1  0  0  0  0
  5  6  2  0  0  0  0
  6  1  1  0  0  0  0
  6 23  1  0  0  0  0
  7  2  1  0  0  0  0
  8  3  1  0  0  0  0
  9  4  1  0  0  0  0
 10  5  1  0  0  0  0
 11 12  2  0  0  0  0
 11 16  1  0  0  0  0
 12 13  1  0  0  0  0
 13 19  1  0  0  0  0
 13 14  2  0  0  0  0
 15 14  1  0  0  0  0
 15 18  1  0  0  0  0
 16 15  2  0  0  0  0
 17 11  1  0  0  0  0
 19 20  1  0  0  0  0
 19 22  1  0  0  0  0
 21 19  1  0  0  0  0
 25 24  1  0  0  0  0
 26 23  1  0  0  0  0
 26 25  2  0  0  0  0
 27 26  1  0  0  0  0
 28 27  2  0  0  0  0
 28 29  1  0  0  0  0
 29 30  2  0  0  0  0
 30 25  1  0  0  0  0
 31 27  1  0  0  0  0
 32 28  1  0  0  0  0
 33 29  1  0  0  0  0
 34 30  1  6  0  0  0
 34 40  1  0  0  0  0
 35 34  1  0  0  0  0
 35 37  1  0  0  0  0
 36 35  1  0  0  0  0
 37 39  1  0  0  0  0
 38 37  1  0  0  0  0
 40 39  1  0  0  0  0
 41 40  1  0  0  0  0
M  END
>  <minimizedAffinity>
-6.1620059

$$$$

 OpenBabel03272506283D

 41 44  0  0  1  0  0  0  0  0999 V2000
   39.1060   26.2140   34.7590 C   0  0  0  0  0  0  0  0  0  0  0  0
   38.8140   27.1360   35.7450 C   0  0  0  0  0  0  0  0  0  0  0  0
   37.7730   28.0610   35.6690 C   0  0  0  0  0  0  0  0  0  0  0  0
   36.9680   28.0570   34.5150 C   0  0  0  0  0  0  0  0  0  0  0  0
   37.2770   27.1260   33.5430 C   0  0  0  0  0  0  0  0  0  0  0  0
   38.2970   26.2260   33.6300 C   0  0  0  0  0  0  0  0  0  0  0  0
   39.4220   27.1700   36.6610 H   0  0  0  0  0  0  0  0  0  0  0  0
   37.6350   28.7420   36.5080 H   0  0  0  0  0  0  0  0  0  0  0  0
   36.1940   28.8060   34.5550 H   0  0  0  0  0  0  0  0  0  0  0  0
   36.5710   27.2890   32.7670 H   0  0  0  0  0  0  0  0  0  0  0  0
   41.4710   25.7540   34.5270 C   0  0  0  0  0  0  0  0  0  0  0  0
   40.2200   25.3370   35.0100 C   0  0  0  0  0  0  0  0  0  0  0  0
   40.1510   24.1130   35.6880 C   0  0  0  0  0  0  0  0  0  0  0  0
   41.2900   23.3880   35.8510 N   0  0  0  0  0  0  0  0  0  0  0  0
   42.4930   23.8210   35.3720 C   0  0  0  0  0  0  0  0  0  0  0  0
   42.5780   25.0050   34.7100 N   0  0  0  0  0  0  0  0  0  0  0  0
   41.5570   26.6900   34.0020 H   0  0  0  0  0  0  0  0  0  0  0  0
   43.3520   23.1900   35.5400 H   0  0  0  0  0  0  0  0  0  0  0  0
   38.8980   23.5450   36.2500 C   0  0  0  0  0  0  0  0  0  0  0  0
   38.5440   24.2560   37.4140 F   0  0  0  0  0  0  0  0  0  0  0  0
   37.8350   23.5180   35.4230 F   0  0  0  0  0  0  0  0  0  0  0  0
   39.1390   22.2530   36.7200 F   0  0  0  0  0  0  0  0  0  0  0  0
   38.6740   25.0480   32.3860 S   0  0  0  0  0  0  0  0  0  0  0  0
   38.9920   22.0070   32.9430 Cl  0  0  0  0  0  0  0  0  0  0  0  0
   37.5090   22.6410   32.2610 C   0  0  0  0  0  0  0  0  0  0  0  0
   37.3160   23.9860   31.9770 C   0  0  0  0  0  0  0  0  0  0  0  0
   36.1460   24.4220   31.4320 C   0  0  0  0  0  0  0  0  0  0  0  0
   35.1490   23.5030   31.1700 C   0  0  0  0  0  0  0  0  0  0  0  0
   35.3360   22.1490   31.4540 C   0  0  0  0  0  0  0  0  0  0  0  0
   36.5180   21.6970   32.0030 C   0  0  0  0  0  0  0  0  0  0  0  0
   35.9200   25.4180   31.1460 H   0  0  0  0  0  0  0  0  0  0  0  0
   34.1990   23.8070   30.7380 H   0  0  0  0  0  0  0  0  0  0  0  0
   34.5160   21.4860   31.2210 H   0  0  0  0  0  0  0  0  0  0  0  0
   36.7460   20.2620   32.3100 C   0  0  2  0  0  3  0  0  0  0  0  0
   37.0110   19.4250   31.0800 C   0  0  0  0  0  3  0  0  0  0  0  0
   36.6030   19.8620   30.1550 H   0  0  0  0  0  0  0  0  0  0  0  0
   36.2550   18.1340   31.3520 C   0  0  0  0  0  3  0  0  0  0  0  0
   35.5090   17.9050   30.5370 H   0  0  0  0  0  0  0  0  0  0  0  0
   35.7030   18.2170   32.6050 O   0  0  0  0  0  0  0  0  0  0  0  0
   35.6190   19.5580   32.9710 C   0  0  0  0  0  3  0  0  0  0  0  0
   34.6090   19.8840   32.7230 H   0  0  0  0  0  0  0  0  0  0  0  0
  1 12  1  0  0  0  0
  1  2  1  0  0  0  0
  2  7  1  0  0  0  0
  3  2  2  0  0  0  0
  3  8  1  0  0  0  0
  4  9  1  0  0  0  0
  4  3  1  0  0  0  0
  5  6  1  0  0  0  0
  5  4  2  0  0  0  0
  6  1  2  0  0  0  0
 10  5  1  0  0  0  0
 11 16  2  0  0  0  0
 11 12  1  0  0  0  0
 12 13  2  0  0  0  0
 13 14  1  0  0  0  0
 13 19  1  0  0  0  0
 15 18  1  0  0  0  0
 15 14  2  0  0  0  0
 16 15  1  0  0  0  0
 17 11  1  0  0  0  0
 19 22  1  0  0  0  0
 19 20  1  0  0  0  0
 21 19  1  0  0  0  0
 23  6  1  0  0  0  0
 25 24  1  0  0  0  0
 26 25  2  0  0  0  0
 26 23  1  0  0  0  0
 27 26  1  0  0  0  0
 28 27  2  0  0  0  0
 28 29  1  0  0  0  0
 29 30  2  0  0  0  0
 30 25  1  0  0  0  0
 31 27  1  0  0  0  0
 32 28  1  0  0  0  0
 33 29  1  0  0  0  0
 34 30  1  6  0  0  0
 34 40  1  0  0  0  0
 35 37  1  0  0  0  0
 35 34  1  0  0  0  0
 36 35  1  0  0  0  0
 37 39  1  0  0  0  0
 38 37  1  0  0  0  0
 39 40  1  0  0  0  0
 41 40  1  0  0  0  0
M  END
>  <minimizedAffinity>
-6.06250048

$$$$

 OpenBabel03272506283D

 41 44  0  0  1  0  0  0  0  0999 V2000
   35.0560   30.3310   32.3060 C   0  0  0  0  0  0  0  0  0  0  0  0
   35.0640   31.6190   31.8070 C   0  0  0  0  0  0  0  0  0  0  0  0
   35.9730   32.0860   30.8580 C   0  0  0  0  0  0  0  0  0  0  0  0
   36.9450   31.1890   30.3770 C   0  0  0  0  0  0  0  0  0  0  0  0
   36.9180   29.9070   30.8890 C   0  0  0  0  0  0  0  0  0  0  0  0
   36.0230   29.4630   31.8160 C   0  0  0  0  0  0  0  0  0  0  0  0
   34.3200   32.3480   32.1600 H   0  0  0  0  0  0  0  0  0  0  0  0
   35.8860   33.1220   30.5360 H   0  0  0  0  0  0  0  0  0  0  0  0
   37.5960   31.6450   29.6500 H   0  0  0  0  0  0  0  0  0  0  0  0
   37.7200   29.4000   30.4130 H   0  0  0  0  0  0  0  0  0  0  0  0
   32.9280   29.3040   32.8310 C   0  0  0  0  0  0  0  0  0  0  0  0
   34.0430   30.0270   33.2830 C   0  0  0  0  0  0  0  0  0  0  0  0
   34.0850   30.3970   34.6340 C   0  0  0  0  0  0  0  0  0  0  0  0
   33.0520   30.0400   35.4440 N   0  0  0  0  0  0  0  0  0  0  0  0
   31.9810   29.3340   34.9750 C   0  0  0  0  0  0  0  0  0  0  0  0
   31.9230   28.9690   33.6680 N   0  0  0  0  0  0  0  0  0  0  0  0
   32.8660   29.0050   31.7980 H   0  0  0  0  0  0  0  0  0  0  0  0
   31.2000   29.0890   35.6780 H   0  0  0  0  0  0  0  0  0  0  0  0
   35.1970   31.1640   35.2510 C   0  0  0  0  0  0  0  0  0  0  0  0
   36.3790   30.3980   35.1970 F   0  0  0  0  0  0  0  0  0  0  0  0
   35.4480   32.3770   34.7210 F   0  0  0  0  0  0  0  0  0  0  0  0
   34.9660   31.3070   36.6200 F   0  0  0  0  0  0  0  0  0  0  0  0
   36.0000   27.8280   32.4540 S   0  0  0  0  0  0  0  0  0  0  0  0
   38.7890   26.9840   31.3740 Cl  0  0  0  0  0  0  0  0  0  0  0  0
   38.5090   27.1490   33.0950 C   0  0  0  0  0  0  0  0  0  0  0  0
   37.2820   27.5070   33.6350 C   0  0  0  0  0  0  0  0  0  0  0  0
   37.1170   27.6070   34.9840 C   0  0  0  0  0  0  0  0  0  0  0  0
   38.1930   27.3480   35.8080 C   0  0  0  0  0  0  0  0  0  0  0  0
   39.4310   26.9880   35.2720 C   0  0  0  0  0  0  0  0  0  0  0  0
   39.6080   26.8820   33.9080 C   0  0  0  0  0  0  0  0  0  0  0  0
   36.2130   27.8350   35.4890 H   0  0  0  0  0  0  0  0  0  0  0  0
   38.1070   27.4180   36.8900 H   0  0  0  0  0  0  0  0  0  0  0  0
   40.2290   26.7980   35.9740 H   0  0  0  0  0  0  0  0  0  0  0  0
   40.9110   26.4950   33.3100 C   0  0  2  0  0  3  0  0  0  0  0  0
   41.6570   25.4640   34.1250 C   0  0  0  0  0  3  0  0  0  0  0  0
   41.3720   25.4540   35.1890 H   0  0  0  0  0  0  0  0  0  0  0  0
   43.1060   25.9170   34.0420 C   0  0  0  0  0  3  0  0  0  0  0  0
   43.5540   26.0830   35.0650 H   0  0  0  0  0  0  0  0  0  0  0  0
   43.1650   27.0170   33.2240 O   0  0  0  0  0  0  0  0  0  0  0  0
   41.8990   27.5930   33.1540 C   0  0  0  0  0  3  0  0  0  0  0  0
   41.8810   28.3930   33.8930 H   0  0  0  0  0  0  0  0  0  0  0  0
  1 12  1  0  0  0  0
  2  7  1  0  0  0  0
  2  1  2  0  0  0  0
  3  2  1  0  0  0  0
  4  3  2  0  0  0  0
  4  5  1  0  0  0  0
  5  6  2  0  0  0  0
  6  1  1  0  0  0  0
  6 23  1  0  0  0  0
  8  3  1  0  0  0  0
  9  4  1  0  0  0  0
 10  5  1  0  0  0  0
 11 12  2  0  0  0  0
 11 16  1  0  0  0  0
 12 13  1  0  0  0  0
 13 19  1  0  0  0  0
 13 14  2  0  0  0  0
 15 14  1  0  0  0  0
 15 18  1  0  0  0  0
 16 15  2  0  0  0  0
 17 11  1  0  0  0  0
 19 22  1  0  0  0  0
 20 19  1  0  0  0  0
 21 19  1  0  0  0  0
 23 26  1  0  0  0  0
 24 25  1  0  0  0  0
 25 26  2  0  0  0  0
 25 30  1  0  0  0  0
 26 27  1  0  0  0  0
 27 31  1  0  0  0  0
 27 28  2  0  0  0  0
 28 32  1  0  0  0  0
 29 28  1  0  0  0  0
 29 33  1  0  0  0  0
 30 29  2  0  0  0  0
 34 30  1  1  0  0  0
 34 35  1  0  0  0  0
 35 36  1  0  0  0  0
 37 35  1  0  0  0  0
 37 38  1  0  0  0  0
 39 37  1  0  0  0  0
 40 39  1  0  0  0  0
 40 34  1  0  0  0  0
 40 41  1  0  0  0  0
M  END
>  <minimizedAffinity>
-6.00935173

$$$$

 OpenBabel03272506283D

 41 44  0  0  1  0  0  0  0  0999 V2000
   39.8530   25.0170   33.8600 C   0  0  0  0  0  0  0  0  0  0  0  0
   41.0540   25.0150   34.5420 C   0  0  0  0  0  0  0  0  0  0  0  0
   41.9570   26.0790   34.5420 C   0  0  0  0  0  0  0  0  0  0  0  0
   41.6240   27.2280   33.8000 C   0  0  0  0  0  0  0  0  0  0  0  0
   40.4180   27.2070   33.1270 C   0  0  0  0  0  0  0  0  0  0  0  0
   39.5440   26.1610   33.1360 C   0  0  0  0  0  0  0  0  0  0  0  0
   41.3490   24.1350   35.1320 H   0  0  0  0  0  0  0  0  0  0  0  0
   42.8740   25.9680   35.1160 H   0  0  0  0  0  0  0  0  0  0  0  0
   42.3830   27.9890   33.8650 H   0  0  0  0  0  0  0  0  0  0  0  0
   40.3600   28.1450   32.6330 H   0  0  0  0  0  0  0  0  0  0  0  0
   38.9860   22.9990   32.8430 C   0  0  0  0  0  0  0  0  0  0  0  0
   39.0490   23.8280   33.9740 C   0  0  0  0  0  0  0  0  0  0  0  0
   38.3320   23.4410   35.1140 C   0  0  0  0  0  0  0  0  0  0  0  0
   37.6120   22.2880   35.0770 N   0  0  0  0  0  0  0  0  0  0  0  0
   37.5720   21.5010   33.9620 C   0  0  0  0  0  0  0  0  0  0  0  0
   38.2600   21.8610   32.8460 N   0  0  0  0  0  0  0  0  0  0  0  0
   39.5260   23.2680   31.9510 H   0  0  0  0  0  0  0  0  0  0  0  0
   36.9790   20.6010   34.0080 H   0  0  0  0  0  0  0  0  0  0  0  0
   38.3030   24.2190   36.3800 C   0  0  0  0  0  0  0  0  0  0  0  0
   39.3050   23.7370   37.2460 F   0  0  0  0  0  0  0  0  0  0  0  0
   38.4440   25.5530   36.2610 F   0  0  0  0  0  0  0  0  0  0  0  0
   37.1200   23.9480   37.0700 F   0  0  0  0  0  0  0  0  0  0  0  0
   38.0140   26.1530   32.2770 S   0  0  0  0  0  0  0  0  0  0  0  0
   36.5580   27.1750   34.8250 Cl  0  0  0  0  0  0  0  0  0  0  0  0
   36.6100   28.1520   33.3730 C   0  0  0  0  0  0  0  0  0  0  0  0
   37.2320   27.7410   32.2020 C   0  0  0  0  0  0  0  0  0  0  0  0
   37.2310   28.5380   31.0960 C   0  0  0  0  0  0  0  0  0  0  0  0
   36.6020   29.7650   31.1590 C   0  0  0  0  0  0  0  0  0  0  0  0
   35.9750   30.1850   32.3340 C   0  0  0  0  0  0  0  0  0  0  0  0
   35.9690   29.3860   33.4580 C   0  0  0  0  0  0  0  0  0  0  0  0
   37.6430   28.2960   30.1500 H   0  0  0  0  0  0  0  0  0  0  0  0
   36.5780   30.4330   30.3010 H   0  0  0  0  0  0  0  0  0  0  0  0
   35.5010   31.1550   32.3120 H   0  0  0  0  0  0  0  0  0  0  0  0
   35.3060   29.8040   34.7190 C   0  0  2  0  0  3  0  0  0  0  0  0
   33.8380   30.1200   34.5440 C   0  0  0  0  0  3  0  0  0  0  0  0
   33.5700   30.4000   33.5120 H   0  0  0  0  0  0  0  0  0  0  0  0
   33.6240   31.3410   35.4230 C   0  0  0  0  0  3  0  0  0  0  0  0
   33.2010   32.2100   34.8390 H   0  0  0  0  0  0  0  0  0  0  0  0
   34.8040   31.6210   36.0630 O   0  0  0  0  0  0  0  0  0  0  0  0
   35.8490   31.0300   35.3570 C   0  0  0  0  0  3  0  0  0  0  0  0
   36.2540   31.8000   34.6990 H   0  0  0  0  0  0  0  0  0  0  0  0
  1 12  1  0  0  0  0
  1  2  1  0  0  0  0
  2  7  1  0  0  0  0
  3  2  2  0  0  0  0
  3  8  1  0  0  0  0
  4  9  1  0  0  0  0
  4  3  1  0  0  0  0
  5  6  1  0  0  0  0
  5  4  2  0  0  0  0
  6  1  2  0  0  0  0
 10  5  1  0  0  0  0
 11 16  2  0  0  0  0
 11 12  1  0  0  0  0
 12 13  2  0  0  0  0
 13 19  1  0  0  0  0
 14 13  1  0  0  0  0
 15 18  1  0  0  0  0
 15 14  2  0  0  0  0
 16 15  1  0  0  0  0
 17 11  1  0  0  0  0
 19 22  1  0  0  0  0
 19 20  1  0  0  0  0
 21 19  1  0  0  0  0
 23  6  1  0  0  0  0
 25 30  1  0  0  0  0
 25 24  1  0  0  0  0
 26 23  1  0  0  0  0
 26 25  2  0  0  0  0
 27 28  2  0  0  0  0
 27 26  1  0  0  0  0
 28 29  1  0  0  0  0
 29 30  2  0  0  0  0
 31 27  1  0  0  0  0
 32 28  1  0  0  0  0
 33 29  1  0  0  0  0
 34 30  1  6  0  0  0
 34 40  1  0  0  0  0
 35 34  1  0  0  0  0
 35 37  1  0  0  0  0
 36 35  1  0  0  0  0
 37 39  1  0  0  0  0
 38 37  1  0  0  0  0
 40 39  1  0  0  0  0
 41 40  1  0  0  0  0
M  END
>  <minimizedAffinity>
-5.95959663

$$$$

 OpenBabel03272506283D

 41 44  0  0  1  0  0  0  0  0999 V2000
   38.1650   22.6910   34.0790 C   0  0  0  0  0  0  0  0  0  0  0  0
   37.4510   21.5240   33.8900 C   0  0  0  0  0  0  0  0  0  0  0  0
   36.4330   21.3710   32.9480 C   0  0  0  0  0  0  0  0  0  0  0  0
   36.1130   22.4760   32.1370 C   0  0  0  0  0  0  0  0  0  0  0  0
   36.8410   23.6320   32.3420 C   0  0  0  0  0  0  0  0  0  0  0  0
   37.8340   23.7670   33.2670 C   0  0  0  0  0  0  0  0  0  0  0  0
   37.6720   20.6400   34.5060 H   0  0  0  0  0  0  0  0  0  0  0  0
   35.9380   20.4040   32.8870 H   0  0  0  0  0  0  0  0  0  0  0  0
   35.3180   22.2550   31.4440 H   0  0  0  0  0  0  0  0  0  0  0  0
   36.4480   24.3340   31.6500 H   0  0  0  0  0  0  0  0  0  0  0  0
   40.4750   22.3110   34.6940 C   0  0  0  0  0  0  0  0  0  0  0  0
   39.1790   22.6650   35.1010 C   0  0  0  0  0  0  0  0  0  0  0  0
   38.9720   22.9610   36.4550 C   0  0  0  0  0  0  0  0  0  0  0  0
   40.0280   22.8940   37.3100 N   0  0  0  0  0  0  0  0  0  0  0  0
   41.2780   22.5480   36.8830 C   0  0  0  0  0  0  0  0  0  0  0  0
   41.4970   22.2570   35.5740 N   0  0  0  0  0  0  0  0  0  0  0  0
   40.6670   22.0770   33.6600 H   0  0  0  0  0  0  0  0  0  0  0  0
   42.0650   22.5160   37.6200 H   0  0  0  0  0  0  0  0  0  0  0  0
   37.6580   23.3470   37.0280 C   0  0  0  0  0  0  0  0  0  0  0  0
   37.2640   24.5910   36.4950 F   0  0  0  0  0  0  0  0  0  0  0  0
   36.6520   22.4680   36.8550 F   0  0  0  0  0  0  0  0  0  0  0  0
   37.8000   23.6090   38.3920 F   0  0  0  0  0  0  0  0  0  0  0  0
   38.7500   25.2430   33.5120 S   0  0  0  0  0  0  0  0  0  0  0  0
   36.6460   27.2060   34.6840 Cl  0  0  0  0  0  0  0  0  0  0  0  0
   37.2880   27.4420   33.0720 C   0  0  0  0  0  0  0  0  0  0  0  0
   38.2170   26.5900   32.4910 C   0  0  0  0  0  0  0  0  0  0  0  0
   38.6720   26.8130   31.2260 C   0  0  0  0  0  0  0  0  0  0  0  0
   38.1960   27.9060   30.5300 C   0  0  0  0  0  0  0  0  0  0  0  0
   37.2620   28.7680   31.1080 C   0  0  0  0  0  0  0  0  0  0  0  0
   36.7940   28.5490   32.3870 C   0  0  0  0  0  0  0  0  0  0  0  0
   39.3490   26.2010   30.6870 H   0  0  0  0  0  0  0  0  0  0  0  0
   38.5340   28.1240   29.5190 H   0  0  0  0  0  0  0  0  0  0  0  0
   36.9310   29.6010   30.5060 H   0  0  0  0  0  0  0  0  0  0  0  0
   35.7970   29.4460   33.0250 C   0  0  2  0  0  3  0  0  0  0  0  0
   34.3690   29.0920   32.6770 C   0  0  0  0  0  3  0  0  0  0  0  0
   34.2720   28.5380   31.7300 H   0  0  0  0  0  0  0  0  0  0  0  0
   33.6970   30.4430   32.4910 C   0  0  0  0  0  3  0  0  0  0  0  0
   33.2240   30.5400   31.4700 H   0  0  0  0  0  0  0  0  0  0  0  0
   34.6160   31.4210   32.7730 O   0  0  0  0  0  0  0  0  0  0  0  0
   35.8950   30.8820   32.6600 C   0  0  0  0  0  3  0  0  0  0  0  0
   36.2460   31.1210   31.6560 H   0  0  0  0  0  0  0  0  0  0  0  0
  1 12  1  0  0  0  0
  2  1  1  0  0  0  0
  2  7  1  0  0  0  0
  3  2  2  0  0  0  0
  4  5  2  0  0  0  0
  4  3  1  0  0  0  0
  5  6  1  0  0  0  0
  6 23  1  0  0  0  0
  6  1  2  0  0  0  0
  8  3  1  0  0  0  0
  9  4  1  0  0  0  0
 10  5  1  0  0  0  0
 11 12  2  0  0  0  0
 11 16  1  0  0  0  0
 12 13  1  0  0  0  0
 13 19  1  0  0  0  0
 13 14  2  0  0  0  0
 15 14  1  0  0  0  0
 15 18  1  0  0  0  0
 16 15  2  0  0  0  0
 17 11  1  0  0  0  0
 19 22  1  0  0  0  0
 20 19  1  0  0  0  0
 21 19  1  0  0  0  0
 25 24  1  0  0  0  0
 26 25  1  0  0  0  0
 26 23  1  0  0  0  0
 27 26  2  0  0  0  0
 28 29  2  0  0  0  0
 28 27  1  0  0  0  0
 29 30  1  0  0  0  0
 30 25  2  0  0  0  0
 31 27  1  0  0  0  0
 32 28  1  0  0  0  0
 33 29  1  0  0  0  0
 34 30  1  6  0  0  0
 35 34  1  0  0  0  0
 36 35  1  0  0  0  0
 37 35  1  0  0  0  0
 37 39  1  0  0  0  0
 38 37  1  0  0  0  0
 40 39  1  0  0  0  0
 40 34  1  0  0  0  0
 41 40  1  0  0  0  0
M  END
>  <minimizedAffinity>
-5.94346619

$$$$

 OpenBabel03272506283D

 41 44  0  0  1  0  0  0  0  0999 V2000
   37.4960   26.0400   32.3670 C   0  0  0  0  0  0  0  0  0  0  0  0
   37.2050   24.6940   32.2550 C   0  0  0  0  0  0  0  0  0  0  0  0
   36.0570   24.1880   31.6460 C   0  0  0  0  0  0  0  0  0  0  0  0
   35.1350   25.1060   31.1100 C   0  0  0  0  0  0  0  0  0  0  0  0
   35.4460   26.4460   31.2330 C   0  0  0  0  0  0  0  0  0  0  0  0
   36.5730   26.9270   31.8310 C   0  0  0  0  0  0  0  0  0  0  0  0
   37.9020   23.9470   32.6630 H   0  0  0  0  0  0  0  0  0  0  0  0
   35.9320   23.1070   31.6140 H   0  0  0  0  0  0  0  0  0  0  0  0
   34.2860   24.6160   30.6620 H   0  0  0  0  0  0  0  0  0  0  0  0
   34.6350   26.9620   30.7810 H   0  0  0  0  0  0  0  0  0  0  0  0
   39.8050   26.7470   32.2100 C   0  0  0  0  0  0  0  0  0  0  0  0
   38.7280   26.3770   33.0310 C   0  0  0  0  0  0  0  0  0  0  0  0
   38.9310   26.3640   34.4170 C   0  0  0  0  0  0  0  0  0  0  0  0
   40.1530   26.7080   34.9050 N   0  0  0  0  0  0  0  0  0  0  0  0
   41.1820   27.0640   34.0810 C   0  0  0  0  0  0  0  0  0  0  0  0
   41.0030   27.0820   32.7340 N   0  0  0  0  0  0  0  0  0  0  0  0
   39.6810   26.7670   31.1410 H   0  0  0  0  0  0  0  0  0  0  0  0
   42.1220   27.3230   34.5420 H   0  0  0  0  0  0  0  0  0  0  0  0
   37.8860   25.9930   35.4060 C   0  0  0  0  0  0  0  0  0  0  0  0
   38.2560   26.4720   36.6790 F   0  0  0  0  0  0  0  0  0  0  0  0
   36.6350   26.4150   35.1350 F   0  0  0  0  0  0  0  0  0  0  0  0
   37.8690   24.6070   35.5740 F   0  0  0  0  0  0  0  0  0  0  0  0
   36.9530   28.6340   31.9750 S   0  0  0  0  0  0  0  0  0  0  0  0
   36.6020   29.3200   34.9850 Cl  0  0  0  0  0  0  0  0  0  0  0  0
   35.4690   29.9220   33.7930 C   0  0  0  0  0  0  0  0  0  0  0  0
   35.5670   29.6360   32.4380 C   0  0  0  0  0  0  0  0  0  0  0  0
   34.6490   30.1200   31.5550 C   0  0  0  0  0  0  0  0  0  0  0  0
   33.6170   30.9050   32.0300 C   0  0  0  0  0  0  0  0  0  0  0  0
   33.5130   31.1980   33.3920 C   0  0  0  0  0  0  0  0  0  0  0  0
   34.4360   30.7110   34.2930 C   0  0  0  0  0  0  0  0  0  0  0  0
   34.6180   29.9250   30.5140 H   0  0  0  0  0  0  0  0  0  0  0  0
   32.8630   31.3140   31.3620 H   0  0  0  0  0  0  0  0  0  0  0  0
   32.6800   31.8150   33.6940 H   0  0  0  0  0  0  0  0  0  0  0  0
   34.3470   31.0010   35.7470 C   0  0  2  0  0  3  0  0  0  0  0  0
   32.9240   31.1020   36.2480 C   0  0  0  0  0  3  0  0  0  0  0  0
   32.1990   31.3610   35.4600 H   0  0  0  0  0  0  0  0  0  0  0  0
   32.9690   32.2590   37.2320 C   0  0  0  0  0  3  0  0  0  0  0  0
   32.2300   33.0690   36.9610 H   0  0  0  0  0  0  0  0  0  0  0  0
   34.2660   32.6970   37.3210 O   0  0  0  0  0  0  0  0  0  0  0  0
   34.9590   32.2800   36.1870 C   0  0  0  0  0  3  0  0  0  0  0  0
   34.9380   33.1140   35.4860 H   0  0  0  0  0  0  0  0  0  0  0  0
  1 12  1  0  0  0  0
  2  1  1  0  0  0  0
  2  7  1  0  0  0  0
  3  2  2  0  0  0  0
  4  5  2  0  0  0  0
  4  3  1  0  0  0  0
  5  6  1  0  0  0  0
  6 23  1  0  0  0  0
  6  1  2  0  0  0  0
  8  3  1  0  0  0  0
  9  4  1  0  0  0  0
 10  5  1  0  0  0  0
 11 16  2  0  0  0  0
 11 12  1  0  0  0  0
 12 13  2  0  0  0  0
 13 14  1  0  0  0  0
 13 19  1  0  0  0  0
 15 18  1  0  0  0  0
 15 14  2  0  0  0  0
 16 15  1  0  0  0  0
 17 11  1  0  0  0  0
 19 22  1  0  0  0  0
 19 20  1  0  0  0  0
 21 19  1  0  0  0  0
 23 26  1  0  0  0  0
 25 30  1  0  0  0  0
 25 24  1  0  0  0  0
 26 25  2  0  0  0  0
 27 28  2  0  0  0  0
 27 26  1  0  0  0  0
 28 29  1  0  0  0  0
 29 33  1  0  0  0  0
 29 30  2  0  0  0  0
 31 27  1  0  0  0  0
 32 28  1  0  0  0  0
 34 30  1  6  0  0  0
 34 40  1  0  0  0  0
 34 35  1  0  0  0  0
 35 37  1  0  0  0  0
 36 35  1  0  0  0  0
 37 39  1  0  0  0  0
 38 37  1  0  0  0  0
 40 39  1  0  0  0  0
 41 40  1  0  0  0  0
M  END
>  <minimizedAffinity>
-5.86536551

$$$$
