
 OpenBabel03272506193D

 33 35  0  0  1  0  0  0  0  0999 V2000
   37.4260   27.0110   33.2570 C   0  0  0  0  0  0  0  0  0  0  0  0
   38.8810   27.0250   32.8450 C   0  0  0  0  0  0  0  0  0  0  0  0
   39.7860   26.4290   33.8820 C   0  0  0  0  0  0  0  0  0  0  0  0
   39.6270   27.0640   35.2370 C   0  0  0  0  0  0  0  0  0  0  0  0
   38.1990   27.2970   35.6190 C   0  0  0  0  0  0  0  0  0  0  0  0
   37.2130   26.6330   34.6800 C   0  0  0  0  0  0  0  0  0  0  0  0
   36.9900   28.0020   33.0630 H   0  0  0  0  0  0  0  0  0  0  0  0
   39.0780   26.5230   31.8850 H   0  0  0  0  0  0  0  0  0  0  0  0
   39.2030   28.0760   32.7100 H   0  0  0  0  0  0  0  0  0  0  0  0
   40.8260   26.5890   33.5720 H   0  0  0  0  0  0  0  0  0  0  0  0
   39.6300   25.3240   33.9110 H   0  0  0  0  0  0  0  0  0  0  0  0
   40.2350   27.9920   35.3120 H   0  0  0  0  0  0  0  0  0  0  0  0
   40.1050   26.3430   35.9610 H   0  0  0  0  0  0  0  0  0  0  0  0
   38.0260   28.3840   35.6720 H   0  0  0  0  0  0  0  0  0  0  0  0
   38.0020   26.8260   36.6170 H   0  0  0  0  0  0  0  0  0  0  0  0
   36.2110   27.0550   34.9740 H   0  0  0  0  0  0  0  0  0  0  0  0
   37.1340   25.5570   34.8630 H   0  0  0  0  0  0  0  0  0  0  0  0
   36.6750   26.0360   32.4080 C   0  0  0  0  0  0  0  0  0  0  0  0
   37.0640   24.6890   32.5100 C   0  0  0  0  0  0  0  0  0  0  0  0
   36.3780   23.7690   31.7160 C   0  0  0  0  0  0  0  0  0  0  0  0
   35.3780   24.2070   30.8900 N   0  0  0  0  0  0  0  0  0  0  0  0
   35.0280   25.5300   30.8190 C   0  0  0  0  0  0  0  0  0  0  0  0
   35.6780   26.4200   31.5760 N   0  0  0  0  0  0  0  0  0  0  0  0
   37.8270   24.2880   33.1250 H   0  0  0  0  0  0  0  0  0  0  0  0
   34.2280   25.7940   30.1430 H   0  0  0  0  0  0  0  0  0  0  0  0
   36.6800   22.3150   31.7190 C   0  0  2  0  0  3  0  0  0  0  0  0
   35.5110   21.5090   31.2280 C   0  0  0  0  0  3  0  0  0  0  0  0
   35.5900   21.2650   30.1580 H   0  0  0  0  0  0  0  0  0  0  0  0
   35.6690   20.2340   32.0140 C   0  0  0  0  0  3  0  0  0  0  0  0
   34.6500   19.8740   32.3030 H   0  0  0  0  0  0  0  0  0  0  0  0
   36.3390   20.5140   33.1850 O   0  0  0  0  0  0  0  0  0  0  0  0
   36.8410   21.7840   33.1220 C   0  0  0  0  0  3  0  0  0  0  0  0
   36.3080   22.4150   33.8720 H   0  0  0  0  0  0  0  0  0  0  0  0
  1  6  1  0  0  0  0
  2  1  1  0  0  0  0
  2  3  1  0  0  0  0
  3 11  1  0  0  0  0
  3  4  1  0  0  0  0
  4 12  1  0  0  0  0
  4  5  1  0  0  0  0
  4 13  1  0  0  0  0
  5 14  1  0  0  0  0
  5 15  1  0  0  0  0
  6 17  1  0  0  0  0
  6 16  1  0  0  0  0
  6  5  1  0  0  0  0
  7  1  1  0  0  0  0
  8  2  1  0  0  0  0
  9  2  1  0  0  0  0
 10  3  1  0  0  0  0
 18 19  1  0  0  0  0
 18  1  1  0  0  0  0
 19 24  1  0  0  0  0
 20 19  2  0  0  0  0
 21 20  1  0  0  0  0
 22 21  2  0  0  0  0
 22 23  1  0  0  0  0
 23 18  2  0  0  0  0
 25 22  1  0  0  0  0
 26 20  1  1  0  0  0
 26 32  1  0  0  0  0
 27 26  1  0  0  0  0
 27 29  1  0  0  0  0
 28 27  1  0  0  0  0
 29 30  1  0  0  0  0
 29 31  1  0  0  0  0
 32 31  1  0  0  0  0
 32 33  1  0  0  0  0
M  END
>  <minimizedAffinity>
-5.05460215

$$$$

 OpenBabel03272506193D

 33 35  0  0  1  0  0  0  0  0999 V2000
   37.5070   26.5560   34.8260 C   0  0  0  0  0  0  0  0  0  0  0  0
   38.6730   27.2120   35.5320 C   0  0  0  0  0  0  0  0  0  0  0  0
   40.0000   26.8120   34.9590 C   0  0  0  0  0  0  0  0  0  0  0  0
   40.1960   25.3210   34.9160 C   0  0  0  0  0  0  0  0  0  0  0  0
   38.9880   24.5770   34.4420 C   0  0  0  0  0  0  0  0  0  0  0  0
   37.9110   25.4820   33.8800 C   0  0  0  0  0  0  0  0  0  0  0  0
   36.8160   26.1510   35.5810 H   0  0  0  0  0  0  0  0  0  0  0  0
   38.6220   28.3120   35.5480 H   0  0  0  0  0  0  0  0  0  0  0  0
   38.6750   26.8920   36.5920 H   0  0  0  0  0  0  0  0  0  0  0  0
   40.7930   27.2220   35.5960 H   0  0  0  0  0  0  0  0  0  0  0  0
   40.1220   27.2850   33.9550 H   0  0  0  0  0  0  0  0  0  0  0  0
   40.5610   24.9420   35.8970 H   0  0  0  0  0  0  0  0  0  0  0  0
   41.0540   25.1540   34.2020 H   0  0  0  0  0  0  0  0  0  0  0  0
   38.6010   23.9720   35.2790 H   0  0  0  0  0  0  0  0  0  0  0  0
   39.2750   23.9110   33.5860 H   0  0  0  0  0  0  0  0  0  0  0  0
   37.0130   24.8130   33.7570 H   0  0  0  0  0  0  0  0  0  0  0  0
   38.1520   25.8260   32.8700 H   0  0  0  0  0  0  0  0  0  0  0  0
   36.7470   27.5840   34.0520 C   0  0  0  0  0  0  0  0  0  0  0  0
   36.3370   28.7250   34.7620 C   0  0  0  0  0  0  0  0  0  0  0  0
   35.6190   29.6890   34.0540 C   0  0  0  0  0  0  0  0  0  0  0  0
   35.3490   29.4880   32.7280 N   0  0  0  0  0  0  0  0  0  0  0  0
   35.7660   28.3600   32.0700 C   0  0  0  0  0  0  0  0  0  0  0  0
   36.4560   27.4310   32.7370 N   0  0  0  0  0  0  0  0  0  0  0  0
   36.5110   28.9390   35.7850 H   0  0  0  0  0  0  0  0  0  0  0  0
   35.5140   28.2770   31.0230 H   0  0  0  0  0  0  0  0  0  0  0  0
   35.1210   30.9440   34.6750 C   0  0  2  0  0  3  0  0  0  0  0  0
   35.9950   31.3760   35.8190 C   0  0  0  0  0  3  0  0  0  0  0  0
   36.7450   32.1210   35.5170 H   0  0  0  0  0  0  0  0  0  0  0  0
   34.9980   32.0510   36.7230 C   0  0  0  0  0  3  0  0  0  0  0  0
   35.2660   31.8060   37.7820 H   0  0  0  0  0  0  0  0  0  0  0  0
   33.7510   31.5100   36.4940 O   0  0  0  0  0  0  0  0  0  0  0  0
   33.7990   30.7340   35.3700 C   0  0  0  0  0  3  0  0  0  0  0  0
   33.6460   29.6690   35.6650 H   0  0  0  0  0  0  0  0  0  0  0  0
  1  2  1  0  0  0  0
  1  7  1  0  0  0  0
  2  8  1  0  0  0  0
  2  9  1  0  0  0  0
  3  2  1  0  0  0  0
  3 10  1  0  0  0  0
  4  3  1  0  0  0  0
  4 12  1  0  0  0  0
  5  4  1  0  0  0  0
  5 14  1  0  0  0  0
  6  5  1  0  0  0  0
  6  1  1  0  0  0  0
 11  3  1  0  0  0  0
 13  4  1  0  0  0  0
 15  5  1  0  0  0  0
 16  6  1  0  0  0  0
 17  6  1  0  0  0  0
 18 19  1  0  0  0  0
 18  1  1  0  0  0  0
 19 24  1  0  0  0  0
 20 19  2  0  0  0  0
 21 20  1  0  0  0  0
 22 21  2  0  0  0  0
 22 23  1  0  0  0  0
 23 18  2  0  0  0  0
 25 22  1  0  0  0  0
 26 20  1  1  0  0  0
 26 32  1  0  0  0  0
 26 27  1  0  0  0  0
 27 29  1  0  0  0  0
 28 27  1  0  0  0  0
 29 30  1  0  0  0  0
 31 29  1  0  0  0  0
 32 33  1  0  0  0  0
 32 31  1  0  0  0  0
M  END
>  <minimizedAffinity>
-5.03499603

$$$$

 OpenBabel03272506193D

 33 35  0  0  1  0  0  0  0  0999 V2000
   38.8050   24.0870   35.9390 C   0  0  0  0  0  0  0  0  0  0  0  0
   40.0670   23.4510   36.4790 C   0  0  0  0  0  0  0  0  0  0  0  0
   39.8240   22.6330   37.7120 C   0  0  0  0  0  0  0  0  0  0  0  0
   39.1270   23.4030   38.8010 C   0  0  0  0  0  0  0  0  0  0  0  0
   37.9980   24.2480   38.3010 C   0  0  0  0  0  0  0  0  0  0  0  0
   37.6400   23.9730   36.8560 C   0  0  0  0  0  0  0  0  0  0  0  0
   39.0060   25.1470   35.7190 H   0  0  0  0  0  0  0  0  0  0  0  0
   40.5980   22.8220   35.7480 H   0  0  0  0  0  0  0  0  0  0  0  0
   40.7770   24.2510   36.7640 H   0  0  0  0  0  0  0  0  0  0  0  0
   40.7930   22.3120   38.1150 H   0  0  0  0  0  0  0  0  0  0  0  0
   39.2730   21.7030   37.4310 H   0  0  0  0  0  0  0  0  0  0  0  0
   39.8580   23.9930   39.3970 H   0  0  0  0  0  0  0  0  0  0  0  0
   38.7350   22.6210   39.5140 H   0  0  0  0  0  0  0  0  0  0  0  0
   38.2660   25.3080   38.4480 H   0  0  0  0  0  0  0  0  0  0  0  0
   37.0680   24.0020   38.8770 H   0  0  0  0  0  0  0  0  0  0  0  0
   36.9320   24.8020   36.5750 H   0  0  0  0  0  0  0  0  0  0  0  0
   37.0590   23.0520   36.7470 H   0  0  0  0  0  0  0  0  0  0  0  0
   38.4330   23.4400   34.6440 C   0  0  0  0  0  0  0  0  0  0  0  0
   37.8720   24.2770   33.6650 C   0  0  0  0  0  0  0  0  0  0  0  0
   37.5110   23.6850   32.4540 C   0  0  0  0  0  0  0  0  0  0  0  0
   37.7140   22.3430   32.2750 N   0  0  0  0  0  0  0  0  0  0  0  0
   38.2650   21.5600   33.2550 C   0  0  0  0  0  0  0  0  0  0  0  0
   38.6160   22.1160   34.4190 N   0  0  0  0  0  0  0  0  0  0  0  0
   37.6870   25.3170   33.7420 H   0  0  0  0  0  0  0  0  0  0  0  0
   38.3940   20.5100   33.0350 H   0  0  0  0  0  0  0  0  0  0  0  0
   36.9070   24.4450   31.3300 C   0  0  2  0  0  3  0  0  0  0  0  0
   36.9440   25.9250   31.5850 C   0  0  0  0  0  3  0  0  0  0  0  0
   37.8110   26.4110   31.1140 H   0  0  0  0  0  0  0  0  0  0  0  0
   35.7010   26.3870   30.8720 C   0  0  0  0  0  3  0  0  0  0  0  0
   35.2300   27.1990   31.4820 H   0  0  0  0  0  0  0  0  0  0  0  0
   34.7990   25.3460   30.8310 O   0  0  0  0  0  0  0  0  0  0  0  0
   35.4230   24.1960   31.2260 C   0  0  0  0  0  3  0  0  0  0  0  0
   34.9840   23.8670   32.1970 H   0  0  0  0  0  0  0  0  0  0  0  0
  1  2  1  0  0  0  0
  1  6  1  0  0  0  0
  2  9  1  0  0  0  0
  2  3  1  0  0  0  0
  3 10  1  0  0  0  0
  3  4  1  0  0  0  0
  4 12  1  0  0  0  0
  4 13  1  0  0  0  0
  5 14  1  0  0  0  0
  5  4  1  0  0  0  0
  5 15  1  0  0  0  0
  6  5  1  0  0  0  0
  7  1  1  0  0  0  0
  8  2  1  0  0  0  0
 11  3  1  0  0  0  0
 16  6  1  0  0  0  0
 17  6  1  0  0  0  0
 18  1  1  0  0  0  0
 19 24  1  0  0  0  0
 19 18  2  0  0  0  0
 20 19  1  0  0  0  0
 21 20  2  0  0  0  0
 21 22  1  0  0  0  0
 22 23  2  0  0  0  0
 23 18  1  0  0  0  0
 25 22  1  0  0  0  0
 26 27  1  0  0  0  0
 26 20  1  1  0  0  0
 28 27  1  0  0  0  0
 29 30  1  0  0  0  0
 29 27  1  0  0  0  0
 31 29  1  0  0  0  0
 31 32  1  0  0  0  0
 32 26  1  0  0  0  0
 32 33  1  0  0  0  0
M  END
>  <minimizedAffinity>
-4.89249325

$$$$

 OpenBabel03272506193D

 33 35  0  0  1  0  0  0  0  0999 V2000
   38.4960   22.7280   35.8430 C   0  0  0  0  0  0  0  0  0  0  0  0
   37.4070   22.9540   36.8690 C   0  0  0  0  0  0  0  0  0  0  0  0
   37.8590   23.8020   38.0200 C   0  0  0  0  0  0  0  0  0  0  0  0
   39.0980   23.2740   38.6900 C   0  0  0  0  0  0  0  0  0  0  0  0
   40.1430   22.8090   37.7240 C   0  0  0  0  0  0  0  0  0  0  0  0
   39.8390   23.1850   36.2890 C   0  0  0  0  0  0  0  0  0  0  0  0
   38.5290   21.6590   35.5880 H   0  0  0  0  0  0  0  0  0  0  0  0
   36.4880   23.3960   36.4550 H   0  0  0  0  0  0  0  0  0  0  0  0
   37.1100   21.9750   37.2940 H   0  0  0  0  0  0  0  0  0  0  0  0
   37.0650   23.8150   38.7770 H   0  0  0  0  0  0  0  0  0  0  0  0
   37.9820   24.8560   37.6710 H   0  0  0  0  0  0  0  0  0  0  0  0
   38.8410   22.4880   39.4350 H   0  0  0  0  0  0  0  0  0  0  0  0
   39.4960   24.1350   39.3010 H   0  0  0  0  0  0  0  0  0  0  0  0
   40.2560   21.7180   37.8330 H   0  0  0  0  0  0  0  0  0  0  0  0
   41.1130   23.3220   37.9540 H   0  0  0  0  0  0  0  0  0  0  0  0
   40.5900   22.6090   35.6790 H   0  0  0  0  0  0  0  0  0  0  0  0
   40.0560   24.2390   36.0880 H   0  0  0  0  0  0  0  0  0  0  0  0
   38.1570   23.4620   34.5850 C   0  0  0  0  0  0  0  0  0  0  0  0
   38.0310   24.8580   34.6900 C   0  0  0  0  0  0  0  0  0  0  0  0
   37.7070   25.5550   33.5260 C   0  0  0  0  0  0  0  0  0  0  0  0
   37.5280   24.8650   32.3570 N   0  0  0  0  0  0  0  0  0  0  0  0
   37.6600   23.5030   32.2960 C   0  0  0  0  0  0  0  0  0  0  0  0
   37.9720   22.8250   33.4040 N   0  0  0  0  0  0  0  0  0  0  0  0
   38.1540   25.4480   35.5610 H   0  0  0  0  0  0  0  0  0  0  0  0
   37.5040   23.0340   31.3350 H   0  0  0  0  0  0  0  0  0  0  0  0
   37.5410   27.0310   33.4860 C   0  0  2  0  0  3  0  0  0  0  0  0
   36.8840   27.5430   34.7370 C   0  0  0  0  0  3  0  0  0  0  0  0
   37.6140   27.8990   35.4790 H   0  0  0  0  0  0  0  0  0  0  0  0
   36.1250   28.7340   34.2140 C   0  0  0  0  0  3  0  0  0  0  0  0
   35.1440   28.7850   34.7500 H   0  0  0  0  0  0  0  0  0  0  0  0
   35.8410   28.5310   32.8810 O   0  0  0  0  0  0  0  0  0  0  0  0
   36.5460   27.4490   32.4320 C   0  0  0  0  0  3  0  0  0  0  0  0
   35.8280   26.6320   32.1860 H   0  0  0  0  0  0  0  0  0  0  0  0
  1  6  1  0  0  0  0
  1  2  1  0  0  0  0
  2  9  1  0  0  0  0
  2  3  1  0  0  0  0
  3  4  1  0  0  0  0
  3 10  1  0  0  0  0
  4 13  1  0  0  0  0
  4 12  1  0  0  0  0
  5 14  1  0  0  0  0
  5 15  1  0  0  0  0
  5  4  1  0  0  0  0
  6  5  1  0  0  0  0
  7  1  1  0  0  0  0
  8  2  1  0  0  0  0
 11  3  1  0  0  0  0
 16  6  1  0  0  0  0
 17  6  1  0  0  0  0
 18 19  1  0  0  0  0
 18  1  1  0  0  0  0
 19 24  1  0  0  0  0
 20 19  2  0  0  0  0
 21 20  1  0  0  0  0
 22 21  2  0  0  0  0
 22 23  1  0  0  0  0
 23 18  2  0  0  0  0
 25 22  1  0  0  0  0
 26 20  1  1  0  0  0
 26 27  1  0  0  0  0
 27 28  1  0  0  0  0
 29 27  1  0  0  0  0
 29 30  1  0  0  0  0
 31 29  1  0  0  0  0
 32 31  1  0  0  0  0
 32 26  1  0  0  0  0
 33 32  1  0  0  0  0
M  END
>  <minimizedAffinity>
-4.80900145

$$$$

 OpenBabel03272506193D

 33 35  0  0  1  0  0  0  0  0999 V2000
   35.6790   21.4030   31.1890 C   0  0  0  0  0  0  0  0  0  0  0  0
   34.9950   21.3610   32.5380 C   0  0  0  0  0  0  0  0  0  0  0  0
   35.5450   20.2940   33.4360 C   0  0  0  0  0  0  0  0  0  0  0  0
   35.5290   18.9280   32.8070 C   0  0  0  0  0  0  0  0  0  0  0  0
   35.9790   18.9270   31.3790 C   0  0  0  0  0  0  0  0  0  0  0  0
   36.5800   20.2460   30.9420 C   0  0  0  0  0  0  0  0  0  0  0  0
   34.9130   21.4560   30.4020 H   0  0  0  0  0  0  0  0  0  0  0  0
   35.0220   22.3180   33.0820 H   0  0  0  0  0  0  0  0  0  0  0  0
   33.9230   21.1270   32.3870 H   0  0  0  0  0  0  0  0  0  0  0  0
   34.9220   20.2400   34.3370 H   0  0  0  0  0  0  0  0  0  0  0  0
   36.5670   20.5930   33.7750 H   0  0  0  0  0  0  0  0  0  0  0  0
   34.5330   18.4480   32.9300 H   0  0  0  0  0  0  0  0  0  0  0  0
   36.2320   18.3040   33.4310 H   0  0  0  0  0  0  0  0  0  0  0  0
   35.1210   18.6520   30.7440 H   0  0  0  0  0  0  0  0  0  0  0  0
   36.8070   18.1810   31.2530 H   0  0  0  0  0  0  0  0  0  0  0  0
   36.6820   20.1560   29.8240 H   0  0  0  0  0  0  0  0  0  0  0  0
   37.6020   20.3730   31.3120 H   0  0  0  0  0  0  0  0  0  0  0  0
   36.4960   22.6500   31.0820 C   0  0  0  0  0  0  0  0  0  0  0  0
   35.8670   23.8450   31.4680 C   0  0  0  0  0  0  0  0  0  0  0  0
   36.6150   25.0190   31.3640 C   0  0  0  0  0  0  0  0  0  0  0  0
   37.9010   24.9580   30.9000 N   0  0  0  0  0  0  0  0  0  0  0  0
   38.4800   23.7710   30.5320 C   0  0  0  0  0  0  0  0  0  0  0  0
   37.7740   22.6410   30.6290 N   0  0  0  0  0  0  0  0  0  0  0  0
   34.8790   23.9600   31.8310 H   0  0  0  0  0  0  0  0  0  0  0  0
   39.4990   23.8080   30.1770 H   0  0  0  0  0  0  0  0  0  0  0  0
   36.0800   26.3540   31.7350 C   0  0  2  0  0  3  0  0  0  0  0  0
   36.3870   27.3820   30.6830 C   0  0  0  0  0  3  0  0  0  0  0  0
   35.5540   27.5240   29.9790 H   0  0  0  0  0  0  0  0  0  0  0  0
   36.5240   28.6320   31.5100 C   0  0  0  0  0  3  0  0  0  0  0  0
   37.3540   29.2470   31.0790 H   0  0  0  0  0  0  0  0  0  0  0  0
   36.9100   28.2810   32.7860 O   0  0  0  0  0  0  0  0  0  0  0  0
   36.7990   26.9270   32.9310 C   0  0  0  0  0  3  0  0  0  0  0  0
   37.8210   26.4960   33.0520 H   0  0  0  0  0  0  0  0  0  0  0  0
  1  2  1  0  0  0  0
  2  8  1  0  0  0  0
  2  3  1  0  0  0  0
  3 11  1  0  0  0  0
  3 10  1  0  0  0  0
  4 12  1  0  0  0  0
  4 13  1  0  0  0  0
  4  3  1  0  0  0  0
  5  4  1  0  0  0  0
  6  1  1  0  0  0  0
  6 17  1  0  0  0  0
  6  5  1  0  0  0  0
  7  1  1  0  0  0  0
  9  2  1  0  0  0  0
 14  5  1  0  0  0  0
 15  5  1  0  0  0  0
 16  6  1  0  0  0  0
 18  1  1  0  0  0  0
 18 19  1  0  0  0  0
 19 24  1  0  0  0  0
 20 19  2  0  0  0  0
 21 20  1  0  0  0  0
 22 23  1  0  0  0  0
 22 21  2  0  0  0  0
 23 18  2  0  0  0  0
 25 22  1  0  0  0  0
 26 20  1  6  0  0  0
 26 32  1  0  0  0  0
 27 29  1  0  0  0  0
 27 26  1  0  0  0  0
 28 27  1  0  0  0  0
 29 31  1  0  0  0  0
 30 29  1  0  0  0  0
 31 32  1  0  0  0  0
 32 33  1  0  0  0  0
M  END
>  <minimizedAffinity>
-4.80769634

$$$$

 OpenBabel03272506193D

 33 35  0  0  1  0  0  0  0  0999 V2000
   38.8890   24.0740   35.7480 C   0  0  0  0  0  0  0  0  0  0  0  0
   37.7390   24.5120   36.6280 C   0  0  0  0  0  0  0  0  0  0  0  0
   38.1120   24.5900   38.0770 C   0  0  0  0  0  0  0  0  0  0  0  0
   38.7060   23.3110   38.6030 C   0  0  0  0  0  0  0  0  0  0  0  0
   39.6960   22.6890   37.6680 C   0  0  0  0  0  0  0  0  0  0  0  0
   40.0710   23.5890   36.5090 C   0  0  0  0  0  0  0  0  0  0  0  0
   38.5360   23.2880   35.0630 H   0  0  0  0  0  0  0  0  0  0  0  0
   37.2940   25.4750   36.3340 H   0  0  0  0  0  0  0  0  0  0  0  0
   36.9260   23.7640   36.5500 H   0  0  0  0  0  0  0  0  0  0  0  0
   37.2050   24.7870   38.6620 H   0  0  0  0  0  0  0  0  0  0  0  0
   38.7870   25.4660   38.2340 H   0  0  0  0  0  0  0  0  0  0  0  0
   37.9060   22.5970   38.8990 H   0  0  0  0  0  0  0  0  0  0  0  0
   39.2160   23.5940   39.5690 H   0  0  0  0  0  0  0  0  0  0  0  0
   39.2810   21.7320   37.3100 H   0  0  0  0  0  0  0  0  0  0  0  0
   40.6590   22.5110   38.2150 H   0  0  0  0  0  0  0  0  0  0  0  0
   40.6490   22.9230   35.8090 H   0  0  0  0  0  0  0  0  0  0  0  0
   40.7760   24.3690   36.8100 H   0  0  0  0  0  0  0  0  0  0  0  0
   39.3330   25.2210   34.8980 C   0  0  0  0  0  0  0  0  0  0  0  0
   38.3630   25.7840   34.0520 C   0  0  0  0  0  0  0  0  0  0  0  0
   38.7660   26.8500   33.2460 C   0  0  0  0  0  0  0  0  0  0  0  0
   40.0600   27.2900   33.3100 N   0  0  0  0  0  0  0  0  0  0  0  0
   40.9780   26.7130   34.1490 C   0  0  0  0  0  0  0  0  0  0  0  0
   40.6030   25.6930   34.9270 N   0  0  0  0  0  0  0  0  0  0  0  0
   37.3510   25.4900   33.9540 H   0  0  0  0  0  0  0  0  0  0  0  0
   41.9780   27.1200   34.1410 H   0  0  0  0  0  0  0  0  0  0  0  0
   37.8500   27.5420   32.3040 C   0  0  2  0  0  3  0  0  0  0  0  0
   36.6390   28.0810   33.0110 C   0  0  0  0  0  3  0  0  0  0  0  0
   36.7490   29.1410   33.2840 H   0  0  0  0  0  0  0  0  0  0  0  0
   35.5890   27.9800   31.9360 C   0  0  0  0  0  3  0  0  0  0  0  0
   34.6260   27.6720   32.4170 H   0  0  0  0  0  0  0  0  0  0  0  0
   35.9400   26.9700   31.0660 O   0  0  0  0  0  0  0  0  0  0  0  0
   37.2220   26.5770   31.3290 C   0  0  0  0  0  3  0  0  0  0  0  0
   37.2010   25.5350   31.7260 H   0  0  0  0  0  0  0  0  0  0  0  0
  1  6  1  0  0  0  0
  1  2  1  0  0  0  0
  2  3  1  0  0  0  0
  3 11  1  0  0  0  0
  3  4  1  0  0  0  0
  3 10  1  0  0  0  0
  4 12  1  0  0  0  0
  4 13  1  0  0  0  0
  5 15  1  0  0  0  0
  5  4  1  0  0  0  0
  6 17  1  0  0  0  0
  6  5  1  0  0  0  0
  7  1  1  0  0  0  0
  8  2  1  0  0  0  0
  9  2  1  0  0  0  0
 14  5  1  0  0  0  0
 16  6  1  0  0  0  0
 18 23  1  0  0  0  0
 18  1  1  0  0  0  0
 19 18  2  0  0  0  0
 20 21  2  0  0  0  0
 20 19  1  0  0  0  0
 21 22  1  0  0  0  0
 22 23  2  0  0  0  0
 24 19  1  0  0  0  0
 25 22  1  0  0  0  0
 26 27  1  0  0  0  0
 26 20  1  1  0  0  0
 27 28  1  0  0  0  0
 29 30  1  0  0  0  0
 29 27  1  0  0  0  0
 31 32  1  0  0  0  0
 31 29  1  0  0  0  0
 32 33  1  0  0  0  0
 32 26  1  0  0  0  0
M  END
>  <minimizedAffinity>
-4.7849946

$$$$

 OpenBabel03272506193D

 33 35  0  0  1  0  0  0  0  0999 V2000
   35.5690   21.4000   31.1540 C   0  0  0  0  0  0  0  0  0  0  0  0
   34.7850   20.7680   32.2830 C   0  0  0  0  0  0  0  0  0  0  0  0
   35.5090   19.6210   32.9220 C   0  0  0  0  0  0  0  0  0  0  0  0
   35.9330   18.5680   31.9350 C   0  0  0  0  0  0  0  0  0  0  0  0
   36.5120   19.1330   30.6760 C   0  0  0  0  0  0  0  0  0  0  0  0
   36.7720   20.6230   30.7550 C   0  0  0  0  0  0  0  0  0  0  0  0
   34.9030   21.5320   30.2880 H   0  0  0  0  0  0  0  0  0  0  0  0
   34.4920   21.4750   33.0740 H   0  0  0  0  0  0  0  0  0  0  0  0
   33.8400   20.3590   31.8760 H   0  0  0  0  0  0  0  0  0  0  0  0
   34.8330   19.1370   33.6390 H   0  0  0  0  0  0  0  0  0  0  0  0
   36.3690   20.0160   33.5150 H   0  0  0  0  0  0  0  0  0  0  0  0
   35.0980   17.8610   31.7290 H   0  0  0  0  0  0  0  0  0  0  0  0
   36.7100   17.9520   32.4720 H   0  0  0  0  0  0  0  0  0  0  0  0
   35.8330   18.8930   29.8420 H   0  0  0  0  0  0  0  0  0  0  0  0
   37.5210   18.6770   30.4960 H   0  0  0  0  0  0  0  0  0  0  0  0
   37.0110   20.9270   29.6970 H   0  0  0  0  0  0  0  0  0  0  0  0
   37.6760   20.8510   31.3280 H   0  0  0  0  0  0  0  0  0  0  0  0
   36.0200   22.7660   31.5620 C   0  0  0  0  0  0  0  0  0  0  0  0
   37.0490   22.8240   32.5170 C   0  0  0  0  0  0  0  0  0  0  0  0
   37.4750   24.0930   32.9140 C   0  0  0  0  0  0  0  0  0  0  0  0
   36.8850   25.2010   32.3700 N   0  0  0  0  0  0  0  0  0  0  0  0
   35.8830   25.1020   31.4400 C   0  0  0  0  0  0  0  0  0  0  0  0
   35.4680   23.8930   31.0510 N   0  0  0  0  0  0  0  0  0  0  0  0
   37.5430   22.0080   32.9770 H   0  0  0  0  0  0  0  0  0  0  0  0
   35.4700   26.0240   31.0580 H   0  0  0  0  0  0  0  0  0  0  0  0
   38.5510   24.3080   33.9150 C   0  0  2  0  0  3  0  0  0  0  0  0
   38.6590   23.1480   34.8640 C   0  0  0  0  0  3  0  0  0  0  0  0
   39.4340   22.4280   34.5610 H   0  0  0  0  0  0  0  0  0  0  0  0
   39.1200   23.8300   36.1250 C   0  0  0  0  0  3  0  0  0  0  0  0
   38.6130   23.3380   36.9930 H   0  0  0  0  0  0  0  0  0  0  0  0
   38.6910   25.1400   36.1050 O   0  0  0  0  0  0  0  0  0  0  0  0
   38.2160   25.4360   34.8580 C   0  0  0  0  0  3  0  0  0  0  0  0
   37.1160   25.6110   34.9280 H   0  0  0  0  0  0  0  0  0  0  0  0
  1 18  1  0  0  0  0
  1  2  1  0  0  0  0
  2  3  1  0  0  0  0
  2  8  1  0  0  0  0
  3 11  1  0  0  0  0
  3 10  1  0  0  0  0
  4 13  1  0  0  0  0
  4  3  1  0  0  0  0
  5  6  1  0  0  0  0
  5  4  1  0  0  0  0
  6  1  1  0  0  0  0
  6 17  1  0  0  0  0
  7  1  1  0  0  0  0
  9  2  1  0  0  0  0
 12  4  1  0  0  0  0
 14  5  1  0  0  0  0
 15  5  1  0  0  0  0
 16  6  1  0  0  0  0
 18 19  1  0  0  0  0
 19 20  2  0  0  0  0
 19 24  1  0  0  0  0
 21 20  1  0  0  0  0
 22 21  2  0  0  0  0
 23 22  1  0  0  0  0
 23 18  2  0  0  0  0
 25 22  1  0  0  0  0
 26 20  1  6  0  0  0
 26 32  1  0  0  0  0
 26 27  1  0  0  0  0
 27 29  1  0  0  0  0
 28 27  1  0  0  0  0
 29 30  1  0  0  0  0
 31 29  1  0  0  0  0
 32 33  1  0  0  0  0
 32 31  1  0  0  0  0
M  END
>  <minimizedAffinity>
-4.77536488

$$$$

 OpenBabel03272506193D

 33 35  0  0  1  0  0  0  0  0999 V2000
   34.1350   32.3330   37.0660 C   0  0  0  0  0  0  0  0  0  0  0  0
   34.4200   33.8150   36.9730 C   0  0  0  0  0  0  0  0  0  0  0  0
   35.1730   34.1860   35.7300 C   0  0  0  0  0  0  0  0  0  0  0  0
   36.4460   33.4040   35.5570 C   0  0  0  0  0  0  0  0  0  0  0  0
   36.2930   31.9460   35.8620 C   0  0  0  0  0  0  0  0  0  0  0  0
   34.8500   31.5220   36.0450 C   0  0  0  0  0  0  0  0  0  0  0  0
   34.3980   31.9810   38.0750 H   0  0  0  0  0  0  0  0  0  0  0  0
   33.5210   34.4470   37.0330 H   0  0  0  0  0  0  0  0  0  0  0  0
   35.0570   34.1100   37.8290 H   0  0  0  0  0  0  0  0  0  0  0  0
   35.4530   35.2450   35.7940 H   0  0  0  0  0  0  0  0  0  0  0  0
   34.4930   34.0900   34.8490 H   0  0  0  0  0  0  0  0  0  0  0  0
   37.2760   33.8660   36.1370 H   0  0  0  0  0  0  0  0  0  0  0  0
   36.7350   33.5410   34.4750 H   0  0  0  0  0  0  0  0  0  0  0  0
   36.8910   31.7140   36.7580 H   0  0  0  0  0  0  0  0  0  0  0  0
   36.6580   31.3460   34.9880 H   0  0  0  0  0  0  0  0  0  0  0  0
   34.9120   30.4760   36.4550 H   0  0  0  0  0  0  0  0  0  0  0  0
   34.3290   31.4240   35.0880 H   0  0  0  0  0  0  0  0  0  0  0  0
   32.6690   32.0940   36.8940 C   0  0  0  0  0  0  0  0  0  0  0  0
   32.2490   30.7530   36.8980 C   0  0  0  0  0  0  0  0  0  0  0  0
   30.8850   30.5150   36.7300 C   0  0  0  0  0  0  0  0  0  0  0  0
   30.0320   31.5730   36.5690 N   0  0  0  0  0  0  0  0  0  0  0  0
   30.4810   32.8680   36.5700 C   0  0  0  0  0  0  0  0  0  0  0  0
   31.7850   33.1080   36.7320 N   0  0  0  0  0  0  0  0  0  0  0  0
   32.8560   29.8930   37.0150 H   0  0  0  0  0  0  0  0  0  0  0  0
   29.7440   33.6460   36.4390 H   0  0  0  0  0  0  0  0  0  0  0  0
   30.2980   29.1500   36.7130 C   0  0  2  0  0  3  0  0  0  0  0  0
   31.0960   28.1980   37.5590 C   0  0  0  0  0  3  0  0  0  0  0  0
   30.6830   28.0890   38.5720 H   0  0  0  0  0  0  0  0  0  0  0  0
   30.8950   26.8990   36.8260 C   0  0  0  0  0  3  0  0  0  0  0  0
   31.8560   26.3270   36.8590 H   0  0  0  0  0  0  0  0  0  0  0  0
   30.6410   27.1710   35.4990 O   0  0  0  0  0  0  0  0  0  0  0  0
   30.4160   28.5120   35.3520 C   0  0  0  0  0  3  0  0  0  0  0  0
   31.2510   28.9490   34.7550 H   0  0  0  0  0  0  0  0  0  0  0  0
  1  7  1  0  0  0  0
  2  8  1  0  0  0  0
  2  1  1  0  0  0  0
  2  9  1  0  0  0  0
  3 10  1  0  0  0  0
  3  2  1  0  0  0  0
  4  3  1  0  0  0  0
  4  5  1  0  0  0  0
  4 12  1  0  0  0  0
  5  6  1  0  0  0  0
  5 14  1  0  0  0  0
  6 16  1  0  0  0  0
  6  1  1  0  0  0  0
 11  3  1  0  0  0  0
 13  4  1  0  0  0  0
 15  5  1  0  0  0  0
 17  6  1  0  0  0  0
 18 19  1  0  0  0  0
 18  1  1  0  0  0  0
 19 24  1  0  0  0  0
 20 19  2  0  0  0  0
 21 22  2  0  0  0  0
 21 20  1  0  0  0  0
 22 23  1  0  0  0  0
 23 18  2  0  0  0  0
 25 22  1  0  0  0  0
 26 20  1  6  0  0  0
 26 27  1  0  0  0  0
 27 28  1  0  0  0  0
 29 30  1  0  0  0  0
 29 27  1  0  0  0  0
 31 29  1  0  0  0  0
 32 31  1  0  0  0  0
 32 26  1  0  0  0  0
 33 32  1  0  0  0  0
M  END
>  <minimizedAffinity>
-4.7510848

$$$$

 OpenBabel03272506193D

 33 35  0  0  1  0  0  0  0  0999 V2000
   34.5960   31.0360   34.3020 C   0  0  0  0  0  0  0  0  0  0  0  0
   35.4830   32.0660   34.9650 C   0  0  0  0  0  0  0  0  0  0  0  0
   35.4150   32.0160   36.4620 C   0  0  0  0  0  0  0  0  0  0  0  0
   34.0110   32.1260   36.9920 C   0  0  0  0  0  0  0  0  0  0  0  0
   33.0220   31.3020   36.2290 C   0  0  0  0  0  0  0  0  0  0  0  0
   33.6710   30.3510   35.2440 C   0  0  0  0  0  0  0  0  0  0  0  0
   34.0210   31.5220   33.5000 H   0  0  0  0  0  0  0  0  0  0  0  0
   36.5400   32.0040   34.6650 H   0  0  0  0  0  0  0  0  0  0  0  0
   35.1410   33.0760   34.6650 H   0  0  0  0  0  0  0  0  0  0  0  0
   35.9790   32.8670   36.8660 H   0  0  0  0  0  0  0  0  0  0  0  0
   35.9320   31.0940   36.8200 H   0  0  0  0  0  0  0  0  0  0  0  0
   33.6980   33.1920   37.0630 H   0  0  0  0  0  0  0  0  0  0  0  0
   34.0670   31.7680   38.0600 H   0  0  0  0  0  0  0  0  0  0  0  0
   32.3210   31.9830   35.7180 H   0  0  0  0  0  0  0  0  0  0  0  0
   32.4660   30.6380   36.9410 H   0  0  0  0  0  0  0  0  0  0  0  0
   32.8170   29.9590   34.6230 H   0  0  0  0  0  0  0  0  0  0  0  0
   34.0900   29.4710   35.7420 H   0  0  0  0  0  0  0  0  0  0  0  0
   35.4430   29.9890   33.6530 C   0  0  0  0  0  0  0  0  0  0  0  0
   35.8690   28.9310   34.4730 C   0  0  0  0  0  0  0  0  0  0  0  0
   36.6680   27.9520   33.8820 C   0  0  0  0  0  0  0  0  0  0  0  0
   36.9980   28.0620   32.5580 N   0  0  0  0  0  0  0  0  0  0  0  0
   36.5630   29.1100   31.7910 C   0  0  0  0  0  0  0  0  0  0  0  0
   35.7950   30.0530   32.3450 N   0  0  0  0  0  0  0  0  0  0  0  0
   35.6520   28.7900   35.5000 H   0  0  0  0  0  0  0  0  0  0  0  0
   36.8660   29.1230   30.7540 H   0  0  0  0  0  0  0  0  0  0  0  0
   37.1910   26.7770   34.6260 C   0  0  2  0  0  3  0  0  0  0  0  0
   38.4780   27.1010   35.3300 C   0  0  0  0  0  3  0  0  0  0  0  0
   38.3230   27.3790   36.3830 H   0  0  0  0  0  0  0  0  0  0  0  0
   39.1860   25.7720   35.2940 C   0  0  0  0  0  3  0  0  0  0  0  0
   40.2750   25.9620   35.1190 H   0  0  0  0  0  0  0  0  0  0  0  0
   38.7280   25.0530   34.2110 O   0  0  0  0  0  0  0  0  0  0  0  0
   37.6290   25.6780   33.6910 C   0  0  0  0  0  3  0  0  0  0  0  0
   37.8870   26.0670   32.6780 H   0  0  0  0  0  0  0  0  0  0  0  0
  1  2  1  0  0  0  0
  1  6  1  0  0  0  0
  2  3  1  0  0  0  0
  3 11  1  0  0  0  0
  3 10  1  0  0  0  0
  3  4  1  0  0  0  0
  4 12  1  0  0  0  0
  4 13  1  0  0  0  0
  5 15  1  0  0  0  0
  5  4  1  0  0  0  0
  6 17  1  0  0  0  0
  6  5  1  0  0  0  0
  7  1  1  0  0  0  0
  8  2  1  0  0  0  0
  9  2  1  0  0  0  0
 14  5  1  0  0  0  0
 16  6  1  0  0  0  0
 18  1  1  0  0  0  0
 18 19  1  0  0  0  0
 19 24  1  0  0  0  0
 20 19  2  0  0  0  0
 21 20  1  0  0  0  0
 22 23  1  0  0  0  0
 22 21  2  0  0  0  0
 23 18  2  0  0  0  0
 25 22  1  0  0  0  0
 26 20  1  6  0  0  0
 26 27  1  0  0  0  0
 27 28  1  0  0  0  0
 29 27  1  0  0  0  0
 30 29  1  0  0  0  0
 31 29  1  0  0  0  0
 32 31  1  0  0  0  0
 32 26  1  0  0  0  0
 33 32  1  0  0  0  0
M  END
>  <minimizedAffinity>
-4.74562311

$$$$
