
 OpenBabel03272506523D

 33 35  0  0  1  0  0  0  0  0999 V2000
   39.1470   26.7860   35.2970 C   0  0  1  0  0  0  0  0  0  0  0  0
   39.9750   27.0090   34.1170 C   0  0  0  0  0  0  0  0  0  0  0  0
   39.3070   26.8700   32.7760 C   0  0  0  0  0  0  0  0  0  0  0  0
   37.9190   27.3840   32.7080 C   0  0  2  0  0  0  0  0  0  0  0  0
   37.0540   27.1630   33.9030 C   0  0  0  0  0  0  0  0  0  0  0  0
   37.7910   27.4270   35.1770 C   0  0  0  0  0  0  0  0  0  0  0  0
   39.6200   27.3470   36.1660 H   0  0  0  0  0  0  0  0  0  0  0  0
   40.2520   28.1140   34.1370 H   0  0  0  0  0  0  0  0  0  0  0  0
   40.9400   26.5160   34.0650 H   0  0  0  0  0  0  0  0  0  0  0  0
   39.2940   25.7770   32.5530 H   0  0  0  0  0  0  0  0  0  0  0  0
   39.9100   27.3520   31.9990 H   0  0  0  0  0  0  0  0  0  0  0  0
   37.9650   28.4860   32.5480 H   0  0  0  0  0  0  0  0  0  0  0  0
   36.2220   27.8840   33.8450 H   0  0  0  0  0  0  0  0  0  0  0  0
   36.6010   26.1460   33.8520 H   0  0  0  0  0  0  0  0  0  0  0  0
   38.0540   28.5330   35.0820 H   0  0  0  0  0  0  0  0  0  0  0  0
   37.1710   27.4160   36.0630 H   0  0  0  0  0  0  0  0  0  0  0  0
   38.0950   24.9910   36.7370 C   0  0  0  0  0  0  0  0  0  0  0  0
   39.0910   25.4000   35.8190 C   0  0  0  0  0  0  0  0  0  0  0  0
   40.0130   24.4530   35.4180 C   0  0  0  0  0  0  0  0  0  0  0  0
   39.9210   23.1770   35.9220 N   0  0  0  0  0  0  0  0  0  0  0  0
   38.9530   22.8310   36.7960 C   0  0  0  0  0  0  0  0  0  0  0  0
   38.0320   23.7470   37.2070 N   0  0  0  0  0  0  0  0  0  0  0  0
   37.3380   25.6690   37.0990 H   0  0  0  0  0  0  0  0  0  0  0  0
   40.8170   24.6440   34.7230 H   0  0  0  0  0  0  0  0  0  0  0  0
   38.8730   21.8290   37.1990 H   0  0  0  0  0  0  0  0  0  0  0  0
   37.1780   26.7940   31.5370 C   0  0  1  0  0  3  0  0  0  0  0  0
   37.2470   25.2840   31.7070 C   0  0  0  0  0  3  0  0  0  0  0  0
   38.1660   24.8430   31.3050 H   0  0  0  0  0  0  0  0  0  0  0  0
   35.9940   24.8650   30.9780 C   0  0  0  0  0  3  0  0  0  0  0  0
   35.3800   24.1390   31.5520 H   0  0  0  0  0  0  0  0  0  0  0  0
   35.2490   25.9870   30.7380 O   0  0  0  0  0  0  0  0  0  0  0  0
   35.7060   27.0210   31.5430 C   0  0  0  0  0  3  0  0  0  0  0  0
   35.3960   27.9590   31.0230 H   0  0  0  0  0  0  0  0  0  0  0  0
  1 18  1  0  0  0  0
  1  7  1  1  0  0  0
  2  8  1  0  0  0  0
  2  1  1  0  0  0  0
  3  2  1  0  0  0  0
  4 12  1  6  0  0  0
  4  3  1  0  0  0  0
  4  5  1  0  0  0  0
  5  6  1  0  0  0  0
  6  1  1  0  0  0  0
  6 16  1  0  0  0  0
  9  2  1  0  0  0  0
 10  3  1  0  0  0  0
 11  3  1  0  0  0  0
 13  5  1  0  0  0  0
 14  5  1  0  0  0  0
 15  6  1  0  0  0  0
 17 23  1  0  0  0  0
 17 22  1  0  0  0  0
 18 17  2  0  0  0  0
 19 18  1  0  0  0  0
 19 20  2  0  0  0  0
 20 21  1  0  0  0  0
 21 25  1  0  0  0  0
 21 22  2  0  0  0  0
 24 19  1  0  0  0  0
 26 32  1  1  0  0  0
 26 27  1  0  0  0  0
 26  4  1  0  0  0  0
 28 27  1  0  0  0  0
 29 30  1  0  0  0  0
 29 27  1  0  0  0  0
 31 29  1  0  0  0  0
 31 32  1  0  0  0  0
 33 32  1  0  0  0  0
M  END
>  <minimizedAffinity>
-4.92885065

$$$$

 OpenBabel03272506523D

 33 35  0  0  1  0  0  0  0  0999 V2000
   39.3380   26.2390   35.5320 C   0  0  1  0  0  0  0  0  0  0  0  0
   39.9520   26.7020   34.2930 C   0  0  0  0  0  0  0  0  0  0  0  0
   39.0250   27.1260   33.1870 C   0  0  0  0  0  0  0  0  0  0  0  0
   37.8100   27.8520   33.6260 C   0  0  2  0  0  0  0  0  0  0  0  0
   37.1650   27.3910   34.8900 C   0  0  0  0  0  0  0  0  0  0  0  0
   38.1740   27.0940   35.9520 C   0  0  0  0  0  0  0  0  0  0  0  0
   40.0880   26.3950   36.3730 H   0  0  0  0  0  0  0  0  0  0  0  0
   40.4790   27.6780   34.5550 H   0  0  0  0  0  0  0  0  0  0  0  0
   40.7460   26.1050   33.8570 H   0  0  0  0  0  0  0  0  0  0  0  0
   38.7130   26.1860   32.6730 H   0  0  0  0  0  0  0  0  0  0  0  0
   39.5630   27.7340   32.4510 H   0  0  0  0  0  0  0  0  0  0  0  0
   38.0820   28.9210   33.7800 H   0  0  0  0  0  0  0  0  0  0  0  0
   36.5300   28.2150   35.2550 H   0  0  0  0  0  0  0  0  0  0  0  0
   36.4840   26.5360   34.6700 H   0  0  0  0  0  0  0  0  0  0  0  0
   38.6660   28.1110   36.1110 H   0  0  0  0  0  0  0  0  0  0  0  0
   37.7520   26.8910   36.9270 H   0  0  0  0  0  0  0  0  0  0  0  0
   38.1040   24.2750   36.5430 C   0  0  0  0  0  0  0  0  0  0  0  0
   39.0600   24.7860   35.6350 C   0  0  0  0  0  0  0  0  0  0  0  0
   39.7250   23.8780   34.8350 C   0  0  0  0  0  0  0  0  0  0  0  0
   39.4320   22.5410   34.9570 N   0  0  0  0  0  0  0  0  0  0  0  0
   38.5120   22.0980   35.8390 C   0  0  0  0  0  0  0  0  0  0  0  0
   37.8420   22.9730   36.6390 N   0  0  0  0  0  0  0  0  0  0  0  0
   37.5420   24.9170   37.2030 H   0  0  0  0  0  0  0  0  0  0  0  0
   40.4740   24.1460   34.1030 H   0  0  0  0  0  0  0  0  0  0  0  0
   38.2750   21.0460   35.9430 H   0  0  0  0  0  0  0  0  0  0  0  0
   36.7400   27.8110   32.5680 C   0  0  1  0  0  3  0  0  0  0  0  0
   37.2850   28.5940   31.3830 C   0  0  0  0  0  3  0  0  0  0  0  0
   37.1170   29.6750   31.4620 H   0  0  0  0  0  0  0  0  0  0  0  0
   36.5350   27.9390   30.2490 C   0  0  0  0  0  3  0  0  0  0  0  0
   37.1920   27.6630   29.3960 H   0  0  0  0  0  0  0  0  0  0  0  0
   35.9380   26.8080   30.7340 O   0  0  0  0  0  0  0  0  0  0  0  0
   36.5130   26.4730   31.9530 C   0  0  0  0  0  3  0  0  0  0  0  0
   35.7440   25.8620   32.4840 H   0  0  0  0  0  0  0  0  0  0  0  0
  1 18  1  0  0  0  0
  1  6  1  0  0  0  0
  1  7  1  1  0  0  0
  2  8  1  0  0  0  0
  2  1  1  0  0  0  0
  3  4  1  0  0  0  0
  3  2  1  0  0  0  0
  4 12  1  1  0  0  0
  4  5  1  0  0  0  0
  5 13  1  0  0  0  0
  5  6  1  0  0  0  0
  6 15  1  0  0  0  0
  6 16  1  0  0  0  0
  9  2  1  0  0  0  0
 10  3  1  0  0  0  0
 11  3  1  0  0  0  0
 14  5  1  0  0  0  0
 17 22  1  0  0  0  0
 17 23  1  0  0  0  0
 18 17  2  0  0  0  0
 19 20  2  0  0  0  0
 19 18  1  0  0  0  0
 20 21  1  0  0  0  0
 21 25  1  0  0  0  0
 21 22  2  0  0  0  0
 24 19  1  0  0  0  0
 26 27  1  6  0  0  0
 26  4  1  0  0  0  0
 27 28  1  0  0  0  0
 29 31  1  0  0  0  0
 29 27  1  0  0  0  0
 30 29  1  0  0  0  0
 31 32  1  0  0  0  0
 32 33  1  0  0  0  0
 32 26  1  0  0  0  0
M  END
>  <minimizedAffinity>
-4.71099567

$$$$

 OpenBabel03272506523D

 33 35  0  0  1  0  0  0  0  0999 V2000
   39.1970   25.9720   35.3010 C   0  0  1  0  0  0  0  0  0  0  0  0
   39.6710   26.2370   33.9470 C   0  0  0  0  0  0  0  0  0  0  0  0
   38.6870   26.8490   32.9870 C   0  0  0  0  0  0  0  0  0  0  0  0
   37.7820   27.8640   33.5740 C   0  0  2  0  0  0  0  0  0  0  0  0
   37.2850   27.6100   34.9570 C   0  0  0  0  0  0  0  0  0  0  0  0
   38.3680   27.0990   35.8520 C   0  0  0  0  0  0  0  0  0  0  0  0
   40.1020   25.9590   35.9900 H   0  0  0  0  0  0  0  0  0  0  0  0
   40.4550   27.0580   34.0480 H   0  0  0  0  0  0  0  0  0  0  0  0
   40.2060   25.4500   33.4260 H   0  0  0  0  0  0  0  0  0  0  0  0
   38.0720   26.0030   32.5990 H   0  0  0  0  0  0  0  0  0  0  0  0
   39.2130   27.2850   32.1300 H   0  0  0  0  0  0  0  0  0  0  0  0
   38.3260   28.8360   33.6060 H   0  0  0  0  0  0  0  0  0  0  0  0
   36.9430   28.5750   35.3670 H   0  0  0  0  0  0  0  0  0  0  0  0
   36.3900   26.9450   34.9150 H   0  0  0  0  0  0  0  0  0  0  0  0
   39.1100   27.9660   35.8550 H   0  0  0  0  0  0  0  0  0  0  0  0
   38.0930   27.0320   36.8950 H   0  0  0  0  0  0  0  0  0  0  0  0
   38.6710   23.6020   34.5870 C   0  0  0  0  0  0  0  0  0  0  0  0
   38.6030   24.6370   35.5490 C   0  0  0  0  0  0  0  0  0  0  0  0
   37.9640   24.3550   36.7410 C   0  0  0  0  0  0  0  0  0  0  0  0
   37.4330   23.1020   36.9330 N   0  0  0  0  0  0  0  0  0  0  0  0
   37.5210   22.1450   35.9870 C   0  0  0  0  0  0  0  0  0  0  0  0
   38.1460   22.3980   34.8030 N   0  0  0  0  0  0  0  0  0  0  0  0
   39.1520   23.7410   33.6320 H   0  0  0  0  0  0  0  0  0  0  0  0
   37.8500   25.0600   37.5510 H   0  0  0  0  0  0  0  0  0  0  0  0
   37.1050   21.1550   36.1290 H   0  0  0  0  0  0  0  0  0  0  0  0
   36.5610   28.0640   32.7170 C   0  0  1  0  0  3  0  0  0  0  0  0
   35.6250   28.9620   33.5110 C   0  0  0  0  0  3  0  0  0  0  0  0
   34.9940   28.4130   34.2210 H   0  0  0  0  0  0  0  0  0  0  0  0
   34.8570   29.6220   32.3920 C   0  0  0  0  0  3  0  0  0  0  0  0
   34.7820   30.7240   32.5070 H   0  0  0  0  0  0  0  0  0  0  0  0
   35.4970   29.3400   31.2160 O   0  0  0  0  0  0  0  0  0  0  0  0
   36.7780   28.8810   31.4900 C   0  0  0  0  0  3  0  0  0  0  0  0
   37.0730   28.2790   30.5980 H   0  0  0  0  0  0  0  0  0  0  0  0
  1 18  1  0  0  0  0
  1  6  1  0  0  0  0
  1  7  1  1  0  0  0
  2  8  1  0  0  0  0
  2  1  1  0  0  0  0
  3  4  1  0  0  0  0
  3  2  1  0  0  0  0
  4 12  1  1  0  0  0
  4  5  1  0  0  0  0
  5 13  1  0  0  0  0
  5  6  1  0  0  0  0
  6 15  1  0  0  0  0
  6 16  1  0  0  0  0
  9  2  1  0  0  0  0
 10  3  1  0  0  0  0
 11  3  1  0  0  0  0
 14  5  1  0  0  0  0
 17 22  2  0  0  0  0
 17 18  1  0  0  0  0
 18 19  2  0  0  0  0
 19 20  1  0  0  0  0
 19 24  1  0  0  0  0
 21 25  1  0  0  0  0
 21 20  2  0  0  0  0
 22 21  1  0  0  0  0
 23 17  1  0  0  0  0
 26 32  1  6  0  0  0
 26 27  1  0  0  0  0
 26  4  1  0  0  0  0
 27 28  1  0  0  0  0
 29 30  1  0  0  0  0
 29 27  1  0  0  0  0
 31 32  1  0  0  0  0
 31 29  1  0  0  0  0
 33 32  1  0  0  0  0
M  END
>  <minimizedAffinity>
-4.66467237

$$$$

 OpenBabel03272506523D

 33 35  0  0  1  0  0  0  0  0999 V2000
   38.7330   22.8450   36.1630 C   0  0  1  0  0  0  0  0  0  0  0  0
   39.8510   23.3380   35.3650 C   0  0  0  0  0  0  0  0  0  0  0  0
   39.7100   24.7110   34.7670 C   0  0  0  0  0  0  0  0  0  0  0  0
   39.0320   25.7080   35.6290 C   0  0  2  0  0  0  0  0  0  0  0  0
   37.8840   25.2240   36.4510 C   0  0  0  0  0  0  0  0  0  0  0  0
   38.1710   23.8980   37.0790 C   0  0  0  0  0  0  0  0  0  0  0  0
   39.1380   22.0660   36.8860 H   0  0  0  0  0  0  0  0  0  0  0  0
   40.7140   23.4780   36.0950 H   0  0  0  0  0  0  0  0  0  0  0  0
   40.2720   22.6830   34.6110 H   0  0  0  0  0  0  0  0  0  0  0  0
   39.1120   24.5790   33.8350 H   0  0  0  0  0  0  0  0  0  0  0  0
   40.6910   25.0980   34.4700 H   0  0  0  0  0  0  0  0  0  0  0  0
   39.7830   26.1170   36.3430 H   0  0  0  0  0  0  0  0  0  0  0  0
   37.7330   25.9520   37.2650 H   0  0  0  0  0  0  0  0  0  0  0  0
   36.9550   25.2340   35.8350 H   0  0  0  0  0  0  0  0  0  0  0  0
   39.0630   24.1350   37.7500 H   0  0  0  0  0  0  0  0  0  0  0  0
   37.4280   23.5710   37.7930 H   0  0  0  0  0  0  0  0  0  0  0  0
   36.5720   21.5300   36.1170 C   0  0  0  0  0  0  0  0  0  0  0  0
   37.6870   22.0820   35.4430 C   0  0  0  0  0  0  0  0  0  0  0  0
   37.7620   21.8890   34.0770 C   0  0  0  0  0  0  0  0  0  0  0  0
   36.7660   21.1810   33.4480 N   0  0  0  0  0  0  0  0  0  0  0  0
   35.7210   20.6720   34.1320 C   0  0  0  0  0  0  0  0  0  0  0  0
   35.6230   20.8480   35.4790 N   0  0  0  0  0  0  0  0  0  0  0  0
   36.4390   21.6360   37.1830 H   0  0  0  0  0  0  0  0  0  0  0  0
   38.5610   22.2620   33.4540 H   0  0  0  0  0  0  0  0  0  0  0  0
   34.9310   20.1120   33.6440 H   0  0  0  0  0  0  0  0  0  0  0  0
   38.5120   26.8630   34.8170 C   0  0  1  0  0  3  0  0  0  0  0  0
   38.7070   26.4800   33.3580 C   0  0  0  0  0  3  0  0  0  0  0  0
   39.7100   26.7100   32.9790 H   0  0  0  0  0  0  0  0  0  0  0  0
   37.6070   27.2840   32.7100 C   0  0  0  0  0  3  0  0  0  0  0  0
   36.9980   26.6910   31.9940 H   0  0  0  0  0  0  0  0  0  0  0  0
   36.7910   27.7610   33.6990 O   0  0  0  0  0  0  0  0  0  0  0  0
   37.0350   27.0580   34.8720 C   0  0  0  0  0  3  0  0  0  0  0  0
   36.7040   27.7350   35.6960 H   0  0  0  0  0  0  0  0  0  0  0  0
  1  7  1  1  0  0  0
  1  6  1  0  0  0  0
  2  8  1  0  0  0  0
  2  1  1  0  0  0  0
  3  2  1  0  0  0  0
  3  4  1  0  0  0  0
  4 12  1  1  0  0  0
  4  5  1  0  0  0  0
  5  6  1  0  0  0  0
  5 13  1  0  0  0  0
  6 15  1  0  0  0  0
  6 16  1  0  0  0  0
  9  2  1  0  0  0  0
 10  3  1  0  0  0  0
 11  3  1  0  0  0  0
 14  5  1  0  0  0  0
 17 23  1  0  0  0  0
 18 17  2  0  0  0  0
 18  1  1  0  0  0  0
 19 18  1  0  0  0  0
 20 19  2  0  0  0  0
 20 21  1  0  0  0  0
 21 22  2  0  0  0  0
 22 17  1  0  0  0  0
 24 19  1  0  0  0  0
 25 21  1  0  0  0  0
 26 27  1  6  0  0  0
 26 32  1  0  0  0  0
 26  4  1  0  0  0  0
 28 27  1  0  0  0  0
 29 27  1  0  0  0  0
 29 31  1  0  0  0  0
 30 29  1  0  0  0  0
 31 32  1  0  0  0  0
 32 33  1  0  0  0  0
M  END
>  <minimizedAffinity>
-4.64627886

$$$$

 OpenBabel03272506523D

 33 35  0  0  1  0  0  0  0  0999 V2000
   37.3160   24.7520   31.5760 C   0  0  1  0  0  0  0  0  0  0  0  0
   38.0870   23.5620   31.2330 C   0  0  0  0  0  0  0  0  0  0  0  0
   37.4280   22.2300   31.4650 C   0  0  0  0  0  0  0  0  0  0  0  0
   35.9790   22.1820   31.1580 C   0  0  2  0  0  0  0  0  0  0  0  0
   35.1720   23.3880   31.5050 C   0  0  0  0  0  0  0  0  0  0  0  0
   35.8800   24.6520   31.1400 C   0  0  0  0  0  0  0  0  0  0  0  0
   37.7140   25.6170   30.9540 H   0  0  0  0  0  0  0  0  0  0  0  0
   38.2000   23.5830   30.0990 H   0  0  0  0  0  0  0  0  0  0  0  0
   39.1120   23.4960   31.5790 H   0  0  0  0  0  0  0  0  0  0  0  0
   37.5710   22.0020   32.5470 H   0  0  0  0  0  0  0  0  0  0  0  0
   37.9440   21.4470   30.8980 H   0  0  0  0  0  0  0  0  0  0  0  0
   35.8620   22.0260   30.0620 H   0  0  0  0  0  0  0  0  0  0  0  0
   34.2430   23.3430   30.9130 H   0  0  0  0  0  0  0  0  0  0  0  0
   34.8710   23.3380   32.5780 H   0  0  0  0  0  0  0  0  0  0  0  0
   35.9780   24.5580   30.0070 H   0  0  0  0  0  0  0  0  0  0  0  0
   35.2800   25.5470   31.2430 H   0  0  0  0  0  0  0  0  0  0  0  0
   38.1110   24.5150   33.9670 C   0  0  0  0  0  0  0  0  0  0  0  0
   37.4700   25.2700   32.9570 C   0  0  0  0  0  0  0  0  0  0  0  0
   36.9950   26.5200   33.3020 C   0  0  0  0  0  0  0  0  0  0  0  0
   37.1660   26.9640   34.5920 N   0  0  0  0  0  0  0  0  0  0  0  0
   37.7830   26.2100   35.5240 C   0  0  0  0  0  0  0  0  0  0  0  0
   38.2600   24.9740   35.2080 N   0  0  0  0  0  0  0  0  0  0  0  0
   38.5090   23.5300   33.7780 H   0  0  0  0  0  0  0  0  0  0  0  0
   36.4910   27.1890   32.6210 H   0  0  0  0  0  0  0  0  0  0  0  0
   37.9220   26.5520   36.5420 H   0  0  0  0  0  0  0  0  0  0  0  0
   35.3170   21.0190   31.8480 C   0  0  1  0  0  3  0  0  0  0  0  0
   35.9010   19.7630   31.2190 C   0  0  0  0  0  3  0  0  0  0  0  0
   35.3910   19.4610   30.2960 H   0  0  0  0  0  0  0  0  0  0  0  0
   35.7410   18.7830   32.3560 C   0  0  0  0  0  3  0  0  0  0  0  0
   36.6620   18.1950   32.5560 H   0  0  0  0  0  0  0  0  0  0  0  0
   35.4120   19.4900   33.4810 O   0  0  0  0  0  0  0  0  0  0  0  0
   35.6970   20.8330   33.2760 C   0  0  0  0  0  3  0  0  0  0  0  0
   35.0380   21.3860   33.9890 H   0  0  0  0  0  0  0  0  0  0  0  0
  1  7  1  6  0  0  0
  1 18  1  0  0  0  0
  2  3  1  0  0  0  0
  2  1  1  0  0  0  0
  2  9  1  0  0  0  0
  3 10  1  0  0  0  0
  4 12  1  6  0  0  0
  4  3  1  0  0  0  0
  4  5  1  0  0  0  0
  4 26  1  0  0  0  0
  5 14  1  0  0  0  0
  6 16  1  0  0  0  0
  6  5  1  0  0  0  0
  6  1  1  0  0  0  0
  8  2  1  0  0  0  0
 11  3  1  0  0  0  0
 13  5  1  0  0  0  0
 15  6  1  0  0  0  0
 17 22  1  0  0  0  0
 18 19  1  0  0  0  0
 18 17  2  0  0  0  0
 19 20  2  0  0  0  0
 20 21  1  0  0  0  0
 21 25  1  0  0  0  0
 22 21  2  0  0  0  0
 23 17  1  0  0  0  0
 24 19  1  0  0  0  0
 26 27  1  6  0  0  0
 26 32  1  0  0  0  0
 27 29  1  0  0  0  0
 28 27  1  0  0  0  0
 29 30  1  0  0  0  0
 29 31  1  0  0  0  0
 32 31  1  0  0  0  0
 32 33  1  0  0  0  0
M  END
>  <minimizedAffinity>
-4.55515528

$$$$

 OpenBabel03272506523D

 33 35  0  0  1  0  0  0  0  0999 V2000
   39.1980   27.1010   34.8080 C   0  0  1  0  0  0  0  0  0  0  0  0
   38.4080   26.8990   36.0180 C   0  0  0  0  0  0  0  0  0  0  0  0
   38.1090   25.4770   36.4090 C   0  0  0  0  0  0  0  0  0  0  0  0
   39.2120   24.5150   36.1780 C   0  0  2  0  0  0  0  0  0  0  0  0
   40.0290   24.7030   34.9440 C   0  0  0  0  0  0  0  0  0  0  0  0
   40.3530   26.1430   34.7080 C   0  0  0  0  0  0  0  0  0  0  0  0
   39.7100   28.1130   34.8920 H   0  0  0  0  0  0  0  0  0  0  0  0
   39.0650   27.2540   36.8790 H   0  0  0  0  0  0  0  0  0  0  0  0
   37.5030   27.4810   36.1450 H   0  0  0  0  0  0  0  0  0  0  0  0
   37.2320   25.1690   35.7930 H   0  0  0  0  0  0  0  0  0  0  0  0
   37.8000   25.4280   37.4590 H   0  0  0  0  0  0  0  0  0  0  0  0
   39.9160   24.5820   37.0390 H   0  0  0  0  0  0  0  0  0  0  0  0
   40.9810   24.1690   35.0960 H   0  0  0  0  0  0  0  0  0  0  0  0
   39.5200   24.2120   34.0820 H   0  0  0  0  0  0  0  0  0  0  0  0
   40.9680   26.4090   35.6300 H   0  0  0  0  0  0  0  0  0  0  0  0
   41.0570   26.3180   33.9060 H   0  0  0  0  0  0  0  0  0  0  0  0
   37.0460   27.4430   33.5220 C   0  0  0  0  0  0  0  0  0  0  0  0
   38.4460   27.2420   33.5390 C   0  0  0  0  0  0  0  0  0  0  0  0
   39.0950   27.1880   32.3200 C   0  0  0  0  0  0  0  0  0  0  0  0
   38.3600   27.3300   31.1670 N   0  0  0  0  0  0  0  0  0  0  0  0
   37.0250   27.5200   31.1990 C   0  0  0  0  0  0  0  0  0  0  0  0
   36.3630   27.5770   32.3870 N   0  0  0  0  0  0  0  0  0  0  0  0
   36.4650   27.4970   34.4300 H   0  0  0  0  0  0  0  0  0  0  0  0
   40.1580   27.0410   32.2040 H   0  0  0  0  0  0  0  0  0  0  0  0
   36.4380   27.6330   30.2950 H   0  0  0  0  0  0  0  0  0  0  0  0
   38.6980   23.1010   36.1320 C   0  0  1  0  0  3  0  0  0  0  0  0
   37.4640   23.0670   37.0200 C   0  0  0  0  0  3  0  0  0  0  0  0
   37.6960   22.9110   38.0810 H   0  0  0  0  0  0  0  0  0  0  0  0
   36.6960   21.9330   36.3870 C   0  0  0  0  0  3  0  0  0  0  0  0
   35.6270   22.1780   36.2090 H   0  0  0  0  0  0  0  0  0  0  0  0
   37.2900   21.6350   35.1910 O   0  0  0  0  0  0  0  0  0  0  0  0
   38.1240   22.6810   34.8220 C   0  0  0  0  0  3  0  0  0  0  0  0
   38.8750   22.2300   34.1290 H   0  0  0  0  0  0  0  0  0  0  0  0
  1  7  1  1  0  0  0
  1  2  1  0  0  0  0
  2  9  1  0  0  0  0
  2  3  1  0  0  0  0
  2  8  1  0  0  0  0
  3 11  1  0  0  0  0
  4  3  1  0  0  0  0
  4 12  1  1  0  0  0
  5 13  1  0  0  0  0
  5  4  1  0  0  0  0
  6  1  1  0  0  0  0
  6  5  1  0  0  0  0
  6 15  1  0  0  0  0
 10  3  1  0  0  0  0
 14  5  1  0  0  0  0
 16  6  1  0  0  0  0
 17 18  1  0  0  0  0
 17 23  1  0  0  0  0
 18  1  1  0  0  0  0
 19 18  2  0  0  0  0
 20 21  2  0  0  0  0
 20 19  1  0  0  0  0
 21 22  1  0  0  0  0
 22 17  2  0  0  0  0
 24 19  1  0  0  0  0
 25 21  1  0  0  0  0
 26 32  1  6  0  0  0
 26  4  1  0  0  0  0
 26 27  1  0  0  0  0
 27 28  1  0  0  0  0
 29 27  1  0  0  0  0
 30 29  1  0  0  0  0
 31 29  1  0  0  0  0
 32 31  1  0  0  0  0
 33 32  1  0  0  0  0
M  END
>  <minimizedAffinity>
-4.55096722

$$$$

 OpenBabel03272506523D

 33 35  0  0  1  0  0  0  0  0999 V2000
   38.2970   27.1920   34.2260 C   0  0  1  0  0  0  0  0  0  0  0  0
   37.9210   26.7790   35.5740 C   0  0  0  0  0  0  0  0  0  0  0  0
   38.3920   25.4260   36.0310 C   0  0  0  0  0  0  0  0  0  0  0  0
   39.7560   25.0510   35.5890 C   0  0  2  0  0  0  0  0  0  0  0  0
   40.1590   25.4610   34.2120 C   0  0  0  0  0  0  0  0  0  0  0  0
   39.7270   26.8580   33.9010 C   0  0  0  0  0  0  0  0  0  0  0  0
   38.2850   28.3290   34.1940 H   0  0  0  0  0  0  0  0  0  0  0  0
   38.4770   27.4810   36.2790 H   0  0  0  0  0  0  0  0  0  0  0  0
   36.8860   26.8960   35.8780 H   0  0  0  0  0  0  0  0  0  0  0  0
   37.6660   24.6910   35.6100 H   0  0  0  0  0  0  0  0  0  0  0  0
   38.3320   25.3500   37.1220 H   0  0  0  0  0  0  0  0  0  0  0  0
   40.4870   25.5190   36.2870 H   0  0  0  0  0  0  0  0  0  0  0  0
   41.2600   25.4360   34.1710 H   0  0  0  0  0  0  0  0  0  0  0  0
   39.7940   24.7070   33.4770 H   0  0  0  0  0  0  0  0  0  0  0  0
   40.3000   27.4680   34.6760 H   0  0  0  0  0  0  0  0  0  0  0  0
   40.1150   27.2500   32.9700 H   0  0  0  0  0  0  0  0  0  0  0  0
   37.0470   25.5000   32.8210 C   0  0  0  0  0  0  0  0  0  0  0  0
   37.3550   26.8440   33.1360 C   0  0  0  0  0  0  0  0  0  0  0  0
   36.7380   27.8290   32.3910 C   0  0  0  0  0  0  0  0  0  0  0  0
   35.8660   27.4620   31.3930 N   0  0  0  0  0  0  0  0  0  0  0  0
   35.6010   26.1670   31.1270 C   0  0  0  0  0  0  0  0  0  0  0  0
   36.1970   25.1770   31.8480 N   0  0  0  0  0  0  0  0  0  0  0  0
   37.4860   24.6720   33.3550 H   0  0  0  0  0  0  0  0  0  0  0  0
   36.8910   28.8880   32.5370 H   0  0  0  0  0  0  0  0  0  0  0  0
   34.9160   25.8690   30.3430 H   0  0  0  0  0  0  0  0  0  0  0  0
   39.9600   23.5610   35.6610 C   0  0  1  0  0  3  0  0  0  0  0  0
   41.4620   23.3330   35.5960 C   0  0  0  0  0  3  0  0  0  0  0  0
   41.8530   23.3020   34.5720 H   0  0  0  0  0  0  0  0  0  0  0  0
   41.5780   22.0240   36.3360 C   0  0  0  0  0  3  0  0  0  0  0  0
   42.3790   22.0280   37.1060 H   0  0  0  0  0  0  0  0  0  0  0  0
   40.3780   21.7740   36.9440 O   0  0  0  0  0  0  0  0  0  0  0  0
   39.6290   22.9430   36.9760 C   0  0  0  0  0  3  0  0  0  0  0  0
   38.5660   22.6100   37.0580 H   0  0  0  0  0  0  0  0  0  0  0  0
  1  7  1  1  0  0  0
  1  2  1  0  0  0  0
  2  9  1  0  0  0  0
  2  3  1  0  0  0  0
  2  8  1  0  0  0  0
  3 11  1  0  0  0  0
  4 26  1  0  0  0  0
  4  3  1  0  0  0  0
  4 12  1  1  0  0  0
  5  4  1  0  0  0  0
  6  5  1  0  0  0  0
  6  1  1  0  0  0  0
  6 15  1  0  0  0  0
 10  3  1  0  0  0  0
 13  5  1  0  0  0  0
 14  5  1  0  0  0  0
 16  6  1  0  0  0  0
 17 18  1  0  0  0  0
 17 23  1  0  0  0  0
 18  1  1  0  0  0  0
 19 24  1  0  0  0  0
 19 18  2  0  0  0  0
 20 19  1  0  0  0  0
 21 20  2  0  0  0  0
 21 22  1  0  0  0  0
 22 17  2  0  0  0  0
 25 21  1  0  0  0  0
 26 27  1  1  0  0  0
 26 32  1  0  0  0  0
 27 29  1  0  0  0  0
 28 27  1  0  0  0  0
 29 31  1  0  0  0  0
 29 30  1  0  0  0  0
 31 32  1  0  0  0  0
 32 33  1  0  0  0  0
M  END
>  <minimizedAffinity>
-4.54186058

$$$$

 OpenBabel03272506523D

 33 35  0  0  1  0  0  0  0  0999 V2000
   38.0040   26.7340   33.2490 C   0  0  1  0  0  0  0  0  0  0  0  0
   37.6850   25.3110   33.2780 C   0  0  0  0  0  0  0  0  0  0  0  0
   38.0940   24.5430   34.5050 C   0  0  0  0  0  0  0  0  0  0  0  0
   37.9420   25.2740   35.7850 C   0  0  2  0  0  0  0  0  0  0  0  0
   38.2670   26.7300   35.7770 C   0  0  0  0  0  0  0  0  0  0  0  0
   37.7260   27.4130   34.5620 C   0  0  0  0  0  0  0  0  0  0  0  0
   37.2740   27.2400   32.5390 H   0  0  0  0  0  0  0  0  0  0  0  0
   36.5480   25.2490   33.3210 H   0  0  0  0  0  0  0  0  0  0  0  0
   37.9290   24.7110   32.4080 H   0  0  0  0  0  0  0  0  0  0  0  0
   39.1710   24.2920   34.3640 H   0  0  0  0  0  0  0  0  0  0  0  0
   37.5460   23.5960   34.5620 H   0  0  0  0  0  0  0  0  0  0  0  0
   36.8800   25.1880   36.1100 H   0  0  0  0  0  0  0  0  0  0  0  0
   37.7790   27.1810   36.6570 H   0  0  0  0  0  0  0  0  0  0  0  0
   39.3650   26.8670   35.9150 H   0  0  0  0  0  0  0  0  0  0  0  0
   36.6020   27.2620   34.6780 H   0  0  0  0  0  0  0  0  0  0  0  0
   37.8150   28.4910   34.5770 H   0  0  0  0  0  0  0  0  0  0  0  0
   40.4820   27.2030   33.4560 C   0  0  0  0  0  0  0  0  0  0  0  0
   39.3130   27.1100   32.6640 C   0  0  0  0  0  0  0  0  0  0  0  0
   39.4370   27.3790   31.3150 C   0  0  0  0  0  0  0  0  0  0  0  0
   40.6710   27.7180   30.8130 N   0  0  0  0  0  0  0  0  0  0  0  0
   41.7600   27.7940   31.6060 C   0  0  0  0  0  0  0  0  0  0  0  0
   41.6640   27.5340   32.9390 N   0  0  0  0  0  0  0  0  0  0  0  0
   40.4700   27.0090   34.5170 H   0  0  0  0  0  0  0  0  0  0  0  0
   38.6200   27.3400   30.6100 H   0  0  0  0  0  0  0  0  0  0  0  0
   42.7360   28.0600   31.2190 H   0  0  0  0  0  0  0  0  0  0  0  0
   38.7910   24.6590   36.8660 C   0  0  1  0  0  3  0  0  0  0  0  0
   37.8710   24.4440   38.0590 C   0  0  0  0  0  3  0  0  0  0  0  0
   37.7680   25.3320   38.6930 H   0  0  0  0  0  0  0  0  0  0  0  0
   38.5600   23.2840   38.7350 C   0  0  0  0  0  3  0  0  0  0  0  0
   37.8610   22.4670   39.0140 H   0  0  0  0  0  0  0  0  0  0  0  0
   39.5000   22.7890   37.8730 O   0  0  0  0  0  0  0  0  0  0  0  0
   39.2450   23.2660   36.5940 C   0  0  0  0  0  3  0  0  0  0  0  0
   40.2240   23.2120   36.0580 H   0  0  0  0  0  0  0  0  0  0  0  0
  1  7  1  6  0  0  0
  1  2  1  0  0  0  0
  1  6  1  0  0  0  0
  2  8  1  0  0  0  0
  2  3  1  0  0  0  0
  3 11  1  0  0  0  0
  3  4  1  0  0  0  0
  4 12  1  1  0  0  0
  4 26  1  0  0  0  0
  5  4  1  0  0  0  0
  5 14  1  0  0  0  0
  5 13  1  0  0  0  0
  6 16  1  0  0  0  0
  6 15  1  0  0  0  0
  6  5  1  0  0  0  0
  9  2  1  0  0  0  0
 10  3  1  0  0  0  0
 17 23  1  0  0  0  0
 18  1  1  0  0  0  0
 18 17  2  0  0  0  0
 19 18  1  0  0  0  0
 20 19  2  0  0  0  0
 20 21  1  0  0  0  0
 21 22  2  0  0  0  0
 22 17  1  0  0  0  0
 24 19  1  0  0  0  0
 25 21  1  0  0  0  0
 26 32  1  6  0  0  0
 26 27  1  0  0  0  0
 27 28  1  0  0  0  0
 27 29  1  0  0  0  0
 29 30  1  0  0  0  0
 31 29  1  0  0  0  0
 32 31  1  0  0  0  0
 33 32  1  0  0  0  0
M  END
>  <minimizedAffinity>
-4.51231098

$$$$

 OpenBabel03272506523D

 33 35  0  0  1  0  0  0  0  0999 V2000
   37.3360   27.5620   32.4590 C   0  0  1  0  0  0  0  0  0  0  0  0
   37.0950   28.7200   31.6060 C   0  0  0  0  0  0  0  0  0  0  0  0
   35.9040   29.5770   31.9370 C   0  0  0  0  0  0  0  0  0  0  0  0
   35.6460   29.7650   33.3840 C   0  0  2  0  0  0  0  0  0  0  0  0
   35.8830   28.5910   34.2730 C   0  0  0  0  0  0  0  0  0  0  0  0
   37.1450   27.8730   33.9190 C   0  0  0  0  0  0  0  0  0  0  0  0
   38.4420   27.3050   32.3940 H   0  0  0  0  0  0  0  0  0  0  0  0
   37.9650   29.4310   31.7950 H   0  0  0  0  0  0  0  0  0  0  0  0
   37.1220   28.5810   30.5310 H   0  0  0  0  0  0  0  0  0  0  0  0
   35.0230   29.0660   31.4810 H   0  0  0  0  0  0  0  0  0  0  0  0
   35.9940   30.5570   31.4550 H   0  0  0  0  0  0  0  0  0  0  0  0
   36.3090   30.5810   33.7510 H   0  0  0  0  0  0  0  0  0  0  0  0
   35.9970   28.9740   35.3010 H   0  0  0  0  0  0  0  0  0  0  0  0
   34.9810   27.9360   34.2740 H   0  0  0  0  0  0  0  0  0  0  0  0
   37.9390   28.6710   34.1010 H   0  0  0  0  0  0  0  0  0  0  0  0
   37.4330   27.1000   34.6190 H   0  0  0  0  0  0  0  0  0  0  0  0
   35.5950   26.2590   31.1660 C   0  0  0  0  0  0  0  0  0  0  0  0
   36.7000   26.2880   32.0480 C   0  0  0  0  0  0  0  0  0  0  0  0
   37.1760   25.0760   32.5100 C   0  0  0  0  0  0  0  0  0  0  0  0
   36.5610   23.9170   32.0970 N   0  0  0  0  0  0  0  0  0  0  0  0
   35.5080   23.9380   31.2540 C   0  0  0  0  0  0  0  0  0  0  0  0
   35.0210   25.1200   30.7850 N   0  0  0  0  0  0  0  0  0  0  0  0
   35.1640   27.1610   30.7600 H   0  0  0  0  0  0  0  0  0  0  0  0
   38.0130   24.9680   33.1840 H   0  0  0  0  0  0  0  0  0  0  0  0
   35.0180   23.0300   30.9240 H   0  0  0  0  0  0  0  0  0  0  0  0
   34.2260   30.2000   33.6300 C   0  0  1  0  0  3  0  0  0  0  0  0
   33.3740   29.4780   32.5970 C   0  0  0  0  0  3  0  0  0  0  0  0
   33.3300   29.9970   31.6320 H   0  0  0  0  0  0  0  0  0  0  0  0
   32.0520   29.4150   33.3210 C   0  0  0  0  0  3  0  0  0  0  0  0
   31.5890   28.4060   33.2930 H   0  0  0  0  0  0  0  0  0  0  0  0
   32.2660   29.7700   34.6250 O   0  0  0  0  0  0  0  0  0  0  0  0
   33.6250   29.7030   34.9000 C   0  0  0  0  0  3  0  0  0  0  0  0
   33.7850   30.3880   35.7680 H   0  0  0  0  0  0  0  0  0  0  0  0
  1  7  1  6  0  0  0
  1  6  1  0  0  0  0
  2  8  1  0  0  0  0
  2  3  1  0  0  0  0
  2  1  1  0  0  0  0
  3  4  1  0  0  0  0
  4 26  1  0  0  0  0
  4 12  1  1  0  0  0
  4  5  1  0  0  0  0
  5 14  1  0  0  0  0
  5 13  1  0  0  0  0
  6 15  1  0  0  0  0
  6  5  1  0  0  0  0
  6 16  1  0  0  0  0
  9  2  1  0  0  0  0
 10  3  1  0  0  0  0
 11  3  1  0  0  0  0
 17 18  1  0  0  0  0
 18  1  1  0  0  0  0
 18 19  2  0  0  0  0
 19 24  1  0  0  0  0
 20 19  1  0  0  0  0
 21 20  2  0  0  0  0
 22 17  2  0  0  0  0
 22 21  1  0  0  0  0
 23 17  1  0  0  0  0
 25 21  1  0  0  0  0
 26 27  1  6  0  0  0
 26 32  1  0  0  0  0
 27 29  1  0  0  0  0
 28 27  1  0  0  0  0
 29 31  1  0  0  0  0
 30 29  1  0  0  0  0
 31 32  1  0  0  0  0
 32 33  1  0  0  0  0
M  END
>  <minimizedAffinity>
-4.50039244

$$$$
