
 OpenBabel03272505443D

 23 24  0  0  1  0  0  0  0  0999 V2000
   39.8550   27.2820   33.8210 O   0  0  0  0  0  0  0  0  0  0  0  0
   38.7390   26.7850   34.7350 P   0  0  2  0  0  0  0  0  0  0  0  0
   38.9220   27.5790   36.2040 O   0  0  0  0  0  0  0  0  0  0  0  0
   38.4430   28.4370   36.2340 H   0  0  0  0  0  0  0  0  0  0  0  0
   38.8940   25.0960   34.8840 O   0  0  0  0  0  0  0  0  0  0  0  0
   39.7540   22.8790   37.6630 C   0  0  0  0  0  0  0  0  0  0  0  0
   38.7970   23.3080   38.6150 C   0  0  0  0  0  0  0  0  0  0  0  0
   37.9220   24.3310   38.2370 C   0  0  0  0  0  0  0  0  0  0  0  0
   38.0290   24.8620   36.9800 N   0  0  0  0  0  0  0  0  0  0  0  0
   38.9520   24.4300   36.0970 C   0  0  0  0  0  0  0  0  0  0  0  0
   39.8160   23.4370   36.4380 N   0  0  0  0  0  0  0  0  0  0  0  0
   40.4460   22.0960   37.9110 H   0  0  0  0  0  0  0  0  0  0  0  0
   38.7880   22.8270   39.5890 H   0  0  0  0  0  0  0  0  0  0  0  0
   37.1880   24.6670   38.9550 H   0  0  0  0  0  0  0  0  0  0  0  0
   37.2950   27.2690   34.0340 O   0  0  0  0  0  0  0  0  0  0  0  0
   37.2870   27.1290   32.6540 C   0  0  1  0  0  3  0  0  0  0  0  0
   36.6680   25.8360   32.2040 C   0  0  0  0  0  3  0  0  0  0  0  0
   37.4210   25.1320   31.7950 H   0  0  0  0  0  0  0  0  0  0  0  0
   35.7420   26.2850   31.0840 C   0  0  0  0  0  3  0  0  0  0  0  0
   34.7030   26.2610   31.4490 H   0  0  0  0  0  0  0  0  0  0  0  0
   36.0720   27.6160   30.8270 O   0  0  0  0  0  0  0  0  0  0  0  0
   36.2990   28.1400   32.1070 C   0  0  0  0  0  3  0  0  0  0  0  0
   36.7880   29.1320   32.0650 H   0  0  0  0  0  0  0  0  0  0  0  0
  2  1  2  6  0  0  0
  2  5  1  0  0  0  0
  2  3  1  0  0  0  0
  3  4  1  0  0  0  0
  5 10  1  0  0  0  0
  6 12  1  0  0  0  0
  6  7  1  0  0  0  0
  7 13  1  0  0  0  0
  8  7  2  0  0  0  0
  8 14  1  0  0  0  0
  9  8  1  0  0  0  0
 10 11  1  0  0  0  0
 10  9  2  0  0  0  0
 11  6  2  0  0  0  0
 15  2  1  0  0  0  0
 16 15  1  1  0  0  0
 17 16  1  0  0  0  0
 18 17  1  0  0  0  0
 19 20  1  0  0  0  0
 19 17  1  0  0  0  0
 21 19  1  0  0  0  0
 21 22  1  0  0  0  0
 22 16  1  0  0  0  0
 23 22  1  0  0  0  0
M  END
>  <minimizedAffinity>
-4.50087738

$$$$

 OpenBabel03272505443D

 23 24  0  0  1  0  0  0  0  0999 V2000
   37.0790   27.2640   34.4970 O   0  0  0  0  0  0  0  0  0  0  0  0
   38.0750   26.1120   34.5900 P   0  0  2  0  0  0  0  0  0  0  0  0
   39.5330   26.7700   35.1000 O   0  0  0  0  0  0  0  0  0  0  0  0
   39.6140   26.8010   36.0800 H   0  0  0  0  0  0  0  0  0  0  0  0
   38.1880   25.3880   33.0530 O   0  0  0  0  0  0  0  0  0  0  0  0
   36.6830   22.0880   32.5820 C   0  0  0  0  0  0  0  0  0  0  0  0
   35.6900   22.4140   31.6240 C   0  0  0  0  0  0  0  0  0  0  0  0
   35.6070   23.7460   31.2060 C   0  0  0  0  0  0  0  0  0  0  0  0
   36.4760   24.6600   31.7350 N   0  0  0  0  0  0  0  0  0  0  0  0
   37.4100   24.3170   32.6450 C   0  0  0  0  0  0  0  0  0  0  0  0
   37.5140   23.0300   33.0690 N   0  0  0  0  0  0  0  0  0  0  0  0
   36.7820   21.0770   32.9300 H   0  0  0  0  0  0  0  0  0  0  0  0
   35.0440   21.6180   31.2610 H   0  0  0  0  0  0  0  0  0  0  0  0
   34.8530   24.0050   30.4760 H   0  0  0  0  0  0  0  0  0  0  0  0
   37.5010   25.0780   35.7800 O   0  0  0  0  0  0  0  0  0  0  0  0
   38.4820   24.6920   36.6820 C   0  0  1  0  0  3  0  0  0  0  0  0
   37.9790   24.6380   38.0970 C   0  0  0  0  0  3  0  0  0  0  0  0
   38.3970   25.4550   38.7220 H   0  0  0  0  0  0  0  0  0  0  0  0
   38.5210   23.3050   38.5900 C   0  0  0  0  0  3  0  0  0  0  0  0
   37.6960   22.5780   38.6300 H   0  0  0  0  0  0  0  0  0  0  0  0
   39.4210   22.8760   37.6140 O   0  0  0  0  0  0  0  0  0  0  0  0
   38.7850   23.2310   36.4160 C   0  0  0  0  0  3  0  0  0  0  0  0
   39.4690   23.1600   35.5500 H   0  0  0  0  0  0  0  0  0  0  0  0
  2  1  2  6  0  0  0
  2  3  1  0  0  0  0
  2 15  1  0  0  0  0
  3  4  1  0  0  0  0
  5  2  1  0  0  0  0
  6 12  1  0  0  0  0
  6 11  1  0  0  0  0
  7  6  2  0  0  0  0
  8  7  1  0  0  0  0
  8  9  2  0  0  0  0
  9 10  1  0  0  0  0
 10  5  1  0  0  0  0
 10 11  2  0  0  0  0
 13  7  1  0  0  0  0
 14  8  1  0  0  0  0
 16 15  1  6  0  0  0
 16 17  1  0  0  0  0
 17 19  1  0  0  0  0
 17 18  1  0  0  0  0
 19 20  1  0  0  0  0
 21 19  1  0  0  0  0
 22 16  1  0  0  0  0
 22 21  1  0  0  0  0
 23 22  1  0  0  0  0
M  END
>  <minimizedAffinity>
-3.9675951

$$$$

 OpenBabel03272505443D

 23 24  0  0  1  0  0  0  0  0999 V2000
   38.7400   23.2810   31.7770 O   0  0  0  0  0  0  0  0  0  0  0  0
   37.9510   23.1460   33.0750 P   0  0  2  0  0  0  0  0  0  0  0  0
   37.6620   24.7020   33.6340 O   0  0  0  0  0  0  0  0  0  0  0  0
   36.8310   25.0870   33.2740 H   0  0  0  0  0  0  0  0  0  0  0  0
   38.8820   22.2250   34.1640 O   0  0  0  0  0  0  0  0  0  0  0  0
   40.0580   22.5840   37.6080 C   0  0  0  0  0  0  0  0  0  0  0  0
   38.9440   23.2540   38.1720 C   0  0  0  0  0  0  0  0  0  0  0  0
   37.8650   23.5360   37.3290 C   0  0  0  0  0  0  0  0  0  0  0  0
   37.9340   23.1570   36.0160 N   0  0  0  0  0  0  0  0  0  0  0  0
   39.0100   22.5200   35.5120 C   0  0  0  0  0  0  0  0  0  0  0  0
   40.0740   22.2340   36.3080 N   0  0  0  0  0  0  0  0  0  0  0  0
   40.9090   22.3480   38.2190 H   0  0  0  0  0  0  0  0  0  0  0  0
   38.9800   23.5150   39.2260 H   0  0  0  0  0  0  0  0  0  0  0  0
   37.0090   24.0460   37.7490 H   0  0  0  0  0  0  0  0  0  0  0  0
   36.4870   22.4330   32.6740 O   0  0  0  0  0  0  0  0  0  0  0  0
   36.5830   21.0630   32.4840 C   0  0  1  0  0  3  0  0  0  0  0  0
   35.5540   20.2940   33.2640 C   0  0  0  0  0  3  0  0  0  0  0  0
   36.0030   19.7300   34.1070 H   0  0  0  0  0  0  0  0  0  0  0  0
   35.0210   19.3120   32.2330 C   0  0  0  0  0  3  0  0  0  0  0  0
   34.0260   19.6470   31.9020 H   0  0  0  0  0  0  0  0  0  0  0  0
   35.8850   19.4030   31.1400 O   0  0  0  0  0  0  0  0  0  0  0  0
   36.1530   20.7760   31.0590 C   0  0  0  0  0  3  0  0  0  0  0  0
   37.0010   20.9910   30.3800 H   0  0  0  0  0  0  0  0  0  0  0  0
  2  1  2  6  0  0  0
  2  3  1  0  0  0  0
  2  5  1  0  0  0  0
  4  3  1  0  0  0  0
  5 10  1  0  0  0  0
  6  7  1  0  0  0  0
  6 12  1  0  0  0  0
  7 13  1  0  0  0  0
  8 14  1  0  0  0  0
  8  7  2  0  0  0  0
  9  8  1  0  0  0  0
 10  9  2  0  0  0  0
 10 11  1  0  0  0  0
 11  6  2  0  0  0  0
 15  2  1  0  0  0  0
 16 15  1  1  0  0  0
 16 17  1  0  0  0  0
 17 18  1  0  0  0  0
 19 17  1  0  0  0  0
 20 19  1  0  0  0  0
 21 19  1  0  0  0  0
 22 21  1  0  0  0  0
 22 16  1  0  0  0  0
 23 22  1  0  0  0  0
M  END
>  <minimizedAffinity>
-3.94677353

$$$$

 OpenBabel03272505443D

 23 24  0  0  1  0  0  0  0  0999 V2000
   38.7350   27.4570   35.9630 O   0  0  0  0  0  0  0  0  0  0  0  0
   37.9270   26.5800   35.0130 P   0  0  2  0  0  0  0  0  0  0  0  0
   38.9670   26.1090   33.7810 O   0  0  0  0  0  0  0  0  0  0  0  0
   39.4540   25.2800   33.9900 H   0  0  0  0  0  0  0  0  0  0  0  0
   36.6110   27.4960   34.4400 O   0  0  0  0  0  0  0  0  0  0  0  0
   36.1630   29.6430   31.5130 C   0  0  0  0  0  0  0  0  0  0  0  0
   36.4560   28.7110   30.4870 C   0  0  0  0  0  0  0  0  0  0  0  0
   36.7870   27.4080   30.8720 C   0  0  0  0  0  0  0  0  0  0  0  0
   36.8130   27.0980   32.2050 N   0  0  0  0  0  0  0  0  0  0  0  0
   36.5290   28.0100   33.1560 C   0  0  0  0  0  0  0  0  0  0  0  0
   36.2040   29.2840   32.8110 N   0  0  0  0  0  0  0  0  0  0  0  0
   35.9040   30.6550   31.2630 H   0  0  0  0  0  0  0  0  0  0  0  0
   36.4090   29.0490   29.4550 H   0  0  0  0  0  0  0  0  0  0  0  0
   37.0110   26.6880   30.0970 H   0  0  0  0  0  0  0  0  0  0  0  0
   37.4720   25.2220   35.8850 O   0  0  0  0  0  0  0  0  0  0  0  0
   38.4580   24.7790   36.7540 C   0  0  1  0  0  3  0  0  0  0  0  0
   37.9580   24.6040   38.1600 C   0  0  0  0  0  3  0  0  0  0  0  0
   38.3640   25.3730   38.8480 H   0  0  0  0  0  0  0  0  0  0  0  0
   38.5190   23.2430   38.5440 C   0  0  0  0  0  3  0  0  0  0  0  0
   37.7050   22.5030   38.5250 H   0  0  0  0  0  0  0  0  0  0  0  0
   39.4240   22.9070   37.5370 O   0  0  0  0  0  0  0  0  0  0  0  0
   38.7820   23.3480   36.3720 C   0  0  0  0  0  3  0  0  0  0  0  0
   39.4670   23.3570   35.5020 H   0  0  0  0  0  0  0  0  0  0  0  0
  2 15  1  0  0  0  0
  2  1  2  1  0  0  0
  3  4  1  0  0  0  0
  3  2  1  0  0  0  0
  5  2  1  0  0  0  0
  6 11  1  0  0  0  0
  7  8  1  0  0  0  0
  7  6  2  0  0  0  0
  8  9  2  0  0  0  0
  9 10  1  0  0  0  0
 10  5  1  0  0  0  0
 11 10  2  0  0  0  0
 12  6  1  0  0  0  0
 13  7  1  0  0  0  0
 14  8  1  0  0  0  0
 16 15  1  6  0  0  0
 16 17  1  0  0  0  0
 17 19  1  0  0  0  0
 17 18  1  0  0  0  0
 20 19  1  0  0  0  0
 21 19  1  0  0  0  0
 22 16  1  0  0  0  0
 22 21  1  0  0  0  0
 23 22  1  0  0  0  0
M  END
>  <minimizedAffinity>
-3.94396949

$$$$

 OpenBabel03272505443D

 23 24  0  0  1  0  0  0  0  0999 V2000
   39.0610   27.4010   35.3550 O   0  0  0  0  0  0  0  0  0  0  0  0
   37.8100   26.6810   34.8620 P   0  0  2  0  0  0  0  0  0  0  0  0
   36.6060   27.8420   34.7130 O   0  0  0  0  0  0  0  0  0  0  0  0
   36.5990   28.2720   33.8280 H   0  0  0  0  0  0  0  0  0  0  0  0
   37.4150   25.4740   35.9960 O   0  0  0  0  0  0  0  0  0  0  0  0
   40.1910   23.1370   36.4540 C   0  0  0  0  0  0  0  0  0  0  0  0
   39.9520   22.7440   37.7950 C   0  0  0  0  0  0  0  0  0  0  0  0
   38.8540   23.3100   38.4490 C   0  0  0  0  0  0  0  0  0  0  0  0
   38.0700   24.2050   37.7720 N   0  0  0  0  0  0  0  0  0  0  0  0
   38.3250   24.5570   36.4960 C   0  0  0  0  0  0  0  0  0  0  0  0
   39.3860   24.0230   35.8360 N   0  0  0  0  0  0  0  0  0  0  0  0
   41.0230   22.7280   35.9130 H   0  0  0  0  0  0  0  0  0  0  0  0
   40.6300   22.0260   38.2490 H   0  0  0  0  0  0  0  0  0  0  0  0
   38.6620   23.0170   39.4720 H   0  0  0  0  0  0  0  0  0  0  0  0
   38.1730   26.0790   33.3390 O   0  0  0  0  0  0  0  0  0  0  0  0
   37.3310   25.0480   32.9470 C   0  0  1  0  0  3  0  0  0  0  0  0
   36.4420   25.4280   31.7970 C   0  0  0  0  0  3  0  0  0  0  0  0
   35.3820   25.5390   32.1050 H   0  0  0  0  0  0  0  0  0  0  0  0
   36.5710   24.2310   30.8690 C   0  0  0  0  0  3  0  0  0  0  0  0
   37.2150   24.5060   30.0190 H   0  0  0  0  0  0  0  0  0  0  0  0
   37.2350   23.2480   31.6050 O   0  0  0  0  0  0  0  0  0  0  0  0
   38.1990   23.9790   32.3140 C   0  0  0  0  0  3  0  0  0  0  0  0
   38.6650   23.3740   33.1160 H   0  0  0  0  0  0  0  0  0  0  0  0
  2  1  2  1  0  0  0
  2  5  1  0  0  0  0
  3  2  1  0  0  0  0
  4  3  1  0  0  0  0
  5 10  1  0  0  0  0
  6  7  1  0  0  0  0
  7 13  1  0  0  0  0
  7  8  2  0  0  0  0
  8 14  1  0  0  0  0
  9  8  1  0  0  0  0
 10  9  2  0  0  0  0
 11  6  2  0  0  0  0
 11 10  1  0  0  0  0
 12  6  1  0  0  0  0
 15  2  1  0  0  0  0
 16 15  1  6  0  0  0
 17 18  1  0  0  0  0
 17 16  1  0  0  0  0
 19 21  1  0  0  0  0
 19 17  1  0  0  0  0
 20 19  1  0  0  0  0
 21 22  1  0  0  0  0
 22 16  1  0  0  0  0
 22 23  1  0  0  0  0
M  END
>  <minimizedAffinity>
-3.94003987

$$$$

 OpenBabel03272505443D

 23 24  0  0  1  0  0  0  0  0999 V2000
   38.9180   27.4830   35.6810 O   0  0  0  0  0  0  0  0  0  0  0  0
   39.6060   26.6200   34.6280 P   0  0  2  0  0  0  0  0  0  0  0  0
   41.2570   26.7320   34.9100 O   0  0  0  0  0  0  0  0  0  0  0  0
   41.5810   26.0560   35.5470 H   0  0  0  0  0  0  0  0  0  0  0  0
   39.1650   27.2100   33.0930 O   0  0  0  0  0  0  0  0  0  0  0  0
   36.6910   25.3640   31.1300 C   0  0  0  0  0  0  0  0  0  0  0  0
   35.6350   26.3090   31.1280 C   0  0  0  0  0  0  0  0  0  0  0  0
   35.8460   27.5160   31.8030 C   0  0  0  0  0  0  0  0  0  0  0  0
   37.0470   27.7250   32.4240 N   0  0  0  0  0  0  0  0  0  0  0  0
   38.0320   26.8040   32.4060 C   0  0  0  0  0  0  0  0  0  0  0  0
   37.8540   25.6230   31.7590 N   0  0  0  0  0  0  0  0  0  0  0  0
   36.5730   24.4250   30.6240 H   0  0  0  0  0  0  0  0  0  0  0  0
   34.7170   26.0540   30.6070 H   0  0  0  0  0  0  0  0  0  0  0  0
   35.0470   28.2440   31.8080 H   0  0  0  0  0  0  0  0  0  0  0  0
   39.1150   25.0410   34.9070 O   0  0  0  0  0  0  0  0  0  0  0  0
   39.0380   24.7270   36.2560 C   0  0  1  0  0  3  0  0  0  0  0  0
   37.6300   24.4680   36.7130 C   0  0  0  0  0  3  0  0  0  0  0  0
   37.2460   25.2780   37.3670 H   0  0  0  0  0  0  0  0  0  0  0  0
   37.7750   23.1930   37.5290 C   0  0  0  0  0  3  0  0  0  0  0  0
   37.3790   22.3480   36.9450 H   0  0  0  0  0  0  0  0  0  0  0  0
   39.1480   22.9950   37.6850 O   0  0  0  0  0  0  0  0  0  0  0  0
   39.6660   23.3590   36.4340 C   0  0  0  0  0  3  0  0  0  0  0  0
   40.7670   23.4710   36.4610 H   0  0  0  0  0  0  0  0  0  0  0  0
  2 15  1  0  0  0  0
  2  3  1  0  0  0  0
  2  1  2  1  0  0  0
  3  4  1  0  0  0  0
  5  2  1  0  0  0  0
  6 11  1  0  0  0  0
  7  6  2  0  0  0  0
  7  8  1  0  0  0  0
  8 14  1  0  0  0  0
  8  9  2  0  0  0  0
 10  9  1  0  0  0  0
 10  5  1  0  0  0  0
 11 10  2  0  0  0  0
 12  6  1  0  0  0  0
 13  7  1  0  0  0  0
 16 15  1  6  0  0  0
 16 22  1  0  0  0  0
 16 17  1  0  0  0  0
 17 18  1  0  0  0  0
 17 19  1  0  0  0  0
 19 21  1  0  0  0  0
 20 19  1  0  0  0  0
 22 23  1  0  0  0  0
 22 21  1  0  0  0  0
M  END
>  <minimizedAffinity>
-3.93248439

$$$$

 OpenBabel03272505443D

 23 24  0  0  1  0  0  0  0  0999 V2000
   35.1120   24.8200   31.2670 O   0  0  0  0  0  0  0  0  0  0  0  0
   36.5690   24.8710   31.7170 P   0  0  2  0  0  0  0  0  0  0  0  0
   37.4970   25.0940   30.3350 O   0  0  0  0  0  0  0  0  0  0  0  0
   37.6250   26.0430   30.1120 H   0  0  0  0  0  0  0  0  0  0  0  0
   36.9260   23.4100   32.5140 O   0  0  0  0  0  0  0  0  0  0  0  0
   34.9760   20.3420   32.1080 C   0  0  0  0  0  0  0  0  0  0  0  0
   35.7440   19.7030   31.1030 C   0  0  0  0  0  0  0  0  0  0  0  0
   36.8790   20.3710   30.6340 C   0  0  0  0  0  0  0  0  0  0  0  0
   37.1920   21.5950   31.1610 N   0  0  0  0  0  0  0  0  0  0  0  0
   36.4390   22.1750   32.1170 C   0  0  0  0  0  0  0  0  0  0  0  0
   35.3300   21.5490   32.5910 N   0  0  0  0  0  0  0  0  0  0  0  0
   34.0960   19.8650   32.4970 H   0  0  0  0  0  0  0  0  0  0  0  0
   35.4170   18.7300   30.7460 H   0  0  0  0  0  0  0  0  0  0  0  0
   37.4730   19.8930   29.8670 H   0  0  0  0  0  0  0  0  0  0  0  0
   36.7210   26.2250   32.6950 O   0  0  0  0  0  0  0  0  0  0  0  0
   37.4390   25.9780   33.8560 C   0  0  1  0  0  3  0  0  0  0  0  0
   38.9030   26.2820   33.7100 C   0  0  0  0  0  3  0  0  0  0  0  0
   39.5220   25.3610   33.6980 H   0  0  0  0  0  0  0  0  0  0  0  0
   39.2060   27.0720   34.9740 C   0  0  0  0  0  3  0  0  0  0  0  0
   39.3070   28.1360   34.7130 H   0  0  0  0  0  0  0  0  0  0  0  0
   38.0780   26.9380   35.7850 O   0  0  0  0  0  0  0  0  0  0  0  0
   37.0170   27.0210   34.8730 C   0  0  0  0  0  3  0  0  0  0  0  0
   36.0580   26.7100   35.3280 H   0  0  0  0  0  0  0  0  0  0  0  0
  2  1  2  6  0  0  0
  2  5  1  0  0  0  0
  2 15  1  0  0  0  0
  3  2  1  0  0  0  0
  4  3  1  0  0  0  0
  6 12  1  0  0  0  0
  6 11  1  0  0  0  0
  7  6  2  0  0  0  0
  8  7  1  0  0  0  0
  8  9  2  0  0  0  0
  9 10  1  0  0  0  0
 10  5  1  0  0  0  0
 10 11  2  0  0  0  0
 13  7  1  0  0  0  0
 14  8  1  0  0  0  0
 16 15  1  6  0  0  0
 16 22  1  0  0  0  0
 17 16  1  0  0  0  0
 17 19  1  0  0  0  0
 18 17  1  0  0  0  0
 19 21  1  0  0  0  0
 20 19  1  0  0  0  0
 22 23  1  0  0  0  0
 22 21  1  0  0  0  0
M  END
>  <minimizedAffinity>
-3.92517018

$$$$

 OpenBabel03272505443D

 23 24  0  0  1  0  0  0  0  0999 V2000
   37.7030   24.1390   30.2540 O   0  0  0  0  0  0  0  0  0  0  0  0
   36.6310   24.1170   31.3390 P   0  0  2  0  0  0  0  0  0  0  0  0
   35.6850   25.4870   31.1160 O   0  0  0  0  0  0  0  0  0  0  0  0
   34.9360   25.3350   30.4970 H   0  0  0  0  0  0  0  0  0  0  0  0
   37.4130   24.1040   32.8520 O   0  0  0  0  0  0  0  0  0  0  0  0
   37.2730   27.4580   34.3040 C   0  0  0  0  0  0  0  0  0  0  0  0
   38.0890   27.2570   35.4450 C   0  0  0  0  0  0  0  0  0  0  0  0
   38.6300   25.9820   35.6370 C   0  0  0  0  0  0  0  0  0  0  0  0
   38.3510   25.0010   34.7250 N   0  0  0  0  0  0  0  0  0  0  0  0
   37.5710   25.2260   33.6490 C   0  0  0  0  0  0  0  0  0  0  0  0
   37.0310   26.4550   33.4380 N   0  0  0  0  0  0  0  0  0  0  0  0
   36.8360   28.4210   34.1180 H   0  0  0  0  0  0  0  0  0  0  0  0
   38.2540   28.0980   36.1140 H   0  0  0  0  0  0  0  0  0  0  0  0
   39.2540   25.8180   36.5040 H   0  0  0  0  0  0  0  0  0  0  0  0
   35.6910   22.7580   31.0550 O   0  0  0  0  0  0  0  0  0  0  0  0
   35.9830   21.7070   31.9130 C   0  0  1  0  0  3  0  0  0  0  0  0
   34.7800   20.8670   32.2330 C   0  0  0  0  0  3  0  0  0  0  0  0
   34.4420   21.0020   33.2810 H   0  0  0  0  0  0  0  0  0  0  0  0
   35.3070   19.4510   32.0560 C   0  0  0  0  0  3  0  0  0  0  0  0
   34.9190   19.0410   31.1120 H   0  0  0  0  0  0  0  0  0  0  0  0
   36.6920   19.5740   31.9290 O   0  0  0  0  0  0  0  0  0  0  0  0
   36.8380   20.7230   31.1390 C   0  0  0  0  0  3  0  0  0  0  0  0
   37.8830   21.0860   31.1300 H   0  0  0  0  0  0  0  0  0  0  0  0
  2  1  2  6  0  0  0
  2  5  1  0  0  0  0
  3  2  1  0  0  0  0
  4  3  1  0  0  0  0
  5 10  1  0  0  0  0
  6  7  1  0  0  0  0
  7  8  2  0  0  0  0
  7 13  1  0  0  0  0
  8 14  1  0  0  0  0
  9  8  1  0  0  0  0
 10  9  2  0  0  0  0
 11 10  1  0  0  0  0
 11  6  2  0  0  0  0
 12  6  1  0  0  0  0
 15  2  1  0  0  0  0
 16 15  1  6  0  0  0
 16 17  1  0  0  0  0
 17 18  1  0  0  0  0
 19 17  1  0  0  0  0
 20 19  1  0  0  0  0
 21 19  1  0  0  0  0
 22 16  1  0  0  0  0
 22 21  1  0  0  0  0
 23 22  1  0  0  0  0
M  END
>  <minimizedAffinity>
-3.83496833

$$$$

 OpenBabel03272505443D

 23 24  0  0  1  0  0  0  0  0999 V2000
   38.2420   23.4620   32.1060 O   0  0  0  0  0  0  0  0  0  0  0  0
   38.7820   23.9750   33.4370 P   0  0  2  0  0  0  0  0  0  0  0  0
   40.3940   23.5140   33.5180 O   0  0  0  0  0  0  0  0  0  0  0  0
   41.0000   24.1780   33.1180 H   0  0  0  0  0  0  0  0  0  0  0  0
   37.8450   23.2920   34.6840 O   0  0  0  0  0  0  0  0  0  0  0  0
   37.9080   23.9120   38.2880 C   0  0  0  0  0  0  0  0  0  0  0  0
   39.1490   23.3100   38.6120 C   0  0  0  0  0  0  0  0  0  0  0  0
   39.8790   22.7320   37.5680 C   0  0  0  0  0  0  0  0  0  0  0  0
   39.3670   22.7740   36.3000 N   0  0  0  0  0  0  0  0  0  0  0  0
   38.1820   23.3560   36.0270 C   0  0  0  0  0  0  0  0  0  0  0  0
   37.4510   23.9260   37.0210 N   0  0  0  0  0  0  0  0  0  0  0  0
   37.3150   24.3680   39.0580 H   0  0  0  0  0  0  0  0  0  0  0  0
   39.4740   23.3250   39.6490 H   0  0  0  0  0  0  0  0  0  0  0  0
   40.8270   22.2690   37.8040 H   0  0  0  0  0  0  0  0  0  0  0  0
   38.7000   25.6490   33.3740 O   0  0  0  0  0  0  0  0  0  0  0  0
   37.4040   26.1330   33.4750 C   0  0  1  0  0  3  0  0  0  0  0  0
   37.1840   26.9500   34.7160 C   0  0  0  0  0  3  0  0  0  0  0  0
   36.5380   26.4280   35.4520 H   0  0  0  0  0  0  0  0  0  0  0  0
   36.4490   28.1710   34.1840 C   0  0  0  0  0  3  0  0  0  0  0  0
   37.1460   29.0230   34.1580 H   0  0  0  0  0  0  0  0  0  0  0  0
   36.1030   27.8630   32.8680 O   0  0  0  0  0  0  0  0  0  0  0  0
   37.2330   27.1810   32.3930 C   0  0  0  0  0  3  0  0  0  0  0  0
   37.0330   26.6730   31.4300 H   0  0  0  0  0  0  0  0  0  0  0  0
  2  1  2  6  0  0  0
  2  3  1  0  0  0  0
  2  5  1  0  0  0  0
  4  3  1  0  0  0  0
  5 10  1  0  0  0  0
  6  7  1  0  0  0  0
  6 12  1  0  0  0  0
  7 13  1  0  0  0  0
  8 14  1  0  0  0  0
  8  7  2  0  0  0  0
  9  8  1  0  0  0  0
 10  9  2  0  0  0  0
 10 11  1  0  0  0  0
 11  6  2  0  0  0  0
 15  2  1  0  0  0  0
 16 15  1  1  0  0  0
 16 17  1  0  0  0  0
 17 18  1  0  0  0  0
 19 17  1  0  0  0  0
 20 19  1  0  0  0  0
 21 19  1  0  0  0  0
 22 21  1  0  0  0  0
 22 16  1  0  0  0  0
 23 22  1  0  0  0  0
M  END
>  <minimizedAffinity>
-3.78484964

$$$$
