
 OpenBabel03272506363D

 22 23  0  0  1  0  0  0  0  0999 V2000
   36.1340   30.5930   47.2730 C   0  0  0  0  0  0  0  0  0  0  0  0
   37.0070   30.7640   46.1740 C   0  0  0  0  0  0  0  0  0  0  0  0
   36.6120   30.3260   44.9260 C   0  0  0  0  0  0  0  0  0  0  0  0
   35.3710   29.7380   44.8210 N   0  0  0  0  0  0  0  0  0  0  0  0
   34.5520   29.5830   45.8820 C   0  0  0  0  0  0  0  0  0  0  0  0
   34.9450   30.0120   47.0860 N   0  0  0  0  0  0  0  0  0  0  0  0
   33.1410   27.7810   46.5480 C   0  0  0  0  0  0  0  0  0  0  0  0
   34.0000   27.2490   47.3240 O   0  0  0  0  0  0  0  0  0  0  0  0
   33.2700   28.9700   45.7440 N   0  0  0  0  0  0  0  0  0  0  0  0
   37.9830   31.2250   46.2480 H   0  0  0  0  0  0  0  0  0  0  0  0
   37.2510   30.4370   44.0590 H   0  0  0  0  0  0  0  0  0  0  0  0
   32.2930   27.1140   46.6450 H   0  0  0  0  0  0  0  0  0  0  0  0
   32.4430   29.2030   45.1990 H   0  0  0  0  0  0  0  0  0  0  0  0
   36.6520   31.0740   48.4600 O   0  0  0  0  0  0  0  0  0  0  0  0
   36.3220   30.5450   49.7260 C   0  0  2  0  0  0  0  0  0  0  0  0
   37.2650   31.1790   50.7280 C   0  0  0  0  0  0  0  0  0  0  0  0
   38.2330   31.3720   50.2060 H   0  0  0  0  0  0  0  0  0  0  0  0
   37.3890   30.0580   51.7370 C   0  0  0  0  0  0  0  0  0  0  0  0
   36.6140   30.2640   52.5260 H   0  0  0  0  0  0  0  0  0  0  0  0
   37.2170   28.8660   51.0850 O   0  0  0  0  0  0  0  0  0  0  0  0
   36.6880   29.0840   49.8450 C   0  0  0  0  0  0  0  0  0  0  0  0
   37.4610   28.8790   49.0630 H   0  0  0  0  0  0  0  0  0  0  0  0
  1 14  1  0  0  0  0
  2 10  1  0  0  0  0
  2  1  2  0  0  0  0
  3  2  1  0  0  0  0
  4  3  2  0  0  0  0
  4  5  1  0  0  0  0
  5  6  2  0  0  0  0
  6  1  1  0  0  0  0
  7 12  1  0  0  0  0
  7  8  2  0  0  0  0
  9  5  1  0  0  0  0
  9  7  1  0  0  0  0
 11  3  1  0  0  0  0
 13  9  1  0  0  0  0
 15 14  1  6  0  0  0
 15 21  1  0  0  0  0
 15 16  1  0  0  0  0
 16 18  1  0  0  0  0
 17 16  1  0  0  0  0
 18 19  1  0  0  0  0
 20 18  1  0  0  0  0
 21 20  1  0  0  0  0
 22 21  1  0  0  0  0
M  END
>  <minimizedAffinity>
-3.90614176

>  <minimizedRMSD>
3.84668708

$$$$
