
 OpenBabel03272508133D

 33 35  0  0  1  0  0  0  0  0999 V2000
   37.7170   23.4370   33.5660 Cl  0  0  0  0  0  0  0  0  0  0  0  0
   37.9170   24.9900   34.3850 C   0  0  0  0  0  0  0  0  0  0  0  0
   38.0810   25.1220   35.7650 C   0  0  0  0  0  0  0  0  0  0  0  0
   38.2280   26.4080   36.2820 C   0  0  0  0  0  0  0  0  0  0  0  0
   38.2090   27.4930   35.4390 C   0  0  0  0  0  0  0  0  0  0  0  0
   38.0510   27.3880   34.0880 C   0  0  0  0  0  0  0  0  0  0  0  0
   37.9050   26.1300   33.5680 C   0  0  0  0  0  0  0  0  0  0  0  0
   38.3480   26.3940   37.3560 H   0  0  0  0  0  0  0  0  0  0  0  0
   38.3320   28.4590   35.9390 H   0  0  0  0  0  0  0  0  0  0  0  0
   38.0480   28.2970   33.5040 H   0  0  0  0  0  0  0  0  0  0  0  0
   37.7310   25.9950   32.0980 C   0  0  2  0  0  3  0  0  0  0  0  0
   38.1290   27.2580   31.3480 C   0  0  0  0  0  3  0  0  0  0  0  0
   38.5830   28.0250   31.9890 H   0  0  0  0  0  0  0  0  0  0  0  0
   36.8040   27.6920   30.7610 C   0  0  0  0  0  3  0  0  0  0  0  0
   36.7030   28.8080   30.7610 H   0  0  0  0  0  0  0  0  0  0  0  0
   35.8280   27.1040   31.5610 O   0  0  0  0  0  0  0  0  0  0  0  0
   36.3120   25.8060   31.7060 C   0  0  0  0  0  3  0  0  0  0  0  0
   36.3210   25.3900   30.6580 H   0  0  0  0  0  0  0  0  0  0  0  0
   38.0690   23.9150   36.4080 O   0  0  0  0  0  0  0  0  0  0  0  0
   38.0180   24.8400   38.8300 O   0  0  0  0  0  0  0  0  0  0  0  0
   38.2950   23.6080   38.0470 P   0  0  1  0  0  0  0  0  0  0  0  0
   37.1500   22.4070   38.4510 O   0  0  0  0  0  0  0  0  0  0  0  0
   36.2460   22.8300   38.4420 H   0  0  0  0  0  0  0  0  0  0  0  0
   39.8530   22.9740   38.2740 O   0  0  0  0  0  0  0  0  0  0  0  0
   42.1010   22.6480   35.3550 C   0  0  0  0  0  0  0  0  0  0  0  0
   41.1370   23.2500   36.1700 C   0  0  0  0  0  0  0  0  0  0  0  0
   40.7540   22.5860   37.3440 C   0  0  0  0  0  0  0  0  0  0  0  0
   41.3400   21.3880   37.6280 N   0  0  0  0  0  0  0  0  0  0  0  0
   42.2640   20.8440   36.8130 C   0  0  0  0  0  0  0  0  0  0  0  0
   42.6390   21.4720   35.6870 N   0  0  0  0  0  0  0  0  0  0  0  0
   42.3560   23.2100   34.4580 H   0  0  0  0  0  0  0  0  0  0  0  0
   40.6330   24.1920   36.0100 H   0  0  0  0  0  0  0  0  0  0  0  0
   42.7430   19.8940   37.0190 H   0  0  0  0  0  0  0  0  0  0  0  0
  1  2  1  0  0  0  0
  2  3  1  0  0  0  0
  3  4  2  0  0  0  0
  3 19  1  0  0  0  0
  4  8  1  0  0  0  0
  5  9  1  0  0  0  0
  5  4  1  0  0  0  0
  6  5  2  0  0  0  0
  7  6  1  0  0  0  0
  7  2  2  0  0  0  0
 10  6  1  0  0  0  0
 11  7  1  1  0  0  0
 12 13  1  0  0  0  0
 12 11  1  0  0  0  0
 14 12  1  0  0  0  0
 14 16  1  0  0  0  0
 15 14  1  0  0  0  0
 16 17  1  0  0  0  0
 17 11  1  0  0  0  0
 18 17  1  0  0  0  0
 19 21  1  0  0  0  0
 21 24  1  0  0  0  0
 21 22  1  0  0  0  0
 21 20  2  1  0  0  0
 23 22  1  0  0  0  0
 25 30  2  0  0  0  0
 25 26  1  0  0  0  0
 26 27  2  0  0  0  0
 27 28  1  0  0  0  0
 27 24  1  0  0  0  0
 29 33  1  0  0  0  0
 29 28  2  0  0  0  0
 30 29  1  0  0  0  0
 31 25  1  0  0  0  0
 32 26  1  0  0  0  0
M  END
>  <minimizedAffinity>
-5.68256474

$$$$

 OpenBabel03272508133D

 33 35  0  0  1  0  0  0  0  0999 V2000
   38.8770   23.0330   33.2630 Cl  0  0  0  0  0  0  0  0  0  0  0  0
   37.5000   23.8350   32.4990 C   0  0  0  0  0  0  0  0  0  0  0  0
   37.2980   25.2160   32.5230 C   0  0  0  0  0  0  0  0  0  0  0  0
   36.1680   25.7180   31.8790 C   0  0  0  0  0  0  0  0  0  0  0  0
   35.2990   24.8600   31.2480 C   0  0  0  0  0  0  0  0  0  0  0  0
   35.4770   23.5080   31.2130 C   0  0  0  0  0  0  0  0  0  0  0  0
   36.5820   23.0020   31.8420 C   0  0  0  0  0  0  0  0  0  0  0  0
   36.1100   26.7950   31.9590 H   0  0  0  0  0  0  0  0  0  0  0  0
   34.4430   25.3490   30.7730 H   0  0  0  0  0  0  0  0  0  0  0  0
   34.7410   22.9120   30.6940 H   0  0  0  0  0  0  0  0  0  0  0  0
   36.7940   21.5310   31.8130 C   0  0  2  0  0  3  0  0  0  0  0  0
   35.8370   20.8260   30.8630 C   0  0  0  0  0  3  0  0  0  0  0  0
   35.2200   21.5130   30.2700 H   0  0  0  0  0  0  0  0  0  0  0  0
   35.0210   19.9870   31.8230 C   0  0  0  0  0  3  0  0  0  0  0  0
   33.9490   19.9290   31.5050 H   0  0  0  0  0  0  0  0  0  0  0  0
   35.1410   20.6100   33.0620 O   0  0  0  0  0  0  0  0  0  0  0  0
   36.5040   20.8880   33.1200 C   0  0  0  0  0  3  0  0  0  0  0  0
   37.0000   19.8750   33.0950 H   0  0  0  0  0  0  0  0  0  0  0  0
   38.2840   25.8750   33.2030 O   0  0  0  0  0  0  0  0  0  0  0  0
   39.5330   27.1260   35.1000 O   0  0  0  0  0  0  0  0  0  0  0  0
   38.1980   26.5960   34.7220 P   0  0  1  0  0  0  0  0  0  0  0  0
   37.0980   27.8910   34.5540 O   0  0  0  0  0  0  0  0  0  0  0  0
   37.5410   28.6020   34.0110 H   0  0  0  0  0  0  0  0  0  0  0  0
   37.5560   25.4740   35.8220 O   0  0  0  0  0  0  0  0  0  0  0  0
   38.7450   23.3910   38.6380 C   0  0  0  0  0  0  0  0  0  0  0  0
   37.9150   24.3050   37.9800 C   0  0  0  0  0  0  0  0  0  0  0  0
   38.2110   24.6270   36.6480 C   0  0  0  0  0  0  0  0  0  0  0  0
   39.2900   24.0330   36.0640 N   0  0  0  0  0  0  0  0  0  0  0  0
   40.0630   23.1580   36.7360 C   0  0  0  0  0  0  0  0  0  0  0  0
   39.7890   22.8420   38.0110 N   0  0  0  0  0  0  0  0  0  0  0  0
   38.4660   23.1810   39.6690 H   0  0  0  0  0  0  0  0  0  0  0  0
   37.0480   24.8120   38.3760 H   0  0  0  0  0  0  0  0  0  0  0  0
   40.9240   22.6740   36.2930 H   0  0  0  0  0  0  0  0  0  0  0  0
  2  3  1  0  0  0  0
  2  1  1  0  0  0  0
  3 19  1  0  0  0  0
  4  8  1  0  0  0  0
  4  3  2  0  0  0  0
  5  4  1  0  0  0  0
  6  5  2  0  0  0  0
  6  7  1  0  0  0  0
  7  2  2  0  0  0  0
  9  5  1  0  0  0  0
 10  6  1  0  0  0  0
 11  7  1  1  0  0  0
 11 17  1  0  0  0  0
 12 11  1  0  0  0  0
 12 14  1  0  0  0  0
 13 12  1  0  0  0  0
 14 16  1  0  0  0  0
 15 14  1  0  0  0  0
 16 17  1  0  0  0  0
 18 17  1  0  0  0  0
 19 21  1  0  0  0  0
 21 20  2  1  0  0  0
 21 24  1  0  0  0  0
 22 21  1  0  0  0  0
 23 22  1  0  0  0  0
 24 27  1  0  0  0  0
 25 31  1  0  0  0  0
 26 32  1  0  0  0  0
 26 25  2  0  0  0  0
 27 26  1  0  0  0  0
 28 27  2  0  0  0  0
 28 29  1  0  0  0  0
 29 30  2  0  0  0  0
 30 25  1  0  0  0  0
 33 29  1  0  0  0  0
M  END
>  <minimizedAffinity>
-5.65770102

$$$$

 OpenBabel03272508133D

 33 35  0  0  1  0  0  0  0  0999 V2000
   37.8260   23.4260   33.5540 Cl  0  0  0  0  0  0  0  0  0  0  0  0
   38.2070   24.9620   34.3380 C   0  0  0  0  0  0  0  0  0  0  0  0
   38.5080   26.1340   33.6410 C   0  0  0  0  0  0  0  0  0  0  0  0
   38.7910   27.2780   34.3850 C   0  0  0  0  0  0  0  0  0  0  0  0
   38.7670   27.2280   35.7580 C   0  0  0  0  0  0  0  0  0  0  0  0
   38.4760   26.0950   36.4600 C   0  0  0  0  0  0  0  0  0  0  0  0
   38.1970   24.9640   35.7410 C   0  0  0  0  0  0  0  0  0  0  0  0
   39.0090   28.1230   33.7480 H   0  0  0  0  0  0  0  0  0  0  0  0
   39.0030   28.1760   36.2510 H   0  0  0  0  0  0  0  0  0  0  0  0
   38.4810   26.1500   37.5390 H   0  0  0  0  0  0  0  0  0  0  0  0
   37.8760   23.7190   36.4880 C   0  0  2  0  0  3  0  0  0  0  0  0
   37.6400   23.9770   37.9690 C   0  0  0  0  0  3  0  0  0  0  0  0
   37.6320   25.0410   38.2350 H   0  0  0  0  0  0  0  0  0  0  0  0
   38.7930   23.2240   38.5950 C   0  0  0  0  0  3  0  0  0  0  0  0
   39.1960   23.7640   39.4900 H   0  0  0  0  0  0  0  0  0  0  0  0
   39.7600   23.1220   37.5990 O   0  0  0  0  0  0  0  0  0  0  0  0
   39.0010   22.7500   36.4920 C   0  0  0  0  0  3  0  0  0  0  0  0
   38.5620   21.7510   36.7730 H   0  0  0  0  0  0  0  0  0  0  0  0
   38.4740   25.9560   32.2860 O   0  0  0  0  0  0  0  0  0  0  0  0
   37.9250   27.3330   30.1580 O   0  0  0  0  0  0  0  0  0  0  0  0
   37.3000   26.4750   31.1980 P   0  0  1  0  0  0  0  0  0  0  0  0
   36.6880   25.0560   30.4720 O   0  0  0  0  0  0  0  0  0  0  0  0
   37.3910   24.6950   29.8620 H   0  0  0  0  0  0  0  0  0  0  0  0
   36.0490   27.2280   32.0620 O   0  0  0  0  0  0  0  0  0  0  0  0
   35.8310   30.9190   32.1580 C   0  0  0  0  0  0  0  0  0  0  0  0
   36.0070   29.6600   31.5750 C   0  0  0  0  0  0  0  0  0  0  0  0
   35.9160   28.5310   32.4010 C   0  0  0  0  0  0  0  0  0  0  0  0
   35.6620   28.7190   33.7270 N   0  0  0  0  0  0  0  0  0  0  0  0
   35.5000   29.9510   34.2460 C   0  0  0  0  0  0  0  0  0  0  0  0
   35.5850   31.0400   33.4640 N   0  0  0  0  0  0  0  0  0  0  0  0
   35.9130   31.7570   31.4660 H   0  0  0  0  0  0  0  0  0  0  0  0
   36.2090   29.4360   30.5380 H   0  0  0  0  0  0  0  0  0  0  0  0
   35.2980   30.1250   35.2960 H   0  0  0  0  0  0  0  0  0  0  0  0
  1  2  1  0  0  0  0
  2  7  1  0  0  0  0
  3  2  2  0  0  0  0
  3  4  1  0  0  0  0
  4  5  2  0  0  0  0
  5  9  1  0  0  0  0
  5  6  1  0  0  0  0
  6 10  1  0  0  0  0
  7  6  2  0  0  0  0
  8  4  1  0  0  0  0
 11  7  1  6  0  0  0
 11 17  1  0  0  0  0
 11 12  1  0  0  0  0
 12 13  1  0  0  0  0
 12 14  1  0  0  0  0
 14 15  1  0  0  0  0
 16 14  1  0  0  0  0
 17 18  1  0  0  0  0
 17 16  1  0  0  0  0
 19  3  1  0  0  0  0
 21 20  2  6  0  0  0
 21 24  1  0  0  0  0
 21 19  1  0  0  0  0
 22 21  1  0  0  0  0
 23 22  1  0  0  0  0
 24 27  1  0  0  0  0
 25 30  1  0  0  0  0
 26 25  2  0  0  0  0
 26 27  1  0  0  0  0
 27 28  2  0  0  0  0
 28 29  1  0  0  0  0
 29 33  1  0  0  0  0
 30 29  2  0  0  0  0
 31 25  1  0  0  0  0
 32 26  1  0  0  0  0
M  END
>  <minimizedAffinity>
-5.40224791

$$$$

 OpenBabel03272508133D

 33 35  0  0  1  0  0  0  0  0999 V2000
   37.4410   23.9300   32.8610 Cl  0  0  0  0  0  0  0  0  0  0  0  0
   37.7100   25.2190   34.0390 C   0  0  0  0  0  0  0  0  0  0  0  0
   37.3710   26.5550   33.8170 C   0  0  0  0  0  0  0  0  0  0  0  0
   37.6380   27.4700   34.8330 C   0  0  0  0  0  0  0  0  0  0  0  0
   38.2170   27.0460   36.0060 C   0  0  0  0  0  0  0  0  0  0  0  0
   38.5570   25.7470   36.2440 C   0  0  0  0  0  0  0  0  0  0  0  0
   38.3000   24.8370   35.2540 C   0  0  0  0  0  0  0  0  0  0  0  0
   37.3370   28.4710   34.5570 H   0  0  0  0  0  0  0  0  0  0  0  0
   38.3870   27.8380   36.7410 H   0  0  0  0  0  0  0  0  0  0  0  0
   39.0080   25.5060   37.1950 H   0  0  0  0  0  0  0  0  0  0  0  0
   38.6620   23.4160   35.4960 C   0  0  2  0  0  3  0  0  0  0  0  0
   38.6740   23.0640   36.9760 C   0  0  0  0  0  3  0  0  0  0  0  0
   38.3100   23.8720   37.6230 H   0  0  0  0  0  0  0  0  0  0  0  0
   40.1370   22.7470   37.2000 C   0  0  0  0  0  3  0  0  0  0  0  0
   40.4820   23.1000   38.2050 H   0  0  0  0  0  0  0  0  0  0  0  0
   40.8230   23.4020   36.1800 O   0  0  0  0  0  0  0  0  0  0  0  0
   40.0470   23.0990   35.0640 C   0  0  0  0  0  3  0  0  0  0  0  0
   40.1060   21.9770   34.9750 H   0  0  0  0  0  0  0  0  0  0  0  0
   36.8080   26.7510   32.5870 O   0  0  0  0  0  0  0  0  0  0  0  0
   38.6000   27.9450   31.1430 O   0  0  0  0  0  0  0  0  0  0  0  0
   37.1500   27.9600   31.4670 P   0  0  1  0  0  0  0  0  0  0  0  0
   36.2510   27.5600   30.0710 O   0  0  0  0  0  0  0  0  0  0  0  0
   36.6760   26.7600   29.6510 H   0  0  0  0  0  0  0  0  0  0  0  0
   36.5860   29.4410   32.0730 O   0  0  0  0  0  0  0  0  0  0  0  0
   34.1870   30.5050   34.6790 C   0  0  0  0  0  0  0  0  0  0  0  0
   35.4340   30.3800   34.0590 C   0  0  0  0  0  0  0  0  0  0  0  0
   35.5020   29.6850   32.8440 C   0  0  0  0  0  0  0  0  0  0  0  0
   34.3490   29.1670   32.3300 N   0  0  0  0  0  0  0  0  0  0  0  0
   33.1690   29.3110   32.9630 C   0  0  0  0  0  0  0  0  0  0  0  0
   33.0920   29.9760   34.1270 N   0  0  0  0  0  0  0  0  0  0  0  0
   34.1980   31.0540   35.6200 H   0  0  0  0  0  0  0  0  0  0  0  0
   36.3840   30.7610   34.4050 H   0  0  0  0  0  0  0  0  0  0  0  0
   32.2410   28.9100   32.5740 H   0  0  0  0  0  0  0  0  0  0  0  0
  1  2  1  0  0  0  0
  2  7  1  0  0  0  0
  3  2  2  0  0  0  0
  3  4  1  0  0  0  0
  4  5  2  0  0  0  0
  5  6  1  0  0  0  0
  5  9  1  0  0  0  0
  6 10  1  0  0  0  0
  7  6  2  0  0  0  0
  8  4  1  0  0  0  0
 11  7  1  1  0  0  0
 11 12  1  0  0  0  0
 12 14  1  0  0  0  0
 12 13  1  0  0  0  0
 14 15  1  0  0  0  0
 16 14  1  0  0  0  0
 17 11  1  0  0  0  0
 17 16  1  0  0  0  0
 18 17  1  0  0  0  0
 19  3  1  0  0  0  0
 21 20  2  6  0  0  0
 21 24  1  0  0  0  0
 21 19  1  0  0  0  0
 22 21  1  0  0  0  0
 23 22  1  0  0  0  0
 24 27  1  0  0  0  0
 25 31  1  0  0  0  0
 26 32  1  0  0  0  0
 26 25  2  0  0  0  0
 27 26  1  0  0  0  0
 28 27  2  0  0  0  0
 28 29  1  0  0  0  0
 29 30  2  0  0  0  0
 30 25  1  0  0  0  0
 33 29  1  0  0  0  0
M  END
>  <minimizedAffinity>
-5.25390244

$$$$

 OpenBabel03272508133D

 33 35  0  0  1  0  0  0  0  0999 V2000
   38.2660   22.5480   34.0570 Cl  0  0  0  0  0  0  0  0  0  0  0  0
   38.2720   24.2460   34.5470 C   0  0  0  0  0  0  0  0  0  0  0  0
   38.3830   25.3100   33.6500 C   0  0  0  0  0  0  0  0  0  0  0  0
   38.3740   26.6020   34.1720 C   0  0  0  0  0  0  0  0  0  0  0  0
   38.2580   26.7950   35.5280 C   0  0  0  0  0  0  0  0  0  0  0  0
   38.1490   25.7700   36.4220 C   0  0  0  0  0  0  0  0  0  0  0  0
   38.1560   24.4960   35.9220 C   0  0  0  0  0  0  0  0  0  0  0  0
   38.4650   27.3470   33.3930 H   0  0  0  0  0  0  0  0  0  0  0  0
   38.2610   27.8440   35.8400 H   0  0  0  0  0  0  0  0  0  0  0  0
   38.0620   26.0170   37.4700 H   0  0  0  0  0  0  0  0  0  0  0  0
   38.0370   23.3660   36.8810 C   0  0  2  0  0  3  0  0  0  0  0  0
   37.7060   23.8340   38.2900 C   0  0  0  0  0  3  0  0  0  0  0  0
   37.4990   24.9090   38.3600 H   0  0  0  0  0  0  0  0  0  0  0  0
   38.9530   23.4270   39.0450 C   0  0  0  0  0  3  0  0  0  0  0  0
   39.2210   24.1810   39.8290 H   0  0  0  0  0  0  0  0  0  0  0  0
   39.9570   23.3280   38.0860 O   0  0  0  0  0  0  0  0  0  0  0  0
   39.3160   22.6340   37.0620 C   0  0  0  0  0  3  0  0  0  0  0  0
   39.0540   21.6370   37.5180 H   0  0  0  0  0  0  0  0  0  0  0  0
   38.4860   24.8900   32.3530 O   0  0  0  0  0  0  0  0  0  0  0  0
   36.9850   26.4780   30.9580 O   0  0  0  0  0  0  0  0  0  0  0  0
   37.3580   25.0490   31.1150 P   0  0  1  0  0  0  0  0  0  0  0  0
   38.1490   24.5080   29.7010 O   0  0  0  0  0  0  0  0  0  0  0  0
   38.8300   25.1930   29.4510 H   0  0  0  0  0  0  0  0  0  0  0  0
   36.0480   24.0180   31.4340 O   0  0  0  0  0  0  0  0  0  0  0  0
   35.3350   20.4690   32.1970 C   0  0  0  0  0  0  0  0  0  0  0  0
   35.1490   21.8540   32.2500 C   0  0  0  0  0  0  0  0  0  0  0  0
   36.0340   22.6690   31.5300 C   0  0  0  0  0  0  0  0  0  0  0  0
   37.0290   22.0690   30.8170 N   0  0  0  0  0  0  0  0  0  0  0  0
   37.1710   20.7290   30.7950 C   0  0  0  0  0  0  0  0  0  0  0  0
   36.3290   19.9400   31.4800 N   0  0  0  0  0  0  0  0  0  0  0  0
   34.6170   19.8900   32.7760 H   0  0  0  0  0  0  0  0  0  0  0  0
   34.3870   22.3980   32.7900 H   0  0  0  0  0  0  0  0  0  0  0  0
   37.9540   20.2310   30.2360 H   0  0  0  0  0  0  0  0  0  0  0  0
  1  2  1  0  0  0  0
  2  7  1  0  0  0  0
  3  4  1  0  0  0  0
  3  2  2  0  0  0  0
  4  5  2  0  0  0  0
  5  9  1  0  0  0  0
  5  6  1  0  0  0  0
  6 10  1  0  0  0  0
  7  6  2  0  0  0  0
  8  4  1  0  0  0  0
 11  7  1  6  0  0  0
 11 17  1  0  0  0  0
 11 12  1  0  0  0  0
 12 13  1  0  0  0  0
 12 14  1  0  0  0  0
 14 15  1  0  0  0  0
 16 14  1  0  0  0  0
 17 18  1  0  0  0  0
 17 16  1  0  0  0  0
 19  3  1  0  0  0  0
 21 20  2  6  0  0  0
 21 24  1  0  0  0  0
 21 19  1  0  0  0  0
 22 21  1  0  0  0  0
 23 22  1  0  0  0  0
 24 27  1  0  0  0  0
 25 26  1  0  0  0  0
 25 31  1  0  0  0  0
 26 32  1  0  0  0  0
 27 26  2  0  0  0  0
 28 27  1  0  0  0  0
 29 28  2  0  0  0  0
 29 30  1  0  0  0  0
 30 25  2  0  0  0  0
 33 29  1  0  0  0  0
M  END
>  <minimizedAffinity>
-5.20027161

$$$$

 OpenBabel03272508133D

 33 35  0  0  1  0  0  0  0  0999 V2000
   35.6210   29.3020   34.5400 Cl  0  0  0  0  0  0  0  0  0  0  0  0
   36.3050   28.9270   32.9550 C   0  0  0  0  0  0  0  0  0  0  0  0
   37.0190   27.7600   32.6760 C   0  0  0  0  0  0  0  0  0  0  0  0
   37.5050   27.5890   31.3810 C   0  0  0  0  0  0  0  0  0  0  0  0
   37.2750   28.5530   30.4280 C   0  0  0  0  0  0  0  0  0  0  0  0
   36.5810   29.7000   30.6780 C   0  0  0  0  0  0  0  0  0  0  0  0
   36.0980   29.8810   31.9460 C   0  0  0  0  0  0  0  0  0  0  0  0
   38.0390   26.6550   31.2760 H   0  0  0  0  0  0  0  0  0  0  0  0
   37.6960   28.3280   29.4440 H   0  0  0  0  0  0  0  0  0  0  0  0
   36.4500   30.4020   29.8670 H   0  0  0  0  0  0  0  0  0  0  0  0
   35.3400   31.1250   32.2380 C   0  0  2  0  0  3  0  0  0  0  0  0
   34.1120   31.2760   31.3520 C   0  0  0  0  0  3  0  0  0  0  0  0
   33.9150   30.4010   30.7190 H   0  0  0  0  0  0  0  0  0  0  0  0
   34.4660   32.5110   30.5530 C   0  0  0  0  0  3  0  0  0  0  0  0
   34.1040   32.4310   29.4950 H   0  0  0  0  0  0  0  0  0  0  0  0
   35.8540   32.6020   30.5980 O   0  0  0  0  0  0  0  0  0  0  0  0
   36.1200   32.3520   31.9420 C   0  0  0  0  0  3  0  0  0  0  0  0
   35.6120   33.1960   32.4920 H   0  0  0  0  0  0  0  0  0  0  0  0
   37.1260   26.9420   33.7670 O   0  0  0  0  0  0  0  0  0  0  0  0
   39.6970   27.1700   34.0200 O   0  0  0  0  0  0  0  0  0  0  0  0
   38.4930   26.6200   34.6950 P   0  0  1  0  0  0  0  0  0  0  0  0
   38.2460   27.4380   36.1740 O   0  0  0  0  0  0  0  0  0  0  0  0
   38.3370   28.4170   36.0020 H   0  0  0  0  0  0  0  0  0  0  0  0
   38.5650   24.9520   35.0000 O   0  0  0  0  0  0  0  0  0  0  0  0
   39.8010   22.8150   37.7530 C   0  0  0  0  0  0  0  0  0  0  0  0
   39.7560   23.3360   36.4560 C   0  0  0  0  0  0  0  0  0  0  0  0
   38.7930   24.3130   36.1690 C   0  0  0  0  0  0  0  0  0  0  0  0
   37.9520   24.7050   37.1690 N   0  0  0  0  0  0  0  0  0  0  0  0
   38.0310   24.1750   38.4050 C   0  0  0  0  0  0  0  0  0  0  0  0
   38.9500   23.2390   38.6910 N   0  0  0  0  0  0  0  0  0  0  0  0
   40.5690   22.0600   37.9150 H   0  0  0  0  0  0  0  0  0  0  0  0
   40.3860   23.0760   35.6180 H   0  0  0  0  0  0  0  0  0  0  0  0
   37.3750   24.4710   39.2140 H   0  0  0  0  0  0  0  0  0  0  0  0
  2  1  1  0  0  0  0
  3  2  1  0  0  0  0
  3 19  1  0  0  0  0
  4  3  2  0  0  0  0
  5  6  2  0  0  0  0
  5  4  1  0  0  0  0
  6  7  1  0  0  0  0
  7  2  2  0  0  0  0
  8  4  1  0  0  0  0
  9  5  1  0  0  0  0
 10  6  1  0  0  0  0
 11  7  1  6  0  0  0
 12 11  1  0  0  0  0
 13 12  1  0  0  0  0
 14 16  1  0  0  0  0
 14 12  1  0  0  0  0
 15 14  1  0  0  0  0
 16 17  1  0  0  0  0
 17 11  1  0  0  0  0
 17 18  1  0  0  0  0
 19 21  1  0  0  0  0
 21 20  2  6  0  0  0
 21 24  1  0  0  0  0
 21 22  1  0  0  0  0
 23 22  1  0  0  0  0
 24 27  1  0  0  0  0
 25 31  1  0  0  0  0
 25 30  1  0  0  0  0
 26 25  2  0  0  0  0
 27 26  1  0  0  0  0
 27 28  2  0  0  0  0
 28 29  1  0  0  0  0
 29 30  2  0  0  0  0
 29 33  1  0  0  0  0
 32 26  1  0  0  0  0
M  END
>  <minimizedAffinity>
-5.18703985

$$$$

 OpenBabel03272508133D

 33 35  0  0  1  0  0  0  0  0999 V2000
   38.9300   25.5360   33.4100 Cl  0  0  0  0  0  0  0  0  0  0  0  0
   37.4640   25.2860   32.4560 C   0  0  0  0  0  0  0  0  0  0  0  0
   37.0760   24.0460   31.9430 C   0  0  0  0  0  0  0  0  0  0  0  0
   35.8940   23.9890   31.2070 C   0  0  0  0  0  0  0  0  0  0  0  0
   35.1530   25.1300   31.0080 C   0  0  0  0  0  0  0  0  0  0  0  0
   35.5130   26.3500   31.5000 C   0  0  0  0  0  0  0  0  0  0  0  0
   36.6720   26.4200   32.2240 C   0  0  0  0  0  0  0  0  0  0  0  0
   35.6890   22.9860   30.8590 H   0  0  0  0  0  0  0  0  0  0  0  0
   34.2430   24.9830   30.4180 H   0  0  0  0  0  0  0  0  0  0  0  0
   34.8680   27.1920   31.2920 H   0  0  0  0  0  0  0  0  0  0  0  0
   37.0800   27.7410   32.7690 C   0  0  2  0  0  3  0  0  0  0  0  0
   36.6150   27.9460   34.2030 C   0  0  0  0  0  3  0  0  0  0  0  0
   36.1520   27.0560   34.6470 H   0  0  0  0  0  0  0  0  0  0  0  0
   35.6430   29.0960   34.0450 C   0  0  0  0  0  3  0  0  0  0  0  0
   34.7630   28.9840   34.7300 H   0  0  0  0  0  0  0  0  0  0  0  0
   35.2420   29.0670   32.7120 O   0  0  0  0  0  0  0  0  0  0  0  0
   36.4500   28.8760   32.0470 C   0  0  0  0  0  3  0  0  0  0  0  0
   37.0580   29.7920   32.2970 H   0  0  0  0  0  0  0  0  0  0  0  0
   37.9580   23.0520   32.2620 O   0  0  0  0  0  0  0  0  0  0  0  0
   36.6710   20.8020   32.1800 O   0  0  0  0  0  0  0  0  0  0  0  0
   37.6380   21.5750   33.0030 P   0  0  1  0  0  0  0  0  0  0  0  0
   39.1330   20.7510   33.0480 O   0  0  0  0  0  0  0  0  0  0  0  0
   39.3580   20.4720   32.1170 H   0  0  0  0  0  0  0  0  0  0  0  0
   37.1250   21.8620   34.5950 O   0  0  0  0  0  0  0  0  0  0  0  0
   38.3550   23.4070   37.7220 C   0  0  0  0  0  0  0  0  0  0  0  0
   37.4180   23.0750   36.7390 C   0  0  0  0  0  0  0  0  0  0  0  0
   37.8460   22.3000   35.6520 C   0  0  0  0  0  0  0  0  0  0  0  0
   39.1520   21.9120   35.6100 N   0  0  0  0  0  0  0  0  0  0  0  0
   40.0210   22.2560   36.5800 C   0  0  0  0  0  0  0  0  0  0  0  0
   39.6220   22.9970   37.6250 N   0  0  0  0  0  0  0  0  0  0  0  0
   37.9640   24.0100   38.5400 H   0  0  0  0  0  0  0  0  0  0  0  0
   36.3720   23.3450   36.7060 H   0  0  0  0  0  0  0  0  0  0  0  0
   41.0630   21.9590   36.5680 H   0  0  0  0  0  0  0  0  0  0  0  0
  2  1  1  0  0  0  0
  3 19  1  0  0  0  0
  3  2  2  0  0  0  0
  4  3  1  0  0  0  0
  5  4  2  0  0  0  0
  5  6  1  0  0  0  0
  6  7  2  0  0  0  0
  7  2  1  0  0  0  0
  8  4  1  0  0  0  0
  9  5  1  0  0  0  0
 10  6  1  0  0  0  0
 11  7  1  6  0  0  0
 11 12  1  0  0  0  0
 12 13  1  0  0  0  0
 14 12  1  0  0  0  0
 14 15  1  0  0  0  0
 16 14  1  0  0  0  0
 17 18  1  0  0  0  0
 17 16  1  0  0  0  0
 17 11  1  0  0  0  0
 19 21  1  0  0  0  0
 21 20  2  6  0  0  0
 21 22  1  0  0  0  0
 21 24  1  0  0  0  0
 23 22  1  0  0  0  0
 24 27  1  0  0  0  0
 25 31  1  0  0  0  0
 26 25  2  0  0  0  0
 27 26  1  0  0  0  0
 28 27  2  0  0  0  0
 28 29  1  0  0  0  0
 29 30  2  0  0  0  0
 30 25  1  0  0  0  0
 32 26  1  0  0  0  0
 33 29  1  0  0  0  0
M  END
>  <minimizedAffinity>
-5.14444876

$$$$

 OpenBabel03272508133D

 33 35  0  0  1  0  0  0  0  0999 V2000
   40.3520   27.0760   31.4890 Cl  0  0  0  0  0  0  0  0  0  0  0  0
   39.4660   27.0660   33.0180 C   0  0  0  0  0  0  0  0  0  0  0  0
   40.0830   27.0580   34.2700 C   0  0  0  0  0  0  0  0  0  0  0  0
   39.2640   27.0500   35.3980 C   0  0  0  0  0  0  0  0  0  0  0  0
   37.8970   27.0510   35.2540 C   0  0  0  0  0  0  0  0  0  0  0  0
   37.2740   27.0590   34.0410 C   0  0  0  0  0  0  0  0  0  0  0  0
   38.0670   27.0660   32.9250 C   0  0  0  0  0  0  0  0  0  0  0  0
   39.8430   27.0450   36.3110 H   0  0  0  0  0  0  0  0  0  0  0  0
   37.3410   27.0450   36.1960 H   0  0  0  0  0  0  0  0  0  0  0  0
   36.1930   27.0580   34.0250 H   0  0  0  0  0  0  0  0  0  0  0  0
   37.4050   27.0750   31.5950 C   0  0  2  0  0  3  0  0  0  0  0  0
   35.9110   27.3440   31.6920 C   0  0  0  0  0  3  0  0  0  0  0  0
   35.5740   27.5970   32.7050 H   0  0  0  0  0  0  0  0  0  0  0  0
   35.3340   26.0370   31.1920 C   0  0  0  0  0  3  0  0  0  0  0  0
   34.4050   25.7600   31.7520 H   0  0  0  0  0  0  0  0  0  0  0  0
   36.3340   25.0880   31.3850 O   0  0  0  0  0  0  0  0  0  0  0  0
   37.4650   25.7540   30.9190 C   0  0  0  0  0  3  0  0  0  0  0  0
   37.2510   25.9420   29.8280 H   0  0  0  0  0  0  0  0  0  0  0  0
   41.4480   27.0600   34.1790 O   0  0  0  0  0  0  0  0  0  0  0  0
   43.4350   25.8210   33.0660 O   0  0  0  0  0  0  0  0  0  0  0  0
   42.4940   25.7420   34.2130 P   0  0  1  0  0  0  0  0  0  0  0  0
   43.3660   25.8870   35.6750 O   0  0  0  0  0  0  0  0  0  0  0  0
   43.9990   26.6530   35.5800 H   0  0  0  0  0  0  0  0  0  0  0  0
   41.5760   24.3160   34.2650 O   0  0  0  0  0  0  0  0  0  0  0  0
   39.8160   22.6820   37.0780 C   0  0  0  0  0  0  0  0  0  0  0  0
   39.9580   23.5240   35.9700 C   0  0  0  0  0  0  0  0  0  0  0  0
   41.2090   23.5830   35.3400 C   0  0  0  0  0  0  0  0  0  0  0  0
   42.2210   22.8180   35.8400 N   0  0  0  0  0  0  0  0  0  0  0  0
   42.0390   22.0210   36.9110 C   0  0  0  0  0  0  0  0  0  0  0  0
   40.8450   21.9570   37.5220 N   0  0  0  0  0  0  0  0  0  0  0  0
   38.8220   22.6790   37.5240 H   0  0  0  0  0  0  0  0  0  0  0  0
   39.2050   24.1540   35.5200 H   0  0  0  0  0  0  0  0  0  0  0  0
   42.8280   21.4050   37.3260 H   0  0  0  0  0  0  0  0  0  0  0  0
  1  2  1  0  0  0  0
  2  3  1  0  0  0  0
  3  4  2  0  0  0  0
  4  8  1  0  0  0  0
  5  4  1  0  0  0  0
  5  9  1  0  0  0  0
  6  5  2  0  0  0  0
  7  2  2  0  0  0  0
  7  6  1  0  0  0  0
 10  6  1  0  0  0  0
 11 12  1  0  0  0  0
 11  7  1  1  0  0  0
 12 13  1  0  0  0  0
 14 16  1  0  0  0  0
 14 12  1  0  0  0  0
 14 15  1  0  0  0  0
 17 16  1  0  0  0  0
 17 11  1  0  0  0  0
 18 17  1  0  0  0  0
 19 21  1  0  0  0  0
 19  3  1  0  0  0  0
 21 20  2  6  0  0  0
 21 24  1  0  0  0  0
 21 22  1  0  0  0  0
 23 22  1  0  0  0  0
 24 27  1  0  0  0  0
 25 30  1  0  0  0  0
 25 31  1  0  0  0  0
 26 25  2  0  0  0  0
 27 28  2  0  0  0  0
 27 26  1  0  0  0  0
 28 29  1  0  0  0  0
 29 33  1  0  0  0  0
 29 30  2  0  0  0  0
 32 26  1  0  0  0  0
M  END
>  <minimizedAffinity>
-5.08611155

$$$$

 OpenBabel03272508133D

 33 35  0  0  1  0  0  0  0  0999 V2000
   39.6220   23.7740   33.8130 Cl  0  0  0  0  0  0  0  0  0  0  0  0
   39.2400   23.8020   35.5380 C   0  0  0  0  0  0  0  0  0  0  0  0
   38.2690   24.6310   36.1020 C   0  0  0  0  0  0  0  0  0  0  0  0
   38.0680   24.5520   37.4790 C   0  0  0  0  0  0  0  0  0  0  0  0
   38.8140   23.6770   38.2330 C   0  0  0  0  0  0  0  0  0  0  0  0
   39.7670   22.8580   37.7020 C   0  0  0  0  0  0  0  0  0  0  0  0
   39.9750   22.9260   36.3510 C   0  0  0  0  0  0  0  0  0  0  0  0
   37.2970   25.2340   37.8090 H   0  0  0  0  0  0  0  0  0  0  0  0
   38.5830   23.6880   39.3020 H   0  0  0  0  0  0  0  0  0  0  0  0
   40.3040   22.2030   38.3730 H   0  0  0  0  0  0  0  0  0  0  0  0
   41.0090   22.0410   35.7550 C   0  0  2  0  0  3  0  0  0  0  0  0
   41.6900   21.1630   36.7940 C   0  0  0  0  0  3  0  0  0  0  0  0
   41.2430   21.2370   37.7940 H   0  0  0  0  0  0  0  0  0  0  0  0
   43.1100   21.6850   36.7460 C   0  0  0  0  0  3  0  0  0  0  0  0
   43.5760   21.6940   37.7650 H   0  0  0  0  0  0  0  0  0  0  0  0
   43.0190   22.9740   36.2290 O   0  0  0  0  0  0  0  0  0  0  0  0
   42.1390   22.8010   35.1640 C   0  0  0  0  0  3  0  0  0  0  0  0
   42.6740   22.0920   34.4690 H   0  0  0  0  0  0  0  0  0  0  0  0
   37.6500   25.4170   35.1710 O   0  0  0  0  0  0  0  0  0  0  0  0
   36.4740   27.7020   34.8200 O   0  0  0  0  0  0  0  0  0  0  0  0
   37.8170   27.0750   34.9310 P   0  0  1  0  0  0  0  0  0  0  0  0
   38.6060   27.6630   36.3270 O   0  0  0  0  0  0  0  0  0  0  0  0
   37.9570   27.6260   37.0850 H   0  0  0  0  0  0  0  0  0  0  0  0
   38.8210   27.3340   33.5880 O   0  0  0  0  0  0  0  0  0  0  0  0
   42.4030   26.5100   33.9940 C   0  0  0  0  0  0  0  0  0  0  0  0
   41.1130   26.8580   34.4070 C   0  0  0  0  0  0  0  0  0  0  0  0
   40.1220   27.0070   33.4260 C   0  0  0  0  0  0  0  0  0  0  0  0
   40.4690   26.8060   32.1220 N   0  0  0  0  0  0  0  0  0  0  0  0
   41.7250   26.4720   31.7700 C   0  0  0  0  0  0  0  0  0  0  0  0
   42.6810   26.3260   32.7010 N   0  0  0  0  0  0  0  0  0  0  0  0
   43.1280   26.4090   34.8010 H   0  0  0  0  0  0  0  0  0  0  0  0
   40.7670   27.0320   35.4150 H   0  0  0  0  0  0  0  0  0  0  0  0
   42.0230   26.3070   30.7420 H   0  0  0  0  0  0  0  0  0  0  0  0
  1  2  1  0  0  0  0
  2  3  2  0  0  0  0
  2  7  1  0  0  0  0
  3  4  1  0  0  0  0
  4  8  1  0  0  0  0
  4  5  2  0  0  0  0
  5  9  1  0  0  0  0
  6  5  1  0  0  0  0
  6 10  1  0  0  0  0
  7  6  2  0  0  0  0
 11  7  1  1  0  0  0
 11 12  1  0  0  0  0
 12 13  1  0  0  0  0
 14 12  1  0  0  0  0
 14 15  1  0  0  0  0
 16 14  1  0  0  0  0
 17 11  1  0  0  0  0
 17 16  1  0  0  0  0
 18 17  1  0  0  0  0
 19  3  1  0  0  0  0
 21 20  2  6  0  0  0
 21 19  1  0  0  0  0
 21 22  1  0  0  0  0
 22 23  1  0  0  0  0
 24 21  1  0  0  0  0
 25 26  1  0  0  0  0
 25 31  1  0  0  0  0
 26 32  1  0  0  0  0
 27 24  1  0  0  0  0
 27 26  2  0  0  0  0
 28 27  1  0  0  0  0
 29 28  2  0  0  0  0
 29 30  1  0  0  0  0
 30 25  2  0  0  0  0
 33 29  1  0  0  0  0
M  END
>  <minimizedAffinity>
-5.08441544

$$$$
