
 OpenBabel03272505043D

 44 47  0  0  1  0  0  0  0  0999 V2000
   37.8750   32.4880   43.3550 C   0  0  2  0  0  0  0  0  0  0  0  0
   36.4380   32.6640   42.7850 C   0  0  0  0  0  0  0  0  0  0  0  0
   36.0120   31.4260   42.1090 C   0  0  0  0  0  0  0  0  0  0  0  0
   36.7610   31.2450   40.8150 C   0  0  0  0  0  0  0  0  0  0  0  0
   38.0330   31.9970   40.8940 C   0  0  0  0  0  0  0  0  0  0  0  0
   38.6720   31.9290   42.2540 C   0  0  2  0  0  0  0  0  0  0  0  0
   38.0950   33.5060   43.7230 H   0  0  0  0  0  0  0  0  0  0  0  0
   35.8050   32.8450   43.6850 H   0  0  0  0  0  0  0  0  0  0  0  0
   36.3670   33.5100   42.1150 H   0  0  0  0  0  0  0  0  0  0  0  0
   36.1980   30.4610   42.5740 H   0  0  0  0  0  0  0  0  0  0  0  0
   34.9120   31.4910   41.9420 H   0  0  0  0  0  0  0  0  0  0  0  0
   36.8440   30.2160   40.4520 H   0  0  0  0  0  0  0  0  0  0  0  0
   36.1110   31.7520   40.0370 H   0  0  0  0  0  0  0  0  0  0  0  0
   38.7820   31.7870   40.1120 H   0  0  0  0  0  0  0  0  0  0  0  0
   37.7870   33.0870   40.7140 H   0  0  0  0  0  0  0  0  0  0  0  0
   39.4960   32.7100   42.1170 H   0  0  0  0  0  0  0  0  0  0  0  0
   39.4930   30.7370   42.5330 C   0  0  2  0  0  0  0  0  0  0  0  0
   40.6990   30.6750   41.5990 C   0  0  0  0  0  0  0  0  0  0  0  0
   40.3980   30.5270   40.5370 H   0  0  0  0  0  0  0  0  0  0  0  0
   41.2150   29.2910   42.0190 C   0  0  0  0  0  0  0  0  0  0  0  0
   42.0940   29.3630   42.6890 H   0  0  0  0  0  0  0  0  0  0  0  0
   40.1400   28.6130   42.5670 O   0  0  0  0  0  0  0  0  0  0  0  0
   38.9790   29.3780   42.3230 C   0  0  0  0  0  0  0  0  0  0  0  0
   38.6420   29.1080   41.3190 H   0  0  0  0  0  0  0  0  0  0  0  0
   37.7310   31.6110   44.3850 O   0  0  0  0  0  0  0  0  0  0  0  0
   36.0710   30.1060   46.2330 Cl  0  0  0  0  0  0  0  0  0  0  0  0
   37.3700   31.1590   46.7090 C   0  0  0  0  0  0  0  0  0  0  0  0
   37.6320   31.2950   48.0460 C   0  0  0  0  0  0  0  0  0  0  0  0
   38.6670   32.1420   48.3840 C   0  0  0  0  0  0  0  0  0  0  0  0
   39.3720   32.7960   47.3940 C   0  0  0  0  0  0  0  0  0  0  0  0
   39.0800   32.6360   46.0640 C   0  0  0  0  0  0  0  0  0  0  0  0
   38.0590   31.8010   45.7180 C   0  0  0  0  0  0  0  0  0  0  0  0
   38.9140   32.2840   49.4320 H   0  0  0  0  0  0  0  0  0  0  0  0
   40.1930   33.4690   47.6660 H   0  0  0  0  0  0  0  0  0  0  0  0
   39.6660   33.1730   45.3390 H   0  0  0  0  0  0  0  0  0  0  0  0
   37.5580   29.8510   50.0940 C   0  0  0  0  0  0  0  0  0  0  0  0
   36.8830   30.5990   49.1050 C   0  0  0  0  0  0  0  0  0  0  0  0
   35.4980   30.6550   49.1610 C   0  0  0  0  0  0  0  0  0  0  0  0
   34.8700   29.9890   50.1610 N   0  0  0  0  0  0  0  0  0  0  0  0
   35.5280   29.2870   51.0870 C   0  0  0  0  0  0  0  0  0  0  0  0
   36.8700   29.2120   51.0610 N   0  0  0  0  0  0  0  0  0  0  0  0
   38.6240   29.8550   49.9820 H   0  0  0  0  0  0  0  0  0  0  0  0
   34.9560   31.2200   48.4190 H   0  0  0  0  0  0  0  0  0  0  0  0
   35.0690   28.7420   51.8990 H   0  0  0  0  0  0  0  0  0  0  0  0
  1  7  1  1  0  0  0
  1 25  1  0  0  0  0
  2  1  1  0  0  0  0
  2  8  1  0  0  0  0
  3 10  1  0  0  0  0
  3  2  1  0  0  0  0
  4  5  1  0  0  0  0
  4  3  1  0  0  0  0
  5  6  1  0  0  0  0
  6 16  1  6  0  0  0
  6 17  1  0  0  0  0
  6  1  1  0  0  0  0
  9  2  1  0  0  0  0
 11  3  1  0  0  0  0
 12  4  1  0  0  0  0
 13  4  1  0  0  0  0
 14  5  1  0  0  0  0
 15  5  1  0  0  0  0
 17 18  1  6  0  0  0
 18 20  1  0  0  0  0
 19 18  1  0  0  0  0
 20 22  1  0  0  0  0
 20 21  1  0  0  0  0
 23 17  1  0  0  0  0
 23 22  1  0  0  0  0
 24 23  1  0  0  0  0
 25 32  1  0  0  0  0
 26 27  1  0  0  0  0
 27 28  1  0  0  0  0
 28 29  2  0  0  0  0
 28 37  1  0  0  0  0
 29 33  1  0  0  0  0
 30 34  1  0  0  0  0
 30 29  1  0  0  0  0
 31 30  2  0  0  0  0
 32 31  1  0  0  0  0
 32 27  2  0  0  0  0
 35 31  1  0  0  0  0
 36 41  1  0  0  0  0
 37 38  1  0  0  0  0
 37 36  2  0  0  0  0
 38 39  2  0  0  0  0
 39 40  1  0  0  0  0
 40 44  1  0  0  0  0
 41 40  2  0  0  0  0
 42 36  1  0  0  0  0
 43 38  1  0  0  0  0
M  END
>  <minimizedAffinity>
-5.75160694

>  <minimizedRMSD>
2.28701115

$$$$
