
 OpenBabel03272505423D

 44 47  0  0  1  0  0  0  0  0999 V2000
   35.7490   30.2220   46.5170 C   0  0  0  0  0  0  0  0  0  0  0  0
   34.4150   29.8220   46.5920 C   0  0  0  0  0  0  0  0  0  0  0  0
   33.7510   29.4590   45.4340 C   0  0  0  0  0  0  0  0  0  0  0  0
   34.3350   29.4660   44.1840 C   0  0  0  0  0  0  0  0  0  0  0  0
   35.6650   29.8650   44.1070 C   0  0  0  0  0  0  0  0  0  0  0  0
   36.3110   30.2240   45.2800 C   0  0  0  0  0  0  0  0  0  0  0  0
   33.8760   29.7860   47.5330 H   0  0  0  0  0  0  0  0  0  0  0  0
   32.7140   29.1520   45.5210 H   0  0  0  0  0  0  0  0  0  0  0  0
   33.7650   29.1710   43.3090 H   0  0  0  0  0  0  0  0  0  0  0  0
   36.0710   29.8540   43.1200 H   0  0  0  0  0  0  0  0  0  0  0  0
   37.6570   30.6010   45.0060 N   0  0  0  0  0  0  0  0  0  0  0  0
   38.9590   30.0060   45.0390 C   0  0  0  0  0  0  0  0  0  0  0  0
   39.8340   30.8770   45.9100 C   0  0  0  0  0  0  0  0  0  0  0  0
   40.0700   32.1130   45.2020 N   0  0  0  0  0  0  0  0  0  0  0  0
   39.0710   32.4300   44.2400 C   0  0  0  0  0  0  0  0  0  0  0  0
   37.6940   31.9590   44.5660 C   0  0  0  0  0  0  0  0  0  0  0  0
   38.9140   28.9630   45.3890 H   0  0  0  0  0  0  0  0  0  0  0  0
   39.4050   30.0580   44.0220 H   0  0  0  0  0  0  0  0  0  0  0  0
   39.7610   30.8530   46.9490 H   0  0  0  0  0  0  0  0  0  0  0  0
   40.8340   30.3330   45.7520 H   0  0  0  0  0  0  0  0  0  0  0  0
   40.9990   32.2520   44.8050 H   0  0  0  0  0  0  0  0  0  0  0  0
   39.0060   33.5600   44.2270 H   0  0  0  0  0  0  0  0  0  0  0  0
   39.4100   32.1780   43.2130 H   0  0  0  0  0  0  0  0  0  0  0  0
   37.0720   32.6810   45.0830 H   0  0  0  0  0  0  0  0  0  0  0  0
   37.2010   31.9010   43.5420 H   0  0  0  0  0  0  0  0  0  0  0  0
   37.1410   30.1600   49.8860 C   0  0  0  0  0  0  0  0  0  0  0  0
   37.8130   31.3910   49.9600 C   0  0  0  0  0  0  0  0  0  0  0  0
   37.7830   32.2290   48.8450 C   0  0  0  0  0  0  0  0  0  0  0  0
   37.0900   31.7680   47.7700 N   0  0  0  0  0  0  0  0  0  0  0  0
   36.4590   30.6070   47.7090 C   0  0  0  0  0  0  0  0  0  0  0  0
   36.4840   29.7920   48.7800 N   0  0  0  0  0  0  0  0  0  0  0  0
   38.3540   31.7240   50.8300 H   0  0  0  0  0  0  0  0  0  0  0  0
   38.4790   33.5180   48.9020 C   0  0  2  0  0  3  0  0  0  0  0  0
   39.4750   33.7130   47.7850 C   0  0  0  0  0  3  0  0  0  0  0  0
   39.0380   34.1180   46.8540 H   0  0  0  0  0  0  0  0  0  0  0  0
   40.3600   34.7830   48.4030 C   0  0  0  0  0  3  0  0  0  0  0  0
   41.4340   34.5770   48.2240 H   0  0  0  0  0  0  0  0  0  0  0  0
   40.0950   34.8290   49.7450 O   0  0  0  0  0  0  0  0  0  0  0  0
   39.4250   33.6540   50.0900 C   0  0  0  0  0  3  0  0  0  0  0  0
   40.2150   32.8630   50.0690 H   0  0  0  0  0  0  0  0  0  0  0  0
   37.1890   29.2870   51.1140 C   0  0  0  0  0  0  0  0  0  0  0  0
   35.8650   28.9600   51.4580 F   0  0  0  0  0  0  0  0  0  0  0  0
   37.9280   28.2060   50.8410 F   0  0  0  0  0  0  0  0  0  0  0  0
   37.6710   30.0360   52.1580 F   0  0  0  0  0  0  0  0  0  0  0  0
  1  2  1  0  0  0  0
  1 30  1  0  0  0  0
  2  7  1  0  0  0  0
  3  8  1  0  0  0  0
  3  2  2  0  0  0  0
  4  3  1  0  0  0  0
  5  4  2  0  0  0  0
  5  6  1  0  0  0  0
  6  1  2  0  0  0  0
  9  4  1  0  0  0  0
 10  5  1  0  0  0  0
 11 12  1  0  0  0  0
 11  6  1  0  0  0  0
 12 17  1  0  0  0  0
 12 13  1  0  0  0  0
 13 19  1  0  0  0  0
 14 13  1  0  0  0  0
 15 16  1  0  0  0  0
 15 14  1  0  0  0  0
 16 11  1  0  0  0  0
 16 24  1  0  0  0  0
 18 12  1  0  0  0  0
 20 13  1  0  0  0  0
 21 14  1  0  0  0  0
 22 15  1  0  0  0  0
 23 15  1  0  0  0  0
 25 16  1  0  0  0  0
 26 27  1  0  0  0  0
 26 41  1  0  0  0  0
 27 32  1  0  0  0  0
 28 27  2  0  0  0  0
 29 28  1  0  0  0  0
 30 29  2  0  0  0  0
 30 31  1  0  0  0  0
 31 26  2  0  0  0  0
 33 28  1  6  0  0  0
 33 39  1  0  0  0  0
 34 36  1  0  0  0  0
 34 33  1  0  0  0  0
 35 34  1  0  0  0  0
 36 38  1  0  0  0  0
 37 36  1  0  0  0  0
 38 39  1  0  0  0  0
 40 39  1  0  0  0  0
 41 42  1  0  0  0  0
 41 44  1  0  0  0  0
 43 41  1  0  0  0  0
M  END
>  <minimizedAffinity>
-5.80775547

>  <minimizedRMSD>
0.65718317

$$$$
