
 OpenBabel03272508273D

 37 40  0  0  1  0  0  0  0  0999 V2000
   33.7820   28.8370   47.2290 C   0  0  2  0  0  0  0  0  0  0  0  0
   34.4880   28.0900   48.3500 C   0  0  2  0  0  0  0  0  0  0  0  0
   33.5510   27.9310   49.3320 O   0  0  0  0  0  0  0  0  0  0  0  0
   32.2970   27.9820   48.8130 C   0  0  0  0  0  0  0  0  0  0  0  0
   32.4070   28.1640   47.3150 C   0  0  1  0  0  0  0  0  0  0  0  0
   33.6040   29.8880   47.4720 H   0  0  0  0  0  0  0  0  0  0  0  0
   34.8020   27.1210   47.8910 H   0  0  0  0  0  0  0  0  0  0  0  0
   31.7120   27.0860   49.0860 H   0  0  0  0  0  0  0  0  0  0  0  0
   31.7880   28.8910   49.2370 H   0  0  0  0  0  0  0  0  0  0  0  0
   32.4890   27.1690   46.8330 H   0  0  0  0  0  0  0  0  0  0  0  0
   35.5390   30.3730   48.9570 C   0  0  1  0  0  0  0  0  0  0  0  0
   35.6290   28.9410   48.8040 C   0  0  1  0  0  0  0  0  0  0  0  0
   35.7040   29.4820   50.1950 C   0  0  0  0  0  0  0  0  0  0  0  0
   34.6340   30.9900   49.0640 H   0  0  0  0  0  0  0  0  0  0  0  0
   36.6190   28.5450   48.4340 H   0  0  0  0  0  0  0  0  0  0  0  0
   34.8180   29.2720   50.8220 H   0  0  0  0  0  0  0  0  0  0  0  0
   36.6550   29.5010   50.7460 H   0  0  0  0  0  0  0  0  0  0  0  0
   36.7510   31.2640   48.7430 C   0  0  0  0  0  0  0  0  0  0  0  0
   37.0140   32.2380   49.7060 C   0  0  0  0  0  0  0  0  0  0  0  0
   38.1180   33.0390   49.4480 C   0  0  0  0  0  0  0  0  0  0  0  0
   38.8740   32.8560   48.3140 N   0  0  0  0  0  0  0  0  0  0  0  0
   38.5780   31.8970   47.4100 C   0  0  0  0  0  0  0  0  0  0  0  0
   37.5080   31.0940   47.6260 N   0  0  0  0  0  0  0  0  0  0  0  0
   36.3900   32.3360   50.5710 H   0  0  0  0  0  0  0  0  0  0  0  0
   38.3550   33.8070   50.1730 H   0  0  0  0  0  0  0  0  0  0  0  0
   39.2080   31.8010   46.5400 H   0  0  0  0  0  0  0  0  0  0  0  0
   34.3610   28.6480   45.9870 O   0  0  0  0  0  0  0  0  0  0  0  0
   34.3600   27.6740   45.8010 H   0  0  0  0  0  0  0  0  0  0  0  0
   31.4280   28.9460   46.7650 O   0  0  0  0  0  0  0  0  0  0  0  0
   30.1400   28.5450   47.0550 C   0  0  2  0  0  0  0  0  0  0  0  0
   29.7450   27.2810   46.3120 C   0  0  0  0  0  0  0  0  0  0  0  0
   29.9220   26.3660   46.8740 H   0  0  0  0  0  0  0  0  0  0  0  0
   28.2420   27.4900   46.2190 C   0  0  0  0  0  0  0  0  0  0  0  0
   27.7440   27.0820   47.1370 H   0  0  0  0  0  0  0  0  0  0  0  0
   28.0300   28.8470   46.0780 O   0  0  0  0  0  0  0  0  0  0  0  0
   29.1820   29.5300   46.4330 C   0  0  0  0  0  0  0  0  0  0  0  0
   28.9970   30.4300   47.0530 H   0  0  0  0  0  0  0  0  0  0  0  0
  1  5  1  0  0  0  0
  1  6  1  1  0  0  0
  1  2  1  0  0  0  0
  2  7  1  6  0  0  0
  2 12  1  0  0  0  0
  2  3  1  0  0  0  0
  4  8  1  0  0  0  0
  4  9  1  0  0  0  0
  4  3  1  0  0  0  0
  5 10  1  6  0  0  0
  5  4  1  0  0  0  0
 11 14  1  6  0  0  0
 11 13  1  0  0  0  0
 12 15  1  6  0  0  0
 12 11  1  0  0  0  0
 12 13  1  0  0  0  0
 13 17  1  0  0  0  0
 13 16  1  0  0  0  0
 18 11  1  0  0  0  0
 18 19  1  0  0  0  0
 19 24  1  0  0  0  0
 20 19  2  0  0  0  0
 20 25  1  0  0  0  0
 21 20  1  0  0  0  0
 22 23  1  0  0  0  0
 22 21  2  0  0  0  0
 23 18  2  0  0  0  0
 26 22  1  0  0  0  0
 27  1  1  0  0  0  0
 28 27  1  0  0  0  0
 29  5  1  0  0  0  0
 30 29  1  6  0  0  0
 31 32  1  0  0  0  0
 31 30  1  0  0  0  0
 33 31  1  0  0  0  0
 33 34  1  0  0  0  0
 35 33  1  0  0  0  0
 35 36  1  0  0  0  0
 36 37  1  0  0  0  0
 36 30  1  0  0  0  0
M  END
>  <minimizedAffinity>
-5.07414103

>  <minimizedRMSD>
1.21249318

$$$$
