
 OpenBabel03272506443D

 31 33  0  0  1  0  0  0  0  0999 V2000
   32.2420   28.1810   47.5260 C   0  0  2  0  0  0  0  0  0  0  0  0
   33.5100   28.1450   48.3550 C   0  0  1  0  0  0  0  0  0  0  0  0
   34.0870   26.9090   48.1730 O   0  0  0  0  0  0  0  0  0  0  0  0
   33.4180   26.2430   47.1720 C   0  0  0  0  0  0  0  0  0  0  0  0
   32.6870   27.3080   46.3610 C   0  0  1  0  0  0  0  0  0  0  0  0
   31.3920   27.6820   47.9990 H   0  0  0  0  0  0  0  0  0  0  0  0
   33.3150   28.3260   49.4250 H   0  0  0  0  0  0  0  0  0  0  0  0
   34.0520   25.5990   46.5620 H   0  0  0  0  0  0  0  0  0  0  0  0
   32.5940   25.6730   47.6910 H   0  0  0  0  0  0  0  0  0  0  0  0
   33.3670   27.8720   45.6900 H   0  0  0  0  0  0  0  0  0  0  0  0
   31.9600   29.4900   47.1090 O   0  0  0  0  0  0  0  0  0  0  0  0
   32.5090   29.6920   46.3090 H   0  0  0  0  0  0  0  0  0  0  0  0
   34.6350   29.3850   47.6420 S   0  0  0  0  0  0  0  0  0  0  0  0
   37.2060   29.2580   50.6570 C   0  0  0  0  0  0  0  0  0  0  0  0
   37.6330   30.5680   50.8310 C   0  0  0  0  0  0  0  0  0  0  0  0
   37.1080   31.5420   49.9820 C   0  0  0  0  0  0  0  0  0  0  0  0
   36.2160   31.1640   49.0390 N   0  0  0  0  0  0  0  0  0  0  0  0
   35.8150   29.8720   48.8910 C   0  0  0  0  0  0  0  0  0  0  0  0
   36.3080   28.9030   49.7020 N   0  0  0  0  0  0  0  0  0  0  0  0
   37.6230   28.5150   51.3240 H   0  0  0  0  0  0  0  0  0  0  0  0
   38.3300   30.9030   51.5580 H   0  0  0  0  0  0  0  0  0  0  0  0
   37.4200   32.5730   50.0920 H   0  0  0  0  0  0  0  0  0  0  0  0
   31.6080   26.7480   45.6930 O   0  0  0  0  0  0  0  0  0  0  0  0
   31.4780   27.1830   44.3980 C   0  0  1  0  0  3  0  0  0  0  0  0
   30.3020   28.1380   44.3040 C   0  0  0  0  0  3  0  0  0  0  0  0
   29.3690   27.6170   44.0200 H   0  0  0  0  0  0  0  0  0  0  0  0
   30.7830   29.0320   43.1570 C   0  0  0  0  0  3  0  0  0  0  0  0
   30.2420   29.9810   43.1470 H   0  0  0  0  0  0  0  0  0  0  0  0
   32.0910   29.2820   43.5830 O   0  0  0  0  0  0  0  0  0  0  0  0
   32.6050   28.0250   43.8870 C   0  0  0  0  0  3  0  0  0  0  0  0
   33.4070   28.1680   44.6390 H   0  0  0  0  0  0  0  0  0  0  0  0
  1  6  1  1  0  0  0
  1  2  1  0  0  0  0
  2  7  1  1  0  0  0
  3  2  1  0  0  0  0
  4  9  1  0  0  0  0
  4  3  1  0  0  0  0
  5 10  1  6  0  0  0
  5  4  1  0  0  0  0
  5  1  1  0  0  0  0
  8  4  1  0  0  0  0
 11  1  1  0  0  0  0
 12 11  1  0  0  0  0
 13  2  1  0  0  0  0
 13 18  1  0  0  0  0
 14 15  1  0  0  0  0
 14 20  1  0  0  0  0
 15 21  1  0  0  0  0
 16 22  1  0  0  0  0
 16 15  2  0  0  0  0
 17 16  1  0  0  0  0
 18 17  2  0  0  0  0
 18 19  1  0  0  0  0
 19 14  2  0  0  0  0
 23  5  1  0  0  0  0
 24 23  1  1  0  0  0
 25 24  1  0  0  0  0
 26 25  1  0  0  0  0
 27 29  1  0  0  0  0
 27 25  1  0  0  0  0
 28 27  1  0  0  0  0
 29 30  1  0  0  0  0
 30 24  1  0  0  0  0
 30 31  1  0  0  0  0
M  END
>  <minimizedAffinity>
-3.75646162

>  <minimizedRMSD>
0.54530561

$$$$
