
 OpenBabel03272505413D

 44 47  0  0  1  0  0  0  0  0999 V2000
   35.4190   30.3480   46.7600 C   0  0  0  0  0  0  0  0  0  0  0  0
   34.0580   30.2170   47.0330 C   0  0  0  0  0  0  0  0  0  0  0  0
   33.1730   30.0180   45.9890 C   0  0  0  0  0  0  0  0  0  0  0  0
   33.5590   29.9380   44.6660 C   0  0  0  0  0  0  0  0  0  0  0  0
   34.9150   30.0690   44.3910 C   0  0  0  0  0  0  0  0  0  0  0  0
   35.7840   30.2680   45.4530 C   0  0  0  0  0  0  0  0  0  0  0  0
   33.6660   30.2660   48.0430 H   0  0  0  0  0  0  0  0  0  0  0  0
   32.1210   29.9180   46.2300 H   0  0  0  0  0  0  0  0  0  0  0  0
   32.8190   29.7800   43.8870 H   0  0  0  0  0  0  0  0  0  0  0  0
   35.1630   30.0010   43.3550 H   0  0  0  0  0  0  0  0  0  0  0  0
   37.1230   30.3780   44.9810 N   0  0  0  0  0  0  0  0  0  0  0  0
   38.2920   29.5570   44.8860 C   0  0  0  0  0  0  0  0  0  0  0  0
   39.4200   30.2900   45.5730 C   0  0  0  0  0  0  0  0  0  0  0  0
   39.7670   31.4290   44.7560 N   0  0  0  0  0  0  0  0  0  0  0  0
   38.7140   31.8800   43.9120 C   0  0  0  0  0  0  0  0  0  0  0  0
   37.3350   31.6850   44.4470 C   0  0  0  0  0  0  0  0  0  0  0  0
   38.1140   28.5570   45.3100 H   0  0  0  0  0  0  0  0  0  0  0  0
   38.5920   29.4800   43.8180 H   0  0  0  0  0  0  0  0  0  0  0  0
   39.4900   30.3270   46.6120 H   0  0  0  0  0  0  0  0  0  0  0  0
   40.2760   29.5650   45.3240 H   0  0  0  0  0  0  0  0  0  0  0  0
   40.6410   31.3770   44.2330 H   0  0  0  0  0  0  0  0  0  0  0  0
   38.8480   33.0010   43.8300 H   0  0  0  0  0  0  0  0  0  0  0  0
   38.8560   31.5250   42.8710 H   0  0  0  0  0  0  0  0  0  0  0  0
   36.9290   32.5320   44.9890 H   0  0  0  0  0  0  0  0  0  0  0  0
   36.7020   31.6730   43.5020 H   0  0  0  0  0  0  0  0  0  0  0  0
   37.1320   30.0570   49.9640 C   0  0  0  0  0  0  0  0  0  0  0  0
   38.1600   31.0060   49.8470 C   0  0  0  0  0  0  0  0  0  0  0  0
   38.2540   31.7370   48.6620 C   0  0  0  0  0  0  0  0  0  0  0  0
   37.3230   31.4550   47.7120 N   0  0  0  0  0  0  0  0  0  0  0  0
   36.3580   30.5590   47.8310 C   0  0  0  0  0  0  0  0  0  0  0  0
   36.2590   29.8500   48.9710 N   0  0  0  0  0  0  0  0  0  0  0  0
   38.8820   31.2030   50.6230 H   0  0  0  0  0  0  0  0  0  0  0  0
   39.3200   32.7330   48.5210 C   0  0  2  0  0  3  0  0  0  0  0  0
   39.1460   33.9310   49.4230 C   0  0  0  0  0  3  0  0  0  0  0  0
   39.5590   33.7970   50.4390 H   0  0  0  0  0  0  0  0  0  0  0  0
   40.0070   34.9440   48.6860 C   0  0  0  0  0  3  0  0  0  0  0  0
   39.5150   35.9370   48.6370 H   0  0  0  0  0  0  0  0  0  0  0  0
   40.2450   34.4620   47.4280 O   0  0  0  0  0  0  0  0  0  0  0  0
   39.3200   33.4480   47.1740 C   0  0  0  0  0  3  0  0  0  0  0  0
   38.3550   33.9840   47.0020 H   0  0  0  0  0  0  0  0  0  0  0  0
   37.0580   29.2960   51.2640 C   0  0  0  0  0  0  0  0  0  0  0  0
   35.7060   28.9900   51.5040 F   0  0  0  0  0  0  0  0  0  0  0  0
   37.8190   28.2010   51.1610 F   0  0  0  0  0  0  0  0  0  0  0  0
   37.4350   30.1370   52.2800 F   0  0  0  0  0  0  0  0  0  0  0  0
  1  2  1  0  0  0  0
  1 30  1  0  0  0  0
  2  7  1  0  0  0  0
  3  8  1  0  0  0  0
  3  2  2  0  0  0  0
  4  3  1  0  0  0  0
  5  4  2  0  0  0  0
  5  6  1  0  0  0  0
  6  1  2  0  0  0  0
  9  4  1  0  0  0  0
 10  5  1  0  0  0  0
 11  6  1  0  0  0  0
 12 11  1  0  0  0  0
 12 17  1  0  0  0  0
 12 13  1  0  0  0  0
 13 19  1  0  0  0  0
 14 13  1  0  0  0  0
 15 16  1  0  0  0  0
 15 14  1  0  0  0  0
 16 11  1  0  0  0  0
 16 24  1  0  0  0  0
 18 12  1  0  0  0  0
 20 13  1  0  0  0  0
 21 14  1  0  0  0  0
 22 15  1  0  0  0  0
 23 15  1  0  0  0  0
 25 16  1  0  0  0  0
 26 41  1  0  0  0  0
 27 26  1  0  0  0  0
 27 32  1  0  0  0  0
 28 27  2  0  0  0  0
 29 30  2  0  0  0  0
 29 28  1  0  0  0  0
 30 31  1  0  0  0  0
 31 26  2  0  0  0  0
 33 28  1  6  0  0  0
 33 34  1  0  0  0  0
 34 35  1  0  0  0  0
 36 34  1  0  0  0  0
 37 36  1  0  0  0  0
 38 36  1  0  0  0  0
 39 38  1  0  0  0  0
 39 33  1  0  0  0  0
 40 39  1  0  0  0  0
 41 42  1  0  0  0  0
 41 44  1  0  0  0  0
 43 41  1  0  0  0  0
M  END
>  <minimizedAffinity>
-5.79354858

>  <minimizedRMSD>
0.871265054

$$$$
