
 OpenBabel03262521223D

 32 33  0  0  1  0  0  0  0  0999 V2000
   38.0900   27.0130   35.8890 C   0  0  0  0  0  0  0  0  0  0  0  0
   39.2070   27.1210   35.8690 H   0  0  0  0  0  0  0  0  0  0  0  0
   37.7970   27.4120   36.9030 H   0  0  0  0  0  0  0  0  0  0  0  0
   37.4030   27.5580   34.8620 C   0  0  0  0  0  0  0  0  0  0  0  0
   36.3130   27.2340   34.9130 H   0  0  0  0  0  0  0  0  0  0  0  0
   37.2620   28.6740   34.8640 H   0  0  0  0  0  0  0  0  0  0  0  0
   37.8460   27.2040   33.4820 C   0  0  0  0  0  0  0  0  0  0  0  0
   38.3730   26.2160   33.4730 H   0  0  0  0  0  0  0  0  0  0  0  0
   38.5950   27.9380   33.0630 H   0  0  0  0  0  0  0  0  0  0  0  0
   36.5220   27.1010   32.2900 S   0  0  0  0  0  0  0  0  0  0  0  0
   36.6340   25.5610   31.3630 C   0  0  1  0  0  3  0  0  0  0  0  0
   37.2780   24.5180   32.2490 C   0  0  0  0  0  3  0  0  0  0  0  0
   37.2370   24.7850   33.3320 H   0  0  0  0  0  0  0  0  0  0  0  0
   36.4210   23.3210   31.9820 C   0  0  0  0  0  3  0  0  0  0  0  0
   37.0550   22.4880   31.6030 H   0  0  0  0  0  0  0  0  0  0  0  0
   35.5210   23.6120   30.9870 O   0  0  0  0  0  0  0  0  0  0  0  0
   35.2670   24.9840   31.0450 C   0  0  0  0  0  3  0  0  0  0  0  0
   34.9300   25.3790   30.0840 H   0  0  0  0  0  0  0  0  0  0  0  0
   37.6520   25.7260   35.8190 O   0  0  0  0  0  0  0  0  0  0  0  0
   38.4420   24.7350   36.3490 C   0  0  0  0  0  0  0  0  0  0  0  0
   38.0430   24.3640   37.6010 C   0  0  0  0  0  0  0  0  0  0  0  0
   38.7450   23.3560   38.2950 C   0  0  0  0  0  0  0  0  0  0  0  0
   39.8250   22.7950   37.6380 N   0  0  0  0  0  0  0  0  0  0  0  0
   40.1920   23.1920   36.3880 C   0  0  0  0  0  0  0  0  0  0  0  0
   39.4910   24.1460   35.7880 N   0  0  0  0  0  0  0  0  0  0  0  0
   41.9170   21.5610   36.5990 C   0  0  0  0  0  0  0  0  0  0  0  0
   41.5570   21.2040   37.7620 O   0  0  0  0  0  0  0  0  0  0  0  0
   41.3090   22.5580   35.7950 N   0  0  0  0  0  0  0  0  0  0  0  0
   37.2170   24.7560   38.1700 H   0  0  0  0  0  0  0  0  0  0  0  0
   38.4640   23.0330   39.2840 H   0  0  0  0  0  0  0  0  0  0  0  0
   42.7810   21.0090   36.2450 H   0  0  0  0  0  0  0  0  0  0  0  0
   41.6630   22.7990   34.8440 H   0  0  0  0  0  0  0  0  0  0  0  0
  1  3  1  0  0  0  0
  2  1  1  0  0  0  0
  4  6  1  0  0  0  0
  4  5  1  0  0  0  0
  4  1  1  0  0  0  0
  7  4  1  0  0  0  0
  8  7  1  0  0  0  0
  9  7  1  0  0  0  0
 10  7  1  0  0  0  0
 11 12  1  0  0  0  0
 11 10  1  1  0  0  0
 12 13  1  0  0  0  0
 14 12  1  0  0  0  0
 15 14  1  0  0  0  0
 16 17  1  0  0  0  0
 16 14  1  0  0  0  0
 17 11  1  0  0  0  0
 18 17  1  0  0  0  0
 19  1  1  0  0  0  0
 19 20  1  0  0  0  0
 20 21  1  0  0  0  0
 21 29  1  0  0  0  0
 21 22  2  0  0  0  0
 22 30  1  0  0  0  0
 23 22  1  0  0  0  0
 24 23  2  0  0  0  0
 25 20  2  0  0  0  0
 25 24  1  0  0  0  0
 26 27  2  0  0  0  0
 28 24  1  0  0  0  0
 28 26  1  0  0  0  0
 31 26  1  0  0  0  0
 32 28  1  0  0  0  0
M  END
>  <minimizedAffinity>
-4.52672625

$$$$

 OpenBabel03262521223D

 32 33  0  0  1  0  0  0  0  0999 V2000
   36.8550   27.9410   34.3610 C   0  0  0  0  0  0  0  0  0  0  0  0
   37.7520   28.5610   34.6260 H   0  0  0  0  0  0  0  0  0  0  0  0
   36.3370   27.7760   35.3500 H   0  0  0  0  0  0  0  0  0  0  0  0
   36.0480   28.4170   33.3890 C   0  0  0  0  0  0  0  0  0  0  0  0
   36.6720   28.9200   32.5810 H   0  0  0  0  0  0  0  0  0  0  0  0
   35.4980   27.6680   32.7550 H   0  0  0  0  0  0  0  0  0  0  0  0
   35.0360   29.4400   33.7840 C   0  0  0  0  0  0  0  0  0  0  0  0
   34.1400   28.9560   34.2500 H   0  0  0  0  0  0  0  0  0  0  0  0
   34.6300   30.0170   32.9010 H   0  0  0  0  0  0  0  0  0  0  0  0
   35.6370   30.6560   34.9440 S   0  0  0  0  0  0  0  0  0  0  0  0
   34.2660   31.6260   35.5980 C   0  0  1  0  0  3  0  0  0  0  0  0
   33.1290   30.6830   35.9220 C   0  0  0  0  0  3  0  0  0  0  0  0
   33.4600   29.6210   36.0180 H   0  0  0  0  0  0  0  0  0  0  0  0
   32.6730   31.2010   37.2490 C   0  0  0  0  0  3  0  0  0  0  0  0
   31.5970   31.4810   37.1890 H   0  0  0  0  0  0  0  0  0  0  0  0
   33.3590   32.3500   37.5560 O   0  0  0  0  0  0  0  0  0  0  0  0
   34.6050   32.2680   36.9310 C   0  0  0  0  0  3  0  0  0  0  0  0
   35.0380   33.2550   36.7490 H   0  0  0  0  0  0  0  0  0  0  0  0
   37.1540   26.7150   33.8500 O   0  0  0  0  0  0  0  0  0  0  0  0
   37.8050   25.8110   34.6540 C   0  0  0  0  0  0  0  0  0  0  0  0
   38.8140   25.1630   34.0000 C   0  0  0  0  0  0  0  0  0  0  0  0
   39.5870   24.1980   34.6780 C   0  0  0  0  0  0  0  0  0  0  0  0
   39.2610   23.9670   36.0020 N   0  0  0  0  0  0  0  0  0  0  0  0
   38.2470   24.6350   36.6190 C   0  0  0  0  0  0  0  0  0  0  0  0
   37.5550   25.5310   35.9270 N   0  0  0  0  0  0  0  0  0  0  0  0
   38.8430   23.3490   38.5360 C   0  0  0  0  0  0  0  0  0  0  0  0
   39.7850   22.7400   37.9420 O   0  0  0  0  0  0  0  0  0  0  0  0
   37.9880   24.3330   37.9770 N   0  0  0  0  0  0  0  0  0  0  0  0
   39.1210   25.2920   32.9760 H   0  0  0  0  0  0  0  0  0  0  0  0
   40.3920   23.6640   34.2000 H   0  0  0  0  0  0  0  0  0  0  0  0
   38.7370   23.0400   39.5690 H   0  0  0  0  0  0  0  0  0  0  0  0
   37.2320   24.7910   38.5290 H   0  0  0  0  0  0  0  0  0  0  0  0
  1  2  1  0  0  0  0
  1  3  1  0  0  0  0
  4  7  1  0  0  0  0
  4  1  1  0  0  0  0
  5  4  1  0  0  0  0
  6  4  1  0  0  0  0
  7  8  1  0  0  0  0
  7 10  1  0  0  0  0
  9  7  1  0  0  0  0
 11 10  1  1  0  0  0
 11 12  1  0  0  0  0
 11 17  1  0  0  0  0
 12 13  1  0  0  0  0
 12 14  1  0  0  0  0
 14 16  1  0  0  0  0
 15 14  1  0  0  0  0
 17 16  1  0  0  0  0
 18 17  1  0  0  0  0
 19  1  1  0  0  0  0
 19 20  1  0  0  0  0
 20 25  1  0  0  0  0
 21 20  2  0  0  0  0
 21 22  1  0  0  0  0
 22 23  2  0  0  0  0
 23 24  1  0  0  0  0
 24 28  1  0  0  0  0
 25 24  2  0  0  0  0
 26 31  1  0  0  0  0
 27 26  2  0  0  0  0
 28 32  1  0  0  0  0
 28 26  1  0  0  0  0
 29 21  1  0  0  0  0
 30 22  1  0  0  0  0
M  END
>  <minimizedAffinity>
-4.31713104

$$$$

 OpenBabel03262521223D

 32 33  0  0  1  0  0  0  0  0999 V2000
   36.6080   27.4990   32.7220 C   0  0  0  0  0  0  0  0  0  0  0  0
   36.9580   27.0750   31.7440 H   0  0  0  0  0  0  0  0  0  0  0  0
   35.5850   27.0430   32.8660 H   0  0  0  0  0  0  0  0  0  0  0  0
   37.4310   27.3530   33.7830 C   0  0  0  0  0  0  0  0  0  0  0  0
   38.4950   27.6210   33.4850 H   0  0  0  0  0  0  0  0  0  0  0  0
   37.2990   28.0610   34.6460 H   0  0  0  0  0  0  0  0  0  0  0  0
   37.5310   25.9900   34.3830 C   0  0  0  0  0  0  0  0  0  0  0  0
   38.1610   25.3190   33.7470 H   0  0  0  0  0  0  0  0  0  0  0  0
   36.5310   25.4700   34.4550 H   0  0  0  0  0  0  0  0  0  0  0  0
   38.2300   25.9620   36.0250 S   0  0  0  0  0  0  0  0  0  0  0  0
   38.0830   24.3140   36.7380 C   0  0  1  0  0  3  0  0  0  0  0  0
   39.3690   23.5640   36.4680 C   0  0  0  0  0  3  0  0  0  0  0  0
   40.2190   24.2390   36.2130 H   0  0  0  0  0  0  0  0  0  0  0  0
   39.6160   22.9010   37.7860 C   0  0  0  0  0  3  0  0  0  0  0  0
   39.6750   21.7980   37.6430 H   0  0  0  0  0  0  0  0  0  0  0  0
   38.5530   23.1310   38.6240 O   0  0  0  0  0  0  0  0  0  0  0  0
   37.9890   24.3520   38.2520 C   0  0  0  0  0  3  0  0  0  0  0  0
   36.9370   24.4220   38.5400 H   0  0  0  0  0  0  0  0  0  0  0  0
   36.4520   28.8520   32.7210 O   0  0  0  0  0  0  0  0  0  0  0  0
   35.2510   29.3730   33.1360 C   0  0  0  0  0  0  0  0  0  0  0  0
   35.4030   30.3280   34.1010 C   0  0  0  0  0  0  0  0  0  0  0  0
   34.2700   30.9690   34.6420 C   0  0  0  0  0  0  0  0  0  0  0  0
   33.0420   30.5740   34.1430 N   0  0  0  0  0  0  0  0  0  0  0  0
   32.9310   29.6170   33.1810 C   0  0  0  0  0  0  0  0  0  0  0  0
   34.0350   29.0510   32.7120 N   0  0  0  0  0  0  0  0  0  0  0  0
   30.5860   30.0040   33.3550 C   0  0  0  0  0  0  0  0  0  0  0  0
   30.7110   30.8960   34.2500 O   0  0  0  0  0  0  0  0  0  0  0  0
   31.6330   29.2800   32.7310 N   0  0  0  0  0  0  0  0  0  0  0  0
   36.3230   30.6840   34.5330 H   0  0  0  0  0  0  0  0  0  0  0  0
   34.3440   31.7290   35.4040 H   0  0  0  0  0  0  0  0  0  0  0  0
   29.5500   29.8300   33.0880 H   0  0  0  0  0  0  0  0  0  0  0  0
   31.4520   28.5590   32.0000 H   0  0  0  0  0  0  0  0  0  0  0  0
  1  3  1  0  0  0  0
  1  4  1  0  0  0  0
  2  1  1  0  0  0  0
  4  7  1  0  0  0  0
  4  6  1  0  0  0  0
  5  4  1  0  0  0  0
  7  9  1  0  0  0  0
  7 10  1  0  0  0  0
  8  7  1  0  0  0  0
 11 10  1  1  0  0  0
 11 17  1  0  0  0  0
 12 11  1  0  0  0  0
 12 14  1  0  0  0  0
 13 12  1  0  0  0  0
 14 16  1  0  0  0  0
 15 14  1  0  0  0  0
 17 18  1  0  0  0  0
 17 16  1  0  0  0  0
 19  1  1  0  0  0  0
 19 20  1  0  0  0  0
 20 21  1  0  0  0  0
 21 29  1  0  0  0  0
 21 22  2  0  0  0  0
 22 30  1  0  0  0  0
 23 22  1  0  0  0  0
 24 23  2  0  0  0  0
 25 20  2  0  0  0  0
 25 24  1  0  0  0  0
 26 27  2  0  0  0  0
 28 24  1  0  0  0  0
 28 26  1  0  0  0  0
 31 26  1  0  0  0  0
 32 28  1  0  0  0  0
M  END
>  <minimizedAffinity>
-4.28873158

$$$$

 OpenBabel03262521223D

 32 33  0  0  1  0  0  0  0  0999 V2000
   36.5110   28.0450   33.4860 C   0  0  0  0  0  0  0  0  0  0  0  0
   35.4400   28.1570   33.1710 H   0  0  0  0  0  0  0  0  0  0  0  0
   36.9160   29.0980   33.4530 H   0  0  0  0  0  0  0  0  0  0  0  0
   36.7440   27.4010   34.6500 C   0  0  0  0  0  0  0  0  0  0  0  0
   35.9320   27.6620   35.4040 H   0  0  0  0  0  0  0  0  0  0  0  0
   36.6440   26.2810   34.6550 H   0  0  0  0  0  0  0  0  0  0  0  0
   38.0270   27.7010   35.3490 C   0  0  0  0  0  0  0  0  0  0  0  0
   37.8400   28.0550   36.3950 H   0  0  0  0  0  0  0  0  0  0  0  0
   38.6060   28.5390   34.8580 H   0  0  0  0  0  0  0  0  0  0  0  0
   39.1450   26.3150   35.4570 S   0  0  0  0  0  0  0  0  0  0  0  0
   38.2250   24.7900   35.7250 C   0  0  1  0  0  3  0  0  0  0  0  0
   39.0810   23.6300   35.2660 C   0  0  0  0  0  3  0  0  0  0  0  0
   40.1620   23.8950   35.1880 H   0  0  0  0  0  0  0  0  0  0  0  0
   38.8720   22.6430   36.3700 C   0  0  0  0  0  3  0  0  0  0  0  0
   38.4630   21.6960   35.9490 H   0  0  0  0  0  0  0  0  0  0  0  0
   37.9270   23.1210   37.2440 O   0  0  0  0  0  0  0  0  0  0  0  0
   37.9900   24.5150   37.1990 C   0  0  0  0  0  3  0  0  0  0  0  0
   37.0460   24.9780   37.5000 H   0  0  0  0  0  0  0  0  0  0  0  0
   37.2670   27.2950   32.6380 O   0  0  0  0  0  0  0  0  0  0  0  0
   36.7540   26.1060   32.1810 C   0  0  0  0  0  0  0  0  0  0  0  0
   35.6450   26.2800   31.4040 C   0  0  0  0  0  0  0  0  0  0  0  0
   34.9880   25.1620   30.8500 C   0  0  0  0  0  0  0  0  0  0  0  0
   35.5310   23.9230   31.1410 N   0  0  0  0  0  0  0  0  0  0  0  0
   36.6390   23.7900   31.9210 C   0  0  0  0  0  0  0  0  0  0  0  0
   37.2110   24.8810   32.4130 N   0  0  0  0  0  0  0  0  0  0  0  0
   36.3730   21.4520   31.5420 C   0  0  0  0  0  0  0  0  0  0  0  0
   35.3420   21.5990   30.8160 O   0  0  0  0  0  0  0  0  0  0  0  0
   37.1240   22.4820   32.1620 N   0  0  0  0  0  0  0  0  0  0  0  0
   35.1700   27.2100   31.1370 H   0  0  0  0  0  0  0  0  0  0  0  0
   34.1100   25.2550   30.2310 H   0  0  0  0  0  0  0  0  0  0  0  0
   36.6530   20.4110   31.6570 H   0  0  0  0  0  0  0  0  0  0  0  0
   37.9630   22.2840   32.7480 H   0  0  0  0  0  0  0  0  0  0  0  0
  1  4  1  0  0  0  0
  2  1  1  0  0  0  0
  3  1  1  0  0  0  0
  4  6  1  0  0  0  0
  4  7  1  0  0  0  0
  4  5  1  0  0  0  0
  7 10  1  0  0  0  0
  7  8  1  0  0  0  0
  9  7  1  0  0  0  0
 11 10  1  1  0  0  0
 11 17  1  0  0  0  0
 12 11  1  0  0  0  0
 12 14  1  0  0  0  0
 13 12  1  0  0  0  0
 14 16  1  0  0  0  0
 15 14  1  0  0  0  0
 17 16  1  0  0  0  0
 17 18  1  0  0  0  0
 19  1  1  0  0  0  0
 20 25  1  0  0  0  0
 20 19  1  0  0  0  0
 21 20  2  0  0  0  0
 22 23  2  0  0  0  0
 22 21  1  0  0  0  0
 23 24  1  0  0  0  0
 24 28  1  0  0  0  0
 24 25  2  0  0  0  0
 26 31  1  0  0  0  0
 26 28  1  0  0  0  0
 27 26  2  0  0  0  0
 28 32  1  0  0  0  0
 29 21  1  0  0  0  0
 30 22  1  0  0  0  0
M  END
>  <minimizedAffinity>
-4.27892494

$$$$

 OpenBabel03262521223D

 32 33  0  0  1  0  0  0  0  0999 V2000
   37.6000   26.3120   34.7560 C   0  0  0  0  0  0  0  0  0  0  0  0
   37.2190   25.7240   33.8790 H   0  0  0  0  0  0  0  0  0  0  0  0
   38.7210   26.3030   34.6230 H   0  0  0  0  0  0  0  0  0  0  0  0
   37.0770   27.5430   34.9410 C   0  0  0  0  0  0  0  0  0  0  0  0
   36.2480   27.4970   35.7190 H   0  0  0  0  0  0  0  0  0  0  0  0
   37.7330   28.3210   35.4200 H   0  0  0  0  0  0  0  0  0  0  0  0
   36.4560   28.2040   33.7560 C   0  0  0  0  0  0  0  0  0  0  0  0
   36.1110   27.4450   33.0100 H   0  0  0  0  0  0  0  0  0  0  0  0
   37.1840   28.8580   33.1910 H   0  0  0  0  0  0  0  0  0  0  0  0
   35.0520   29.2350   34.1430 S   0  0  0  0  0  0  0  0  0  0  0  0
   35.5770   30.9410   34.3870 C   0  0  1  0  0  3  0  0  0  0  0  0
   34.3570   31.8310   34.2970 C   0  0  0  0  0  3  0  0  0  0  0  0
   33.4020   31.2730   34.4390 H   0  0  0  0  0  0  0  0  0  0  0  0
   34.5800   32.7680   35.4420 C   0  0  0  0  0  3  0  0  0  0  0  0
   34.6010   33.8160   35.0650 H   0  0  0  0  0  0  0  0  0  0  0  0
   35.8120   32.5280   36.0000 O   0  0  0  0  0  0  0  0  0  0  0  0
   36.1080   31.1800   35.7880 C   0  0  0  0  0  3  0  0  0  0  0  0
   37.1840   30.9910   35.7970 H   0  0  0  0  0  0  0  0  0  0  0  0
   37.3310   25.7490   35.9660 O   0  0  0  0  0  0  0  0  0  0  0  0
   38.1820   24.7830   36.4430 C   0  0  0  0  0  0  0  0  0  0  0  0
   37.8750   24.3980   37.7170 C   0  0  0  0  0  0  0  0  0  0  0  0
   38.6490   23.4130   38.3620 C   0  0  0  0  0  0  0  0  0  0  0  0
   39.7020   22.8850   37.6370 N   0  0  0  0  0  0  0  0  0  0  0  0
   39.9770   23.2940   36.3680 C   0  0  0  0  0  0  0  0  0  0  0  0
   39.2110   24.2260   35.8150 N   0  0  0  0  0  0  0  0  0  0  0  0
   41.7610   21.7160   36.4650 C   0  0  0  0  0  0  0  0  0  0  0  0
   41.4860   21.3470   37.6480 O   0  0  0  0  0  0  0  0  0  0  0  0
   41.0730   22.6940   35.7030 N   0  0  0  0  0  0  0  0  0  0  0  0
   37.0740   24.7650   38.3370 H   0  0  0  0  0  0  0  0  0  0  0  0
   38.4420   23.0810   39.3670 H   0  0  0  0  0  0  0  0  0  0  0  0
   42.6170   21.1900   36.0570 H   0  0  0  0  0  0  0  0  0  0  0  0
   41.3590   22.9460   34.7330 H   0  0  0  0  0  0  0  0  0  0  0  0
  1  4  1  0  0  0  0
  1 19  1  0  0  0  0
  2  1  1  0  0  0  0
  3  1  1  0  0  0  0
  4  6  1  0  0  0  0
  4  5  1  0  0  0  0
  7 10  1  0  0  0  0
  7  4  1  0  0  0  0
  8  7  1  0  0  0  0
  9  7  1  0  0  0  0
 11 10  1  1  0  0  0
 11 17  1  0  0  0  0
 12 11  1  0  0  0  0
 12 13  1  0  0  0  0
 12 14  1  0  0  0  0
 14 16  1  0  0  0  0
 15 14  1  0  0  0  0
 17 18  1  0  0  0  0
 17 16  1  0  0  0  0
 19 20  1  0  0  0  0
 20 21  1  0  0  0  0
 21 29  1  0  0  0  0
 21 22  2  0  0  0  0
 22 30  1  0  0  0  0
 23 22  1  0  0  0  0
 24 23  2  0  0  0  0
 25 24  1  0  0  0  0
 25 20  2  0  0  0  0
 26 27  2  0  0  0  0
 28 24  1  0  0  0  0
 28 26  1  0  0  0  0
 31 26  1  0  0  0  0
 32 28  1  0  0  0  0
M  END
>  <minimizedAffinity>
-4.27388668

$$$$

 OpenBabel03262521223D

 32 33  0  0  1  0  0  0  0  0999 V2000
   37.4270   25.8120   32.1010 C   0  0  0  0  0  0  0  0  0  0  0  0
   38.0970   24.9290   31.9290 H   0  0  0  0  0  0  0  0  0  0  0  0
   37.9330   26.6510   31.5410 H   0  0  0  0  0  0  0  0  0  0  0  0
   36.1200   25.6570   31.7990 C   0  0  0  0  0  0  0  0  0  0  0  0
   35.4810   25.9400   32.6970 H   0  0  0  0  0  0  0  0  0  0  0  0
   35.6770   26.3500   31.0330 H   0  0  0  0  0  0  0  0  0  0  0  0
   35.6660   24.2860   31.4210 C   0  0  0  0  0  0  0  0  0  0  0  0
   35.0280   24.3160   30.5020 H   0  0  0  0  0  0  0  0  0  0  0  0
   35.0160   23.8090   32.2120 H   0  0  0  0  0  0  0  0  0  0  0  0
   36.9930   23.1370   31.1010 S   0  0  0  0  0  0  0  0  0  0  0  0
   36.6090   21.5260   31.8100 C   0  0  1  0  0  3  0  0  0  0  0  0
   35.2350   21.5990   32.4380 C   0  0  0  0  0  3  0  0  0  0  0  0
   34.6310   22.4590   32.0620 H   0  0  0  0  0  0  0  0  0  0  0  0
   34.6260   20.3080   31.9900 C   0  0  0  0  0  3  0  0  0  0  0  0
   34.3170   19.7140   32.8790 H   0  0  0  0  0  0  0  0  0  0  0  0
   35.5690   19.5600   31.3280 O   0  0  0  0  0  0  0  0  0  0  0  0
   36.4720   20.4510   30.7470 C   0  0  0  0  0  3  0  0  0  0  0  0
   37.4500   19.9930   30.5800 H   0  0  0  0  0  0  0  0  0  0  0  0
   37.3320   26.1950   33.4040 O   0  0  0  0  0  0  0  0  0  0  0  0
   37.9540   25.4290   34.3590 C   0  0  0  0  0  0  0  0  0  0  0  0
   39.0760   24.8110   33.8840 C   0  0  0  0  0  0  0  0  0  0  0  0
   39.8380   23.9840   34.7330 C   0  0  0  0  0  0  0  0  0  0  0  0
   39.3840   23.8500   36.0330 N   0  0  0  0  0  0  0  0  0  0  0  0
   38.2600   24.4830   36.4700 C   0  0  0  0  0  0  0  0  0  0  0  0
   37.5850   25.2480   35.6220 N   0  0  0  0  0  0  0  0  0  0  0  0
   38.7320   23.4370   38.5600 C   0  0  0  0  0  0  0  0  0  0  0  0
   39.7780   22.8590   38.1320 O   0  0  0  0  0  0  0  0  0  0  0  0
   37.8740   24.2880   37.8170 N   0  0  0  0  0  0  0  0  0  0  0  0
   39.4860   24.8700   32.8900 H   0  0  0  0  0  0  0  0  0  0  0  0
   40.7300   23.4770   34.3990 H   0  0  0  0  0  0  0  0  0  0  0  0
   38.5340   23.2170   39.6020 H   0  0  0  0  0  0  0  0  0  0  0  0
   37.0280   24.7290   38.2370 H   0  0  0  0  0  0  0  0  0  0  0  0
  1 19  1  0  0  0  0
  2  1  1  0  0  0  0
  3  1  1  0  0  0  0
  4  1  1  0  0  0  0
  4  5  1  0  0  0  0
  6  4  1  0  0  0  0
  7  4  1  0  0  0  0
  7  9  1  0  0  0  0
  8  7  1  0  0  0  0
 10  7  1  0  0  0  0
 11 10  1  6  0  0  0
 11 12  1  0  0  0  0
 13 12  1  0  0  0  0
 14 12  1  0  0  0  0
 14 15  1  0  0  0  0
 16 14  1  0  0  0  0
 17 16  1  0  0  0  0
 17 11  1  0  0  0  0
 18 17  1  0  0  0  0
 19 20  1  0  0  0  0
 20 25  1  0  0  0  0
 21 20  2  0  0  0  0
 21 22  1  0  0  0  0
 22 23  2  0  0  0  0
 23 24  1  0  0  0  0
 24 28  1  0  0  0  0
 25 24  2  0  0  0  0
 26 31  1  0  0  0  0
 27 26  2  0  0  0  0
 28 32  1  0  0  0  0
 28 26  1  0  0  0  0
 29 21  1  0  0  0  0
 30 22  1  0  0  0  0
M  END
>  <minimizedAffinity>
-4.26889133

$$$$

 OpenBabel03262521223D

 32 33  0  0  1  0  0  0  0  0999 V2000
   37.9780   26.9630   35.6000 C   0  0  0  0  0  0  0  0  0  0  0  0
   39.0880   27.0310   35.4560 H   0  0  0  0  0  0  0  0  0  0  0  0
   37.8030   27.4610   36.5980 H   0  0  0  0  0  0  0  0  0  0  0  0
   37.2000   27.4370   34.6040 C   0  0  0  0  0  0  0  0  0  0  0  0
   36.1260   27.5350   34.9660 H   0  0  0  0  0  0  0  0  0  0  0  0
   37.3750   28.4950   34.2650 H   0  0  0  0  0  0  0  0  0  0  0  0
   37.1130   26.6180   33.3600 C   0  0  0  0  0  0  0  0  0  0  0  0
   36.5780   25.6530   33.5530 H   0  0  0  0  0  0  0  0  0  0  0  0
   38.1270   26.3140   32.9660 H   0  0  0  0  0  0  0  0  0  0  0  0
   36.2690   27.4220   32.0090 S   0  0  0  0  0  0  0  0  0  0  0  0
   35.8400   29.1130   32.4590 C   0  0  1  0  0  3  0  0  0  0  0  0
   36.0480   29.9950   31.2480 C   0  0  0  0  0  3  0  0  0  0  0  0
   36.0850   29.4190   30.2930 H   0  0  0  0  0  0  0  0  0  0  0  0
   34.8250   30.8540   31.2840 C   0  0  0  0  0  3  0  0  0  0  0  0
   35.1250   31.9260   31.3380 H   0  0  0  0  0  0  0  0  0  0  0  0
   34.1090   30.5900   32.4250 O   0  0  0  0  0  0  0  0  0  0  0  0
   34.3630   29.2620   32.7750 C   0  0  0  0  0  3  0  0  0  0  0  0
   34.2090   29.0840   33.8420 H   0  0  0  0  0  0  0  0  0  0  0  0
   37.5030   25.6900   35.6960 O   0  0  0  0  0  0  0  0  0  0  0  0
   38.3120   24.7300   36.2520 C   0  0  0  0  0  0  0  0  0  0  0  0
   37.9620   24.4340   37.5390 C   0  0  0  0  0  0  0  0  0  0  0  0
   38.6880   23.4670   38.2630 C   0  0  0  0  0  0  0  0  0  0  0  0
   39.7400   22.8630   37.5980 N   0  0  0  0  0  0  0  0  0  0  0  0
   40.0580   23.1850   36.3140 C   0  0  0  0  0  0  0  0  0  0  0  0
   39.3360   24.1040   35.6860 N   0  0  0  0  0  0  0  0  0  0  0  0
   41.7880   21.5610   36.5530 C   0  0  0  0  0  0  0  0  0  0  0  0
   41.4730   21.2750   37.7480 O   0  0  0  0  0  0  0  0  0  0  0  0
   41.1500   22.5120   35.7160 N   0  0  0  0  0  0  0  0  0  0  0  0
   37.1590   24.8630   38.1150 H   0  0  0  0  0  0  0  0  0  0  0  0
   38.4460   23.2040   39.2800 H   0  0  0  0  0  0  0  0  0  0  0  0
   42.6360   20.9860   36.1990 H   0  0  0  0  0  0  0  0  0  0  0  0
   41.4670   22.6940   34.7390 H   0  0  0  0  0  0  0  0  0  0  0  0
  1 19  1  0  0  0  0
  1  3  1  0  0  0  0
  2  1  1  0  0  0  0
  4  5  1  0  0  0  0
  4  1  1  0  0  0  0
  6  4  1  0  0  0  0
  7  8  1  0  0  0  0
  7  4  1  0  0  0  0
  9  7  1  0  0  0  0
 10  7  1  0  0  0  0
 11 10  1  6  0  0  0
 11 17  1  0  0  0  0
 12 14  1  0  0  0  0
 12 11  1  0  0  0  0
 13 12  1  0  0  0  0
 14 15  1  0  0  0  0
 14 16  1  0  0  0  0
 16 17  1  0  0  0  0
 17 18  1  0  0  0  0
 19 20  1  0  0  0  0
 20 21  1  0  0  0  0
 21 29  1  0  0  0  0
 21 22  2  0  0  0  0
 22 30  1  0  0  0  0
 23 22  1  0  0  0  0
 24 23  2  0  0  0  0
 25 20  2  0  0  0  0
 25 24  1  0  0  0  0
 26 27  2  0  0  0  0
 28 24  1  0  0  0  0
 28 26  1  0  0  0  0
 31 26  1  0  0  0  0
 32 28  1  0  0  0  0
M  END
>  <minimizedAffinity>
-4.26587534

$$$$

 OpenBabel03262521223D

 32 33  0  0  1  0  0  0  0  0999 V2000
   41.6690   25.9920   34.2760 C   0  0  0  0  0  0  0  0  0  0  0  0
   42.6310   26.5590   34.1670 H   0  0  0  0  0  0  0  0  0  0  0  0
   41.2580   25.9490   33.2260 H   0  0  0  0  0  0  0  0  0  0  0  0
   41.7310   24.7940   34.8940 C   0  0  0  0  0  0  0  0  0  0  0  0
   42.8170   24.5120   35.0820 H   0  0  0  0  0  0  0  0  0  0  0  0
   41.3410   24.7300   35.9480 H   0  0  0  0  0  0  0  0  0  0  0  0
   41.1490   23.6250   34.1720 C   0  0  0  0  0  0  0  0  0  0  0  0
   41.8850   22.7830   34.1160 H   0  0  0  0  0  0  0  0  0  0  0  0
   40.8930   23.8600   33.0970 H   0  0  0  0  0  0  0  0  0  0  0  0
   39.6610   22.9720   34.9110 S   0  0  0  0  0  0  0  0  0  0  0  0
   39.3690   23.7430   36.5120 C   0  0  1  0  0  3  0  0  0  0  0  0
   37.8760   23.8870   36.7050 C   0  0  0  0  0  3  0  0  0  0  0  0
   37.2860   23.2210   36.0320 H   0  0  0  0  0  0  0  0  0  0  0  0
   37.7100   23.4560   38.1280 C   0  0  0  0  0  3  0  0  0  0  0  0
   37.2350   24.2760   38.7120 H   0  0  0  0  0  0  0  0  0  0  0  0
   38.9440   23.2390   38.6900 O   0  0  0  0  0  0  0  0  0  0  0  0
   39.8070   22.8540   37.6630 C   0  0  0  0  0  3  0  0  0  0  0  0
   40.8510   23.0720   37.9010 H   0  0  0  0  0  0  0  0  0  0  0  0
   40.7380   26.6170   35.0490 O   0  0  0  0  0  0  0  0  0  0  0  0
   39.5290   26.9430   34.4850 C   0  0  0  0  0  0  0  0  0  0  0  0
   38.5960   27.2960   35.4170 C   0  0  0  0  0  0  0  0  0  0  0  0
   37.2960   27.6610   35.0100 C   0  0  0  0  0  0  0  0  0  0  0  0
   37.0470   27.6360   33.6500 N   0  0  0  0  0  0  0  0  0  0  0  0
   38.0050   27.2780   32.7510 C   0  0  0  0  0  0  0  0  0  0  0  0
   39.2090   26.9440   33.1960 N   0  0  0  0  0  0  0  0  0  0  0  0
   36.3220   27.6750   31.1100 C   0  0  0  0  0  0  0  0  0  0  0  0
   35.4450   28.0080   31.9650 O   0  0  0  0  0  0  0  0  0  0  0  0
   37.6580   27.2830   31.3790 N   0  0  0  0  0  0  0  0  0  0  0  0
   38.7200   27.3390   36.4860 H   0  0  0  0  0  0  0  0  0  0  0  0
   36.5300   27.9470   35.7130 H   0  0  0  0  0  0  0  0  0  0  0  0
   35.9460   27.7170   30.0940 H   0  0  0  0  0  0  0  0  0  0  0  0
   38.3240   27.0220   30.6210 H   0  0  0  0  0  0  0  0  0  0  0  0
  1  4  1  0  0  0  0
  1 19  1  0  0  0  0
  2  1  1  0  0  0  0
  3  1  1  0  0  0  0
  4  5  1  0  0  0  0
  4  6  1  0  0  0  0
  7  4  1  0  0  0  0
  7 10  1  0  0  0  0
  8  7  1  0  0  0  0
  9  7  1  0  0  0  0
 11 10  1  6  0  0  0
 11 12  1  0  0  0  0
 11 17  1  0  0  0  0
 12 14  1  0  0  0  0
 13 12  1  0  0  0  0
 14 16  1  0  0  0  0
 14 15  1  0  0  0  0
 17 18  1  0  0  0  0
 17 16  1  0  0  0  0
 20 19  1  0  0  0  0
 20 21  1  0  0  0  0
 21 29  1  0  0  0  0
 22 21  2  0  0  0  0
 22 30  1  0  0  0  0
 23 22  1  0  0  0  0
 24 25  1  0  0  0  0
 24 23  2  0  0  0  0
 25 20  2  0  0  0  0
 26 28  1  0  0  0  0
 26 27  2  0  0  0  0
 28 24  1  0  0  0  0
 31 26  1  0  0  0  0
 32 28  1  0  0  0  0
M  END
>  <minimizedAffinity>
-4.24064875

$$$$

 OpenBabel03262521223D

 32 33  0  0  1  0  0  0  0  0999 V2000
   36.0910   27.5060   32.0220 C   0  0  0  0  0  0  0  0  0  0  0  0
   35.2290   26.7900   32.0700 H   0  0  0  0  0  0  0  0  0  0  0  0
   36.7780   27.0530   31.2490 H   0  0  0  0  0  0  0  0  0  0  0  0
   35.7970   28.8060   31.8040 C   0  0  0  0  0  0  0  0  0  0  0  0
   36.7140   29.4480   32.0100 H   0  0  0  0  0  0  0  0  0  0  0  0
   35.5880   29.1220   30.7450 H   0  0  0  0  0  0  0  0  0  0  0  0
   34.7120   29.4070   32.6330 C   0  0  0  0  0  0  0  0  0  0  0  0
   34.3640   28.6870   33.4170 H   0  0  0  0  0  0  0  0  0  0  0  0
   33.7880   29.6520   32.0310 H   0  0  0  0  0  0  0  0  0  0  0  0
   35.1780   30.9110   33.4730 S   0  0  0  0  0  0  0  0  0  0  0  0
   34.9310   30.7370   35.2490 C   0  0  1  0  0  3  0  0  0  0  0  0
   35.7810   31.7720   35.9510 C   0  0  0  0  0  3  0  0  0  0  0  0
   36.0960   32.6040   35.2770 H   0  0  0  0  0  0  0  0  0  0  0  0
   34.8380   32.2840   36.9930 C   0  0  0  0  0  3  0  0  0  0  0  0
   35.2860   32.1400   38.0030 H   0  0  0  0  0  0  0  0  0  0  0  0
   33.6810   31.5450   36.9700 O   0  0  0  0  0  0  0  0  0  0  0  0
   33.5120   31.0800   35.6650 C   0  0  0  0  0  3  0  0  0  0  0  0
   32.9030   30.1730   35.6290 H   0  0  0  0  0  0  0  0  0  0  0  0
   36.7980   27.6080   33.1810 O   0  0  0  0  0  0  0  0  0  0  0  0
   37.2270   26.4540   33.7900 C   0  0  0  0  0  0  0  0  0  0  0  0
   37.4010   25.4290   32.9030 C   0  0  0  0  0  0  0  0  0  0  0  0
   37.8390   24.1690   33.3590 C   0  0  0  0  0  0  0  0  0  0  0  0
   38.0710   24.0520   34.7170 N   0  0  0  0  0  0  0  0  0  0  0  0
   37.8850   25.0970   35.5700 C   0  0  0  0  0  0  0  0  0  0  0  0
   37.4710   26.2580   35.0800 N   0  0  0  0  0  0  0  0  0  0  0  0
   38.5880   23.5740   37.2630 C   0  0  0  0  0  0  0  0  0  0  0  0
   38.7570   22.6130   36.4510 O   0  0  0  0  0  0  0  0  0  0  0  0
   38.1500   24.8840   36.9440 N   0  0  0  0  0  0  0  0  0  0  0  0
   37.2420   25.4490   31.8380 H   0  0  0  0  0  0  0  0  0  0  0  0
   37.9900   23.3340   32.6930 H   0  0  0  0  0  0  0  0  0  0  0  0
   38.8210   23.2970   38.2850 H   0  0  0  0  0  0  0  0  0  0  0  0
   38.0340   25.6240   37.6690 H   0  0  0  0  0  0  0  0  0  0  0  0
  1  2  1  0  0  0  0
  1 19  1  0  0  0  0
  3  1  1  0  0  0  0
  4  5  1  0  0  0  0
  4  1  1  0  0  0  0
  4  7  1  0  0  0  0
  6  4  1  0  0  0  0
  7  8  1  0  0  0  0
  7 10  1  0  0  0  0
  9  7  1  0  0  0  0
 11 10  1  6  0  0  0
 11 17  1  0  0  0  0
 11 12  1  0  0  0  0
 12 14  1  0  0  0  0
 13 12  1  0  0  0  0
 14 15  1  0  0  0  0
 16 14  1  0  0  0  0
 17 16  1  0  0  0  0
 18 17  1  0  0  0  0
 19 20  1  0  0  0  0
 20 25  1  0  0  0  0
 21 22  1  0  0  0  0
 21 20  2  0  0  0  0
 22 23  2  0  0  0  0
 23 24  1  0  0  0  0
 24 28  1  0  0  0  0
 25 24  2  0  0  0  0
 26 31  1  0  0  0  0
 27 26  2  0  0  0  0
 28 26  1  0  0  0  0
 28 32  1  0  0  0  0
 29 21  1  0  0  0  0
 30 22  1  0  0  0  0
M  END
>  <minimizedAffinity>
-4.14990044

$$$$
