
 OpenBabel03272506093D

 43 46  0  0  1  0  0  0  0  0999 V2000
   35.1900   28.7100   49.1080 C   0  0  0  0  0  0  0  0  0  0  0  0
   36.1060   28.6250   48.4840 H   0  0  0  0  0  0  0  0  0  0  0  0
   35.2660   27.8650   49.8340 H   0  0  0  0  0  0  0  0  0  0  0  0
   33.9700   28.4910   48.2540 C   0  0  0  0  0  0  0  0  0  0  0  0
   34.0630   28.6920   46.8260 C   0  0  0  0  0  0  0  0  0  0  0  0
   32.4040   28.3130   46.3300 S   0  0  0  0  0  0  0  0  0  0  0  0
   31.7950   27.9400   48.0650 C   0  0  0  0  0  0  0  0  0  0  0  0
   32.8050   28.1300   48.6910 N   0  0  0  0  0  0  0  0  0  0  0  0
   30.4910   27.5340   48.5530 N   0  0  0  0  0  0  0  0  0  0  0  0
   29.6730   26.8040   47.6530 C   0  0  0  0  0  0  0  0  0  0  0  0
   28.2350   26.7230   48.0420 C   0  0  0  0  0  0  0  0  0  0  0  0
   27.8900   27.6050   49.1410 N   0  0  0  0  0  0  0  0  0  0  0  0
   28.8000   27.2410   50.2250 C   0  0  0  0  0  0  0  0  0  0  0  0
   30.1130   27.8970   49.9080 C   0  0  0  0  0  0  0  0  0  0  0  0
   34.9110   28.9810   46.2870 H   0  0  0  0  0  0  0  0  0  0  0  0
   29.6960   27.3680   46.6740 H   0  0  0  0  0  0  0  0  0  0  0  0
   30.0650   25.7980   47.3780 H   0  0  0  0  0  0  0  0  0  0  0  0
   27.5440   26.8780   47.1690 H   0  0  0  0  0  0  0  0  0  0  0  0
   28.0240   25.6960   48.4110 H   0  0  0  0  0  0  0  0  0  0  0  0
   28.1260   28.5760   48.8340 H   0  0  0  0  0  0  0  0  0  0  0  0
   28.8940   26.1430   50.3270 H   0  0  0  0  0  0  0  0  0  0  0  0
   28.3750   27.7040   51.1460 H   0  0  0  0  0  0  0  0  0  0  0  0
   30.0040   28.9910   50.0320 H   0  0  0  0  0  0  0  0  0  0  0  0
   30.8810   27.5120   50.6090 H   0  0  0  0  0  0  0  0  0  0  0  0
   35.1610   30.0020   49.8100 C   0  0  0  0  0  0  0  0  0  0  0  0
   34.2120   30.5450   49.5470 H   0  0  0  0  0  0  0  0  0  0  0  0
   35.1730   29.8480   50.9080 H   0  0  0  0  0  0  0  0  0  0  0  0
   37.7080   32.7130   49.6310 C   0  0  0  0  0  0  0  0  0  0  0  0
   38.3860   32.4140   48.4400 C   0  0  0  0  0  0  0  0  0  0  0  0
   37.9530   31.2900   47.7240 C   0  0  0  0  0  0  0  0  0  0  0  0
   36.9160   30.5560   48.2130 N   0  0  0  0  0  0  0  0  0  0  0  0
   36.2980   30.8880   49.3670 C   0  0  0  0  0  0  0  0  0  0  0  0
   36.6960   31.9460   50.0500 N   0  0  0  0  0  0  0  0  0  0  0  0
   38.0470   33.5860   50.1800 H   0  0  0  0  0  0  0  0  0  0  0  0
   39.1950   32.9910   48.0620 H   0  0  0  0  0  0  0  0  0  0  0  0
   38.5840   30.8590   46.4440 C   0  0  2  0  0  3  0  0  0  0  0  0
   39.7720   31.6840   46.0730 C   0  0  0  0  0  3  0  0  0  0  0  0
   40.5920   31.0230   45.7020 H   0  0  0  0  0  0  0  0  0  0  0  0
   39.2880   32.6190   44.9710 C   0  0  0  0  0  3  0  0  0  0  0  0
   39.6980   32.3150   43.9900 H   0  0  0  0  0  0  0  0  0  0  0  0
   37.9140   32.4620   44.9290 O   0  0  0  0  0  0  0  0  0  0  0  0
   37.6150   31.1720   45.2990 C   0  0  0  0  0  3  0  0  0  0  0  0
   36.5690   31.1480   45.7240 H   0  0  0  0  0  0  0  0  0  0  0  0
  1 25  1  0  0  0  0
  1  3  1  0  0  0  0
  2  1  1  0  0  0  0
  4  8  1  0  0  0  0
  4  1  1  0  0  0  0
  5  4  2  0  0  0  0
  6  5  1  0  0  0  0
  6  7  1  0  0  0  0
  7  9  1  0  0  0  0
  7  8  2  0  0  0  0
  9 14  1  0  0  0  0
 10 11  1  0  0  0  0
 10  9  1  0  0  0  0
 11 19  1  0  0  0  0
 11 12  1  0  0  0  0
 12 13  1  0  0  0  0
 13 21  1  0  0  0  0
 13 22  1  0  0  0  0
 14 23  1  0  0  0  0
 14 13  1  0  0  0  0
 14 24  1  0  0  0  0
 15  5  1  0  0  0  0
 16 10  1  0  0  0  0
 17 10  1  0  0  0  0
 18 11  1  0  0  0  0
 20 12  1  0  0  0  0
 25 27  1  0  0  0  0
 26 25  1  0  0  0  0
 28 33  1  0  0  0  0
 28 34  1  0  0  0  0
 29 28  2  0  0  0  0
 30 31  2  0  0  0  0
 30 29  1  0  0  0  0
 31 32  1  0  0  0  0
 32 25  1  0  0  0  0
 32 33  2  0  0  0  0
 35 29  1  0  0  0  0
 36 30  1  1  0  0  0
 37 36  1  0  0  0  0
 38 37  1  0  0  0  0
 39 37  1  0  0  0  0
 40 39  1  0  0  0  0
 41 39  1  0  0  0  0
 41 42  1  0  0  0  0
 42 43  1  0  0  0  0
 42 36  1  0  0  0  0
M  END
>  <minimizedAffinity>
-6.50343704

>  <minimizedRMSD>
0.97657156

$$$$
