
 OpenBabel03272508123D

 33 35  0  0  1  0  0  0  0  0999 V2000
   36.6750   29.4330   44.0210 Cl  0  0  0  0  0  0  0  0  0  0  0  0
   38.3150   29.8310   43.4970 C   0  0  0  0  0  0  0  0  0  0  0  0
   39.3050   30.3150   44.3530 C   0  0  0  0  0  0  0  0  0  0  0  0
   40.5580   30.5890   43.8080 C   0  0  0  0  0  0  0  0  0  0  0  0
   40.7860   30.3800   42.4690 C   0  0  0  0  0  0  0  0  0  0  0  0
   39.8330   29.9090   41.6140 C   0  0  0  0  0  0  0  0  0  0  0  0
   38.5980   29.6360   42.1370 C   0  0  0  0  0  0  0  0  0  0  0  0
   41.2470   30.9570   44.5570 H   0  0  0  0  0  0  0  0  0  0  0  0
   41.7990   30.6250   42.1370 H   0  0  0  0  0  0  0  0  0  0  0  0
   40.1020   29.7760   40.5760 H   0  0  0  0  0  0  0  0  0  0  0  0
   37.5470   29.1210   41.2210 C   0  0  2  0  0  3  0  0  0  0  0  0
   38.1310   28.4340   39.9960 C   0  0  0  0  0  3  0  0  0  0  0  0
   39.2240   28.3270   40.0310 H   0  0  0  0  0  0  0  0  0  0  0  0
   37.6680   29.3490   38.8840 C   0  0  0  0  0  3  0  0  0  0  0  0
   38.4450   29.4460   38.0840 H   0  0  0  0  0  0  0  0  0  0  0  0
   37.4180   30.5780   39.4900 O   0  0  0  0  0  0  0  0  0  0  0  0
   36.7180   30.2040   40.6340 C   0  0  0  0  0  3  0  0  0  0  0  0
   35.7800   29.7140   40.2440 H   0  0  0  0  0  0  0  0  0  0  0  0
   38.8630   30.4460   45.6400 O   0  0  0  0  0  0  0  0  0  0  0  0
   39.4380   32.5090   47.1010 O   0  0  0  0  0  0  0  0  0  0  0  0
   38.3070   31.8330   46.4140 P   0  0  1  0  0  0  0  0  0  0  0  0
   37.7080   32.8420   45.1740 O   0  0  0  0  0  0  0  0  0  0  0  0
   38.4890   33.1900   44.6580 H   0  0  0  0  0  0  0  0  0  0  0  0
   37.0230   31.4090   47.4400 O   0  0  0  0  0  0  0  0  0  0  0  0
   37.6140   30.5290   50.9840 C   0  0  0  0  0  0  0  0  0  0  0  0
   37.7060   31.3020   49.8220 C   0  0  0  0  0  0  0  0  0  0  0  0
   37.0690   30.8360   48.6640 C   0  0  0  0  0  0  0  0  0  0  0  0
   36.3930   29.6540   48.7310 N   0  0  0  0  0  0  0  0  0  0  0  0
   36.3300   28.9410   49.8720 C   0  0  0  0  0  0  0  0  0  0  0  0
   36.9360   29.3780   50.9870 N   0  0  0  0  0  0  0  0  0  0  0  0
   38.1290   30.9430   51.8490 H   0  0  0  0  0  0  0  0  0  0  0  0
   38.2210   32.2440   49.6960 H   0  0  0  0  0  0  0  0  0  0  0  0
   35.7990   28.0000   49.9480 H   0  0  0  0  0  0  0  0  0  0  0  0
  2  1  1  0  0  0  0
  2  3  1  0  0  0  0
  3 19  1  0  0  0  0
  4  3  2  0  0  0  0
  4  8  1  0  0  0  0
  5  4  1  0  0  0  0
  6  7  1  0  0  0  0
  6  5  2  0  0  0  0
  7  2  2  0  0  0  0
  9  5  1  0  0  0  0
 10  6  1  0  0  0  0
 11  7  1  1  0  0  0
 12 13  1  0  0  0  0
 12 11  1  0  0  0  0
 14 16  1  0  0  0  0
 14 12  1  0  0  0  0
 15 14  1  0  0  0  0
 16 17  1  0  0  0  0
 17 11  1  0  0  0  0
 18 17  1  0  0  0  0
 19 21  1  0  0  0  0
 21 20  2  1  0  0  0
 21 24  1  0  0  0  0
 22 21  1  0  0  0  0
 23 22  1  0  0  0  0
 24 27  1  0  0  0  0
 25 30  1  0  0  0  0
 25 31  1  0  0  0  0
 26 25  2  0  0  0  0
 27 28  2  0  0  0  0
 27 26  1  0  0  0  0
 28 29  1  0  0  0  0
 29 33  1  0  0  0  0
 29 30  2  0  0  0  0
 32 26  1  0  0  0  0
M  END
>  <minimizedAffinity>
-4.84718513

>  <minimizedRMSD>
1.02308321

$$$$
