
 OpenBabel03272507513D

 27 29  0  0  1  0  0  0  0  0999 V2000
   35.7590   29.8450   48.6680 C   0  0  0  0  0  0  0  0  0  0  0  0
   36.0000   30.3390   47.3760 C   0  0  0  0  0  0  0  0  0  0  0  0
   35.0600   29.9980   46.3900 C   0  0  0  0  0  0  0  0  0  0  0  0
   33.9940   29.2310   46.7250 N   0  0  0  0  0  0  0  0  0  0  0  0
   33.7960   28.7780   47.9700 C   0  0  0  0  0  0  0  0  0  0  0  0
   34.6850   29.0880   48.9460 N   0  0  0  0  0  0  0  0  0  0  0  0
   35.2520   30.3810   45.3970 H   0  0  0  0  0  0  0  0  0  0  0  0
   32.9060   28.1770   48.0980 H   0  0  0  0  0  0  0  0  0  0  0  0
   37.1520   31.1330   47.1460 N   0  0  0  0  0  0  0  0  0  0  0  0
   37.5950   32.0140   48.0490 C   0  0  0  0  0  0  0  0  0  0  0  0
   38.7370   32.7750   47.7890 C   0  0  0  0  0  0  0  0  0  0  0  0
   39.3030   32.5170   46.5680 C   0  0  0  0  0  0  0  0  0  0  0  0
   40.3520   33.1990   46.3010 O   0  0  0  0  0  0  0  0  0  0  0  0
   38.8890   31.6480   45.6420 N   0  0  0  0  0  0  0  0  0  0  0  0
   37.7730   30.9390   45.9570 C   0  0  0  0  0  0  0  0  0  0  0  0
   37.3660   30.1100   45.0860 O   0  0  0  0  0  0  0  0  0  0  0  0
   37.0900   32.1710   49.0020 H   0  0  0  0  0  0  0  0  0  0  0  0
   39.1480   33.5030   48.4760 H   0  0  0  0  0  0  0  0  0  0  0  0
   39.4070   31.5380   44.7430 H   0  0  0  0  0  0  0  0  0  0  0  0
   36.6350   30.0940   49.8110 C   0  0  2  0  0  3  0  0  0  0  0  0
   37.7330   29.0420   49.9380 C   0  0  0  0  0  3  0  0  0  0  0  0
   38.6860   29.4260   49.5280 H   0  0  0  0  0  0  0  0  0  0  0  0
   37.8680   28.9190   51.4360 C   0  0  0  0  0  3  0  0  0  0  0  0
   37.4860   27.9490   51.8320 H   0  0  0  0  0  0  0  0  0  0  0  0
   37.0580   29.9190   51.9980 O   0  0  0  0  0  0  0  0  0  0  0  0
   35.9370   29.9390   51.1410 C   0  0  0  0  0  3  0  0  0  0  0  0
   35.3060   30.8050   51.4040 H   0  0  0  0  0  0  0  0  0  0  0  0
  1  6  1  0  0  0  0
  2  1  2  0  0  0  0
  3  4  2  0  0  0  0
  3  2  1  0  0  0  0
  4  5  1  0  0  0  0
  5  8  1  0  0  0  0
  5  6  2  0  0  0  0
  7  3  1  0  0  0  0
  9  2  1  0  0  0  0
  9 10  1  0  0  0  0
 10 17  1  0  0  0  0
 11 10  2  0  0  0  0
 11 18  1  0  0  0  0
 12 11  1  0  0  0  0
 13 12  2  0  0  0  0
 14 15  1  0  0  0  0
 14 12  1  0  0  0  0
 15  9  1  0  0  0  0
 16 15  2  0  0  0  0
 19 14  1  0  0  0  0
 20  1  1  6  0  0  0
 20 21  1  0  0  0  0
 20 26  1  0  0  0  0
 21 23  1  0  0  0  0
 22 21  1  0  0  0  0
 23 24  1  0  0  0  0
 23 25  1  0  0  0  0
 26 27  1  0  0  0  0
 26 25  1  0  0  0  0
M  END
>  <minimizedAffinity>
-4.48432016

>  <minimizedRMSD>
1.74031222

$$$$
