
 OpenBabel03272505443D

 23 24  0  0  1  0  0  0  0  0999 V2000
   34.5260   30.5640   49.3370 O   0  0  0  0  0  0  0  0  0  0  0  0
   35.2180   29.3160   48.8000 P   0  0  2  0  0  0  0  0  0  0  0  0
   34.5740   28.0060   49.6300 O   0  0  0  0  0  0  0  0  0  0  0  0
   33.7700   27.6390   49.1960 H   0  0  0  0  0  0  0  0  0  0  0  0
   36.8920   29.4900   49.0560 O   0  0  0  0  0  0  0  0  0  0  0  0
   38.4390   32.7830   49.4340 C   0  0  0  0  0  0  0  0  0  0  0  0
   39.0310   32.9170   48.1520 C   0  0  0  0  0  0  0  0  0  0  0  0
   38.8570   31.8650   47.2470 C   0  0  0  0  0  0  0  0  0  0  0  0
   38.1330   30.7710   47.6360 N   0  0  0  0  0  0  0  0  0  0  0  0
   37.5830   30.6760   48.8630 C   0  0  0  0  0  0  0  0  0  0  0  0
   37.7360   31.6820   49.7630 N   0  0  0  0  0  0  0  0  0  0  0  0
   38.5470   33.5660   50.1600 H   0  0  0  0  0  0  0  0  0  0  0  0
   39.5880   33.8240   47.9350 H   0  0  0  0  0  0  0  0  0  0  0  0
   39.3040   31.9570   46.2670 H   0  0  0  0  0  0  0  0  0  0  0  0
   34.7940   29.1930   47.1810 O   0  0  0  0  0  0  0  0  0  0  0  0
   33.5960   29.8250   46.8840 C   0  0  1  0  0  0  0  0  0  0  0  0
   33.5200   30.2850   45.4560 C   0  0  0  0  0  0  0  0  0  0  0  0
   33.5760   31.3890   45.3680 H   0  0  0  0  0  0  0  0  0  0  0  0
   32.1370   29.8180   45.0300 C   0  0  0  0  0  0  0  0  0  0  0  0
   32.2420   28.9340   44.3820 H   0  0  0  0  0  0  0  0  0  0  0  0
   31.4940   29.4140   46.2010 O   0  0  0  0  0  0  0  0  0  0  0  0
   32.5120   28.7650   46.9140 C   0  0  0  0  0  0  0  0  0  0  0  0
   32.2230   28.5790   47.9670 H   0  0  0  0  0  0  0  0  0  0  0  0
  2  5  1  0  0  0  0
  2  1  2  1  0  0  0
  2  3  1  0  0  0  0
  4  3  1  0  0  0  0
  6 11  1  0  0  0  0
  6 12  1  0  0  0  0
  7  6  2  0  0  0  0
  8  9  2  0  0  0  0
  8  7  1  0  0  0  0
  9 10  1  0  0  0  0
 10  5  1  0  0  0  0
 10 11  2  0  0  0  0
 13  7  1  0  0  0  0
 14  8  1  0  0  0  0
 15  2  1  0  0  0  0
 16 22  1  0  0  0  0
 16 15  1  6  0  0  0
 17 16  1  0  0  0  0
 18 17  1  0  0  0  0
 19 17  1  0  0  0  0
 19 21  1  0  0  0  0
 20 19  1  0  0  0  0
 21 22  1  0  0  0  0
 22 23  1  0  0  0  0
M  END
>  <minimizedAffinity>
-4.01592779

>  <minimizedRMSD>
2.4992547

$$$$
