
 OpenBabel03272505423D

 44 47  0  0  1  0  0  0  0  0999 V2000
   35.7080   30.2490   46.5560 C   0  0  0  0  0  0  0  0  0  0  0  0
   34.3700   29.8660   46.6420 C   0  0  0  0  0  0  0  0  0  0  0  0
   33.6920   29.5110   45.4900 C   0  0  0  0  0  0  0  0  0  0  0  0
   34.2660   29.5090   44.2350 C   0  0  0  0  0  0  0  0  0  0  0  0
   35.6000   29.8910   44.1470 C   0  0  0  0  0  0  0  0  0  0  0  0
   36.2600   30.2440   45.3150 C   0  0  0  0  0  0  0  0  0  0  0  0
   33.8380   29.8370   47.5870 H   0  0  0  0  0  0  0  0  0  0  0  0
   32.6520   29.2160   45.5860 H   0  0  0  0  0  0  0  0  0  0  0  0
   33.6850   29.2200   43.3650 H   0  0  0  0  0  0  0  0  0  0  0  0
   35.9980   29.8750   43.1570 H   0  0  0  0  0  0  0  0  0  0  0  0
   37.6090   30.6040   45.0290 N   0  0  0  0  0  0  0  0  0  0  0  0
   38.9030   29.9940   45.0550 C   0  0  0  0  0  0  0  0  0  0  0  0
   39.7960   30.8560   45.9170 C   0  0  0  0  0  0  0  0  0  0  0  0
   40.0400   32.0870   45.2020 N   0  0  0  0  0  0  0  0  0  0  0  0
   39.0380   32.4130   44.2470 C   0  0  0  0  0  0  0  0  0  0  0  0
   37.6580   31.9600   44.5850 C   0  0  0  0  0  0  0  0  0  0  0  0
   38.8490   28.9520   45.4080 H   0  0  0  0  0  0  0  0  0  0  0  0
   39.3420   30.0370   44.0340 H   0  0  0  0  0  0  0  0  0  0  0  0
   39.7300   30.8370   46.9560 H   0  0  0  0  0  0  0  0  0  0  0  0
   40.7870   30.3000   45.7530 H   0  0  0  0  0  0  0  0  0  0  0  0
   40.9680   32.2140   44.7980 H   0  0  0  0  0  0  0  0  0  0  0  0
   38.9860   33.5440   44.2320 H   0  0  0  0  0  0  0  0  0  0  0  0
   39.3660   32.1540   43.2190 H   0  0  0  0  0  0  0  0  0  0  0  0
   37.0480   32.6910   45.1050 H   0  0  0  0  0  0  0  0  0  0  0  0
   37.1570   31.9050   43.5650 H   0  0  0  0  0  0  0  0  0  0  0  0
   37.1330   30.1690   49.9100 C   0  0  0  0  0  0  0  0  0  0  0  0
   37.8140   31.3960   49.9810 C   0  0  0  0  0  0  0  0  0  0  0  0
   37.7770   32.2380   48.8690 C   0  0  0  0  0  0  0  0  0  0  0  0
   37.0710   31.7840   47.8000 N   0  0  0  0  0  0  0  0  0  0  0  0
   36.4320   30.6270   47.7420 C   0  0  0  0  0  0  0  0  0  0  0  0
   36.4630   29.8080   48.8100 N   0  0  0  0  0  0  0  0  0  0  0  0
   38.3650   31.7230   50.8470 H   0  0  0  0  0  0  0  0  0  0  0  0
   38.4810   33.5220   48.9240 C   0  0  2  0  0  3  0  0  0  0  0  0
   39.4690   33.7140   47.7970 C   0  0  0  0  0  3  0  0  0  0  0  0
   39.0260   34.1230   46.8710 H   0  0  0  0  0  0  0  0  0  0  0  0
   40.3650   34.7780   48.4100 C   0  0  0  0  0  3  0  0  0  0  0  0
   41.4370   34.5660   48.2210 H   0  0  0  0  0  0  0  0  0  0  0  0
   40.1120   34.8230   49.7540 O   0  0  0  0  0  0  0  0  0  0  0  0
   39.4390   33.6500   50.1020 C   0  0  0  0  0  3  0  0  0  0  0  0
   40.2240   32.8560   50.0740 H   0  0  0  0  0  0  0  0  0  0  0  0
   37.1880   29.2930   51.1360 C   0  0  0  0  0  0  0  0  0  0  0  0
   35.8670   28.9590   51.4830 F   0  0  0  0  0  0  0  0  0  0  0  0
   37.9300   28.2150   50.8560 F   0  0  0  0  0  0  0  0  0  0  0  0
   37.6710   30.0390   52.1810 F   0  0  0  0  0  0  0  0  0  0  0  0
  1  2  1  0  0  0  0
  1 30  1  0  0  0  0
  2  7  1  0  0  0  0
  3  8  1  0  0  0  0
  3  2  2  0  0  0  0
  4  3  1  0  0  0  0
  5  4  2  0  0  0  0
  5  6  1  0  0  0  0
  6  1  2  0  0  0  0
  9  4  1  0  0  0  0
 10  5  1  0  0  0  0
 11 12  1  0  0  0  0
 11  6  1  0  0  0  0
 12 17  1  0  0  0  0
 12 13  1  0  0  0  0
 13 19  1  0  0  0  0
 14 13  1  0  0  0  0
 15 16  1  0  0  0  0
 15 14  1  0  0  0  0
 16 11  1  0  0  0  0
 16 24  1  0  0  0  0
 18 12  1  0  0  0  0
 20 13  1  0  0  0  0
 21 14  1  0  0  0  0
 22 15  1  0  0  0  0
 23 15  1  0  0  0  0
 25 16  1  0  0  0  0
 26 27  1  0  0  0  0
 26 41  1  0  0  0  0
 27 32  1  0  0  0  0
 28 27  2  0  0  0  0
 29 28  1  0  0  0  0
 30 29  2  0  0  0  0
 30 31  1  0  0  0  0
 31 26  2  0  0  0  0
 33 28  1  6  0  0  0
 33 39  1  0  0  0  0
 34 36  1  0  0  0  0
 34 33  1  0  0  0  0
 35 34  1  0  0  0  0
 36 38  1  0  0  0  0
 37 36  1  0  0  0  0
 38 39  1  0  0  0  0
 40 39  1  0  0  0  0
 41 42  1  0  0  0  0
 41 44  1  0  0  0  0
 43 41  1  0  0  0  0
M  END
>  <minimizedAffinity>
-5.79097033

>  <minimizedRMSD>
0.63039887

$$$$
