
 OpenBabel03272508123D

 33 35  0  0  1  0  0  0  0  0999 V2000
   36.6760   29.4820   44.0780 Cl  0  0  0  0  0  0  0  0  0  0  0  0
   38.3180   29.8590   43.5460 C   0  0  0  0  0  0  0  0  0  0  0  0
   39.3180   30.3320   44.3970 C   0  0  0  0  0  0  0  0  0  0  0  0
   40.5720   30.5900   43.8450 C   0  0  0  0  0  0  0  0  0  0  0  0
   40.7900   30.3760   42.5050 C   0  0  0  0  0  0  0  0  0  0  0  0
   39.8280   29.9150   41.6560 C   0  0  0  0  0  0  0  0  0  0  0  0
   38.5920   29.6580   42.1850 C   0  0  0  0  0  0  0  0  0  0  0  0
   41.2680   30.9500   44.5900 H   0  0  0  0  0  0  0  0  0  0  0  0
   41.8050   30.6080   42.1680 H   0  0  0  0  0  0  0  0  0  0  0  0
   40.0900   29.7780   40.6170 H   0  0  0  0  0  0  0  0  0  0  0  0
   37.5300   29.1550   41.2750 C   0  0  2  0  0  3  0  0  0  0  0  0
   37.5050   27.6350   41.1980 C   0  0  0  0  0  3  0  0  0  0  0  0
   38.1910   27.1480   41.9020 H   0  0  0  0  0  0  0  0  0  0  0  0
   37.8830   27.3980   39.7530 C   0  0  0  0  0  3  0  0  0  0  0  0
   38.5310   26.4920   39.6420 H   0  0  0  0  0  0  0  0  0  0  0  0
   38.5560   28.5470   39.3480 O   0  0  0  0  0  0  0  0  0  0  0  0
   37.7490   29.5570   39.8620 C   0  0  0  0  0  3  0  0  0  0  0  0
   36.7610   29.4270   39.3350 H   0  0  0  0  0  0  0  0  0  0  0  0
   38.8840   30.4700   45.6860 O   0  0  0  0  0  0  0  0  0  0  0  0
   39.4430   32.5430   47.1400 O   0  0  0  0  0  0  0  0  0  0  0  0
   38.3180   31.8580   46.4510 P   0  0  1  0  0  0  0  0  0  0  0  0
   37.7220   32.8600   45.2020 O   0  0  0  0  0  0  0  0  0  0  0  0
   38.5050   33.2090   44.6890 H   0  0  0  0  0  0  0  0  0  0  0  0
   37.0300   31.4340   47.4710 O   0  0  0  0  0  0  0  0  0  0  0  0
   37.6050   30.5180   51.0080 C   0  0  0  0  0  0  0  0  0  0  0  0
   37.7030   31.3030   49.8550 C   0  0  0  0  0  0  0  0  0  0  0  0
   37.0710   30.8490   48.6890 C   0  0  0  0  0  0  0  0  0  0  0  0
   36.3940   29.6660   48.7410 N   0  0  0  0  0  0  0  0  0  0  0  0
   36.3260   28.9420   49.8740 C   0  0  0  0  0  0  0  0  0  0  0  0
   36.9270   29.3680   50.9960 N   0  0  0  0  0  0  0  0  0  0  0  0
   38.1170   30.9230   51.8800 H   0  0  0  0  0  0  0  0  0  0  0  0
   38.2190   32.2450   49.7400 H   0  0  0  0  0  0  0  0  0  0  0  0
   35.7940   28.0000   49.9390 H   0  0  0  0  0  0  0  0  0  0  0  0
  2  1  1  0  0  0  0
  2  3  1  0  0  0  0
  3 19  1  0  0  0  0
  4  3  2  0  0  0  0
  4  8  1  0  0  0  0
  5  4  1  0  0  0  0
  6  7  1  0  0  0  0
  6  5  2  0  0  0  0
  7  2  2  0  0  0  0
  9  5  1  0  0  0  0
 10  6  1  0  0  0  0
 11  7  1  1  0  0  0
 12 11  1  0  0  0  0
 12 13  1  0  0  0  0
 14 12  1  0  0  0  0
 15 14  1  0  0  0  0
 16 14  1  0  0  0  0
 16 17  1  0  0  0  0
 17 11  1  0  0  0  0
 18 17  1  0  0  0  0
 19 21  1  0  0  0  0
 21 20  2  1  0  0  0
 21 24  1  0  0  0  0
 22 21  1  0  0  0  0
 23 22  1  0  0  0  0
 24 27  1  0  0  0  0
 25 31  1  0  0  0  0
 26 25  2  0  0  0  0
 27 28  2  0  0  0  0
 27 26  1  0  0  0  0
 28 29  1  0  0  0  0
 29 33  1  0  0  0  0
 29 30  2  0  0  0  0
 30 25  1  0  0  0  0
 32 26  1  0  0  0  0
M  END
>  <minimizedAffinity>
-4.88298416

>  <minimizedRMSD>
1.28114963

$$$$
