
 OpenBabel03272507533D

 31 33  0  0  1  0  0  0  0  0999 V2000
   38.1560   23.5650   34.5640 N   0  0  0  0  0  0  0  0  0  0  0  0
   38.6040   24.5580   33.8080 C   0  0  0  0  0  0  0  0  0  0  0  0
   38.3730   24.5420   32.4340 C   0  0  0  0  0  0  0  0  0  0  0  0
   37.6800   23.4610   31.9840 C   0  0  0  0  0  0  0  0  0  0  0  0
   37.4730   23.4540   30.7280 O   0  0  0  0  0  0  0  0  0  0  0  0
   37.2180   22.4500   32.7080 N   0  0  0  0  0  0  0  0  0  0  0  0
   37.4650   22.5110   34.0280 C   0  0  0  0  0  0  0  0  0  0  0  0
   37.0290   21.5560   34.7530 O   0  0  0  0  0  0  0  0  0  0  0  0
   39.1510   25.3740   34.2960 H   0  0  0  0  0  0  0  0  0  0  0  0
   38.7360   25.3460   31.8270 H   0  0  0  0  0  0  0  0  0  0  0  0
   39.5460   22.8810   36.4410 C   0  0  0  0  0  0  0  0  0  0  0  0
   38.3660   23.5180   35.9740 C   0  0  0  0  0  0  0  0  0  0  0  0
   37.4920   24.0540   36.9260 C   0  0  0  0  0  0  0  0  0  0  0  0
   37.8110   23.9400   38.2360 N   0  0  0  0  0  0  0  0  0  0  0  0
   38.9120   23.3450   38.6620 C   0  0  0  0  0  0  0  0  0  0  0  0
   39.7770   22.8170   37.7740 N   0  0  0  0  0  0  0  0  0  0  0  0
   36.5990   24.5360   36.5540 H   0  0  0  0  0  0  0  0  0  0  0  0
   39.1960   23.2370   39.7010 H   0  0  0  0  0  0  0  0  0  0  0  0
   41.7230   22.8400   35.0070 C   0  0  0  0  0  0  0  0  0  0  0  0
   42.1660   23.9720   35.3070 O   0  0  0  0  0  0  0  0  0  0  0  0
   40.5130   22.3140   35.5810 N   0  0  0  0  0  0  0  0  0  0  0  0
   42.3180   22.3010   34.2900 H   0  0  0  0  0  0  0  0  0  0  0  0
   40.3760   21.3160   35.2680 H   0  0  0  0  0  0  0  0  0  0  0  0
   36.5120   21.3960   32.0660 C   0  0  1  0  0  3  0  0  0  0  0  0
   37.0330   20.0090   32.1740 C   0  0  0  0  0  3  0  0  0  0  0  0
   38.0110   19.8220   31.7350 H   0  0  0  0  0  0  0  0  0  0  0  0
   35.8880   19.3750   31.3520 C   0  0  0  0  0  3  0  0  0  0  0  0
   36.1060   19.6960   30.3140 H   0  0  0  0  0  0  0  0  0  0  0  0
   34.7540   19.9660   31.8980 O   0  0  0  0  0  0  0  0  0  0  0  0
   35.1070   21.1480   32.5240 C   0  0  0  0  0  3  0  0  0  0  0  0
   34.4330   21.9330   32.0890 H   0  0  0  0  0  0  0  0  0  0  0  0
  1 12  1  0  0  0  0
  2  9  1  0  0  0  0
  2  1  1  0  0  0  0
  3  2  2  0  0  0  0
  4  3  1  0  0  0  0
  4  6  1  0  0  0  0
  5  4  2  0  0  0  0
  6  7  1  0  0  0  0
  7  1  1  0  0  0  0
  7  8  2  0  0  0  0
 10  3  1  0  0  0  0
 11 16  1  0  0  0  0
 12 11  2  0  0  0  0
 12 13  1  0  0  0  0
 13 14  2  0  0  0  0
 14 15  1  0  0  0  0
 15 18  1  0  0  0  0
 16 15  2  0  0  0  0
 17 13  1  0  0  0  0
 19 20  2  0  0  0  0
 19 21  1  0  0  0  0
 21 11  1  0  0  0  0
 22 19  1  0  0  0  0
 23 21  1  0  0  0  0
 24 25  1  0  0  0  0
 24 30  1  0  0  0  0
 24  6  1  1  0  0  0
 26 25  1  0  0  0  0
 27 29  1  0  0  0  0
 27 25  1  0  0  0  0
 28 27  1  0  0  0  0
 29 30  1  0  0  0  0
 31 30  1  0  0  0  0
M  END
>  <minimizedAffinity>
-4.91726351

$$$$

 OpenBabel03272507533D

 31 33  0  0  1  0  0  0  0  0999 V2000
   39.0420   23.6760   34.4280 N   0  0  0  0  0  0  0  0  0  0  0  0
   38.7990   24.9750   34.3180 C   0  0  0  0  0  0  0  0  0  0  0  0
   37.8040   25.4230   33.4520 C   0  0  0  0  0  0  0  0  0  0  0  0
   37.1520   24.4410   32.7730 C   0  0  0  0  0  0  0  0  0  0  0  0
   36.2450   24.8580   31.9840 O   0  0  0  0  0  0  0  0  0  0  0  0
   37.3680   23.1330   32.8560 N   0  0  0  0  0  0  0  0  0  0  0  0
   38.3370   22.7500   33.7060 C   0  0  0  0  0  0  0  0  0  0  0  0
   38.5660   21.5000   33.8120 O   0  0  0  0  0  0  0  0  0  0  0  0
   39.3990   25.6670   34.9230 H   0  0  0  0  0  0  0  0  0  0  0  0
   37.6110   26.4730   33.3660 H   0  0  0  0  0  0  0  0  0  0  0  0
   39.6420   22.6650   36.5580 C   0  0  0  0  0  0  0  0  0  0  0  0
   40.0510   23.1540   35.2900 C   0  0  0  0  0  0  0  0  0  0  0  0
   41.4130   23.0920   34.9750 C   0  0  0  0  0  0  0  0  0  0  0  0
   42.2670   22.5720   35.8860 N   0  0  0  0  0  0  0  0  0  0  0  0
   41.8770   22.1180   37.0650 C   0  0  0  0  0  0  0  0  0  0  0  0
   40.5740   22.1630   37.4040 N   0  0  0  0  0  0  0  0  0  0  0  0
   41.7080   23.4680   34.0050 H   0  0  0  0  0  0  0  0  0  0  0  0
   42.5330   21.6970   37.8150 H   0  0  0  0  0  0  0  0  0  0  0  0
   37.6080   23.3930   38.0160 C   0  0  0  0  0  0  0  0  0  0  0  0
   38.1640   24.3020   38.6740 O   0  0  0  0  0  0  0  0  0  0  0  0
   38.2960   22.6590   36.9900 N   0  0  0  0  0  0  0  0  0  0  0  0
   36.5810   23.2110   38.2850 H   0  0  0  0  0  0  0  0  0  0  0  0
   37.6200   22.0140   36.5000 H   0  0  0  0  0  0  0  0  0  0  0  0
   36.5870   22.2450   32.0670 C   0  0  1  0  0  3  0  0  0  0  0  0
   37.2740   21.1890   31.2790 C   0  0  0  0  0  3  0  0  0  0  0  0
   37.9500   21.5290   30.4960 H   0  0  0  0  0  0  0  0  0  0  0  0
   35.9710   20.5840   30.7100 C   0  0  0  0  0  3  0  0  0  0  0  0
   35.6370   21.3390   29.9690 H   0  0  0  0  0  0  0  0  0  0  0  0
   35.1560   20.4960   31.8330 O   0  0  0  0  0  0  0  0  0  0  0  0
   35.6040   21.3820   32.7960 C   0  0  0  0  0  3  0  0  0  0  0  0
   34.7100   21.9990   33.0780 H   0  0  0  0  0  0  0  0  0  0  0  0
  1 12  1  0  0  0  0
  2  1  1  0  0  0  0
  2  9  1  0  0  0  0
  3  2  2  0  0  0  0
  4  6  1  0  0  0  0
  4  3  1  0  0  0  0
  5  4  2  0  0  0  0
  6  7  1  0  0  0  0
  7  8  2  0  0  0  0
  7  1  1  0  0  0  0
 10  3  1  0  0  0  0
 11 21  1  0  0  0  0
 11 16  1  0  0  0  0
 12 11  2  0  0  0  0
 13 12  1  0  0  0  0
 13 14  2  0  0  0  0
 14 15  1  0  0  0  0
 15 16  2  0  0  0  0
 15 18  1  0  0  0  0
 17 13  1  0  0  0  0
 19 22  1  0  0  0  0
 19 20  2  0  0  0  0
 21 19  1  0  0  0  0
 23 21  1  0  0  0  0
 24 30  1  0  0  0  0
 24  6  1  1  0  0  0
 25 24  1  0  0  0  0
 26 25  1  0  0  0  0
 27 25  1  0  0  0  0
 27 29  1  0  0  0  0
 28 27  1  0  0  0  0
 29 30  1  0  0  0  0
 30 31  1  0  0  0  0
M  END
>  <minimizedAffinity>
-4.88688087

$$$$

 OpenBabel03272507533D

 31 33  0  0  1  0  0  0  0  0999 V2000
   38.6850   22.6150   33.9300 N   0  0  0  0  0  0  0  0  0  0  0  0
   37.8870   21.7040   33.3900 C   0  0  0  0  0  0  0  0  0  0  0  0
   36.8510   22.1010   32.5470 C   0  0  0  0  0  0  0  0  0  0  0  0
   36.7550   23.4440   32.3530 C   0  0  0  0  0  0  0  0  0  0  0  0
   35.8070   23.7980   31.5820 O   0  0  0  0  0  0  0  0  0  0  0  0
   37.5330   24.3850   32.8750 N   0  0  0  0  0  0  0  0  0  0  0  0
   38.5190   23.9520   33.6800 C   0  0  0  0  0  0  0  0  0  0  0  0
   39.2860   24.8310   34.1950 O   0  0  0  0  0  0  0  0  0  0  0  0
   38.0720   20.6490   33.6290 H   0  0  0  0  0  0  0  0  0  0  0  0
   36.2090   21.3610   32.1140 H   0  0  0  0  0  0  0  0  0  0  0  0
   39.4710   22.1950   36.1940 C   0  0  0  0  0  0  0  0  0  0  0  0
   39.7580   22.2760   34.8060 C   0  0  0  0  0  0  0  0  0  0  0  0
   41.0690   22.0180   34.3940 C   0  0  0  0  0  0  0  0  0  0  0  0
   41.9950   21.7060   35.3310 N   0  0  0  0  0  0  0  0  0  0  0  0
   41.7190   21.6340   36.6210 C   0  0  0  0  0  0  0  0  0  0  0  0
   40.4660   21.8770   37.0560 N   0  0  0  0  0  0  0  0  0  0  0  0
   41.2710   22.0830   33.3330 H   0  0  0  0  0  0  0  0  0  0  0  0
   42.4340   21.3880   37.3960 H   0  0  0  0  0  0  0  0  0  0  0  0
   37.5710   23.5810   37.3190 C   0  0  0  0  0  0  0  0  0  0  0  0
   38.1390   24.6960   37.3410 O   0  0  0  0  0  0  0  0  0  0  0  0
   38.1840   22.4190   36.7340 N   0  0  0  0  0  0  0  0  0  0  0  0
   36.5940   23.5670   37.7700 H   0  0  0  0  0  0  0  0  0  0  0  0
   37.4990   21.6160   36.7340 H   0  0  0  0  0  0  0  0  0  0  0  0
   37.2840   25.7490   32.5620 C   0  0  1  0  0  3  0  0  0  0  0  0
   37.0880   26.7180   33.6710 C   0  0  0  0  0  3  0  0  0  0  0  0
   36.2250   26.5540   34.3130 H   0  0  0  0  0  0  0  0  0  0  0  0
   36.9070   27.9410   32.7440 C   0  0  0  0  0  3  0  0  0  0  0  0
   35.9020   27.7850   32.3020 H   0  0  0  0  0  0  0  0  0  0  0  0
   37.9510   27.7960   31.8360 O   0  0  0  0  0  0  0  0  0  0  0  0
   38.3590   26.4750   31.8120 C   0  0  0  0  0  3  0  0  0  0  0  0
   38.3270   26.1690   30.7330 H   0  0  0  0  0  0  0  0  0  0  0  0
  1 12  1  0  0  0  0
  2  9  1  0  0  0  0
  2  1  1  0  0  0  0
  3  2  2  0  0  0  0
  4  3  1  0  0  0  0
  4  6  1  0  0  0  0
  5  4  2  0  0  0  0
  6  7  1  0  0  0  0
  7  1  1  0  0  0  0
  7  8  2  0  0  0  0
 10  3  1  0  0  0  0
 11 21  1  0  0  0  0
 11 16  1  0  0  0  0
 12 11  2  0  0  0  0
 13 12  1  0  0  0  0
 13 14  2  0  0  0  0
 14 15  1  0  0  0  0
 15 16  2  0  0  0  0
 15 18  1  0  0  0  0
 17 13  1  0  0  0  0
 19 20  2  0  0  0  0
 19 22  1  0  0  0  0
 21 19  1  0  0  0  0
 23 21  1  0  0  0  0
 24  6  1  1  0  0  0
 24 25  1  0  0  0  0
 25 26  1  0  0  0  0
 27 25  1  0  0  0  0
 28 27  1  0  0  0  0
 29 27  1  0  0  0  0
 30 29  1  0  0  0  0
 30 24  1  0  0  0  0
 31 30  1  0  0  0  0
M  END
>  <minimizedAffinity>
-4.86361551

$$$$

 OpenBabel03272507533D

 31 33  0  0  1  0  0  0  0  0999 V2000
   36.1140   26.4540   31.7260 N   0  0  0  0  0  0  0  0  0  0  0  0
   35.4470   25.5260   31.0540 C   0  0  0  0  0  0  0  0  0  0  0  0
   35.7230   24.1780   31.2760 C   0  0  0  0  0  0  0  0  0  0  0  0
   36.6920   23.9370   32.2000 C   0  0  0  0  0  0  0  0  0  0  0  0
   36.9380   22.7040   32.3960 O   0  0  0  0  0  0  0  0  0  0  0  0
   37.3800   24.8380   32.8900 N   0  0  0  0  0  0  0  0  0  0  0  0
   37.0770   26.1240   32.6430 C   0  0  0  0  0  0  0  0  0  0  0  0
   37.7180   27.0150   33.2930 O   0  0  0  0  0  0  0  0  0  0  0  0
   34.6880   25.8530   30.3340 H   0  0  0  0  0  0  0  0  0  0  0  0
   35.1820   23.4310   30.7310 H   0  0  0  0  0  0  0  0  0  0  0  0
   36.5650   28.4890   30.4710 C   0  0  0  0  0  0  0  0  0  0  0  0
   35.8850   27.8500   31.5410 C   0  0  0  0  0  0  0  0  0  0  0  0
   35.0410   28.6300   32.3380 C   0  0  0  0  0  0  0  0  0  0  0  0
   34.9120   29.9460   32.0530 N   0  0  0  0  0  0  0  0  0  0  0  0
   35.5490   30.5340   31.0550 C   0  0  0  0  0  0  0  0  0  0  0  0
   36.3730   29.8150   30.2660 N   0  0  0  0  0  0  0  0  0  0  0  0
   34.5300   28.1270   33.1480 H   0  0  0  0  0  0  0  0  0  0  0  0
   35.4700   31.5830   30.8010 H   0  0  0  0  0  0  0  0  0  0  0  0
   38.8470   27.5500   29.6310 C   0  0  0  0  0  0  0  0  0  0  0  0
   39.5500   27.8520   30.6220 O   0  0  0  0  0  0  0  0  0  0  0  0
   37.4330   27.8100   29.5870 N   0  0  0  0  0  0  0  0  0  0  0  0
   39.3860   27.0840   28.8240 H   0  0  0  0  0  0  0  0  0  0  0  0
   37.0210   27.3910   28.7110 H   0  0  0  0  0  0  0  0  0  0  0  0
   38.3640   24.4030   33.8200 C   0  0  1  0  0  3  0  0  0  0  0  0
   39.7580   24.8980   33.6780 C   0  0  0  0  0  3  0  0  0  0  0  0
   40.2820   24.6190   32.7660 H   0  0  0  0  0  0  0  0  0  0  0  0
   40.2900   24.1440   34.9160 C   0  0  0  0  0  3  0  0  0  0  0  0
   40.3140   23.0860   34.5860 H   0  0  0  0  0  0  0  0  0  0  0  0
   39.3240   24.4120   35.8790 O   0  0  0  0  0  0  0  0  0  0  0  0
   38.1400   24.7640   35.2560 C   0  0  0  0  0  3  0  0  0  0  0  0
   37.3580   24.0850   35.6890 H   0  0  0  0  0  0  0  0  0  0  0  0
  1  7  1  0  0  0  0
  2  3  2  0  0  0  0
  2  1  1  0  0  0  0
  3  4  1  0  0  0  0
  4  5  2  0  0  0  0
  4  6  1  0  0  0  0
  7  6  1  0  0  0  0
  7  8  2  0  0  0  0
  9  2  1  0  0  0  0
 10  3  1  0  0  0  0
 11 12  1  0  0  0  0
 12  1  1  0  0  0  0
 12 13  2  0  0  0  0
 13 17  1  0  0  0  0
 14 13  1  0  0  0  0
 15 14  2  0  0  0  0
 16 11  2  0  0  0  0
 16 15  1  0  0  0  0
 18 15  1  0  0  0  0
 19 20  2  0  0  0  0
 21 19  1  0  0  0  0
 21 11  1  0  0  0  0
 22 19  1  0  0  0  0
 23 21  1  0  0  0  0
 24  6  1  6  0  0  0
 24 30  1  0  0  0  0
 25 24  1  0  0  0  0
 25 27  1  0  0  0  0
 26 25  1  0  0  0  0
 27 29  1  0  0  0  0
 28 27  1  0  0  0  0
 30 31  1  0  0  0  0
 30 29  1  0  0  0  0
M  END
>  <minimizedAffinity>
-4.85955858

$$$$

 OpenBabel03272507533D

 31 33  0  0  1  0  0  0  0  0999 V2000
   39.1700   23.7120   34.4010 N   0  0  0  0  0  0  0  0  0  0  0  0
   40.0680   24.4750   33.7930 C   0  0  0  0  0  0  0  0  0  0  0  0
   40.1370   24.4880   32.4010 C   0  0  0  0  0  0  0  0  0  0  0  0
   39.2390   23.6810   31.7760 C   0  0  0  0  0  0  0  0  0  0  0  0
   39.3080   23.6990   30.5060 O   0  0  0  0  0  0  0  0  0  0  0  0
   38.3280   22.9040   32.3500 N   0  0  0  0  0  0  0  0  0  0  0  0
   38.2990   22.9260   33.6940 C   0  0  0  0  0  0  0  0  0  0  0  0
   37.4320   22.1930   34.2760 O   0  0  0  0  0  0  0  0  0  0  0  0
   40.7380   25.0820   34.4150 H   0  0  0  0  0  0  0  0  0  0  0  0
   40.8640   25.1060   31.9140 H   0  0  0  0  0  0  0  0  0  0  0  0
   38.2090   24.5980   36.4530 C   0  0  0  0  0  0  0  0  0  0  0  0
   39.0530   23.6470   35.8210 C   0  0  0  0  0  0  0  0  0  0  0  0
   39.7100   22.7160   36.6320 C   0  0  0  0  0  0  0  0  0  0  0  0
   39.5110   22.7650   37.9700 N   0  0  0  0  0  0  0  0  0  0  0  0
   38.7240   23.6540   38.5500 C   0  0  0  0  0  0  0  0  0  0  0  0
   38.0750   24.5670   37.8010 N   0  0  0  0  0  0  0  0  0  0  0  0
   40.3490   21.9990   36.1350 H   0  0  0  0  0  0  0  0  0  0  0  0
   38.5430   23.7210   39.6150 H   0  0  0  0  0  0  0  0  0  0  0  0
   37.7540   26.9600   35.4490 C   0  0  0  0  0  0  0  0  0  0  0  0
   38.8450   27.5010   35.7400 O   0  0  0  0  0  0  0  0  0  0  0  0
   37.4800   25.5800   35.7450 N   0  0  0  0  0  0  0  0  0  0  0  0
   37.0470   27.6100   34.9640 H   0  0  0  0  0  0  0  0  0  0  0  0
   36.5500   25.3050   35.3310 H   0  0  0  0  0  0  0  0  0  0  0  0
   37.4660   22.1190   31.5360 C   0  0  1  0  0  3  0  0  0  0  0  0
   37.3830   20.6550   31.7750 C   0  0  0  0  0  3  0  0  0  0  0  0
   38.2960   20.0850   31.6180 H   0  0  0  0  0  0  0  0  0  0  0  0
   36.3330   20.4020   30.6710 C   0  0  0  0  0  3  0  0  0  0  0  0
   36.9110   20.5180   29.7320 H   0  0  0  0  0  0  0  0  0  0  0  0
   35.4050   21.4140   30.8910 O   0  0  0  0  0  0  0  0  0  0  0  0
   36.0050   22.4430   31.5940 C   0  0  0  0  0  3  0  0  0  0  0  0
   35.8080   23.3720   30.9970 H   0  0  0  0  0  0  0  0  0  0  0  0
  1 12  1  0  0  0  0
  2  1  1  0  0  0  0
  2  9  1  0  0  0  0
  3  2  2  0  0  0  0
  4  6  1  0  0  0  0
  4  3  1  0  0  0  0
  5  4  2  0  0  0  0
  6  7  1  0  0  0  0
  7  8  2  0  0  0  0
  7  1  1  0  0  0  0
 10  3  1  0  0  0  0
 11 16  1  0  0  0  0
 12 11  2  0  0  0  0
 12 13  1  0  0  0  0
 13 14  2  0  0  0  0
 14 15  1  0  0  0  0
 15 18  1  0  0  0  0
 16 15  2  0  0  0  0
 17 13  1  0  0  0  0
 19 20  2  0  0  0  0
 19 21  1  0  0  0  0
 21 11  1  0  0  0  0
 22 19  1  0  0  0  0
 23 21  1  0  0  0  0
 24 30  1  0  0  0  0
 24 25  1  0  0  0  0
 24  6  1  1  0  0  0
 26 25  1  0  0  0  0
 27 29  1  0  0  0  0
 27 25  1  0  0  0  0
 28 27  1  0  0  0  0
 29 30  1  0  0  0  0
 31 30  1  0  0  0  0
M  END
>  <minimizedAffinity>
-4.81508589

$$$$

 OpenBabel03272507533D

 31 33  0  0  1  0  0  0  0  0999 V2000
   37.9370   24.4690   32.4450 N   0  0  0  0  0  0  0  0  0  0  0  0
   37.0710   23.4960   32.1950 C   0  0  0  0  0  0  0  0  0  0  0  0
   35.8500   23.7940   31.5920 C   0  0  0  0  0  0  0  0  0  0  0  0
   35.6590   25.1110   31.3090 C   0  0  0  0  0  0  0  0  0  0  0  0
   34.5420   25.3740   30.7590 O   0  0  0  0  0  0  0  0  0  0  0  0
   36.5000   26.1100   31.5440 N   0  0  0  0  0  0  0  0  0  0  0  0
   37.6650   25.7730   32.1250 C   0  0  0  0  0  0  0  0  0  0  0  0
   38.4980   26.7100   32.3610 O   0  0  0  0  0  0  0  0  0  0  0  0
   37.3480   22.4720   32.4740 H   0  0  0  0  0  0  0  0  0  0  0  0
   35.1540   23.0060   31.3920 H   0  0  0  0  0  0  0  0  0  0  0  0
   39.3240   24.5520   34.4420 C   0  0  0  0  0  0  0  0  0  0  0  0
   39.2000   24.2320   33.0650 C   0  0  0  0  0  0  0  0  0  0  0  0
   40.3210   23.7090   32.4120 C   0  0  0  0  0  0  0  0  0  0  0  0
   41.4610   23.5340   33.1190 N   0  0  0  0  0  0  0  0  0  0  0  0
   41.5690   23.8350   34.4020 C   0  0  0  0  0  0  0  0  0  0  0  0
   40.5100   24.3420   35.0640 N   0  0  0  0  0  0  0  0  0  0  0  0
   40.2090   23.4700   31.3630 H   0  0  0  0  0  0  0  0  0  0  0  0
   42.4640   23.7080   34.9960 H   0  0  0  0  0  0  0  0  0  0  0  0
   38.0770   26.3380   35.8740 C   0  0  0  0  0  0  0  0  0  0  0  0
   38.8920   27.2800   35.7520 O   0  0  0  0  0  0  0  0  0  0  0  0
   38.2630   25.0730   35.2170 N   0  0  0  0  0  0  0  0  0  0  0  0
   37.2340   26.5550   36.5080 H   0  0  0  0  0  0  0  0  0  0  0  0
   37.4170   24.4620   35.3750 H   0  0  0  0  0  0  0  0  0  0  0  0
   36.1320   27.4340   31.1810 C   0  0  1  0  0  3  0  0  0  0  0  0
   36.2020   28.5090   32.2050 C   0  0  0  0  0  3  0  0  0  0  0  0
   35.5460   28.4030   33.0660 H   0  0  0  0  0  0  0  0  0  0  0  0
   35.7410   29.6300   31.2480 C   0  0  0  0  0  3  0  0  0  0  0  0
   34.6610   29.4230   31.1060 H   0  0  0  0  0  0  0  0  0  0  0  0
   36.5120   29.4030   30.1130 O   0  0  0  0  0  0  0  0  0  0  0  0
   36.9440   28.0890   30.1070 C   0  0  0  0  0  3  0  0  0  0  0  0
   36.6390   27.6760   29.1090 H   0  0  0  0  0  0  0  0  0  0  0  0
  1 12  1  0  0  0  0
  2  1  1  0  0  0  0
  2  9  1  0  0  0  0
  3  2  2  0  0  0  0
  4  6  1  0  0  0  0
  4  3  1  0  0  0  0
  5  4  2  0  0  0  0
  6  7  1  0  0  0  0
  7  8  2  0  0  0  0
  7  1  1  0  0  0  0
 10  3  1  0  0  0  0
 11 16  1  0  0  0  0
 11 21  1  0  0  0  0
 12 11  2  0  0  0  0
 13 12  1  0  0  0  0
 13 14  2  0  0  0  0
 14 15  1  0  0  0  0
 15 18  1  0  0  0  0
 15 16  2  0  0  0  0
 17 13  1  0  0  0  0
 19 22  1  0  0  0  0
 20 19  2  0  0  0  0
 21 23  1  0  0  0  0
 21 19  1  0  0  0  0
 24  6  1  1  0  0  0
 24 25  1  0  0  0  0
 25 26  1  0  0  0  0
 27 25  1  0  0  0  0
 28 27  1  0  0  0  0
 29 27  1  0  0  0  0
 30 29  1  0  0  0  0
 30 24  1  0  0  0  0
 31 30  1  0  0  0  0
M  END
>  <minimizedAffinity>
-4.72949982

$$$$

 OpenBabel03272507533D

 31 33  0  0  1  0  0  0  0  0999 V2000
   36.2970   28.6600   32.0640 N   0  0  0  0  0  0  0  0  0  0  0  0
   36.7170   29.4170   31.0590 C   0  0  0  0  0  0  0  0  0  0  0  0
   36.6310   30.8040   31.1550 C   0  0  0  0  0  0  0  0  0  0  0  0
   36.1010   31.2660   32.3200 C   0  0  0  0  0  0  0  0  0  0  0  0
   36.0260   32.5340   32.3990 O   0  0  0  0  0  0  0  0  0  0  0  0
   35.6700   30.5400   33.3440 N   0  0  0  0  0  0  0  0  0  0  0  0
   35.7750   29.2070   33.2060 C   0  0  0  0  0  0  0  0  0  0  0  0
   35.3730   28.4810   34.1750 O   0  0  0  0  0  0  0  0  0  0  0  0
   37.1250   28.9190   30.1710 H   0  0  0  0  0  0  0  0  0  0  0  0
   36.9710   31.4120   30.3410 H   0  0  0  0  0  0  0  0  0  0  0  0
   37.3730   26.5970   32.7750 C   0  0  0  0  0  0  0  0  0  0  0  0
   36.3500   27.2350   32.0260 C   0  0  0  0  0  0  0  0  0  0  0  0
   35.4680   26.4250   31.3030 C   0  0  0  0  0  0  0  0  0  0  0  0
   35.6300   25.0830   31.3520 N   0  0  0  0  0  0  0  0  0  0  0  0
   36.5860   24.4960   32.0520 C   0  0  0  0  0  0  0  0  0  0  0  0
   37.4550   25.2440   32.7610 N   0  0  0  0  0  0  0  0  0  0  0  0
   34.6940   26.9270   30.7380 H   0  0  0  0  0  0  0  0  0  0  0  0
   36.7430   23.4280   32.1130 H   0  0  0  0  0  0  0  0  0  0  0  0
   38.5510   27.3510   34.9740 C   0  0  0  0  0  0  0  0  0  0  0  0
   37.9320   26.6200   35.7800 O   0  0  0  0  0  0  0  0  0  0  0  0
   38.3170   27.3010   33.5570 N   0  0  0  0  0  0  0  0  0  0  0  0
   39.2660   28.0140   35.4300 H   0  0  0  0  0  0  0  0  0  0  0  0
   39.0080   27.9230   33.0590 H   0  0  0  0  0  0  0  0  0  0  0  0
   35.1400   31.1950   34.4900 C   0  0  1  0  0  3  0  0  0  0  0  0
   33.8860   30.6800   35.0990 C   0  0  0  0  0  3  0  0  0  0  0  0
   32.9930   30.7200   34.4780 H   0  0  0  0  0  0  0  0  0  0  0  0
   33.8580   31.7220   36.2390 C   0  0  0  0  0  3  0  0  0  0  0  0
   33.5760   32.6620   35.7240 H   0  0  0  0  0  0  0  0  0  0  0  0
   35.1690   31.7060   36.7040 O   0  0  0  0  0  0  0  0  0  0  0  0
   36.0000   31.2090   35.7160 C   0  0  0  0  0  3  0  0  0  0  0  0
   36.8100   31.9740   35.5900 H   0  0  0  0  0  0  0  0  0  0  0  0
  1  7  1  0  0  0  0
  2  3  2  0  0  0  0
  2  1  1  0  0  0  0
  3  4  1  0  0  0  0
  4  5  2  0  0  0  0
  4  6  1  0  0  0  0
  7  6  1  0  0  0  0
  7  8  2  0  0  0  0
  9  2  1  0  0  0  0
 10  3  1  0  0  0  0
 11 21  1  0  0  0  0
 12  1  1  0  0  0  0
 12 11  2  0  0  0  0
 13 14  2  0  0  0  0
 13 12  1  0  0  0  0
 14 15  1  0  0  0  0
 15 18  1  0  0  0  0
 15 16  2  0  0  0  0
 16 11  1  0  0  0  0
 17 13  1  0  0  0  0
 19 22  1  0  0  0  0
 19 20  2  0  0  0  0
 21 19  1  0  0  0  0
 23 21  1  0  0  0  0
 24  6  1  6  0  0  0
 24 25  1  0  0  0  0
 24 30  1  0  0  0  0
 25 27  1  0  0  0  0
 26 25  1  0  0  0  0
 27 29  1  0  0  0  0
 28 27  1  0  0  0  0
 30 29  1  0  0  0  0
 31 30  1  0  0  0  0
M  END
>  <minimizedAffinity>
-4.69790792

$$$$

 OpenBabel03272507533D

 31 33  0  0  1  0  0  0  0  0999 V2000
   37.3860   23.4040   32.9760 N   0  0  0  0  0  0  0  0  0  0  0  0
   37.3450   24.6470   32.5170 C   0  0  0  0  0  0  0  0  0  0  0  0
   37.7540   25.7000   33.3330 C   0  0  0  0  0  0  0  0  0  0  0  0
   38.1720   25.3330   34.5740 C   0  0  0  0  0  0  0  0  0  0  0  0
   38.5440   26.3010   35.3120 O   0  0  0  0  0  0  0  0  0  0  0  0
   38.2260   24.1020   35.0680 N   0  0  0  0  0  0  0  0  0  0  0  0
   37.8230   23.1200   34.2430 C   0  0  0  0  0  0  0  0  0  0  0  0
   37.8670   21.9240   34.6860 O   0  0  0  0  0  0  0  0  0  0  0  0
   36.9850   24.8100   31.4940 H   0  0  0  0  0  0  0  0  0  0  0  0
   37.7190   26.7030   32.9580 H   0  0  0  0  0  0  0  0  0  0  0  0
   37.9490   21.6670   31.3670 C   0  0  0  0  0  0  0  0  0  0  0  0
   36.9740   22.2830   32.1950 C   0  0  0  0  0  0  0  0  0  0  0  0
   35.6810   21.7510   32.1880 C   0  0  0  0  0  0  0  0  0  0  0  0
   35.4220   20.6830   31.3980 N   0  0  0  0  0  0  0  0  0  0  0  0
   36.3360   20.1150   30.6300 C   0  0  0  0  0  0  0  0  0  0  0  0
   37.5930   20.6010   30.6100 N   0  0  0  0  0  0  0  0  0  0  0  0
   34.9500   22.2310   32.8240 H   0  0  0  0  0  0  0  0  0  0  0  0
   36.1640   19.2620   29.9880 H   0  0  0  0  0  0  0  0  0  0  0  0
   40.4720   21.7140   32.0220 C   0  0  0  0  0  0  0  0  0  0  0  0
   40.4700   20.7690   32.8430 O   0  0  0  0  0  0  0  0  0  0  0  0
   39.2920   22.1010   31.2960 N   0  0  0  0  0  0  0  0  0  0  0  0
   41.4220   22.2080   31.9090 H   0  0  0  0  0  0  0  0  0  0  0  0
   39.5360   22.8480   30.5920 H   0  0  0  0  0  0  0  0  0  0  0  0
   38.6920   23.9020   36.3960 C   0  0  1  0  0  3  0  0  0  0  0  0
   37.7410   23.4120   37.4270 C   0  0  0  0  0  3  0  0  0  0  0  0
   36.9010   24.0630   37.6600 H   0  0  0  0  0  0  0  0  0  0  0  0
   38.7880   23.3730   38.5620 C   0  0  0  0  0  3  0  0  0  0  0  0
   38.9570   24.4440   38.7960 H   0  0  0  0  0  0  0  0  0  0  0  0
   39.8750   22.7500   37.9570 O   0  0  0  0  0  0  0  0  0  0  0  0
   39.7750   22.8850   36.5840 C   0  0  0  0  0  3  0  0  0  0  0  0
   40.7540   23.3220   36.2530 H   0  0  0  0  0  0  0  0  0  0  0  0
  1  7  1  0  0  0  0
  2  1  1  0  0  0  0
  2  3  2  0  0  0  0
  3  4  1  0  0  0  0
  4  6  1  0  0  0  0
  4  5  2  0  0  0  0
  7  8  2  0  0  0  0
  7  6  1  0  0  0  0
  9  2  1  0  0  0  0
 10  3  1  0  0  0  0
 11 12  1  0  0  0  0
 12  1  1  0  0  0  0
 13 12  2  0  0  0  0
 13 17  1  0  0  0  0
 14 13  1  0  0  0  0
 15 14  2  0  0  0  0
 16 15  1  0  0  0  0
 16 11  2  0  0  0  0
 18 15  1  0  0  0  0
 19 20  2  0  0  0  0
 21 11  1  0  0  0  0
 21 19  1  0  0  0  0
 22 19  1  0  0  0  0
 23 21  1  0  0  0  0
 24  6  1  6  0  0  0
 24 30  1  0  0  0  0
 24 25  1  0  0  0  0
 25 26  1  0  0  0  0
 25 27  1  0  0  0  0
 27 28  1  0  0  0  0
 29 27  1  0  0  0  0
 30 29  1  0  0  0  0
 31 30  1  0  0  0  0
M  END
>  <minimizedAffinity>
-4.68989515

$$$$

 OpenBabel03272507533D

 31 33  0  0  1  0  0  0  0  0999 V2000
   38.4580   24.7880   35.5000 N   0  0  0  0  0  0  0  0  0  0  0  0
   37.8320   24.1570   36.4840 C   0  0  0  0  0  0  0  0  0  0  0  0
   38.5160   23.2120   37.2470 C   0  0  0  0  0  0  0  0  0  0  0  0
   39.8150   23.0210   36.8900 C   0  0  0  0  0  0  0  0  0  0  0  0
   40.4320   22.1570   37.5910 O   0  0  0  0  0  0  0  0  0  0  0  0
   40.4740   23.6320   35.9130 N   0  0  0  0  0  0  0  0  0  0  0  0
   39.7720   24.5360   35.2070 C   0  0  0  0  0  0  0  0  0  0  0  0
   40.3780   25.1440   34.2630 O   0  0  0  0  0  0  0  0  0  0  0  0
   36.7800   24.4030   36.6700 H   0  0  0  0  0  0  0  0  0  0  0  0
   38.0070   22.7050   38.0410 H   0  0  0  0  0  0  0  0  0  0  0  0
   37.4590   25.3730   33.3600 C   0  0  0  0  0  0  0  0  0  0  0  0
   37.8130   25.7600   34.6790 C   0  0  0  0  0  0  0  0  0  0  0  0
   37.5080   27.0640   35.0810 C   0  0  0  0  0  0  0  0  0  0  0  0
   36.8940   27.8880   34.2010 N   0  0  0  0  0  0  0  0  0  0  0  0
   36.5670   27.5200   32.9740 C   0  0  0  0  0  0  0  0  0  0  0  0
   36.8470   26.2710   32.5510 N   0  0  0  0  0  0  0  0  0  0  0  0
   37.7850   27.3430   36.0880 H   0  0  0  0  0  0  0  0  0  0  0  0
   36.0770   28.1520   32.2460 H   0  0  0  0  0  0  0  0  0  0  0  0
   36.8500   23.1380   32.1640 C   0  0  0  0  0  0  0  0  0  0  0  0
   35.6740   23.4150   31.8360 O   0  0  0  0  0  0  0  0  0  0  0  0
   37.7000   24.0810   32.8390 N   0  0  0  0  0  0  0  0  0  0  0  0
   37.1660   22.1430   31.9010 H   0  0  0  0  0  0  0  0  0  0  0  0
   38.6710   23.6810   32.9330 H   0  0  0  0  0  0  0  0  0  0  0  0
   41.8370   23.3050   35.6780 C   0  0  1  0  0  3  0  0  0  0  0  0
   42.2040   22.6060   34.4190 C   0  0  0  0  0  3  0  0  0  0  0  0
   41.7860   21.6120   34.2760 H   0  0  0  0  0  0  0  0  0  0  0  0
   43.7180   22.5690   34.7280 C   0  0  0  0  0  3  0  0  0  0  0  0
   43.8010   21.8070   35.5280 H   0  0  0  0  0  0  0  0  0  0  0  0
   43.9760   23.8670   35.1570 O   0  0  0  0  0  0  0  0  0  0  0  0
   42.8000   24.4490   35.5930 C   0  0  0  0  0  3  0  0  0  0  0  0
   43.0160   24.8280   36.6260 H   0  0  0  0  0  0  0  0  0  0  0  0
  1  2  1  0  0  0  0
  2  9  1  0  0  0  0
  2  3  2  0  0  0  0
  3 10  1  0  0  0  0
  4  3  1  0  0  0  0
  4  5  2  0  0  0  0
  6  4  1  0  0  0  0
  7  1  1  0  0  0  0
  7  6  1  0  0  0  0
  8  7  2  0  0  0  0
 11 12  1  0  0  0  0
 12 13  2  0  0  0  0
 12  1  1  0  0  0  0
 13 17  1  0  0  0  0
 14 13  1  0  0  0  0
 15 14  2  0  0  0  0
 16 15  1  0  0  0  0
 16 11  2  0  0  0  0
 18 15  1  0  0  0  0
 19 21  1  0  0  0  0
 20 19  2  0  0  0  0
 21 23  1  0  0  0  0
 21 11  1  0  0  0  0
 22 19  1  0  0  0  0
 24  6  1  6  0  0  0
 25 27  1  0  0  0  0
 25 24  1  0  0  0  0
 26 25  1  0  0  0  0
 27 29  1  0  0  0  0
 27 28  1  0  0  0  0
 29 30  1  0  0  0  0
 30 24  1  0  0  0  0
 30 31  1  0  0  0  0
M  END
>  <minimizedAffinity>
-4.68572521

$$$$
