
 OpenBabel03272507553D

 22 23  0  0  1  0  0  0  0  0999 V2000
   35.4750   29.1560   50.4280 C   0  0  0  0  0  0  0  0  0  0  0  0
   36.2790   30.0620   49.7070 C   0  0  0  0  0  0  0  0  0  0  0  0
   36.1790   30.0740   48.3280 C   0  0  0  0  0  0  0  0  0  0  0  0
   35.3090   29.2090   47.7160 N   0  0  0  0  0  0  0  0  0  0  0  0
   34.5500   28.3480   48.4540 C   0  0  0  0  0  0  0  0  0  0  0  0
   34.6280   28.3170   49.8070 N   0  0  0  0  0  0  0  0  0  0  0  0
   33.7060   27.5270   47.6560 N   0  0  0  0  0  0  0  0  0  0  0  0
   35.5040   29.0950   51.5090 H   0  0  0  0  0  0  0  0  0  0  0  0
   32.9030   28.0100   47.1910 H   0  0  0  0  0  0  0  0  0  0  0  0
   33.9780   26.5030   47.6140 H   0  0  0  0  0  0  0  0  0  0  0  0
   36.9750   30.9920   47.4890 C   0  0  2  0  0  3  0  0  0  0  0  0
   36.5180   30.9960   46.0560 C   0  0  0  0  0  3  0  0  0  0  0  0
   35.8610   30.0960   45.9380 H   0  0  0  0  0  0  0  0  0  0  0  0
   37.7840   30.7880   45.2890 C   0  0  0  0  0  3  0  0  0  0  0  0
   37.9110   31.5940   44.5250 H   0  0  0  0  0  0  0  0  0  0  0  0
   38.8330   30.8730   46.1970 O   0  0  0  0  0  0  0  0  0  0  0  0
   38.3600   30.4470   47.4100 C   0  0  0  0  0  3  0  0  0  0  0  0
   39.0200   30.7990   48.2270 H   0  0  0  0  0  0  0  0  0  0  0  0
   37.2020   30.9590   50.4470 C   0  0  0  0  0  0  0  0  0  0  0  0
   38.5310   30.7710   50.0580 F   0  0  0  0  0  0  0  0  0  0  0  0
   36.8540   32.2550   50.2060 F   0  0  0  0  0  0  0  0  0  0  0  0
   37.1620   30.7530   51.8140 F   0  0  0  0  0  0  0  0  0  0  0  0
  1  8  1  0  0  0  0
  2  1  2  0  0  0  0
  2 19  1  0  0  0  0
  3  2  1  0  0  0  0
  4  3  2  0  0  0  0
  4  5  1  0  0  0  0
  5  6  2  0  0  0  0
  6  1  1  0  0  0  0
  7  5  1  0  0  0  0
  9  7  1  0  0  0  0
 10  7  1  0  0  0  0
 11  3  1  1  0  0  0
 12 11  1  0  0  0  0
 13 12  1  0  0  0  0
 14 12  1  0  0  0  0
 14 16  1  0  0  0  0
 15 14  1  0  0  0  0
 16 17  1  0  0  0  0
 17 11  1  0  0  0  0
 17 18  1  0  0  0  0
 19 22  1  0  0  0  0
 20 19  1  0  0  0  0
 21 19  1  0  0  0  0
M  END
>  <minimizedAffinity>
-4.80487967

>  <minimizedRMSD>
1.20775354

$$$$
