
 OpenBabel03272502233D

 28 30  0  0  1  0  0  0  0  0999 V2000
   37.4650   29.9910   50.5960 C   0  0  0  0  0  0  0  0  0  0  0  0
   37.9620   30.6490   49.4560 C   0  0  0  0  0  0  0  0  0  0  0  0
   37.2880   30.4430   48.2620 C   0  0  0  0  0  0  0  0  0  0  0  0
   36.2020   29.6320   48.2560 N   0  0  0  0  0  0  0  0  0  0  0  0
   35.7480   29.0140   49.3670 C   0  0  0  0  0  0  0  0  0  0  0  0
   36.3840   29.1970   50.5390 N   0  0  0  0  0  0  0  0  0  0  0  0
   38.0590   30.2150   51.4800 H   0  0  0  0  0  0  0  0  0  0  0  0
   38.8220   31.2940   49.4510 H   0  0  0  0  0  0  0  0  0  0  0  0
   37.6810   31.0560   46.9830 C   0  0  0  0  0  0  0  0  0  0  0  0
   36.9860   30.8310   45.8160 C   0  0  0  0  0  0  0  0  0  0  0  0
   37.3460   31.4020   44.6100 C   0  0  0  0  0  0  0  0  0  0  0  0
   38.4240   32.2190   44.5620 N   0  0  0  0  0  0  0  0  0  0  0  0
   39.0850   32.4260   45.7020 C   0  0  0  0  0  0  0  0  0  0  0  0
   38.7500   31.8810   46.8780 N   0  0  0  0  0  0  0  0  0  0  0  0
   36.1230   30.1710   45.8810 H   0  0  0  0  0  0  0  0  0  0  0  0
   36.7410   31.1690   43.7420 H   0  0  0  0  0  0  0  0  0  0  0  0
   40.2790   33.3190   45.6950 C   0  0  0  0  0  0  0  0  0  0  0  0
   40.3410   33.9810   46.9150 F   0  0  0  0  0  0  0  0  0  0  0  0
   41.4450   32.6040   45.4640 F   0  0  0  0  0  0  0  0  0  0  0  0
   40.1980   34.2760   44.7350 F   0  0  0  0  0  0  0  0  0  0  0  0
   34.5780   28.1380   49.3660 C   0  0  2  0  0  0  0  0  0  0  0  0
   34.1990   27.6000   48.0010 C   0  0  0  0  0  0  0  0  0  0  0  0
   34.8230   26.7320   47.7200 H   0  0  0  0  0  0  0  0  0  0  0  0
   32.7540   27.2340   48.2610 C   0  0  0  0  0  0  0  0  0  0  0  0
   32.1720   27.2200   47.3340 H   0  0  0  0  0  0  0  0  0  0  0  0
   32.2600   28.0590   49.2450 O   0  0  0  0  0  0  0  0  0  0  0  0
   33.2800   28.8740   49.6890 C   0  0  0  0  0  0  0  0  0  0  0  0
   33.2600   29.7930   49.0670 H   0  0  0  0  0  0  0  0  0  0  0  0
  1  7  1  0  0  0  0
  2  1  2  0  0  0  0
  3  2  1  0  0  0  0
  4  3  2  0  0  0  0
  4  5  1  0  0  0  0
  5  6  2  0  0  0  0
  6  1  1  0  0  0  0
  8  2  1  0  0  0  0
  9  3  1  0  0  0  0
 10 15  1  0  0  0  0
 10  9  2  0  0  0  0
 11 10  1  0  0  0  0
 12 11  2  0  0  0  0
 12 13  1  0  0  0  0
 13 14  2  0  0  0  0
 14  9  1  0  0  0  0
 16 11  1  0  0  0  0
 17 13  1  0  0  0  0
 17 18  1  0  0  0  0
 19 17  1  0  0  0  0
 20 17  1  0  0  0  0
 21  5  1  6  0  0  0
 21 27  1  0  0  0  0
 22 24  1  0  0  0  0
 22 21  1  0  0  0  0
 23 22  1  0  0  0  0
 24 26  1  0  0  0  0
 25 24  1  0  0  0  0
 26 27  1  0  0  0  0
 28 27  1  0  0  0  0
M  END
>  <minimizedAffinity>
-6.35213757

>  <minimizedRMSD>
0.939227581

$$$$
