
 OpenBabel03272508123D

 33 35  0  0  1  0  0  0  0  0999 V2000
   36.6730   29.4320   44.0220 Cl  0  0  0  0  0  0  0  0  0  0  0  0
   38.3120   29.8300   43.4970 C   0  0  0  0  0  0  0  0  0  0  0  0
   39.3030   30.3140   44.3540 C   0  0  0  0  0  0  0  0  0  0  0  0
   40.5560   30.5880   43.8080 C   0  0  0  0  0  0  0  0  0  0  0  0
   40.7830   30.3790   42.4680 C   0  0  0  0  0  0  0  0  0  0  0  0
   39.8300   29.9070   41.6140 C   0  0  0  0  0  0  0  0  0  0  0  0
   38.5940   29.6340   42.1370 C   0  0  0  0  0  0  0  0  0  0  0  0
   41.2450   30.9550   44.5560 H   0  0  0  0  0  0  0  0  0  0  0  0
   41.7960   30.6230   42.1360 H   0  0  0  0  0  0  0  0  0  0  0  0
   40.0980   29.7750   40.5760 H   0  0  0  0  0  0  0  0  0  0  0  0
   37.5430   29.1190   41.2220 C   0  0  2  0  0  3  0  0  0  0  0  0
   38.1280   28.4310   39.9970 C   0  0  0  0  0  3  0  0  0  0  0  0
   39.2190   28.3250   40.0310 H   0  0  0  0  0  0  0  0  0  0  0  0
   37.6640   29.3470   38.8850 C   0  0  0  0  0  3  0  0  0  0  0  0
   38.4400   29.4450   38.0840 H   0  0  0  0  0  0  0  0  0  0  0  0
   37.4150   30.5760   39.4910 O   0  0  0  0  0  0  0  0  0  0  0  0
   36.7140   30.2020   40.6340 C   0  0  0  0  0  3  0  0  0  0  0  0
   35.7770   29.7140   40.2450 H   0  0  0  0  0  0  0  0  0  0  0  0
   38.8610   30.4440   45.6410 O   0  0  0  0  0  0  0  0  0  0  0  0
   39.4370   32.5080   47.1010 O   0  0  0  0  0  0  0  0  0  0  0  0
   38.3060   31.8310   46.4150 P   0  0  1  0  0  0  0  0  0  0  0  0
   37.7060   32.8410   45.1740 O   0  0  0  0  0  0  0  0  0  0  0  0
   38.4870   33.1890   44.6580 H   0  0  0  0  0  0  0  0  0  0  0  0
   37.0220   31.4070   47.4400 O   0  0  0  0  0  0  0  0  0  0  0  0
   37.6130   30.5290   50.9840 C   0  0  0  0  0  0  0  0  0  0  0  0
   37.7050   31.3020   49.8230 C   0  0  0  0  0  0  0  0  0  0  0  0
   37.0680   30.8350   48.6650 C   0  0  0  0  0  0  0  0  0  0  0  0
   36.3910   29.6530   48.7320 N   0  0  0  0  0  0  0  0  0  0  0  0
   36.3290   28.9400   49.8730 C   0  0  0  0  0  0  0  0  0  0  0  0
   36.9350   29.3780   50.9880 N   0  0  0  0  0  0  0  0  0  0  0  0
   38.1280   30.9430   51.8500 H   0  0  0  0  0  0  0  0  0  0  0  0
   38.2200   32.2430   49.6960 H   0  0  0  0  0  0  0  0  0  0  0  0
   35.7980   28.0000   49.9500 H   0  0  0  0  0  0  0  0  0  0  0  0
  2  1  1  0  0  0  0
  2  3  1  0  0  0  0
  3 19  1  0  0  0  0
  4  3  2  0  0  0  0
  4  8  1  0  0  0  0
  5  4  1  0  0  0  0
  6  7  1  0  0  0  0
  6  5  2  0  0  0  0
  7  2  2  0  0  0  0
  9  5  1  0  0  0  0
 10  6  1  0  0  0  0
 11  7  1  1  0  0  0
 12 13  1  0  0  0  0
 12 11  1  0  0  0  0
 14 16  1  0  0  0  0
 14 12  1  0  0  0  0
 15 14  1  0  0  0  0
 16 17  1  0  0  0  0
 17 11  1  0  0  0  0
 18 17  1  0  0  0  0
 19 21  1  0  0  0  0
 21 20  2  1  0  0  0
 21 24  1  0  0  0  0
 22 21  1  0  0  0  0
 23 22  1  0  0  0  0
 24 27  1  0  0  0  0
 25 30  1  0  0  0  0
 25 31  1  0  0  0  0
 26 25  2  0  0  0  0
 27 28  2  0  0  0  0
 27 26  1  0  0  0  0
 28 29  1  0  0  0  0
 29 33  1  0  0  0  0
 29 30  2  0  0  0  0
 32 26  1  0  0  0  0
M  END
>  <minimizedAffinity>
-4.84779882

>  <minimizedRMSD>
0.532714248

$$$$
