
 OpenBabel03272506093D

 43 46  0  0  1  0  0  0  0  0999 V2000
   35.1410   28.6810   49.1480 C   0  0  0  0  0  0  0  0  0  0  0  0
   36.0610   28.5260   48.5440 H   0  0  0  0  0  0  0  0  0  0  0  0
   35.1730   27.8720   49.9180 H   0  0  0  0  0  0  0  0  0  0  0  0
   33.9250   28.4680   48.2880 C   0  0  0  0  0  0  0  0  0  0  0  0
   34.0240   28.6750   46.8620 C   0  0  0  0  0  0  0  0  0  0  0  0
   32.3670   28.3010   46.3570 S   0  0  0  0  0  0  0  0  0  0  0  0
   31.7500   27.9210   48.0880 C   0  0  0  0  0  0  0  0  0  0  0  0
   32.7570   28.1070   48.7190 N   0  0  0  0  0  0  0  0  0  0  0  0
   30.4420   27.5160   48.5680 N   0  0  0  0  0  0  0  0  0  0  0  0
   29.6270   26.7920   47.6610 C   0  0  0  0  0  0  0  0  0  0  0  0
   28.1880   26.7110   48.0440 C   0  0  0  0  0  0  0  0  0  0  0  0
   27.8400   27.5890   49.1450 N   0  0  0  0  0  0  0  0  0  0  0  0
   28.7440   27.2180   50.2310 C   0  0  0  0  0  0  0  0  0  0  0  0
   30.0590   27.8730   49.9230 C   0  0  0  0  0  0  0  0  0  0  0  0
   34.8750   28.9650   46.3280 H   0  0  0  0  0  0  0  0  0  0  0  0
   29.6560   27.3590   46.6850 H   0  0  0  0  0  0  0  0  0  0  0  0
   30.0190   25.7860   47.3840 H   0  0  0  0  0  0  0  0  0  0  0  0
   27.5000   26.8710   47.1680 H   0  0  0  0  0  0  0  0  0  0  0  0
   27.9740   25.6830   48.4070 H   0  0  0  0  0  0  0  0  0  0  0  0
   28.0790   28.5600   48.8440 H   0  0  0  0  0  0  0  0  0  0  0  0
   28.8360   26.1190   50.3290 H   0  0  0  0  0  0  0  0  0  0  0  0
   28.3160   27.6780   51.1520 H   0  0  0  0  0  0  0  0  0  0  0  0
   29.9520   28.9670   50.0520 H   0  0  0  0  0  0  0  0  0  0  0  0
   30.8240   27.4840   50.6260 H   0  0  0  0  0  0  0  0  0  0  0  0
   35.1570   30.0080   49.7830 C   0  0  0  0  0  0  0  0  0  0  0  0
   34.2570   30.5900   49.4440 H   0  0  0  0  0  0  0  0  0  0  0  0
   35.1050   29.9110   50.8870 H   0  0  0  0  0  0  0  0  0  0  0  0
   37.9680   32.4480   49.6870 C   0  0  0  0  0  0  0  0  0  0  0  0
   38.5730   32.1660   48.4530 C   0  0  0  0  0  0  0  0  0  0  0  0
   38.0020   31.1450   47.6810 C   0  0  0  0  0  0  0  0  0  0  0  0
   36.9100   30.4890   48.1590 N   0  0  0  0  0  0  0  0  0  0  0  0
   36.3660   30.8010   49.3560 C   0  0  0  0  0  0  0  0  0  0  0  0
   36.8950   31.7620   50.0930 N   0  0  0  0  0  0  0  0  0  0  0  0
   38.4140   33.2400   50.2800 H   0  0  0  0  0  0  0  0  0  0  0  0
   39.4260   32.6810   48.0840 H   0  0  0  0  0  0  0  0  0  0  0  0
   38.5430   30.7430   46.3520 C   0  0  2  0  0  3  0  0  0  0  0  0
   39.7640   31.5110   45.9630 C   0  0  0  0  0  3  0  0  0  0  0  0
   40.5220   30.8210   45.5200 H   0  0  0  0  0  0  0  0  0  0  0  0
   39.2880   32.5290   44.9310 C   0  0  0  0  0  3  0  0  0  0  0  0
   39.6320   32.2510   43.9180 H   0  0  0  0  0  0  0  0  0  0  0  0
   37.9060   32.4580   44.9510 O   0  0  0  0  0  0  0  0  0  0  0  0
   37.5440   31.1710   45.2730 C   0  0  0  0  0  3  0  0  0  0  0  0
   36.5200   31.1900   45.7480 H   0  0  0  0  0  0  0  0  0  0  0  0
  1 25  1  0  0  0  0
  1  3  1  0  0  0  0
  2  1  1  0  0  0  0
  4  8  1  0  0  0  0
  4  1  1  0  0  0  0
  5  4  2  0  0  0  0
  6  5  1  0  0  0  0
  6  7  1  0  0  0  0
  7  9  1  0  0  0  0
  7  8  2  0  0  0  0
  9 14  1  0  0  0  0
 10 11  1  0  0  0  0
 10  9  1  0  0  0  0
 11 19  1  0  0  0  0
 11 12  1  0  0  0  0
 12 13  1  0  0  0  0
 13 21  1  0  0  0  0
 13 22  1  0  0  0  0
 14 23  1  0  0  0  0
 14 13  1  0  0  0  0
 14 24  1  0  0  0  0
 15  5  1  0  0  0  0
 16 10  1  0  0  0  0
 17 10  1  0  0  0  0
 18 11  1  0  0  0  0
 20 12  1  0  0  0  0
 25 27  1  0  0  0  0
 26 25  1  0  0  0  0
 28 33  1  0  0  0  0
 28 34  1  0  0  0  0
 29 28  2  0  0  0  0
 30 31  2  0  0  0  0
 30 29  1  0  0  0  0
 31 32  1  0  0  0  0
 32 25  1  0  0  0  0
 32 33  2  0  0  0  0
 35 29  1  0  0  0  0
 36 30  1  1  0  0  0
 37 36  1  0  0  0  0
 38 37  1  0  0  0  0
 39 41  1  0  0  0  0
 39 37  1  0  0  0  0
 40 39  1  0  0  0  0
 41 42  1  0  0  0  0
 42 43  1  0  0  0  0
 42 36  1  0  0  0  0
M  END
>  <minimizedAffinity>
-6.4796629

>  <minimizedRMSD>
0.985016048

$$$$
