
 OpenBabel03272506443D

 31 33  0  0  1  0  0  0  0  0999 V2000
   39.4090   26.8050   34.9680 C   0  0  2  0  0  0  0  0  0  0  0  0
   38.6550   27.2550   33.7340 C   0  0  1  0  0  0  0  0  0  0  0  0
   38.6240   26.1930   32.8590 O   0  0  0  0  0  0  0  0  0  0  0  0
   39.1100   25.0740   33.4930 C   0  0  0  0  0  0  0  0  0  0  0  0
   38.9910   25.3420   34.9900 C   0  0  1  0  0  0  0  0  0  0  0  0
   40.4960   26.8310   34.8540 H   0  0  0  0  0  0  0  0  0  0  0  0
   39.1190   28.1340   33.2580 H   0  0  0  0  0  0  0  0  0  0  0  0
   38.6340   24.1420   33.1840 H   0  0  0  0  0  0  0  0  0  0  0  0
   40.2220   25.0770   33.2960 H   0  0  0  0  0  0  0  0  0  0  0  0
   37.9510   25.2400   35.3590 H   0  0  0  0  0  0  0  0  0  0  0  0
   38.9520   27.4870   36.1050 O   0  0  0  0  0  0  0  0  0  0  0  0
   38.1250   27.0450   36.4280 H   0  0  0  0  0  0  0  0  0  0  0  0
   36.9420   27.5810   34.2590 S   0  0  0  0  0  0  0  0  0  0  0  0
   34.5300   30.2710   32.6290 C   0  0  0  0  0  0  0  0  0  0  0  0
   34.9980   30.4490   31.3350 C   0  0  0  0  0  0  0  0  0  0  0  0
   36.1120   29.7080   30.9390 C   0  0  0  0  0  0  0  0  0  0  0  0
   36.6730   28.8600   31.8280 N   0  0  0  0  0  0  0  0  0  0  0  0
   36.1910   28.7050   33.0920 C   0  0  0  0  0  0  0  0  0  0  0  0
   35.1100   29.4130   33.5060 N   0  0  0  0  0  0  0  0  0  0  0  0
   33.6650   30.8540   32.9210 H   0  0  0  0  0  0  0  0  0  0  0  0
   34.5860   31.1040   30.6080 H   0  0  0  0  0  0  0  0  0  0  0  0
   36.5020   29.8240   29.9350 H   0  0  0  0  0  0  0  0  0  0  0  0
   39.8940   24.5570   35.6930 O   0  0  0  0  0  0  0  0  0  0  0  0
   39.2970   23.6430   36.5240 C   0  0  1  0  0  3  0  0  0  0  0  0
   37.9210   24.1440   36.9180 C   0  0  0  0  0  3  0  0  0  0  0  0
   37.9440   24.7060   37.8700 H   0  0  0  0  0  0  0  0  0  0  0  0
   37.1990   22.8060   37.1070 C   0  0  0  0  0  3  0  0  0  0  0  0
   36.1150   22.9360   37.0710 H   0  0  0  0  0  0  0  0  0  0  0  0
   37.5990   22.1530   35.9380 O   0  0  0  0  0  0  0  0  0  0  0  0
   38.9790   22.3180   35.9000 C   0  0  0  0  0  3  0  0  0  0  0  0
   39.2920   22.2610   34.8370 H   0  0  0  0  0  0  0  0  0  0  0  0
  1  6  1  6  0  0  0
  1  5  1  0  0  0  0
  1 11  1  0  0  0  0
  2  7  1  6  0  0  0
  2 13  1  0  0  0  0
  2  1  1  0  0  0  0
  3  4  1  0  0  0  0
  3  2  1  0  0  0  0
  4  5  1  0  0  0  0
  5 10  1  1  0  0  0
  5 23  1  0  0  0  0
  8  4  1  0  0  0  0
  9  4  1  0  0  0  0
 11 12  1  0  0  0  0
 14 20  1  0  0  0  0
 14 19  1  0  0  0  0
 15 14  2  0  0  0  0
 16 15  1  0  0  0  0
 16 17  2  0  0  0  0
 17 18  1  0  0  0  0
 18 19  2  0  0  0  0
 18 13  1  0  0  0  0
 21 15  1  0  0  0  0
 22 16  1  0  0  0  0
 24 23  1  6  0  0  0
 24 25  1  0  0  0  0
 25 27  1  0  0  0  0
 25 26  1  0  0  0  0
 28 27  1  0  0  0  0
 29 27  1  0  0  0  0
 30 29  1  0  0  0  0
 30 24  1  0  0  0  0
 31 30  1  0  0  0  0
M  END
>  <minimizedAffinity>
-4.44211006

$$$$

 OpenBabel03272506443D

 31 33  0  0  1  0  0  0  0  0999 V2000
   35.5920   24.8930   31.4920 C   0  0  2  0  0  0  0  0  0  0  0  0
   36.6620   25.6850   32.2160 C   0  0  1  0  0  0  0  0  0  0  0  0
   37.4590   24.7850   32.8850 O   0  0  0  0  0  0  0  0  0  0  0  0
   37.1160   23.5090   32.5040 C   0  0  0  0  0  0  0  0  0  0  0  0
   36.3930   23.6400   31.1670 C   0  0  1  0  0  0  0  0  0  0  0  0
   34.7600   24.5900   32.1330 H   0  0  0  0  0  0  0  0  0  0  0  0
   36.2350   26.4210   32.9170 H   0  0  0  0  0  0  0  0  0  0  0  0
   37.9540   22.8120   32.4720 H   0  0  0  0  0  0  0  0  0  0  0  0
   36.3120   23.1860   33.2260 H   0  0  0  0  0  0  0  0  0  0  0  0
   37.0870   23.8310   30.3240 H   0  0  0  0  0  0  0  0  0  0  0  0
   35.1850   25.5600   30.3270 O   0  0  0  0  0  0  0  0  0  0  0  0
   35.8390   25.3660   29.6070 H   0  0  0  0  0  0  0  0  0  0  0  0
   37.6850   26.4730   30.9320 S   0  0  0  0  0  0  0  0  0  0  0  0
   36.2410   30.0670   31.7760 C   0  0  0  0  0  0  0  0  0  0  0  0
   36.4520   30.8250   30.6330 C   0  0  0  0  0  0  0  0  0  0  0  0
   37.0690   30.2060   29.5460 C   0  0  0  0  0  0  0  0  0  0  0  0
   37.4270   28.9080   29.6600 N   0  0  0  0  0  0  0  0  0  0  0  0
   37.2070   28.1880   30.7940 C   0  0  0  0  0  0  0  0  0  0  0  0
   36.6100   28.7630   31.8670 N   0  0  0  0  0  0  0  0  0  0  0  0
   35.7610   30.5620   32.6110 H   0  0  0  0  0  0  0  0  0  0  0  0
   36.1860   31.8450   30.5050 H   0  0  0  0  0  0  0  0  0  0  0  0
   37.2470   30.7700   28.6390 H   0  0  0  0  0  0  0  0  0  0  0  0
   35.5710   22.5430   30.9550 O   0  0  0  0  0  0  0  0  0  0  0  0
   35.9880   21.4100   31.6060 C   0  0  1  0  0  3  0  0  0  0  0  0
   34.7800   20.6530   32.1240 C   0  0  0  0  0  3  0  0  0  0  0  0
   34.5350   20.9300   33.1660 H   0  0  0  0  0  0  0  0  0  0  0  0
   35.3240   19.2220   32.0670 C   0  0  0  0  0  3  0  0  0  0  0  0
   34.5100   18.4920   32.0840 H   0  0  0  0  0  0  0  0  0  0  0  0
   35.8780   19.2290   30.7840 O   0  0  0  0  0  0  0  0  0  0  0  0
   36.6550   20.3810   30.7450 C   0  0  0  0  0  3  0  0  0  0  0  0
   36.7290   20.6960   29.6840 H   0  0  0  0  0  0  0  0  0  0  0  0
  1  6  1  1  0  0  0
  1  2  1  0  0  0  0
  2  3  1  0  0  0  0
  2  7  1  1  0  0  0
  4  3  1  0  0  0  0
  4  9  1  0  0  0  0
  5 10  1  6  0  0  0
  5  1  1  0  0  0  0
  5  4  1  0  0  0  0
  8  4  1  0  0  0  0
 11  1  1  0  0  0  0
 12 11  1  0  0  0  0
 13  2  1  0  0  0  0
 14 19  1  0  0  0  0
 14 20  1  0  0  0  0
 15 14  2  0  0  0  0
 16 17  2  0  0  0  0
 16 15  1  0  0  0  0
 17 18  1  0  0  0  0
 18 13  1  0  0  0  0
 18 19  2  0  0  0  0
 21 15  1  0  0  0  0
 22 16  1  0  0  0  0
 23  5  1  0  0  0  0
 24 23  1  6  0  0  0
 24 25  1  0  0  0  0
 25 26  1  0  0  0  0
 27 28  1  0  0  0  0
 27 25  1  0  0  0  0
 29 27  1  0  0  0  0
 30 29  1  0  0  0  0
 30 24  1  0  0  0  0
 31 30  1  0  0  0  0
M  END
>  <minimizedAffinity>
-4.42965651

$$$$

 OpenBabel03272506443D

 31 33  0  0  1  0  0  0  0  0999 V2000
   36.9320   28.1010   32.7500 C   0  0  2  0  0  0  0  0  0  0  0  0
   36.2020   29.3490   32.2970 C   0  0  1  0  0  0  0  0  0  0  0  0
   36.0290   29.2540   30.9350 O   0  0  0  0  0  0  0  0  0  0  0  0
   36.4020   27.9970   30.5200 C   0  0  0  0  0  0  0  0  0  0  0  0
   36.3520   27.1050   31.7560 C   0  0  1  0  0  0  0  0  0  0  0  0
   38.0120   28.1370   32.5820 H   0  0  0  0  0  0  0  0  0  0  0  0
   36.7500   30.2700   32.5540 H   0  0  0  0  0  0  0  0  0  0  0  0
   35.8160   27.6090   29.6860 H   0  0  0  0  0  0  0  0  0  0  0  0
   37.5010   28.0770   30.2770 H   0  0  0  0  0  0  0  0  0  0  0  0
   35.3170   26.8300   32.0410 H   0  0  0  0  0  0  0  0  0  0  0  0
   36.5840   27.7740   34.0680 O   0  0  0  0  0  0  0  0  0  0  0  0
   35.7210   27.2850   34.0560 H   0  0  0  0  0  0  0  0  0  0  0  0
   34.5510   29.2950   33.0630 S   0  0  0  0  0  0  0  0  0  0  0  0
   35.7930   31.5730   36.0610 C   0  0  0  0  0  0  0  0  0  0  0  0
   34.6470   31.9020   36.7710 C   0  0  0  0  0  0  0  0  0  0  0  0
   33.4290   31.4020   36.3100 C   0  0  0  0  0  0  0  0  0  0  0  0
   33.4270   30.6270   35.2030 N   0  0  0  0  0  0  0  0  0  0  0  0
   34.5670   30.3200   34.5260 C   0  0  0  0  0  0  0  0  0  0  0  0
   35.7660   30.7920   34.9500 N   0  0  0  0  0  0  0  0  0  0  0  0
   36.7290   31.9680   36.4320 H   0  0  0  0  0  0  0  0  0  0  0  0
   34.6070   32.5060   37.6430 H   0  0  0  0  0  0  0  0  0  0  0  0
   32.5160   31.6400   36.8420 H   0  0  0  0  0  0  0  0  0  0  0  0
   37.1790   26.0030   31.5880 O   0  0  0  0  0  0  0  0  0  0  0  0
   36.6560   24.8410   32.0960 C   0  0  1  0  0  3  0  0  0  0  0  0
   35.5390   24.3540   31.1920 C   0  0  0  0  0  3  0  0  0  0  0  0
   34.5500   24.7180   31.5250 H   0  0  0  0  0  0  0  0  0  0  0  0
   35.6560   22.8430   31.4240 C   0  0  0  0  0  3  0  0  0  0  0  0
   35.1650   22.2850   30.6220 H   0  0  0  0  0  0  0  0  0  0  0  0
   37.0370   22.6870   31.2830 O   0  0  0  0  0  0  0  0  0  0  0  0
   37.5850   23.6660   32.1040 C   0  0  0  0  0  3  0  0  0  0  0  0
   38.5890   23.9140   31.7020 H   0  0  0  0  0  0  0  0  0  0  0  0
  1  6  1  6  0  0  0
  1 11  1  0  0  0  0
  2  7  1  1  0  0  0
  2  1  1  0  0  0  0
  2 13  1  0  0  0  0
  3  2  1  0  0  0  0
  4  3  1  0  0  0  0
  4  5  1  0  0  0  0
  5 10  1  1  0  0  0
  5  1  1  0  0  0  0
  8  4  1  0  0  0  0
  9  4  1  0  0  0  0
 12 11  1  0  0  0  0
 13 18  1  0  0  0  0
 14 20  1  0  0  0  0
 14 15  1  0  0  0  0
 15 21  1  0  0  0  0
 16 15  2  0  0  0  0
 16 22  1  0  0  0  0
 17 16  1  0  0  0  0
 18 19  1  0  0  0  0
 18 17  2  0  0  0  0
 19 14  2  0  0  0  0
 23  5  1  0  0  0  0
 24 23  1  6  0  0  0
 24 30  1  0  0  0  0
 25 27  1  0  0  0  0
 25 26  1  0  0  0  0
 25 24  1  0  0  0  0
 28 27  1  0  0  0  0
 29 27  1  0  0  0  0
 29 30  1  0  0  0  0
 31 30  1  0  0  0  0
M  END
>  <minimizedAffinity>
-4.35998678

$$$$

 OpenBabel03272506443D

 31 33  0  0  1  0  0  0  0  0999 V2000
   37.8770   24.6970   32.6240 C   0  0  2  0  0  0  0  0  0  0  0  0
   37.7700   23.7440   31.4510 C   0  0  1  0  0  0  0  0  0  0  0  0
   38.4880   22.6150   31.7700 O   0  0  0  0  0  0  0  0  0  0  0  0
   38.8720   22.6830   33.0890 C   0  0  0  0  0  0  0  0  0  0  0  0
   37.9340   23.6830   33.7580 C   0  0  1  0  0  0  0  0  0  0  0  0
   38.8120   25.2640   32.6480 H   0  0  0  0  0  0  0  0  0  0  0  0
   38.1460   24.1900   30.5150 H   0  0  0  0  0  0  0  0  0  0  0  0
   38.9020   21.7180   33.5960 H   0  0  0  0  0  0  0  0  0  0  0  0
   39.8740   23.2000   33.0830 H   0  0  0  0  0  0  0  0  0  0  0  0
   36.9280   23.2600   33.9510 H   0  0  0  0  0  0  0  0  0  0  0  0
   36.7340   25.5040   32.7130 O   0  0  0  0  0  0  0  0  0  0  0  0
   36.0200   24.9920   33.1720 H   0  0  0  0  0  0  0  0  0  0  0  0
   36.0190   23.2630   31.3280 S   0  0  0  0  0  0  0  0  0  0  0  0
   35.4370   19.8480   33.2550 C   0  0  0  0  0  0  0  0  0  0  0  0
   35.6490   18.8520   32.3110 C   0  0  0  0  0  0  0  0  0  0  0  0
   35.9860   19.2450   31.0160 C   0  0  0  0  0  0  0  0  0  0  0  0
   36.0900   20.5660   30.7480 N   0  0  0  0  0  0  0  0  0  0  0  0
   35.8780   21.5210   31.6940 C   0  0  0  0  0  0  0  0  0  0  0  0
   35.5480   21.1690   32.9620 N   0  0  0  0  0  0  0  0  0  0  0  0
   35.1760   19.5260   34.2550 H   0  0  0  0  0  0  0  0  0  0  0  0
   35.5760   17.8070   32.4820 H   0  0  0  0  0  0  0  0  0  0  0  0
   36.1580   18.4930   30.2560 H   0  0  0  0  0  0  0  0  0  0  0  0
   38.5270   24.2130   34.8950 O   0  0  0  0  0  0  0  0  0  0  0  0
   38.3470   23.4440   36.0170 C   0  0  1  0  0  3  0  0  0  0  0  0
   39.6780   23.2620   36.7220 C   0  0  0  0  0  3  0  0  0  0  0  0
   40.1900   22.3360   36.4040 H   0  0  0  0  0  0  0  0  0  0  0  0
   39.1920   23.1320   38.1690 C   0  0  0  0  0  3  0  0  0  0  0  0
   40.0040   23.3240   38.8750 H   0  0  0  0  0  0  0  0  0  0  0  0
   38.3060   24.2120   38.2200 O   0  0  0  0  0  0  0  0  0  0  0  0
   37.5070   24.0620   37.0920 C   0  0  0  0  0  3  0  0  0  0  0  0
   37.1310   25.0690   36.8150 H   0  0  0  0  0  0  0  0  0  0  0  0
  1  6  1  6  0  0  0
  1 11  1  0  0  0  0
  1  5  1  0  0  0  0
  2  7  1  6  0  0  0
  2  3  1  0  0  0  0
  2  1  1  0  0  0  0
  3  4  1  0  0  0  0
  4  8  1  0  0  0  0
  4  5  1  0  0  0  0
  5 10  1  1  0  0  0
  5 23  1  0  0  0  0
  9  4  1  0  0  0  0
 11 12  1  0  0  0  0
 13  2  1  0  0  0  0
 13 18  1  0  0  0  0
 14 20  1  0  0  0  0
 15 21  1  0  0  0  0
 15 14  2  0  0  0  0
 16 15  1  0  0  0  0
 17 16  2  0  0  0  0
 17 18  1  0  0  0  0
 18 19  2  0  0  0  0
 19 14  1  0  0  0  0
 22 16  1  0  0  0  0
 24 23  1  6  0  0  0
 24 25  1  0  0  0  0
 24 30  1  0  0  0  0
 25 27  1  0  0  0  0
 26 25  1  0  0  0  0
 27 29  1  0  0  0  0
 27 28  1  0  0  0  0
 30 29  1  0  0  0  0
 31 30  1  0  0  0  0
M  END
>  <minimizedAffinity>
-4.34301901

$$$$

 OpenBabel03272506443D

 31 33  0  0  1  0  0  0  0  0999 V2000
   38.5340   23.1890   35.9920 C   0  0  2  0  0  0  0  0  0  0  0  0
   37.6630   24.3100   36.5220 C   0  0  1  0  0  0  0  0  0  0  0  0
   37.6990   24.2460   37.8960 O   0  0  0  0  0  0  0  0  0  0  0  0
   38.6480   23.3280   38.2790 C   0  0  0  0  0  0  0  0  0  0  0  0
   39.5880   23.1590   37.0890 C   0  0  1  0  0  0  0  0  0  0  0  0
   38.0410   22.2130   35.9880 H   0  0  0  0  0  0  0  0  0  0  0  0
   36.6250   24.2400   36.1590 H   0  0  0  0  0  0  0  0  0  0  0  0
   39.1670   23.5810   39.2040 H   0  0  0  0  0  0  0  0  0  0  0  0
   38.1020   22.3420   38.3450 H   0  0  0  0  0  0  0  0  0  0  0  0
   40.2890   24.0110   36.9780 H   0  0  0  0  0  0  0  0  0  0  0  0
   39.0910   23.5380   34.7530 O   0  0  0  0  0  0  0  0  0  0  0  0
   39.8890   24.1050   34.9140 H   0  0  0  0  0  0  0  0  0  0  0  0
   38.4610   25.8700   36.0250 S   0  0  0  0  0  0  0  0  0  0  0  0
   36.7530   26.3300   32.4780 C   0  0  0  0  0  0  0  0  0  0  0  0
   36.1640   27.5860   32.5140 C   0  0  0  0  0  0  0  0  0  0  0  0
   36.2940   28.3330   33.6850 C   0  0  0  0  0  0  0  0  0  0  0  0
   36.9830   27.7990   34.7180 N   0  0  0  0  0  0  0  0  0  0  0  0
   37.5520   26.5640   34.6540 C   0  0  0  0  0  0  0  0  0  0  0  0
   37.4420   25.8150   33.5280 N   0  0  0  0  0  0  0  0  0  0  0  0
   36.6430   25.7640   31.5610 H   0  0  0  0  0  0  0  0  0  0  0  0
   35.6150   28.0400   31.7260 H   0  0  0  0  0  0  0  0  0  0  0  0
   35.8450   29.3170   33.7460 H   0  0  0  0  0  0  0  0  0  0  0  0
   40.2320   21.9320   37.1540 O   0  0  0  0  0  0  0  0  0  0  0  0
   41.5950   22.0320   37.2650 C   0  0  1  0  0  3  0  0  0  0  0  0
   42.2410   20.8020   36.6550 C   0  0  0  0  0  3  0  0  0  0  0  0
   42.4300   20.0170   37.4110 H   0  0  0  0  0  0  0  0  0  0  0  0
   43.5640   21.4100   36.1770 C   0  0  0  0  0  3  0  0  0  0  0  0
   44.0360   20.7780   35.4210 H   0  0  0  0  0  0  0  0  0  0  0  0
   43.0810   22.5600   35.5440 O   0  0  0  0  0  0  0  0  0  0  0  0
   42.2250   23.1380   36.4750 C   0  0  0  0  0  3  0  0  0  0  0  0
   41.4810   23.7390   35.9140 H   0  0  0  0  0  0  0  0  0  0  0  0
  1  6  1  6  0  0  0
  1  2  1  0  0  0  0
  1  5  1  0  0  0  0
  2  7  1  6  0  0  0
  2  3  1  0  0  0  0
  3  4  1  0  0  0  0
  4  9  1  0  0  0  0
  4  8  1  0  0  0  0
  5 10  1  6  0  0  0
  5 23  1  0  0  0  0
  5  4  1  0  0  0  0
 11 12  1  0  0  0  0
 11  1  1  0  0  0  0
 13  2  1  0  0  0  0
 14 15  2  0  0  0  0
 14 19  1  0  0  0  0
 15 16  1  0  0  0  0
 16 22  1  0  0  0  0
 16 17  2  0  0  0  0
 18 17  1  0  0  0  0
 18 13  1  0  0  0  0
 19 18  2  0  0  0  0
 20 14  1  0  0  0  0
 21 15  1  0  0  0  0
 24 23  1  6  0  0  0
 25 24  1  0  0  0  0
 25 26  1  0  0  0  0
 27 25  1  0  0  0  0
 28 27  1  0  0  0  0
 29 27  1  0  0  0  0
 29 30  1  0  0  0  0
 30 24  1  0  0  0  0
 31 30  1  0  0  0  0
M  END
>  <minimizedAffinity>
-4.34271526

$$$$

 OpenBabel03272506443D

 31 33  0  0  1  0  0  0  0  0999 V2000
   38.9180   25.4860   32.4430 C   0  0  2  0  0  0  0  0  0  0  0  0
   39.6780   24.6130   33.4210 C   0  0  1  0  0  0  0  0  0  0  0  0
   40.1170   25.4230   34.4430 O   0  0  0  0  0  0  0  0  0  0  0  0
   39.5500   26.6680   34.3050 C   0  0  0  0  0  0  0  0  0  0  0  0
   38.3190   26.4850   33.4230 C   0  0  1  0  0  0  0  0  0  0  0  0
   39.5620   26.0460   31.7610 H   0  0  0  0  0  0  0  0  0  0  0  0
   40.5270   24.0950   32.9460 H   0  0  0  0  0  0  0  0  0  0  0  0
   39.3310   27.1670   35.2500 H   0  0  0  0  0  0  0  0  0  0  0  0
   40.2690   27.2550   33.6630 H   0  0  0  0  0  0  0  0  0  0  0  0
   37.4680   26.0310   33.9700 H   0  0  0  0  0  0  0  0  0  0  0  0
   37.9220   24.7470   31.7900 O   0  0  0  0  0  0  0  0  0  0  0  0
   37.1290   24.6910   32.3820 H   0  0  0  0  0  0  0  0  0  0  0  0
   38.4710   23.4470   34.1270 S   0  0  0  0  0  0  0  0  0  0  0  0
   39.7760   22.7670   37.8070 C   0  0  0  0  0  0  0  0  0  0  0  0
   38.9140   23.4690   38.6380 C   0  0  0  0  0  0  0  0  0  0  0  0
   37.8780   24.1890   38.0430 C   0  0  0  0  0  0  0  0  0  0  0  0
   37.7670   24.1660   36.6960 N   0  0  0  0  0  0  0  0  0  0  0  0
   38.6280   23.4680   35.9050 C   0  0  0  0  0  0  0  0  0  0  0  0
   39.6450   22.7590   36.4560 N   0  0  0  0  0  0  0  0  0  0  0  0
   40.5750   22.2140   38.2850 H   0  0  0  0  0  0  0  0  0  0  0  0
   38.9680   23.5110   39.6980 H   0  0  0  0  0  0  0  0  0  0  0  0
   37.1880   24.7460   38.6630 H   0  0  0  0  0  0  0  0  0  0  0  0
   37.9880   27.6820   32.8040 O   0  0  0  0  0  0  0  0  0  0  0  0
   36.6550   27.9930   32.8860 C   0  0  1  0  0  3  0  0  0  0  0  0
   36.3150   28.3800   34.3130 C   0  0  0  0  0  3  0  0  0  0  0  0
   35.9530   27.5160   34.9000 H   0  0  0  0  0  0  0  0  0  0  0  0
   35.1710   29.3650   34.0520 C   0  0  0  0  0  3  0  0  0  0  0  0
   35.0010   30.0080   34.9190 H   0  0  0  0  0  0  0  0  0  0  0  0
   35.7490   30.1380   33.0410 O   0  0  0  0  0  0  0  0  0  0  0  0
   36.2300   29.2100   32.1240 C   0  0  0  0  0  3  0  0  0  0  0  0
   37.0710   29.6880   31.5790 H   0  0  0  0  0  0  0  0  0  0  0  0
  1  6  1  6  0  0  0
  1  2  1  0  0  0  0
  1  5  1  0  0  0  0
  2  7  1  6  0  0  0
  2 13  1  0  0  0  0
  2  3  1  0  0  0  0
  4  3  1  0  0  0  0
  4  8  1  0  0  0  0
  5 10  1  1  0  0  0
  5  4  1  0  0  0  0
  9  4  1  0  0  0  0
 11 12  1  0  0  0  0
 11  1  1  0  0  0  0
 13 18  1  0  0  0  0
 14 20  1  0  0  0  0
 14 15  1  0  0  0  0
 15 21  1  0  0  0  0
 16 15  2  0  0  0  0
 16 22  1  0  0  0  0
 17 16  1  0  0  0  0
 18 19  1  0  0  0  0
 18 17  2  0  0  0  0
 19 14  2  0  0  0  0
 23  5  1  0  0  0  0
 24 23  1  1  0  0  0
 24 25  1  0  0  0  0
 25 26  1  0  0  0  0
 27 25  1  0  0  0  0
 27 28  1  0  0  0  0
 29 27  1  0  0  0  0
 30 24  1  0  0  0  0
 30 29  1  0  0  0  0
 31 30  1  0  0  0  0
M  END
>  <minimizedAffinity>
-4.3152318

$$$$

 OpenBabel03272506443D

 31 33  0  0  1  0  0  0  0  0999 V2000
   36.9530   25.3540   32.7640 C   0  0  2  0  0  0  0  0  0  0  0  0
   37.7840   24.1100   33.0040 C   0  0  1  0  0  0  0  0  0  0  0  0
   38.2080   23.6550   31.7770 O   0  0  0  0  0  0  0  0  0  0  0  0
   37.8900   24.5860   30.8160 C   0  0  0  0  0  0  0  0  0  0  0  0
   37.6850   25.9080   31.5500 C   0  0  1  0  0  0  0  0  0  0  0  0
   35.9250   25.1440   32.4550 H   0  0  0  0  0  0  0  0  0  0  0  0
   37.2200   23.3260   33.5340 H   0  0  0  0  0  0  0  0  0  0  0  0
   38.6140   24.6540   30.0030 H   0  0  0  0  0  0  0  0  0  0  0  0
   36.8590   24.3040   30.4550 H   0  0  0  0  0  0  0  0  0  0  0  0
   38.6420   26.3770   31.8550 H   0  0  0  0  0  0  0  0  0  0  0  0
   37.0390   26.2260   33.8580 O   0  0  0  0  0  0  0  0  0  0  0  0
   37.8760   26.7510   33.7800 H   0  0  0  0  0  0  0  0  0  0  0  0
   39.2590   24.6400   33.9300 S   0  0  0  0  0  0  0  0  0  0  0  0
   37.8970   24.2030   37.6270 C   0  0  0  0  0  0  0  0  0  0  0  0
   38.7790   23.3260   38.2430 C   0  0  0  0  0  0  0  0  0  0  0  0
   39.8470   22.8410   37.4880 C   0  0  0  0  0  0  0  0  0  0  0  0
   39.9690   23.2480   36.2050 N   0  0  0  0  0  0  0  0  0  0  0  0
   39.0880   24.1100   35.6270 C   0  0  0  0  0  0  0  0  0  0  0  0
   38.0390   24.5980   36.3360 N   0  0  0  0  0  0  0  0  0  0  0  0
   37.0730   24.5700   38.2270 H   0  0  0  0  0  0  0  0  0  0  0  0
   38.7180   22.9840   39.2460 H   0  0  0  0  0  0  0  0  0  0  0  0
   40.5540   22.1550   37.9390 H   0  0  0  0  0  0  0  0  0  0  0  0
   36.8800   26.7540   30.8020 O   0  0  0  0  0  0  0  0  0  0  0  0
   37.2550   28.0720   30.8700 C   0  0  1  0  0  3  0  0  0  0  0  0
   37.2360   28.6730   29.4770 C   0  0  0  0  0  3  0  0  0  0  0  0
   38.2260   28.6160   28.9890 H   0  0  0  0  0  0  0  0  0  0  0  0
   36.8970   30.1270   29.8250 C   0  0  0  0  0  3  0  0  0  0  0  0
   36.5120   30.6590   28.9510 H   0  0  0  0  0  0  0  0  0  0  0  0
   35.8360   29.9170   30.7110 O   0  0  0  0  0  0  0  0  0  0  0  0
   36.3140   28.9710   31.6110 C   0  0  0  0  0  3  0  0  0  0  0  0
   35.4370   28.4280   32.0190 H   0  0  0  0  0  0  0  0  0  0  0  0
  1  6  1  6  0  0  0
  1  2  1  0  0  0  0
  1 11  1  0  0  0  0
  2  7  1  1  0  0  0
  2 13  1  0  0  0  0
  3  2  1  0  0  0  0
  4  5  1  0  0  0  0
  4  3  1  0  0  0  0
  5 10  1  1  0  0  0
  5  1  1  0  0  0  0
  8  4  1  0  0  0  0
  9  4  1  0  0  0  0
 12 11  1  0  0  0  0
 13 18  1  0  0  0  0
 14 20  1  0  0  0  0
 14 15  1  0  0  0  0
 15 21  1  0  0  0  0
 16 22  1  0  0  0  0
 16 15  2  0  0  0  0
 17 16  1  0  0  0  0
 18 17  2  0  0  0  0
 18 19  1  0  0  0  0
 19 14  2  0  0  0  0
 23  5  1  0  0  0  0
 24 23  1  6  0  0  0
 24 30  1  0  0  0  0
 25 27  1  0  0  0  0
 25 24  1  0  0  0  0
 26 25  1  0  0  0  0
 27 29  1  0  0  0  0
 28 27  1  0  0  0  0
 29 30  1  0  0  0  0
 30 31  1  0  0  0  0
M  END
>  <minimizedAffinity>
-4.28409529

$$$$

 OpenBabel03272506443D

 31 33  0  0  1  0  0  0  0  0999 V2000
   38.1830   27.0540   33.5860 C   0  0  2  0  0  0  0  0  0  0  0  0
   37.5340   25.7230   33.9060 C   0  0  1  0  0  0  0  0  0  0  0  0
   36.8350   25.3250   32.7900 O   0  0  0  0  0  0  0  0  0  0  0  0
   37.1350   26.1700   31.7460 C   0  0  0  0  0  0  0  0  0  0  0  0
   38.4570   26.8410   32.1030 C   0  0  1  0  0  0  0  0  0  0  0  0
   37.5050   27.9070   33.6710 H   0  0  0  0  0  0  0  0  0  0  0  0
   36.8640   25.7850   34.7800 H   0  0  0  0  0  0  0  0  0  0  0  0
   37.1490   25.6850   30.7690 H   0  0  0  0  0  0  0  0  0  0  0  0
   36.3740   27.0010   31.8060 H   0  0  0  0  0  0  0  0  0  0  0  0
   39.3270   26.1680   31.9620 H   0  0  0  0  0  0  0  0  0  0  0  0
   39.3730   27.2120   34.3110 O   0  0  0  0  0  0  0  0  0  0  0  0
   40.0970   26.7260   33.8400 H   0  0  0  0  0  0  0  0  0  0  0  0
   38.8860   24.5300   34.1600 S   0  0  0  0  0  0  0  0  0  0  0  0
   37.9530   24.2060   37.9990 C   0  0  0  0  0  0  0  0  0  0  0  0
   38.8900   23.3320   38.5320 C   0  0  0  0  0  0  0  0  0  0  0  0
   39.8590   22.8140   37.6730 C   0  0  0  0  0  0  0  0  0  0  0  0
   39.8370   23.1860   36.3750 N   0  0  0  0  0  0  0  0  0  0  0  0
   38.9050   24.0460   35.8780 C   0  0  0  0  0  0  0  0  0  0  0  0
   37.9500   24.5660   36.6900 N   0  0  0  0  0  0  0  0  0  0  0  0
   37.2080   24.6000   38.6790 H   0  0  0  0  0  0  0  0  0  0  0  0
   38.9410   23.0160   39.5450 H   0  0  0  0  0  0  0  0  0  0  0  0
   40.6050   22.1300   38.0580 H   0  0  0  0  0  0  0  0  0  0  0  0
   38.5860   28.0430   31.4240 O   0  0  0  0  0  0  0  0  0  0  0  0
   38.3670   27.9370   30.0740 C   0  0  1  0  0  3  0  0  0  0  0  0
   37.5920   29.1500   29.5920 C   0  0  0  0  0  3  0  0  0  0  0  0
   36.5020   28.9690   29.5890 H   0  0  0  0  0  0  0  0  0  0  0  0
   38.1210   29.2460   28.1570 C   0  0  0  0  0  3  0  0  0  0  0  0
   37.9440   30.2400   27.7390 H   0  0  0  0  0  0  0  0  0  0  0  0
   39.4910   29.1120   28.4000 O   0  0  0  0  0  0  0  0  0  0  0  0
   39.5940   27.9910   29.2160 C   0  0  0  0  0  3  0  0  0  0  0  0
   40.5250   28.0970   29.8110 H   0  0  0  0  0  0  0  0  0  0  0  0
  1  6  1  1  0  0  0
  1  2  1  0  0  0  0
  1 11  1  0  0  0  0
  2 13  1  0  0  0  0
  2  7  1  1  0  0  0
  3  2  1  0  0  0  0
  4  9  1  0  0  0  0
  4  5  1  0  0  0  0
  4  3  1  0  0  0  0
  5 10  1  6  0  0  0
  5  1  1  0  0  0  0
  8  4  1  0  0  0  0
 12 11  1  0  0  0  0
 13 18  1  0  0  0  0
 14 15  1  0  0  0  0
 14 20  1  0  0  0  0
 15 21  1  0  0  0  0
 16 22  1  0  0  0  0
 16 15  2  0  0  0  0
 17 16  1  0  0  0  0
 18 17  2  0  0  0  0
 18 19  1  0  0  0  0
 19 14  2  0  0  0  0
 23  5  1  0  0  0  0
 24 23  1  1  0  0  0
 25 24  1  0  0  0  0
 26 25  1  0  0  0  0
 27 29  1  0  0  0  0
 27 25  1  0  0  0  0
 28 27  1  0  0  0  0
 29 30  1  0  0  0  0
 30 31  1  0  0  0  0
 30 24  1  0  0  0  0
M  END
>  <minimizedAffinity>
-4.20195293

$$$$

 OpenBabel03272506443D

 31 33  0  0  1  0  0  0  0  0999 V2000
   36.7570   28.5030   31.6410 C   0  0  2  0  0  0  0  0  0  0  0  0
   37.1440   27.0540   31.8540 C   0  0  1  0  0  0  0  0  0  0  0  0
   37.1580   26.8260   33.2110 O   0  0  0  0  0  0  0  0  0  0  0  0
   36.6380   27.9230   33.8570 C   0  0  0  0  0  0  0  0  0  0  0  0
   35.8130   28.6800   32.8220 C   0  0  1  0  0  0  0  0  0  0  0  0
   37.5840   29.2040   31.7780 H   0  0  0  0  0  0  0  0  0  0  0  0
   38.1240   26.8130   31.4110 H   0  0  0  0  0  0  0  0  0  0  0  0
   36.0770   27.6840   34.7620 H   0  0  0  0  0  0  0  0  0  0  0  0
   37.5190   28.5970   34.0600 H   0  0  0  0  0  0  0  0  0  0  0  0
   34.8380   28.1930   32.6160 H   0  0  0  0  0  0  0  0  0  0  0  0
   36.0880   28.6620   30.4190 O   0  0  0  0  0  0  0  0  0  0  0  0
   35.1370   28.4090   30.5440 H   0  0  0  0  0  0  0  0  0  0  0  0
   35.8030   26.0460   31.1450 S   0  0  0  0  0  0  0  0  0  0  0  0
   35.8240   22.0980   31.5020 C   0  0  0  0  0  0  0  0  0  0  0  0
   37.0850   21.6980   31.0820 C   0  0  0  0  0  0  0  0  0  0  0  0
   37.9770   22.6860   30.6660 C   0  0  0  0  0  0  0  0  0  0  0  0
   37.5710   23.9750   30.6940 N   0  0  0  0  0  0  0  0  0  0  0  0
   36.3280   24.3390   31.1120 C   0  0  0  0  0  0  0  0  0  0  0  0
   35.4390   23.4000   31.5220 N   0  0  0  0  0  0  0  0  0  0  0  0
   35.1440   21.3190   31.8220 H   0  0  0  0  0  0  0  0  0  0  0  0
   37.4400   20.6980   31.0450 H   0  0  0  0  0  0  0  0  0  0  0  0
   38.9680   22.4070   30.3320 H   0  0  0  0  0  0  0  0  0  0  0  0
   35.6870   30.0120   33.1870 O   0  0  0  0  0  0  0  0  0  0  0  0
   34.3970   30.3850   33.4680 C   0  0  1  0  0  3  0  0  0  0  0  0
   33.4380   29.3820   32.8560 C   0  0  0  0  0  3  0  0  0  0  0  0
   33.1040   29.6910   31.8490 H   0  0  0  0  0  0  0  0  0  0  0  0
   32.2800   29.4830   33.8550 C   0  0  0  0  0  3  0  0  0  0  0  0
   31.6270   28.6090   33.7890 H   0  0  0  0  0  0  0  0  0  0  0  0
   32.9940   29.4050   35.0540 O   0  0  0  0  0  0  0  0  0  0  0  0
   34.0140   30.3390   34.9160 C   0  0  0  0  0  3  0  0  0  0  0  0
   34.8520   30.0170   35.5680 H   0  0  0  0  0  0  0  0  0  0  0  0
  1  6  1  1  0  0  0
  1  2  1  0  0  0  0
  1  5  1  0  0  0  0
  2  7  1  6  0  0  0
  2  3  1  0  0  0  0
  3  4  1  0  0  0  0
  4  9  1  0  0  0  0
  4  8  1  0  0  0  0
  5 10  1  6  0  0  0
  5 23  1  0  0  0  0
  5  4  1  0  0  0  0
 11 12  1  0  0  0  0
 11  1  1  0  0  0  0
 13  2  1  0  0  0  0
 14 19  1  0  0  0  0
 14 20  1  0  0  0  0
 15 14  2  0  0  0  0
 16 17  2  0  0  0  0
 16 15  1  0  0  0  0
 17 18  1  0  0  0  0
 18 13  1  0  0  0  0
 18 19  2  0  0  0  0
 21 15  1  0  0  0  0
 22 16  1  0  0  0  0
 24 23  1  1  0  0  0
 24 30  1  0  0  0  0
 25 24  1  0  0  0  0
 25 27  1  0  0  0  0
 26 25  1  0  0  0  0
 27 29  1  0  0  0  0
 28 27  1  0  0  0  0
 30 29  1  0  0  0  0
 30 31  1  0  0  0  0
M  END
>  <minimizedAffinity>
-4.12074709

$$$$
