
 OpenBabel03272508093D

 23 24  0  0  1  0  0  0  0  0999 V2000
   39.1110   32.6920   48.1370 O   0  0  0  0  0  0  0  0  0  0  0  0
   38.6390   31.7000   47.1220 P   0  0  2  0  0  0  0  0  0  0  0  0
   37.5510   32.4560   46.0600 O   0  0  0  0  0  0  0  0  0  0  0  0
   37.1350   33.2180   46.5740 H   0  0  0  0  0  0  0  0  0  0  0  0
   37.9680   30.2890   47.7720 O   0  0  0  0  0  0  0  0  0  0  0  0
   37.2980   30.1750   51.4150 C   0  0  0  0  0  0  0  0  0  0  0  0
   37.9980   30.4860   50.2520 C   0  0  0  0  0  0  0  0  0  0  0  0
   37.4750   30.1010   49.0210 C   0  0  0  0  0  0  0  0  0  0  0  0
   36.2790   29.4240   49.0240 N   0  0  0  0  0  0  0  0  0  0  0  0
   35.6350   29.1420   50.1800 C   0  0  0  0  0  0  0  0  0  0  0  0
   36.1320   29.5110   51.3580 N   0  0  0  0  0  0  0  0  0  0  0  0
   37.8400   30.5450   52.2810 H   0  0  0  0  0  0  0  0  0  0  0  0
   38.9380   31.0130   50.1710 H   0  0  0  0  0  0  0  0  0  0  0  0
   34.6920   28.6100   50.2010 H   0  0  0  0  0  0  0  0  0  0  0  0
   39.9910   31.2570   46.1840 O   0  0  0  0  0  0  0  0  0  0  0  0
   39.5700   31.1400   44.8720 C   0  0  1  0  0  3  0  0  0  0  0  0
   40.5960   31.4890   43.8470 C   0  0  0  0  0  3  0  0  0  0  0  0
   41.6350   31.5860   44.2720 H   0  0  0  0  0  0  0  0  0  0  0  0
   40.5280   30.3080   42.8870 C   0  0  0  0  0  3  0  0  0  0  0  0
   41.2760   29.5290   43.1170 H   0  0  0  0  0  0  0  0  0  0  0  0
   39.2530   29.7660   43.1010 O   0  0  0  0  0  0  0  0  0  0  0  0
   39.1890   29.7230   44.5120 C   0  0  0  0  0  3  0  0  0  0  0  0
   38.1300   29.4820   44.7870 H   0  0  0  0  0  0  0  0  0  0  0  0
  2  5  1  0  0  0  0
  2  1  2  1  0  0  0
  3  4  1  0  0  0  0
  3  2  1  0  0  0  0
  5  8  1  0  0  0  0
  6 12  1  0  0  0  0
  7  6  2  0  0  0  0
  8  9  2  0  0  0  0
  8  7  1  0  0  0  0
  9 10  1  0  0  0  0
 10 14  1  0  0  0  0
 10 11  2  0  0  0  0
 11  6  1  0  0  0  0
 13  7  1  0  0  0  0
 15  2  1  0  0  0  0
 16 15  1  1  0  0  0
 17 18  1  0  0  0  0
 17 16  1  0  0  0  0
 19 21  1  0  0  0  0
 19 20  1  0  0  0  0
 19 17  1  0  0  0  0
 21 22  1  0  0  0  0
 22 23  1  0  0  0  0
 22 16  1  0  0  0  0
M  END
>  <minimizedAffinity>
-4.95210934

>  <minimizedRMSD>
0.802870452

$$$$
