
 OpenBabel03272505423D

 44 47  0  0  1  0  0  0  0  0999 V2000
   35.7460   30.2240   46.5200 C   0  0  0  0  0  0  0  0  0  0  0  0
   34.4120   29.8260   46.5960 C   0  0  0  0  0  0  0  0  0  0  0  0
   33.7460   29.4640   45.4390 C   0  0  0  0  0  0  0  0  0  0  0  0
   34.3300   29.4700   44.1880 C   0  0  0  0  0  0  0  0  0  0  0  0
   35.6600   29.8670   44.1100 C   0  0  0  0  0  0  0  0  0  0  0  0
   36.3070   30.2260   45.2830 C   0  0  0  0  0  0  0  0  0  0  0  0
   33.8730   29.7900   47.5370 H   0  0  0  0  0  0  0  0  0  0  0  0
   32.7100   29.1570   45.5260 H   0  0  0  0  0  0  0  0  0  0  0  0
   33.7590   29.1750   43.3140 H   0  0  0  0  0  0  0  0  0  0  0  0
   36.0660   29.8570   43.1230 H   0  0  0  0  0  0  0  0  0  0  0  0
   37.6540   30.6020   45.0080 N   0  0  0  0  0  0  0  0  0  0  0  0
   38.9550   30.0060   45.0410 C   0  0  0  0  0  0  0  0  0  0  0  0
   39.8320   30.8760   45.9110 C   0  0  0  0  0  0  0  0  0  0  0  0
   40.0680   32.1110   45.2020 N   0  0  0  0  0  0  0  0  0  0  0  0
   39.0690   32.4280   44.2400 C   0  0  0  0  0  0  0  0  0  0  0  0
   37.6910   31.9590   44.5670 C   0  0  0  0  0  0  0  0  0  0  0  0
   38.9090   28.9630   45.3910 H   0  0  0  0  0  0  0  0  0  0  0  0
   39.4000   30.0560   44.0240 H   0  0  0  0  0  0  0  0  0  0  0  0
   39.7590   30.8530   46.9500 H   0  0  0  0  0  0  0  0  0  0  0  0
   40.8310   30.3310   45.7530 H   0  0  0  0  0  0  0  0  0  0  0  0
   40.9970   32.2500   44.8050 H   0  0  0  0  0  0  0  0  0  0  0  0
   39.0050   33.5580   44.2270 H   0  0  0  0  0  0  0  0  0  0  0  0
   39.4070   32.1760   43.2140 H   0  0  0  0  0  0  0  0  0  0  0  0
   37.0700   32.6820   45.0850 H   0  0  0  0  0  0  0  0  0  0  0  0
   37.1980   31.9020   43.5430 H   0  0  0  0  0  0  0  0  0  0  0  0
   37.1400   30.1610   49.8880 C   0  0  0  0  0  0  0  0  0  0  0  0
   37.8140   31.3910   49.9620 C   0  0  0  0  0  0  0  0  0  0  0  0
   37.7830   32.2300   48.8470 C   0  0  0  0  0  0  0  0  0  0  0  0
   37.0890   31.7690   47.7730 N   0  0  0  0  0  0  0  0  0  0  0  0
   36.4570   30.6090   47.7120 C   0  0  0  0  0  0  0  0  0  0  0  0
   36.4820   29.7930   48.7830 N   0  0  0  0  0  0  0  0  0  0  0  0
   38.3550   31.7240   50.8320 H   0  0  0  0  0  0  0  0  0  0  0  0
   38.4790   33.5180   48.9050 C   0  0  2  0  0  3  0  0  0  0  0  0
   39.4750   33.7130   47.7860 C   0  0  0  0  0  3  0  0  0  0  0  0
   39.0370   34.1170   46.8550 H   0  0  0  0  0  0  0  0  0  0  0  0
   40.3600   34.7840   48.4030 C   0  0  0  0  0  3  0  0  0  0  0  0
   41.4340   34.5760   48.2240 H   0  0  0  0  0  0  0  0  0  0  0  0
   40.0980   34.8290   49.7460 O   0  0  0  0  0  0  0  0  0  0  0  0
   39.4270   33.6530   50.0910 C   0  0  0  0  0  3  0  0  0  0  0  0
   40.2150   32.8620   50.0690 H   0  0  0  0  0  0  0  0  0  0  0  0
   37.1890   29.2880   51.1160 C   0  0  0  0  0  0  0  0  0  0  0  0
   35.8650   28.9590   51.4600 F   0  0  0  0  0  0  0  0  0  0  0  0
   37.9290   28.2080   50.8420 F   0  0  0  0  0  0  0  0  0  0  0  0
   37.6700   30.0360   52.1610 F   0  0  0  0  0  0  0  0  0  0  0  0
  1  2  1  0  0  0  0
  1 30  1  0  0  0  0
  2  7  1  0  0  0  0
  3  8  1  0  0  0  0
  3  2  2  0  0  0  0
  4  3  1  0  0  0  0
  5  4  2  0  0  0  0
  5  6  1  0  0  0  0
  6  1  2  0  0  0  0
  9  4  1  0  0  0  0
 10  5  1  0  0  0  0
 11 12  1  0  0  0  0
 11  6  1  0  0  0  0
 12 17  1  0  0  0  0
 12 13  1  0  0  0  0
 13 19  1  0  0  0  0
 14 13  1  0  0  0  0
 15 16  1  0  0  0  0
 15 14  1  0  0  0  0
 16 11  1  0  0  0  0
 16 24  1  0  0  0  0
 18 12  1  0  0  0  0
 20 13  1  0  0  0  0
 21 14  1  0  0  0  0
 22 15  1  0  0  0  0
 23 15  1  0  0  0  0
 25 16  1  0  0  0  0
 26 27  1  0  0  0  0
 26 41  1  0  0  0  0
 27 32  1  0  0  0  0
 28 27  2  0  0  0  0
 29 28  1  0  0  0  0
 30 29  2  0  0  0  0
 30 31  1  0  0  0  0
 31 26  2  0  0  0  0
 33 28  1  6  0  0  0
 33 39  1  0  0  0  0
 34 36  1  0  0  0  0
 34 33  1  0  0  0  0
 35 34  1  0  0  0  0
 36 38  1  0  0  0  0
 37 36  1  0  0  0  0
 38 39  1  0  0  0  0
 40 39  1  0  0  0  0
 41 42  1  0  0  0  0
 41 44  1  0  0  0  0
 43 41  1  0  0  0  0
M  END
>  <minimizedAffinity>
-5.8117342

>  <minimizedRMSD>
0.585478902

$$$$
