
 OpenBabel03272508283D

 37 40  0  0  1  0  0  0  0  0999 V2000
   33.9900   28.9930   47.3350 C   0  0  2  0  0  0  0  0  0  0  0  0
   34.7390   28.2390   48.4230 C   0  0  2  0  0  0  0  0  0  0  0  0
   33.8370   28.0620   49.4340 O   0  0  0  0  0  0  0  0  0  0  0  0
   32.5660   28.1090   48.9580 C   0  0  0  0  0  0  0  0  0  0  0  0
   32.6230   28.3090   47.4600 C   0  0  1  0  0  0  0  0  0  0  0  0
   33.8130   30.0400   47.5960 H   0  0  0  0  0  0  0  0  0  0  0  0
   35.0440   27.2780   47.9420 H   0  0  0  0  0  0  0  0  0  0  0  0
   31.9970   27.2050   49.2410 H   0  0  0  0  0  0  0  0  0  0  0  0
   32.0640   29.0090   49.4100 H   0  0  0  0  0  0  0  0  0  0  0  0
   32.6960   27.3200   46.9630 H   0  0  0  0  0  0  0  0  0  0  0  0
   35.7880   30.5200   49.0410 C   0  0  1  0  0  0  0  0  0  0  0  0
   35.8880   29.0930   48.8480 C   0  0  1  0  0  0  0  0  0  0  0  0
   36.0180   29.6010   50.2480 C   0  0  0  0  0  0  0  0  0  0  0  0
   34.8810   31.1220   49.2030 H   0  0  0  0  0  0  0  0  0  0  0  0
   36.8660   28.7200   48.4250 H   0  0  0  0  0  0  0  0  0  0  0  0
   35.1630   29.3640   50.9070 H   0  0  0  0  0  0  0  0  0  0  0  0
   36.9920   29.6180   50.7560 H   0  0  0  0  0  0  0  0  0  0  0  0
   36.9780   31.4310   48.7970 C   0  0  0  0  0  0  0  0  0  0  0  0
   37.1770   32.4860   49.6890 C   0  0  0  0  0  0  0  0  0  0  0  0
   38.2640   33.3010   49.4040 C   0  0  0  0  0  0  0  0  0  0  0  0
   39.0640   33.0570   48.3130 N   0  0  0  0  0  0  0  0  0  0  0  0
   38.8300   32.0210   47.4780 C   0  0  0  0  0  0  0  0  0  0  0  0
   37.7780   31.2010   47.7220 N   0  0  0  0  0  0  0  0  0  0  0  0
   36.5210   32.6290   50.5230 H   0  0  0  0  0  0  0  0  0  0  0  0
   38.4520   34.1310   50.0730 H   0  0  0  0  0  0  0  0  0  0  0  0
   39.4920   31.8790   46.6390 H   0  0  0  0  0  0  0  0  0  0  0  0
   34.5270   28.8230   46.0720 O   0  0  0  0  0  0  0  0  0  0  0  0
   34.5270   27.8510   45.8750 H   0  0  0  0  0  0  0  0  0  0  0  0
   31.6200   29.0900   46.9520 O   0  0  0  0  0  0  0  0  0  0  0  0
   30.6020   28.3920   46.3370 C   0  0  2  0  0  3  0  0  0  0  0  0
   31.1030   27.5210   45.1980 C   0  0  0  0  0  3  0  0  0  0  0  0
   31.3300   26.4980   45.4930 H   0  0  0  0  0  0  0  0  0  0  0  0
   29.8600   27.4900   44.3240 C   0  0  0  0  0  3  0  0  0  0  0  0
   29.1890   26.6510   44.6450 H   0  0  0  0  0  0  0  0  0  0  0  0
   29.2430   28.7190   44.4550 O   0  0  0  0  0  0  0  0  0  0  0  0
   29.7480   29.3690   45.5680 C   0  0  0  0  0  3  0  0  0  0  0  0
   28.9760   29.8710   46.1850 H   0  0  0  0  0  0  0  0  0  0  0  0
  1  5  1  0  0  0  0
  1  6  1  1  0  0  0
  1  2  1  0  0  0  0
  2  7  1  6  0  0  0
  2 12  1  0  0  0  0
  2  3  1  0  0  0  0
  4  8  1  0  0  0  0
  4  9  1  0  0  0  0
  4  3  1  0  0  0  0
  5 10  1  6  0  0  0
  5  4  1  0  0  0  0
 11 14  1  6  0  0  0
 11 13  1  0  0  0  0
 12 15  1  6  0  0  0
 12 11  1  0  0  0  0
 12 13  1  0  0  0  0
 13 17  1  0  0  0  0
 13 16  1  0  0  0  0
 18 11  1  0  0  0  0
 18 19  1  0  0  0  0
 19 24  1  0  0  0  0
 20 19  2  0  0  0  0
 20 25  1  0  0  0  0
 21 20  1  0  0  0  0
 22 23  1  0  0  0  0
 22 21  2  0  0  0  0
 23 18  2  0  0  0  0
 26 22  1  0  0  0  0
 27  1  1  0  0  0  0
 28 27  1  0  0  0  0
 29  5  1  0  0  0  0
 30 29  1  6  0  0  0
 31 32  1  0  0  0  0
 31 30  1  0  0  0  0
 33 35  1  0  0  0  0
 33 34  1  0  0  0  0
 33 31  1  0  0  0  0
 35 36  1  0  0  0  0
 36 37  1  0  0  0  0
 36 30  1  0  0  0  0
M  END
>  <minimizedAffinity>
-4.74261284

>  <minimizedRMSD>
0.45492807

$$$$
