
 OpenBabel03272505423D

 44 47  0  0  1  0  0  0  0  0999 V2000
   35.4180   30.3480   46.7600 C   0  0  0  0  0  0  0  0  0  0  0  0
   34.0570   30.2180   47.0330 C   0  0  0  0  0  0  0  0  0  0  0  0
   33.1720   30.0190   45.9890 C   0  0  0  0  0  0  0  0  0  0  0  0
   33.5580   29.9380   44.6660 C   0  0  0  0  0  0  0  0  0  0  0  0
   34.9140   30.0680   44.3910 C   0  0  0  0  0  0  0  0  0  0  0  0
   35.7830   30.2670   45.4530 C   0  0  0  0  0  0  0  0  0  0  0  0
   33.6650   30.2670   48.0430 H   0  0  0  0  0  0  0  0  0  0  0  0
   32.1200   29.9200   46.2300 H   0  0  0  0  0  0  0  0  0  0  0  0
   32.8190   29.7810   43.8870 H   0  0  0  0  0  0  0  0  0  0  0  0
   35.1620   30.0000   43.3550 H   0  0  0  0  0  0  0  0  0  0  0  0
   37.1230   30.3770   44.9810 N   0  0  0  0  0  0  0  0  0  0  0  0
   38.2910   29.5550   44.8870 C   0  0  0  0  0  0  0  0  0  0  0  0
   39.4190   30.2890   45.5730 C   0  0  0  0  0  0  0  0  0  0  0  0
   39.7670   31.4260   44.7550 N   0  0  0  0  0  0  0  0  0  0  0  0
   38.7150   31.8770   43.9110 C   0  0  0  0  0  0  0  0  0  0  0  0
   37.3350   31.6840   44.4460 C   0  0  0  0  0  0  0  0  0  0  0  0
   38.1130   28.5550   45.3110 H   0  0  0  0  0  0  0  0  0  0  0  0
   38.5910   29.4770   43.8190 H   0  0  0  0  0  0  0  0  0  0  0  0
   39.4900   30.3260   46.6120 H   0  0  0  0  0  0  0  0  0  0  0  0
   40.2750   29.5630   45.3250 H   0  0  0  0  0  0  0  0  0  0  0  0
   40.6410   31.3740   44.2320 H   0  0  0  0  0  0  0  0  0  0  0  0
   38.8480   32.9980   43.8280 H   0  0  0  0  0  0  0  0  0  0  0  0
   38.8560   31.5210   42.8700 H   0  0  0  0  0  0  0  0  0  0  0  0
   36.9290   32.5310   44.9880 H   0  0  0  0  0  0  0  0  0  0  0  0
   36.7020   31.6710   43.5010 H   0  0  0  0  0  0  0  0  0  0  0  0
   37.1310   30.0570   49.9640 C   0  0  0  0  0  0  0  0  0  0  0  0
   38.1590   31.0060   49.8470 C   0  0  0  0  0  0  0  0  0  0  0  0
   38.2530   31.7360   48.6620 C   0  0  0  0  0  0  0  0  0  0  0  0
   37.3220   31.4550   47.7120 N   0  0  0  0  0  0  0  0  0  0  0  0
   36.3570   30.5590   47.8310 C   0  0  0  0  0  0  0  0  0  0  0  0
   36.2590   29.8500   48.9710 N   0  0  0  0  0  0  0  0  0  0  0  0
   38.8810   31.2030   50.6220 H   0  0  0  0  0  0  0  0  0  0  0  0
   39.3200   32.7330   48.5210 C   0  0  2  0  0  3  0  0  0  0  0  0
   39.1450   33.9310   49.4230 C   0  0  0  0  0  3  0  0  0  0  0  0
   39.5580   33.7970   50.4390 H   0  0  0  0  0  0  0  0  0  0  0  0
   40.0060   34.9450   48.6870 C   0  0  0  0  0  3  0  0  0  0  0  0
   39.5140   35.9360   48.6350 H   0  0  0  0  0  0  0  0  0  0  0  0
   40.2460   34.4620   47.4280 O   0  0  0  0  0  0  0  0  0  0  0  0
   39.3200   33.4470   47.1740 C   0  0  0  0  0  3  0  0  0  0  0  0
   38.3550   33.9830   47.0020 H   0  0  0  0  0  0  0  0  0  0  0  0
   37.0570   29.2960   51.2630 C   0  0  0  0  0  0  0  0  0  0  0  0
   35.7050   28.9910   51.5040 F   0  0  0  0  0  0  0  0  0  0  0  0
   37.8180   28.2000   51.1600 F   0  0  0  0  0  0  0  0  0  0  0  0
   37.4350   30.1370   52.2800 F   0  0  0  0  0  0  0  0  0  0  0  0
  1  2  1  0  0  0  0
  1 30  1  0  0  0  0
  2  7  1  0  0  0  0
  3  8  1  0  0  0  0
  3  2  2  0  0  0  0
  4  3  1  0  0  0  0
  5  4  2  0  0  0  0
  5  6  1  0  0  0  0
  6  1  2  0  0  0  0
  9  4  1  0  0  0  0
 10  5  1  0  0  0  0
 11  6  1  0  0  0  0
 12 11  1  0  0  0  0
 12 17  1  0  0  0  0
 12 13  1  0  0  0  0
 13 19  1  0  0  0  0
 14 13  1  0  0  0  0
 15 16  1  0  0  0  0
 15 14  1  0  0  0  0
 16 11  1  0  0  0  0
 16 24  1  0  0  0  0
 18 12  1  0  0  0  0
 20 13  1  0  0  0  0
 21 14  1  0  0  0  0
 22 15  1  0  0  0  0
 23 15  1  0  0  0  0
 25 16  1  0  0  0  0
 26 41  1  0  0  0  0
 27 26  1  0  0  0  0
 27 32  1  0  0  0  0
 28 27  2  0  0  0  0
 29 30  2  0  0  0  0
 29 28  1  0  0  0  0
 30 31  1  0  0  0  0
 31 26  2  0  0  0  0
 33 28  1  6  0  0  0
 33 34  1  0  0  0  0
 34 35  1  0  0  0  0
 36 34  1  0  0  0  0
 37 36  1  0  0  0  0
 38 36  1  0  0  0  0
 39 38  1  0  0  0  0
 39 33  1  0  0  0  0
 40 39  1  0  0  0  0
 41 42  1  0  0  0  0
 41 44  1  0  0  0  0
 43 41  1  0  0  0  0
M  END
>  <minimizedAffinity>
-5.79058933

>  <minimizedRMSD>
0.955268562

$$$$
