
 OpenBabel03272503503D

 36 38  0  0  1  0  0  0  0  0999 V2000
   33.0890   27.3000   45.8920 C   0  0  1  0  0  0  0  0  0  0  0  0
   33.9100   27.4650   47.1930 C   0  0  2  0  0  0  0  0  0  0  0  0
   33.8200   26.2400   47.7730 O   0  0  0  0  0  0  0  0  0  0  0  0
   34.0460   25.3450   46.7470 C   0  0  0  0  0  0  0  0  0  0  0  0
   33.4700   25.9040   45.4870 C   0  0  2  0  0  0  0  0  0  0  0  0
   33.4760   28.0710   45.2070 H   0  0  0  0  0  0  0  0  0  0  0  0
   34.9440   27.7840   46.8780 H   0  0  0  0  0  0  0  0  0  0  0  0
   33.7040   24.3200   46.9890 H   0  0  0  0  0  0  0  0  0  0  0  0
   35.1630   25.2580   46.6240 H   0  0  0  0  0  0  0  0  0  0  0  0
   32.5400   25.3790   45.2330 H   0  0  0  0  0  0  0  0  0  0  0  0
   31.7440   27.4870   46.1490 O   0  0  0  0  0  0  0  0  0  0  0  0
   31.4520   28.4010   45.9680 H   0  0  0  0  0  0  0  0  0  0  0  0
   33.3210   28.5080   47.8420 O   0  0  0  0  0  0  0  0  0  0  0  0
   35.3460   29.8130   46.7620 O   0  0  0  0  0  0  0  0  0  0  0  0
   34.0940   29.9860   47.6090 P   0  0  1  0  0  0  0  0  0  0  0  0
   33.1020   31.0300   46.7220 O   0  0  0  0  0  0  0  0  0  0  0  0
   32.9020   30.7000   45.8320 H   0  0  0  0  0  0  0  0  0  0  0  0
   34.4050   30.6500   49.1460 O   0  0  0  0  0  0  0  0  0  0  0  0
   35.6410   30.5010   49.7730 C   0  0  0  0  0  0  0  0  0  0  0  0
   35.9820   29.4800   50.6820 C   0  0  0  0  0  0  0  0  0  0  0  0
   37.2640   29.4830   51.2130 C   0  0  0  0  0  0  0  0  0  0  0  0
   38.1330   30.4730   50.8330 N   0  0  0  0  0  0  0  0  0  0  0  0
   37.7720   31.4450   49.9530 C   0  0  0  0  0  0  0  0  0  0  0  0
   36.5230   31.4600   49.4210 N   0  0  0  0  0  0  0  0  0  0  0  0
   35.1990   28.7650   50.8900 H   0  0  0  0  0  0  0  0  0  0  0  0
   37.5080   28.7020   51.9010 H   0  0  0  0  0  0  0  0  0  0  0  0
   38.4880   32.2080   49.6790 H   0  0  0  0  0  0  0  0  0  0  0  0
   34.4160   25.9330   44.4830 O   0  0  0  0  0  0  0  0  0  0  0  0
   35.0850   24.7710   44.2700 C   0  0  2  0  0  0  0  0  0  0  0  0
   36.4450   24.8680   43.6600 C   0  0  0  0  0  0  0  0  0  0  0  0
   37.2170   25.2380   44.3680 H   0  0  0  0  0  0  0  0  0  0  0  0
   36.6500   23.4180   43.2660 C   0  0  0  0  0  0  0  0  0  0  0  0
   36.8990   22.8680   44.1960 H   0  0  0  0  0  0  0  0  0  0  0  0
   35.4320   23.0380   42.7600 O   0  0  0  0  0  0  0  0  0  0  0  0
   34.4290   23.7730   43.3610 C   0  0  0  0  0  0  0  0  0  0  0  0
   33.8280   24.2320   42.5560 H   0  0  0  0  0  0  0  0  0  0  0  0
  1  6  1  6  0  0  0
  1 11  1  0  0  0  0
  1  2  1  0  0  0  0
  2  7  1  6  0  0  0
  2  3  1  0  0  0  0
  2 13  1  0  0  0  0
  4  8  1  0  0  0  0
  4  3  1  0  0  0  0
  5 10  1  6  0  0  0
  5  1  1  0  0  0  0
  5  4  1  0  0  0  0
  9  4  1  0  0  0  0
 12 11  1  0  0  0  0
 15 14  2  6  0  0  0
 15 13  1  0  0  0  0
 15 18  1  0  0  0  0
 16 15  1  0  0  0  0
 17 16  1  0  0  0  0
 18 19  1  0  0  0  0
 19 20  1  0  0  0  0
 20 25  1  0  0  0  0
 20 21  2  0  0  0  0
 21 26  1  0  0  0  0
 22 21  1  0  0  0  0
 23 22  2  0  0  0  0
 24 19  2  0  0  0  0
 24 23  1  0  0  0  0
 27 23  1  0  0  0  0
 28  5  1  0  0  0  0
 29 28  1  6  0  0  0
 30 29  1  0  0  0  0
 30 31  1  0  0  0  0
 32 30  1  0  0  0  0
 32 33  1  0  0  0  0
 34 32  1  0  0  0  0
 34 35  1  0  0  0  0
 35 29  1  0  0  0  0
 36 35  1  0  0  0  0
M  END
>  <minimizedAffinity>
-4.07858706

>  <minimizedRMSD>
1.39715719

$$$$
