
 OpenBabel03272507513D

 27 29  0  0  1  0  0  0  0  0999 V2000
   38.2010   24.5570   34.2230 C   0  0  0  0  0  0  0  0  0  0  0  0
   38.7690   24.8360   35.4770 C   0  0  0  0  0  0  0  0  0  0  0  0
   38.4480   26.0780   36.0480 C   0  0  0  0  0  0  0  0  0  0  0  0
   37.6270   26.9240   35.3790 N   0  0  0  0  0  0  0  0  0  0  0  0
   37.1020   26.6240   34.1830 C   0  0  0  0  0  0  0  0  0  0  0  0
   37.3930   25.4330   33.6030 N   0  0  0  0  0  0  0  0  0  0  0  0
   38.8890   26.2860   37.0130 H   0  0  0  0  0  0  0  0  0  0  0  0
   36.4650   27.3900   33.7620 H   0  0  0  0  0  0  0  0  0  0  0  0
   39.6140   23.8700   36.0800 N   0  0  0  0  0  0  0  0  0  0  0  0
   40.8840   23.7050   35.6970 C   0  0  0  0  0  0  0  0  0  0  0  0
   41.6880   22.7470   36.3190 C   0  0  0  0  0  0  0  0  0  0  0  0
   41.0450   22.0470   37.3070 C   0  0  0  0  0  0  0  0  0  0  0  0
   41.7570   21.1620   37.8960 O   0  0  0  0  0  0  0  0  0  0  0  0
   39.7810   22.1840   37.7160 N   0  0  0  0  0  0  0  0  0  0  0  0
   39.0530   23.1330   37.0700 C   0  0  0  0  0  0  0  0  0  0  0  0
   37.8490   23.2750   37.4460 O   0  0  0  0  0  0  0  0  0  0  0  0
   41.3310   24.2970   34.8980 H   0  0  0  0  0  0  0  0  0  0  0  0
   42.7220   22.5630   36.0570 H   0  0  0  0  0  0  0  0  0  0  0  0
   39.4000   21.5900   38.4840 H   0  0  0  0  0  0  0  0  0  0  0  0
   38.4330   23.3190   33.4820 C   0  0  2  0  0  3  0  0  0  0  0  0
   38.1040   23.4620   31.9990 C   0  0  0  0  0  3  0  0  0  0  0  0
   39.0270   23.6150   31.4110 H   0  0  0  0  0  0  0  0  0  0  0  0
   37.5480   22.0980   31.6760 C   0  0  0  0  0  3  0  0  0  0  0  0
   36.4490   22.1080   31.4810 H   0  0  0  0  0  0  0  0  0  0  0  0
   37.7370   21.3030   32.8170 O   0  0  0  0  0  0  0  0  0  0  0  0
   37.4950   22.2040   33.8760 C   0  0  0  0  0  3  0  0  0  0  0  0
   37.7720   21.7170   34.8270 H   0  0  0  0  0  0  0  0  0  0  0  0
  1  2  1  0  0  0  0
  2  3  2  0  0  0  0
  2  9  1  0  0  0  0
  3  7  1  0  0  0  0
  4  3  1  0  0  0  0
  5  4  2  0  0  0  0
  6  5  1  0  0  0  0
  6  1  2  0  0  0  0
  8  5  1  0  0  0  0
  9 15  1  0  0  0  0
 10  9  1  0  0  0  0
 10 11  2  0  0  0  0
 11 12  1  0  0  0  0
 12 14  1  0  0  0  0
 12 13  2  0  0  0  0
 14 19  1  0  0  0  0
 15 16  2  0  0  0  0
 15 14  1  0  0  0  0
 17 10  1  0  0  0  0
 18 11  1  0  0  0  0
 20 26  1  0  0  0  0
 20  1  1  1  0  0  0
 21 20  1  0  0  0  0
 22 21  1  0  0  0  0
 23 21  1  0  0  0  0
 23 25  1  0  0  0  0
 24 23  1  0  0  0  0
 25 26  1  0  0  0  0
 26 27  1  0  0  0  0
M  END
>  <minimizedAffinity>
-4.89149237

$$$$

 OpenBabel03272507513D

 27 29  0  0  1  0  0  0  0  0999 V2000
   36.8920   26.2770   32.6180 C   0  0  0  0  0  0  0  0  0  0  0  0
   35.9600   26.7240   31.6670 C   0  0  0  0  0  0  0  0  0  0  0  0
   35.3560   25.7380   30.8710 C   0  0  0  0  0  0  0  0  0  0  0  0
   35.6910   24.4380   31.0540 N   0  0  0  0  0  0  0  0  0  0  0  0
   36.5850   24.0470   31.9730 C   0  0  0  0  0  0  0  0  0  0  0  0
   37.1880   24.9740   32.7590 N   0  0  0  0  0  0  0  0  0  0  0  0
   34.6400   26.0900   30.1400 H   0  0  0  0  0  0  0  0  0  0  0  0
   36.7580   22.9810   32.0130 H   0  0  0  0  0  0  0  0  0  0  0  0
   35.6900   28.1120   31.5680 N   0  0  0  0  0  0  0  0  0  0  0  0
   34.8610   28.7340   32.4120 C   0  0  0  0  0  0  0  0  0  0  0  0
   34.6240   30.1040   32.2870 C   0  0  0  0  0  0  0  0  0  0  0  0
   35.3090   30.6880   31.2520 C   0  0  0  0  0  0  0  0  0  0  0  0
   35.1120   31.9440   31.1120 O   0  0  0  0  0  0  0  0  0  0  0  0
   36.1430   30.1010   30.3890 N   0  0  0  0  0  0  0  0  0  0  0  0
   36.3300   28.7660   30.5670 C   0  0  0  0  0  0  0  0  0  0  0  0
   37.1190   28.1930   29.7540 O   0  0  0  0  0  0  0  0  0  0  0  0
   34.3450   28.2040   33.2140 H   0  0  0  0  0  0  0  0  0  0  0  0
   33.9660   30.6660   32.9360 H   0  0  0  0  0  0  0  0  0  0  0  0
   36.6090   30.6530   29.6380 H   0  0  0  0  0  0  0  0  0  0  0  0
   37.6200   27.1630   33.5240 C   0  0  2  0  0  3  0  0  0  0  0  0
   39.0810   26.7540   33.6830 C   0  0  0  0  0  3  0  0  0  0  0  0
   39.7310   27.3860   33.0520 H   0  0  0  0  0  0  0  0  0  0  0  0
   39.3380   27.0950   35.1300 C   0  0  0  0  0  3  0  0  0  0  0  0
   39.4610   26.1940   35.7770 H   0  0  0  0  0  0  0  0  0  0  0  0
   38.1950   27.7620   35.5980 O   0  0  0  0  0  0  0  0  0  0  0  0
   37.1420   27.0780   34.9530 C   0  0  0  0  0  3  0  0  0  0  0  0
   36.2010   27.6260   35.1320 H   0  0  0  0  0  0  0  0  0  0  0  0
  1  6  1  0  0  0  0
  2  1  2  0  0  0  0
  3  4  2  0  0  0  0
  3  2  1  0  0  0  0
  4  5  1  0  0  0  0
  5  8  1  0  0  0  0
  5  6  2  0  0  0  0
  7  3  1  0  0  0  0
  9  2  1  0  0  0  0
  9 10  1  0  0  0  0
 10 17  1  0  0  0  0
 11 10  2  0  0  0  0
 11 18  1  0  0  0  0
 12 11  1  0  0  0  0
 13 12  2  0  0  0  0
 14 15  1  0  0  0  0
 14 12  1  0  0  0  0
 15  9  1  0  0  0  0
 16 15  2  0  0  0  0
 19 14  1  0  0  0  0
 20  1  1  6  0  0  0
 20 21  1  0  0  0  0
 20 26  1  0  0  0  0
 21 23  1  0  0  0  0
 22 21  1  0  0  0  0
 23 25  1  0  0  0  0
 23 24  1  0  0  0  0
 26 27  1  0  0  0  0
 26 25  1  0  0  0  0
M  END
>  <minimizedAffinity>
-4.85679388

$$$$

 OpenBabel03272507513D

 27 29  0  0  1  0  0  0  0  0999 V2000
   39.5250   25.2870   35.0280 C   0  0  0  0  0  0  0  0  0  0  0  0
   39.7250   23.9260   35.3060 C   0  0  0  0  0  0  0  0  0  0  0  0
   41.0570   23.4870   35.3640 C   0  0  0  0  0  0  0  0  0  0  0  0
   42.0590   24.3750   35.1550 N   0  0  0  0  0  0  0  0  0  0  0  0
   41.8320   25.6690   34.8920 C   0  0  0  0  0  0  0  0  0  0  0  0
   40.5560   26.1260   34.8280 N   0  0  0  0  0  0  0  0  0  0  0  0
   41.2030   22.4360   35.5770 H   0  0  0  0  0  0  0  0  0  0  0  0
   42.7220   26.2660   34.7460 H   0  0  0  0  0  0  0  0  0  0  0  0
   38.5960   23.0920   35.5070 N   0  0  0  0  0  0  0  0  0  0  0  0
   38.0490   22.3900   34.5090 C   0  0  0  0  0  0  0  0  0  0  0  0
   36.9400   21.5740   34.7470 C   0  0  0  0  0  0  0  0  0  0  0  0
   36.5170   21.5890   36.0510 C   0  0  0  0  0  0  0  0  0  0  0  0
   35.5020   20.8500   36.3000 O   0  0  0  0  0  0  0  0  0  0  0  0
   37.0360   22.2760   37.0720 N   0  0  0  0  0  0  0  0  0  0  0  0
   38.1130   23.0500   36.7730 C   0  0  0  0  0  0  0  0  0  0  0  0
   38.6180   23.7100   37.7320 O   0  0  0  0  0  0  0  0  0  0  0  0
   38.4370   22.4300   33.4910 H   0  0  0  0  0  0  0  0  0  0  0  0
   36.4510   20.9820   33.9850 H   0  0  0  0  0  0  0  0  0  0  0  0
   36.6250   22.2050   38.0270 H   0  0  0  0  0  0  0  0  0  0  0  0
   38.2090   25.9130   34.9230 C   0  0  2  0  0  3  0  0  0  0  0  0
   37.7910   26.1420   33.4740 C   0  0  0  0  0  3  0  0  0  0  0  0
   37.0910   25.3530   33.1430 H   0  0  0  0  0  0  0  0  0  0  0  0
   37.0330   27.4430   33.5750 C   0  0  0  0  0  3  0  0  0  0  0  0
   37.5710   28.3000   33.1060 H   0  0  0  0  0  0  0  0  0  0  0  0
   36.9300   27.7450   34.9430 O   0  0  0  0  0  0  0  0  0  0  0  0
   38.1760   27.3250   35.4560 C   0  0  0  0  0  3  0  0  0  0  0  0
   38.1400   27.3740   36.5580 H   0  0  0  0  0  0  0  0  0  0  0  0
  1  2  1  0  0  0  0
  2  3  2  0  0  0  0
  2  9  1  0  0  0  0
  3  7  1  0  0  0  0
  4  3  1  0  0  0  0
  5  4  2  0  0  0  0
  6  5  1  0  0  0  0
  6  1  2  0  0  0  0
  8  5  1  0  0  0  0
  9 15  1  0  0  0  0
 10 11  2  0  0  0  0
 10  9  1  0  0  0  0
 11 12  1  0  0  0  0
 12 13  2  0  0  0  0
 12 14  1  0  0  0  0
 14 19  1  0  0  0  0
 15 14  1  0  0  0  0
 15 16  2  0  0  0  0
 17 10  1  0  0  0  0
 18 11  1  0  0  0  0
 20  1  1  6  0  0  0
 20 26  1  0  0  0  0
 21 23  1  0  0  0  0
 21 20  1  0  0  0  0
 22 21  1  0  0  0  0
 23 25  1  0  0  0  0
 24 23  1  0  0  0  0
 25 26  1  0  0  0  0
 26 27  1  0  0  0  0
M  END
>  <minimizedAffinity>
-4.76426792

$$$$

 OpenBabel03272507513D

 27 29  0  0  1  0  0  0  0  0999 V2000
   37.9690   24.6090   33.7020 C   0  0  0  0  0  0  0  0  0  0  0  0
   38.4960   23.3100   33.6250 C   0  0  0  0  0  0  0  0  0  0  0  0
   38.1520   22.5610   32.4880 C   0  0  0  0  0  0  0  0  0  0  0  0
   37.3510   23.1140   31.5450 N   0  0  0  0  0  0  0  0  0  0  0  0
   36.8660   24.3580   31.6520 C   0  0  0  0  0  0  0  0  0  0  0  0
   37.1780   25.1090   32.7380 N   0  0  0  0  0  0  0  0  0  0  0  0
   38.5610   21.5610   32.4350 H   0  0  0  0  0  0  0  0  0  0  0  0
   36.2400   24.6740   30.8290 H   0  0  0  0  0  0  0  0  0  0  0  0
   39.3250   22.8390   34.6740 N   0  0  0  0  0  0  0  0  0  0  0  0
   40.6570   22.9480   34.6260 C   0  0  0  0  0  0  0  0  0  0  0  0
   41.4410   22.4780   35.6820 C   0  0  0  0  0  0  0  0  0  0  0  0
   40.7120   21.9280   36.7050 C   0  0  0  0  0  0  0  0  0  0  0  0
   41.4030   21.4890   37.6880 O   0  0  0  0  0  0  0  0  0  0  0  0
   39.3850   21.8020   36.7870 N   0  0  0  0  0  0  0  0  0  0  0  0
   38.6810   22.2790   35.7270 C   0  0  0  0  0  0  0  0  0  0  0  0
   37.4180   22.1650   35.7890 O   0  0  0  0  0  0  0  0  0  0  0  0
   41.1720   23.3960   33.7760 H   0  0  0  0  0  0  0  0  0  0  0  0
   42.5210   22.5360   35.7060 H   0  0  0  0  0  0  0  0  0  0  0  0
   38.9410   21.3630   37.6230 H   0  0  0  0  0  0  0  0  0  0  0  0
   38.2170   25.5230   34.8150 C   0  0  2  0  0  3  0  0  0  0  0  0
   37.0920   26.5380   34.9910 C   0  0  0  0  0  3  0  0  0  0  0  0
   36.4160   26.2290   35.8100 H   0  0  0  0  0  0  0  0  0  0  0  0
   37.8520   27.7640   35.4320 C   0  0  0  0  0  3  0  0  0  0  0  0
   37.8750   28.5670   34.6580 H   0  0  0  0  0  0  0  0  0  0  0  0
   39.1840   27.3660   35.6260 O   0  0  0  0  0  0  0  0  0  0  0  0
   39.3940   26.4390   34.5830 C   0  0  0  0  0  3  0  0  0  0  0  0
   40.3680   25.9450   34.7380 H   0  0  0  0  0  0  0  0  0  0  0  0
  2  1  1  0  0  0  0
  2  9  1  0  0  0  0
  3  2  2  0  0  0  0
  4  5  2  0  0  0  0
  4  3  1  0  0  0  0
  5  6  1  0  0  0  0
  6  1  2  0  0  0  0
  7  3  1  0  0  0  0
  8  5  1  0  0  0  0
  9 15  1  0  0  0  0
 10  9  1  0  0  0  0
 10 11  2  0  0  0  0
 11 18  1  0  0  0  0
 11 12  1  0  0  0  0
 12 14  1  0  0  0  0
 12 13  2  0  0  0  0
 14 19  1  0  0  0  0
 15 16  2  0  0  0  0
 15 14  1  0  0  0  0
 17 10  1  0  0  0  0
 20  1  1  6  0  0  0
 20 21  1  0  0  0  0
 21 23  1  0  0  0  0
 21 22  1  0  0  0  0
 23 25  1  0  0  0  0
 24 23  1  0  0  0  0
 26 27  1  0  0  0  0
 26 20  1  0  0  0  0
 26 25  1  0  0  0  0
M  END
>  <minimizedAffinity>
-4.71570969

$$$$

 OpenBabel03272507513D

 27 29  0  0  1  0  0  0  0  0999 V2000
   37.9680   25.2220   33.1210 C   0  0  0  0  0  0  0  0  0  0  0  0
   37.7530   25.1100   31.7380 C   0  0  0  0  0  0  0  0  0  0  0  0
   37.5800   23.8110   31.2340 C   0  0  0  0  0  0  0  0  0  0  0  0
   37.6260   22.7570   32.0840 N   0  0  0  0  0  0  0  0  0  0  0  0
   37.8320   22.9010   33.4000 C   0  0  0  0  0  0  0  0  0  0  0  0
   38.0040   24.1430   33.9200 N   0  0  0  0  0  0  0  0  0  0  0  0
   37.4160   23.7320   30.1680 H   0  0  0  0  0  0  0  0  0  0  0  0
   37.8450   21.9770   33.9620 H   0  0  0  0  0  0  0  0  0  0  0  0
   37.7260   26.2870   30.9480 N   0  0  0  0  0  0  0  0  0  0  0  0
   38.8380   26.8150   30.4260 C   0  0  0  0  0  0  0  0  0  0  0  0
   38.7700   27.9730   29.6480 C   0  0  0  0  0  0  0  0  0  0  0  0
   37.4990   28.4630   29.5010 C   0  0  0  0  0  0  0  0  0  0  0  0
   37.4040   29.5240   28.7920 O   0  0  0  0  0  0  0  0  0  0  0  0
   36.3670   27.9650   30.0070 N   0  0  0  0  0  0  0  0  0  0  0  0
   36.5020   26.8370   30.7550 C   0  0  0  0  0  0  0  0  0  0  0  0
   35.4360   26.3530   31.2440 O   0  0  0  0  0  0  0  0  0  0  0  0
   39.8210   26.3720   30.5870 H   0  0  0  0  0  0  0  0  0  0  0  0
   39.6310   28.4490   29.1970 H   0  0  0  0  0  0  0  0  0  0  0  0
   35.4510   28.4290   29.8250 H   0  0  0  0  0  0  0  0  0  0  0  0
   38.1750   26.4920   33.8120 C   0  0  2  0  0  3  0  0  0  0  0  0
   39.2400   26.3930   34.9000 C   0  0  0  0  0  3  0  0  0  0  0  0
   40.2030   26.7960   34.5380 H   0  0  0  0  0  0  0  0  0  0  0  0
   38.6930   27.3260   35.9510 C   0  0  0  0  0  3  0  0  0  0  0  0
   38.3260   26.7940   36.8610 H   0  0  0  0  0  0  0  0  0  0  0  0
   37.5740   27.9590   35.3870 O   0  0  0  0  0  0  0  0  0  0  0  0
   36.9800   26.9320   34.6230 C   0  0  0  0  0  3  0  0  0  0  0  0
   36.1730   27.3680   34.0090 H   0  0  0  0  0  0  0  0  0  0  0  0
  1  6  1  0  0  0  0
  2  1  2  0  0  0  0
  3  2  1  0  0  0  0
  3  4  2  0  0  0  0
  4  5  1  0  0  0  0
  5  6  2  0  0  0  0
  5  8  1  0  0  0  0
  7  3  1  0  0  0  0
  9  2  1  0  0  0  0
 10 17  1  0  0  0  0
 10  9  1  0  0  0  0
 11 10  2  0  0  0  0
 12 11  1  0  0  0  0
 12 14  1  0  0  0  0
 13 12  2  0  0  0  0
 14 15  1  0  0  0  0
 15  9  1  0  0  0  0
 15 16  2  0  0  0  0
 18 11  1  0  0  0  0
 19 14  1  0  0  0  0
 20  1  1  1  0  0  0
 20 26  1  0  0  0  0
 20 21  1  0  0  0  0
 21 23  1  0  0  0  0
 22 21  1  0  0  0  0
 23 24  1  0  0  0  0
 25 23  1  0  0  0  0
 26 25  1  0  0  0  0
 27 26  1  0  0  0  0
M  END
>  <minimizedAffinity>
-4.62343884

$$$$

 OpenBabel03272507513D

 27 29  0  0  1  0  0  0  0  0999 V2000
   39.7940   24.6710   35.2270 C   0  0  0  0  0  0  0  0  0  0  0  0
   39.9200   25.9590   34.6810 C   0  0  0  0  0  0  0  0  0  0  0  0
   41.2270   26.4340   34.4930 C   0  0  0  0  0  0  0  0  0  0  0  0
   42.2760   25.6490   34.8380 N   0  0  0  0  0  0  0  0  0  0  0  0
   42.1190   24.4240   35.3570 C   0  0  0  0  0  0  0  0  0  0  0  0
   40.8690   23.9340   35.5520 N   0  0  0  0  0  0  0  0  0  0  0  0
   41.3170   27.4270   34.0730 H   0  0  0  0  0  0  0  0  0  0  0  0
   43.0400   23.9060   35.5870 H   0  0  0  0  0  0  0  0  0  0  0  0
   38.7470   26.6870   34.3580 N   0  0  0  0  0  0  0  0  0  0  0  0
   38.1050   27.4310   35.2650 C   0  0  0  0  0  0  0  0  0  0  0  0
   36.9550   28.1390   34.9080 C   0  0  0  0  0  0  0  0  0  0  0  0
   36.5980   27.9810   33.5940 C   0  0  0  0  0  0  0  0  0  0  0  0
   35.5480   28.6190   33.2370 O   0  0  0  0  0  0  0  0  0  0  0  0
   37.2120   27.2480   32.6620 N   0  0  0  0  0  0  0  0  0  0  0  0
   38.3250   26.5830   33.0740 C   0  0  0  0  0  0  0  0  0  0  0  0
   38.9200   25.8810   32.2000 O   0  0  0  0  0  0  0  0  0  0  0  0
   38.4450   27.5080   36.2980 H   0  0  0  0  0  0  0  0  0  0  0  0
   36.3900   28.7590   35.5920 H   0  0  0  0  0  0  0  0  0  0  0  0
   36.8440   27.2050   31.6870 H   0  0  0  0  0  0  0  0  0  0  0  0
   38.5130   24.0230   35.4970 C   0  0  2  0  0  3  0  0  0  0  0  0
   38.0460   24.2390   36.9330 C   0  0  0  0  0  3  0  0  0  0  0  0
   37.2880   25.0420   36.9770 H   0  0  0  0  0  0  0  0  0  0  0  0
   37.3700   22.9250   37.2360 C   0  0  0  0  0  3  0  0  0  0  0  0
   37.9360   22.3000   37.9680 H   0  0  0  0  0  0  0  0  0  0  0  0
   37.3440   22.1970   36.0360 O   0  0  0  0  0  0  0  0  0  0  0  0
   38.5850   22.5160   35.4440 C   0  0  0  0  0  3  0  0  0  0  0  0
   38.6000   22.1160   34.4150 H   0  0  0  0  0  0  0  0  0  0  0  0
  1  6  1  0  0  0  0
  2  1  2  0  0  0  0
  3  2  1  0  0  0  0
  3  4  2  0  0  0  0
  4  5  1  0  0  0  0
  5  6  2  0  0  0  0
  5  8  1  0  0  0  0
  7  3  1  0  0  0  0
  9  2  1  0  0  0  0
  9 10  1  0  0  0  0
 10 17  1  0  0  0  0
 11 10  2  0  0  0  0
 11 18  1  0  0  0  0
 12 11  1  0  0  0  0
 13 12  2  0  0  0  0
 14 15  1  0  0  0  0
 14 12  1  0  0  0  0
 15  9  1  0  0  0  0
 16 15  2  0  0  0  0
 19 14  1  0  0  0  0
 20  1  1  1  0  0  0
 20 21  1  0  0  0  0
 21 22  1  0  0  0  0
 21 23  1  0  0  0  0
 23 24  1  0  0  0  0
 25 23  1  0  0  0  0
 26 20  1  0  0  0  0
 26 25  1  0  0  0  0
 27 26  1  0  0  0  0
M  END
>  <minimizedAffinity>
-4.50350809

$$$$

 OpenBabel03272507513D

 27 29  0  0  1  0  0  0  0  0999 V2000
   33.7470   30.4770   35.3250 C   0  0  0  0  0  0  0  0  0  0  0  0
   35.0510   30.6300   34.8270 C   0  0  0  0  0  0  0  0  0  0  0  0
   35.8830   31.5280   35.5140 C   0  0  0  0  0  0  0  0  0  0  0  0
   35.4000   32.1860   36.5960 N   0  0  0  0  0  0  0  0  0  0  0  0
   34.1490   32.0160   37.0440 C   0  0  0  0  0  0  0  0  0  0  0  0
   33.3190   31.1550   36.4030 N   0  0  0  0  0  0  0  0  0  0  0  0
   36.8860   31.6410   35.1250 H   0  0  0  0  0  0  0  0  0  0  0  0
   33.8950   32.6030   37.9160 H   0  0  0  0  0  0  0  0  0  0  0  0
   35.4430   29.8860   33.6860 N   0  0  0  0  0  0  0  0  0  0  0  0
   36.0090   28.6790   33.7890 C   0  0  0  0  0  0  0  0  0  0  0  0
   36.3770   27.9730   32.6410 C   0  0  0  0  0  0  0  0  0  0  0  0
   36.0990   28.6370   31.4750 C   0  0  0  0  0  0  0  0  0  0  0  0
   36.4250   28.0150   30.4050 O   0  0  0  0  0  0  0  0  0  0  0  0
   35.5370   29.8410   31.3330 N   0  0  0  0  0  0  0  0  0  0  0  0
   35.2030   30.4740   32.4890 C   0  0  0  0  0  0  0  0  0  0  0  0
   34.6690   31.6200   32.3710 O   0  0  0  0  0  0  0  0  0  0  0  0
   36.2050   28.2100   34.7540 H   0  0  0  0  0  0  0  0  0  0  0  0
   36.8380   26.9940   32.6550 H   0  0  0  0  0  0  0  0  0  0  0  0
   35.3750   30.2460   30.3860 H   0  0  0  0  0  0  0  0  0  0  0  0
   32.7470   29.5930   34.7310 C   0  0  2  0  0  3  0  0  0  0  0  0
   31.6130   30.3660   34.0650 C   0  0  0  0  0  3  0  0  0  0  0  0
   31.7640   30.4090   32.9710 H   0  0  0  0  0  0  0  0  0  0  0  0
   30.4270   29.4790   34.3530 C   0  0  0  0  0  3  0  0  0  0  0  0
   29.7190   29.9220   35.0930 H   0  0  0  0  0  0  0  0  0  0  0  0
   30.9310   28.3090   34.9420 O   0  0  0  0  0  0  0  0  0  0  0  0
   31.9810   28.7880   35.7540 C   0  0  0  0  0  3  0  0  0  0  0  0
   32.5490   27.9260   36.1440 H   0  0  0  0  0  0  0  0  0  0  0  0
  1  6  1  0  0  0  0
  2  1  2  0  0  0  0
  2  3  1  0  0  0  0
  3  4  2  0  0  0  0
  4  5  1  0  0  0  0
  5  8  1  0  0  0  0
  6  5  2  0  0  0  0
  7  3  1  0  0  0  0
  9 10  1  0  0  0  0
  9  2  1  0  0  0  0
 10 17  1  0  0  0  0
 11 18  1  0  0  0  0
 11 10  2  0  0  0  0
 12 11  1  0  0  0  0
 13 12  2  0  0  0  0
 14 12  1  0  0  0  0
 14 15  1  0  0  0  0
 15  9  1  0  0  0  0
 16 15  2  0  0  0  0
 19 14  1  0  0  0  0
 20  1  1  1  0  0  0
 20 26  1  0  0  0  0
 21 23  1  0  0  0  0
 21 20  1  0  0  0  0
 22 21  1  0  0  0  0
 23 25  1  0  0  0  0
 23 24  1  0  0  0  0
 25 26  1  0  0  0  0
 26 27  1  0  0  0  0
M  END
>  <minimizedAffinity>
-4.44024897

$$$$

 OpenBabel03272507513D

 27 29  0  0  1  0  0  0  0  0999 V2000
   39.4090   24.2220   34.3650 C   0  0  0  0  0  0  0  0  0  0  0  0
   39.3250   24.5940   33.0130 C   0  0  0  0  0  0  0  0  0  0  0  0
   40.5410   24.8230   32.3510 C   0  0  0  0  0  0  0  0  0  0  0  0
   41.7060   24.6780   33.0280 N   0  0  0  0  0  0  0  0  0  0  0  0
   41.7480   24.3200   34.3190 C   0  0  0  0  0  0  0  0  0  0  0  0
   40.5910   24.0920   34.9900 N   0  0  0  0  0  0  0  0  0  0  0  0
   40.4690   25.1100   31.3100 H   0  0  0  0  0  0  0  0  0  0  0  0
   42.7420   24.2410   34.7360 H   0  0  0  0  0  0  0  0  0  0  0  0
   38.0480   24.7150   32.4100 N   0  0  0  0  0  0  0  0  0  0  0  0
   37.4420   23.6770   31.8240 C   0  0  0  0  0  0  0  0  0  0  0  0
   36.1800   23.8330   31.2450 C   0  0  0  0  0  0  0  0  0  0  0  0
   35.6800   25.1050   31.3520 C   0  0  0  0  0  0  0  0  0  0  0  0
   34.5250   25.2800   30.8310 O   0  0  0  0  0  0  0  0  0  0  0  0
   36.2550   26.1650   31.9280 N   0  0  0  0  0  0  0  0  0  0  0  0
   37.4820   25.9450   32.4720 C   0  0  0  0  0  0  0  0  0  0  0  0
   38.0420   26.9420   33.0220 O   0  0  0  0  0  0  0  0  0  0  0  0
   37.9020   22.6900   31.7730 H   0  0  0  0  0  0  0  0  0  0  0  0
   35.6360   23.0360   30.7560 H   0  0  0  0  0  0  0  0  0  0  0  0
   35.7740   27.0890   31.9470 H   0  0  0  0  0  0  0  0  0  0  0  0
   38.2470   23.9530   35.2080 C   0  0  2  0  0  3  0  0  0  0  0  0
   38.1820   24.8800   36.4180 C   0  0  0  0  0  3  0  0  0  0  0  0
   37.4650   25.7020   36.2390 H   0  0  0  0  0  0  0  0  0  0  0  0
   37.6120   23.9670   37.4750 C   0  0  0  0  0  3  0  0  0  0  0  0
   38.3530   23.6920   38.2630 H   0  0  0  0  0  0  0  0  0  0  0  0
   37.2650   22.7690   36.8290 O   0  0  0  0  0  0  0  0  0  0  0  0
   38.3010   22.6050   35.8850 C   0  0  0  0  0  3  0  0  0  0  0  0
   38.0400   21.7690   35.2130 H   0  0  0  0  0  0  0  0  0  0  0  0
  1  6  1  0  0  0  0
  2  1  2  0  0  0  0
  3  2  1  0  0  0  0
  3  4  2  0  0  0  0
  4  5  1  0  0  0  0
  5  8  1  0  0  0  0
  5  6  2  0  0  0  0
  7  3  1  0  0  0  0
  9 15  1  0  0  0  0
  9  2  1  0  0  0  0
 10  9  1  0  0  0  0
 11 12  1  0  0  0  0
 11 10  2  0  0  0  0
 12 14  1  0  0  0  0
 13 12  2  0  0  0  0
 14 19  1  0  0  0  0
 14 15  1  0  0  0  0
 15 16  2  0  0  0  0
 17 10  1  0  0  0  0
 18 11  1  0  0  0  0
 20  1  1  1  0  0  0
 20 26  1  0  0  0  0
 20 21  1  0  0  0  0
 21 23  1  0  0  0  0
 22 21  1  0  0  0  0
 23 24  1  0  0  0  0
 25 23  1  0  0  0  0
 26 25  1  0  0  0  0
 27 26  1  0  0  0  0
M  END
>  <minimizedAffinity>
-4.41695452

$$$$

 OpenBabel03272507513D

 27 29  0  0  1  0  0  0  0  0999 V2000
   37.3950   25.6980   33.4240 C   0  0  0  0  0  0  0  0  0  0  0  0
   37.8570   25.8680   34.7390 C   0  0  0  0  0  0  0  0  0  0  0  0
   37.6150   27.1180   35.3300 C   0  0  0  0  0  0  0  0  0  0  0  0
   36.9650   28.0740   34.6230 N   0  0  0  0  0  0  0  0  0  0  0  0
   36.5370   27.8760   33.3690 C   0  0  0  0  0  0  0  0  0  0  0  0
   36.7540   26.6800   32.7670 N   0  0  0  0  0  0  0  0  0  0  0  0
   37.9750   27.2420   36.3430 H   0  0  0  0  0  0  0  0  0  0  0  0
   36.0340   28.7220   32.9230 H   0  0  0  0  0  0  0  0  0  0  0  0
   38.5250   24.7930   35.3780 N   0  0  0  0  0  0  0  0  0  0  0  0
   37.8710   23.8990   36.1260 C   0  0  0  0  0  0  0  0  0  0  0  0
   38.5630   22.8500   36.7360 C   0  0  0  0  0  0  0  0  0  0  0  0
   39.9100   22.8590   36.4820 C   0  0  0  0  0  0  0  0  0  0  0  0
   40.5710   21.9090   37.0260 O   0  0  0  0  0  0  0  0  0  0  0  0
   40.5960   23.7340   35.7420 N   0  0  0  0  0  0  0  0  0  0  0  0
   39.8640   24.7300   35.1770 C   0  0  0  0  0  0  0  0  0  0  0  0
   40.5020   25.5700   34.4710 O   0  0  0  0  0  0  0  0  0  0  0  0
   36.7940   23.9560   36.2890 H   0  0  0  0  0  0  0  0  0  0  0  0
   38.0940   22.0940   37.3530 H   0  0  0  0  0  0  0  0  0  0  0  0
   41.6280   23.6370   35.6190 H   0  0  0  0  0  0  0  0  0  0  0  0
   37.5650   24.4680   32.6530 C   0  0  2  0  0  3  0  0  0  0  0  0
   38.5980   24.6200   31.5410 C   0  0  0  0  0  3  0  0  0  0  0  0
   39.5660   24.1860   31.8500 H   0  0  0  0  0  0  0  0  0  0  0  0
   38.0090   23.7550   30.4550 C   0  0  0  0  0  3  0  0  0  0  0  0
   37.6210   24.3430   29.5890 H   0  0  0  0  0  0  0  0  0  0  0  0
   36.8990   23.1030   31.0150 O   0  0  0  0  0  0  0  0  0  0  0  0
   36.3410   24.0900   31.8550 C   0  0  0  0  0  3  0  0  0  0  0  0
   35.5470   23.6270   32.4670 H   0  0  0  0  0  0  0  0  0  0  0  0
  1  2  1  0  0  0  0
  2  3  2  0  0  0  0
  2  9  1  0  0  0  0
  3  7  1  0  0  0  0
  4  3  1  0  0  0  0
  5  4  2  0  0  0  0
  6  5  1  0  0  0  0
  6  1  2  0  0  0  0
  8  5  1  0  0  0  0
  9 10  1  0  0  0  0
 10 17  1  0  0  0  0
 10 11  2  0  0  0  0
 11 18  1  0  0  0  0
 12 11  1  0  0  0  0
 12 13  2  0  0  0  0
 14 12  1  0  0  0  0
 15  9  1  0  0  0  0
 15 14  1  0  0  0  0
 16 15  2  0  0  0  0
 19 14  1  0  0  0  0
 20  1  1  6  0  0  0
 21 22  1  0  0  0  0
 21 20  1  0  0  0  0
 23 25  1  0  0  0  0
 23 21  1  0  0  0  0
 24 23  1  0  0  0  0
 25 26  1  0  0  0  0
 26 27  1  0  0  0  0
 26 20  1  0  0  0  0
M  END
>  <minimizedAffinity>
-4.40326738

$$$$
