
 OpenBabel03272508123D

 33 35  0  0  1  0  0  0  0  0999 V2000
   36.6740   29.4410   44.0220 Cl  0  0  0  0  0  0  0  0  0  0  0  0
   38.3140   29.8360   43.4970 C   0  0  0  0  0  0  0  0  0  0  0  0
   39.3060   30.3170   44.3540 C   0  0  0  0  0  0  0  0  0  0  0  0
   40.5590   30.5890   43.8090 C   0  0  0  0  0  0  0  0  0  0  0  0
   40.7850   30.3810   42.4690 C   0  0  0  0  0  0  0  0  0  0  0  0
   39.8320   29.9120   41.6140 C   0  0  0  0  0  0  0  0  0  0  0  0
   38.5960   29.6410   42.1370 C   0  0  0  0  0  0  0  0  0  0  0  0
   41.2490   30.9540   44.5570 H   0  0  0  0  0  0  0  0  0  0  0  0
   41.7990   30.6230   42.1360 H   0  0  0  0  0  0  0  0  0  0  0  0
   40.1000   29.7800   40.5760 H   0  0  0  0  0  0  0  0  0  0  0  0
   37.5430   29.1290   41.2210 C   0  0  2  0  0  3  0  0  0  0  0  0
   38.1270   28.4380   39.9970 C   0  0  0  0  0  3  0  0  0  0  0  0
   39.2180   28.3280   40.0330 H   0  0  0  0  0  0  0  0  0  0  0  0
   37.6660   29.3550   38.8840 C   0  0  0  0  0  3  0  0  0  0  0  0
   38.4440   29.4480   38.0840 H   0  0  0  0  0  0  0  0  0  0  0  0
   37.4220   30.5850   39.4890 O   0  0  0  0  0  0  0  0  0  0  0  0
   36.7190   30.2150   40.6330 C   0  0  0  0  0  3  0  0  0  0  0  0
   35.7800   29.7290   40.2430 H   0  0  0  0  0  0  0  0  0  0  0  0
   38.8640   30.4470   45.6410 O   0  0  0  0  0  0  0  0  0  0  0  0
   39.4390   32.5110   47.1020 O   0  0  0  0  0  0  0  0  0  0  0  0
   38.3080   31.8340   46.4160 P   0  0  1  0  0  0  0  0  0  0  0  0
   37.7100   32.8440   45.1750 O   0  0  0  0  0  0  0  0  0  0  0  0
   38.4900   33.1920   44.6600 H   0  0  0  0  0  0  0  0  0  0  0  0
   37.0240   31.4100   47.4400 O   0  0  0  0  0  0  0  0  0  0  0  0
   37.6140   30.5290   50.9840 C   0  0  0  0  0  0  0  0  0  0  0  0
   37.7070   31.3020   49.8230 C   0  0  0  0  0  0  0  0  0  0  0  0
   37.0690   30.8370   48.6640 C   0  0  0  0  0  0  0  0  0  0  0  0
   36.3930   29.6550   48.7300 N   0  0  0  0  0  0  0  0  0  0  0  0
   36.3300   28.9410   49.8710 C   0  0  0  0  0  0  0  0  0  0  0  0
   36.9360   29.3780   50.9860 N   0  0  0  0  0  0  0  0  0  0  0  0
   38.1290   30.9420   51.8500 H   0  0  0  0  0  0  0  0  0  0  0  0
   38.2220   32.2440   49.6970 H   0  0  0  0  0  0  0  0  0  0  0  0
   35.7990   28.0000   49.9470 H   0  0  0  0  0  0  0  0  0  0  0  0
  2  1  1  0  0  0  0
  2  3  1  0  0  0  0
  3 19  1  0  0  0  0
  4  3  2  0  0  0  0
  4  8  1  0  0  0  0
  5  4  1  0  0  0  0
  6  7  1  0  0  0  0
  6  5  2  0  0  0  0
  7  2  2  0  0  0  0
  9  5  1  0  0  0  0
 10  6  1  0  0  0  0
 11  7  1  1  0  0  0
 12 13  1  0  0  0  0
 12 11  1  0  0  0  0
 14 16  1  0  0  0  0
 14 12  1  0  0  0  0
 15 14  1  0  0  0  0
 16 17  1  0  0  0  0
 17 11  1  0  0  0  0
 18 17  1  0  0  0  0
 19 21  1  0  0  0  0
 21 20  2  1  0  0  0
 21 24  1  0  0  0  0
 22 21  1  0  0  0  0
 23 22  1  0  0  0  0
 24 27  1  0  0  0  0
 25 30  1  0  0  0  0
 25 31  1  0  0  0  0
 26 25  2  0  0  0  0
 27 28  2  0  0  0  0
 27 26  1  0  0  0  0
 28 29  1  0  0  0  0
 29 33  1  0  0  0  0
 29 30  2  0  0  0  0
 32 26  1  0  0  0  0
M  END
>  <minimizedAffinity>
-4.85021973

>  <minimizedRMSD>
0.349514276

$$$$
