
 OpenBabel03272506363D

 22 23  0  0  1  0  0  0  0  0999 V2000
   38.4680   22.7020   34.6930 C   0  0  0  0  0  0  0  0  0  0  0  0
   39.6930   22.9400   34.0270 C   0  0  0  0  0  0  0  0  0  0  0  0
   40.8530   23.0420   34.7660 C   0  0  0  0  0  0  0  0  0  0  0  0
   40.7510   22.9040   36.1330 N   0  0  0  0  0  0  0  0  0  0  0  0
   39.5730   22.6770   36.7510 C   0  0  0  0  0  0  0  0  0  0  0  0
   38.4550   22.5800   36.0240 N   0  0  0  0  0  0  0  0  0  0  0  0
   38.6520   23.5370   38.7750 C   0  0  0  0  0  0  0  0  0  0  0  0
   38.0040   24.4770   38.2100 O   0  0  0  0  0  0  0  0  0  0  0  0
   39.4970   22.5390   38.1700 N   0  0  0  0  0  0  0  0  0  0  0  0
   39.7810   23.0490   32.9540 H   0  0  0  0  0  0  0  0  0  0  0  0
   41.8110   23.2240   34.2950 H   0  0  0  0  0  0  0  0  0  0  0  0
   38.4080   23.6790   39.8200 H   0  0  0  0  0  0  0  0  0  0  0  0
   39.9150   21.8830   38.8280 H   0  0  0  0  0  0  0  0  0  0  0  0
   37.3890   22.6220   33.8360 O   0  0  0  0  0  0  0  0  0  0  0  0
   37.0150   21.4410   33.1590 C   0  0  2  0  0  3  0  0  0  0  0  0
   36.4470   21.8620   31.8190 C   0  0  0  0  0  3  0  0  0  0  0  0
   35.9560   22.8550   31.9570 H   0  0  0  0  0  0  0  0  0  0  0  0
   35.4310   20.7640   31.5940 C   0  0  0  0  0  3  0  0  0  0  0  0
   35.9550   19.9770   30.9820 H   0  0  0  0  0  0  0  0  0  0  0  0
   34.9920   20.3210   32.8120 O   0  0  0  0  0  0  0  0  0  0  0  0
   35.8210   20.7730   33.7990 C   0  0  0  0  0  3  0  0  0  0  0  0
   35.2970   21.5540   34.4050 H   0  0  0  0  0  0  0  0  0  0  0  0
  1  6  1  0  0  0  0
  2  1  2  0  0  0  0
  2  3  1  0  0  0  0
  3  4  2  0  0  0  0
  4  5  1  0  0  0  0
  5  9  1  0  0  0  0
  6  5  2  0  0  0  0
  7 12  1  0  0  0  0
  8  7  2  0  0  0  0
  9  7  1  0  0  0  0
  9 13  1  0  0  0  0
 10  2  1  0  0  0  0
 11  3  1  0  0  0  0
 14  1  1  0  0  0  0
 15 21  1  0  0  0  0
 15 14  1  1  0  0  0
 16 17  1  0  0  0  0
 16 15  1  0  0  0  0
 18 16  1  0  0  0  0
 18 20  1  0  0  0  0
 19 18  1  0  0  0  0
 20 21  1  0  0  0  0
 21 22  1  0  0  0  0
M  END
>  <minimizedAffinity>
-4.33016682

$$$$

 OpenBabel03272506363D

 22 23  0  0  1  0  0  0  0  0999 V2000
   38.2170   25.2660   34.8570 C   0  0  0  0  0  0  0  0  0  0  0  0
   39.5120   25.4120   34.3070 C   0  0  0  0  0  0  0  0  0  0  0  0
   40.5470   24.6500   34.8080 C   0  0  0  0  0  0  0  0  0  0  0  0
   40.2560   23.7750   35.8310 N   0  0  0  0  0  0  0  0  0  0  0  0
   39.0140   23.6490   36.3430 C   0  0  0  0  0  0  0  0  0  0  0  0
   38.0190   24.3930   35.8500 N   0  0  0  0  0  0  0  0  0  0  0  0
   38.2400   23.3940   38.5840 C   0  0  0  0  0  0  0  0  0  0  0  0
   38.0280   24.6360   38.7690 O   0  0  0  0  0  0  0  0  0  0  0  0
   38.7410   22.7340   37.4050 N   0  0  0  0  0  0  0  0  0  0  0  0
   39.7480   26.0970   33.5040 H   0  0  0  0  0  0  0  0  0  0  0  0
   41.5530   24.7330   34.4160 H   0  0  0  0  0  0  0  0  0  0  0  0
   37.9500   22.9620   39.5340 H   0  0  0  0  0  0  0  0  0  0  0  0
   38.8280   21.7230   37.4910 H   0  0  0  0  0  0  0  0  0  0  0  0
   37.2780   26.0870   34.2650 O   0  0  0  0  0  0  0  0  0  0  0  0
   37.3060   26.4470   32.9010 C   0  0  2  0  0  3  0  0  0  0  0  0
   36.5660   27.7640   32.7780 C   0  0  0  0  0  3  0  0  0  0  0  0
   35.7680   27.7780   33.5590 H   0  0  0  0  0  0  0  0  0  0  0  0
   35.9840   27.6240   31.3880 C   0  0  0  0  0  3  0  0  0  0  0  0
   36.7200   28.1170   30.6930 H   0  0  0  0  0  0  0  0  0  0  0  0
   35.7820   26.2930   31.1330 O   0  0  0  0  0  0  0  0  0  0  0  0
   36.4480   25.5360   32.0540 C   0  0  0  0  0  3  0  0  0  0  0  0
   35.7150   25.0480   32.7430 H   0  0  0  0  0  0  0  0  0  0  0  0
  1  6  1  0  0  0  0
  2  3  1  0  0  0  0
  2  1  2  0  0  0  0
  3  4  2  0  0  0  0
  4  5  1  0  0  0  0
  5  9  1  0  0  0  0
  6  5  2  0  0  0  0
  7  8  2  0  0  0  0
  7 12  1  0  0  0  0
  9 13  1  0  0  0  0
  9  7  1  0  0  0  0
 10  2  1  0  0  0  0
 11  3  1  0  0  0  0
 14  1  1  0  0  0  0
 15 14  1  1  0  0  0
 16 15  1  0  0  0  0
 16 17  1  0  0  0  0
 18 16  1  0  0  0  0
 19 18  1  0  0  0  0
 20 18  1  0  0  0  0
 20 21  1  0  0  0  0
 21 22  1  0  0  0  0
 21 15  1  0  0  0  0
M  END
>  <minimizedAffinity>
-4.25400543

$$$$

 OpenBabel03272506363D

 22 23  0  0  1  0  0  0  0  0999 V2000
   38.3030   26.2030   35.0830 C   0  0  0  0  0  0  0  0  0  0  0  0
   39.5790   26.7380   34.7930 C   0  0  0  0  0  0  0  0  0  0  0  0
   39.8670   27.1340   33.5040 C   0  0  0  0  0  0  0  0  0  0  0  0
   38.8790   26.9830   32.5560 N   0  0  0  0  0  0  0  0  0  0  0  0
   37.6660   26.4700   32.8510 C   0  0  0  0  0  0  0  0  0  0  0  0
   37.3990   26.0900   34.1050 N   0  0  0  0  0  0  0  0  0  0  0  0
   36.2560   24.9530   31.6720 C   0  0  0  0  0  0  0  0  0  0  0  0
   36.6760   23.9160   32.2800 O   0  0  0  0  0  0  0  0  0  0  0  0
   36.6610   26.3240   31.8490 N   0  0  0  0  0  0  0  0  0  0  0  0
   40.3600   26.8600   35.5320 H   0  0  0  0  0  0  0  0  0  0  0  0
   40.8320   27.5480   33.2400 H   0  0  0  0  0  0  0  0  0  0  0  0
   35.5200   24.5430   30.9910 H   0  0  0  0  0  0  0  0  0  0  0  0
   36.1800   26.9880   31.2440 H   0  0  0  0  0  0  0  0  0  0  0  0
   38.1490   25.8480   36.4090 O   0  0  0  0  0  0  0  0  0  0  0  0
   37.9620   24.5180   36.8430 C   0  0  2  0  0  3  0  0  0  0  0  0
   37.9390   24.5490   38.3580 C   0  0  0  0  0  3  0  0  0  0  0  0
   38.6100   25.3780   38.6900 H   0  0  0  0  0  0  0  0  0  0  0  0
   38.5320   23.1920   38.6700 C   0  0  0  0  0  3  0  0  0  0  0  0
   37.6580   22.4940   38.7970 H   0  0  0  0  0  0  0  0  0  0  0  0
   39.3800   22.8440   37.6530 O   0  0  0  0  0  0  0  0  0  0  0  0
   39.1730   23.6570   36.5750 C   0  0  0  0  0  3  0  0  0  0  0  0
   40.0430   24.3490   36.4520 H   0  0  0  0  0  0  0  0  0  0  0  0
  1 14  1  0  0  0  0
  2  1  1  0  0  0  0
  2 10  1  0  0  0  0
  3  2  2  0  0  0  0
  4  5  2  0  0  0  0
  4  3  1  0  0  0  0
  5  6  1  0  0  0  0
  6  1  2  0  0  0  0
  7  9  1  0  0  0  0
  7  8  2  0  0  0  0
  9  5  1  0  0  0  0
 11  3  1  0  0  0  0
 12  7  1  0  0  0  0
 13  9  1  0  0  0  0
 15 14  1  6  0  0  0
 15 16  1  0  0  0  0
 16 18  1  0  0  0  0
 16 17  1  0  0  0  0
 18 19  1  0  0  0  0
 20 18  1  0  0  0  0
 21 15  1  0  0  0  0
 21 20  1  0  0  0  0
 22 21  1  0  0  0  0
M  END
>  <minimizedAffinity>
-4.2325964

$$$$

 OpenBabel03272506363D

 22 23  0  0  1  0  0  0  0  0999 V2000
   39.2550   25.5700   35.1200 C   0  0  0  0  0  0  0  0  0  0  0  0
   40.6020   25.2770   34.8040 C   0  0  0  0  0  0  0  0  0  0  0  0
   41.1770   24.1270   35.3040 C   0  0  0  0  0  0  0  0  0  0  0  0
   40.3940   23.3170   36.0960 N   0  0  0  0  0  0  0  0  0  0  0  0
   39.1100   23.6130   36.3870 C   0  0  0  0  0  0  0  0  0  0  0  0
   38.5640   24.7300   35.8960 N   0  0  0  0  0  0  0  0  0  0  0  0
   37.8540   23.4140   38.4030 C   0  0  0  0  0  0  0  0  0  0  0  0
   38.0590   24.6140   38.7800 O   0  0  0  0  0  0  0  0  0  0  0  0
   38.3220   22.7540   37.2110 N   0  0  0  0  0  0  0  0  0  0  0  0
   41.2240   25.9090   34.1830 H   0  0  0  0  0  0  0  0  0  0  0  0
   42.2060   23.8670   35.0860 H   0  0  0  0  0  0  0  0  0  0  0  0
   37.2430   23.0180   39.2050 H   0  0  0  0  0  0  0  0  0  0  0  0
   38.0280   21.7830   37.1230 H   0  0  0  0  0  0  0  0  0  0  0  0
   38.8070   26.7480   34.5560 O   0  0  0  0  0  0  0  0  0  0  0  0
   37.5750   26.8680   33.8770 C   0  0  2  0  0  3  0  0  0  0  0  0
   37.8760   27.4860   32.5260 C   0  0  0  0  0  3  0  0  0  0  0  0
   38.7520   28.1670   32.6530 H   0  0  0  0  0  0  0  0  0  0  0  0
   36.5970   28.2600   32.2880 C   0  0  0  0  0  3  0  0  0  0  0  0
   35.9310   27.5800   31.6870 H   0  0  0  0  0  0  0  0  0  0  0  0
   36.0760   28.6230   33.5010 O   0  0  0  0  0  0  0  0  0  0  0  0
   36.6830   27.9160   34.4990 C   0  0  0  0  0  3  0  0  0  0  0  0
   37.3440   28.5950   35.0940 H   0  0  0  0  0  0  0  0  0  0  0  0
  1  6  1  0  0  0  0
  2  1  2  0  0  0  0
  2  3  1  0  0  0  0
  3  4  2  0  0  0  0
  4  5  1  0  0  0  0
  5  9  1  0  0  0  0
  6  5  2  0  0  0  0
  7  8  2  0  0  0  0
  7 12  1  0  0  0  0
  9  7  1  0  0  0  0
 10  2  1  0  0  0  0
 11  3  1  0  0  0  0
 13  9  1  0  0  0  0
 14  1  1  0  0  0  0
 15 21  1  0  0  0  0
 15 14  1  1  0  0  0
 16 17  1  0  0  0  0
 16 15  1  0  0  0  0
 18 16  1  0  0  0  0
 18 20  1  0  0  0  0
 19 18  1  0  0  0  0
 20 21  1  0  0  0  0
 21 22  1  0  0  0  0
M  END
>  <minimizedAffinity>
-4.18921185

$$$$

 OpenBabel03272506363D

 22 23  0  0  1  0  0  0  0  0999 V2000
   36.4130   23.9410   32.0100 C   0  0  0  0  0  0  0  0  0  0  0  0
   35.3500   24.2930   31.1450 C   0  0  0  0  0  0  0  0  0  0  0  0
   35.1030   25.6260   30.8900 C   0  0  0  0  0  0  0  0  0  0  0  0
   35.9190   26.5530   31.5020 N   0  0  0  0  0  0  0  0  0  0  0  0
   36.9270   26.1980   32.3250 C   0  0  0  0  0  0  0  0  0  0  0  0
   37.1570   24.9020   32.5640 N   0  0  0  0  0  0  0  0  0  0  0  0
   37.6950   27.1200   34.3840 C   0  0  0  0  0  0  0  0  0  0  0  0
   37.0180   26.3300   35.1190 O   0  0  0  0  0  0  0  0  0  0  0  0
   37.7560   27.1800   32.9460 N   0  0  0  0  0  0  0  0  0  0  0  0
   34.7060   23.5710   30.6610 H   0  0  0  0  0  0  0  0  0  0  0  0
   34.3000   25.9380   30.2350 H   0  0  0  0  0  0  0  0  0  0  0  0
   38.2100   27.7340   35.1140 H   0  0  0  0  0  0  0  0  0  0  0  0
   38.3730   27.9030   32.5790 H   0  0  0  0  0  0  0  0  0  0  0  0
   36.5490   22.5770   32.1780 O   0  0  0  0  0  0  0  0  0  0  0  0
   35.6640   21.6300   31.6180 C   0  0  2  0  0  3  0  0  0  0  0  0
   35.1530   20.7750   32.7600 C   0  0  0  0  0  3  0  0  0  0  0  0
   35.9660   20.7090   33.5230 H   0  0  0  0  0  0  0  0  0  0  0  0
   34.9480   19.4570   32.0460 C   0  0  0  0  0  3  0  0  0  0  0  0
   33.8700   19.4440   31.7220 H   0  0  0  0  0  0  0  0  0  0  0  0
   35.8420   19.3780   31.0120 O   0  0  0  0  0  0  0  0  0  0  0  0
   36.3860   20.6080   30.7720 C   0  0  0  0  0  3  0  0  0  0  0  0
   37.4570   20.6170   31.0960 H   0  0  0  0  0  0  0  0  0  0  0  0
  1 14  1  0  0  0  0
  1  6  1  0  0  0  0
  2  1  2  0  0  0  0
  3  2  1  0  0  0  0
  3  4  2  0  0  0  0
  4  5  1  0  0  0  0
  5  6  2  0  0  0  0
  5  9  1  0  0  0  0
  7 12  1  0  0  0  0
  7  8  2  0  0  0  0
  9  7  1  0  0  0  0
 10  2  1  0  0  0  0
 11  3  1  0  0  0  0
 13  9  1  0  0  0  0
 15 14  1  1  0  0  0
 15 16  1  0  0  0  0
 16 17  1  0  0  0  0
 18 16  1  0  0  0  0
 19 18  1  0  0  0  0
 20 18  1  0  0  0  0
 21 20  1  0  0  0  0
 21 22  1  0  0  0  0
 21 15  1  0  0  0  0
M  END
>  <minimizedAffinity>
-4.17860794

$$$$

 OpenBabel03272506363D

 22 23  0  0  1  0  0  0  0  0999 V2000
   39.6170   22.3180   35.1180 C   0  0  0  0  0  0  0  0  0  0  0  0
   41.0300   22.2810   35.0740 C   0  0  0  0  0  0  0  0  0  0  0  0
   41.7450   22.4370   36.2430 C   0  0  0  0  0  0  0  0  0  0  0  0
   41.0300   22.6220   37.4060 N   0  0  0  0  0  0  0  0  0  0  0  0
   39.6820   22.6550   37.4290 C   0  0  0  0  0  0  0  0  0  0  0  0
   39.0000   22.5030   36.2890 N   0  0  0  0  0  0  0  0  0  0  0  0
   38.1480   24.0340   38.6230 C   0  0  0  0  0  0  0  0  0  0  0  0
   38.0030   24.8800   37.6810 O   0  0  0  0  0  0  0  0  0  0  0  0
   38.9670   22.8490   38.6490 N   0  0  0  0  0  0  0  0  0  0  0  0
   41.5980   22.1360   34.1640 H   0  0  0  0  0  0  0  0  0  0  0  0
   42.8280   22.4160   36.2520 H   0  0  0  0  0  0  0  0  0  0  0  0
   37.5020   24.4330   39.3970 H   0  0  0  0  0  0  0  0  0  0  0  0
   38.9220   22.3230   39.5200 H   0  0  0  0  0  0  0  0  0  0  0  0
   39.0290   22.1500   33.8800 O   0  0  0  0  0  0  0  0  0  0  0  0
   37.6830   22.4750   33.6060 C   0  0  2  0  0  3  0  0  0  0  0  0
   37.2020   21.5030   32.5470 C   0  0  0  0  0  3  0  0  0  0  0  0
   38.0760   21.2470   31.9010 H   0  0  0  0  0  0  0  0  0  0  0  0
   36.2010   22.3700   31.8130 C   0  0  0  0  0  3  0  0  0  0  0  0
   35.2010   22.1550   32.2840 H   0  0  0  0  0  0  0  0  0  0  0  0
   36.5970   23.6760   31.9180 O   0  0  0  0  0  0  0  0  0  0  0  0
   37.5520   23.7970   32.8880 C   0  0  0  0  0  3  0  0  0  0  0  0
   38.5440   24.0110   32.4170 H   0  0  0  0  0  0  0  0  0  0  0  0
  1  6  1  0  0  0  0
  2  1  2  0  0  0  0
  2  3  1  0  0  0  0
  3 11  1  0  0  0  0
  3  4  2  0  0  0  0
  4  5  1  0  0  0  0
  5  9  1  0  0  0  0
  6  5  2  0  0  0  0
  7  9  1  0  0  0  0
  7 12  1  0  0  0  0
  8  7  2  0  0  0  0
  9 13  1  0  0  0  0
 10  2  1  0  0  0  0
 14  1  1  0  0  0  0
 15 14  1  6  0  0  0
 16 15  1  0  0  0  0
 17 16  1  0  0  0  0
 18 20  1  0  0  0  0
 18 19  1  0  0  0  0
 18 16  1  0  0  0  0
 20 21  1  0  0  0  0
 21 15  1  0  0  0  0
 22 21  1  0  0  0  0
M  END
>  <minimizedAffinity>
-4.11667633

$$$$

 OpenBabel03272506363D

 22 23  0  0  1  0  0  0  0  0999 V2000
   38.3450   24.6440   36.3760 C   0  0  0  0  0  0  0  0  0  0  0  0
   37.9600   24.2600   37.6810 C   0  0  0  0  0  0  0  0  0  0  0  0
   38.7200   23.3340   38.3640 C   0  0  0  0  0  0  0  0  0  0  0  0
   39.8300   22.8270   37.7250 N   0  0  0  0  0  0  0  0  0  0  0  0
   40.1820   23.2050   36.4790 C   0  0  0  0  0  0  0  0  0  0  0  0
   39.4370   24.1040   35.8270 N   0  0  0  0  0  0  0  0  0  0  0  0
   41.0170   21.9650   34.6220 C   0  0  0  0  0  0  0  0  0  0  0  0
   39.8750   21.7900   34.0840 O   0  0  0  0  0  0  0  0  0  0  0  0
   41.3390   22.6620   35.8400 N   0  0  0  0  0  0  0  0  0  0  0  0
   37.0890   24.6540   38.1900 H   0  0  0  0  0  0  0  0  0  0  0  0
   38.4590   23.0130   39.3650 H   0  0  0  0  0  0  0  0  0  0  0  0
   41.6800   21.4570   33.9320 H   0  0  0  0  0  0  0  0  0  0  0  0
   42.3300   22.6710   36.0730 H   0  0  0  0  0  0  0  0  0  0  0  0
   37.4980   25.5750   35.8090 O   0  0  0  0  0  0  0  0  0  0  0  0
   37.8220   26.3250   34.6580 C   0  0  2  0  0  3  0  0  0  0  0  0
   37.0090   27.6020   34.7210 C   0  0  0  0  0  3  0  0  0  0  0  0
   36.0470   27.3650   35.2360 H   0  0  0  0  0  0  0  0  0  0  0  0
   36.8000   27.8680   33.2450 C   0  0  0  0  0  3  0  0  0  0  0  0
   37.6300   28.5620   32.9350 H   0  0  0  0  0  0  0  0  0  0  0  0
   36.7990   26.6690   32.5830 O   0  0  0  0  0  0  0  0  0  0  0  0
   37.2920   25.6880   33.3950 C   0  0  0  0  0  3  0  0  0  0  0  0
   36.4640   25.0000   33.7020 H   0  0  0  0  0  0  0  0  0  0  0  0
  1  2  1  0  0  0  0
  2 10  1  0  0  0  0
  2  3  2  0  0  0  0
  3 11  1  0  0  0  0
  4  3  1  0  0  0  0
  5  4  2  0  0  0  0
  6  1  2  0  0  0  0
  6  5  1  0  0  0  0
  7  9  1  0  0  0  0
  8  7  2  0  0  0  0
  9 13  1  0  0  0  0
  9  5  1  0  0  0  0
 12  7  1  0  0  0  0
 14  1  1  0  0  0  0
 15 16  1  0  0  0  0
 15 14  1  1  0  0  0
 16 17  1  0  0  0  0
 18 16  1  0  0  0  0
 19 18  1  0  0  0  0
 20 18  1  0  0  0  0
 20 21  1  0  0  0  0
 21 22  1  0  0  0  0
 21 15  1  0  0  0  0
M  END
>  <minimizedAffinity>
-4.10083342

$$$$

 OpenBabel03272506363D

 22 23  0  0  1  0  0  0  0  0999 V2000
   37.8810   25.6900   34.4200 C   0  0  0  0  0  0  0  0  0  0  0  0
   37.4980   27.0520   34.4400 C   0  0  0  0  0  0  0  0  0  0  0  0
   36.7730   27.5640   33.3840 C   0  0  0  0  0  0  0  0  0  0  0  0
   36.4580   26.7060   32.3530 N   0  0  0  0  0  0  0  0  0  0  0  0
   36.8330   25.4100   32.3510 C   0  0  0  0  0  0  0  0  0  0  0  0
   37.5350   24.9250   33.3810 N   0  0  0  0  0  0  0  0  0  0  0  0
   37.6560   23.9990   30.6150 C   0  0  0  0  0  0  0  0  0  0  0  0
   38.8850   24.1980   30.8840 O   0  0  0  0  0  0  0  0  0  0  0  0
   36.4930   24.5430   31.2680 N   0  0  0  0  0  0  0  0  0  0  0  0
   37.7410   27.7310   35.2470 H   0  0  0  0  0  0  0  0  0  0  0  0
   36.4610   28.6000   33.3610 H   0  0  0  0  0  0  0  0  0  0  0  0
   37.7080   23.3200   29.7720 H   0  0  0  0  0  0  0  0  0  0  0  0
   35.6050   24.2390   30.8740 H   0  0  0  0  0  0  0  0  0  0  0  0
   38.6000   25.3100   35.5350 O   0  0  0  0  0  0  0  0  0  0  0  0
   38.3680   24.1100   36.2410 C   0  0  2  0  0  3  0  0  0  0  0  0
   37.9840   24.4970   37.6550 C   0  0  0  0  0  3  0  0  0  0  0  0
   38.5230   25.4420   37.9050 H   0  0  0  0  0  0  0  0  0  0  0  0
   38.5390   23.3170   38.4230 C   0  0  0  0  0  3  0  0  0  0  0  0
   37.6880   22.5870   38.5270 H   0  0  0  0  0  0  0  0  0  0  0  0
   39.6180   22.8230   37.7410 O   0  0  0  0  0  0  0  0  0  0  0  0
   39.6420   23.3320   36.4740 C   0  0  0  0  0  3  0  0  0  0  0  0
   40.4880   24.0570   36.3750 H   0  0  0  0  0  0  0  0  0  0  0  0
  1  2  1  0  0  0  0
  1 14  1  0  0  0  0
  2 10  1  0  0  0  0
  3  2  2  0  0  0  0
  4  3  1  0  0  0  0
  5  4  2  0  0  0  0
  5  6  1  0  0  0  0
  6  1  2  0  0  0  0
  7  8  2  0  0  0  0
  7  9  1  0  0  0  0
  9  5  1  0  0  0  0
 11  3  1  0  0  0  0
 12  7  1  0  0  0  0
 13  9  1  0  0  0  0
 15 14  1  6  0  0  0
 15 21  1  0  0  0  0
 15 16  1  0  0  0  0
 16 17  1  0  0  0  0
 16 18  1  0  0  0  0
 18 19  1  0  0  0  0
 20 18  1  0  0  0  0
 21 20  1  0  0  0  0
 22 21  1  0  0  0  0
M  END
>  <minimizedAffinity>
-4.06232119

$$$$

 OpenBabel03272506363D

 22 23  0  0  1  0  0  0  0  0999 V2000
   38.0710   23.2660   33.7420 C   0  0  0  0  0  0  0  0  0  0  0  0
   37.3620   22.0430   33.7070 C   0  0  0  0  0  0  0  0  0  0  0  0
   36.5560   21.7630   32.6220 C   0  0  0  0  0  0  0  0  0  0  0  0
   36.4870   22.7050   31.6200 N   0  0  0  0  0  0  0  0  0  0  0  0
   37.1710   23.8670   31.6720 C   0  0  0  0  0  0  0  0  0  0  0  0
   37.9490   24.1280   32.7280 N   0  0  0  0  0  0  0  0  0  0  0  0
   36.5640   26.0930   31.0710 C   0  0  0  0  0  0  0  0  0  0  0  0
   36.2000   26.4280   32.2450 O   0  0  0  0  0  0  0  0  0  0  0  0
   37.0800   24.8260   30.6180 N   0  0  0  0  0  0  0  0  0  0  0  0
   37.4110   21.2980   34.4900 H   0  0  0  0  0  0  0  0  0  0  0  0
   35.9960   20.8380   32.5570 H   0  0  0  0  0  0  0  0  0  0  0  0
   36.3870   26.9980   30.5030 H   0  0  0  0  0  0  0  0  0  0  0  0
   37.3050   24.7920   29.6250 H   0  0  0  0  0  0  0  0  0  0  0  0
   38.8360   23.4200   34.8810 O   0  0  0  0  0  0  0  0  0  0  0  0
   38.4420   22.9550   36.1540 C   0  0  2  0  0  3  0  0  0  0  0  0
   37.7530   24.1100   36.8510 C   0  0  0  0  0  3  0  0  0  0  0  0
   38.2300   25.0540   36.4920 H   0  0  0  0  0  0  0  0  0  0  0  0
   38.1110   23.8160   38.2910 C   0  0  0  0  0  3  0  0  0  0  0  0
   37.2540   23.2180   38.7080 H   0  0  0  0  0  0  0  0  0  0  0  0
   39.3120   23.1590   38.3150 O   0  0  0  0  0  0  0  0  0  0  0  0
   39.6250   22.7140   37.0620 C   0  0  0  0  0  3  0  0  0  0  0  0
   40.4770   23.3100   36.6510 H   0  0  0  0  0  0  0  0  0  0  0  0
  1 14  1  0  0  0  0
  2  1  1  0  0  0  0
  2 10  1  0  0  0  0
  3  2  2  0  0  0  0
  4  5  2  0  0  0  0
  4  3  1  0  0  0  0
  5  6  1  0  0  0  0
  6  1  2  0  0  0  0
  7  8  2  0  0  0  0
  9  7  1  0  0  0  0
  9  5  1  0  0  0  0
 11  3  1  0  0  0  0
 12  7  1  0  0  0  0
 13  9  1  0  0  0  0
 15 14  1  6  0  0  0
 15 16  1  0  0  0  0
 15 21  1  0  0  0  0
 16 18  1  0  0  0  0
 17 16  1  0  0  0  0
 18 20  1  0  0  0  0
 18 19  1  0  0  0  0
 21 20  1  0  0  0  0
 22 21  1  0  0  0  0
M  END
>  <minimizedAffinity>
-4.01520443

$$$$
