
 OpenBabel03262523553D

 33 35  0  0  1  0  0  0  0  0999 V2000
   38.8430   24.7730   36.1310 C   0  0  1  0  0  0  0  0  0  0  0  0
   37.7500   24.5000   37.0490 C   0  0  0  0  0  0  0  0  0  0  0  0
   38.2590   23.8490   38.2910 C   0  0  0  0  0  0  0  0  0  0  0  0
   39.4650   23.0280   38.0440 C   0  0  0  0  0  0  0  0  0  0  0  0
   39.6470   22.5080   36.6670 C   0  0  0  0  0  0  0  0  0  0  0  0
   39.2940   23.4400   35.5310 C   0  0  1  0  0  0  0  0  0  0  0  0
   39.7450   25.1370   36.6900 H   0  0  0  0  0  0  0  0  0  0  0  0
   37.3460   25.5060   37.3920 H   0  0  0  0  0  0  0  0  0  0  0  0
   36.8710   23.9920   36.6540 H   0  0  0  0  0  0  0  0  0  0  0  0
   38.4410   24.5640   39.1240 H   0  0  0  0  0  0  0  0  0  0  0  0
   37.4530   23.1640   38.6690 H   0  0  0  0  0  0  0  0  0  0  0  0
   39.4820   22.1710   38.7400 H   0  0  0  0  0  0  0  0  0  0  0  0
   40.3610   23.6410   38.3330 H   0  0  0  0  0  0  0  0  0  0  0  0
   39.0500   21.5610   36.6170 H   0  0  0  0  0  0  0  0  0  0  0  0
   40.6910   22.1360   36.5980 H   0  0  0  0  0  0  0  0  0  0  0  0
   40.2700   23.6860   35.0510 H   0  0  0  0  0  0  0  0  0  0  0  0
   39.4230   27.0300   33.2330 C   0  0  0  0  0  0  0  0  0  0  0  0
   39.6740   26.1430   34.3040 C   0  0  0  0  0  0  0  0  0  0  0  0
   38.5720   25.6840   35.0150 C   0  0  0  0  0  0  0  0  0  0  0  0
   37.3050   26.0970   34.6640 N   0  0  0  0  0  0  0  0  0  0  0  0
   37.1150   26.9380   33.6410 C   0  0  0  0  0  0  0  0  0  0  0  0
   38.1630   27.4130   32.9170 N   0  0  0  0  0  0  0  0  0  0  0  0
   40.1920   27.4570   32.6030 H   0  0  0  0  0  0  0  0  0  0  0  0
   40.7260   25.9620   34.4030 H   0  0  0  0  0  0  0  0  0  0  0  0
   36.1230   27.2730   33.3530 H   0  0  0  0  0  0  0  0  0  0  0  0
   38.4380   22.8780   34.4940 C   0  0  2  0  0  3  0  0  0  0  0  0
   37.4660   21.8230   34.6970 C   0  0  0  0  0  3  0  0  0  0  0  0
   36.4220   22.0980   34.9470 H   0  0  0  0  0  0  0  0  0  0  0  0
   37.3190   21.2950   33.2520 C   0  0  0  0  0  3  0  0  0  0  0  0
   36.7220   22.0220   32.6750 H   0  0  0  0  0  0  0  0  0  0  0  0
   38.6450   21.2420   32.8460 O   0  0  0  0  0  0  0  0  0  0  0  0
   39.3080   22.3430   33.3700 C   0  0  0  0  0  3  0  0  0  0  0  0
   39.4750   23.0880   32.5650 H   0  0  0  0  0  0  0  0  0  0  0  0
  1  7  1  1  0  0  0
  1  2  1  0  0  0  0
  2  8  1  0  0  0  0
  2  3  1  0  0  0  0
  3 11  1  0  0  0  0
  3 10  1  0  0  0  0
  4  3  1  0  0  0  0
  4 13  1  0  0  0  0
  4 12  1  0  0  0  0
  5  4  1  0  0  0  0
  6 16  1  6  0  0  0
  6  1  1  0  0  0  0
  6  5  1  0  0  0  0
  9  2  1  0  0  0  0
 14  5  1  0  0  0  0
 15  5  1  0  0  0  0
 17 18  1  0  0  0  0
 18 24  1  0  0  0  0
 18 19  2  0  0  0  0
 19  1  1  0  0  0  0
 20 19  1  0  0  0  0
 21 20  2  0  0  0  0
 22 17  2  0  0  0  0
 22 21  1  0  0  0  0
 23 17  1  0  0  0  0
 25 21  1  0  0  0  0
 26 32  1  6  0  0  0
 26 27  1  0  0  0  0
 26  6  1  0  0  0  0
 27 28  1  0  0  0  0
 29 27  1  0  0  0  0
 30 29  1  0  0  0  0
 31 29  1  0  0  0  0
 31 32  1  0  0  0  0
 33 32  1  0  0  0  0
M  END
>  <minimizedAffinity>
-4.50176573

$$$$

 OpenBabel03262523553D

 33 35  0  0  1  0  0  0  0  0999 V2000
   38.4980   22.8090   36.0620 C   0  0  1  0  0  0  0  0  0  0  0  0
   39.6910   22.8490   36.8910 C   0  0  0  0  0  0  0  0  0  0  0  0
   39.3380   23.1950   38.2980 C   0  0  0  0  0  0  0  0  0  0  0  0
   38.1440   24.0630   38.3840 C   0  0  0  0  0  0  0  0  0  0  0  0
   37.8370   24.8930   37.1930 C   0  0  0  0  0  0  0  0  0  0  0  0
   38.0340   24.2490   35.8400 C   0  0  1  0  0  0  0  0  0  0  0  0
   37.6480   22.3330   36.6170 H   0  0  0  0  0  0  0  0  0  0  0  0
   40.0930   21.7860   36.9450 H   0  0  0  0  0  0  0  0  0  0  0  0
   40.5410   23.4260   36.5300 H   0  0  0  0  0  0  0  0  0  0  0  0
   39.2200   22.3070   38.9580 H   0  0  0  0  0  0  0  0  0  0  0  0
   40.2040   23.7650   38.7330 H   0  0  0  0  0  0  0  0  0  0  0  0
   38.2310   24.7340   39.2570 H   0  0  0  0  0  0  0  0  0  0  0  0
   37.2620   23.4090   38.6190 H   0  0  0  0  0  0  0  0  0  0  0  0
   38.4580   25.8200   37.2980 H   0  0  0  0  0  0  0  0  0  0  0  0
   36.8040   25.2810   37.3280 H   0  0  0  0  0  0  0  0  0  0  0  0
   37.0050   24.1320   35.4270 H   0  0  0  0  0  0  0  0  0  0  0  0
   37.5380   21.2000   32.8490 C   0  0  0  0  0  0  0  0  0  0  0  0
   37.4320   21.8150   34.1170 C   0  0  0  0  0  0  0  0  0  0  0  0
   38.6180   22.1820   34.7420 C   0  0  0  0  0  0  0  0  0  0  0  0
   39.8260   21.9410   34.1240 N   0  0  0  0  0  0  0  0  0  0  0  0
   39.8780   21.3560   32.9210 C   0  0  0  0  0  0  0  0  0  0  0  0
   38.7450   20.9800   32.2720 N   0  0  0  0  0  0  0  0  0  0  0  0
   36.6930   20.8690   32.2600 H   0  0  0  0  0  0  0  0  0  0  0  0
   36.4040   21.8990   34.4080 H   0  0  0  0  0  0  0  0  0  0  0  0
   40.8220   21.1590   32.4220 H   0  0  0  0  0  0  0  0  0  0  0  0
   38.7960   25.0300   34.8740 C   0  0  2  0  0  3  0  0  0  0  0  0
   39.6730   26.1360   35.2010 C   0  0  0  0  0  3  0  0  0  0  0  0
   40.7470   25.9310   35.3860 H   0  0  0  0  0  0  0  0  0  0  0  0
   39.7180   26.8720   33.8420 C   0  0  0  0  0  3  0  0  0  0  0  0
   40.3590   26.2920   33.1550 H   0  0  0  0  0  0  0  0  0  0  0  0
   38.3780   26.8520   33.4790 O   0  0  0  0  0  0  0  0  0  0  0  0
   37.8400   25.6300   33.8570 C   0  0  0  0  0  3  0  0  0  0  0  0
   37.7130   24.9910   32.9590 H   0  0  0  0  0  0  0  0  0  0  0  0
  1  7  1  1  0  0  0
  1  2  1  0  0  0  0
  2  8  1  0  0  0  0
  2  3  1  0  0  0  0
  3  4  1  0  0  0  0
  3 11  1  0  0  0  0
  3 10  1  0  0  0  0
  4 13  1  0  0  0  0
  4 12  1  0  0  0  0
  5 14  1  0  0  0  0
  5 15  1  0  0  0  0
  5  4  1  0  0  0  0
  6 16  1  6  0  0  0
  6  1  1  0  0  0  0
  6  5  1  0  0  0  0
  9  2  1  0  0  0  0
 17 18  1  0  0  0  0
 18 24  1  0  0  0  0
 18 19  2  0  0  0  0
 19  1  1  0  0  0  0
 20 19  1  0  0  0  0
 21 20  2  0  0  0  0
 22 17  2  0  0  0  0
 22 21  1  0  0  0  0
 23 17  1  0  0  0  0
 25 21  1  0  0  0  0
 26 32  1  6  0  0  0
 26 27  1  0  0  0  0
 26  6  1  0  0  0  0
 27 28  1  0  0  0  0
 29 27  1  0  0  0  0
 30 29  1  0  0  0  0
 31 29  1  0  0  0  0
 31 32  1  0  0  0  0
 33 32  1  0  0  0  0
M  END
>  <minimizedAffinity>
-4.43322182

$$$$

 OpenBabel03262523553D

 33 35  0  0  1  0  0  0  0  0999 V2000
   37.2290   21.0670   33.1900 C   0  0  1  0  0  0  0  0  0  0  0  0
   35.8740   20.7750   33.6250 C   0  0  0  0  0  0  0  0  0  0  0  0
   35.2580   19.7320   32.7540 C   0  0  0  0  0  0  0  0  0  0  0  0
   35.7790   19.7730   31.3710 C   0  0  0  0  0  0  0  0  0  0  0  0
   36.3220   21.0710   30.9010 C   0  0  0  0  0  0  0  0  0  0  0  0
   37.1410   21.8690   31.8900 C   0  0  1  0  0  0  0  0  0  0  0  0
   37.7590   20.1250   32.8920 H   0  0  0  0  0  0  0  0  0  0  0  0
   35.9520   20.2880   34.6510 H   0  0  0  0  0  0  0  0  0  0  0  0
   35.2010   21.6150   33.7920 H   0  0  0  0  0  0  0  0  0  0  0  0
   35.3400   18.7030   33.1690 H   0  0  0  0  0  0  0  0  0  0  0  0
   34.1540   19.9380   32.7090 H   0  0  0  0  0  0  0  0  0  0  0  0
   34.9910   19.4550   30.6660 H   0  0  0  0  0  0  0  0  0  0  0  0
   36.5710   18.9820   31.2790 H   0  0  0  0  0  0  0  0  0  0  0  0
   35.4400   21.6570   30.5360 H   0  0  0  0  0  0  0  0  0  0  0  0
   36.8790   20.8670   29.9620 H   0  0  0  0  0  0  0  0  0  0  0  0
   38.1810   21.8360   31.4910 H   0  0  0  0  0  0  0  0  0  0  0  0
   38.3380   22.9000   36.2310 C   0  0  0  0  0  0  0  0  0  0  0  0
   37.5270   22.1600   35.3400 C   0  0  0  0  0  0  0  0  0  0  0  0
   38.0820   21.8250   34.1120 C   0  0  0  0  0  0  0  0  0  0  0  0
   39.3680   22.2130   33.8080 N   0  0  0  0  0  0  0  0  0  0  0  0
   40.1000   22.9130   34.6830 C   0  0  0  0  0  0  0  0  0  0  0  0
   39.6000   23.2630   35.8970 N   0  0  0  0  0  0  0  0  0  0  0  0
   38.0250   23.2220   37.2150 H   0  0  0  0  0  0  0  0  0  0  0  0
   36.5650   21.9730   35.7760 H   0  0  0  0  0  0  0  0  0  0  0  0
   41.1150   23.2260   34.4580 H   0  0  0  0  0  0  0  0  0  0  0  0
   36.7780   23.2740   32.0230 C   0  0  2  0  0  3  0  0  0  0  0  0
   35.5130   23.8500   31.6150 C   0  0  0  0  0  3  0  0  0  0  0  0
   34.6880   23.9090   32.3530 H   0  0  0  0  0  0  0  0  0  0  0  0
   35.9150   25.3360   31.4680 C   0  0  0  0  0  3  0  0  0  0  0  0
   36.0260   25.7670   32.4780 H   0  0  0  0  0  0  0  0  0  0  0  0
   37.1230   25.2240   30.7920 O   0  0  0  0  0  0  0  0  0  0  0  0
   37.8030   24.1210   31.2900 C   0  0  0  0  0  3  0  0  0  0  0  0
   38.6250   24.4660   31.9500 H   0  0  0  0  0  0  0  0  0  0  0  0
  1  7  1  6  0  0  0
  1  2  1  0  0  0  0
  1 19  1  0  0  0  0
  2  9  1  0  0  0  0
  2  8  1  0  0  0  0
  3 10  1  0  0  0  0
  3  2  1  0  0  0  0
  4  3  1  0  0  0  0
  5  4  1  0  0  0  0
  5  6  1  0  0  0  0
  6 16  1  6  0  0  0
  6 26  1  0  0  0  0
  6  1  1  0  0  0  0
 11  3  1  0  0  0  0
 12  4  1  0  0  0  0
 13  4  1  0  0  0  0
 14  5  1  0  0  0  0
 15  5  1  0  0  0  0
 17 23  1  0  0  0  0
 18 24  1  0  0  0  0
 18 17  2  0  0  0  0
 19 18  1  0  0  0  0
 20 19  2  0  0  0  0
 20 21  1  0  0  0  0
 21 22  2  0  0  0  0
 22 17  1  0  0  0  0
 25 21  1  0  0  0  0
 26 32  1  6  0  0  0
 27 26  1  0  0  0  0
 27 28  1  0  0  0  0
 29 27  1  0  0  0  0
 29 30  1  0  0  0  0
 31 32  1  0  0  0  0
 31 29  1  0  0  0  0
 32 33  1  0  0  0  0
M  END
>  <minimizedAffinity>
-4.3634944

$$$$

 OpenBabel03262523553D

 33 35  0  0  1  0  0  0  0  0999 V2000
   37.6890   25.7550   34.3810 C   0  0  1  0  0  0  0  0  0  0  0  0
   37.5450   26.9330   35.2200 C   0  0  0  0  0  0  0  0  0  0  0  0
   36.7490   27.9810   34.5180 C   0  0  0  0  0  0  0  0  0  0  0  0
   36.9150   27.9270   33.0500 C   0  0  0  0  0  0  0  0  0  0  0  0
   38.1690   27.3200   32.5420 C   0  0  0  0  0  0  0  0  0  0  0  0
   38.6780   26.0930   33.2640 C   0  0  1  0  0  0  0  0  0  0  0  0
   36.7320   25.5390   33.8390 H   0  0  0  0  0  0  0  0  0  0  0  0
   36.9060   26.6300   36.1110 H   0  0  0  0  0  0  0  0  0  0  0  0
   38.4450   27.3430   35.6780 H   0  0  0  0  0  0  0  0  0  0  0  0
   35.6700   27.9720   34.7880 H   0  0  0  0  0  0  0  0  0  0  0  0
   37.1260   28.9810   34.8660 H   0  0  0  0  0  0  0  0  0  0  0  0
   36.8290   28.9430   32.6260 H   0  0  0  0  0  0  0  0  0  0  0  0
   36.0350   27.3720   32.6260 H   0  0  0  0  0  0  0  0  0  0  0  0
   38.9310   28.1420   32.5500 H   0  0  0  0  0  0  0  0  0  0  0  0
   38.0240   27.1390   31.4560 H   0  0  0  0  0  0  0  0  0  0  0  0
   38.5460   25.2590   32.5360 H   0  0  0  0  0  0  0  0  0  0  0  0
   38.9390   23.4320   37.0030 C   0  0  0  0  0  0  0  0  0  0  0  0
   38.4720   24.6100   36.3760 C   0  0  0  0  0  0  0  0  0  0  0  0
   38.1630   24.5260   35.0250 C   0  0  0  0  0  0  0  0  0  0  0  0
   38.3180   23.3310   34.3550 N   0  0  0  0  0  0  0  0  0  0  0  0
   38.7640   22.2410   34.9900 C   0  0  0  0  0  0  0  0  0  0  0  0
   39.0780   22.2750   36.3110 N   0  0  0  0  0  0  0  0  0  0  0  0
   39.2120   23.3650   38.0470 H   0  0  0  0  0  0  0  0  0  0  0  0
   38.4340   25.4180   37.0790 H   0  0  0  0  0  0  0  0  0  0  0  0
   38.8920   21.2930   34.4750 H   0  0  0  0  0  0  0  0  0  0  0  0
   40.0860   26.1180   33.6360 C   0  0  2  0  0  3  0  0  0  0  0  0
   40.8700   27.3160   33.8570 C   0  0  0  0  0  3  0  0  0  0  0  0
   40.9330   27.7330   34.8820 H   0  0  0  0  0  0  0  0  0  0  0  0
   42.2980   26.7600   33.6520 C   0  0  0  0  0  3  0  0  0  0  0  0
   42.5700   26.1650   34.5400 H   0  0  0  0  0  0  0  0  0  0  0  0
   42.1260   25.9840   32.5130 O   0  0  0  0  0  0  0  0  0  0  0  0
   40.8880   25.3610   32.5910 C   0  0  0  0  0  3  0  0  0  0  0  0
   41.0310   24.2930   32.8510 H   0  0  0  0  0  0  0  0  0  0  0  0
  1  7  1  6  0  0  0
  1 19  1  0  0  0  0
  1  2  1  0  0  0  0
  2  9  1  0  0  0  0
  2  8  1  0  0  0  0
  3 10  1  0  0  0  0
  3 11  1  0  0  0  0
  3  2  1  0  0  0  0
  4  3  1  0  0  0  0
  5 14  1  0  0  0  0
  5  4  1  0  0  0  0
  5  6  1  0  0  0  0
  6 16  1  6  0  0  0
  6 26  1  0  0  0  0
  6  1  1  0  0  0  0
 12  4  1  0  0  0  0
 13  4  1  0  0  0  0
 15  5  1  0  0  0  0
 17 23  1  0  0  0  0
 18 17  1  0  0  0  0
 18 24  1  0  0  0  0
 19 18  2  0  0  0  0
 20 21  2  0  0  0  0
 20 19  1  0  0  0  0
 21 22  1  0  0  0  0
 22 17  2  0  0  0  0
 25 21  1  0  0  0  0
 26 32  1  6  0  0  0
 26 27  1  0  0  0  0
 27 28  1  0  0  0  0
 29 27  1  0  0  0  0
 29 30  1  0  0  0  0
 31 32  1  0  0  0  0
 31 29  1  0  0  0  0
 32 33  1  0  0  0  0
M  END
>  <minimizedAffinity>
-4.29183245

$$$$

 OpenBabel03262523553D

 33 35  0  0  1  0  0  0  0  0999 V2000
   34.4570   29.2470   32.7840 C   0  0  1  0  0  0  0  0  0  0  0  0
   35.5860   29.6980   31.9870 C   0  0  0  0  0  0  0  0  0  0  0  0
   36.6960   28.7040   32.0440 C   0  0  0  0  0  0  0  0  0  0  0  0
   36.7260   27.9630   33.3240 C   0  0  0  0  0  0  0  0  0  0  0  0
   36.1150   28.6350   34.4970 C   0  0  0  0  0  0  0  0  0  0  0  0
   34.8330   29.3990   34.2580 C   0  0  1  0  0  0  0  0  0  0  0  0
   34.3010   28.1440   32.6560 H   0  0  0  0  0  0  0  0  0  0  0  0
   35.2480   29.6950   30.9010 H   0  0  0  0  0  0  0  0  0  0  0  0
   35.9420   30.7150   32.1420 H   0  0  0  0  0  0  0  0  0  0  0  0
   36.7020   27.9960   31.1860 H   0  0  0  0  0  0  0  0  0  0  0  0
   37.6620   29.2710   31.9570 H   0  0  0  0  0  0  0  0  0  0  0  0
   37.7680   27.7020   33.5810 H   0  0  0  0  0  0  0  0  0  0  0  0
   36.2220   26.9730   33.1580 H   0  0  0  0  0  0  0  0  0  0  0  0
   36.9130   29.2990   34.9180 H   0  0  0  0  0  0  0  0  0  0  0  0
   36.0040   27.8630   35.2890 H   0  0  0  0  0  0  0  0  0  0  0  0
   34.0490   28.8130   34.7910 H   0  0  0  0  0  0  0  0  0  0  0  0
   31.9590   31.7090   31.5450 C   0  0  0  0  0  0  0  0  0  0  0  0
   33.1860   31.0310   31.7320 C   0  0  0  0  0  0  0  0  0  0  0  0
   33.1780   29.9370   32.5870 C   0  0  0  0  0  0  0  0  0  0  0  0
   32.0090   29.5570   33.2100 N   0  0  0  0  0  0  0  0  0  0  0  0
   30.8700   30.2300   33.0030 C   0  0  0  0  0  0  0  0  0  0  0  0
   30.8290   31.3060   32.1740 N   0  0  0  0  0  0  0  0  0  0  0  0
   31.8320   32.5730   30.9060 H   0  0  0  0  0  0  0  0  0  0  0  0
   33.9630   31.4970   31.1590 H   0  0  0  0  0  0  0  0  0  0  0  0
   29.9410   29.9430   33.4870 H   0  0  0  0  0  0  0  0  0  0  0  0
   34.7950   30.7520   34.7970 C   0  0  2  0  0  3  0  0  0  0  0  0
   35.9370   31.4730   35.3230 C   0  0  0  0  0  3  0  0  0  0  0  0
   36.5260   32.1160   34.6400 H   0  0  0  0  0  0  0  0  0  0  0  0
   35.2240   32.5200   36.2100 C   0  0  0  0  0  3  0  0  0  0  0  0
   34.7780   33.2860   35.5530 H   0  0  0  0  0  0  0  0  0  0  0  0
   34.2730   31.7340   36.8470 O   0  0  0  0  0  0  0  0  0  0  0  0
   33.7910   30.8040   35.9350 C   0  0  0  0  0  3  0  0  0  0  0  0
   32.7790   31.1110   35.6000 H   0  0  0  0  0  0  0  0  0  0  0  0
  1  7  1  6  0  0  0
  1  6  1  0  0  0  0
  2  3  1  0  0  0  0
  2  9  1  0  0  0  0
  2  1  1  0  0  0  0
  3  4  1  0  0  0  0
  4 12  1  0  0  0  0
  4  5  1  0  0  0  0
  5 14  1  0  0  0  0
  5 15  1  0  0  0  0
  6  5  1  0  0  0  0
  6 16  1  1  0  0  0
  6 26  1  0  0  0  0
  8  2  1  0  0  0  0
 10  3  1  0  0  0  0
 11  3  1  0  0  0  0
 13  4  1  0  0  0  0
 17 18  2  0  0  0  0
 17 22  1  0  0  0  0
 18 19  1  0  0  0  0
 19  1  1  0  0  0  0
 19 20  2  0  0  0  0
 21 20  1  0  0  0  0
 21 25  1  0  0  0  0
 22 21  2  0  0  0  0
 23 17  1  0  0  0  0
 24 18  1  0  0  0  0
 26 27  1  1  0  0  0
 26 32  1  0  0  0  0
 27 29  1  0  0  0  0
 28 27  1  0  0  0  0
 29 31  1  0  0  0  0
 30 29  1  0  0  0  0
 32 31  1  0  0  0  0
 33 32  1  0  0  0  0
M  END
>  <minimizedAffinity>
-4.25178766

$$$$

 OpenBabel03262523553D

 33 35  0  0  1  0  0  0  0  0999 V2000
   40.1310   24.8530   35.0670 C   0  0  1  0  0  0  0  0  0  0  0  0
   40.7900   24.4480   33.8370 C   0  0  0  0  0  0  0  0  0  0  0  0
   42.0440   25.2300   33.6340 C   0  0  0  0  0  0  0  0  0  0  0  0
   41.9640   26.5870   34.2170 C   0  0  0  0  0  0  0  0  0  0  0  0
   40.6070   27.1660   34.3730 C   0  0  0  0  0  0  0  0  0  0  0  0
   39.5120   26.2320   34.8350 C   0  0  1  0  0  0  0  0  0  0  0  0
   40.8850   25.0270   35.8790 H   0  0  0  0  0  0  0  0  0  0  0  0
   41.1380   23.3750   33.9850 H   0  0  0  0  0  0  0  0  0  0  0  0
   40.1890   24.4000   32.9310 H   0  0  0  0  0  0  0  0  0  0  0  0
   42.9570   24.7060   33.9940 H   0  0  0  0  0  0  0  0  0  0  0  0
   42.1950   25.3450   32.5260 H   0  0  0  0  0  0  0  0  0  0  0  0
   42.5700   27.2880   33.6170 H   0  0  0  0  0  0  0  0  0  0  0  0
   42.4740   26.5600   35.2170 H   0  0  0  0  0  0  0  0  0  0  0  0
   40.3570   27.6290   33.3840 H   0  0  0  0  0  0  0  0  0  0  0  0
   40.7090   28.0540   35.0330 H   0  0  0  0  0  0  0  0  0  0  0  0
   39.2560   26.5800   35.8630 H   0  0  0  0  0  0  0  0  0  0  0  0
   37.5210   23.4680   37.3270 C   0  0  0  0  0  0  0  0  0  0  0  0
   38.5370   24.3100   36.8200 C   0  0  0  0  0  0  0  0  0  0  0  0
   39.0700   23.9800   35.5800 C   0  0  0  0  0  0  0  0  0  0  0  0
   38.6040   22.8740   34.9020 N   0  0  0  0  0  0  0  0  0  0  0  0
   37.6400   22.1060   35.4210 C   0  0  0  0  0  0  0  0  0  0  0  0
   37.0880   22.3890   36.6300 N   0  0  0  0  0  0  0  0  0  0  0  0
   37.0260   23.6150   38.2770 H   0  0  0  0  0  0  0  0  0  0  0  0
   38.7470   25.1020   37.5110 H   0  0  0  0  0  0  0  0  0  0  0  0
   37.2630   21.2310   34.8980 H   0  0  0  0  0  0  0  0  0  0  0  0
   38.2830   26.2640   34.0530 C   0  0  2  0  0  3  0  0  0  0  0  0
   38.1850   26.6820   32.6700 C   0  0  0  0  0  3  0  0  0  0  0  0
   38.2830   25.9200   31.8710 H   0  0  0  0  0  0  0  0  0  0  0  0
   36.6820   27.0370   32.5890 C   0  0  0  0  0  3  0  0  0  0  0  0
   36.1040   26.0970   32.5650 H   0  0  0  0  0  0  0  0  0  0  0  0
   36.5080   27.7490   33.7680 O   0  0  0  0  0  0  0  0  0  0  0  0
   37.2690   27.1460   34.7600 C   0  0  0  0  0  3  0  0  0  0  0  0
   36.6010   26.5750   35.4370 H   0  0  0  0  0  0  0  0  0  0  0  0
  1 19  1  0  0  0  0
  1  7  1  1  0  0  0
  2  8  1  0  0  0  0
  2  1  1  0  0  0  0
  3  2  1  0  0  0  0
  3 10  1  0  0  0  0
  3  4  1  0  0  0  0
  4  5  1  0  0  0  0
  4 13  1  0  0  0  0
  5  6  1  0  0  0  0
  5 15  1  0  0  0  0
  6  1  1  0  0  0  0
  6 16  1  1  0  0  0
  9  2  1  0  0  0  0
 11  3  1  0  0  0  0
 12  4  1  0  0  0  0
 14  5  1  0  0  0  0
 17 23  1  0  0  0  0
 18 17  1  0  0  0  0
 18 24  1  0  0  0  0
 19 18  2  0  0  0  0
 20 21  2  0  0  0  0
 20 19  1  0  0  0  0
 21 22  1  0  0  0  0
 22 17  2  0  0  0  0
 25 21  1  0  0  0  0
 26 27  1  6  0  0  0
 26 32  1  0  0  0  0
 26  6  1  0  0  0  0
 28 27  1  0  0  0  0
 29 27  1  0  0  0  0
 29 31  1  0  0  0  0
 30 29  1  0  0  0  0
 31 32  1  0  0  0  0
 32 33  1  0  0  0  0
M  END
>  <minimizedAffinity>
-4.23417521

$$$$

 OpenBabel03262523553D

 33 35  0  0  1  0  0  0  0  0999 V2000
   38.7210   24.6740   33.5300 C   0  0  1  0  0  0  0  0  0  0  0  0
   37.5890   25.5830   33.5900 C   0  0  0  0  0  0  0  0  0  0  0  0
   38.0540   26.9990   33.5900 C   0  0  0  0  0  0  0  0  0  0  0  0
   39.3800   27.1580   34.2250 C   0  0  0  0  0  0  0  0  0  0  0  0
   39.7710   26.1270   35.2180 C   0  0  0  0  0  0  0  0  0  0  0  0
   39.4100   24.6950   34.8950 C   0  0  1  0  0  0  0  0  0  0  0  0
   39.5020   25.0630   32.8260 H   0  0  0  0  0  0  0  0  0  0  0  0
   37.0160   25.4640   32.6140 H   0  0  0  0  0  0  0  0  0  0  0  0
   36.8330   25.4030   34.3530 H   0  0  0  0  0  0  0  0  0  0  0  0
   38.0500   27.4670   32.5800 H   0  0  0  0  0  0  0  0  0  0  0  0
   37.3160   27.5980   34.1890 H   0  0  0  0  0  0  0  0  0  0  0  0
   39.4450   28.1460   34.7130 H   0  0  0  0  0  0  0  0  0  0  0  0
   40.1490   27.1980   33.4080 H   0  0  0  0  0  0  0  0  0  0  0  0
   39.3190   26.4520   36.1900 H   0  0  0  0  0  0  0  0  0  0  0  0
   40.8590   26.2550   35.4040 H   0  0  0  0  0  0  0  0  0  0  0  0
   40.3870   24.1920   34.7030 H   0  0  0  0  0  0  0  0  0  0  0  0
   39.2800   21.1020   32.6560 C   0  0  0  0  0  0  0  0  0  0  0  0
   39.5410   22.4530   32.9800 C   0  0  0  0  0  0  0  0  0  0  0  0
   38.4410   23.2710   33.2060 C   0  0  0  0  0  0  0  0  0  0  0  0
   37.1670   22.7560   33.1090 N   0  0  0  0  0  0  0  0  0  0  0  0
   36.9680   21.4690   32.8000 C   0  0  0  0  0  0  0  0  0  0  0  0
   38.0130   20.6310   32.5710 N   0  0  0  0  0  0  0  0  0  0  0  0
   40.0460   20.3650   32.4580 H   0  0  0  0  0  0  0  0  0  0  0  0
   40.5960   22.6380   32.9950 H   0  0  0  0  0  0  0  0  0  0  0  0
   35.9700   21.0480   32.7200 H   0  0  0  0  0  0  0  0  0  0  0  0
   38.7500   23.9550   35.9630 C   0  0  2  0  0  3  0  0  0  0  0  0
   37.9860   24.5490   37.0410 C   0  0  0  0  0  3  0  0  0  0  0  0
   36.8950   24.6870   36.9110 H   0  0  0  0  0  0  0  0  0  0  0  0
   38.0410   23.4100   38.0850 C   0  0  0  0  0  3  0  0  0  0  0  0
   37.3560   22.6080   37.7600 H   0  0  0  0  0  0  0  0  0  0  0  0
   39.3770   23.0410   38.0150 O   0  0  0  0  0  0  0  0  0  0  0  0
   39.7800   23.1060   36.6880 C   0  0  0  0  0  3  0  0  0  0  0  0
   39.8550   22.0780   36.2770 H   0  0  0  0  0  0  0  0  0  0  0  0
  1  7  1  6  0  0  0
  1  2  1  0  0  0  0
  1  6  1  0  0  0  0
  2  3  1  0  0  0  0
  2  9  1  0  0  0  0
  3 11  1  0  0  0  0
  3  4  1  0  0  0  0
  4 12  1  0  0  0  0
  4  5  1  0  0  0  0
  5 15  1  0  0  0  0
  5 14  1  0  0  0  0
  6 16  1  6  0  0  0
  6  5  1  0  0  0  0
  6 26  1  0  0  0  0
  8  2  1  0  0  0  0
 10  3  1  0  0  0  0
 13  4  1  0  0  0  0
 17 18  1  0  0  0  0
 18 24  1  0  0  0  0
 18 19  2  0  0  0  0
 19  1  1  0  0  0  0
 20 19  1  0  0  0  0
 21 20  2  0  0  0  0
 22 17  2  0  0  0  0
 22 21  1  0  0  0  0
 23 17  1  0  0  0  0
 25 21  1  0  0  0  0
 26 32  1  1  0  0  0
 26 27  1  0  0  0  0
 27 29  1  0  0  0  0
 28 27  1  0  0  0  0
 30 29  1  0  0  0  0
 31 29  1  0  0  0  0
 32 31  1  0  0  0  0
 33 32  1  0  0  0  0
M  END
>  <minimizedAffinity>
-4.16498089

$$$$

 OpenBabel03262523553D

 33 35  0  0  1  0  0  0  0  0999 V2000
   35.4720   30.7500   34.5280 C   0  0  1  0  0  0  0  0  0  0  0  0
   35.7070   32.1830   34.4860 C   0  0  0  0  0  0  0  0  0  0  0  0
   35.7480   32.7460   35.8660 C   0  0  0  0  0  0  0  0  0  0  0  0
   34.8930   31.9940   36.8090 C   0  0  0  0  0  0  0  0  0  0  0  0
   33.7560   31.2430   36.2230 C   0  0  0  0  0  0  0  0  0  0  0  0
   34.0090   30.5270   34.9160 C   0  0  1  0  0  0  0  0  0  0  0  0
   36.0490   30.2800   35.3660 H   0  0  0  0  0  0  0  0  0  0  0  0
   36.7590   32.3350   34.0780 H   0  0  0  0  0  0  0  0  0  0  0  0
   35.0860   32.7810   33.8210 H   0  0  0  0  0  0  0  0  0  0  0  0
   36.7790   32.8470   36.2740 H   0  0  0  0  0  0  0  0  0  0  0  0
   35.3540   33.7980   35.8140 H   0  0  0  0  0  0  0  0  0  0  0  0
   34.4930   32.6780   37.5780 H   0  0  0  0  0  0  0  0  0  0  0  0
   35.5520   31.2860   37.3800 H   0  0  0  0  0  0  0  0  0  0  0  0
   32.9190   31.9810   36.1280 H   0  0  0  0  0  0  0  0  0  0  0  0
   33.3810   30.5570   37.0130 H   0  0  0  0  0  0  0  0  0  0  0  0
   33.9690   29.4430   35.1730 H   0  0  0  0  0  0  0  0  0  0  0  0
   36.0980   27.8790   32.2460 C   0  0  0  0  0  0  0  0  0  0  0  0
   35.8530   28.6160   33.4280 C   0  0  0  0  0  0  0  0  0  0  0  0
   35.7150   29.9930   33.2960 C   0  0  0  0  0  0  0  0  0  0  0  0
   35.8200   30.5800   32.0530 N   0  0  0  0  0  0  0  0  0  0  0  0
   36.0530   29.8410   30.9620 C   0  0  0  0  0  0  0  0  0  0  0  0
   36.1940   28.4920   31.0420 N   0  0  0  0  0  0  0  0  0  0  0  0
   36.2230   26.8050   32.2140 H   0  0  0  0  0  0  0  0  0  0  0  0
   35.8150   27.9630   34.2760 H   0  0  0  0  0  0  0  0  0  0  0  0
   36.1380   30.2900   29.9760 H   0  0  0  0  0  0  0  0  0  0  0  0
   33.0220   30.7550   33.8690 C   0  0  2  0  0  3  0  0  0  0  0  0
   32.0690   31.8460   33.8450 C   0  0  0  0  0  3  0  0  0  0  0  0
   32.3460   32.7880   33.3320 H   0  0  0  0  0  0  0  0  0  0  0  0
   31.0000   31.2650   32.8900 C   0  0  0  0  0  3  0  0  0  0  0  0
   31.3940   31.3090   31.8610 H   0  0  0  0  0  0  0  0  0  0  0  0
   30.8840   29.9680   33.3700 O   0  0  0  0  0  0  0  0  0  0  0  0
   32.1470   29.5210   33.7350 C   0  0  0  0  0  3  0  0  0  0  0  0
   32.5200   28.8120   32.9680 H   0  0  0  0  0  0  0  0  0  0  0  0
  1  6  1  0  0  0  0
  1  7  1  1  0  0  0
  2  1  1  0  0  0  0
  2  3  1  0  0  0  0
  3 10  1  0  0  0  0
  3  4  1  0  0  0  0
  4 13  1  0  0  0  0
  4 12  1  0  0  0  0
  5  4  1  0  0  0  0
  5 15  1  0  0  0  0
  6 16  1  1  0  0  0
  6  5  1  0  0  0  0
  8  2  1  0  0  0  0
  9  2  1  0  0  0  0
 11  3  1  0  0  0  0
 14  5  1  0  0  0  0
 17 18  1  0  0  0  0
 18 24  1  0  0  0  0
 19 18  2  0  0  0  0
 19  1  1  0  0  0  0
 20 19  1  0  0  0  0
 21 22  1  0  0  0  0
 21 20  2  0  0  0  0
 22 17  2  0  0  0  0
 23 17  1  0  0  0  0
 25 21  1  0  0  0  0
 26 32  1  1  0  0  0
 26  6  1  0  0  0  0
 27 26  1  0  0  0  0
 28 27  1  0  0  0  0
 29 31  1  0  0  0  0
 29 27  1  0  0  0  0
 30 29  1  0  0  0  0
 31 32  1  0  0  0  0
 33 32  1  0  0  0  0
M  END
>  <minimizedAffinity>
-4.16068792

$$$$

 OpenBabel03262523553D

 33 35  0  0  1  0  0  0  0  0999 V2000
   37.7300   27.8650   32.2310 C   0  0  1  0  0  0  0  0  0  0  0  0
   36.3880   28.3100   32.5630 C   0  0  0  0  0  0  0  0  0  0  0  0
   36.2290   28.4380   34.0400 C   0  0  0  0  0  0  0  0  0  0  0  0
   37.0780   27.4830   34.7840 C   0  0  0  0  0  0  0  0  0  0  0  0
   37.4750   26.2460   34.0680 C   0  0  0  0  0  0  0  0  0  0  0  0
   37.8400   26.3870   32.6080 C   0  0  1  0  0  0  0  0  0  0  0  0
   38.4860   28.3690   32.8880 H   0  0  0  0  0  0  0  0  0  0  0  0
   36.2820   29.3710   32.1660 H   0  0  0  0  0  0  0  0  0  0  0  0
   35.5510   27.7820   32.1080 H   0  0  0  0  0  0  0  0  0  0  0  0
   36.3890   29.4730   34.4160 H   0  0  0  0  0  0  0  0  0  0  0  0
   35.1580   28.2030   34.2870 H   0  0  0  0  0  0  0  0  0  0  0  0
   36.5780   27.1910   35.7240 H   0  0  0  0  0  0  0  0  0  0  0  0
   38.0000   28.0320   35.1170 H   0  0  0  0  0  0  0  0  0  0  0  0
   36.6270   25.5270   34.2090 H   0  0  0  0  0  0  0  0  0  0  0  0
   38.2880   25.7760   34.6620 H   0  0  0  0  0  0  0  0  0  0  0  0
   38.9360   26.1870   32.5680 H   0  0  0  0  0  0  0  0  0  0  0  0
   37.6810   28.7750   28.6250 C   0  0  0  0  0  0  0  0  0  0  0  0
   37.2870   28.6590   29.9780 C   0  0  0  0  0  0  0  0  0  0  0  0
   38.1530   27.9900   30.8330 C   0  0  0  0  0  0  0  0  0  0  0  0
   39.3360   27.4740   30.3500 N   0  0  0  0  0  0  0  0  0  0  0  0
   39.6690   27.6080   29.0610 C   0  0  0  0  0  0  0  0  0  0  0  0
   38.8530   28.2560   28.1870 N   0  0  0  0  0  0  0  0  0  0  0  0
   37.0980   29.2720   27.8620 H   0  0  0  0  0  0  0  0  0  0  0  0
   36.3340   29.1250   30.1320 H   0  0  0  0  0  0  0  0  0  0  0  0
   40.5970   27.2070   28.6650 H   0  0  0  0  0  0  0  0  0  0  0  0
   37.2000   25.4410   31.7030 C   0  0  2  0  0  3  0  0  0  0  0  0
   35.7810   25.1480   31.6700 C   0  0  0  0  0  3  0  0  0  0  0  0
   35.1290   25.7330   30.9910 H   0  0  0  0  0  0  0  0  0  0  0  0
   35.7960   23.7630   30.9830 C   0  0  0  0  0  3  0  0  0  0  0  0
   36.0050   23.9100   29.9090 H   0  0  0  0  0  0  0  0  0  0  0  0
   36.8370   23.1380   31.6560 O   0  0  0  0  0  0  0  0  0  0  0  0
   37.8370   24.0740   31.8820 C   0  0  0  0  0  3  0  0  0  0  0  0
   38.6730   23.8950   31.1760 H   0  0  0  0  0  0  0  0  0  0  0  0
  1  2  1  0  0  0  0
  1  6  1  0  0  0  0
  1  7  1  1  0  0  0
  2  3  1  0  0  0  0
  3 11  1  0  0  0  0
  3 10  1  0  0  0  0
  3  4  1  0  0  0  0
  4 13  1  0  0  0  0
  4 12  1  0  0  0  0
  5 14  1  0  0  0  0
  5 15  1  0  0  0  0
  5  4  1  0  0  0  0
  6 16  1  6  0  0  0
  6  5  1  0  0  0  0
  8  2  1  0  0  0  0
  9  2  1  0  0  0  0
 17 18  1  0  0  0  0
 18 24  1  0  0  0  0
 18 19  2  0  0  0  0
 19  1  1  0  0  0  0
 20 19  1  0  0  0  0
 21 20  2  0  0  0  0
 22 17  2  0  0  0  0
 22 21  1  0  0  0  0
 23 17  1  0  0  0  0
 25 21  1  0  0  0  0
 26 27  1  1  0  0  0
 26 32  1  0  0  0  0
 26  6  1  0  0  0  0
 28 27  1  0  0  0  0
 29 31  1  0  0  0  0
 29 27  1  0  0  0  0
 30 29  1  0  0  0  0
 31 32  1  0  0  0  0
 33 32  1  0  0  0  0
M  END
>  <minimizedAffinity>
-4.15845442

$$$$
