
 OpenBabel03272506443D

 31 33  0  0  1  0  0  0  0  0999 V2000
   32.3780   28.3830   47.4990 C   0  0  2  0  0  0  0  0  0  0  0  0
   33.6150   28.3910   48.3740 C   0  0  1  0  0  0  0  0  0  0  0  0
   34.1800   27.1390   48.3030 O   0  0  0  0  0  0  0  0  0  0  0  0
   33.5370   26.4090   47.3310 C   0  0  0  0  0  0  0  0  0  0  0  0
   32.8510   27.4210   46.4180 C   0  0  1  0  0  0  0  0  0  0  0  0
   31.5050   27.9310   47.9760 H   0  0  0  0  0  0  0  0  0  0  0  0
   33.3850   28.6530   49.4200 H   0  0  0  0  0  0  0  0  0  0  0  0
   34.1820   25.7140   46.7930 H   0  0  0  0  0  0  0  0  0  0  0  0
   32.6860   25.8890   47.8600 H   0  0  0  0  0  0  0  0  0  0  0  0
   33.5620   27.9260   45.7330 H   0  0  0  0  0  0  0  0  0  0  0  0
   32.1310   29.6610   46.9780 O   0  0  0  0  0  0  0  0  0  0  0  0
   32.7110   29.7970   46.1860 H   0  0  0  0  0  0  0  0  0  0  0  0
   34.7840   29.5620   47.6140 S   0  0  0  0  0  0  0  0  0  0  0  0
   37.3090   29.4020   50.6650 C   0  0  0  0  0  0  0  0  0  0  0  0
   37.8990   30.6570   50.7210 C   0  0  0  0  0  0  0  0  0  0  0  0
   37.5050   31.6040   49.7750 C   0  0  0  0  0  0  0  0  0  0  0  0
   36.5750   31.2530   48.8600 N   0  0  0  0  0  0  0  0  0  0  0  0
   36.0120   30.0140   48.8290 C   0  0  0  0  0  0  0  0  0  0  0  0
   36.3760   29.0720   49.7360 N   0  0  0  0  0  0  0  0  0  0  0  0
   37.6260   28.6790   51.4070 H   0  0  0  0  0  0  0  0  0  0  0  0
   38.6310   30.9700   51.4230 H   0  0  0  0  0  0  0  0  0  0  0  0
   37.9450   32.5920   49.7910 H   0  0  0  0  0  0  0  0  0  0  0  0
   31.7880   26.8280   45.7530 O   0  0  0  0  0  0  0  0  0  0  0  0
   31.7720   27.0810   44.4050 C   0  0  1  0  0  3  0  0  0  0  0  0
   30.7640   28.1770   44.1110 C   0  0  0  0  0  3  0  0  0  0  0  0
   29.7720   27.7650   43.8510 H   0  0  0  0  0  0  0  0  0  0  0  0
   31.4190   28.8100   42.8790 C   0  0  0  0  0  3  0  0  0  0  0  0
   31.0330   29.8170   42.7040 H   0  0  0  0  0  0  0  0  0  0  0  0
   32.7340   28.9200   43.3380 O   0  0  0  0  0  0  0  0  0  0  0  0
   33.0340   27.6600   43.8440 C   0  0  0  0  0  3  0  0  0  0  0  0
   33.8230   27.7900   44.6140 H   0  0  0  0  0  0  0  0  0  0  0  0
  1  6  1  1  0  0  0
  1  2  1  0  0  0  0
  2  7  1  1  0  0  0
  3  2  1  0  0  0  0
  4  9  1  0  0  0  0
  4  3  1  0  0  0  0
  5 10  1  6  0  0  0
  5  4  1  0  0  0  0
  5  1  1  0  0  0  0
  8  4  1  0  0  0  0
 11  1  1  0  0  0  0
 12 11  1  0  0  0  0
 13  2  1  0  0  0  0
 13 18  1  0  0  0  0
 14 15  1  0  0  0  0
 14 20  1  0  0  0  0
 15 21  1  0  0  0  0
 16 22  1  0  0  0  0
 16 15  2  0  0  0  0
 17 16  1  0  0  0  0
 18 17  2  0  0  0  0
 18 19  1  0  0  0  0
 19 14  2  0  0  0  0
 23  5  1  0  0  0  0
 24 23  1  1  0  0  0
 25 24  1  0  0  0  0
 26 25  1  0  0  0  0
 27 29  1  0  0  0  0
 27 25  1  0  0  0  0
 28 27  1  0  0  0  0
 29 30  1  0  0  0  0
 30 24  1  0  0  0  0
 30 31  1  0  0  0  0
M  END
>  <minimizedAffinity>
-3.78276467

>  <minimizedRMSD>
0.3244766

$$$$
