
 OpenBabel03262520343D

 28 29  0  0  1  0  0  0  0  0999 V2000
   37.8340   25.5430   32.7350 C   0  0  0  0  0  0  0  0  0  0  0  0
   38.1820   24.6930   32.0810 H   0  0  0  0  0  0  0  0  0  0  0  0
   38.4640   26.4000   32.4670 H   0  0  0  0  0  0  0  0  0  0  0  0
   38.7070   24.0790   34.5150 C   0  0  0  0  0  3  0  0  0  0  0  0
   38.0390   25.1090   34.1300 C   0  0  0  0  0  3  0  0  0  0  0  0
   39.8350   22.8120   37.7710 C   0  0  0  0  0  0  0  0  0  0  0  0
   38.8760   23.3520   38.6450 C   0  0  0  0  0  0  0  0  0  0  0  0
   37.8620   24.1410   38.0810 C   0  0  0  0  0  0  0  0  0  0  0  0
   37.8630   24.3420   36.7210 N   0  0  0  0  0  0  0  0  0  0  0  0
   38.8050   23.8000   35.9410 C   0  0  0  0  0  0  0  0  0  0  0  0
   39.7700   23.0510   36.4580 N   0  0  0  0  0  0  0  0  0  0  0  0
   40.5870   22.2140   38.2640 H   0  0  0  0  0  0  0  0  0  0  0  0
   38.7940   23.2520   39.7000 H   0  0  0  0  0  0  0  0  0  0  0  0
   37.0550   24.6240   38.6200 H   0  0  0  0  0  0  0  0  0  0  0  0
   36.4820   25.7190   32.4400 O   0  0  0  0  0  0  0  0  0  0  0  0
   37.3270   24.2930   30.4970 O   0  0  0  0  0  0  0  0  0  0  0  0
   36.0340   24.5770   31.2670 P   0  0  2  0  0  0  0  0  0  0  0  0
   34.8920   25.2960   30.2340 O   0  0  0  0  0  0  0  0  0  0  0  0
   35.3280   25.6930   29.4270 H   0  0  0  0  0  0  0  0  0  0  0  0
   35.3860   23.1890   31.9420 O   0  0  0  0  0  0  0  0  0  0  0  0
   36.1760   22.0830   31.9060 C   0  0  1  0  0  3  0  0  0  0  0  0
   36.4130   21.4420   33.2510 C   0  0  0  0  0  3  0  0  0  0  0  0
   36.2530   22.1440   34.0890 H   0  0  0  0  0  0  0  0  0  0  0  0
   35.4880   20.2680   33.2190 C   0  0  0  0  0  3  0  0  0  0  0  0
   36.0260   19.2850   33.3440 H   0  0  0  0  0  0  0  0  0  0  0  0
   34.8490   20.2280   32.0030 O   0  0  0  0  0  0  0  0  0  0  0  0
   35.6100   20.9370   31.1050 C   0  0  0  0  0  3  0  0  0  0  0  0
   36.4820   20.2910   30.8080 H   0  0  0  0  0  0  0  0  0  0  0  0
  1  5  1  0  0  0  0
  2  1  1  0  0  0  0
  3  1  1  0  0  0  0
  4 10  1  0  0  0  0
  5  4  2  0  0  0  0
  6 12  1  0  0  0  0
  6  7  1  0  0  0  0
  7 13  1  0  0  0  0
  8 14  1  0  0  0  0
  8  7  2  0  0  0  0
  9  8  1  0  0  0  0
 10 11  1  0  0  0  0
 10  9  2  0  0  0  0
 11  6  2  0  0  0  0
 15  1  1  0  0  0  0
 17 16  2  6  0  0  0
 17 20  1  0  0  0  0
 17 15  1  0  0  0  0
 18 17  1  0  0  0  0
 19 18  1  0  0  0  0
 21 20  1  1  0  0  0
 21 22  1  0  0  0  0
 22 23  1  0  0  0  0
 24 22  1  0  0  0  0
 24 25  1  0  0  0  0
 26 24  1  0  0  0  0
 27 21  1  0  0  0  0
 27 26  1  0  0  0  0
 28 27  1  0  0  0  0
M  END
>  <minimizedAffinity>
-4.69230175

$$$$

 OpenBabel03262520343D

 28 29  0  0  1  0  0  0  0  0999 V2000
   37.4770   27.2500   33.6000 C   0  0  0  0  0  0  0  0  0  0  0  0
   38.4210   27.2760   32.9830 H   0  0  0  0  0  0  0  0  0  0  0  0
   37.3000   28.2850   33.9140 H   0  0  0  0  0  0  0  0  0  0  0  0
   38.6190   25.4080   34.7730 C   0  0  0  0  0  3  0  0  0  0  0  0
   37.7480   26.3550   34.7410 C   0  0  0  0  0  3  0  0  0  0  0  0
   39.7080   22.9050   37.2290 C   0  0  0  0  0  0  0  0  0  0  0  0
   38.9000   23.2110   38.3380 C   0  0  0  0  0  0  0  0  0  0  0  0
   37.9990   24.2780   38.2050 C   0  0  0  0  0  0  0  0  0  0  0  0
   37.9550   24.9580   37.0110 N   0  0  0  0  0  0  0  0  0  0  0  0
   38.7510   24.6180   35.9900 C   0  0  0  0  0  0  0  0  0  0  0  0
   39.6080   23.6120   36.0990 N   0  0  0  0  0  0  0  0  0  0  0  0
   40.3780   22.0750   37.3930 H   0  0  0  0  0  0  0  0  0  0  0  0
   38.8630   22.7460   39.2930 H   0  0  0  0  0  0  0  0  0  0  0  0
   37.3130   24.6330   38.9650 H   0  0  0  0  0  0  0  0  0  0  0  0
   36.4890   26.7360   32.7610 O   0  0  0  0  0  0  0  0  0  0  0  0
   38.5670   27.0810   31.3160 O   0  0  0  0  0  0  0  0  0  0  0  0
   37.1770   26.4430   31.2370 P   0  0  2  0  0  0  0  0  0  0  0  0
   36.2390   27.2430   30.0670 O   0  0  0  0  0  0  0  0  0  0  0  0
   36.6050   28.1500   29.8630 H   0  0  0  0  0  0  0  0  0  0  0  0
   37.2540   24.8100   30.8740 O   0  0  0  0  0  0  0  0  0  0  0  0
   36.8370   23.9620   31.8520 C   0  0  1  0  0  3  0  0  0  0  0  0
   35.5510   23.2380   31.5400 C   0  0  0  0  0  3  0  0  0  0  0  0
   34.9440   23.7600   30.7800 H   0  0  0  0  0  0  0  0  0  0  0  0
   36.0310   21.8770   31.1470 C   0  0  0  0  0  3  0  0  0  0  0  0
   35.6130   21.0600   31.8020 H   0  0  0  0  0  0  0  0  0  0  0  0
   37.4000   21.8290   31.2630 O   0  0  0  0  0  0  0  0  0  0  0  0
   37.7820   22.8210   32.1340 C   0  0  0  0  0  3  0  0  0  0  0  0
   37.5570   22.4670   33.1780 H   0  0  0  0  0  0  0  0  0  0  0  0
  1  3  1  0  0  0  0
  1  5  1  0  0  0  0
  2  1  1  0  0  0  0
  4 10  1  0  0  0  0
  5  4  2  0  0  0  0
  6 12  1  0  0  0  0
  6  7  1  0  0  0  0
  7 13  1  0  0  0  0
  8  7  2  0  0  0  0
  8 14  1  0  0  0  0
  9  8  1  0  0  0  0
 10 11  1  0  0  0  0
 10  9  2  0  0  0  0
 11  6  2  0  0  0  0
 15  1  1  0  0  0  0
 17 16  2  6  0  0  0
 17 15  1  0  0  0  0
 18 17  1  0  0  0  0
 19 18  1  0  0  0  0
 20 17  1  0  0  0  0
 21 20  1  6  0  0  0
 21 27  1  0  0  0  0
 22 21  1  0  0  0  0
 23 22  1  0  0  0  0
 24 26  1  0  0  0  0
 24 22  1  0  0  0  0
 24 25  1  0  0  0  0
 26 27  1  0  0  0  0
 27 28  1  0  0  0  0
M  END
>  <minimizedAffinity>
-4.43176079

$$$$

 OpenBabel03262520343D

 28 29  0  0  1  0  0  0  0  0999 V2000
   38.5020   25.6420   36.1980 C   0  0  0  0  0  0  0  0  0  0  0  0
   38.5450   26.7110   36.5530 H   0  0  0  0  0  0  0  0  0  0  0  0
   39.5400   25.3580   35.9870 H   0  0  0  0  0  0  0  0  0  0  0  0
   37.9560   25.0930   33.8580 C   0  0  0  0  0  3  0  0  0  0  0  0
   37.6600   25.6370   34.9870 C   0  0  0  0  0  3  0  0  0  0  0  0
   35.6610   24.2360   31.1240 C   0  0  0  0  0  0  0  0  0  0  0  0
   35.2010   25.5010   30.7190 C   0  0  0  0  0  0  0  0  0  0  0  0
   35.7000   26.6180   31.4050 C   0  0  0  0  0  0  0  0  0  0  0  0
   36.6000   26.4180   32.4240 N   0  0  0  0  0  0  0  0  0  0  0  0
   37.0000   25.1870   32.7640 C   0  0  0  0  0  0  0  0  0  0  0  0
   36.5390   24.1200   32.1250 N   0  0  0  0  0  0  0  0  0  0  0  0
   35.2430   23.4180   30.5580 H   0  0  0  0  0  0  0  0  0  0  0  0
   34.5130   25.7530   29.9490 H   0  0  0  0  0  0  0  0  0  0  0  0
   35.4430   27.6540   31.2120 H   0  0  0  0  0  0  0  0  0  0  0  0
   37.9180   24.9200   37.2380 O   0  0  0  0  0  0  0  0  0  0  0  0
   37.5590   22.5000   36.5050 O   0  0  0  0  0  0  0  0  0  0  0  0
   38.5850   23.3590   37.2510 P   0  0  2  0  0  0  0  0  0  0  0  0
   38.7050   22.8440   38.8660 O   0  0  0  0  0  0  0  0  0  0  0  0
   37.9040   22.3140   39.1420 H   0  0  0  0  0  0  0  0  0  0  0  0
   40.0950   23.3040   36.5310 O   0  0  0  0  0  0  0  0  0  0  0  0
   40.5640   22.0650   36.2230 C   0  0  1  0  0  3  0  0  0  0  0  0
   41.3520   21.9990   34.9390 C   0  0  0  0  0  3  0  0  0  0  0  0
   41.1160   22.8330   34.2530 H   0  0  0  0  0  0  0  0  0  0  0  0
   42.7650   21.9540   35.4250 C   0  0  0  0  0  3  0  0  0  0  0  0
   43.3130   21.0280   35.0890 H   0  0  0  0  0  0  0  0  0  0  0  0
   42.7700   21.9520   36.8000 O   0  0  0  0  0  0  0  0  0  0  0  0
   41.5420   21.5020   37.2240 C   0  0  0  0  0  3  0  0  0  0  0  0
   41.5240   20.3840   37.0980 H   0  0  0  0  0  0  0  0  0  0  0  0
  1  2  1  0  0  0  0
  1 15  1  0  0  0  0
  3  1  1  0  0  0  0
  4  5  2  0  0  0  0
  5  1  1  0  0  0  0
  6 11  1  0  0  0  0
  7  6  2  0  0  0  0
  7  8  1  0  0  0  0
  8  9  2  0  0  0  0
  9 10  1  0  0  0  0
 10  4  1  0  0  0  0
 11 10  2  0  0  0  0
 12  6  1  0  0  0  0
 13  7  1  0  0  0  0
 14  8  1  0  0  0  0
 15 17  1  0  0  0  0
 17 16  2  6  0  0  0
 17 18  1  0  0  0  0
 18 19  1  0  0  0  0
 20 17  1  0  0  0  0
 21 20  1  1  0  0  0
 21 27  1  0  0  0  0
 22 24  1  0  0  0  0
 22 21  1  0  0  0  0
 23 22  1  0  0  0  0
 24 26  1  0  0  0  0
 25 24  1  0  0  0  0
 26 27  1  0  0  0  0
 28 27  1  0  0  0  0
M  END
>  <minimizedAffinity>
-4.39916515

$$$$

 OpenBabel03262520343D

 28 29  0  0  1  0  0  0  0  0999 V2000
   37.8690   25.4140   33.1070 C   0  0  0  0  0  0  0  0  0  0  0  0
   37.5880   26.0620   32.2290 H   0  0  0  0  0  0  0  0  0  0  0  0
   38.9570   25.5110   33.2100 H   0  0  0  0  0  0  0  0  0  0  0  0
   36.5730   23.7090   31.8890 C   0  0  0  0  0  3  0  0  0  0  0  0
   37.4560   24.0410   32.7650 C   0  0  0  0  0  3  0  0  0  0  0  0
   36.7870   20.2160   30.7810 C   0  0  0  0  0  0  0  0  0  0  0  0
   35.6410   19.6500   31.3680 C   0  0  0  0  0  0  0  0  0  0  0  0
   34.8250   20.4970   32.1330 C   0  0  0  0  0  0  0  0  0  0  0  0
   35.1850   21.8170   32.2650 N   0  0  0  0  0  0  0  0  0  0  0  0
   36.2890   22.2960   31.6810 C   0  0  0  0  0  0  0  0  0  0  0  0
   37.0720   21.5100   30.9540 N   0  0  0  0  0  0  0  0  0  0  0  0
   37.3730   19.5160   30.2050 H   0  0  0  0  0  0  0  0  0  0  0  0
   35.2850   18.6500   31.3210 H   0  0  0  0  0  0  0  0  0  0  0  0
   33.9130   20.2120   32.6450 H   0  0  0  0  0  0  0  0  0  0  0  0
   37.1520   25.9160   34.1930 O   0  0  0  0  0  0  0  0  0  0  0  0
   37.7740   27.9720   35.5740 O   0  0  0  0  0  0  0  0  0  0  0  0
   38.2530   26.5390   35.3240 P   0  0  2  0  0  0  0  0  0  0  0  0
   39.7950   26.5600   34.6100 O   0  0  0  0  0  0  0  0  0  0  0  0
   39.9920   27.4470   34.1920 H   0  0  0  0  0  0  0  0  0  0  0  0
   38.3000   25.6370   36.7340 O   0  0  0  0  0  0  0  0  0  0  0  0
   38.0700   24.3030   36.5960 C   0  0  1  0  0  3  0  0  0  0  0  0
   39.2640   23.5120   36.1230 C   0  0  0  0  0  3  0  0  0  0  0  0
   40.0060   24.1380   35.5960 H   0  0  0  0  0  0  0  0  0  0  0  0
   39.7500   22.8700   37.3830 C   0  0  0  0  0  3  0  0  0  0  0  0
   39.7560   21.7450   37.3260 H   0  0  0  0  0  0  0  0  0  0  0  0
   38.9160   23.2200   38.4190 O   0  0  0  0  0  0  0  0  0  0  0  0
   37.7100   23.5960   37.8790 C   0  0  0  0  0  3  0  0  0  0  0  0
   37.1580   22.6600   37.5860 H   0  0  0  0  0  0  0  0  0  0  0  0
  1  3  1  0  0  0  0
  1 15  1  0  0  0  0
  2  1  1  0  0  0  0
  4  5  2  0  0  0  0
  5  1  1  0  0  0  0
  6 11  2  0  0  0  0
  6  7  1  0  0  0  0
  7  8  2  0  0  0  0
  8  9  1  0  0  0  0
  8 14  1  0  0  0  0
 10  4  1  0  0  0  0
 10  9  2  0  0  0  0
 11 10  1  0  0  0  0
 12  6  1  0  0  0  0
 13  7  1  0  0  0  0
 15 17  1  0  0  0  0
 17 16  2  1  0  0  0
 17 20  1  0  0  0  0
 18 17  1  0  0  0  0
 19 18  1  0  0  0  0
 21 20  1  1  0  0  0
 21 27  1  0  0  0  0
 22 21  1  0  0  0  0
 22 24  1  0  0  0  0
 23 22  1  0  0  0  0
 24 26  1  0  0  0  0
 25 24  1  0  0  0  0
 27 26  1  0  0  0  0
 28 27  1  0  0  0  0
M  END
>  <minimizedAffinity>
-4.38085938

$$$$

 OpenBabel03262520343D

 28 29  0  0  1  0  0  0  0  0999 V2000
   37.6870   26.7250   32.5870 C   0  0  0  0  0  0  0  0  0  0  0  0
   36.6990   27.0630   33.0110 H   0  0  0  0  0  0  0  0  0  0  0  0
   37.8480   27.3340   31.6890 H   0  0  0  0  0  0  0  0  0  0  0  0
   36.5500   24.7430   31.6670 C   0  0  0  0  0  3  0  0  0  0  0  0
   37.5420   25.2910   32.2760 C   0  0  0  0  0  3  0  0  0  0  0  0
   37.6140   21.3560   30.7290 C   0  0  0  0  0  0  0  0  0  0  0  0
   36.4890   20.5880   31.0770 C   0  0  0  0  0  0  0  0  0  0  0  0
   35.3910   21.2650   31.6290 C   0  0  0  0  0  0  0  0  0  0  0  0
   35.4740   22.6270   31.7960 N   0  0  0  0  0  0  0  0  0  0  0  0
   36.5730   23.3040   31.4440 C   0  0  0  0  0  0  0  0  0  0  0  0
   37.6200   22.6790   30.9220 N   0  0  0  0  0  0  0  0  0  0  0  0
   38.4230   20.7790   30.3090 H   0  0  0  0  0  0  0  0  0  0  0  0
   36.3350   19.5400   30.9850 H   0  0  0  0  0  0  0  0  0  0  0  0
   34.4570   20.8150   31.9460 H   0  0  0  0  0  0  0  0  0  0  0  0
   38.6270   26.9450   33.5950 O   0  0  0  0  0  0  0  0  0  0  0  0
   36.6470   28.0220   34.7950 O   0  0  0  0  0  0  0  0  0  0  0  0
   37.8080   27.0640   35.0770 P   0  0  2  0  0  0  0  0  0  0  0  0
   38.8650   27.7550   36.2140 O   0  0  0  0  0  0  0  0  0  0  0  0
   38.7460   28.7460   36.2690 H   0  0  0  0  0  0  0  0  0  0  0  0
   37.2770   25.5780   35.6340 O   0  0  0  0  0  0  0  0  0  0  0  0
   38.1860   24.8420   36.3280 C   0  0  1  0  0  3  0  0  0  0  0  0
   37.6050   23.6460   37.0400 C   0  0  0  0  0  3  0  0  0  0  0  0
   36.5200   23.7480   37.2250 H   0  0  0  0  0  0  0  0  0  0  0  0
   37.9960   22.5130   36.1470 C   0  0  0  0  0  3  0  0  0  0  0  0
   38.6310   21.7430   36.6710 H   0  0  0  0  0  0  0  0  0  0  0  0
   38.7340   23.0010   35.0950 O   0  0  0  0  0  0  0  0  0  0  0  0
   39.2590   24.2120   35.4760 C   0  0  0  0  0  3  0  0  0  0  0  0
   40.1320   24.0090   36.1570 H   0  0  0  0  0  0  0  0  0  0  0  0
  1  2  1  0  0  0  0
  1 15  1  0  0  0  0
  3  1  1  0  0  0  0
  4  5  2  0  0  0  0
  5  1  1  0  0  0  0
  6 11  2  0  0  0  0
  6  7  1  0  0  0  0
  7  8  2  0  0  0  0
  8  9  1  0  0  0  0
  8 14  1  0  0  0  0
 10  4  1  0  0  0  0
 10  9  2  0  0  0  0
 11 10  1  0  0  0  0
 12  6  1  0  0  0  0
 13  7  1  0  0  0  0
 15 17  1  0  0  0  0
 17 16  2  6  0  0  0
 17 20  1  0  0  0  0
 17 18  1  0  0  0  0
 18 19  1  0  0  0  0
 21 20  1  6  0  0  0
 21 22  1  0  0  0  0
 22 23  1  0  0  0  0
 24 25  1  0  0  0  0
 24 22  1  0  0  0  0
 26 27  1  0  0  0  0
 26 24  1  0  0  0  0
 27 28  1  0  0  0  0
 27 21  1  0  0  0  0
M  END
>  <minimizedAffinity>
-4.35295677

$$$$

 OpenBabel03262520343D

 28 29  0  0  1  0  0  0  0  0999 V2000
   36.4320   28.1770   33.6000 C   0  0  0  0  0  0  0  0  0  0  0  0
   35.7600   27.2750   33.6740 H   0  0  0  0  0  0  0  0  0  0  0  0
   37.4280   27.8290   33.9000 H   0  0  0  0  0  0  0  0  0  0  0  0
   34.7720   29.8150   34.3930 C   0  0  0  0  0  3  0  0  0  0  0  0
   35.8860   29.1850   34.5270 C   0  0  0  0  0  3  0  0  0  0  0  0
   34.8860   32.4570   36.9400 C   0  0  0  0  0  0  0  0  0  0  0  0
   33.5340   32.5660   37.3110 C   0  0  0  0  0  0  0  0  0  0  0  0
   32.6190   31.7200   36.6680 C   0  0  0  0  0  0  0  0  0  0  0  0
   33.0880   30.8410   35.7210 N   0  0  0  0  0  0  0  0  0  0  0  0
   34.3880   30.7840   35.4110 C   0  0  0  0  0  0  0  0  0  0  0  0
   35.2670   31.5770   36.0100 N   0  0  0  0  0  0  0  0  0  0  0  0
   35.5400   33.1320   37.4710 H   0  0  0  0  0  0  0  0  0  0  0  0
   33.0820   33.2090   38.0260 H   0  0  0  0  0  0  0  0  0  0  0  0
   31.5500   31.6850   36.8430 H   0  0  0  0  0  0  0  0  0  0  0  0
   36.3560   28.5980   32.2720 O   0  0  0  0  0  0  0  0  0  0  0  0
   38.5250   27.7340   31.2350 O   0  0  0  0  0  0  0  0  0  0  0  0
   37.0320   27.3930   31.2860 P   0  0  2  0  0  0  0  0  0  0  0  0
   36.3540   27.5340   29.7340 O   0  0  0  0  0  0  0  0  0  0  0  0
   36.9240   28.0970   29.1350 H   0  0  0  0  0  0  0  0  0  0  0  0
   36.7580   25.8530   31.8810 O   0  0  0  0  0  0  0  0  0  0  0  0
   36.4910   24.8940   30.9540 C   0  0  1  0  0  3  0  0  0  0  0  0
   37.6870   24.0730   30.5450 C   0  0  0  0  0  3  0  0  0  0  0  0
   38.6440   24.5900   30.7410 H   0  0  0  0  0  0  0  0  0  0  0  0
   37.4840   22.8000   31.3040 C   0  0  0  0  0  3  0  0  0  0  0  0
   37.4080   21.8980   30.6330 H   0  0  0  0  0  0  0  0  0  0  0  0
   36.3080   22.8800   32.0120 O   0  0  0  0  0  0  0  0  0  0  0  0
   35.5210   23.8340   31.4140 C   0  0  0  0  0  3  0  0  0  0  0  0
   35.0770   23.3800   30.4850 H   0  0  0  0  0  0  0  0  0  0  0  0
  1  2  1  0  0  0  0
  1  3  1  0  0  0  0
  1  5  1  0  0  0  0
  4  5  2  0  0  0  0
  4 10  1  0  0  0  0
  6  7  1  0  0  0  0
  6 12  1  0  0  0  0
  7 13  1  0  0  0  0
  8 14  1  0  0  0  0
  8  7  2  0  0  0  0
  9  8  1  0  0  0  0
 10  9  2  0  0  0  0
 10 11  1  0  0  0  0
 11  6  2  0  0  0  0
 15  1  1  0  0  0  0
 17 16  2  6  0  0  0
 17 20  1  0  0  0  0
 17 15  1  0  0  0  0
 18 17  1  0  0  0  0
 19 18  1  0  0  0  0
 21 27  1  0  0  0  0
 21 20  1  1  0  0  0
 22 23  1  0  0  0  0
 22 21  1  0  0  0  0
 22 24  1  0  0  0  0
 24 26  1  0  0  0  0
 25 24  1  0  0  0  0
 27 26  1  0  0  0  0
 28 27  1  0  0  0  0
M  END
>  <minimizedAffinity>
-4.28353119

$$$$

 OpenBabel03262520343D

 28 29  0  0  1  0  0  0  0  0999 V2000
   39.2790   24.1490   35.1360 C   0  0  0  0  0  0  0  0  0  0  0  0
   39.7890   24.7250   34.3120 H   0  0  0  0  0  0  0  0  0  0  0  0
   40.0570   23.5190   35.5830 H   0  0  0  0  0  0  0  0  0  0  0  0
   38.2410   22.8650   33.3070 C   0  0  0  0  0  3  0  0  0  0  0  0
   38.2120   23.3580   34.4960 C   0  0  0  0  0  3  0  0  0  0  0  0
   35.5270   21.5510   31.2140 C   0  0  0  0  0  0  0  0  0  0  0  0
   34.9230   20.6120   32.0690 C   0  0  0  0  0  0  0  0  0  0  0  0
   35.4750   20.4610   33.3500 C   0  0  0  0  0  0  0  0  0  0  0  0
   36.5610   21.2280   33.6950 N   0  0  0  0  0  0  0  0  0  0  0  0
   37.0910   22.1060   32.8350 C   0  0  0  0  0  0  0  0  0  0  0  0
   36.5820   22.2620   31.6200 N   0  0  0  0  0  0  0  0  0  0  0  0
   35.0570   21.6220   30.2440 H   0  0  0  0  0  0  0  0  0  0  0  0
   34.0880   19.9800   31.8920 H   0  0  0  0  0  0  0  0  0  0  0  0
   35.1240   19.7820   34.1200 H   0  0  0  0  0  0  0  0  0  0  0  0
   38.7610   25.1100   36.0050 O   0  0  0  0  0  0  0  0  0  0  0  0
   39.9820   26.6510   34.3750 O   0  0  0  0  0  0  0  0  0  0  0  0
   38.6810   26.5920   35.1820 P   0  0  2  0  0  0  0  0  0  0  0  0
   38.6590   27.8410   36.3350 O   0  0  0  0  0  0  0  0  0  0  0  0
   39.5780   28.1900   36.5130 H   0  0  0  0  0  0  0  0  0  0  0  0
   37.3280   26.7070   34.2030 O   0  0  0  0  0  0  0  0  0  0  0  0
   37.5400   27.1730   32.9440 C   0  0  1  0  0  3  0  0  0  0  0  0
   37.3540   26.1430   31.8590 C   0  0  0  0  0  3  0  0  0  0  0  0
   37.4560   25.1090   32.2340 H   0  0  0  0  0  0  0  0  0  0  0  0
   36.0080   26.4890   31.3070 C   0  0  0  0  0  3  0  0  0  0  0  0
   36.0370   26.7430   30.2090 H   0  0  0  0  0  0  0  0  0  0  0  0
   35.5210   27.5940   31.9660 O   0  0  0  0  0  0  0  0  0  0  0  0
   36.5900   28.2620   32.5120 C   0  0  0  0  0  3  0  0  0  0  0  0
   37.1020   28.8270   31.6840 H   0  0  0  0  0  0  0  0  0  0  0  0
  1  3  1  0  0  0  0
  1 15  1  0  0  0  0
  2  1  1  0  0  0  0
  4  5  2  0  0  0  0
  5  1  1  0  0  0  0
  6 11  2  0  0  0  0
  6  7  1  0  0  0  0
  7  8  2  0  0  0  0
  8  9  1  0  0  0  0
  8 14  1  0  0  0  0
 10  4  1  0  0  0  0
 10  9  2  0  0  0  0
 11 10  1  0  0  0  0
 12  6  1  0  0  0  0
 13  7  1  0  0  0  0
 17 16  2  6  0  0  0
 17 15  1  0  0  0  0
 17 18  1  0  0  0  0
 18 19  1  0  0  0  0
 20 17  1  0  0  0  0
 21 20  1  1  0  0  0
 22 23  1  0  0  0  0
 22 21  1  0  0  0  0
 24 22  1  0  0  0  0
 24 26  1  0  0  0  0
 25 24  1  0  0  0  0
 26 27  1  0  0  0  0
 27 21  1  0  0  0  0
 28 27  1  0  0  0  0
M  END
>  <minimizedAffinity>
-4.26786137

$$$$

 OpenBabel03262520343D

 28 29  0  0  1  0  0  0  0  0999 V2000
   37.4470   27.0760   33.3440 C   0  0  0  0  0  0  0  0  0  0  0  0
   38.1770   26.6090   34.0640 H   0  0  0  0  0  0  0  0  0  0  0  0
   38.0590   27.5680   32.5780 H   0  0  0  0  0  0  0  0  0  0  0  0
   35.9440   29.0060   33.6470 C   0  0  0  0  0  3  0  0  0  0  0  0
   36.6450   28.0360   34.1240 C   0  0  0  0  0  3  0  0  0  0  0  0
   33.2470   30.5970   35.5640 C   0  0  0  0  0  0  0  0  0  0  0  0
   33.9530   31.5280   36.3460 C   0  0  0  0  0  0  0  0  0  0  0  0
   35.3450   31.5790   36.1880 C   0  0  0  0  0  0  0  0  0  0  0  0
   35.9380   30.7260   35.2870 N   0  0  0  0  0  0  0  0  0  0  0  0
   35.2110   29.8610   34.5700 C   0  0  0  0  0  0  0  0  0  0  0  0
   33.8940   29.7990   34.7080 N   0  0  0  0  0  0  0  0  0  0  0  0
   32.1810   30.6060   35.7300 H   0  0  0  0  0  0  0  0  0  0  0  0
   33.5840   32.2220   37.0620 H   0  0  0  0  0  0  0  0  0  0  0  0
   36.0240   32.2390   36.7160 H   0  0  0  0  0  0  0  0  0  0  0  0
   36.6690   26.0250   32.8580 O   0  0  0  0  0  0  0  0  0  0  0  0
   38.2340   26.7030   30.9570 O   0  0  0  0  0  0  0  0  0  0  0  0
   37.0000   25.8290   31.2050 P   0  0  2  0  0  0  0  0  0  0  0  0
   35.6790   26.4310   30.3220 O   0  0  0  0  0  0  0  0  0  0  0  0
   35.8190   27.3850   30.0580 H   0  0  0  0  0  0  0  0  0  0  0  0
   37.2690   24.2290   30.7930 O   0  0  0  0  0  0  0  0  0  0  0  0
   36.9810   23.3100   31.7530 C   0  0  1  0  0  3  0  0  0  0  0  0
   35.5670   22.7880   31.7100 C   0  0  0  0  0  3  0  0  0  0  0  0
   34.8770   23.4750   31.1900 H   0  0  0  0  0  0  0  0  0  0  0  0
   35.7340   21.4470   31.0700 C   0  0  0  0  0  3  0  0  0  0  0  0
   35.3720   20.6020   31.7230 H   0  0  0  0  0  0  0  0  0  0  0  0
   37.0690   21.2260   30.8240 O   0  0  0  0  0  0  0  0  0  0  0  0
   37.7900   22.0400   31.6640 C   0  0  0  0  0  3  0  0  0  0  0  0
   37.7750   21.5760   32.6890 H   0  0  0  0  0  0  0  0  0  0  0  0
  1  2  1  0  0  0  0
  1  5  1  0  0  0  0
  3  1  1  0  0  0  0
  4  5  2  0  0  0  0
  4 10  1  0  0  0  0
  6 12  1  0  0  0  0
  6  7  1  0  0  0  0
  7 13  1  0  0  0  0
  8  7  2  0  0  0  0
  8 14  1  0  0  0  0
  9  8  1  0  0  0  0
 10 11  1  0  0  0  0
 10  9  2  0  0  0  0
 11  6  2  0  0  0  0
 15  1  1  0  0  0  0
 17 16  2  6  0  0  0
 17 15  1  0  0  0  0
 18 17  1  0  0  0  0
 19 18  1  0  0  0  0
 20 17  1  0  0  0  0
 21 20  1  6  0  0  0
 22 21  1  0  0  0  0
 23 22  1  0  0  0  0
 24 22  1  0  0  0  0
 24 25  1  0  0  0  0
 26 24  1  0  0  0  0
 26 27  1  0  0  0  0
 27 21  1  0  0  0  0
 27 28  1  0  0  0  0
M  END
>  <minimizedAffinity>
-4.23349047

$$$$

 OpenBabel03262520343D

 28 29  0  0  1  0  0  0  0  0999 V2000
   35.3990   25.5760   30.7590 C   0  0  0  0  0  0  0  0  0  0  0  0
   34.3730   25.8230   30.3640 H   0  0  0  0  0  0  0  0  0  0  0  0
   36.0740   25.6500   29.8980 H   0  0  0  0  0  0  0  0  0  0  0  0
   36.1860   23.2680   31.1160 C   0  0  0  0  0  3  0  0  0  0  0  0
   35.3220   24.2050   31.2970 C   0  0  0  0  0  3  0  0  0  0  0  0
   35.4360   19.7070   31.5980 C   0  0  0  0  0  0  0  0  0  0  0  0
   35.5190   19.5750   32.9950 C   0  0  0  0  0  0  0  0  0  0  0  0
   35.8330   20.7260   33.7330 C   0  0  0  0  0  0  0  0  0  0  0  0
   36.0400   21.9060   33.0580 N   0  0  0  0  0  0  0  0  0  0  0  0
   35.9460   21.9670   31.7250 C   0  0  0  0  0  0  0  0  0  0  0  0
   35.6510   20.8890   31.0120 N   0  0  0  0  0  0  0  0  0  0  0  0
   35.1910   18.7880   31.0870 H   0  0  0  0  0  0  0  0  0  0  0  0
   35.3760   18.7130   33.6000 H   0  0  0  0  0  0  0  0  0  0  0  0
   35.9330   20.7860   34.8110 H   0  0  0  0  0  0  0  0  0  0  0  0
   35.6550   26.5120   31.7610 O   0  0  0  0  0  0  0  0  0  0  0  0
   37.2770   28.4830   31.8560 O   0  0  0  0  0  0  0  0  0  0  0  0
   37.2890   26.9630   31.6720 P   0  0  2  0  0  0  0  0  0  0  0  0
   37.8640   26.5730   30.1200 O   0  0  0  0  0  0  0  0  0  0  0  0
   37.7980   27.3520   29.4990 H   0  0  0  0  0  0  0  0  0  0  0  0
   38.2270   26.1960   32.8270 O   0  0  0  0  0  0  0  0  0  0  0  0
   37.5500   25.6160   33.8550 C   0  0  1  0  0  3  0  0  0  0  0  0
   38.2530   24.4340   34.4730 C   0  0  0  0  0  3  0  0  0  0  0  0
   38.9900   23.9740   33.7900 H   0  0  0  0  0  0  0  0  0  0  0  0
   38.8210   25.0120   35.7290 C   0  0  0  0  0  3  0  0  0  0  0  0
   38.4470   24.4930   36.6570 H   0  0  0  0  0  0  0  0  0  0  0  0
   38.4530   26.3330   35.8250 O   0  0  0  0  0  0  0  0  0  0  0  0
   37.3350   26.5150   35.0470 C   0  0  0  0  0  3  0  0  0  0  0  0
   36.4530   26.0990   35.6090 H   0  0  0  0  0  0  0  0  0  0  0  0
  1  5  1  0  0  0  0
  1 15  1  0  0  0  0
  2  1  1  0  0  0  0
  3  1  1  0  0  0  0
  4  5  2  0  0  0  0
  4 10  1  0  0  0  0
  6  7  1  0  0  0  0
  7 13  1  0  0  0  0
  7  8  2  0  0  0  0
  8 14  1  0  0  0  0
  9  8  1  0  0  0  0
 10  9  2  0  0  0  0
 11  6  2  0  0  0  0
 11 10  1  0  0  0  0
 12  6  1  0  0  0  0
 17 15  1  0  0  0  0
 17 16  2  1  0  0  0
 17 20  1  0  0  0  0
 18 17  1  0  0  0  0
 19 18  1  0  0  0  0
 21 20  1  6  0  0  0
 21 22  1  0  0  0  0
 21 27  1  0  0  0  0
 22 24  1  0  0  0  0
 23 22  1  0  0  0  0
 24 26  1  0  0  0  0
 24 25  1  0  0  0  0
 27 28  1  0  0  0  0
 27 26  1  0  0  0  0
M  END
>  <minimizedAffinity>
-4.19901991

$$$$
