
 OpenBabel03272508063D

 34 37  0  0  1  0  0  0  0  0999 V2000
   38.9070   30.8600   45.6990 C   0  0  0  0  0  0  0  0  0  0  0  0
   40.1410   31.4020   45.9440 C   0  0  0  0  0  0  0  0  0  0  0  0
   40.9370   31.3420   44.8050 C   0  0  0  0  0  0  0  0  0  0  0  0
   40.1270   30.7510   43.8980 N   0  0  0  0  0  0  0  0  0  0  0  0
   38.9410   30.4650   44.4070 N   0  0  0  0  0  0  0  0  0  0  0  0
   40.4860   31.8270   46.8810 H   0  0  0  0  0  0  0  0  0  0  0  0
   41.9410   31.6630   44.6220 H   0  0  0  0  0  0  0  0  0  0  0  0
   37.8030   30.7380   46.6310 C   0  0  0  0  0  0  0  0  0  0  0  0
   38.0480   30.9970   48.0060 C   0  0  0  0  0  0  0  0  0  0  0  0
   36.9820   30.8770   48.8870 C   0  0  0  0  0  0  0  0  0  0  0  0
   35.7640   30.5190   48.3830 N   0  0  0  0  0  0  0  0  0  0  0  0
   35.5520   30.2770   47.0670 C   0  0  0  0  0  0  0  0  0  0  0  0
   36.5790   30.3890   46.2010 N   0  0  0  0  0  0  0  0  0  0  0  0
   39.0330   31.2790   48.3590 H   0  0  0  0  0  0  0  0  0  0  0  0
   34.5510   29.9990   46.7660 H   0  0  0  0  0  0  0  0  0  0  0  0
   37.2120   31.1430   50.3280 C   0  0  0  0  0  0  0  0  0  0  0  0
   36.6850   32.3890   50.5640 F   0  0  0  0  0  0  0  0  0  0  0  0
   36.5610   30.2310   51.1470 F   0  0  0  0  0  0  0  0  0  0  0  0
   38.5710   31.1570   50.6360 F   0  0  0  0  0  0  0  0  0  0  0  0
   40.4200   30.4220   42.5030 C   0  0  0  0  0  0  0  0  0  0  0  0
   40.0520   31.2860   41.4570 C   0  0  0  0  0  0  0  0  0  0  0  0
   40.3480   30.9310   40.1740 C   0  0  0  0  0  0  0  0  0  0  0  0
   41.0190   29.7010   39.9320 C   0  0  0  0  0  0  0  0  0  0  0  0
   41.2370   29.0170   41.6430 S   0  0  0  0  0  0  0  0  0  0  0  0
   39.5410   32.2270   41.6040 H   0  0  0  0  0  0  0  0  0  0  0  0
   40.1600   31.4390   39.2450 H   0  0  0  0  0  0  0  0  0  0  0  0
   41.5210   28.9170   38.8810 C   0  0  1  0  0  3  0  0  0  0  0  0
   41.4970   29.6860   37.5910 C   0  0  0  0  0  3  0  0  0  0  0  0
   40.6550   30.4030   37.6570 H   0  0  0  0  0  0  0  0  0  0  0  0
   42.8370   30.3400   37.5480 C   0  0  0  0  0  3  0  0  0  0  0  0
   42.7420   31.4450   37.5490 H   0  0  0  0  0  0  0  0  0  0  0  0
   43.5100   29.9880   38.7110 O   0  0  0  0  0  0  0  0  0  0  0  0
   43.0290   28.7650   39.1130 C   0  0  0  0  0  3  0  0  0  0  0  0
   43.2670   28.6090   40.1830 H   0  0  0  0  0  0  0  0  0  0  0  0
  1  2  1  0  0  0  0
  1  8  1  0  0  0  0
  2  6  1  0  0  0  0
  3  2  2  0  0  0  0
  4  5  1  0  0  0  0
  4  3  1  0  0  0  0
  5  1  2  0  0  0  0
  7  3  1  0  0  0  0
  8  9  1  0  0  0  0
  9 14  1  0  0  0  0
  9 10  2  0  0  0  0
 10 16  1  0  0  0  0
 11 10  1  0  0  0  0
 12 11  2  0  0  0  0
 13  8  2  0  0  0  0
 13 12  1  0  0  0  0
 15 12  1  0  0  0  0
 16 17  1  0  0  0  0
 16 19  1  0  0  0  0
 16 18  1  0  0  0  0
 20  4  1  0  0  0  0
 21 25  1  0  0  0  0
 21 20  2  0  0  0  0
 22 21  1  0  0  0  0
 23 22  2  0  0  0  0
 23 24  1  0  0  0  0
 24 20  1  0  0  0  0
 26 22  1  0  0  0  0
 27 33  1  0  0  0  0
 27 23  1  1  0  0  0
 28 29  1  0  0  0  0
 28 27  1  0  0  0  0
 30 31  1  0  0  0  0
 30 28  1  0  0  0  0
 30 32  1  0  0  0  0
 32 33  1  0  0  0  0
 33 34  1  0  0  0  0
M  END
>  <minimizedAffinity>
-6.10026646

>  <minimizedRMSD>
0.228855759

$$$$
