
 OpenBabel03272505423D

 44 47  0  0  1  0  0  0  0  0999 V2000
   35.7450   30.2280   46.5220 C   0  0  0  0  0  0  0  0  0  0  0  0
   34.4100   29.8320   46.5970 C   0  0  0  0  0  0  0  0  0  0  0  0
   33.7440   29.4710   45.4400 C   0  0  0  0  0  0  0  0  0  0  0  0
   34.3280   29.4770   44.1890 C   0  0  0  0  0  0  0  0  0  0  0  0
   35.6580   29.8720   44.1120 C   0  0  0  0  0  0  0  0  0  0  0  0
   36.3060   30.2300   45.2850 C   0  0  0  0  0  0  0  0  0  0  0  0
   33.8720   29.7960   47.5390 H   0  0  0  0  0  0  0  0  0  0  0  0
   32.7070   29.1660   45.5280 H   0  0  0  0  0  0  0  0  0  0  0  0
   33.7560   29.1830   43.3150 H   0  0  0  0  0  0  0  0  0  0  0  0
   36.0640   29.8610   43.1240 H   0  0  0  0  0  0  0  0  0  0  0  0
   37.6530   30.6040   45.0090 N   0  0  0  0  0  0  0  0  0  0  0  0
   38.9540   30.0060   45.0440 C   0  0  0  0  0  0  0  0  0  0  0  0
   39.8310   30.8770   45.9130 C   0  0  0  0  0  0  0  0  0  0  0  0
   40.0680   32.1110   45.2020 N   0  0  0  0  0  0  0  0  0  0  0  0
   39.0700   32.4280   44.2400 C   0  0  0  0  0  0  0  0  0  0  0  0
   37.6920   31.9610   44.5670 C   0  0  0  0  0  0  0  0  0  0  0  0
   38.9070   28.9640   45.3950 H   0  0  0  0  0  0  0  0  0  0  0  0
   39.3990   30.0560   44.0260 H   0  0  0  0  0  0  0  0  0  0  0  0
   39.7580   30.8550   46.9520 H   0  0  0  0  0  0  0  0  0  0  0  0
   40.8290   30.3310   45.7550 H   0  0  0  0  0  0  0  0  0  0  0  0
   40.9980   32.2480   44.8050 H   0  0  0  0  0  0  0  0  0  0  0  0
   39.0070   33.5580   44.2260 H   0  0  0  0  0  0  0  0  0  0  0  0
   39.4080   32.1740   43.2140 H   0  0  0  0  0  0  0  0  0  0  0  0
   37.0710   32.6850   45.0830 H   0  0  0  0  0  0  0  0  0  0  0  0
   37.1990   31.9020   43.5430 H   0  0  0  0  0  0  0  0  0  0  0  0
   37.1400   30.1620   49.8890 C   0  0  0  0  0  0  0  0  0  0  0  0
   37.8140   31.3920   49.9630 C   0  0  0  0  0  0  0  0  0  0  0  0
   37.7830   32.2320   48.8490 C   0  0  0  0  0  0  0  0  0  0  0  0
   37.0890   31.7720   47.7750 N   0  0  0  0  0  0  0  0  0  0  0  0
   36.4570   30.6120   47.7130 C   0  0  0  0  0  0  0  0  0  0  0  0
   36.4820   29.7950   48.7830 N   0  0  0  0  0  0  0  0  0  0  0  0
   38.3560   31.7240   50.8340 H   0  0  0  0  0  0  0  0  0  0  0  0
   38.4800   33.5200   48.9080 C   0  0  2  0  0  3  0  0  0  0  0  0
   39.4740   33.7160   47.7880 C   0  0  0  0  0  3  0  0  0  0  0  0
   39.0360   34.1210   46.8580 H   0  0  0  0  0  0  0  0  0  0  0  0
   40.3610   34.7850   48.4060 C   0  0  0  0  0  3  0  0  0  0  0  0
   41.4350   34.5780   48.2250 H   0  0  0  0  0  0  0  0  0  0  0  0
   40.0990   34.8290   49.7490 O   0  0  0  0  0  0  0  0  0  0  0  0
   39.4290   33.6540   50.0940 C   0  0  0  0  0  3  0  0  0  0  0  0
   40.2170   32.8630   50.0710 H   0  0  0  0  0  0  0  0  0  0  0  0
   37.1890   29.2880   51.1160 C   0  0  0  0  0  0  0  0  0  0  0  0
   35.8650   28.9620   51.4620 F   0  0  0  0  0  0  0  0  0  0  0  0
   37.9260   28.2060   50.8400 F   0  0  0  0  0  0  0  0  0  0  0  0
   37.6740   30.0340   52.1600 F   0  0  0  0  0  0  0  0  0  0  0  0
  1  2  1  0  0  0  0
  1 30  1  0  0  0  0
  2  7  1  0  0  0  0
  3  8  1  0  0  0  0
  3  2  2  0  0  0  0
  4  3  1  0  0  0  0
  5  4  2  0  0  0  0
  5  6  1  0  0  0  0
  6  1  2  0  0  0  0
  9  4  1  0  0  0  0
 10  5  1  0  0  0  0
 11 12  1  0  0  0  0
 11  6  1  0  0  0  0
 12 17  1  0  0  0  0
 12 13  1  0  0  0  0
 13 19  1  0  0  0  0
 14 13  1  0  0  0  0
 15 16  1  0  0  0  0
 15 14  1  0  0  0  0
 16 11  1  0  0  0  0
 16 24  1  0  0  0  0
 18 12  1  0  0  0  0
 20 13  1  0  0  0  0
 21 14  1  0  0  0  0
 22 15  1  0  0  0  0
 23 15  1  0  0  0  0
 25 16  1  0  0  0  0
 26 27  1  0  0  0  0
 26 41  1  0  0  0  0
 27 32  1  0  0  0  0
 28 27  2  0  0  0  0
 29 28  1  0  0  0  0
 30 29  2  0  0  0  0
 30 31  1  0  0  0  0
 31 26  2  0  0  0  0
 33 28  1  6  0  0  0
 33 39  1  0  0  0  0
 34 36  1  0  0  0  0
 34 33  1  0  0  0  0
 35 34  1  0  0  0  0
 36 38  1  0  0  0  0
 37 36  1  0  0  0  0
 38 39  1  0  0  0  0
 40 39  1  0  0  0  0
 41 42  1  0  0  0  0
 41 44  1  0  0  0  0
 43 41  1  0  0  0  0
M  END
>  <minimizedAffinity>
-5.81154537

>  <minimizedRMSD>
0.564236999

$$$$
