
 OpenBabel03272508093D

 23 24  0  0  1  0  0  0  0  0999 V2000
   39.1130   32.6710   48.1160 O   0  0  0  0  0  0  0  0  0  0  0  0
   38.6310   31.6830   47.1010 P   0  0  2  0  0  0  0  0  0  0  0  0
   37.5590   32.4510   46.0310 O   0  0  0  0  0  0  0  0  0  0  0  0
   37.1520   33.2200   46.5420 H   0  0  0  0  0  0  0  0  0  0  0  0
   37.9380   30.2830   47.7510 O   0  0  0  0  0  0  0  0  0  0  0  0
   37.3070   30.1760   51.4010 C   0  0  0  0  0  0  0  0  0  0  0  0
   37.9950   30.4840   50.2300 C   0  0  0  0  0  0  0  0  0  0  0  0
   37.4580   30.0980   49.0060 C   0  0  0  0  0  0  0  0  0  0  0  0
   36.2610   29.4230   49.0220 N   0  0  0  0  0  0  0  0  0  0  0  0
   35.6280   29.1450   50.1860 C   0  0  0  0  0  0  0  0  0  0  0  0
   36.1390   29.5140   51.3580 N   0  0  0  0  0  0  0  0  0  0  0  0
   37.8590   30.5460   52.2600 H   0  0  0  0  0  0  0  0  0  0  0  0
   38.9350   31.0090   50.1380 H   0  0  0  0  0  0  0  0  0  0  0  0
   34.6850   28.6140   50.2180 H   0  0  0  0  0  0  0  0  0  0  0  0
   39.9810   31.2190   46.1700 O   0  0  0  0  0  0  0  0  0  0  0  0
   39.5680   31.1160   44.8550 C   0  0  1  0  0  3  0  0  0  0  0  0
   40.6000   31.4710   43.8390 C   0  0  0  0  0  3  0  0  0  0  0  0
   41.6370   31.5610   44.2710 H   0  0  0  0  0  0  0  0  0  0  0  0
   40.5350   30.3000   42.8670 C   0  0  0  0  0  3  0  0  0  0  0  0
   41.2800   29.5160   43.0940 H   0  0  0  0  0  0  0  0  0  0  0  0
   39.2560   29.7610   43.0690 O   0  0  0  0  0  0  0  0  0  0  0  0
   39.1840   29.7030   44.4780 C   0  0  0  0  0  3  0  0  0  0  0  0
   38.1230   29.4640   44.7440 H   0  0  0  0  0  0  0  0  0  0  0  0
  2  5  1  0  0  0  0
  2  1  2  1  0  0  0
  3  4  1  0  0  0  0
  3  2  1  0  0  0  0
  5  8  1  0  0  0  0
  6 12  1  0  0  0  0
  7  6  2  0  0  0  0
  8  9  2  0  0  0  0
  8  7  1  0  0  0  0
  9 10  1  0  0  0  0
 10 14  1  0  0  0  0
 10 11  2  0  0  0  0
 11  6  1  0  0  0  0
 13  7  1  0  0  0  0
 15  2  1  0  0  0  0
 16 15  1  1  0  0  0
 17 18  1  0  0  0  0
 17 16  1  0  0  0  0
 19 21  1  0  0  0  0
 19 20  1  0  0  0  0
 19 17  1  0  0  0  0
 21 22  1  0  0  0  0
 22 23  1  0  0  0  0
 22 16  1  0  0  0  0
M  END
>  <minimizedAffinity>
-4.96304369

>  <minimizedRMSD>
0.708599508

$$$$
