
 OpenBabel03272500193D

 33 35  0  0  1  0  0  0  0  0999 V2000
   35.3000   29.2740   50.6210 C   0  0  0  0  0  0  0  0  0  0  0  0
   36.4490   29.9390   50.1140 C   0  0  0  0  0  0  0  0  0  0  0  0
   36.6800   29.9590   48.7420 C   0  0  0  0  0  0  0  0  0  0  0  0
   35.7490   29.3160   47.9650 N   0  0  0  0  0  0  0  0  0  0  0  0
   34.6900   28.7040   48.4370 C   0  0  0  0  0  0  0  0  0  0  0  0
   34.4510   28.6730   49.7510 N   0  0  0  0  0  0  0  0  0  0  0  0
   35.1250   29.2620   51.6990 H   0  0  0  0  0  0  0  0  0  0  0  0
   33.0910   30.5620   46.6570 Cl  0  0  0  0  0  0  0  0  0  0  0  0
   32.9680   28.8050   46.6400 C   0  0  0  0  0  0  0  0  0  0  0  0
   33.7570   28.0460   47.5090 C   0  0  0  0  0  0  0  0  0  0  0  0
   33.6950   26.6590   47.5310 C   0  0  0  0  0  0  0  0  0  0  0  0
   32.8010   26.0590   46.6400 C   0  0  0  0  0  0  0  0  0  0  0  0
   32.0180   26.7820   45.7800 C   0  0  0  0  0  0  0  0  0  0  0  0
   30.9370   25.9230   44.7100 Cl  0  0  0  0  0  0  0  0  0  0  0  0
   32.1110   28.1710   45.7880 C   0  0  0  0  0  0  0  0  0  0  0  0
   34.3060   26.0780   48.2040 H   0  0  0  0  0  0  0  0  0  0  0  0
   32.7910   24.9790   46.6990 H   0  0  0  0  0  0  0  0  0  0  0  0
   31.2680   28.9660   44.8620 C   0  0  0  0  0  0  0  0  0  0  0  0
   30.2990   28.1600   44.2640 F   0  0  0  0  0  0  0  0  0  0  0  0
   31.9930   29.6250   43.9230 F   0  0  0  0  0  0  0  0  0  0  0  0
   30.5550   29.9140   45.5950 F   0  0  0  0  0  0  0  0  0  0  0  0
   37.8390   30.6240   48.1680 C   0  0  2  0  0  3  0  0  0  0  0  0
   37.7530   32.1250   48.0500 C   0  0  0  0  0  3  0  0  0  0  0  0
   36.7280   32.3700   47.7620 H   0  0  0  0  0  0  0  0  0  0  0  0
   38.7290   32.3620   46.8860 C   0  0  0  0  0  3  0  0  0  0  0  0
   39.7690   32.3920   47.3000 H   0  0  0  0  0  0  0  0  0  0  0  0
   38.6750   31.2460   46.0960 O   0  0  0  0  0  0  0  0  0  0  0  0
   37.7970   30.3500   46.6470 C   0  0  0  0  0  3  0  0  0  0  0  0
   36.7730   30.6380   46.3290 H   0  0  0  0  0  0  0  0  0  0  0  0
   37.3760   30.5940   51.0780 C   0  0  0  0  0  0  0  0  0  0  0  0
   38.7020   30.4120   50.7260 F   0  0  0  0  0  0  0  0  0  0  0  0
   37.0840   31.9340   51.1490 F   0  0  0  0  0  0  0  0  0  0  0  0
   37.2320   30.0920   52.3620 F   0  0  0  0  0  0  0  0  0  0  0  0
  1  7  1  0  0  0  0
  2  1  1  0  0  0  0
  2 30  1  0  0  0  0
  3  2  2  0  0  0  0
  4  5  2  0  0  0  0
  4  3  1  0  0  0  0
  5  6  1  0  0  0  0
  6  1  2  0  0  0  0
  9  8  1  0  0  0  0
  9 10  1  0  0  0  0
 10 11  2  0  0  0  0
 10  5  1  0  0  0  0
 11 16  1  0  0  0  0
 12 17  1  0  0  0  0
 12 11  1  0  0  0  0
 13 15  1  0  0  0  0
 13 12  2  0  0  0  0
 14 13  1  0  0  0  0
 15  9  2  0  0  0  0
 18 21  1  0  0  0  0
 18 15  1  0  0  0  0
 19 18  1  0  0  0  0
 20 18  1  0  0  0  0
 22  3  1  1  0  0  0
 23 22  1  0  0  0  0
 24 23  1  0  0  0  0
 25 26  1  0  0  0  0
 25 23  1  0  0  0  0
 27 28  1  0  0  0  0
 27 25  1  0  0  0  0
 28 22  1  0  0  0  0
 29 28  1  0  0  0  0
 30 32  1  0  0  0  0
 30 33  1  0  0  0  0
 31 30  1  0  0  0  0
M  END
>  <minimizedAffinity>
-5.76909256

>  <minimizedRMSD>
0.775280118

$$$$
