
 OpenBabel03272510043D

 36 38  0  0  1  0  0  0  0  0999 V2000
   36.9820   30.8730   44.5110 C   0  0  0  0  0  0  0  0  0  0  0  0
   36.4740   30.5740   45.7350 C   0  0  0  0  0  0  0  0  0  0  0  0
   35.2260   29.9680   45.8370 C   0  0  0  0  0  0  0  0  0  0  0  0
   34.4590   29.6490   44.7420 C   0  0  0  0  0  0  0  0  0  0  0  0
   34.9350   29.9380   43.4870 C   0  0  0  0  0  0  0  0  0  0  0  0
   36.1690   30.5340   43.4170 C   0  0  0  0  0  0  0  0  0  0  0  0
   34.8480   29.7400   46.8500 H   0  0  0  0  0  0  0  0  0  0  0  0
   33.5140   29.1830   44.9390 H   0  0  0  0  0  0  0  0  0  0  0  0
   34.3030   29.6730   42.6780 H   0  0  0  0  0  0  0  0  0  0  0  0
   36.4280   30.7140   42.3640 H   0  0  0  0  0  0  0  0  0  0  0  0
   38.7850   32.2600   48.0410 C   0  0  0  0  0  0  0  0  0  0  0  0
   38.0710   31.9230   46.9030 C   0  0  0  0  0  0  0  0  0  0  0  0
   37.1800   30.8990   46.9290 C   0  0  0  0  0  0  0  0  0  0  0  0
   37.0270   30.2390   48.1100 N   0  0  0  0  0  0  0  0  0  0  0  0
   37.7100   30.5600   49.2140 C   0  0  0  0  0  0  0  0  0  0  0  0
   38.5860   31.5660   49.1720 N   0  0  0  0  0  0  0  0  0  0  0  0
   39.5210   33.0280   48.1940 H   0  0  0  0  0  0  0  0  0  0  0  0
   38.3860   32.6370   46.1810 H   0  0  0  0  0  0  0  0  0  0  0  0
   37.3920   29.7960   50.4500 C   0  0  0  0  0  0  0  0  0  0  0  0
   37.6850   30.5180   51.5920 F   0  0  0  0  0  0  0  0  0  0  0  0
   35.9550   29.6470   50.5430 F   0  0  0  0  0  0  0  0  0  0  0  0
   37.8370   28.5620   50.5260 F   0  0  0  0  0  0  0  0  0  0  0  0
   38.5090   31.5780   44.2380 S   0  0  0  0  0  0  0  0  0  0  0  0
   38.5030   33.0310   44.6200 O   0  0  0  0  0  0  0  0  0  0  0  0
   38.4080   31.8020   42.7540 O   0  0  0  0  0  0  0  0  0  0  0  0
   39.9810   30.8020   43.9480 C   0  0  0  0  0  0  0  0  0  0  0  0
   40.8160   31.4320   43.5990 H   0  0  0  0  0  0  0  0  0  0  0  0
   40.3790   30.5470   44.9940 H   0  0  0  0  0  0  0  0  0  0  0  0
   39.9140   29.4690   43.2960 C   0  0  1  0  0  3  0  0  0  0  0  0
   38.9070   28.4970   43.7790 C   0  0  0  0  0  3  0  0  0  0  0  0
   37.9570   28.9580   44.0910 H   0  0  0  0  0  0  0  0  0  0  0  0
   38.6550   27.6640   42.5090 C   0  0  0  0  0  3  0  0  0  0  0  0
   37.5990   27.3330   42.4460 H   0  0  0  0  0  0  0  0  0  0  0  0
   38.9720   28.4310   41.4270 O   0  0  0  0  0  0  0  0  0  0  0  0
   39.4370   29.6440   41.8370 C   0  0  0  0  0  3  0  0  0  0  0  0
   38.6060   30.3880   41.9260 H   0  0  0  0  0  0  0  0  0  0  0  0
  1  2  1  0  0  0  0
  2  3  2  0  0  0  0
  2 13  1  0  0  0  0
  3  7  1  0  0  0  0
  4  8  1  0  0  0  0
  4  3  1  0  0  0  0
  5  4  2  0  0  0  0
  6  5  1  0  0  0  0
  6  1  2  0  0  0  0
  9  5  1  0  0  0  0
 10  6  1  0  0  0  0
 11 17  1  0  0  0  0
 11 16  1  0  0  0  0
 12 13  1  0  0  0  0
 12 11  2  0  0  0  0
 13 14  2  0  0  0  0
 14 15  1  0  0  0  0
 15 19  1  0  0  0  0
 16 15  2  0  0  0  0
 18 12  1  0  0  0  0
 19 22  1  0  0  0  0
 19 21  1  0  0  0  0
 19 20  1  0  0  0  0
 23  1  1  0  0  0  0
 23 24  2  0  0  0  0
 25 23  2  0  0  0  0
 26 23  1  0  0  0  0
 26 28  1  0  0  0  0
 27 26  1  0  0  0  0
 29 30  1  0  0  0  0
 29 26  1  1  0  0  0
 30 31  1  0  0  0  0
 32 30  1  0  0  0  0
 33 32  1  0  0  0  0
 34 35  1  0  0  0  0
 34 32  1  0  0  0  0
 35 36  1  0  0  0  0
 35 29  1  0  0  0  0
M  END
>  <minimizedAffinity>
-5.36173391

>  <minimizedRMSD>
1.82119596

$$$$
