
 OpenBabel03272500193D

 33 35  0  0  1  0  0  0  0  0999 V2000
   35.3020   29.2740   50.6210 C   0  0  0  0  0  0  0  0  0  0  0  0
   36.4500   29.9390   50.1140 C   0  0  0  0  0  0  0  0  0  0  0  0
   36.6810   29.9590   48.7430 C   0  0  0  0  0  0  0  0  0  0  0  0
   35.7500   29.3150   47.9660 N   0  0  0  0  0  0  0  0  0  0  0  0
   34.6910   28.7030   48.4380 C   0  0  0  0  0  0  0  0  0  0  0  0
   34.4520   28.6730   49.7520 N   0  0  0  0  0  0  0  0  0  0  0  0
   35.1270   29.2620   51.6990 H   0  0  0  0  0  0  0  0  0  0  0  0
   33.0920   30.5620   46.6570 Cl  0  0  0  0  0  0  0  0  0  0  0  0
   32.9690   28.8040   46.6400 C   0  0  0  0  0  0  0  0  0  0  0  0
   33.7580   28.0450   47.5100 C   0  0  0  0  0  0  0  0  0  0  0  0
   33.6960   26.6580   47.5320 C   0  0  0  0  0  0  0  0  0  0  0  0
   32.8020   26.0590   46.6410 C   0  0  0  0  0  0  0  0  0  0  0  0
   32.0190   26.7820   45.7810 C   0  0  0  0  0  0  0  0  0  0  0  0
   30.9390   25.9220   44.7110 Cl  0  0  0  0  0  0  0  0  0  0  0  0
   32.1120   28.1700   45.7890 C   0  0  0  0  0  0  0  0  0  0  0  0
   34.3070   26.0770   48.2050 H   0  0  0  0  0  0  0  0  0  0  0  0
   32.7920   24.9780   46.7000 H   0  0  0  0  0  0  0  0  0  0  0  0
   31.2690   28.9650   44.8620 C   0  0  0  0  0  0  0  0  0  0  0  0
   30.3000   28.1590   44.2640 F   0  0  0  0  0  0  0  0  0  0  0  0
   31.9940   29.6240   43.9230 F   0  0  0  0  0  0  0  0  0  0  0  0
   30.5560   29.9130   45.5950 F   0  0  0  0  0  0  0  0  0  0  0  0
   37.8400   30.6240   48.1680 C   0  0  2  0  0  3  0  0  0  0  0  0
   37.7540   32.1260   48.0500 C   0  0  0  0  0  3  0  0  0  0  0  0
   36.7280   32.3700   47.7630 H   0  0  0  0  0  0  0  0  0  0  0  0
   38.7300   32.3620   46.8860 C   0  0  0  0  0  3  0  0  0  0  0  0
   39.7690   32.3930   47.3000 H   0  0  0  0  0  0  0  0  0  0  0  0
   38.6750   31.2470   46.0960 O   0  0  0  0  0  0  0  0  0  0  0  0
   37.7970   30.3500   46.6470 C   0  0  0  0  0  3  0  0  0  0  0  0
   36.7730   30.6380   46.3290 H   0  0  0  0  0  0  0  0  0  0  0  0
   37.3770   30.5940   51.0780 C   0  0  0  0  0  0  0  0  0  0  0  0
   38.7030   30.4120   50.7260 F   0  0  0  0  0  0  0  0  0  0  0  0
   37.0850   31.9350   51.1490 F   0  0  0  0  0  0  0  0  0  0  0  0
   37.2330   30.0920   52.3630 F   0  0  0  0  0  0  0  0  0  0  0  0
  1  7  1  0  0  0  0
  2  1  1  0  0  0  0
  2 30  1  0  0  0  0
  3  2  2  0  0  0  0
  4  5  2  0  0  0  0
  4  3  1  0  0  0  0
  5  6  1  0  0  0  0
  6  1  2  0  0  0  0
  9  8  1  0  0  0  0
  9 10  1  0  0  0  0
 10 11  2  0  0  0  0
 10  5  1  0  0  0  0
 11 16  1  0  0  0  0
 12 17  1  0  0  0  0
 12 11  1  0  0  0  0
 13 15  1  0  0  0  0
 13 12  2  0  0  0  0
 14 13  1  0  0  0  0
 15  9  2  0  0  0  0
 18 21  1  0  0  0  0
 18 15  1  0  0  0  0
 19 18  1  0  0  0  0
 20 18  1  0  0  0  0
 22  3  1  1  0  0  0
 23 22  1  0  0  0  0
 24 23  1  0  0  0  0
 25 26  1  0  0  0  0
 25 23  1  0  0  0  0
 27 28  1  0  0  0  0
 27 25  1  0  0  0  0
 28 22  1  0  0  0  0
 29 28  1  0  0  0  0
 30 32  1  0  0  0  0
 30 33  1  0  0  0  0
 31 30  1  0  0  0  0
M  END
>  <minimizedAffinity>
-5.76960087

>  <minimizedRMSD>
0.718762577

$$$$
