
 OpenBabel03272508063D

 34 37  0  0  1  0  0  0  0  0999 V2000
   38.9180   30.8910   45.7730 C   0  0  0  0  0  0  0  0  0  0  0  0
   40.1140   31.5110   46.0260 C   0  0  0  0  0  0  0  0  0  0  0  0
   40.9420   31.4490   44.9110 C   0  0  0  0  0  0  0  0  0  0  0  0
   40.1920   30.7780   44.0090 N   0  0  0  0  0  0  0  0  0  0  0  0
   39.0100   30.4470   44.4990 N   0  0  0  0  0  0  0  0  0  0  0  0
   40.4090   31.9920   46.9530 H   0  0  0  0  0  0  0  0  0  0  0  0
   41.9320   31.8180   44.7400 H   0  0  0  0  0  0  0  0  0  0  0  0
   37.7970   30.7450   46.6810 C   0  0  0  0  0  0  0  0  0  0  0  0
   38.0160   30.9740   48.0660 C   0  0  0  0  0  0  0  0  0  0  0  0
   36.9340   30.8310   48.9240 C   0  0  0  0  0  0  0  0  0  0  0  0
   35.7270   30.4820   48.3890 N   0  0  0  0  0  0  0  0  0  0  0  0
   35.5410   30.2690   47.0640 C   0  0  0  0  0  0  0  0  0  0  0  0
   36.5830   30.4040   46.2200 N   0  0  0  0  0  0  0  0  0  0  0  0
   38.9930   31.2500   48.4440 H   0  0  0  0  0  0  0  0  0  0  0  0
   34.5460   29.9950   46.7380 H   0  0  0  0  0  0  0  0  0  0  0  0
   37.1370   31.0650   50.3750 C   0  0  0  0  0  0  0  0  0  0  0  0
   36.6030   32.3050   50.6290 F   0  0  0  0  0  0  0  0  0  0  0  0
   36.4720   30.1350   51.1600 F   0  0  0  0  0  0  0  0  0  0  0  0
   38.4900   31.0740   50.7090 F   0  0  0  0  0  0  0  0  0  0  0  0
   40.5400   30.4100   42.6370 C   0  0  0  0  0  0  0  0  0  0  0  0
   40.2130   31.2430   41.5530 C   0  0  0  0  0  0  0  0  0  0  0  0
   40.5600   30.8520   40.2940 C   0  0  0  0  0  0  0  0  0  0  0  0
   41.2420   29.6170   40.1130 C   0  0  0  0  0  0  0  0  0  0  0  0
   41.3920   28.9830   41.8510 S   0  0  0  0  0  0  0  0  0  0  0  0
   39.6950   32.1860   41.6520 H   0  0  0  0  0  0  0  0  0  0  0  0
   40.4080   31.3320   39.3440 H   0  0  0  0  0  0  0  0  0  0  0  0
   41.7870   28.8050   39.1060 C   0  0  1  0  0  3  0  0  0  0  0  0
   41.2790   27.3980   39.2310 C   0  0  0  0  0  3  0  0  0  0  0  0
   41.0670   27.2220   40.3040 H   0  0  0  0  0  0  0  0  0  0  0  0
   40.0580   27.3890   38.3720 C   0  0  0  0  0  3  0  0  0  0  0  0
   39.1510   27.1650   38.9710 H   0  0  0  0  0  0  0  0  0  0  0  0
   39.9020   28.6700   37.8590 O   0  0  0  0  0  0  0  0  0  0  0  0
   41.1510   29.2410   37.7830 C   0  0  0  0  0  3  0  0  0  0  0  0
   41.0500   30.3410   37.7160 H   0  0  0  0  0  0  0  0  0  0  0  0
  1  2  1  0  0  0  0
  1  8  1  0  0  0  0
  2  6  1  0  0  0  0
  3  2  2  0  0  0  0
  4  5  1  0  0  0  0
  4  3  1  0  0  0  0
  5  1  2  0  0  0  0
  7  3  1  0  0  0  0
  8  9  1  0  0  0  0
  9 14  1  0  0  0  0
  9 10  2  0  0  0  0
 10 16  1  0  0  0  0
 11 10  1  0  0  0  0
 12 11  2  0  0  0  0
 13  8  2  0  0  0  0
 13 12  1  0  0  0  0
 15 12  1  0  0  0  0
 16 17  1  0  0  0  0
 16 19  1  0  0  0  0
 16 18  1  0  0  0  0
 20  4  1  0  0  0  0
 21 25  1  0  0  0  0
 21 20  2  0  0  0  0
 22 21  1  0  0  0  0
 23 22  2  0  0  0  0
 23 24  1  0  0  0  0
 24 20  1  0  0  0  0
 26 22  1  0  0  0  0
 27 28  1  0  0  0  0
 27 23  1  1  0  0  0
 28 29  1  0  0  0  0
 30 31  1  0  0  0  0
 30 28  1  0  0  0  0
 32 30  1  0  0  0  0
 33 32  1  0  0  0  0
 33 27  1  0  0  0  0
 34 33  1  0  0  0  0
M  END
>  <minimizedAffinity>
-6.14303827

>  <minimizedRMSD>
1.2159878

$$$$
