
 OpenBabel03272504283D

 41 44  0  0  1  0  0  0  0  0999 V2000
   35.3270   29.7540   48.5400 C   0  0  0  0  0  0  0  0  0  0  0  0
   34.8430   29.4610   49.7660 C   0  0  0  0  0  0  0  0  0  0  0  0
   33.8530   28.5760   49.9250 C   0  0  0  0  0  0  0  0  0  0  0  0
   33.3300   27.9630   48.8290 N   0  0  0  0  0  0  0  0  0  0  0  0
   33.8130   28.2580   47.6280 C   0  0  0  0  0  0  0  0  0  0  0  0
   34.8070   29.1450   47.4640 N   0  0  0  0  0  0  0  0  0  0  0  0
   35.2940   29.9750   50.6060 H   0  0  0  0  0  0  0  0  0  0  0  0
   33.4770   28.3550   50.9280 H   0  0  0  0  0  0  0  0  0  0  0  0
   31.8420   27.2350   46.5820 C   0  0  0  0  0  0  0  0  0  0  0  0
   33.2040   27.5370   46.5370 C   0  0  0  0  0  0  0  0  0  0  0  0
   34.0440   27.1690   45.5050 C   0  0  0  0  0  0  0  0  0  0  0  0
   33.5290   26.4560   44.4400 C   0  0  0  0  0  0  0  0  0  0  0  0
   32.1940   26.1130   44.4030 C   0  0  0  0  0  0  0  0  0  0  0  0
   31.4480   26.5190   45.4600 C   0  0  0  0  0  0  0  0  0  0  0  0
   35.0940   27.4250   45.5100 H   0  0  0  0  0  0  0  0  0  0  0  0
   34.1890   26.1690   43.6320 H   0  0  0  0  0  0  0  0  0  0  0  0
   31.7600   25.5570   43.5870 H   0  0  0  0  0  0  0  0  0  0  0  0
   30.3840   26.2430   45.4260 H   0  0  0  0  0  0  0  0  0  0  0  0
   30.7940   27.6810   47.7990 S   0  0  0  0  0  0  0  0  0  0  0  0
   29.6610   26.6620   47.4480 O   0  0  0  0  0  0  0  0  0  0  0  0
   30.2990   29.0670   47.4720 O   0  0  0  0  0  0  0  0  0  0  0  0
   30.2860   27.6410   49.3110 C   0  0  0  0  0  0  0  0  0  0  0  0
   29.7890   26.5030   49.9740 F   0  0  0  0  0  0  0  0  0  0  0  0
   28.9490   28.2570   49.3970 F   0  0  0  0  0  0  0  0  0  0  0  0
   30.6970   28.6280   50.2600 F   0  0  0  0  0  0  0  0  0  0  0  0
   37.7710   32.4450   49.0430 C   0  0  0  0  0  0  0  0  0  0  0  0
   38.4710   32.4530   47.8200 C   0  0  0  0  0  0  0  0  0  0  0  0
   38.0830   31.5300   46.8480 C   0  0  0  0  0  0  0  0  0  0  0  0
   37.0580   30.6860   47.1440 N   0  0  0  0  0  0  0  0  0  0  0  0
   36.4040   30.7070   48.3420 C   0  0  0  0  0  0  0  0  0  0  0  0
   36.7710   31.5870   49.2730 N   0  0  0  0  0  0  0  0  0  0  0  0
   38.1340   33.1840   49.7310 H   0  0  0  0  0  0  0  0  0  0  0  0
   39.2830   33.1310   47.6000 H   0  0  0  0  0  0  0  0  0  0  0  0
   38.7820   31.4960   45.5480 C   0  0  1  0  0  0  0  0  0  0  0  0
   38.6330   32.7340   44.7290 C   0  0  0  0  0  0  0  0  0  0  0  0
   38.3180   32.5570   43.6740 H   0  0  0  0  0  0  0  0  0  0  0  0
   40.0150   33.3360   44.7210 C   0  0  0  0  0  0  0  0  0  0  0  0
   40.0250   34.2350   45.3710 H   0  0  0  0  0  0  0  0  0  0  0  0
   40.9190   32.3560   45.0830 O   0  0  0  0  0  0  0  0  0  0  0  0
   40.2560   31.4170   45.8450 C   0  0  0  0  0  0  0  0  0  0  0  0
   40.6070   30.3850   45.5540 H   0  0  0  0  0  0  0  0  0  0  0  0
  1  2  1  0  0  0  0
  2  3  2  0  0  0  0
  2  7  1  0  0  0  0
  3  8  1  0  0  0  0
  4  3  1  0  0  0  0
  5  4  2  0  0  0  0
  6  5  1  0  0  0  0
  6  1  2  0  0  0  0
  9 19  1  0  0  0  0
 10  9  1  0  0  0  0
 10  5  1  0  0  0  0
 11 15  1  0  0  0  0
 11 10  2  0  0  0  0
 12 11  1  0  0  0  0
 13 12  2  0  0  0  0
 13 14  1  0  0  0  0
 14  9  2  0  0  0  0
 16 12  1  0  0  0  0
 17 13  1  0  0  0  0
 18 14  1  0  0  0  0
 19 22  1  0  0  0  0
 20 19  2  0  0  0  0
 21 19  2  0  0  0  0
 22 24  1  0  0  0  0
 22 23  1  0  0  0  0
 22 25  1  0  0  0  0
 26 31  1  0  0  0  0
 26 32  1  0  0  0  0
 27 26  2  0  0  0  0
 28 29  2  0  0  0  0
 28 27  1  0  0  0  0
 29 30  1  0  0  0  0
 30  1  1  0  0  0  0
 30 31  2  0  0  0  0
 33 27  1  0  0  0  0
 34 40  1  0  0  0  0
 34 28  1  1  0  0  0
 35 34  1  0  0  0  0
 36 35  1  0  0  0  0
 37 35  1  0  0  0  0
 37 39  1  0  0  0  0
 37 38  1  0  0  0  0
 39 40  1  0  0  0  0
 41 40  1  0  0  0  0
M  END
>  <minimizedAffinity>
-6.33187675

>  <minimizedRMSD>
1.3779099

$$$$
