
 OpenBabel03272508093D

 23 24  0  0  1  0  0  0  0  0999 V2000
   39.1320   32.8170   48.1300 O   0  0  0  0  0  0  0  0  0  0  0  0
   38.7230   31.8330   47.0800 P   0  0  2  0  0  0  0  0  0  0  0  0
   37.6800   32.5900   45.9740 O   0  0  0  0  0  0  0  0  0  0  0  0
   37.2310   33.3410   46.4760 H   0  0  0  0  0  0  0  0  0  0  0  0
   38.0370   30.4070   47.6780 O   0  0  0  0  0  0  0  0  0  0  0  0
   37.3400   30.2000   51.3130 C   0  0  0  0  0  0  0  0  0  0  0  0
   38.0410   30.5540   50.1620 C   0  0  0  0  0  0  0  0  0  0  0  0
   37.5390   30.1790   48.9200 C   0  0  0  0  0  0  0  0  0  0  0  0
   36.3620   29.4700   48.8970 N   0  0  0  0  0  0  0  0  0  0  0  0
   35.7160   29.1470   50.0430 C   0  0  0  0  0  0  0  0  0  0  0  0
   36.1940   29.5050   51.2320 N   0  0  0  0  0  0  0  0  0  0  0  0
   37.8640   30.5660   52.1900 H   0  0  0  0  0  0  0  0  0  0  0  0
   38.9660   31.1080   50.1010 H   0  0  0  0  0  0  0  0  0  0  0  0
   34.7890   28.5880   50.0440 H   0  0  0  0  0  0  0  0  0  0  0  0
   40.1250   31.4170   46.2060 O   0  0  0  0  0  0  0  0  0  0  0  0
   39.7450   31.1570   44.9020 C   0  0  1  0  0  3  0  0  0  0  0  0
   39.2390   29.7760   44.6540 C   0  0  0  0  0  3  0  0  0  0  0  0
   39.0290   29.2030   45.6020 H   0  0  0  0  0  0  0  0  0  0  0  0
   37.9440   30.0230   43.8900 C   0  0  0  0  0  3  0  0  0  0  0  0
   37.0580   30.0410   44.5500 H   0  0  0  0  0  0  0  0  0  0  0  0
   38.1090   31.3030   43.3440 O   0  0  0  0  0  0  0  0  0  0  0  0
   38.5960   32.0310   44.4520 C   0  0  0  0  0  3  0  0  0  0  0  0
   38.9420   33.0250   44.0660 H   0  0  0  0  0  0  0  0  0  0  0  0
  2  5  1  0  0  0  0
  2  1  2  1  0  0  0
  3  4  1  0  0  0  0
  3  2  1  0  0  0  0
  5  8  1  0  0  0  0
  6 12  1  0  0  0  0
  7  6  2  0  0  0  0
  8  7  1  0  0  0  0
  9  8  2  0  0  0  0
  9 10  1  0  0  0  0
 10 14  1  0  0  0  0
 10 11  2  0  0  0  0
 11  6  1  0  0  0  0
 13  7  1  0  0  0  0
 15  2  1  0  0  0  0
 16 15  1  1  0  0  0
 17 16  1  0  0  0  0
 17 18  1  0  0  0  0
 19 20  1  0  0  0  0
 19 17  1  0  0  0  0
 21 19  1  0  0  0  0
 21 22  1  0  0  0  0
 22 16  1  0  0  0  0
 23 22  1  0  0  0  0
M  END
>  <minimizedAffinity>
-4.91123915

>  <minimizedRMSD>
0.338746399

$$$$
