
 OpenBabel03272500083D

 38 41  0  0  1  0  0  0  0  0999 V2000
   35.0770   28.5080   48.9910 C   0  0  0  0  0  0  0  0  0  0  0  0
   35.0050   29.7220   48.2810 C   0  0  0  0  0  0  0  0  0  0  0  0
   33.9210   29.9150   47.4220 C   0  0  0  0  0  0  0  0  0  0  0  0
   32.9960   28.9190   47.3220 N   0  0  0  0  0  0  0  0  0  0  0  0
   33.0900   27.7790   48.0070 C   0  0  0  0  0  0  0  0  0  0  0  0
   34.1380   27.5490   48.8600 N   0  0  0  0  0  0  0  0  0  0  0  0
   35.9140   28.3480   49.6590 H   0  0  0  0  0  0  0  0  0  0  0  0
   33.8590   30.8340   46.8820 H   0  0  0  0  0  0  0  0  0  0  0  0
   36.0400   30.6750   48.4770 N   0  0  0  0  0  0  0  0  0  0  0  0
   36.2390   31.2850   49.6410 C   0  0  0  0  0  0  0  0  0  0  0  0
   37.2790   32.2080   49.7460 C   0  0  0  0  0  0  0  0  0  0  0  0
   38.0160   32.4080   48.6180 C   0  0  0  0  0  0  0  0  0  0  0  0
   38.9650   33.2480   48.7080 O   0  0  0  0  0  0  0  0  0  0  0  0
   37.8450   31.8220   47.4500 N   0  0  0  0  0  0  0  0  0  0  0  0
   36.8260   30.9280   47.3750 C   0  0  0  0  0  0  0  0  0  0  0  0
   36.6470   30.3530   46.2550 O   0  0  0  0  0  0  0  0  0  0  0  0
   35.5930   31.0500   50.4750 H   0  0  0  0  0  0  0  0  0  0  0  0
   37.4210   32.6900   50.7060 H   0  0  0  0  0  0  0  0  0  0  0  0
   38.4430   32.0170   46.6200 H   0  0  0  0  0  0  0  0  0  0  0  0
   32.1330   26.7550   47.8980 O   0  0  0  0  0  0  0  0  0  0  0  0
   30.8420   27.1100   48.2680 C   0  0  0  0  0  0  0  0  0  0  0  0
   30.7430   27.6810   49.5150 C   0  0  0  0  0  0  0  0  0  0  0  0
   29.5340   28.0890   50.0330 C   0  0  0  0  0  0  0  0  0  0  0  0
   28.3870   27.9080   49.2480 C   0  0  0  0  0  0  0  0  0  0  0  0
   28.4910   27.3320   47.9910 C   0  0  0  0  0  0  0  0  0  0  0  0
   29.7070   26.9410   47.5170 C   0  0  0  0  0  0  0  0  0  0  0  0
   31.6010   27.8450   50.1660 H   0  0  0  0  0  0  0  0  0  0  0  0
   29.4670   28.5390   51.0190 H   0  0  0  0  0  0  0  0  0  0  0  0
   27.4330   28.2360   49.6690 H   0  0  0  0  0  0  0  0  0  0  0  0
   27.5680   27.2370   47.4740 H   0  0  0  0  0  0  0  0  0  0  0  0
   29.8220   26.3320   46.2060 C   0  0  1  0  0  0  0  0  0  0  0  0
   28.5900   25.5280   45.8010 C   0  0  0  0  0  0  0  0  0  0  0  0
   27.6580   26.0560   46.0520 H   0  0  0  0  0  0  0  0  0  0  0  0
   28.7790   25.5030   44.2910 C   0  0  0  0  0  0  0  0  0  0  0  0
   27.8500   25.7230   43.7370 H   0  0  0  0  0  0  0  0  0  0  0  0
   29.7260   26.4590   43.9810 O   0  0  0  0  0  0  0  0  0  0  0  0
   29.7820   27.3490   45.0590 C   0  0  0  0  0  0  0  0  0  0  0  0
   30.6840   27.9520   45.0100 H   0  0  0  0  0  0  0  0  0  0  0  0
  1  7  1  0  0  0  0
  2  9  1  0  0  0  0
  2  1  2  0  0  0  0
  3  2  1  0  0  0  0
  4  3  2  0  0  0  0
  4  5  1  0  0  0  0
  5  6  2  0  0  0  0
  6  1  1  0  0  0  0
  8  3  1  0  0  0  0
  9 10  1  0  0  0  0
 10 11  2  0  0  0  0
 10 17  1  0  0  0  0
 11 18  1  0  0  0  0
 12 13  2  0  0  0  0
 12 11  1  0  0  0  0
 14 12  1  0  0  0  0
 15 14  1  0  0  0  0
 15  9  1  0  0  0  0
 16 15  2  0  0  0  0
 19 14  1  0  0  0  0
 20  5  1  0  0  0  0
 20 21  1  0  0  0  0
 21 22  1  0  0  0  0
 22 23  2  0  0  0  0
 22 27  1  0  0  0  0
 23 28  1  0  0  0  0
 24 29  1  0  0  0  0
 24 23  1  0  0  0  0
 25 24  2  0  0  0  0
 26 25  1  0  0  0  0
 26 21  2  0  0  0  0
 30 25  1  0  0  0  0
 31 26  1  1  0  0  0
 32 33  1  0  0  0  0
 32 31  1  0  0  0  0
 34 32  1  0  0  0  0
 35 34  1  0  0  0  0
 36 34  1  0  0  0  0
 36 37  1  0  0  0  0
 37 31  1  0  0  0  0
 38 37  1  0  0  0  0
M  END
>  <minimizedAffinity>
-5.77807808

>  <minimizedRMSD>
1.51280296

$$$$
