
 OpenBabel03272509403D

 37 39  0  0  1  0  0  0  0  0999 V2000
   36.1170   30.3980   48.3970 C   0  0  0  0  0  0  0  0  0  0  0  0
   36.1710   30.8260   49.7260 C   0  0  0  0  0  0  0  0  0  0  0  0
   37.0460   31.8040   50.1500 C   0  0  0  0  0  0  0  0  0  0  0  0
   37.9160   32.3980   49.2330 C   0  0  0  0  0  0  0  0  0  0  0  0
   37.8520   31.9700   47.9360 C   0  0  0  0  0  0  0  0  0  0  0  0
   36.9660   30.9890   47.5350 C   0  0  0  0  0  0  0  0  0  0  0  0
   35.5210   30.4110   50.5080 H   0  0  0  0  0  0  0  0  0  0  0  0
   37.0680   32.1180   51.1890 H   0  0  0  0  0  0  0  0  0  0  0  0
   38.5830   33.1540   49.5920 H   0  0  0  0  0  0  0  0  0  0  0  0
   38.5550   32.4780   47.2900 H   0  0  0  0  0  0  0  0  0  0  0  0
   35.1570   29.3620   48.0490 C   0  0  2  0  0  3  0  0  0  0  0  0
   35.2060   28.3190   48.8110 O   0  0  0  0  0  1  0  0  0  0  0  0
   32.5390   30.7650   45.9720 C   0  0  0  0  0  0  0  0  0  0  0  0
   32.3590   29.8120   44.9710 C   0  0  0  0  0  0  0  0  0  0  0  0
   33.1430   28.6660   45.0050 C   0  0  0  0  0  0  0  0  0  0  0  0
   34.0590   28.5120   46.0130 N   0  0  0  0  0  0  0  0  0  0  0  0
   34.1980   29.4410   46.9420 C   0  0  0  0  0  0  0  0  0  0  0  0
   33.4390   30.5590   46.9180 N   0  0  0  0  0  0  0  0  0  0  0  0
   31.8970   31.6250   45.8800 H   0  0  0  0  0  0  0  0  0  0  0  0
   31.6880   29.8110   44.1430 H   0  0  0  0  0  0  0  0  0  0  0  0
   33.1470   27.8220   44.3250 H   0  0  0  0  0  0  0  0  0  0  0  0
   37.0250   30.6410   46.1340 C   0  0  0  0  0  3  0  0  0  0  0  0
   37.5490   31.3490   45.1520 C   0  0  0  0  0  3  0  0  0  0  0  0
   37.6930   31.1170   43.7150 C   0  0  0  0  0  0  0  0  0  0  0  0
   38.5570   31.7050   43.3470 H   0  0  0  0  0  0  0  0  0  0  0  0
   36.8120   31.4820   43.1490 H   0  0  0  0  0  0  0  0  0  0  0  0
   35.3060   29.8620   42.5370 Cl  0  0  0  0  0  0  0  0  0  0  0  0
   36.8600   29.0860   42.8690 C   0  0  0  0  0  0  0  0  0  0  0  0
   37.9790   29.6850   43.4260 C   0  0  0  0  0  0  0  0  0  0  0  0
   39.1190   28.9440   43.6230 C   0  0  0  0  0  0  0  0  0  0  0  0
   39.9140   29.5360   44.0640 H   0  0  0  0  0  0  0  0  0  0  0  0
   39.1350   27.6160   43.2640 C   0  0  0  0  0  0  0  0  0  0  0  0
   40.0640   27.1070   43.4500 H   0  0  0  0  0  0  0  0  0  0  0  0
   38.0340   26.9990   42.7100 C   0  0  0  0  0  0  0  0  0  0  0  0
   38.1050   25.9510   42.4490 H   0  0  0  0  0  0  0  0  0  0  0  0
   36.8710   27.7410   42.5040 C   0  0  0  0  0  0  0  0  0  0  0  0
   35.5180   26.8910   41.7970 Cl  0  0  0  0  0  0  0  0  0  0  0  0
  1  2  1  0  0  0  0
  2  3  2  0  0  0  0
  2  7  1  0  0  0  0
  3  8  1  0  0  0  0
  4  9  1  0  0  0  0
  4  3  1  0  0  0  0
  5  4  2  0  0  0  0
  6  5  1  0  0  0  0
  6  1  2  0  0  0  0
 10  5  1  0  0  0  0
 11  1  1  0  0  0  0
 11 12  1  6  0  0  0
 13 18  1  0  0  0  0
 14 15  1  0  0  0  0
 14 13  2  0  0  0  0
 15 16  2  0  0  0  0
 16 17  1  0  0  0  0
 17 11  1  0  0  0  0
 18 17  2  0  0  0  0
 19 13  1  0  0  0  0
 20 14  1  0  0  0  0
 21 15  1  0  0  0  0
 22  6  1  0  0  0  0
 23 22  2  0  0  0  0
 24 23  1  0  0  0  0
 25 24  1  0  0  0  0
 26 24  1  0  0  0  0
 27 28  1  0  0  0  0
 28 29  1  0  0  0  0
 29 30  2  0  0  0  0
 29 24  1  0  0  0  0
 30 31  1  0  0  0  0
 32 33  1  0  0  0  0
 32 30  1  0  0  0  0
 34 32  2  0  0  0  0
 35 34  1  0  0  0  0
 36 34  1  0  0  0  0
 36 28  2  0  0  0  0
 37 36  1  0  0  0  0
M  END
>  <minimizedAffinity>
-5.33742428

>  <minimizedRMSD>
1.90382504

$$$$
