
 OpenBabel03272509403D

 37 39  0  0  1  0  0  0  0  0999 V2000
   37.0380   31.1160   50.0160 C   0  0  0  0  0  0  0  0  0  0  0  0
   37.6220   30.6310   51.1890 C   0  0  0  0  0  0  0  0  0  0  0  0
   37.4350   29.3360   51.6240 C   0  0  0  0  0  0  0  0  0  0  0  0
   36.6370   28.4650   50.8790 C   0  0  0  0  0  0  0  0  0  0  0  0
   36.0720   28.9520   49.7340 C   0  0  0  0  0  0  0  0  0  0  0  0
   36.2740   30.2540   49.3180 C   0  0  0  0  0  0  0  0  0  0  0  0
   38.2620   31.2510   51.8300 H   0  0  0  0  0  0  0  0  0  0  0  0
   37.9000   28.9840   52.5400 H   0  0  0  0  0  0  0  0  0  0  0  0
   36.5110   27.4660   51.2430 H   0  0  0  0  0  0  0  0  0  0  0  0
   35.4710   28.2170   49.2150 H   0  0  0  0  0  0  0  0  0  0  0  0
   37.2970   32.4970   49.6410 C   0  0  2  0  0  3  0  0  0  0  0  0
   36.5090   33.3540   50.2030 O   0  0  0  0  0  1  0  0  0  0  0  0
   39.2970   32.5390   46.6190 C   0  0  0  0  0  0  0  0  0  0  0  0
   40.2020   33.5790   46.8300 C   0  0  0  0  0  0  0  0  0  0  0  0
   40.1320   34.2780   48.0280 C   0  0  0  0  0  0  0  0  0  0  0  0
   39.1840   33.9250   48.9530 N   0  0  0  0  0  0  0  0  0  0  0  0
   38.3450   32.9340   48.7130 C   0  0  0  0  0  0  0  0  0  0  0  0
   38.4060   32.2470   47.5500 N   0  0  0  0  0  0  0  0  0  0  0  0
   39.4120   32.0440   45.6690 H   0  0  0  0  0  0  0  0  0  0  0  0
   40.9780   33.9460   46.1990 H   0  0  0  0  0  0  0  0  0  0  0  0
   40.7420   35.1050   48.3710 H   0  0  0  0  0  0  0  0  0  0  0  0
   35.6040   30.6200   48.0920 C   0  0  0  0  0  3  0  0  0  0  0  0
   35.0700   29.8110   47.1960 C   0  0  0  0  0  3  0  0  0  0  0  0
   34.3560   30.0390   45.9400 C   0  0  0  0  0  0  0  0  0  0  0  0
   34.6230   31.0440   45.5590 H   0  0  0  0  0  0  0  0  0  0  0  0
   33.2570   30.0500   46.0880 H   0  0  0  0  0  0  0  0  0  0  0  0
   36.6310   31.1100   44.4110 Cl  0  0  0  0  0  0  0  0  0  0  0  0
   35.8350   29.5480   44.1770 C   0  0  0  0  0  0  0  0  0  0  0  0
   34.7620   29.0530   44.9020 C   0  0  0  0  0  0  0  0  0  0  0  0
   34.2510   27.8140   44.5980 C   0  0  0  0  0  0  0  0  0  0  0  0
   33.4180   27.5520   45.2410 H   0  0  0  0  0  0  0  0  0  0  0  0
   34.8120   27.0820   43.5760 C   0  0  0  0  0  0  0  0  0  0  0  0
   34.3550   26.1250   43.4020 H   0  0  0  0  0  0  0  0  0  0  0  0
   35.8780   27.5540   42.8420 C   0  0  0  0  0  0  0  0  0  0  0  0
   36.2770   26.9340   42.0510 H   0  0  0  0  0  0  0  0  0  0  0  0
   36.4060   28.8100   43.1420 C   0  0  0  0  0  0  0  0  0  0  0  0
   37.7560   29.3410   42.1690 Cl  0  0  0  0  0  0  0  0  0  0  0  0
  1  2  1  0  0  0  0
  2  3  2  0  0  0  0
  2  7  1  0  0  0  0
  3  8  1  0  0  0  0
  4  9  1  0  0  0  0
  4  3  1  0  0  0  0
  5  4  2  0  0  0  0
  6  5  1  0  0  0  0
  6  1  2  0  0  0  0
 10  5  1  0  0  0  0
 11  1  1  0  0  0  0
 11 12  1  6  0  0  0
 13 14  2  0  0  0  0
 13 18  1  0  0  0  0
 14 15  1  0  0  0  0
 15 21  1  0  0  0  0
 15 16  2  0  0  0  0
 17 16  1  0  0  0  0
 17 11  1  0  0  0  0
 18 17  2  0  0  0  0
 19 13  1  0  0  0  0
 20 14  1  0  0  0  0
 22  6  1  0  0  0  0
 23 22  2  0  0  0  0
 24 26  1  0  0  0  0
 24 23  1  0  0  0  0
 25 24  1  0  0  0  0
 28 27  1  0  0  0  0
 28 29  1  0  0  0  0
 29 24  1  0  0  0  0
 30 29  2  0  0  0  0
 30 31  1  0  0  0  0
 32 30  1  0  0  0  0
 33 32  1  0  0  0  0
 34 36  1  0  0  0  0
 34 32  2  0  0  0  0
 35 34  1  0  0  0  0
 36 28  2  0  0  0  0
 37 36  1  0  0  0  0
M  END
>  <minimizedAffinity>
-5.49078989

>  <minimizedRMSD>
4.77719688

$$$$
