
 OpenBabel03272508513D

 31 33  0  0  1  0  0  0  0  0999 V2000
   37.8950   30.6720   46.6700 C   0  0  2  0  0  0  0  0  0  0  0  0
   39.2080   31.2920   46.8290 C   0  0  0  0  0  0  0  0  0  0  0  0
   38.1410   31.8690   45.8800 C   0  0  1  0  0  0  0  0  0  0  0  0
   37.8610   29.6740   46.1260 H   0  0  0  0  0  0  0  0  0  0  0  0
   40.1290   30.8690   46.3960 H   0  0  0  0  0  0  0  0  0  0  0  0
   39.3490   31.9010   47.7410 H   0  0  0  0  0  0  0  0  0  0  0  0
   37.7940   32.8620   46.1380 H   0  0  0  0  0  0  0  0  0  0  0  0
   34.6670   30.2410   48.4530 C   0  0  0  0  0  0  0  0  0  0  0  0
   34.9960   30.7450   49.7440 C   0  0  0  0  0  0  0  0  0  0  0  0
   36.2960   31.2120   49.9650 C   0  0  0  0  0  0  0  0  0  0  0  0
   37.1980   31.1710   48.9480 N   0  0  0  0  0  0  0  0  0  0  0  0
   36.8640   30.6900   47.7380 C   0  0  0  0  0  0  0  0  0  0  0  0
   35.6030   30.2120   47.4510 N   0  0  0  0  0  0  0  0  0  0  0  0
   33.6720   29.8690   48.2490 H   0  0  0  0  0  0  0  0  0  0  0  0
   34.2760   30.7680   50.5270 H   0  0  0  0  0  0  0  0  0  0  0  0
   36.6300   31.6110   50.9160 H   0  0  0  0  0  0  0  0  0  0  0  0
   39.2420   32.7110   43.8350 C   0  0  0  0  0  0  0  0  0  0  0  0
   39.7550   33.6260   44.5230 O   0  0  0  0  0  0  0  0  0  0  0  0
   38.4500   31.6780   44.4590 N   0  0  0  0  0  0  0  0  0  0  0  0
   38.0710   30.8160   44.0150 H   0  0  0  0  0  0  0  0  0  0  0  0
   40.7660   30.3060   42.6760 Cl  0  0  0  0  0  0  0  0  0  0  0  0
   39.9350   31.5000   41.6780 C   0  0  0  0  0  0  0  0  0  0  0  0
   39.3160   32.4880   42.4030 C   0  0  0  0  0  0  0  0  0  0  0  0
   38.6660   33.4220   41.5690 C   0  0  0  0  0  0  0  0  0  0  0  0
   38.1440   34.2540   42.0840 H   0  0  0  0  0  0  0  0  0  0  0  0
   38.5860   33.4550   40.1670 C   0  0  0  0  0  0  0  0  0  0  0  0
   38.0820   34.1810   39.5610 H   0  0  0  0  0  0  0  0  0  0  0  0
   39.2860   32.3580   39.6960 C   0  0  0  0  0  0  0  0  0  0  0  0
   39.2850   32.2900   38.5920 H   0  0  0  0  0  0  0  0  0  0  0  0
   39.9700   31.3590   40.3180 C   0  0  0  0  0  0  0  0  0  0  0  0
   40.7930   30.0550   39.5080 Cl  0  0  0  0  0  0  0  0  0  0  0  0
  1  4  1  6  0  0  0
  1  2  1  0  0  0  0
  1 12  1  0  0  0  0
  2  6  1  0  0  0  0
  3  7  1  1  0  0  0
  3  1  1  0  0  0  0
  3  2  1  0  0  0  0
  5  2  1  0  0  0  0
  8  9  1  0  0  0  0
  9 10  2  0  0  0  0
  9 15  1  0  0  0  0
 10 16  1  0  0  0  0
 11 10  1  0  0  0  0
 12 11  2  0  0  0  0
 13 12  1  0  0  0  0
 13  8  2  0  0  0  0
 14  8  1  0  0  0  0
 17 19  1  0  0  0  0
 17 18  2  0  0  0  0
 19  3  1  0  0  0  0
 20 19  1  0  0  0  0
 22 23  1  0  0  0  0
 22 21  1  0  0  0  0
 23 17  1  0  0  0  0
 24 25  1  0  0  0  0
 24 23  2  0  0  0  0
 26 24  1  0  0  0  0
 27 26  1  0  0  0  0
 28 26  2  0  0  0  0
 28 30  1  0  0  0  0
 29 28  1  0  0  0  0
 30 22  2  0  0  0  0
 31 30  1  0  0  0  0
M  END
>  <minimizedAffinity>
-4.94791079

>  <minimizedRMSD>
8.95051479

$$$$
