
 OpenBabel03272503063D

 34 36  0  0  0  0  0  0  0  0999 V2000
   38.3910   30.4820   47.2550 F   0  0  0  0  0  0  0  0  0  0  0  0
   38.7430   31.7000   47.7230 C   0  0  0  0  0  0  0  0  0  0  0  0
   38.3310   32.0930   48.9650 C   0  0  0  0  0  0  0  0  0  0  0  0
   38.7160   33.3360   49.3910 C   0  0  0  0  0  0  0  0  0  0  0  0
   39.4910   34.1830   48.6210 C   0  0  0  0  0  0  0  0  0  0  0  0
   39.8910   33.7610   47.3770 C   0  0  0  0  0  0  0  0  0  0  0  0
   39.5160   32.5050   46.9160 C   0  0  0  0  0  0  0  0  0  0  0  0
   38.4010   33.6630   50.3660 H   0  0  0  0  0  0  0  0  0  0  0  0
   39.7600   35.1540   49.0170 H   0  0  0  0  0  0  0  0  0  0  0  0
   40.5050   34.4130   46.7460 H   0  0  0  0  0  0  0  0  0  0  0  0
   37.1820   29.6420   51.6210 C   0  0  0  0  0  0  0  0  0  0  0  0
   37.9740   30.5300   50.8860 C   0  0  0  0  0  0  0  0  0  0  0  0
   37.5120   31.1620   49.7450 C   0  0  0  0  0  0  0  0  0  0  0  0
   36.2390   30.8720   49.3770 N   0  0  0  0  0  0  0  0  0  0  0  0
   35.4750   30.0180   50.0870 C   0  0  0  0  0  0  0  0  0  0  0  0
   35.9320   29.4180   51.1790 N   0  0  0  0  0  0  0  0  0  0  0  0
   37.6750   29.2120   52.5050 H   0  0  0  0  0  0  0  0  0  0  0  0
   38.9990   30.7730   51.1670 H   0  0  0  0  0  0  0  0  0  0  0  0
   34.4600   29.7890   49.7910 H   0  0  0  0  0  0  0  0  0  0  0  0
   38.8730   32.1200   44.6300 C   0  0  0  0  0  0  0  0  0  0  0  0
   37.7820   32.6140   45.0550 O   0  0  0  0  0  0  0  0  0  0  0  0
   39.9100   32.0240   45.6270 N   0  0  0  0  0  0  0  0  0  0  0  0
   40.8110   31.6300   45.3350 H   0  0  0  0  0  0  0  0  0  0  0  0
   39.0060   29.1490   44.1590 Cl  0  0  0  0  0  0  0  0  0  0  0  0
   39.1830   30.3510   42.8870 C   0  0  0  0  0  0  0  0  0  0  0  0
   39.0990   31.6780   43.2540 C   0  0  0  0  0  0  0  0  0  0  0  0
   39.2310   32.6780   42.2890 C   0  0  0  0  0  0  0  0  0  0  0  0
   39.1810   33.7540   42.4710 H   0  0  0  0  0  0  0  0  0  0  0  0
   39.4440   32.3120   40.9870 C   0  0  0  0  0  0  0  0  0  0  0  0
   39.5560   33.0630   40.1880 H   0  0  0  0  0  0  0  0  0  0  0  0
   39.5250   30.9750   40.6500 C   0  0  0  0  0  0  0  0  0  0  0  0
   39.6930   30.7280   39.6120 H   0  0  0  0  0  0  0  0  0  0  0  0
   39.3980   29.9530   41.5800 C   0  0  0  0  0  0  0  0  0  0  0  0
   39.5010   28.2580   41.1410 Cl  0  0  0  0  0  0  0  0  0  0  0  0
  1  2  1  0  0  0  0
  2  3  1  0  0  0  0
  3  4  2  0  0  0  0
  3 13  1  0  0  0  0
  4  8  1  0  0  0  0
  5  9  1  0  0  0  0
  5  4  1  0  0  0  0
  6  5  2  0  0  0  0
  7  6  1  0  0  0  0
  7  2  2  0  0  0  0
 10  6  1  0  0  0  0
 11 17  1  0  0  0  0
 12 18  1  0  0  0  0
 12 11  2  0  0  0  0
 13 12  1  0  0  0  0
 14 13  2  0  0  0  0
 14 15  1  0  0  0  0
 15 16  2  0  0  0  0
 16 11  1  0  0  0  0
 19 15  1  0  0  0  0
 20 21  2  0  0  0  0
 20 22  1  0  0  0  0
 22  7  1  0  0  0  0
 23 22  1  0  0  0  0
 25 26  1  0  0  0  0
 25 24  1  0  0  0  0
 26 20  1  0  0  0  0
 27 28  1  0  0  0  0
 27 26  2  0  0  0  0
 29 27  1  0  0  0  0
 30 29  1  0  0  0  0
 31 29  2  0  0  0  0
 31 33  1  0  0  0  0
 32 31  1  0  0  0  0
 33 25  2  0  0  0  0
 34 33  1  0  0  0  0
M  END
>  <minimizedAffinity>
-6.68821812

>  <minimizedRMSD>
0.450667024

$$$$
