
 OpenBabel03272503303D

 36 38  0  0  1  0  0  0  0  0999 V2000
   35.1320   29.4250   48.0000 C   0  0  0  0  0  0  0  0  0  0  0  0
   35.0350   29.8830   46.6740 C   0  0  0  0  0  0  0  0  0  0  0  0
   33.8460   29.5680   45.9960 C   0  0  0  0  0  0  0  0  0  0  0  0
   32.8900   28.8500   46.6710 N   0  0  0  0  0  0  0  0  0  0  0  0
   33.0200   28.4350   47.9250 C   0  0  0  0  0  0  0  0  0  0  0  0
   34.1630   28.7320   48.5920 N   0  0  0  0  0  0  0  0  0  0  0  0
   35.8090   30.4470   46.1720 H   0  0  0  0  0  0  0  0  0  0  0  0
   33.6870   29.8770   44.9830 H   0  0  0  0  0  0  0  0  0  0  0  0
   36.3510   29.7520   48.6880 N   0  0  0  0  0  0  0  0  0  0  0  0
   37.4500   30.5240   48.2070 C   0  0  0  0  0  0  0  0  0  0  0  0
   38.0250   31.1320   49.4840 C   0  0  2  0  0  0  0  0  0  0  0  0
   37.0870   30.7090   50.6010 C   0  0  0  0  0  0  0  0  0  0  0  0
   36.6980   29.3510   50.0300 C   0  0  0  0  0  0  0  0  0  0  0  0
   38.2140   29.9320   47.6680 H   0  0  0  0  0  0  0  0  0  0  0  0
   37.0650   31.3570   47.5770 H   0  0  0  0  0  0  0  0  0  0  0  0
   39.0360   30.7110   49.6580 H   0  0  0  0  0  0  0  0  0  0  0  0
   36.1990   31.3620   50.6520 H   0  0  0  0  0  0  0  0  0  0  0  0
   37.6150   30.6190   51.5640 H   0  0  0  0  0  0  0  0  0  0  0  0
   35.8000   29.0350   50.5920 H   0  0  0  0  0  0  0  0  0  0  0  0
   37.5510   28.6570   50.0890 H   0  0  0  0  0  0  0  0  0  0  0  0
   38.1860   32.6230   49.4020 C   0  0  0  0  0  0  0  0  0  0  0  0
   37.0160   33.1720   49.9270 F   0  0  0  0  0  0  0  0  0  0  0  0
   38.1880   32.9690   48.0630 F   0  0  0  0  0  0  0  0  0  0  0  0
   39.2920   33.0950   50.0260 F   0  0  0  0  0  0  0  0  0  0  0  0
   31.7620   27.5160   48.7510 S   0  0  0  0  0  0  0  0  0  0  0  0
   33.2770   25.0760   47.4960 Cl  0  0  0  0  0  0  0  0  0  0  0  0
   31.6120   25.3870   47.0030 C   0  0  0  0  0  0  0  0  0  0  0  0
   30.9350   26.4730   47.5620 C   0  0  0  0  0  0  0  0  0  0  0  0
   29.6220   26.6890   47.1500 C   0  0  0  0  0  0  0  0  0  0  0  0
   29.1150   27.5480   47.6050 H   0  0  0  0  0  0  0  0  0  0  0  0
   29.0410   25.8380   46.2200 C   0  0  0  0  0  0  0  0  0  0  0  0
   28.0150   26.0830   45.9580 H   0  0  0  0  0  0  0  0  0  0  0  0
   29.7070   24.7810   45.6790 C   0  0  0  0  0  0  0  0  0  0  0  0
   29.1970   24.1540   44.9570 H   0  0  0  0  0  0  0  0  0  0  0  0
   31.0140   24.5640   46.0870 C   0  0  0  0  0  0  0  0  0  0  0  0
   31.9190   23.2370   45.4390 Cl  0  0  0  0  0  0  0  0  0  0  0  0
  1  6  1  0  0  0  0
  1  9  1  0  0  0  0
  2  1  2  0  0  0  0
  3  4  2  0  0  0  0
  3  2  1  0  0  0  0
  4  5  1  0  0  0  0
  5  6  2  0  0  0  0
  5 25  1  0  0  0  0
  7  2  1  0  0  0  0
  8  3  1  0  0  0  0
  9 13  1  0  0  0  0
 10  9  1  0  0  0  0
 10 11  1  0  0  0  0
 11 16  1  1  0  0  0
 11 12  1  0  0  0  0
 12 17  1  0  0  0  0
 12 18  1  0  0  0  0
 13 20  1  0  0  0  0
 13 19  1  0  0  0  0
 13 12  1  0  0  0  0
 14 10  1  0  0  0  0
 15 10  1  0  0  0  0
 21 11  1  0  0  0  0
 21 22  1  0  0  0  0
 21 24  1  0  0  0  0
 23 21  1  0  0  0  0
 27 26  1  0  0  0  0
 27 28  1  0  0  0  0
 28 25  1  0  0  0  0
 29 28  2  0  0  0  0
 29 30  1  0  0  0  0
 31 29  1  0  0  0  0
 32 31  1  0  0  0  0
 33 35  1  0  0  0  0
 33 31  2  0  0  0  0
 34 33  1  0  0  0  0
 35 27  2  0  0  0  0
 36 35  1  0  0  0  0
M  END
>  <minimizedAffinity>
-5.89710093

>  <minimizedRMSD>
1.90121341

$$$$
