
 OpenBabel03272503303D

 36 38  0  0  1  0  0  0  0  0999 V2000
   35.2590   29.5160   47.9890 C   0  0  0  0  0  0  0  0  0  0  0  0
   35.1770   29.9610   46.6580 C   0  0  0  0  0  0  0  0  0  0  0  0
   34.0030   29.6260   45.9640 C   0  0  0  0  0  0  0  0  0  0  0  0
   33.0460   28.9030   46.6310 N   0  0  0  0  0  0  0  0  0  0  0  0
   33.1610   28.5000   47.8900 C   0  0  0  0  0  0  0  0  0  0  0  0
   34.2890   28.8170   48.5720 N   0  0  0  0  0  0  0  0  0  0  0  0
   35.9520   30.5300   46.1630 H   0  0  0  0  0  0  0  0  0  0  0  0
   33.8560   29.9240   44.9460 H   0  0  0  0  0  0  0  0  0  0  0  0
   36.4630   29.8640   48.6930 N   0  0  0  0  0  0  0  0  0  0  0  0
   37.5660   30.6350   48.2170 C   0  0  0  0  0  0  0  0  0  0  0  0
   38.1130   31.2690   49.4940 C   0  0  2  0  0  0  0  0  0  0  0  0
   37.1580   30.8600   50.6020 C   0  0  0  0  0  0  0  0  0  0  0  0
   36.7890   29.4890   50.0470 C   0  0  0  0  0  0  0  0  0  0  0  0
   38.3430   30.0390   47.7040 H   0  0  0  0  0  0  0  0  0  0  0  0
   37.1870   31.4540   47.5670 H   0  0  0  0  0  0  0  0  0  0  0  0
   39.1240   30.8590   49.6940 H   0  0  0  0  0  0  0  0  0  0  0  0
   36.2650   31.5070   50.6250 H   0  0  0  0  0  0  0  0  0  0  0  0
   37.6690   30.7910   51.5750 H   0  0  0  0  0  0  0  0  0  0  0  0
   35.8830   29.1770   50.6000 H   0  0  0  0  0  0  0  0  0  0  0  0
   37.6460   28.8020   50.1340 H   0  0  0  0  0  0  0  0  0  0  0  0
   38.2660   32.7600   49.3880 C   0  0  0  0  0  0  0  0  0  0  0  0
   37.0860   33.3100   49.8900 F   0  0  0  0  0  0  0  0  0  0  0  0
   38.2810   33.0820   48.0430 F   0  0  0  0  0  0  0  0  0  0  0  0
   39.3610   33.2490   50.0170 F   0  0  0  0  0  0  0  0  0  0  0  0
   31.9000   27.5730   48.7050 S   0  0  0  0  0  0  0  0  0  0  0  0
   33.5160   25.1700   47.5040 Cl  0  0  0  0  0  0  0  0  0  0  0  0
   31.8480   25.4170   46.9850 C   0  0  0  0  0  0  0  0  0  0  0  0
   31.1260   26.4870   47.5190 C   0  0  0  0  0  0  0  0  0  0  0  0
   29.8120   26.6510   47.0870 C   0  0  0  0  0  0  0  0  0  0  0  0
   29.2700   27.5000   47.5230 H   0  0  0  0  0  0  0  0  0  0  0  0
   29.2740   25.7700   46.1610 C   0  0  0  0  0  0  0  0  0  0  0  0
   28.2440   25.9760   45.8820 H   0  0  0  0  0  0  0  0  0  0  0  0
   29.9820   24.7290   45.6440 C   0  0  0  0  0  0  0  0  0  0  0  0
   29.5050   24.0750   44.9240 H   0  0  0  0  0  0  0  0  0  0  0  0
   31.2920   24.5620   46.0720 C   0  0  0  0  0  0  0  0  0  0  0  0
   32.2500   23.2590   45.4550 Cl  0  0  0  0  0  0  0  0  0  0  0  0
  1  6  1  0  0  0  0
  1  9  1  0  0  0  0
  2  1  2  0  0  0  0
  3  4  2  0  0  0  0
  3  2  1  0  0  0  0
  4  5  1  0  0  0  0
  5  6  2  0  0  0  0
  5 25  1  0  0  0  0
  7  2  1  0  0  0  0
  8  3  1  0  0  0  0
  9 13  1  0  0  0  0
 10  9  1  0  0  0  0
 10 11  1  0  0  0  0
 11 16  1  1  0  0  0
 11 12  1  0  0  0  0
 12 17  1  0  0  0  0
 12 18  1  0  0  0  0
 13 20  1  0  0  0  0
 13 19  1  0  0  0  0
 13 12  1  0  0  0  0
 14 10  1  0  0  0  0
 15 10  1  0  0  0  0
 21 11  1  0  0  0  0
 21 22  1  0  0  0  0
 21 24  1  0  0  0  0
 23 21  1  0  0  0  0
 27 26  1  0  0  0  0
 27 28  1  0  0  0  0
 28 25  1  0  0  0  0
 29 28  2  0  0  0  0
 29 30  1  0  0  0  0
 31 29  1  0  0  0  0
 32 31  1  0  0  0  0
 33 35  1  0  0  0  0
 33 31  2  0  0  0  0
 34 33  1  0  0  0  0
 35 27  2  0  0  0  0
 36 35  1  0  0  0  0
M  END
>  <minimizedAffinity>
-5.88967705

>  <minimizedRMSD>
1.73162985

$$$$
