
 OpenBabel03272509313D

 40 42  0  0  1  0  0  0  0  0999 V2000
   36.5580   30.8760   48.8460 C   0  0  2  0  0  0  0  0  0  0  0  0
   37.4550   31.5460   49.8460 C   0  0  0  0  0  0  0  0  0  0  0  0
   38.0560   30.5720   50.8380 C   0  0  0  0  0  0  0  0  0  0  0  0
   36.9610   29.7920   51.5660 C   0  0  0  0  0  0  0  0  0  0  0  0
   35.7700   29.4630   50.6950 C   0  0  0  0  0  0  0  0  0  0  0  0
   36.2350   29.4710   49.2300 C   0  0  1  0  0  0  0  0  0  0  0  0
   35.5620   31.3840   48.7310 H   0  0  0  0  0  0  0  0  0  0  0  0
   36.7430   32.1670   50.4880 H   0  0  0  0  0  0  0  0  0  0  0  0
   38.1740   32.2460   49.4760 H   0  0  0  0  0  0  0  0  0  0  0  0
   38.6080   31.1440   51.5790 H   0  0  0  0  0  0  0  0  0  0  0  0
   38.6870   29.8120   50.3420 H   0  0  0  0  0  0  0  0  0  0  0  0
   37.4200   28.8360   51.9220 H   0  0  0  0  0  0  0  0  0  0  0  0
   36.6610   30.3810   52.4400 H   0  0  0  0  0  0  0  0  0  0  0  0
   35.0160   30.2410   50.7800 H   0  0  0  0  0  0  0  0  0  0  0  0
   35.3130   28.4870   50.9370 H   0  0  0  0  0  0  0  0  0  0  0  0
   37.1110   28.8760   49.2970 H   0  0  0  0  0  0  0  0  0  0  0  0
   37.1690   30.8790   47.4920 C   0  0  0  0  0  0  0  0  0  0  0  0
   38.5620   31.1230   47.4540 C   0  0  0  0  0  0  0  0  0  0  0  0
   39.1560   31.1230   46.1850 C   0  0  0  0  0  0  0  0  0  0  0  0
   38.3680   30.8920   45.0790 N   0  0  0  0  0  0  0  0  0  0  0  0
   37.0260   30.6610   45.1750 C   0  0  0  0  0  0  0  0  0  0  0  0
   36.4510   30.6600   46.3920 N   0  0  0  0  0  0  0  0  0  0  0  0
   39.2800   31.3050   48.2290 H   0  0  0  0  0  0  0  0  0  0  0  0
   40.1910   31.2930   45.9940 H   0  0  0  0  0  0  0  0  0  0  0  0
   36.4670   30.4840   44.2670 H   0  0  0  0  0  0  0  0  0  0  0  0
   34.0830   28.3410   48.5450 C   0  0  0  0  0  0  0  0  0  0  0  0
   33.2530   28.5900   49.5130 O   0  0  0  0  0  0  0  0  0  0  0  0
   35.4030   28.7750   48.3190 N   0  0  0  0  0  0  0  0  0  0  0  0
   35.6800   28.4900   47.3290 H   0  0  0  0  0  0  0  0  0  0  0  0
   32.0000   29.3430   46.4290 Cl  0  0  0  0  0  0  0  0  0  0  0  0
   32.3760   27.6810   46.6980 C   0  0  0  0  0  0  0  0  0  0  0  0
   33.3030   27.4340   47.6650 C   0  0  0  0  0  0  0  0  0  0  0  0
   33.5660   26.0620   47.8340 C   0  0  0  0  0  0  0  0  0  0  0  0
   34.3040   25.7510   48.5930 H   0  0  0  0  0  0  0  0  0  0  0  0
   32.9890   25.0200   47.1380 C   0  0  0  0  0  0  0  0  0  0  0  0
   33.2640   23.9960   47.3480 H   0  0  0  0  0  0  0  0  0  0  0  0
   32.0690   25.3740   46.1890 C   0  0  0  0  0  0  0  0  0  0  0  0
   31.5860   24.5900   45.6170 H   0  0  0  0  0  0  0  0  0  0  0  0
   31.7690   26.6940   45.9750 C   0  0  0  0  0  0  0  0  0  0  0  0
   30.5960   27.1950   44.7640 Cl  0  0  0  0  0  0  0  0  0  0  0  0
  1  7  1  6  0  0  0
  1  6  1  0  0  0  0
  1  2  1  0  0  0  0
  2  8  1  0  0  0  0
  2  3  1  0  0  0  0
  3  4  1  0  0  0  0
  3 10  1  0  0  0  0
  4 12  1  0  0  0  0
  4 13  1  0  0  0  0
  5 14  1  0  0  0  0
  5 15  1  0  0  0  0
  5  4  1  0  0  0  0
  6 16  1  6  0  0  0
  6  5  1  0  0  0  0
  9  2  1  0  0  0  0
 11  3  1  0  0  0  0
 17  1  1  0  0  0  0
 18 17  1  0  0  0  0
 18 23  1  0  0  0  0
 19 18  2  0  0  0  0
 20 21  2  0  0  0  0
 20 19  1  0  0  0  0
 21 22  1  0  0  0  0
 22 17  2  0  0  0  0
 24 19  1  0  0  0  0
 25 21  1  0  0  0  0
 26 27  2  0  0  0  0
 28 26  1  0  0  0  0
 28  6  1  0  0  0  0
 29 28  1  0  0  0  0
 30 31  1  0  0  0  0
 31 32  1  0  0  0  0
 32 33  2  0  0  0  0
 32 26  1  0  0  0  0
 33 34  1  0  0  0  0
 35 36  1  0  0  0  0
 35 33  1  0  0  0  0
 37 35  2  0  0  0  0
 38 37  1  0  0  0  0
 39 37  1  0  0  0  0
 39 31  2  0  0  0  0
 40 39  1  0  0  0  0
M  END
>  <minimizedAffinity>
-6.01688671

>  <minimizedRMSD>
1.2749958

$$$$
