
 OpenBabel03272508523D

 31 33  0  0  1  0  0  0  0  0999 V2000
   38.0970   27.4680   32.7090 C   0  0  2  0  0  0  0  0  0  0  0  0
   38.6960   26.3970   31.9180 C   0  0  0  0  0  0  0  0  0  0  0  0
   37.6970   26.1130   33.0570 C   0  0  1  0  0  0  0  0  0  0  0  0
   38.7820   28.0220   33.4280 H   0  0  0  0  0  0  0  0  0  0  0  0
   39.7420   26.0740   32.0400 H   0  0  0  0  0  0  0  0  0  0  0  0
   38.2630   26.2350   30.9140 H   0  0  0  0  0  0  0  0  0  0  0  0
   36.7740   25.6410   32.7430 H   0  0  0  0  0  0  0  0  0  0  0  0
   36.4000   29.8570   30.4270 C   0  0  0  0  0  0  0  0  0  0  0  0
   35.2200   30.1540   31.1670 C   0  0  0  0  0  0  0  0  0  0  0  0
   35.0400   29.5370   32.4090 C   0  0  0  0  0  0  0  0  0  0  0  0
   35.9910   28.6790   32.8690 N   0  0  0  0  0  0  0  0  0  0  0  0
   37.0960   28.4140   32.1510 C   0  0  0  0  0  0  0  0  0  0  0  0
   37.3380   28.9860   30.9200 N   0  0  0  0  0  0  0  0  0  0  0  0
   36.5700   30.3150   29.4620 H   0  0  0  0  0  0  0  0  0  0  0  0
   34.4880   30.8280   30.7900 H   0  0  0  0  0  0  0  0  0  0  0  0
   34.1720   29.7060   33.0360 H   0  0  0  0  0  0  0  0  0  0  0  0
   38.1160   24.1040   34.4320 C   0  0  0  0  0  0  0  0  0  0  0  0
   37.5810   23.4130   33.5320 O   0  0  0  0  0  0  0  0  0  0  0  0
   38.3140   25.5220   34.2490 N   0  0  0  0  0  0  0  0  0  0  0  0
   38.8410   26.1730   34.8680 H   0  0  0  0  0  0  0  0  0  0  0  0
   40.5740   22.2760   34.6810 Cl  0  0  0  0  0  0  0  0  0  0  0  0
   39.6790   22.8910   36.0710 C   0  0  0  0  0  0  0  0  0  0  0  0
   38.6190   23.6930   35.7290 C   0  0  0  0  0  0  0  0  0  0  0  0
   37.9280   24.1620   36.8680 C   0  0  0  0  0  0  0  0  0  0  0  0
   37.0550   24.8150   36.6720 H   0  0  0  0  0  0  0  0  0  0  0  0
   38.1870   23.9160   38.2250 C   0  0  0  0  0  0  0  0  0  0  0  0
   37.6420   24.2900   39.0690 H   0  0  0  0  0  0  0  0  0  0  0  0
   39.2960   23.0910   38.2840 C   0  0  0  0  0  0  0  0  0  0  0  0
   39.5860   22.8340   39.3200 H   0  0  0  0  0  0  0  0  0  0  0  0
   40.0900   22.5370   37.3250 C   0  0  0  0  0  0  0  0  0  0  0  0
   41.4590   21.5070   37.6350 Cl  0  0  0  0  0  0  0  0  0  0  0  0
  1  3  1  0  0  0  0
  1  4  1  1  0  0  0
  2  5  1  0  0  0  0
  2  1  1  0  0  0  0
  2  3  1  0  0  0  0
  3  7  1  6  0  0  0
  3 19  1  0  0  0  0
  6  2  1  0  0  0  0
  8 13  2  0  0  0  0
  8  9  1  0  0  0  0
  9 10  2  0  0  0  0
 10 11  1  0  0  0  0
 10 16  1  0  0  0  0
 12  1  1  0  0  0  0
 12 11  2  0  0  0  0
 13 12  1  0  0  0  0
 14  8  1  0  0  0  0
 15  9  1  0  0  0  0
 17 23  1  0  0  0  0
 18 17  2  0  0  0  0
 19 17  1  0  0  0  0
 19 20  1  0  0  0  0
 21 22  1  0  0  0  0
 22 30  1  0  0  0  0
 23 22  2  0  0  0  0
 23 24  1  0  0  0  0
 24 26  2  0  0  0  0
 25 24  1  0  0  0  0
 26 28  1  0  0  0  0
 26 27  1  0  0  0  0
 28 29  1  0  0  0  0
 30 31  1  0  0  0  0
 30 28  2  0  0  0  0
M  END
>  <minimizedAffinity>
-5.03070879

$$$$

 OpenBabel03272508523D

 31 33  0  0  1  0  0  0  0  0999 V2000
   38.1060   23.9980   34.5950 C   0  0  2  0  0  0  0  0  0  0  0  0
   38.5230   23.0980   33.5230 C   0  0  0  0  0  0  0  0  0  0  0  0
   39.1240   24.5070   33.6880 C   0  0  1  0  0  0  0  0  0  0  0  0
   37.0590   24.4360   34.5210 H   0  0  0  0  0  0  0  0  0  0  0  0
   37.9000   22.8890   32.6370 H   0  0  0  0  0  0  0  0  0  0  0  0
   39.2240   22.2930   33.8100 H   0  0  0  0  0  0  0  0  0  0  0  0
   40.1860   24.5240   33.8980 H   0  0  0  0  0  0  0  0  0  0  0  0
   39.8520   22.8060   37.6470 C   0  0  0  0  0  0  0  0  0  0  0  0
   39.0130   23.3350   38.6690 C   0  0  0  0  0  0  0  0  0  0  0  0
   37.8890   24.0750   38.2900 C   0  0  0  0  0  0  0  0  0  0  0  0
   37.6330   24.2640   36.9680 N   0  0  0  0  0  0  0  0  0  0  0  0
   38.4400   23.7550   36.0210 C   0  0  0  0  0  0  0  0  0  0  0  0
   39.5660   23.0170   36.3230 N   0  0  0  0  0  0  0  0  0  0  0  0
   40.7320   22.2310   37.9050 H   0  0  0  0  0  0  0  0  0  0  0  0
   39.2310   23.1760   39.6980 H   0  0  0  0  0  0  0  0  0  0  0  0
   37.1990   24.5130   39.0020 H   0  0  0  0  0  0  0  0  0  0  0  0
   38.7780   26.8570   33.0120 C   0  0  0  0  0  0  0  0  0  0  0  0
   39.3480   27.2150   34.0700 O   0  0  0  0  0  0  0  0  0  0  0  0
   38.6850   25.4600   32.6630 N   0  0  0  0  0  0  0  0  0  0  0  0
   38.3410   25.0520   31.7690 H   0  0  0  0  0  0  0  0  0  0  0  0
   36.2630   28.5180   33.6180 Cl  0  0  0  0  0  0  0  0  0  0  0  0
   37.0370   28.4740   32.0330 C   0  0  0  0  0  0  0  0  0  0  0  0
   38.1490   27.6700   31.9870 C   0  0  0  0  0  0  0  0  0  0  0  0
   38.7370   27.6600   30.7040 C   0  0  0  0  0  0  0  0  0  0  0  0
   39.6400   27.0300   30.5870 H   0  0  0  0  0  0  0  0  0  0  0  0
   38.3360   28.3370   29.5410 C   0  0  0  0  0  0  0  0  0  0  0  0
   38.8070   28.3090   28.5780 H   0  0  0  0  0  0  0  0  0  0  0  0
   37.2050   29.0660   29.8640 C   0  0  0  0  0  0  0  0  0  0  0  0
   36.8050   29.6410   29.0070 H   0  0  0  0  0  0  0  0  0  0  0  0
   36.4930   29.2090   31.0170 C   0  0  0  0  0  0  0  0  0  0  0  0
   35.0710   30.1970   31.1970 Cl  0  0  0  0  0  0  0  0  0  0  0  0
  1  4  1  6  0  0  0
  1 12  1  0  0  0  0
  2  3  1  0  0  0  0
  2  6  1  0  0  0  0
  2  1  1  0  0  0  0
  3  7  1  1  0  0  0
  3  1  1  0  0  0  0
  5  2  1  0  0  0  0
  8 14  1  0  0  0  0
  8  9  1  0  0  0  0
  9 15  1  0  0  0  0
 10  9  2  0  0  0  0
 10 16  1  0  0  0  0
 11 10  1  0  0  0  0
 12 13  1  0  0  0  0
 12 11  2  0  0  0  0
 13  8  2  0  0  0  0
 17 18  2  0  0  0  0
 19 17  1  0  0  0  0
 19  3  1  0  0  0  0
 20 19  1  0  0  0  0
 22 21  1  0  0  0  0
 23 22  1  0  0  0  0
 23 17  1  0  0  0  0
 24 23  2  0  0  0  0
 25 24  1  0  0  0  0
 26 28  2  0  0  0  0
 26 24  1  0  0  0  0
 27 26  1  0  0  0  0
 28 30  1  0  0  0  0
 29 28  1  0  0  0  0
 30 31  1  0  0  0  0
 30 22  2  0  0  0  0
M  END
>  <minimizedAffinity>
-4.98091602

$$$$

 OpenBabel03272508523D

 31 33  0  0  1  0  0  0  0  0999 V2000
   38.0680   23.9830   34.5770 C   0  0  2  0  0  0  0  0  0  0  0  0
   38.5090   23.0920   33.5080 C   0  0  0  0  0  0  0  0  0  0  0  0
   39.0750   24.5150   33.6730 C   0  0  1  0  0  0  0  0  0  0  0  0
   37.0110   24.3970   34.5000 H   0  0  0  0  0  0  0  0  0  0  0  0
   37.8940   22.8670   32.6210 H   0  0  0  0  0  0  0  0  0  0  0  0
   39.2280   22.3050   33.7980 H   0  0  0  0  0  0  0  0  0  0  0  0
   40.1370   24.5590   33.8860 H   0  0  0  0  0  0  0  0  0  0  0  0
   37.9040   24.0420   38.2870 C   0  0  0  0  0  0  0  0  0  0  0  0
   39.0700   23.2970   38.6260 C   0  0  0  0  0  0  0  0  0  0  0  0
   39.8680   22.8010   37.5900 C   0  0  0  0  0  0  0  0  0  0  0  0
   39.5090   23.0460   36.3000 N   0  0  0  0  0  0  0  0  0  0  0  0
   38.4040   23.7510   36.0050 C   0  0  0  0  0  0  0  0  0  0  0  0
   37.5710   24.2680   36.9750 N   0  0  0  0  0  0  0  0  0  0  0  0
   37.2620   24.4370   39.0630 H   0  0  0  0  0  0  0  0  0  0  0  0
   39.3320   23.1160   39.6410 H   0  0  0  0  0  0  0  0  0  0  0  0
   40.7700   22.2250   37.7590 H   0  0  0  0  0  0  0  0  0  0  0  0
   38.8420   26.8550   32.9170 C   0  0  0  0  0  0  0  0  0  0  0  0
   39.5280   27.2120   33.9050 O   0  0  0  0  0  0  0  0  0  0  0  0
   38.6180   25.4560   32.6440 N   0  0  0  0  0  0  0  0  0  0  0  0
   38.1660   25.0390   31.8040 H   0  0  0  0  0  0  0  0  0  0  0  0
   36.3210   28.4820   33.5880 Cl  0  0  0  0  0  0  0  0  0  0  0  0
   37.0640   28.4620   31.9880 C   0  0  0  0  0  0  0  0  0  0  0  0
   38.1840   27.6720   31.9130 C   0  0  0  0  0  0  0  0  0  0  0  0
   38.7470   27.6810   30.6190 C   0  0  0  0  0  0  0  0  0  0  0  0
   39.6550   27.0620   30.4790 H   0  0  0  0  0  0  0  0  0  0  0  0
   38.3170   28.3650   29.4710 C   0  0  0  0  0  0  0  0  0  0  0  0
   38.7690   28.3510   28.4990 H   0  0  0  0  0  0  0  0  0  0  0  0
   37.1840   29.0770   29.8220 C   0  0  0  0  0  0  0  0  0  0  0  0
   36.7620   29.6560   28.9800 H   0  0  0  0  0  0  0  0  0  0  0  0
   36.4930   29.2010   30.9900 C   0  0  0  0  0  0  0  0  0  0  0  0
   35.0640   30.1710   31.2070 Cl  0  0  0  0  0  0  0  0  0  0  0  0
  1  4  1  6  0  0  0
  1 12  1  0  0  0  0
  2  3  1  0  0  0  0
  2  6  1  0  0  0  0
  2  1  1  0  0  0  0
  3  7  1  1  0  0  0
  3  1  1  0  0  0  0
  5  2  1  0  0  0  0
  8  9  1  0  0  0  0
  8 14  1  0  0  0  0
  9 15  1  0  0  0  0
 10 16  1  0  0  0  0
 10  9  2  0  0  0  0
 11 10  1  0  0  0  0
 12 11  2  0  0  0  0
 12 13  1  0  0  0  0
 13  8  2  0  0  0  0
 17 18  2  0  0  0  0
 19 17  1  0  0  0  0
 19  3  1  0  0  0  0
 20 19  1  0  0  0  0
 22 21  1  0  0  0  0
 23 22  1  0  0  0  0
 23 17  1  0  0  0  0
 24 23  2  0  0  0  0
 25 24  1  0  0  0  0
 26 28  2  0  0  0  0
 26 24  1  0  0  0  0
 27 26  1  0  0  0  0
 28 30  1  0  0  0  0
 29 28  1  0  0  0  0
 30 31  1  0  0  0  0
 30 22  2  0  0  0  0
M  END
>  <minimizedAffinity>
-4.94298887

$$$$

 OpenBabel03272508523D

 31 33  0  0  1  0  0  0  0  0999 V2000
   35.9620   27.3290   31.2770 C   0  0  2  0  0  0  0  0  0  0  0  0
   36.5910   28.3530   30.4470 C   0  0  0  0  0  0  0  0  0  0  0  0
   36.8690   28.2410   31.9580 C   0  0  1  0  0  0  0  0  0  0  0  0
   34.8480   27.4400   31.4740 H   0  0  0  0  0  0  0  0  0  0  0  0
   36.0510   29.2380   30.0730 H   0  0  0  0  0  0  0  0  0  0  0  0
   37.4420   28.0190   29.8260 H   0  0  0  0  0  0  0  0  0  0  0  0
   37.8960   28.0150   32.2150 H   0  0  0  0  0  0  0  0  0  0  0  0
   35.6450   23.6300   31.2330 C   0  0  0  0  0  0  0  0  0  0  0  0
   36.9890   23.2410   30.9670 C   0  0  0  0  0  0  0  0  0  0  0  0
   37.9530   24.2420   30.8110 C   0  0  0  0  0  0  0  0  0  0  0  0
   37.5800   25.5460   30.9190 N   0  0  0  0  0  0  0  0  0  0  0  0
   36.3050   25.8880   31.1700 C   0  0  0  0  0  0  0  0  0  0  0  0
   35.3030   24.9540   31.3330 N   0  0  0  0  0  0  0  0  0  0  0  0
   34.8740   22.8810   31.3550 H   0  0  0  0  0  0  0  0  0  0  0  0
   37.2610   22.2160   30.8850 H   0  0  0  0  0  0  0  0  0  0  0  0
   38.9970   24.0350   30.6060 H   0  0  0  0  0  0  0  0  0  0  0  0
   35.9930   29.0100   34.1360 C   0  0  0  0  0  0  0  0  0  0  0  0
   36.4070   27.9410   34.6470 O   0  0  0  0  0  0  0  0  0  0  0  0
   36.2610   29.3150   32.7520 N   0  0  0  0  0  0  0  0  0  0  0  0
   36.0690   30.2080   32.2520 H   0  0  0  0  0  0  0  0  0  0  0  0
   32.9770   29.3200   33.6280 Cl  0  0  0  0  0  0  0  0  0  0  0  0
   33.9040   30.4120   34.6580 C   0  0  0  0  0  0  0  0  0  0  0  0
   35.2340   30.0860   34.7470 C   0  0  0  0  0  0  0  0  0  0  0  0
   35.9410   30.9830   35.5770 C   0  0  0  0  0  0  0  0  0  0  0  0
   37.0240   30.7850   35.6960 H   0  0  0  0  0  0  0  0  0  0  0  0
   35.4650   32.1030   36.2770 C   0  0  0  0  0  0  0  0  0  0  0  0
   36.0300   32.7670   36.9020 H   0  0  0  0  0  0  0  0  0  0  0  0
   34.1100   32.2010   36.0160 C   0  0  0  0  0  0  0  0  0  0  0  0
   33.6340   33.0600   36.5250 H   0  0  0  0  0  0  0  0  0  0  0  0
   33.2560   31.4550   35.2600 C   0  0  0  0  0  0  0  0  0  0  0  0
   31.5550   31.7690   35.0700 Cl  0  0  0  0  0  0  0  0  0  0  0  0
  1  4  1  1  0  0  0
  1  3  1  0  0  0  0
  2  1  1  0  0  0  0
  2  3  1  0  0  0  0
  3  7  1  1  0  0  0
  3 19  1  0  0  0  0
  5  2  1  0  0  0  0
  6  2  1  0  0  0  0
  8 13  1  0  0  0  0
  8 14  1  0  0  0  0
  9  8  2  0  0  0  0
 10 11  2  0  0  0  0
 10  9  1  0  0  0  0
 11 12  1  0  0  0  0
 12  1  1  0  0  0  0
 12 13  2  0  0  0  0
 15  9  1  0  0  0  0
 16 10  1  0  0  0  0
 17 18  2  0  0  0  0
 17 23  1  0  0  0  0
 19 17  1  0  0  0  0
 20 19  1  0  0  0  0
 21 22  1  0  0  0  0
 22 23  2  0  0  0  0
 22 30  1  0  0  0  0
 23 24  1  0  0  0  0
 24 25  1  0  0  0  0
 24 26  2  0  0  0  0
 26 27  1  0  0  0  0
 28 26  1  0  0  0  0
 28 29  1  0  0  0  0
 30 28  2  0  0  0  0
 31 30  1  0  0  0  0
M  END
>  <minimizedAffinity>
-4.93469238

$$$$

 OpenBabel03272508523D

 31 33  0  0  1  0  0  0  0  0999 V2000
   38.0590   23.9500   34.5940 C   0  0  2  0  0  0  0  0  0  0  0  0
   38.5660   23.1120   33.5110 C   0  0  0  0  0  0  0  0  0  0  0  0
   39.0250   24.5710   33.7000 C   0  0  1  0  0  0  0  0  0  0  0  0
   36.9750   24.2850   34.5210 H   0  0  0  0  0  0  0  0  0  0  0  0
   37.9700   22.8560   32.6200 H   0  0  0  0  0  0  0  0  0  0  0  0
   39.3420   22.3760   33.7910 H   0  0  0  0  0  0  0  0  0  0  0  0
   40.0800   24.6890   33.9160 H   0  0  0  0  0  0  0  0  0  0  0  0
   37.9290   24.0050   38.3050 C   0  0  0  0  0  0  0  0  0  0  0  0
   39.1060   23.2730   38.6330 C   0  0  0  0  0  0  0  0  0  0  0  0
   39.9000   22.7860   37.5890 C   0  0  0  0  0  0  0  0  0  0  0  0
   39.5270   23.0280   36.3030 N   0  0  0  0  0  0  0  0  0  0  0  0
   38.4110   23.7210   36.0190 C   0  0  0  0  0  0  0  0  0  0  0  0
   37.5820   24.2280   36.9970 N   0  0  0  0  0  0  0  0  0  0  0  0
   37.2900   24.3920   39.0880 H   0  0  0  0  0  0  0  0  0  0  0  0
   39.3800   23.0940   39.6450 H   0  0  0  0  0  0  0  0  0  0  0  0
   40.8100   22.2200   37.7500 H   0  0  0  0  0  0  0  0  0  0  0  0
   38.8130   26.8870   32.8710 C   0  0  0  0  0  0  0  0  0  0  0  0
   39.6180   27.2490   33.7620 O   0  0  0  0  0  0  0  0  0  0  0  0
   38.4990   25.4910   32.6860 N   0  0  0  0  0  0  0  0  0  0  0  0
   37.9400   25.0640   31.9190 H   0  0  0  0  0  0  0  0  0  0  0  0
   39.8900   27.3310   30.0260 Cl  0  0  0  0  0  0  0  0  0  0  0  0
   38.3750   28.0240   30.6080 C   0  0  0  0  0  0  0  0  0  0  0  0
   38.0850   27.6940   31.9080 C   0  0  0  0  0  0  0  0  0  0  0  0
   36.8690   28.2690   32.3360 C   0  0  0  0  0  0  0  0  0  0  0  0
   36.5670   28.0490   33.3790 H   0  0  0  0  0  0  0  0  0  0  0  0
   35.9780   29.0890   31.6260 C   0  0  0  0  0  0  0  0  0  0  0  0
   35.0590   29.5100   31.9810 H   0  0  0  0  0  0  0  0  0  0  0  0
   36.5060   29.2600   30.3580 C   0  0  0  0  0  0  0  0  0  0  0  0
   35.8740   29.8980   29.7120 H   0  0  0  0  0  0  0  0  0  0  0  0
   37.6410   28.8030   29.7580 C   0  0  0  0  0  0  0  0  0  0  0  0
   38.1150   29.1530   28.1200 Cl  0  0  0  0  0  0  0  0  0  0  0  0
  1  4  1  6  0  0  0
  1 12  1  0  0  0  0
  2  3  1  0  0  0  0
  2  6  1  0  0  0  0
  2  1  1  0  0  0  0
  3  7  1  1  0  0  0
  3  1  1  0  0  0  0
  5  2  1  0  0  0  0
  8  9  1  0  0  0  0
  8 14  1  0  0  0  0
  9 15  1  0  0  0  0
 10 16  1  0  0  0  0
 10  9  2  0  0  0  0
 11 10  1  0  0  0  0
 12 11  2  0  0  0  0
 12 13  1  0  0  0  0
 13  8  2  0  0  0  0
 17 18  2  0  0  0  0
 19 17  1  0  0  0  0
 19  3  1  0  0  0  0
 20 19  1  0  0  0  0
 21 22  1  0  0  0  0
 22 23  1  0  0  0  0
 23 24  2  0  0  0  0
 23 17  1  0  0  0  0
 24 25  1  0  0  0  0
 26 27  1  0  0  0  0
 26 24  1  0  0  0  0
 28 26  2  0  0  0  0
 29 28  1  0  0  0  0
 30 28  1  0  0  0  0
 30 22  2  0  0  0  0
 31 30  1  0  0  0  0
M  END
>  <minimizedAffinity>
-4.89636421

$$$$

 OpenBabel03272508523D

 31 33  0  0  1  0  0  0  0  0999 V2000
   39.0300   26.2070   35.1970 C   0  0  2  0  0  0  0  0  0  0  0  0
   38.4700   27.2220   36.0850 C   0  0  0  0  0  0  0  0  0  0  0  0
   37.6660   26.6280   34.9130 C   0  0  1  0  0  0  0  0  0  0  0  0
   39.8500   26.5420   34.4850 H   0  0  0  0  0  0  0  0  0  0  0  0
   38.7620   28.2850   36.0420 H   0  0  0  0  0  0  0  0  0  0  0  0
   38.1230   26.8660   37.0720 H   0  0  0  0  0  0  0  0  0  0  0  0
   36.7770   26.0830   35.2040 H   0  0  0  0  0  0  0  0  0  0  0  0
   38.7170   22.9500   36.9530 C   0  0  0  0  0  0  0  0  0  0  0  0
   39.8330   22.2420   36.4210 C   0  0  0  0  0  0  0  0  0  0  0  0
   40.6490   22.8900   35.4880 C   0  0  0  0  0  0  0  0  0  0  0  0
   40.3550   24.1670   35.1220 N   0  0  0  0  0  0  0  0  0  0  0  0
   39.2960   24.8140   35.6380 C   0  0  0  0  0  0  0  0  0  0  0  0
   38.4490   24.2360   36.5600 N   0  0  0  0  0  0  0  0  0  0  0  0
   38.0630   22.4770   37.6740 H   0  0  0  0  0  0  0  0  0  0  0  0
   40.0450   21.2430   36.7200 H   0  0  0  0  0  0  0  0  0  0  0  0
   41.5170   22.4250   35.0340 H   0  0  0  0  0  0  0  0  0  0  0  0
   36.9850   26.9860   32.5660 C   0  0  0  0  0  0  0  0  0  0  0  0
   36.6020   25.7920   32.5260 O   0  0  0  0  0  0  0  0  0  0  0  0
   37.4760   27.5600   33.7960 N   0  0  0  0  0  0  0  0  0  0  0  0
   37.7130   28.5570   33.9790 H   0  0  0  0  0  0  0  0  0  0  0  0
   38.7750   26.6150   30.0950 Cl  0  0  0  0  0  0  0  0  0  0  0  0
   37.7330   28.0170   30.3340 C   0  0  0  0  0  0  0  0  0  0  0  0
   37.0170   27.9760   31.5050 C   0  0  0  0  0  0  0  0  0  0  0  0
   36.1980   29.1150   31.6600 C   0  0  0  0  0  0  0  0  0  0  0  0
   35.5900   29.1550   32.5860 H   0  0  0  0  0  0  0  0  0  0  0  0
   36.0420   30.2170   30.8050 C   0  0  0  0  0  0  0  0  0  0  0  0
   35.4090   31.0690   30.9520 H   0  0  0  0  0  0  0  0  0  0  0  0
   36.8660   30.0050   29.7140 C   0  0  0  0  0  0  0  0  0  0  0  0
   36.8180   30.8240   28.9720 H   0  0  0  0  0  0  0  0  0  0  0  0
   37.7180   28.9950   29.3790 C   0  0  0  0  0  0  0  0  0  0  0  0
   38.6760   28.9360   27.9260 Cl  0  0  0  0  0  0  0  0  0  0  0  0
  1  4  1  6  0  0  0
  1 12  1  0  0  0  0
  1  2  1  0  0  0  0
  2  6  1  0  0  0  0
  3  1  1  0  0  0  0
  3  7  1  1  0  0  0
  3  2  1  0  0  0  0
  5  2  1  0  0  0  0
  8 14  1  0  0  0  0
  9 15  1  0  0  0  0
  9  8  2  0  0  0  0
 10  9  1  0  0  0  0
 11 10  2  0  0  0  0
 11 12  1  0  0  0  0
 12 13  2  0  0  0  0
 13  8  1  0  0  0  0
 16 10  1  0  0  0  0
 17 19  1  0  0  0  0
 18 17  2  0  0  0  0
 19 20  1  0  0  0  0
 19  3  1  0  0  0  0
 21 22  1  0  0  0  0
 22 23  1  0  0  0  0
 23 24  2  0  0  0  0
 23 17  1  0  0  0  0
 24 25  1  0  0  0  0
 26 27  1  0  0  0  0
 26 24  1  0  0  0  0
 28 26  2  0  0  0  0
 29 28  1  0  0  0  0
 30 28  1  0  0  0  0
 30 22  2  0  0  0  0
 31 30  1  0  0  0  0
M  END
>  <minimizedAffinity>
-4.82632875

$$$$

 OpenBabel03272508523D

 31 33  0  0  1  0  0  0  0  0999 V2000
   37.1930   27.3310   33.1870 C   0  0  2  0  0  0  0  0  0  0  0  0
   38.1270   27.1530   34.2940 C   0  0  0  0  0  0  0  0  0  0  0  0
   36.6820   27.6400   34.5140 C   0  0  1  0  0  0  0  0  0  0  0  0
   37.3930   28.1980   32.4790 H   0  0  0  0  0  0  0  0  0  0  0  0
   38.9570   27.8490   34.4980 H   0  0  0  0  0  0  0  0  0  0  0  0
   38.2880   26.1120   34.6310 H   0  0  0  0  0  0  0  0  0  0  0  0
   36.0660   26.9770   35.1090 H   0  0  0  0  0  0  0  0  0  0  0  0
   35.0960   25.3620   30.8380 C   0  0  0  0  0  0  0  0  0  0  0  0
   35.6130   24.0510   31.0410 C   0  0  0  0  0  0  0  0  0  0  0  0
   36.6510   23.8790   31.9620 C   0  0  0  0  0  0  0  0  0  0  0  0
   37.1300   24.9620   32.6320 N   0  0  0  0  0  0  0  0  0  0  0  0
   36.6260   26.1900   32.4230 C   0  0  0  0  0  0  0  0  0  0  0  0
   35.6040   26.4320   31.5300 N   0  0  0  0  0  0  0  0  0  0  0  0
   34.2950   25.5310   30.1310 H   0  0  0  0  0  0  0  0  0  0  0  0
   35.2250   23.2170   30.5060 H   0  0  0  0  0  0  0  0  0  0  0  0
   37.1020   22.9170   32.1760 H   0  0  0  0  0  0  0  0  0  0  0  0
   35.3910   29.7450   34.4490 C   0  0  0  0  0  0  0  0  0  0  0  0
   34.4380   29.1100   33.9370 O   0  0  0  0  0  0  0  0  0  0  0  0
   36.5860   29.0580   34.8770 N   0  0  0  0  0  0  0  0  0  0  0  0
   37.3870   29.4550   35.4110 H   0  0  0  0  0  0  0  0  0  0  0  0
   36.2100   31.7140   32.2350 Cl  0  0  0  0  0  0  0  0  0  0  0  0
   35.8600   32.2090   33.8920 C   0  0  0  0  0  0  0  0  0  0  0  0
   35.5100   31.1670   34.7140 C   0  0  0  0  0  0  0  0  0  0  0  0
   35.2400   31.6030   36.0290 C   0  0  0  0  0  0  0  0  0  0  0  0
   34.9530   30.8150   36.7530 H   0  0  0  0  0  0  0  0  0  0  0  0
   35.2870   32.9030   36.5580 C   0  0  0  0  0  0  0  0  0  0  0  0
   35.0750   33.2020   37.5660 H   0  0  0  0  0  0  0  0  0  0  0  0
   35.6600   33.7480   35.5280 C   0  0  0  0  0  0  0  0  0  0  0  0
   35.7270   34.8060   35.8440 H   0  0  0  0  0  0  0  0  0  0  0  0
   35.9600   33.5330   34.2170 C   0  0  0  0  0  0  0  0  0  0  0  0
   36.4150   34.7710   33.0810 Cl  0  0  0  0  0  0  0  0  0  0  0  0
  1  4  1  6  0  0  0
  1  2  1  0  0  0  0
  1  3  1  0  0  0  0
  2  5  1  0  0  0  0
  2  3  1  0  0  0  0
  2  6  1  0  0  0  0
  3 19  1  0  0  0  0
  3  7  1  1  0  0  0
  8  9  2  0  0  0  0
  8 13  1  0  0  0  0
  9 10  1  0  0  0  0
 10 16  1  0  0  0  0
 10 11  2  0  0  0  0
 12 11  1  0  0  0  0
 12  1  1  0  0  0  0
 13 12  2  0  0  0  0
 14  8  1  0  0  0  0
 15  9  1  0  0  0  0
 17 23  1  0  0  0  0
 17 19  1  0  0  0  0
 18 17  2  0  0  0  0
 19 20  1  0  0  0  0
 21 22  1  0  0  0  0
 22 30  2  0  0  0  0
 22 23  1  0  0  0  0
 23 24  2  0  0  0  0
 24 26  1  0  0  0  0
 24 25  1  0  0  0  0
 26 27  1  0  0  0  0
 28 29  1  0  0  0  0
 28 26  2  0  0  0  0
 30 28  1  0  0  0  0
 31 30  1  0  0  0  0
M  END
>  <minimizedAffinity>
-4.79068995

$$$$

 OpenBabel03272508523D

 31 33  0  0  1  0  0  0  0  0999 V2000
   36.3830   28.0310   32.8570 C   0  0  2  0  0  0  0  0  0  0  0  0
   37.0770   28.2700   31.5950 C   0  0  0  0  0  0  0  0  0  0  0  0
   35.9750   27.2030   31.7330 C   0  0  1  0  0  0  0  0  0  0  0  0
   36.9820   27.5410   33.6900 H   0  0  0  0  0  0  0  0  0  0  0  0
   38.1120   27.9410   31.4070 H   0  0  0  0  0  0  0  0  0  0  0  0
   36.7510   29.1570   31.0220 H   0  0  0  0  0  0  0  0  0  0  0  0
   35.0970   27.3770   31.1220 H   0  0  0  0  0  0  0  0  0  0  0  0
   34.9160   30.6300   35.0680 C   0  0  0  0  0  0  0  0  0  0  0  0
   33.6240   30.7860   34.4900 C   0  0  0  0  0  0  0  0  0  0  0  0
   33.2960   30.0090   33.3740 C   0  0  0  0  0  0  0  0  0  0  0  0
   34.2130   29.1340   32.8810 N   0  0  0  0  0  0  0  0  0  0  0  0
   35.4260   29.0050   33.4440 C   0  0  0  0  0  0  0  0  0  0  0  0
   35.8180   29.7390   34.5430 N   0  0  0  0  0  0  0  0  0  0  0  0
   35.2050   31.2170   35.9300 H   0  0  0  0  0  0  0  0  0  0  0  0
   32.9210   31.4760   34.8910 H   0  0  0  0  0  0  0  0  0  0  0  0
   32.3360   30.0660   32.8730 H   0  0  0  0  0  0  0  0  0  0  0  0
   35.6450   24.8570   31.0340 C   0  0  0  0  0  0  0  0  0  0  0  0
   34.6320   25.2220   30.3890 O   0  0  0  0  0  0  0  0  0  0  0  0
   36.4800   25.8260   31.7020 N   0  0  0  0  0  0  0  0  0  0  0  0
   37.3960   25.6580   32.1670 H   0  0  0  0  0  0  0  0  0  0  0  0
   38.4180   24.0600   29.9740 Cl  0  0  0  0  0  0  0  0  0  0  0  0
   37.3610   22.9530   30.8520 C   0  0  0  0  0  0  0  0  0  0  0  0
   36.1710   23.5190   31.2360 C   0  0  0  0  0  0  0  0  0  0  0  0
   35.3540   22.6030   31.9330 C   0  0  0  0  0  0  0  0  0  0  0  0
   34.3730   22.9880   32.2730 H   0  0  0  0  0  0  0  0  0  0  0  0
   35.6060   21.2600   32.2560 C   0  0  0  0  0  0  0  0  0  0  0  0
   34.9630   20.5890   32.7890 H   0  0  0  0  0  0  0  0  0  0  0  0
   36.8590   20.9500   31.7590 C   0  0  0  0  0  0  0  0  0  0  0  0
   37.1560   19.9040   31.9620 H   0  0  0  0  0  0  0  0  0  0  0  0
   37.7880   21.6730   31.0720 C   0  0  0  0  0  0  0  0  0  0  0  0
   39.3280   21.0660   30.5330 Cl  0  0  0  0  0  0  0  0  0  0  0  0
  1 12  1  0  0  0  0
  1  4  1  1  0  0  0
  2  3  1  0  0  0  0
  2  1  1  0  0  0  0
  3  7  1  6  0  0  0
  3  1  1  0  0  0  0
  5  2  1  0  0  0  0
  6  2  1  0  0  0  0
  8 14  1  0  0  0  0
  9 15  1  0  0  0  0
  9  8  2  0  0  0  0
 10  9  1  0  0  0  0
 11 10  2  0  0  0  0
 11 12  1  0  0  0  0
 12 13  2  0  0  0  0
 13  8  1  0  0  0  0
 16 10  1  0  0  0  0
 17 23  1  0  0  0  0
 17 19  1  0  0  0  0
 18 17  2  0  0  0  0
 19  3  1  0  0  0  0
 19 20  1  0  0  0  0
 21 22  1  0  0  0  0
 22 30  2  0  0  0  0
 22 23  1  0  0  0  0
 23 24  2  0  0  0  0
 24 26  1  0  0  0  0
 24 25  1  0  0  0  0
 26 27  1  0  0  0  0
 28 29  1  0  0  0  0
 28 26  2  0  0  0  0
 30 28  1  0  0  0  0
 31 30  1  0  0  0  0
M  END
>  <minimizedAffinity>
-4.73598289

$$$$

 OpenBabel03272508523D

 31 33  0  0  1  0  0  0  0  0999 V2000
   39.0590   23.6880   35.7140 C   0  0  2  0  0  0  0  0  0  0  0  0
   37.9090   22.8440   35.4030 C   0  0  0  0  0  0  0  0  0  0  0  0
   38.6130   23.6940   34.3290 C   0  0  1  0  0  0  0  0  0  0  0  0
   38.8610   24.6170   36.3400 H   0  0  0  0  0  0  0  0  0  0  0  0
   36.8770   23.1030   35.6910 H   0  0  0  0  0  0  0  0  0  0  0  0
   38.1150   21.7620   35.3010 H   0  0  0  0  0  0  0  0  0  0  0  0
   39.0720   23.1250   33.5290 H   0  0  0  0  0  0  0  0  0  0  0  0
   41.6990   21.4910   37.1240 C   0  0  0  0  0  0  0  0  0  0  0  0
   42.8770   22.1510   36.6720 C   0  0  0  0  0  0  0  0  0  0  0  0
   42.7370   23.3130   35.9070 C   0  0  0  0  0  0  0  0  0  0  0  0
   41.4900   23.7740   35.6220 N   0  0  0  0  0  0  0  0  0  0  0  0
   40.3920   23.1330   36.0600 C   0  0  0  0  0  0  0  0  0  0  0  0
   40.4560   21.9830   36.8160 N   0  0  0  0  0  0  0  0  0  0  0  0
   41.7700   20.5880   37.7160 H   0  0  0  0  0  0  0  0  0  0  0  0
   43.8440   21.7740   36.9060 H   0  0  0  0  0  0  0  0  0  0  0  0
   43.5800   23.8760   35.5230 H   0  0  0  0  0  0  0  0  0  0  0  0
   38.5850   26.0060   33.4610 C   0  0  0  0  0  0  0  0  0  0  0  0
   39.8330   25.9440   33.3380 O   0  0  0  0  0  0  0  0  0  0  0  0
   37.8300   24.8520   33.8850 N   0  0  0  0  0  0  0  0  0  0  0  0
   36.7940   24.7500   33.9150 H   0  0  0  0  0  0  0  0  0  0  0  0
   38.2940   27.2500   30.6650 Cl  0  0  0  0  0  0  0  0  0  0  0  0
   37.4160   27.8310   32.0800 C   0  0  0  0  0  0  0  0  0  0  0  0
   37.6950   27.1280   33.2250 C   0  0  0  0  0  0  0  0  0  0  0  0
   36.9750   27.6240   34.3340 C   0  0  0  0  0  0  0  0  0  0  0  0
   37.1500   27.1070   35.2980 H   0  0  0  0  0  0  0  0  0  0  0  0
   36.0640   28.6910   34.3930 C   0  0  0  0  0  0  0  0  0  0  0  0
   35.5310   29.0430   35.2540 H   0  0  0  0  0  0  0  0  0  0  0  0
   35.9690   29.2150   33.1170 C   0  0  0  0  0  0  0  0  0  0  0  0
   35.2690   30.0700   33.0540 H   0  0  0  0  0  0  0  0  0  0  0  0
   36.5650   28.8910   31.9350 C   0  0  0  0  0  0  0  0  0  0  0  0
   36.2930   29.7070   30.4210 Cl  0  0  0  0  0  0  0  0  0  0  0  0
  1 12  1  0  0  0  0
  1  4  1  1  0  0  0
  2  5  1  0  0  0  0
  2  1  1  0  0  0  0
  3  7  1  6  0  0  0
  3  2  1  0  0  0  0
  3  1  1  0  0  0  0
  6  2  1  0  0  0  0
  8 14  1  0  0  0  0
  9 15  1  0  0  0  0
  9  8  2  0  0  0  0
 10  9  1  0  0  0  0
 11 10  2  0  0  0  0
 11 12  1  0  0  0  0
 12 13  2  0  0  0  0
 13  8  1  0  0  0  0
 16 10  1  0  0  0  0
 17 19  1  0  0  0  0
 18 17  2  0  0  0  0
 19 20  1  0  0  0  0
 19  3  1  0  0  0  0
 21 22  1  0  0  0  0
 22 23  1  0  0  0  0
 23 17  1  0  0  0  0
 23 24  2  0  0  0  0
 24 26  1  0  0  0  0
 24 25  1  0  0  0  0
 26 27  1  0  0  0  0
 28 26  2  0  0  0  0
 29 28  1  0  0  0  0
 30 22  2  0  0  0  0
 30 28  1  0  0  0  0
 31 30  1  0  0  0  0
M  END
>  <minimizedAffinity>
-4.71960545

$$$$
