
 OpenBabel03272503063D

 34 36  0  0  0  0  0  0  0  0999 V2000
   38.3750   30.1490   47.3350 F   0  0  0  0  0  0  0  0  0  0  0  0
   38.6980   31.4130   47.6890 C   0  0  0  0  0  0  0  0  0  0  0  0
   38.2280   31.9280   48.8640 C   0  0  0  0  0  0  0  0  0  0  0  0
   38.5850   33.2120   49.1740 C   0  0  0  0  0  0  0  0  0  0  0  0
   39.3870   33.9840   48.3550 C   0  0  0  0  0  0  0  0  0  0  0  0
   39.8460   33.4400   47.1800 C   0  0  0  0  0  0  0  0  0  0  0  0
   39.5000   32.1380   46.8360 C   0  0  0  0  0  0  0  0  0  0  0  0
   38.2240   33.6360   50.0950 H   0  0  0  0  0  0  0  0  0  0  0  0
   39.6320   34.9940   48.6590 H   0  0  0  0  0  0  0  0  0  0  0  0
   40.4840   34.0290   46.5130 H   0  0  0  0  0  0  0  0  0  0  0  0
   37.0050   29.6840   51.6650 C   0  0  0  0  0  0  0  0  0  0  0  0
   37.8240   30.4990   50.8770 C   0  0  0  0  0  0  0  0  0  0  0  0
   37.3800   31.0730   49.6990 C   0  0  0  0  0  0  0  0  0  0  0  0
   36.0980   30.8030   49.3510 N   0  0  0  0  0  0  0  0  0  0  0  0
   35.3080   30.0190   50.1110 C   0  0  0  0  0  0  0  0  0  0  0  0
   35.7480   29.4730   51.2380 N   0  0  0  0  0  0  0  0  0  0  0  0
   37.4860   29.2930   52.5740 H   0  0  0  0  0  0  0  0  0  0  0  0
   38.8570   30.7250   51.1420 H   0  0  0  0  0  0  0  0  0  0  0  0
   34.2860   29.8050   49.8300 H   0  0  0  0  0  0  0  0  0  0  0  0
   38.9860   31.5700   44.5560 C   0  0  0  0  0  0  0  0  0  0  0  0
   37.8910   32.1340   44.8650 O   0  0  0  0  0  0  0  0  0  0  0  0
   39.9550   31.5300   45.6230 N   0  0  0  0  0  0  0  0  0  0  0  0
   40.8570   31.0830   45.4260 H   0  0  0  0  0  0  0  0  0  0  0  0
   39.0690   33.4780   42.2270 Cl  0  0  0  0  0  0  0  0  0  0  0  0
   39.3510   31.7470   42.0860 C   0  0  0  0  0  0  0  0  0  0  0  0
   39.2800   30.9990   43.2430 C   0  0  0  0  0  0  0  0  0  0  0  0
   39.4960   29.6200   43.1940 C   0  0  0  0  0  0  0  0  0  0  0  0
   39.4630   28.9370   44.0460 H   0  0  0  0  0  0  0  0  0  0  0  0
   39.7740   29.0390   41.9860 C   0  0  0  0  0  0  0  0  0  0  0  0
   39.9500   27.9550   41.8950 H   0  0  0  0  0  0  0  0  0  0  0  0
   39.8380   29.8150   40.8450 C   0  0  0  0  0  0  0  0  0  0  0  0
   40.0600   29.3190   39.9120 H   0  0  0  0  0  0  0  0  0  0  0  0
   39.6310   31.1870   40.8530 C   0  0  0  0  0  0  0  0  0  0  0  0
   39.7160   32.1640   39.3980 Cl  0  0  0  0  0  0  0  0  0  0  0  0
  1  2  1  0  0  0  0
  2  3  1  0  0  0  0
  3  4  2  0  0  0  0
  3 13  1  0  0  0  0
  4  8  1  0  0  0  0
  5  9  1  0  0  0  0
  5  4  1  0  0  0  0
  6  5  2  0  0  0  0
  7  6  1  0  0  0  0
  7  2  2  0  0  0  0
 10  6  1  0  0  0  0
 11 17  1  0  0  0  0
 12 18  1  0  0  0  0
 12 11  2  0  0  0  0
 13 12  1  0  0  0  0
 14 13  2  0  0  0  0
 14 15  1  0  0  0  0
 15 16  2  0  0  0  0
 16 11  1  0  0  0  0
 19 15  1  0  0  0  0
 20 21  2  0  0  0  0
 20 22  1  0  0  0  0
 22  7  1  0  0  0  0
 23 22  1  0  0  0  0
 25 24  1  0  0  0  0
 25 26  1  0  0  0  0
 26 20  1  0  0  0  0
 27 26  2  0  0  0  0
 27 28  1  0  0  0  0
 29 27  1  0  0  0  0
 30 29  1  0  0  0  0
 31 33  1  0  0  0  0
 31 29  2  0  0  0  0
 32 31  1  0  0  0  0
 33 25  2  0  0  0  0
 34 33  1  0  0  0  0
M  END
>  <minimizedAffinity>
-6.39219713

>  <minimizedRMSD>
0.61933285

$$$$
