
 OpenBabel03262523563D

 40 42  0  0  1  0  0  0  0  0999 V2000
   36.1680   30.4310   41.8910 C   0  0  1  0  0  0  0  0  0  0  0  0
   36.1420   31.7060   41.1910 C   0  0  0  0  0  0  0  0  0  0  0  0
   36.6480   31.4900   39.7960 C   0  0  0  0  0  0  0  0  0  0  0  0
   37.8410   30.6300   39.7870 C   0  0  0  0  0  0  0  0  0  0  0  0
   38.5380   30.4500   41.0810 C   0  0  0  0  0  0  0  0  0  0  0  0
   37.6190   30.1230   42.2530 C   0  0  1  0  0  0  0  0  0  0  0  0
   35.8820   29.5820   41.2030 H   0  0  0  0  0  0  0  0  0  0  0  0
   35.1250   32.1960   41.1400 H   0  0  0  0  0  0  0  0  0  0  0  0
   36.7990   32.4790   41.6780 H   0  0  0  0  0  0  0  0  0  0  0  0
   35.8150   30.9830   39.2250 H   0  0  0  0  0  0  0  0  0  0  0  0
   36.7930   32.4490   39.2560 H   0  0  0  0  0  0  0  0  0  0  0  0
   38.5710   31.0750   39.0800 H   0  0  0  0  0  0  0  0  0  0  0  0
   37.6020   29.6130   39.3590 H   0  0  0  0  0  0  0  0  0  0  0  0
   39.0620   31.3820   41.3380 H   0  0  0  0  0  0  0  0  0  0  0  0
   39.3130   29.6580   40.9540 H   0  0  0  0  0  0  0  0  0  0  0  0
   37.6930   29.0260   42.4060 H   0  0  0  0  0  0  0  0  0  0  0  0
   33.8770   31.3580   44.6620 C   0  0  0  0  0  0  0  0  0  0  0  0
   34.5930   31.4350   43.4360 C   0  0  0  0  0  0  0  0  0  0  0  0
   35.4050   30.3480   43.1440 C   0  0  0  0  0  0  0  0  0  0  0  0
   35.4880   29.2720   44.0150 N   0  0  0  0  0  0  0  0  0  0  0  0
   34.7910   29.2480   45.1600 C   0  0  0  0  0  0  0  0  0  0  0  0
   33.9770   30.2960   45.4940 N   0  0  0  0  0  0  0  0  0  0  0  0
   33.2220   32.1840   44.9470 H   0  0  0  0  0  0  0  0  0  0  0  0
   34.5020   32.2910   42.7850 H   0  0  0  0  0  0  0  0  0  0  0  0
   34.9410   28.3560   45.7520 H   0  0  0  0  0  0  0  0  0  0  0  0
   38.7200   30.3590   44.6550 C   0  0  0  0  0  0  0  0  0  0  0  0
   39.0140   29.1270   44.5710 O   0  0  0  0  0  0  0  0  0  0  0  0
   38.0810   30.7780   43.4470 N   0  0  0  0  0  0  0  0  0  0  0  0
   37.8450   31.8090   43.2970 H   0  0  0  0  0  0  0  0  0  0  0  0
   37.7550   29.8520   47.5090 Cl  0  0  0  0  0  0  0  0  0  0  0  0
   38.5550   31.3260   47.0240 C   0  0  0  0  0  0  0  0  0  0  0  0
   38.9090   31.3590   45.7030 C   0  0  0  0  0  0  0  0  0  0  0  0
   39.5580   32.4810   45.1760 C   0  0  0  0  0  0  0  0  0  0  0  0
   39.8920   32.6450   44.1670 H   0  0  0  0  0  0  0  0  0  0  0  0
   39.8460   33.5740   46.0020 C   0  0  0  0  0  0  0  0  0  0  0  0
   40.3450   34.4720   45.6590 H   0  0  0  0  0  0  0  0  0  0  0  0
   39.4810   33.5250   47.3360 C   0  0  0  0  0  0  0  0  0  0  0  0
   39.6940   34.3520   47.9820 H   0  0  0  0  0  0  0  0  0  0  0  0
   38.8420   32.4070   47.8300 C   0  0  0  0  0  0  0  0  0  0  0  0
   38.3470   32.2670   49.5040 Cl  0  0  0  0  0  0  0  0  0  0  0  0
  1  7  1  6  0  0  0
  1  6  1  0  0  0  0
  1 19  1  0  0  0  0
  2  9  1  0  0  0  0
  2  1  1  0  0  0  0
  3  2  1  0  0  0  0
  4  3  1  0  0  0  0
  4  5  1  0  0  0  0
  5 14  1  0  0  0  0
  5  6  1  0  0  0  0
  6 16  1  1  0  0  0
  6 28  1  0  0  0  0
  8  2  1  0  0  0  0
 10  3  1  0  0  0  0
 11  3  1  0  0  0  0
 12  4  1  0  0  0  0
 13  4  1  0  0  0  0
 15  5  1  0  0  0  0
 17 23  1  0  0  0  0
 17 22  1  0  0  0  0
 18 17  2  0  0  0  0
 19 18  1  0  0  0  0
 19 20  2  0  0  0  0
 20 21  1  0  0  0  0
 21 22  2  0  0  0  0
 21 25  1  0  0  0  0
 24 18  1  0  0  0  0
 26 32  1  0  0  0  0
 27 26  2  0  0  0  0
 28 26  1  0  0  0  0
 29 28  1  0  0  0  0
 31 30  1  0  0  0  0
 31 39  1  0  0  0  0
 32 31  2  0  0  0  0
 33 32  1  0  0  0  0
 33 35  2  0  0  0  0
 34 33  1  0  0  0  0
 35 37  1  0  0  0  0
 36 35  1  0  0  0  0
 37 39  2  0  0  0  0
 37 38  1  0  0  0  0
 39 40  1  0  0  0  0
M  END
>  <minimizedAffinity>
-2.93008471

>  <minimizedRMSD>
5.70593023

$$$$
