
 OpenBabel03272503133D

 48 52  0  0  0  0  0  0  0  0999 V2000
   39.2200   32.2270   42.5660 C   0  0  0  0  0  0  0  0  0  0  0  0
   39.7220   31.4960   43.6330 C   0  0  0  0  0  0  0  0  0  0  0  0
   40.5820   30.4570   43.4770 C   0  0  0  0  0  0  0  0  0  0  0  0
   40.9930   30.0890   42.1920 C   0  0  0  0  0  0  0  0  0  0  0  0
   41.8160   29.1460   41.7410 N   0  0  0  0  0  0  0  0  0  0  0  0
   41.8640   29.2410   40.4260 C   0  0  0  0  0  0  0  0  0  0  0  0
   41.0700   30.2450   40.0460 N   0  0  0  0  0  0  0  0  0  0  0  0
   40.4980   30.8090   41.1410 C   0  0  0  0  0  0  0  0  0  0  0  0
   39.6110   31.8850   41.2540 C   0  0  0  0  0  0  0  0  0  0  0  0
   38.5340   33.0570   42.6720 H   0  0  0  0  0  0  0  0  0  0  0  0
   40.9790   29.8830   44.2910 H   0  0  0  0  0  0  0  0  0  0  0  0
   42.3580   28.4260   42.3040 H   0  0  0  0  0  0  0  0  0  0  0  0
   42.4240   28.6480   39.6960 H   0  0  0  0  0  0  0  0  0  0  0  0
   39.2770   31.9050   44.9450 C   0  0  0  0  0  0  0  0  0  0  0  0
   38.1860   32.5540   45.0640 O   0  0  0  0  0  0  0  0  0  0  0  0
   39.9550   31.6480   46.1610 N   0  0  0  0  0  0  0  0  0  0  0  0
   40.8470   31.1330   46.1210 H   0  0  0  0  0  0  0  0  0  0  0  0
   38.1200   30.1520   47.4990 F   0  0  0  0  0  0  0  0  0  0  0  0
   38.3740   31.3960   47.9890 C   0  0  0  0  0  0  0  0  0  0  0  0
   37.7180   31.8320   49.0990 C   0  0  0  0  0  0  0  0  0  0  0  0
   38.0220   33.0910   49.5400 C   0  0  0  0  0  0  0  0  0  0  0  0
   38.9310   33.8900   48.9150 C   0  0  0  0  0  0  0  0  0  0  0  0
   39.5860   33.4230   47.7860 C   0  0  0  0  0  0  0  0  0  0  0  0
   39.2940   32.1510   47.3230 C   0  0  0  0  0  0  0  0  0  0  0  0
   37.5080   33.4640   50.4290 H   0  0  0  0  0  0  0  0  0  0  0  0
   39.1670   34.8850   49.2680 H   0  0  0  0  0  0  0  0  0  0  0  0
   40.3110   34.0450   47.2810 H   0  0  0  0  0  0  0  0  0  0  0  0
   36.0780   29.3580   51.4500 C   0  0  0  0  0  0  0  0  0  0  0  0
   37.0420   30.2160   50.8650 C   0  0  0  0  0  0  0  0  0  0  0  0
   36.7500   30.9370   49.7310 C   0  0  0  0  0  0  0  0  0  0  0  0
   35.4860   30.7780   49.2040 N   0  0  0  0  0  0  0  0  0  0  0  0
   34.5760   29.9650   49.7600 C   0  0  0  0  0  0  0  0  0  0  0  0
   34.8680   29.2720   50.8570 N   0  0  0  0  0  0  0  0  0  0  0  0
   36.3140   28.7940   52.3420 H   0  0  0  0  0  0  0  0  0  0  0  0
   38.0290   30.3150   51.3090 H   0  0  0  0  0  0  0  0  0  0  0  0
   33.6420   29.9680   49.2090 H   0  0  0  0  0  0  0  0  0  0  0  0
   39.1210   32.6010   40.2170 O   0  0  0  0  0  0  0  0  0  0  0  0
   37.8750   30.3430   38.2160 Cl  0  0  0  0  0  0  0  0  0  0  0  0
   37.3870   32.0020   38.3970 C   0  0  0  0  0  0  0  0  0  0  0  0
   38.1590   32.6240   39.3350 C   0  0  0  0  0  0  0  0  0  0  0  0
   37.7550   33.9880   39.4470 C   0  0  0  0  0  0  0  0  0  0  0  0
   38.1010   34.8440   40.0710 H   0  0  0  0  0  0  0  0  0  0  0  0
   36.7310   34.5890   38.7130 C   0  0  0  0  0  0  0  0  0  0  0  0
   36.3250   35.6070   38.6990 H   0  0  0  0  0  0  0  0  0  0  0  0
   36.0320   33.8180   37.7910 C   0  0  0  0  0  0  0  0  0  0  0  0
   35.2210   34.1420   37.1580 H   0  0  0  0  0  0  0  0  0  0  0  0
   36.3680   32.5110   37.6380 C   0  0  0  0  0  0  0  0  0  0  0  0
   35.5890   31.4300   36.5310 Cl  0  0  0  0  0  0  0  0  0  0  0  0
  1 10  1  0  0  0  0
  1  2  1  0  0  0  0
  2 14  1  0  0  0  0
  3  2  2  0  0  0  0
  3 11  1  0  0  0  0
  4  3  1  0  0  0  0
  5  4  1  0  0  0  0
  5 12  1  0  0  0  0
  6  5  1  0  0  0  0
  7  6  2  0  0  0  0
  7  8  1  0  0  0  0
  8  9  1  0  0  0  0
  8  4  2  0  0  0  0
  9  1  2  0  0  0  0
 13  6  1  0  0  0  0
 14 15  2  0  0  0  0
 14 16  1  0  0  0  0
 16 24  1  0  0  0  0
 17 16  1  0  0  0  0
 18 19  1  0  0  0  0
 19 20  1  0  0  0  0
 20 21  2  0  0  0  0
 20 30  1  0  0  0  0
 21 25  1  0  0  0  0
 22 26  1  0  0  0  0
 22 21  1  0  0  0  0
 23 22  2  0  0  0  0
 24 23  1  0  0  0  0
 24 19  2  0  0  0  0
 27 23  1  0  0  0  0
 28 34  1  0  0  0  0
 29 35  1  0  0  0  0
 29 28  1  0  0  0  0
 30 29  2  0  0  0  0
 31 30  1  0  0  0  0
 31 32  2  0  0  0  0
 32 33  1  0  0  0  0
 33 28  2  0  0  0  0
 36 32  1  0  0  0  0
 37  9  1  0  0  0  0
 38 39  1  0  0  0  0
 39 40  1  0  0  0  0
 40 41  2  0  0  0  0
 40 37  1  0  0  0  0
 41 42  1  0  0  0  0
 43 41  1  0  0  0  0
 44 43  1  0  0  0  0
 45 43  2  0  0  0  0
 46 45  1  0  0  0  0
 47 45  1  0  0  0  0
 47 39  2  0  0  0  0
 48 47  1  0  0  0  0
M  END
>  <minimizedAffinity>
-7.22235727

>  <minimizedRMSD>
0.439241409

$$$$
