
 OpenBabel03272503123D

 48 52  0  0  0  0  0  0  0  0999 V2000
   39.2130   32.2140   42.5630 C   0  0  0  0  0  0  0  0  0  0  0  0
   39.7220   31.4910   43.6310 C   0  0  0  0  0  0  0  0  0  0  0  0
   40.5890   30.4570   43.4770 C   0  0  0  0  0  0  0  0  0  0  0  0
   41.0010   30.0870   42.1930 C   0  0  0  0  0  0  0  0  0  0  0  0
   41.8290   29.1480   41.7440 N   0  0  0  0  0  0  0  0  0  0  0  0
   41.8740   29.2390   40.4290 C   0  0  0  0  0  0  0  0  0  0  0  0
   41.0730   30.2360   40.0470 N   0  0  0  0  0  0  0  0  0  0  0  0
   40.4990   30.8000   41.1400 C   0  0  0  0  0  0  0  0  0  0  0  0
   39.6050   31.8700   41.2510 C   0  0  0  0  0  0  0  0  0  0  0  0
   38.5230   33.0400   42.6670 H   0  0  0  0  0  0  0  0  0  0  0  0
   40.9910   29.8880   44.2920 H   0  0  0  0  0  0  0  0  0  0  0  0
   42.3760   28.4330   42.3080 H   0  0  0  0  0  0  0  0  0  0  0  0
   42.4360   28.6470   39.7000 H   0  0  0  0  0  0  0  0  0  0  0  0
   39.2770   31.9010   44.9430 C   0  0  0  0  0  0  0  0  0  0  0  0
   38.1850   32.5490   45.0610 O   0  0  0  0  0  0  0  0  0  0  0  0
   39.9550   31.6460   46.1590 N   0  0  0  0  0  0  0  0  0  0  0  0
   40.8480   31.1320   46.1200 H   0  0  0  0  0  0  0  0  0  0  0  0
   38.1200   30.1510   47.4980 F   0  0  0  0  0  0  0  0  0  0  0  0
   38.3740   31.3950   47.9860 C   0  0  0  0  0  0  0  0  0  0  0  0
   37.7170   31.8320   49.0960 C   0  0  0  0  0  0  0  0  0  0  0  0
   38.0200   33.0930   49.5360 C   0  0  0  0  0  0  0  0  0  0  0  0
   38.9290   33.8910   48.9100 C   0  0  0  0  0  0  0  0  0  0  0  0
   39.5840   33.4220   47.7820 C   0  0  0  0  0  0  0  0  0  0  0  0
   39.2940   32.1500   47.3210 C   0  0  0  0  0  0  0  0  0  0  0  0
   37.5060   33.4660   50.4240 H   0  0  0  0  0  0  0  0  0  0  0  0
   39.1640   34.8860   49.2620 H   0  0  0  0  0  0  0  0  0  0  0  0
   40.3090   34.0440   47.2760 H   0  0  0  0  0  0  0  0  0  0  0  0
   36.0790   29.3570   51.4470 C   0  0  0  0  0  0  0  0  0  0  0  0
   37.0420   30.2140   50.8610 C   0  0  0  0  0  0  0  0  0  0  0  0
   36.7490   30.9380   49.7280 C   0  0  0  0  0  0  0  0  0  0  0  0
   35.4840   30.7810   49.2040 N   0  0  0  0  0  0  0  0  0  0  0  0
   34.5740   29.9690   49.7610 C   0  0  0  0  0  0  0  0  0  0  0  0
   34.8680   29.2740   50.8560 N   0  0  0  0  0  0  0  0  0  0  0  0
   36.3150   28.7910   52.3380 H   0  0  0  0  0  0  0  0  0  0  0  0
   38.0310   30.3110   51.3040 H   0  0  0  0  0  0  0  0  0  0  0  0
   33.6390   29.9730   49.2120 H   0  0  0  0  0  0  0  0  0  0  0  0
   39.1090   32.5790   40.2130 O   0  0  0  0  0  0  0  0  0  0  0  0
   35.9410   31.8260   39.9680 Cl  0  0  0  0  0  0  0  0  0  0  0  0
   37.0400   32.2660   38.6940 C   0  0  0  0  0  0  0  0  0  0  0  0
   38.2860   32.5020   39.2010 C   0  0  0  0  0  0  0  0  0  0  0  0
   39.1730   32.8360   38.1360 C   0  0  0  0  0  0  0  0  0  0  0  0
   40.2560   33.0970   38.0880 H   0  0  0  0  0  0  0  0  0  0  0  0
   38.8200   32.9100   36.7870 C   0  0  0  0  0  0  0  0  0  0  0  0
   39.3910   33.1500   35.8830 H   0  0  0  0  0  0  0  0  0  0  0  0
   37.5050   32.6410   36.4260 C   0  0  0  0  0  0  0  0  0  0  0  0
   37.0900   32.6590   35.4320 H   0  0  0  0  0  0  0  0  0  0  0  0
   36.6110   32.3160   37.3960 C   0  0  0  0  0  0  0  0  0  0  0  0
   34.9430   31.9570   37.0990 Cl  0  0  0  0  0  0  0  0  0  0  0  0
  1 10  1  0  0  0  0
  1  2  1  0  0  0  0
  2 14  1  0  0  0  0
  3  2  2  0  0  0  0
  3 11  1  0  0  0  0
  4  3  1  0  0  0  0
  5  4  1  0  0  0  0
  5 12  1  0  0  0  0
  6  5  1  0  0  0  0
  7  6  2  0  0  0  0
  7  8  1  0  0  0  0
  8  9  1  0  0  0  0
  8  4  2  0  0  0  0
  9  1  2  0  0  0  0
 13  6  1  0  0  0  0
 14 15  2  0  0  0  0
 14 16  1  0  0  0  0
 16 24  1  0  0  0  0
 17 16  1  0  0  0  0
 18 19  1  0  0  0  0
 19 20  1  0  0  0  0
 20 21  2  0  0  0  0
 20 30  1  0  0  0  0
 21 25  1  0  0  0  0
 22 26  1  0  0  0  0
 22 21  1  0  0  0  0
 23 22  2  0  0  0  0
 24 23  1  0  0  0  0
 24 19  2  0  0  0  0
 27 23  1  0  0  0  0
 28 34  1  0  0  0  0
 29 35  1  0  0  0  0
 29 28  1  0  0  0  0
 30 29  2  0  0  0  0
 31 30  1  0  0  0  0
 31 32  2  0  0  0  0
 32 33  1  0  0  0  0
 33 28  2  0  0  0  0
 36 32  1  0  0  0  0
 37  9  1  0  0  0  0
 39 40  1  0  0  0  0
 39 38  1  0  0  0  0
 40 37  1  0  0  0  0
 41 40  2  0  0  0  0
 42 41  1  0  0  0  0
 43 41  1  0  0  0  0
 44 43  1  0  0  0  0
 45 43  2  0  0  0  0
 45 47  1  0  0  0  0
 46 45  1  0  0  0  0
 47 39  2  0  0  0  0
 48 47  1  0  0  0  0
M  END
>  <minimizedAffinity>
-7.0768671

>  <minimizedRMSD>
0.120607488

$$$$
