
 OpenBabel03272500553D

 34 36  0  0  0  0  0  0  0  0999 V2000
   37.1570   25.4560   31.9380 C   0  0  0  0  0  0  0  0  0  0  0  0
   37.1090   26.2750   30.8020 C   0  0  0  0  0  0  0  0  0  0  0  0
   37.0910   27.6630   30.8860 C   0  0  0  0  0  0  0  0  0  0  0  0
   37.1210   28.2590   32.1810 C   0  0  0  0  0  0  0  0  0  0  0  0
   37.1670   27.4240   33.2620 C   0  0  0  0  0  0  0  0  0  0  0  0
   37.1870   26.0710   33.1790 C   0  0  0  0  0  0  0  0  0  0  0  0
   37.0850   25.8250   29.8110 H   0  0  0  0  0  0  0  0  0  0  0  0
   37.0540   28.2100   29.9300 H   0  0  0  0  0  0  0  0  0  0  0  0
   37.1010   29.3280   32.0650 H   0  0  0  0  0  0  0  0  0  0  0  0
   37.1320   28.1000   34.0900 H   0  0  0  0  0  0  0  0  0  0  0  0
   35.8390   23.4860   31.4500 C   0  0  0  0  0  0  0  0  0  0  0  0
   37.1170   24.0310   31.6770 C   0  0  0  0  0  0  0  0  0  0  0  0
   38.2040   23.1480   31.6290 C   0  0  0  0  0  0  0  0  0  0  0  0
   37.9960   21.8460   31.3760 N   0  0  0  0  0  0  0  0  0  0  0  0
   36.7750   21.3400   31.1620 C   0  0  0  0  0  0  0  0  0  0  0  0
   35.7090   22.1600   31.2010 N   0  0  0  0  0  0  0  0  0  0  0  0
   34.9570   24.1190   31.4730 H   0  0  0  0  0  0  0  0  0  0  0  0
   39.1580   23.6060   31.8060 H   0  0  0  0  0  0  0  0  0  0  0  0
   36.6180   20.2890   30.9590 H   0  0  0  0  0  0  0  0  0  0  0  0
   38.5730   25.2550   34.8900 C   0  0  0  0  0  0  0  0  0  0  0  0
   39.4940   25.9380   34.3180 O   0  0  0  0  0  0  0  0  0  0  0  0
   37.2610   25.2340   34.2960 N   0  0  0  0  0  0  0  0  0  0  0  0
   36.4800   24.6890   34.6370 H   0  0  0  0  0  0  0  0  0  0  0  0
   40.7790   23.1970   34.8070 Cl  0  0  0  0  0  0  0  0  0  0  0  0
   39.7710   23.5290   36.1950 C   0  0  0  0  0  0  0  0  0  0  0  0
   38.7940   24.4820   36.1370 C   0  0  0  0  0  0  0  0  0  0  0  0
   37.9550   24.8000   37.1950 C   0  0  0  0  0  0  0  0  0  0  0  0
   37.1780   25.5540   37.1590 H   0  0  0  0  0  0  0  0  0  0  0  0
   38.1050   24.1180   38.3940 C   0  0  0  0  0  0  0  0  0  0  0  0
   37.4740   24.3280   39.2560 H   0  0  0  0  0  0  0  0  0  0  0  0
   39.0920   23.1530   38.4570 C   0  0  0  0  0  0  0  0  0  0  0  0
   39.2630   22.5780   39.3720 H   0  0  0  0  0  0  0  0  0  0  0  0
   39.9210   22.8420   37.4020 C   0  0  0  0  0  0  0  0  0  0  0  0
   41.1680   21.6130   37.5070 Cl  0  0  0  0  0  0  0  0  0  0  0  0
  1  6  1  0  0  0  0
  2  3  1  0  0  0  0
  2  1  2  0  0  0  0
  3  4  2  0  0  0  0
  4  5  1  0  0  0  0
  5 10  1  0  0  0  0
  6  5  2  0  0  0  0
  6 22  1  0  0  0  0
  7  2  1  0  0  0  0
  8  3  1  0  0  0  0
  9  4  1  0  0  0  0
 11 17  1  0  0  0  0
 11 12  1  0  0  0  0
 12  1  1  0  0  0  0
 13 12  2  0  0  0  0
 13 18  1  0  0  0  0
 14 13  1  0  0  0  0
 15 16  1  0  0  0  0
 15 14  2  0  0  0  0
 16 11  2  0  0  0  0
 19 15  1  0  0  0  0
 20 26  1  0  0  0  0
 21 20  2  0  0  0  0
 22 23  1  0  0  0  0
 22 20  1  0  0  0  0
 24 25  1  0  0  0  0
 25 33  1  0  0  0  0
 26 25  2  0  0  0  0
 26 27  1  0  0  0  0
 27 29  2  0  0  0  0
 28 27  1  0  0  0  0
 29 31  1  0  0  0  0
 29 30  1  0  0  0  0
 31 32  1  0  0  0  0
 33 34  1  0  0  0  0
 33 31  2  0  0  0  0
M  END
>  <minimizedAffinity>
-5.66752243

$$$$

 OpenBabel03272500553D

 34 36  0  0  0  0  0  0  0  0999 V2000
   39.3780   27.1180   32.6060 C   0  0  0  0  0  0  0  0  0  0  0  0
   39.1440   27.6410   31.3280 C   0  0  0  0  0  0  0  0  0  0  0  0
   37.8890   28.0840   30.9240 C   0  0  0  0  0  0  0  0  0  0  0  0
   36.8120   27.9950   31.8540 C   0  0  0  0  0  0  0  0  0  0  0  0
   37.0830   27.4770   33.0900 C   0  0  0  0  0  0  0  0  0  0  0  0
   38.3090   27.0480   33.4840 C   0  0  0  0  0  0  0  0  0  0  0  0
   39.9620   27.7120   30.6130 H   0  0  0  0  0  0  0  0  0  0  0  0
   37.8160   28.4800   29.8970 H   0  0  0  0  0  0  0  0  0  0  0  0
   35.9230   28.3750   31.3840 H   0  0  0  0  0  0  0  0  0  0  0  0
   36.1260   27.4730   33.5650 H   0  0  0  0  0  0  0  0  0  0  0  0
   41.1090   25.4890   32.1540 C   0  0  0  0  0  0  0  0  0  0  0  0
   40.7290   26.6540   32.8470 C   0  0  0  0  0  0  0  0  0  0  0  0
   41.6870   27.2350   33.6900 C   0  0  0  0  0  0  0  0  0  0  0  0
   42.9020   26.6760   33.8060 N   0  0  0  0  0  0  0  0  0  0  0  0
   43.2510   25.5670   33.1420 C   0  0  0  0  0  0  0  0  0  0  0  0
   42.3550   24.9830   32.3250 N   0  0  0  0  0  0  0  0  0  0  0  0
   40.4130   24.9910   31.4870 H   0  0  0  0  0  0  0  0  0  0  0  0
   41.3550   28.1220   34.1960 H   0  0  0  0  0  0  0  0  0  0  0  0
   44.2320   25.1240   33.2420 H   0  0  0  0  0  0  0  0  0  0  0  0
   38.2750   25.1410   34.8510 C   0  0  0  0  0  0  0  0  0  0  0  0
   37.7600   24.5570   33.8340 O   0  0  0  0  0  0  0  0  0  0  0  0
   38.5720   26.5470   34.7610 N   0  0  0  0  0  0  0  0  0  0  0  0
   38.9310   27.1120   35.5180 H   0  0  0  0  0  0  0  0  0  0  0  0
   40.5590   23.1690   34.7660 Cl  0  0  0  0  0  0  0  0  0  0  0  0
   39.5970   23.5260   36.1800 C   0  0  0  0  0  0  0  0  0  0  0  0
   38.5790   24.4370   36.1220 C   0  0  0  0  0  0  0  0  0  0  0  0
   37.7740   24.7720   37.2000 C   0  0  0  0  0  0  0  0  0  0  0  0
   36.9650   25.4920   37.1640 H   0  0  0  0  0  0  0  0  0  0  0  0
   38.0020   24.1540   38.4220 C   0  0  0  0  0  0  0  0  0  0  0  0
   37.4000   24.3800   39.2990 H   0  0  0  0  0  0  0  0  0  0  0  0
   39.0300   23.2320   38.4850 C   0  0  0  0  0  0  0  0  0  0  0  0
   39.2630   22.7090   39.4180 H   0  0  0  0  0  0  0  0  0  0  0  0
   39.8260   22.9040   37.4100 C   0  0  0  0  0  0  0  0  0  0  0  0
   41.1250   21.7320   37.5160 Cl  0  0  0  0  0  0  0  0  0  0  0  0
  1 12  1  0  0  0  0
  1  6  1  0  0  0  0
  2  1  2  0  0  0  0
  3  2  1  0  0  0  0
  3  4  2  0  0  0  0
  4  5  1  0  0  0  0
  5  6  2  0  0  0  0
  5 10  1  0  0  0  0
  6 22  1  0  0  0  0
  7  2  1  0  0  0  0
  8  3  1  0  0  0  0
  9  4  1  0  0  0  0
 11 16  2  0  0  0  0
 11 12  1  0  0  0  0
 12 13  2  0  0  0  0
 13 14  1  0  0  0  0
 13 18  1  0  0  0  0
 15 19  1  0  0  0  0
 15 14  2  0  0  0  0
 16 15  1  0  0  0  0
 17 11  1  0  0  0  0
 20 26  1  0  0  0  0
 21 20  2  0  0  0  0
 22 20  1  0  0  0  0
 22 23  1  0  0  0  0
 24 25  1  0  0  0  0
 25 33  1  0  0  0  0
 26 25  2  0  0  0  0
 26 27  1  0  0  0  0
 27 29  2  0  0  0  0
 28 27  1  0  0  0  0
 29 31  1  0  0  0  0
 29 30  1  0  0  0  0
 31 32  1  0  0  0  0
 33 34  1  0  0  0  0
 33 31  2  0  0  0  0
M  END
>  <minimizedAffinity>
-5.60549116

$$$$

 OpenBabel03272500553D

 34 36  0  0  0  0  0  0  0  0999 V2000
   37.1460   27.2360   32.4280 C   0  0  0  0  0  0  0  0  0  0  0  0
   36.8800   28.4160   31.7210 C   0  0  0  0  0  0  0  0  0  0  0  0
   36.2770   29.5190   32.3160 C   0  0  0  0  0  0  0  0  0  0  0  0
   35.9210   29.4310   33.6930 C   0  0  0  0  0  0  0  0  0  0  0  0
   36.1980   28.2620   34.3460 C   0  0  0  0  0  0  0  0  0  0  0  0
   36.7890   27.1870   33.7660 C   0  0  0  0  0  0  0  0  0  0  0  0
   37.1480   28.4880   30.6690 H   0  0  0  0  0  0  0  0  0  0  0  0
   36.1150   30.3960   31.6680 H   0  0  0  0  0  0  0  0  0  0  0  0
   35.4700   30.3610   33.9890 H   0  0  0  0  0  0  0  0  0  0  0  0
   35.8000   28.4310   35.3230 H   0  0  0  0  0  0  0  0  0  0  0  0
   39.1160   26.2640   31.4110 C   0  0  0  0  0  0  0  0  0  0  0  0
   37.7310   26.1640   31.6480 C   0  0  0  0  0  0  0  0  0  0  0  0
   37.0720   25.0520   31.1080 C   0  0  0  0  0  0  0  0  0  0  0  0
   37.7620   24.1430   30.4010 N   0  0  0  0  0  0  0  0  0  0  0  0
   39.0790   24.2500   30.1830 C   0  0  0  0  0  0  0  0  0  0  0  0
   39.7440   25.3070   30.6870 N   0  0  0  0  0  0  0  0  0  0  0  0
   39.6830   27.1030   31.8020 H   0  0  0  0  0  0  0  0  0  0  0  0
   36.0190   25.0150   31.3150 H   0  0  0  0  0  0  0  0  0  0  0  0
   39.6270   23.5130   29.6130 H   0  0  0  0  0  0  0  0  0  0  0  0
   38.2310   26.1750   35.3180 C   0  0  0  0  0  0  0  0  0  0  0  0
   38.8560   27.2940   35.3000 O   0  0  0  0  0  0  0  0  0  0  0  0
   37.0890   26.0100   34.4570 N   0  0  0  0  0  0  0  0  0  0  0  0
   36.5570   25.1560   34.3580 H   0  0  0  0  0  0  0  0  0  0  0  0
   40.3530   24.3360   34.2130 Cl  0  0  0  0  0  0  0  0  0  0  0  0
   39.5820   24.1530   35.7700 C   0  0  0  0  0  0  0  0  0  0  0  0
   38.6280   25.0390   36.1860 C   0  0  0  0  0  0  0  0  0  0  0  0
   37.9730   24.9600   37.4060 C   0  0  0  0  0  0  0  0  0  0  0  0
   37.2160   25.6560   37.7450 H   0  0  0  0  0  0  0  0  0  0  0  0
   38.2950   23.9220   38.2700 C   0  0  0  0  0  0  0  0  0  0  0  0
   37.8130   23.8130   39.2390 H   0  0  0  0  0  0  0  0  0  0  0  0
   39.2600   23.0240   37.8530 C   0  0  0  0  0  0  0  0  0  0  0  0
   39.5610   22.1840   38.4860 H   0  0  0  0  0  0  0  0  0  0  0  0
   39.9060   23.1090   36.6400 C   0  0  0  0  0  0  0  0  0  0  0  0
   41.1270   21.9570   36.1340 Cl  0  0  0  0  0  0  0  0  0  0  0  0
  1  6  1  0  0  0  0
  2  3  1  0  0  0  0
  2  1  2  0  0  0  0
  3  4  2  0  0  0  0
  4  9  1  0  0  0  0
  4  5  1  0  0  0  0
  5 10  1  0  0  0  0
  6  5  2  0  0  0  0
  6 22  1  0  0  0  0
  7  2  1  0  0  0  0
  8  3  1  0  0  0  0
 11 12  1  0  0  0  0
 11 17  1  0  0  0  0
 12  1  1  0  0  0  0
 13 18  1  0  0  0  0
 13 12  2  0  0  0  0
 14 13  1  0  0  0  0
 15 14  2  0  0  0  0
 15 16  1  0  0  0  0
 16 11  2  0  0  0  0
 19 15  1  0  0  0  0
 20 26  1  0  0  0  0
 21 20  2  0  0  0  0
 22 20  1  0  0  0  0
 23 22  1  0  0  0  0
 24 25  1  0  0  0  0
 25 26  2  0  0  0  0
 25 33  1  0  0  0  0
 26 27  1  0  0  0  0
 27 28  1  0  0  0  0
 27 29  2  0  0  0  0
 29 30  1  0  0  0  0
 31 29  1  0  0  0  0
 31 32  1  0  0  0  0
 33 31  2  0  0  0  0
 34 33  1  0  0  0  0
M  END
>  <minimizedAffinity>
-5.4988966

$$$$

 OpenBabel03272500553D

 34 36  0  0  0  0  0  0  0  0999 V2000
   39.5880   25.0210   34.6870 C   0  0  0  0  0  0  0  0  0  0  0  0
   40.0580   26.3350   34.8050 C   0  0  0  0  0  0  0  0  0  0  0  0
   40.4500   27.0860   33.7020 C   0  0  0  0  0  0  0  0  0  0  0  0
   40.3670   26.4840   32.4130 C   0  0  0  0  0  0  0  0  0  0  0  0
   39.9030   25.1990   32.3430 C   0  0  0  0  0  0  0  0  0  0  0  0
   39.5180   24.4680   33.4180 C   0  0  0  0  0  0  0  0  0  0  0  0
   40.1250   26.8000   35.7870 H   0  0  0  0  0  0  0  0  0  0  0  0
   40.8020   28.1110   33.9090 H   0  0  0  0  0  0  0  0  0  0  0  0
   40.7050   27.1950   31.6810 H   0  0  0  0  0  0  0  0  0  0  0  0
   39.9830   24.9710   31.3020 H   0  0  0  0  0  0  0  0  0  0  0  0
   38.0720   24.7650   36.5560 C   0  0  0  0  0  0  0  0  0  0  0  0
   39.2710   24.3610   35.9380 C   0  0  0  0  0  0  0  0  0  0  0  0
   40.0240   23.3760   36.5920 C   0  0  0  0  0  0  0  0  0  0  0  0
   39.5890   22.8650   37.7540 N   0  0  0  0  0  0  0  0  0  0  0  0
   38.4470   23.2580   38.3320 C   0  0  0  0  0  0  0  0  0  0  0  0
   37.6990   24.2020   37.7310 N   0  0  0  0  0  0  0  0  0  0  0  0
   37.4440   25.5240   36.0990 H   0  0  0  0  0  0  0  0  0  0  0  0
   40.9290   23.0980   36.0850 H   0  0  0  0  0  0  0  0  0  0  0  0
   38.1040   22.8390   39.2680 H   0  0  0  0  0  0  0  0  0  0  0  0
   37.6580   23.1490   32.8640 C   0  0  0  0  0  0  0  0  0  0  0  0
   37.0600   24.2670   32.6780 O   0  0  0  0  0  0  0  0  0  0  0  0
   39.0220   23.1650   33.3230 N   0  0  0  0  0  0  0  0  0  0  0  0
   39.5670   22.3440   33.5490 H   0  0  0  0  0  0  0  0  0  0  0  0
   38.2140   21.8470   30.1980 Cl  0  0  0  0  0  0  0  0  0  0  0  0
   37.2040   21.1690   31.4520 C   0  0  0  0  0  0  0  0  0  0  0  0
   37.0100   21.8350   32.6300 C   0  0  0  0  0  0  0  0  0  0  0  0
   36.2230   21.3610   33.6690 C   0  0  0  0  0  0  0  0  0  0  0  0
   36.0630   21.8810   34.6060 H   0  0  0  0  0  0  0  0  0  0  0  0
   35.5870   20.1360   33.5210 C   0  0  0  0  0  0  0  0  0  0  0  0
   34.9590   19.7180   34.3040 H   0  0  0  0  0  0  0  0  0  0  0  0
   35.7800   19.4600   32.3310 C   0  0  0  0  0  0  0  0  0  0  0  0
   35.3080   18.4900   32.1490 H   0  0  0  0  0  0  0  0  0  0  0  0
   36.5630   19.9370   31.3020 C   0  0  0  0  0  0  0  0  0  0  0  0
   36.7930   19.0590   29.8020 Cl  0  0  0  0  0  0  0  0  0  0  0  0
  1  2  1  0  0  0  0
  1 12  1  0  0  0  0
  2  7  1  0  0  0  0
  3  8  1  0  0  0  0
  3  2  2  0  0  0  0
  4  3  1  0  0  0  0
  5  4  2  0  0  0  0
  5  6  1  0  0  0  0
  6  1  2  0  0  0  0
  9  4  1  0  0  0  0
 10  5  1  0  0  0  0
 11 16  1  0  0  0  0
 12 11  2  0  0  0  0
 12 13  1  0  0  0  0
 13 14  2  0  0  0  0
 14 15  1  0  0  0  0
 15 19  1  0  0  0  0
 16 15  2  0  0  0  0
 17 11  1  0  0  0  0
 18 13  1  0  0  0  0
 20 22  1  0  0  0  0
 21 20  2  0  0  0  0
 22  6  1  0  0  0  0
 22 23  1  0  0  0  0
 24 25  1  0  0  0  0
 25 26  1  0  0  0  0
 26 20  1  0  0  0  0
 26 27  2  0  0  0  0
 27 28  1  0  0  0  0
 29 27  1  0  0  0  0
 29 30  1  0  0  0  0
 31 29  2  0  0  0  0
 32 31  1  0  0  0  0
 33 25  2  0  0  0  0
 33 31  1  0  0  0  0
 34 33  1  0  0  0  0
M  END
>  <minimizedAffinity>
-5.44422197

$$$$

 OpenBabel03272500553D

 34 36  0  0  0  0  0  0  0  0999 V2000
   37.9180   25.4730   34.6910 C   0  0  0  0  0  0  0  0  0  0  0  0
   37.5230   26.7330   35.1580 C   0  0  0  0  0  0  0  0  0  0  0  0
   37.0000   27.7080   34.3140 C   0  0  0  0  0  0  0  0  0  0  0  0
   36.8700   27.4000   32.9280 C   0  0  0  0  0  0  0  0  0  0  0  0
   37.2690   26.1590   32.5150 C   0  0  0  0  0  0  0  0  0  0  0  0
   37.7750   25.2080   33.3380 C   0  0  0  0  0  0  0  0  0  0  0  0
   37.6200   26.9740   36.2150 H   0  0  0  0  0  0  0  0  0  0  0  0
   36.7190   28.6640   34.7870 H   0  0  0  0  0  0  0  0  0  0  0  0
   36.4550   28.2550   32.4260 H   0  0  0  0  0  0  0  0  0  0  0  0
   37.1190   26.1980   31.4570 H   0  0  0  0  0  0  0  0  0  0  0  0
   37.6610   24.2960   36.7900 C   0  0  0  0  0  0  0  0  0  0  0  0
   38.4900   24.5930   35.6900 C   0  0  0  0  0  0  0  0  0  0  0  0
   39.7660   24.0150   35.6800 C   0  0  0  0  0  0  0  0  0  0  0  0
   40.1470   23.2190   36.6920 N   0  0  0  0  0  0  0  0  0  0  0  0
   39.3500   22.9440   37.7320 C   0  0  0  0  0  0  0  0  0  0  0  0
   38.1170   23.4830   37.7730 N   0  0  0  0  0  0  0  0  0  0  0  0
   36.6610   24.7130   36.8560 H   0  0  0  0  0  0  0  0  0  0  0  0
   40.3620   24.2670   34.8240 H   0  0  0  0  0  0  0  0  0  0  0  0
   39.6650   22.3010   38.5420 H   0  0  0  0  0  0  0  0  0  0  0  0
   37.0700   23.2610   32.2330 C   0  0  0  0  0  0  0  0  0  0  0  0
   35.9260   23.8360   32.1850 O   0  0  0  0  0  0  0  0  0  0  0  0
   38.1530   23.9350   32.9010 N   0  0  0  0  0  0  0  0  0  0  0  0
   39.0770   23.5500   33.0390 H   0  0  0  0  0  0  0  0  0  0  0  0
   35.6960   20.9160   33.5460 Cl  0  0  0  0  0  0  0  0  0  0  0  0
   36.7540   20.8080   32.1610 C   0  0  0  0  0  0  0  0  0  0  0  0
   37.3330   21.9290   31.6340 C   0  0  0  0  0  0  0  0  0  0  0  0
   38.1830   21.9230   30.5380 C   0  0  0  0  0  0  0  0  0  0  0  0
   38.6460   22.8050   30.1140 H   0  0  0  0  0  0  0  0  0  0  0  0
   38.4740   20.7110   29.9260 C   0  0  0  0  0  0  0  0  0  0  0  0
   39.1330   20.6490   29.0630 H   0  0  0  0  0  0  0  0  0  0  0  0
   37.8900   19.5760   30.4550 C   0  0  0  0  0  0  0  0  0  0  0  0
   38.0770   18.5890   30.0200 H   0  0  0  0  0  0  0  0  0  0  0  0
   37.0470   19.5900   31.5440 C   0  0  0  0  0  0  0  0  0  0  0  0
   36.3180   18.1340   32.1970 Cl  0  0  0  0  0  0  0  0  0  0  0  0
  1  2  1  0  0  0  0
  1 12  1  0  0  0  0
  2  7  1  0  0  0  0
  3  8  1  0  0  0  0
  3  2  2  0  0  0  0
  4  3  1  0  0  0  0
  5  4  2  0  0  0  0
  5  6  1  0  0  0  0
  6  1  2  0  0  0  0
  9  4  1  0  0  0  0
 10  5  1  0  0  0  0
 11 17  1  0  0  0  0
 11 16  1  0  0  0  0
 12 11  2  0  0  0  0
 13 12  1  0  0  0  0
 13 14  2  0  0  0  0
 14 15  1  0  0  0  0
 15 16  2  0  0  0  0
 15 19  1  0  0  0  0
 18 13  1  0  0  0  0
 20 22  1  0  0  0  0
 21 20  2  0  0  0  0
 22 23  1  0  0  0  0
 22  6  1  0  0  0  0
 25 24  1  0  0  0  0
 26 25  1  0  0  0  0
 26 20  1  0  0  0  0
 27 26  2  0  0  0  0
 28 27  1  0  0  0  0
 29 31  2  0  0  0  0
 29 27  1  0  0  0  0
 30 29  1  0  0  0  0
 31 33  1  0  0  0  0
 32 31  1  0  0  0  0
 33 25  2  0  0  0  0
 33 34  1  0  0  0  0
M  END
>  <minimizedAffinity>
-5.4080739

$$$$

 OpenBabel03272500553D

 34 36  0  0  0  0  0  0  0  0999 V2000
   39.1020   23.6350   35.9100 C   0  0  0  0  0  0  0  0  0  0  0  0
   39.7390   22.9100   36.9260 C   0  0  0  0  0  0  0  0  0  0  0  0
   39.4240   23.0810   38.2700 C   0  0  0  0  0  0  0  0  0  0  0  0
   38.4170   24.0310   38.6100 C   0  0  0  0  0  0  0  0  0  0  0  0
   37.8220   24.7170   37.5880 C   0  0  0  0  0  0  0  0  0  0  0  0
   38.1270   24.5470   36.2780 C   0  0  0  0  0  0  0  0  0  0  0  0
   40.5090   22.1840   36.6720 H   0  0  0  0  0  0  0  0  0  0  0  0
   39.9850   22.4580   38.9860 H   0  0  0  0  0  0  0  0  0  0  0  0
   38.3010   24.0360   39.6790 H   0  0  0  0  0  0  0  0  0  0  0  0
   37.1590   25.3820   38.0990 H   0  0  0  0  0  0  0  0  0  0  0  0
   40.9270   23.7190   34.3230 C   0  0  0  0  0  0  0  0  0  0  0  0
   39.5840   23.3750   34.5680 C   0  0  0  0  0  0  0  0  0  0  0  0
   38.8630   22.8250   33.5000 C   0  0  0  0  0  0  0  0  0  0  0  0
   39.4590   22.6500   32.3100 N   0  0  0  0  0  0  0  0  0  0  0  0
   40.7370   22.9820   32.0900 C   0  0  0  0  0  0  0  0  0  0  0  0
   41.4590   23.5130   33.0940 N   0  0  0  0  0  0  0  0  0  0  0  0
   41.5390   24.1490   35.1100 H   0  0  0  0  0  0  0  0  0  0  0  0
   37.8440   22.5760   33.7320 H   0  0  0  0  0  0  0  0  0  0  0  0
   41.2090   22.8370   31.1280 H   0  0  0  0  0  0  0  0  0  0  0  0
   37.9830   26.5860   35.1230 C   0  0  0  0  0  0  0  0  0  0  0  0
   38.8470   27.0010   35.9720 O   0  0  0  0  0  0  0  0  0  0  0  0
   37.4880   25.2390   35.2450 N   0  0  0  0  0  0  0  0  0  0  0  0
   36.7710   24.8310   34.6610 H   0  0  0  0  0  0  0  0  0  0  0  0
   39.4440   26.3730   32.4900 Cl  0  0  0  0  0  0  0  0  0  0  0  0
   38.0610   27.3980   32.7870 C   0  0  0  0  0  0  0  0  0  0  0  0
   37.4640   27.4280   34.0160 C   0  0  0  0  0  0  0  0  0  0  0  0
   36.3660   28.2160   34.3280 C   0  0  0  0  0  0  0  0  0  0  0  0
   35.8860   28.2470   35.2980 H   0  0  0  0  0  0  0  0  0  0  0  0
   35.8260   29.0290   33.3410 C   0  0  0  0  0  0  0  0  0  0  0  0
   34.9650   29.6660   33.5310 H   0  0  0  0  0  0  0  0  0  0  0  0
   36.4260   29.0010   32.0960 C   0  0  0  0  0  0  0  0  0  0  0  0
   36.0500   29.6180   31.2740 H   0  0  0  0  0  0  0  0  0  0  0  0
   37.5180   28.2170   31.7940 C   0  0  0  0  0  0  0  0  0  0  0  0
   38.2610   28.1990   30.2070 Cl  0  0  0  0  0  0  0  0  0  0  0  0
  1  6  2  0  0  0  0
  1  2  1  0  0  0  0
  2  3  2  0  0  0  0
  3  4  1  0  0  0  0
  3  8  1  0  0  0  0
  4  9  1  0  0  0  0
  5 10  1  0  0  0  0
  5  4  2  0  0  0  0
  6  5  1  0  0  0  0
  7  2  1  0  0  0  0
 11 12  1  0  0  0  0
 11 17  1  0  0  0  0
 12  1  1  0  0  0  0
 13 18  1  0  0  0  0
 13 12  2  0  0  0  0
 14 13  1  0  0  0  0
 15 14  2  0  0  0  0
 15 16  1  0  0  0  0
 16 11  2  0  0  0  0
 19 15  1  0  0  0  0
 20 22  1  0  0  0  0
 20 21  2  0  0  0  0
 22  6  1  0  0  0  0
 23 22  1  0  0  0  0
 24 25  1  0  0  0  0
 25 26  1  0  0  0  0
 26 27  2  0  0  0  0
 26 20  1  0  0  0  0
 27 28  1  0  0  0  0
 29 30  1  0  0  0  0
 29 27  1  0  0  0  0
 31 29  2  0  0  0  0
 32 31  1  0  0  0  0
 33 31  1  0  0  0  0
 33 25  2  0  0  0  0
 34 33  1  0  0  0  0
M  END
>  <minimizedAffinity>
-5.39321661

$$$$

 OpenBabel03272500553D

 34 36  0  0  0  0  0  0  0  0999 V2000
   39.4450   26.4100   33.4060 C   0  0  0  0  0  0  0  0  0  0  0  0
   40.5780   27.1990   33.1690 C   0  0  0  0  0  0  0  0  0  0  0  0
   41.7840   26.9840   33.8260 C   0  0  0  0  0  0  0  0  0  0  0  0
   41.8560   25.9200   34.7720 C   0  0  0  0  0  0  0  0  0  0  0  0
   40.7270   25.1750   34.9740 C   0  0  0  0  0  0  0  0  0  0  0  0
   39.5510   25.3840   34.3300 C   0  0  0  0  0  0  0  0  0  0  0  0
   40.5290   28.0140   32.4480 H   0  0  0  0  0  0  0  0  0  0  0  0
   42.6130   27.6620   33.5620 H   0  0  0  0  0  0  0  0  0  0  0  0
   42.8490   25.8940   35.1830 H   0  0  0  0  0  0  0  0  0  0  0  0
   41.0220   24.4950   35.7440 H   0  0  0  0  0  0  0  0  0  0  0  0
   37.3870   27.6830   33.3510 C   0  0  0  0  0  0  0  0  0  0  0  0
   38.2540   26.8010   32.6780 C   0  0  0  0  0  0  0  0  0  0  0  0
   37.8780   26.3960   31.3900 C   0  0  0  0  0  0  0  0  0  0  0  0
   36.7330   26.8500   30.8550 N   0  0  0  0  0  0  0  0  0  0  0  0
   35.9170   27.6880   31.5060 C   0  0  0  0  0  0  0  0  0  0  0  0
   36.2480   28.0970   32.7440 N   0  0  0  0  0  0  0  0  0  0  0  0
   37.6230   28.0330   34.3510 H   0  0  0  0  0  0  0  0  0  0  0  0
   38.5680   25.7260   30.9140 H   0  0  0  0  0  0  0  0  0  0  0  0
   34.9970   28.0490   31.0660 H   0  0  0  0  0  0  0  0  0  0  0  0
   38.6220   23.2430   34.0780 C   0  0  0  0  0  0  0  0  0  0  0  0
   39.7300   22.9510   33.5050 O   0  0  0  0  0  0  0  0  0  0  0  0
   38.4150   24.5940   34.5310 N   0  0  0  0  0  0  0  0  0  0  0  0
   37.5620   24.9410   34.9480 H   0  0  0  0  0  0  0  0  0  0  0  0
   37.6400   22.9500   36.9170 Cl  0  0  0  0  0  0  0  0  0  0  0  0
   37.0280   22.0530   35.5490 C   0  0  0  0  0  0  0  0  0  0  0  0
   37.5370   22.2540   34.2970 C   0  0  0  0  0  0  0  0  0  0  0  0
   37.1030   21.5810   33.1640 C   0  0  0  0  0  0  0  0  0  0  0  0
   37.5000   21.7330   32.1680 H   0  0  0  0  0  0  0  0  0  0  0  0
   36.0890   20.6420   33.2930 C   0  0  0  0  0  0  0  0  0  0  0  0
   35.7110   20.0860   32.4380 H   0  0  0  0  0  0  0  0  0  0  0  0
   35.5720   20.4350   34.5580 C   0  0  0  0  0  0  0  0  0  0  0  0
   34.7710   19.7100   34.7290 H   0  0  0  0  0  0  0  0  0  0  0  0
   36.0080   21.1080   35.6780 C   0  0  0  0  0  0  0  0  0  0  0  0
   35.3340   20.8280   37.2730 Cl  0  0  0  0  0  0  0  0  0  0  0  0
  1  6  1  0  0  0  0
  2  1  2  0  0  0  0
  2  3  1  0  0  0  0
  3  4  2  0  0  0  0
  4  5  1  0  0  0  0
  4  9  1  0  0  0  0
  5 10  1  0  0  0  0
  6 22  1  0  0  0  0
  6  5  2  0  0  0  0
  7  2  1  0  0  0  0
  8  3  1  0  0  0  0
 11 17  1  0  0  0  0
 12 11  2  0  0  0  0
 12  1  1  0  0  0  0
 13 12  1  0  0  0  0
 14 13  2  0  0  0  0
 14 15  1  0  0  0  0
 15 16  2  0  0  0  0
 16 11  1  0  0  0  0
 18 13  1  0  0  0  0
 19 15  1  0  0  0  0
 20 26  1  0  0  0  0
 20 22  1  0  0  0  0
 21 20  2  0  0  0  0
 22 23  1  0  0  0  0
 25 33  1  0  0  0  0
 25 24  1  0  0  0  0
 26 25  2  0  0  0  0
 27 29  2  0  0  0  0
 27 26  1  0  0  0  0
 28 27  1  0  0  0  0
 29 31  1  0  0  0  0
 30 29  1  0  0  0  0
 31 32  1  0  0  0  0
 31 33  2  0  0  0  0
 33 34  1  0  0  0  0
M  END
>  <minimizedAffinity>
-5.27365208

$$$$

 OpenBabel03272500553D

 34 36  0  0  0  0  0  0  0  0999 V2000
   38.2530   27.2490   31.9090 C   0  0  0  0  0  0  0  0  0  0  0  0
   38.2200   27.5520   30.5420 C   0  0  0  0  0  0  0  0  0  0  0  0
   39.1820   27.0840   29.6540 C   0  0  0  0  0  0  0  0  0  0  0  0
   40.2330   26.2690   30.1670 C   0  0  0  0  0  0  0  0  0  0  0  0
   40.2280   25.9980   31.5070 C   0  0  0  0  0  0  0  0  0  0  0  0
   39.2880   26.4530   32.3720 C   0  0  0  0  0  0  0  0  0  0  0  0
   37.4200   28.1750   30.1450 H   0  0  0  0  0  0  0  0  0  0  0  0
   39.0590   27.3810   28.5990 H   0  0  0  0  0  0  0  0  0  0  0  0
   40.8820   25.9980   29.3540 H   0  0  0  0  0  0  0  0  0  0  0  0
   41.1220   25.4280   31.6400 H   0  0  0  0  0  0  0  0  0  0  0  0
   36.2320   28.5770   31.9860 C   0  0  0  0  0  0  0  0  0  0  0  0
   37.2060   27.8580   32.7050 C   0  0  0  0  0  0  0  0  0  0  0  0
   37.0640   27.8110   34.0980 C   0  0  0  0  0  0  0  0  0  0  0  0
   36.0320   28.4360   34.6870 N   0  0  0  0  0  0  0  0  0  0  0  0
   35.1110   29.1160   33.9920 C   0  0  0  0  0  0  0  0  0  0  0  0
   35.2180   29.1830   32.6520 N   0  0  0  0  0  0  0  0  0  0  0  0
   36.2860   28.6510   30.9050 H   0  0  0  0  0  0  0  0  0  0  0  0
   37.8280   27.2510   34.6050 H   0  0  0  0  0  0  0  0  0  0  0  0
   34.2820   29.6160   34.4740 H   0  0  0  0  0  0  0  0  0  0  0  0
   38.8440   24.7920   33.9710 C   0  0  0  0  0  0  0  0  0  0  0  0
   38.4530   24.0920   32.9730 O   0  0  0  0  0  0  0  0  0  0  0  0
   39.2850   26.1420   33.7350 N   0  0  0  0  0  0  0  0  0  0  0  0
   39.5650   26.7940   34.4550 H   0  0  0  0  0  0  0  0  0  0  0  0
   41.0260   22.8140   34.6310 Cl  0  0  0  0  0  0  0  0  0  0  0  0
   39.8150   23.3800   35.7550 C   0  0  0  0  0  0  0  0  0  0  0  0
   38.8630   24.2790   35.3640 C   0  0  0  0  0  0  0  0  0  0  0  0
   37.8710   24.7730   36.1970 C   0  0  0  0  0  0  0  0  0  0  0  0
   37.1120   25.4850   35.8970 H   0  0  0  0  0  0  0  0  0  0  0  0
   37.8280   24.3380   37.5150 C   0  0  0  0  0  0  0  0  0  0  0  0
   37.0720   24.6930   38.2110 H   0  0  0  0  0  0  0  0  0  0  0  0
   38.7890   23.4280   37.9150 C   0  0  0  0  0  0  0  0  0  0  0  0
   38.8120   23.0450   38.9400 H   0  0  0  0  0  0  0  0  0  0  0  0
   39.7710   22.9420   37.0810 C   0  0  0  0  0  0  0  0  0  0  0  0
   40.9800   21.7890   37.6130 Cl  0  0  0  0  0  0  0  0  0  0  0  0
  1  6  1  0  0  0  0
  1 12  1  0  0  0  0
  2  1  2  0  0  0  0
  3  4  2  0  0  0  0
  3  2  1  0  0  0  0
  4  5  1  0  0  0  0
  5 10  1  0  0  0  0
  5  6  2  0  0  0  0
  6 22  1  0  0  0  0
  7  2  1  0  0  0  0
  8  3  1  0  0  0  0
  9  4  1  0  0  0  0
 11 16  2  0  0  0  0
 11 12  1  0  0  0  0
 12 13  2  0  0  0  0
 13 18  1  0  0  0  0
 13 14  1  0  0  0  0
 15 19  1  0  0  0  0
 15 14  2  0  0  0  0
 16 15  1  0  0  0  0
 17 11  1  0  0  0  0
 20 26  1  0  0  0  0
 21 20  2  0  0  0  0
 22 20  1  0  0  0  0
 22 23  1  0  0  0  0
 24 25  1  0  0  0  0
 25 33  1  0  0  0  0
 26 25  2  0  0  0  0
 26 27  1  0  0  0  0
 27 29  2  0  0  0  0
 28 27  1  0  0  0  0
 29 31  1  0  0  0  0
 29 30  1  0  0  0  0
 31 32  1  0  0  0  0
 33 34  1  0  0  0  0
 33 31  2  0  0  0  0
M  END
>  <minimizedAffinity>
-5.22576904

$$$$

 OpenBabel03272500553D

 34 36  0  0  0  0  0  0  0  0999 V2000
   36.7090   23.9740   31.7460 C   0  0  0  0  0  0  0  0  0  0  0  0
   35.4700   24.3090   31.1830 C   0  0  0  0  0  0  0  0  0  0  0  0
   35.0600   25.6270   31.0210 C   0  0  0  0  0  0  0  0  0  0  0  0
   35.9390   26.6640   31.4480 C   0  0  0  0  0  0  0  0  0  0  0  0
   37.1380   26.2950   31.9920 C   0  0  0  0  0  0  0  0  0  0  0  0
   37.5390   25.0080   32.1470 C   0  0  0  0  0  0  0  0  0  0  0  0
   34.7940   23.5210   30.8560 H   0  0  0  0  0  0  0  0  0  0  0  0
   34.0670   25.7780   30.5650 H   0  0  0  0  0  0  0  0  0  0  0  0
   35.4710   27.6120   31.2520 H   0  0  0  0  0  0  0  0  0  0  0  0
   37.5760   27.2290   32.2680 H   0  0  0  0  0  0  0  0  0  0  0  0
   37.5880   21.9290   30.7960 C   0  0  0  0  0  0  0  0  0  0  0  0
   36.9610   22.5550   31.8910 C   0  0  0  0  0  0  0  0  0  0  0  0
   36.6480   21.7470   32.9920 C   0  0  0  0  0  0  0  0  0  0  0  0
   36.9480   20.4380   32.9680 N   0  0  0  0  0  0  0  0  0  0  0  0
   37.5440   19.8550   31.9200 C   0  0  0  0  0  0  0  0  0  0  0  0
   37.8580   20.6020   30.8450 N   0  0  0  0  0  0  0  0  0  0  0  0
   37.8550   22.5010   29.9130 H   0  0  0  0  0  0  0  0  0  0  0  0
   36.1730   22.2650   33.8040 H   0  0  0  0  0  0  0  0  0  0  0  0
   37.7820   18.8000   31.9100 H   0  0  0  0  0  0  0  0  0  0  0  0
   38.8070   24.8080   34.1130 C   0  0  0  0  0  0  0  0  0  0  0  0
   37.7790   25.3020   34.6950 O   0  0  0  0  0  0  0  0  0  0  0  0
   38.7800   24.6500   32.6820 N   0  0  0  0  0  0  0  0  0  0  0  0
   39.5530   24.3190   32.1210 H   0  0  0  0  0  0  0  0  0  0  0  0
   38.4930   22.4830   36.0120 Cl  0  0  0  0  0  0  0  0  0  0  0  0
   39.9840   23.3460   35.7240 C   0  0  0  0  0  0  0  0  0  0  0  0
   40.0290   24.3900   34.8430 C   0  0  0  0  0  0  0  0  0  0  0  0
   41.1740   25.1220   34.5640 C   0  0  0  0  0  0  0  0  0  0  0  0
   41.2200   25.9510   33.8680 H   0  0  0  0  0  0  0  0  0  0  0  0
   42.3560   24.7870   35.2100 C   0  0  0  0  0  0  0  0  0  0  0  0
   43.2820   25.3270   35.0280 H   0  0  0  0  0  0  0  0  0  0  0  0
   42.3140   23.7320   36.1020 C   0  0  0  0  0  0  0  0  0  0  0  0
   43.2100   23.4150   36.6450 H   0  0  0  0  0  0  0  0  0  0  0  0
   41.1740   23.0090   36.3750 C   0  0  0  0  0  0  0  0  0  0  0  0
   41.1480   21.6740   37.5110 Cl  0  0  0  0  0  0  0  0  0  0  0  0
  1 12  1  0  0  0  0
  1  6  1  0  0  0  0
  2  1  2  0  0  0  0
  3  2  1  0  0  0  0
  3  4  2  0  0  0  0
  4  5  1  0  0  0  0
  5  6  2  0  0  0  0
  5 10  1  0  0  0  0
  6 22  1  0  0  0  0
  7  2  1  0  0  0  0
  8  3  1  0  0  0  0
  9  4  1  0  0  0  0
 11 16  2  0  0  0  0
 11 12  1  0  0  0  0
 12 13  2  0  0  0  0
 13 18  1  0  0  0  0
 14 13  1  0  0  0  0
 15 14  2  0  0  0  0
 16 15  1  0  0  0  0
 17 11  1  0  0  0  0
 19 15  1  0  0  0  0
 20 21  2  0  0  0  0
 20 26  1  0  0  0  0
 22 20  1  0  0  0  0
 23 22  1  0  0  0  0
 25 24  1  0  0  0  0
 25 33  1  0  0  0  0
 26 25  2  0  0  0  0
 27 26  1  0  0  0  0
 27 29  2  0  0  0  0
 28 27  1  0  0  0  0
 29 31  1  0  0  0  0
 30 29  1  0  0  0  0
 31 33  2  0  0  0  0
 31 32  1  0  0  0  0
 33 34  1  0  0  0  0
M  END
>  <minimizedAffinity>
-5.1745429

$$$$
