
 OpenBabel03272508583D

 42 45  0  0  1  0  0  0  0  0999 V2000
   39.1890   31.4050   43.3810 C   0  0  0  0  0  0  0  0  0  0  0  0
   40.2380   30.5460   43.5580 C   0  0  0  0  0  0  0  0  0  0  0  0
   40.9480   30.1590   42.4350 C   0  0  0  0  0  0  0  0  0  0  0  0
   40.5610   30.6570   41.2160 C   0  0  0  0  0  0  0  0  0  0  0  0
   39.5020   31.5250   41.0310 C   0  0  0  0  0  0  0  0  0  0  0  0
   38.8560   31.8610   42.1550 N   0  0  0  0  0  0  0  0  0  0  0  0
   40.5310   30.1620   44.5280 H   0  0  0  0  0  0  0  0  0  0  0  0
   41.7820   29.4840   42.5290 H   0  0  0  0  0  0  0  0  0  0  0  0
   41.1500   30.3230   40.3700 H   0  0  0  0  0  0  0  0  0  0  0  0
   38.4140   31.8350   44.5600 C   0  0  0  0  0  0  0  0  0  0  0  0
   37.3420   32.4720   44.4350 O   0  0  0  0  0  0  0  0  0  0  0  0
   38.9290   31.5000   45.8750 N   0  0  0  0  0  0  0  0  0  0  0  0
   39.8870   31.1730   46.0370 H   0  0  0  0  0  0  0  0  0  0  0  0
   38.2950   30.9390   48.2070 C   0  0  2  0  0  0  0  0  0  0  0  0
   38.6800   32.3740   48.1980 C   0  0  0  0  0  0  0  0  0  0  0  0
   38.0310   31.6390   46.9920 C   0  0  1  0  0  0  0  0  0  0  0  0
   39.1690   30.2630   48.3090 H   0  0  0  0  0  0  0  0  0  0  0  0
   39.7230   32.6750   48.1170 H   0  0  0  0  0  0  0  0  0  0  0  0
   38.0140   33.0300   48.8000 H   0  0  0  0  0  0  0  0  0  0  0  0
   36.9890   31.9910   46.7760 H   0  0  0  0  0  0  0  0  0  0  0  0
   34.8200   30.1600   49.2880 C   0  0  0  0  0  0  0  0  0  0  0  0
   35.0450   29.5900   50.5810 C   0  0  0  0  0  0  0  0  0  0  0  0
   36.4030   29.4940   51.0610 C   0  0  0  0  0  0  0  0  0  0  0  0
   37.4270   29.9470   50.2700 N   0  0  0  0  0  0  0  0  0  0  0  0
   37.1380   30.4740   49.0610 C   0  0  0  0  0  0  0  0  0  0  0  0
   35.8550   30.5940   48.5420 N   0  0  0  0  0  0  0  0  0  0  0  0
   33.7910   30.2140   48.9650 H   0  0  0  0  0  0  0  0  0  0  0  0
   34.2600   29.2300   51.2130 H   0  0  0  0  0  0  0  0  0  0  0  0
   36.5700   29.0630   52.0350 H   0  0  0  0  0  0  0  0  0  0  0  0
   39.1430   32.0160   39.7060 C   0  0  0  0  0  0  0  0  0  0  0  0
   39.0810   33.2750   39.5390 O   0  0  0  0  0  0  0  0  0  0  0  0
   41.4980   31.7510   37.8790 Cl  0  0  0  0  0  0  0  0  0  0  0  0
   39.9110   31.0530   37.6680 C   0  0  0  0  0  0  0  0  0  0  0  0
   38.8470   31.2010   38.5400 C   0  0  0  0  0  0  0  0  0  0  0  0
   37.6210   30.6150   38.3000 C   0  0  0  0  0  0  0  0  0  0  0  0
   36.8560   30.7830   39.0270 H   0  0  0  0  0  0  0  0  0  0  0  0
   37.4990   29.8710   37.1460 C   0  0  0  0  0  0  0  0  0  0  0  0
   36.5330   29.4140   36.9650 H   0  0  0  0  0  0  0  0  0  0  0  0
   38.5250   29.6920   36.2460 C   0  0  0  0  0  0  0  0  0  0  0  0
   38.3900   29.1030   35.3540 H   0  0  0  0  0  0  0  0  0  0  0  0
   39.7480   30.2930   36.5130 C   0  0  0  0  0  0  0  0  0  0  0  0
   41.0230   30.0400   35.3430 Cl  0  0  0  0  0  0  0  0  0  0  0  0
  1  2  1  0  0  0  0
  1 10  1  0  0  0  0
  2  7  1  0  0  0  0
  3  8  1  0  0  0  0
  3  2  2  0  0  0  0
  4  3  1  0  0  0  0
  5  4  2  0  0  0  0
  5  6  1  0  0  0  0
  6  1  2  0  0  0  0
  9  4  1  0  0  0  0
 10 12  1  0  0  0  0
 11 10  2  0  0  0  0
 12 13  1  0  0  0  0
 12 16  1  0  0  0  0
 14 17  1  6  0  0  0
 14 25  1  0  0  0  0
 15 14  1  0  0  0  0
 15 19  1  0  0  0  0
 16 20  1  6  0  0  0
 16 15  1  0  0  0  0
 16 14  1  0  0  0  0
 18 15  1  0  0  0  0
 21 22  1  0  0  0  0
 22 23  2  0  0  0  0
 22 28  1  0  0  0  0
 23 29  1  0  0  0  0
 24 23  1  0  0  0  0
 25 24  2  0  0  0  0
 26 25  1  0  0  0  0
 26 21  2  0  0  0  0
 27 21  1  0  0  0  0
 30  5  1  0  0  0  0
 31 30  2  0  0  0  0
 33 32  1  0  0  0  0
 33 34  1  0  0  0  0
 34 30  1  0  0  0  0
 35 34  2  0  0  0  0
 35 36  1  0  0  0  0
 37 35  1  0  0  0  0
 38 37  1  0  0  0  0
 39 41  1  0  0  0  0
 39 37  2  0  0  0  0
 40 39  1  0  0  0  0
 41 33  2  0  0  0  0
 42 41  1  0  0  0  0
M  END
>  <minimizedAffinity>
-4.93182421

>  <minimizedRMSD>
0.919247508

$$$$
