
 OpenBabel03272508513D

 31 33  0  0  1  0  0  0  0  0999 V2000
   39.3000   30.8690   46.3720 C   0  0  2  0  0  0  0  0  0  0  0  0
   40.4790   31.5400   45.8330 C   0  0  0  0  0  0  0  0  0  0  0  0
   39.1450   31.4890   45.0650 C   0  0  1  0  0  0  0  0  0  0  0  0
   39.3320   29.7330   46.4220 H   0  0  0  0  0  0  0  0  0  0  0  0
   41.3460   30.9960   45.4240 H   0  0  0  0  0  0  0  0  0  0  0  0
   40.7010   32.5410   46.2480 H   0  0  0  0  0  0  0  0  0  0  0  0
   38.6860   32.4540   44.8890 H   0  0  0  0  0  0  0  0  0  0  0  0
   36.7980   31.1590   49.1010 C   0  0  0  0  0  0  0  0  0  0  0  0
   37.1660   32.4070   49.6800 C   0  0  0  0  0  0  0  0  0  0  0  0
   38.2450   33.1050   49.1290 C   0  0  0  0  0  0  0  0  0  0  0  0
   38.9040   32.5740   48.0640 N   0  0  0  0  0  0  0  0  0  0  0  0
   38.5390   31.3940   47.5350 C   0  0  0  0  0  0  0  0  0  0  0  0
   37.4870   30.6520   48.0280 N   0  0  0  0  0  0  0  0  0  0  0  0
   35.9710   30.5910   49.5050 H   0  0  0  0  0  0  0  0  0  0  0  0
   36.6380   32.8050   50.5140 H   0  0  0  0  0  0  0  0  0  0  0  0
   38.5910   34.0590   49.5080 H   0  0  0  0  0  0  0  0  0  0  0  0
   39.4090   31.2300   42.6230 C   0  0  0  0  0  0  0  0  0  0  0  0
   39.7310   32.4400   42.5580 O   0  0  0  0  0  0  0  0  0  0  0  0
   39.1680   30.6000   43.8990 N   0  0  0  0  0  0  0  0  0  0  0  0
   39.0070   29.5880   44.0850 H   0  0  0  0  0  0  0  0  0  0  0  0
   41.6010   29.1930   41.9160 Cl  0  0  0  0  0  0  0  0  0  0  0  0
   40.0580   29.2910   41.0670 C   0  0  0  0  0  0  0  0  0  0  0  0
   39.2260   30.2700   41.5490 C   0  0  0  0  0  0  0  0  0  0  0  0
   38.0050   30.3170   40.8430 C   0  0  0  0  0  0  0  0  0  0  0  0
   37.2800   31.0870   41.1750 H   0  0  0  0  0  0  0  0  0  0  0  0
   37.5720   29.5240   39.7680 C   0  0  0  0  0  0  0  0  0  0  0  0
   36.6340   29.5830   39.2520 H   0  0  0  0  0  0  0  0  0  0  0  0
   38.5900   28.6290   39.4880 C   0  0  0  0  0  0  0  0  0  0  0  0
   38.3470   27.9500   38.6480 H   0  0  0  0  0  0  0  0  0  0  0  0
   39.8190   28.4230   40.0370 C   0  0  0  0  0  0  0  0  0  0  0  0
   40.9590   27.2160   39.5120 Cl  0  0  0  0  0  0  0  0  0  0  0  0
  1  4  1  6  0  0  0
  1 12  1  0  0  0  0
  2  6  1  0  0  0  0
  2  1  1  0  0  0  0
  3  7  1  6  0  0  0
  3  2  1  0  0  0  0
  3  1  1  0  0  0  0
  5  2  1  0  0  0  0
  8 14  1  0  0  0  0
  8  9  1  0  0  0  0
  9 15  1  0  0  0  0
 10 16  1  0  0  0  0
 10  9  2  0  0  0  0
 11 10  1  0  0  0  0
 12 13  1  0  0  0  0
 12 11  2  0  0  0  0
 13  8  2  0  0  0  0
 17 19  1  0  0  0  0
 18 17  2  0  0  0  0
 19 20  1  0  0  0  0
 19  3  1  0  0  0  0
 22 23  1  0  0  0  0
 22 21  1  0  0  0  0
 23 17  1  0  0  0  0
 24 25  1  0  0  0  0
 24 23  2  0  0  0  0
 26 24  1  0  0  0  0
 27 26  1  0  0  0  0
 28 26  2  0  0  0  0
 28 30  1  0  0  0  0
 29 28  1  0  0  0  0
 30 22  2  0  0  0  0
 31 30  1  0  0  0  0
M  END
>  <minimizedAffinity>
-4.7610178

>  <minimizedRMSD>
8.96963024

$$$$
