
 OpenBabel03272509403D

 37 39  0  0  1  0  0  0  0  0999 V2000
   36.1320   30.4950   48.3360 C   0  0  0  0  0  0  0  0  0  0  0  0
   36.1000   30.9000   49.6730 C   0  0  0  0  0  0  0  0  0  0  0  0
   36.9520   31.8620   50.1720 C   0  0  0  0  0  0  0  0  0  0  0  0
   37.8860   32.4650   49.3260 C   0  0  0  0  0  0  0  0  0  0  0  0
   37.9050   32.0600   48.0200 C   0  0  0  0  0  0  0  0  0  0  0  0
   37.0420   31.0930   47.5440 C   0  0  0  0  0  0  0  0  0  0  0  0
   35.3970   30.4760   50.4020 H   0  0  0  0  0  0  0  0  0  0  0  0
   36.9070   32.1590   51.2160 H   0  0  0  0  0  0  0  0  0  0  0  0
   38.5330   33.2090   49.7420 H   0  0  0  0  0  0  0  0  0  0  0  0
   38.6540   32.5740   47.4320 H   0  0  0  0  0  0  0  0  0  0  0  0
   35.1910   29.4730   47.9070 C   0  0  2  0  0  3  0  0  0  0  0  0
   35.2110   28.4000   48.6270 O   0  0  0  0  0  1  0  0  0  0  0  0
   32.5160   30.8460   45.8830 C   0  0  0  0  0  0  0  0  0  0  0  0
   32.4960   30.0270   44.7540 C   0  0  0  0  0  0  0  0  0  0  0  0
   33.4100   28.9840   44.6820 C   0  0  0  0  0  0  0  0  0  0  0  0
   34.2930   28.7970   45.7130 N   0  0  0  0  0  0  0  0  0  0  0  0
   34.2790   29.5960   46.7650 C   0  0  0  0  0  0  0  0  0  0  0  0
   33.3920   30.6140   46.8440 N   0  0  0  0  0  0  0  0  0  0  0  0
   31.7800   31.6310   45.8680 H   0  0  0  0  0  0  0  0  0  0  0  0
   31.8660   30.0660   43.8950 H   0  0  0  0  0  0  0  0  0  0  0  0
   33.5460   28.2500   43.8970 H   0  0  0  0  0  0  0  0  0  0  0  0
   37.1920   30.7690   46.1440 C   0  0  0  0  0  3  0  0  0  0  0  0
   37.7340   31.5160   45.2000 C   0  0  0  0  0  3  0  0  0  0  0  0
   37.9650   31.3110   43.7710 C   0  0  0  0  0  0  0  0  0  0  0  0
   38.9290   31.7840   43.4980 H   0  0  0  0  0  0  0  0  0  0  0  0
   37.1930   31.8140   43.1530 H   0  0  0  0  0  0  0  0  0  0  0  0
   35.5330   30.4390   42.3610 Cl  0  0  0  0  0  0  0  0  0  0  0  0
   36.9350   29.4440   42.7780 C   0  0  0  0  0  0  0  0  0  0  0  0
   38.0760   29.8640   43.4430 C   0  0  0  0  0  0  0  0  0  0  0  0
   39.0850   28.9660   43.6940 C   0  0  0  0  0  0  0  0  0  0  0  0
   39.9150   29.4270   44.2190 H   0  0  0  0  0  0  0  0  0  0  0  0
   38.9490   27.6600   43.2820 C   0  0  0  0  0  0  0  0  0  0  0  0
   39.7820   27.0220   43.5170 H   0  0  0  0  0  0  0  0  0  0  0  0
   37.8230   27.2200   42.6200 C   0  0  0  0  0  0  0  0  0  0  0  0
   37.7720   26.1810   42.3200 H   0  0  0  0  0  0  0  0  0  0  0  0
   36.7930   28.1220   42.3580 C   0  0  0  0  0  0  0  0  0  0  0  0
   35.3980   27.4930   41.5150 Cl  0  0  0  0  0  0  0  0  0  0  0  0
  1  2  1  0  0  0  0
  2  3  2  0  0  0  0
  2  7  1  0  0  0  0
  3  8  1  0  0  0  0
  4  9  1  0  0  0  0
  4  3  1  0  0  0  0
  5  4  2  0  0  0  0
  6  5  1  0  0  0  0
  6  1  2  0  0  0  0
 10  5  1  0  0  0  0
 11  1  1  0  0  0  0
 11 12  1  6  0  0  0
 13 18  1  0  0  0  0
 14 13  2  0  0  0  0
 15 14  1  0  0  0  0
 15 16  2  0  0  0  0
 16 17  1  0  0  0  0
 17 18  2  0  0  0  0
 17 11  1  0  0  0  0
 19 13  1  0  0  0  0
 20 14  1  0  0  0  0
 21 15  1  0  0  0  0
 22  6  1  0  0  0  0
 23 22  2  0  0  0  0
 24 23  1  0  0  0  0
 25 24  1  0  0  0  0
 26 24  1  0  0  0  0
 27 28  1  0  0  0  0
 28 29  1  0  0  0  0
 29 30  2  0  0  0  0
 29 24  1  0  0  0  0
 30 31  1  0  0  0  0
 32 33  1  0  0  0  0
 32 30  1  0  0  0  0
 34 32  2  0  0  0  0
 35 34  1  0  0  0  0
 36 34  1  0  0  0  0
 36 28  2  0  0  0  0
 37 36  1  0  0  0  0
M  END
>  <minimizedAffinity>
-5.28196859

>  <minimizedRMSD>
2.05350828

$$$$
