
 OpenBabel03272503053D

 34 36  0  0  0  0  0  0  0  0999 V2000
   38.0990   30.0960   47.3160 F   0  0  0  0  0  0  0  0  0  0  0  0
   38.4960   31.3290   47.7010 C   0  0  0  0  0  0  0  0  0  0  0  0
   38.1080   31.8160   48.9170 C   0  0  0  0  0  0  0  0  0  0  0  0
   38.5380   33.0700   49.2590 C   0  0  0  0  0  0  0  0  0  0  0  0
   39.3340   33.8390   48.4300 C   0  0  0  0  0  0  0  0  0  0  0  0
   39.7100   33.3230   47.2130 C   0  0  0  0  0  0  0  0  0  0  0  0
   39.2890   32.0530   46.8380 C   0  0  0  0  0  0  0  0  0  0  0  0
   38.2420   33.4720   50.2120 H   0  0  0  0  0  0  0  0  0  0  0  0
   39.6390   34.8240   48.7600 H   0  0  0  0  0  0  0  0  0  0  0  0
   40.3400   33.9110   46.5380 H   0  0  0  0  0  0  0  0  0  0  0  0
   36.8930   29.6000   51.7440 C   0  0  0  0  0  0  0  0  0  0  0  0
   37.7080   30.4100   50.9480 C   0  0  0  0  0  0  0  0  0  0  0  0
   37.2640   30.9660   49.7610 C   0  0  0  0  0  0  0  0  0  0  0  0
   35.9850   30.6820   49.4120 N   0  0  0  0  0  0  0  0  0  0  0  0
   35.1980   29.9030   50.1800 C   0  0  0  0  0  0  0  0  0  0  0  0
   35.6390   29.3750   51.3160 N   0  0  0  0  0  0  0  0  0  0  0  0
   37.3740   29.2250   52.6590 H   0  0  0  0  0  0  0  0  0  0  0  0
   38.7390   30.6480   51.2130 H   0  0  0  0  0  0  0  0  0  0  0  0
   34.1780   29.6780   49.8990 H   0  0  0  0  0  0  0  0  0  0  0  0
   38.7010   31.7220   44.5290 C   0  0  0  0  0  0  0  0  0  0  0  0
   37.6930   32.4080   44.8870 O   0  0  0  0  0  0  0  0  0  0  0  0
   39.6560   31.4750   45.5810 N   0  0  0  0  0  0  0  0  0  0  0  0
   40.4870   30.9240   45.3450 H   0  0  0  0  0  0  0  0  0  0  0  0
   37.0430   29.3510   43.6940 Cl  0  0  0  0  0  0  0  0  0  0  0  0
   38.2280   30.1310   42.6550 C   0  0  0  0  0  0  0  0  0  0  0  0
   38.9140   31.2100   43.1760 C   0  0  0  0  0  0  0  0  0  0  0  0
   39.8680   31.8700   42.3990 C   0  0  0  0  0  0  0  0  0  0  0  0
   40.4640   32.7300   42.7120 H   0  0  0  0  0  0  0  0  0  0  0  0
   40.1010   31.4260   41.1250 C   0  0  0  0  0  0  0  0  0  0  0  0
   40.8440   31.9130   40.4730 H   0  0  0  0  0  0  0  0  0  0  0  0
   39.4000   30.3440   40.6320 C   0  0  0  0  0  0  0  0  0  0  0  0
   39.6130   30.0250   39.6230 H   0  0  0  0  0  0  0  0  0  0  0  0
   38.4440   29.6620   41.3730 C   0  0  0  0  0  0  0  0  0  0  0  0
   37.5590   28.2880   40.7350 Cl  0  0  0  0  0  0  0  0  0  0  0  0
  1  2  1  0  0  0  0
  2  3  1  0  0  0  0
  3  4  2  0  0  0  0
  3 13  1  0  0  0  0
  4  8  1  0  0  0  0
  5  9  1  0  0  0  0
  5  4  1  0  0  0  0
  6  5  2  0  0  0  0
  7  6  1  0  0  0  0
  7  2  2  0  0  0  0
 10  6  1  0  0  0  0
 11 17  1  0  0  0  0
 12 18  1  0  0  0  0
 12 11  2  0  0  0  0
 13 12  1  0  0  0  0
 14 13  2  0  0  0  0
 14 15  1  0  0  0  0
 15 16  2  0  0  0  0
 16 11  1  0  0  0  0
 19 15  1  0  0  0  0
 20 21  2  0  0  0  0
 20 22  1  0  0  0  0
 22  7  1  0  0  0  0
 23 22  1  0  0  0  0
 25 26  1  0  0  0  0
 25 24  1  0  0  0  0
 26 20  1  0  0  0  0
 27 28  1  0  0  0  0
 27 26  2  0  0  0  0
 29 27  1  0  0  0  0
 30 29  1  0  0  0  0
 31 29  2  0  0  0  0
 31 33  1  0  0  0  0
 32 31  1  0  0  0  0
 33 25  2  0  0  0  0
 34 33  1  0  0  0  0
M  END
>  <minimizedAffinity>
-6.42114162

>  <minimizedRMSD>
0.662580132

$$$$
