
 OpenBabel03272503053D

 34 36  0  0  0  0  0  0  0  0999 V2000
   38.5510   30.7310   47.1370 F   0  0  0  0  0  0  0  0  0  0  0  0
   38.8690   31.9290   47.6750 C   0  0  0  0  0  0  0  0  0  0  0  0
   38.4080   32.2560   48.9190 C   0  0  0  0  0  0  0  0  0  0  0  0
   38.7600   33.4820   49.4170 C   0  0  0  0  0  0  0  0  0  0  0  0
   39.5480   34.3760   48.7160 C   0  0  0  0  0  0  0  0  0  0  0  0
   39.9980   34.0200   47.4680 C   0  0  0  0  0  0  0  0  0  0  0  0
   39.6570   32.7820   46.9350 C   0  0  0  0  0  0  0  0  0  0  0  0
   38.4060   33.7590   50.3950 H   0  0  0  0  0  0  0  0  0  0  0  0
   39.7890   35.3300   49.1670 H   0  0  0  0  0  0  0  0  0  0  0  0
   40.6230   34.7080   46.8910 H   0  0  0  0  0  0  0  0  0  0  0  0
   37.2200   29.6330   51.3850 C   0  0  0  0  0  0  0  0  0  0  0  0
   38.0240   30.5650   50.7210 C   0  0  0  0  0  0  0  0  0  0  0  0
   37.5760   31.2780   49.6240 C   0  0  0  0  0  0  0  0  0  0  0  0
   36.3040   31.0240   49.2260 N   0  0  0  0  0  0  0  0  0  0  0  0
   35.5290   30.1270   49.8670 C   0  0  0  0  0  0  0  0  0  0  0  0
   35.9730   29.4490   50.9180 N   0  0  0  0  0  0  0  0  0  0  0  0
   37.7020   29.1380   52.2410 H   0  0  0  0  0  0  0  0  0  0  0  0
   39.0480   30.7800   51.0280 H   0  0  0  0  0  0  0  0  0  0  0  0
   34.5150   29.9270   49.5470 H   0  0  0  0  0  0  0  0  0  0  0  0
   39.0830   32.4470   44.6230 C   0  0  0  0  0  0  0  0  0  0  0  0
   37.9590   32.8670   45.0400 O   0  0  0  0  0  0  0  0  0  0  0  0
   40.1030   32.3680   45.6390 N   0  0  0  0  0  0  0  0  0  0  0  0
   41.0280   32.0330   45.3540 H   0  0  0  0  0  0  0  0  0  0  0  0
   41.0380   30.1950   44.1940 Cl  0  0  0  0  0  0  0  0  0  0  0  0
   40.2320   31.0550   42.8870 C   0  0  0  0  0  0  0  0  0  0  0  0
   39.3600   32.0670   43.2380 C   0  0  0  0  0  0  0  0  0  0  0  0
   38.6900   32.7850   42.2460 C   0  0  0  0  0  0  0  0  0  0  0  0
   37.9830   33.6010   42.4130 H   0  0  0  0  0  0  0  0  0  0  0  0
   38.9180   32.4650   40.9350 C   0  0  0  0  0  0  0  0  0  0  0  0
   38.4150   33.0020   40.1140 H   0  0  0  0  0  0  0  0  0  0  0  0
   39.7960   31.4480   40.6150 C   0  0  0  0  0  0  0  0  0  0  0  0
   39.9480   31.2260   39.5690 H   0  0  0  0  0  0  0  0  0  0  0  0
   40.4800   30.7110   41.5710 C   0  0  0  0  0  0  0  0  0  0  0  0
   41.5930   29.4220   41.1530 Cl  0  0  0  0  0  0  0  0  0  0  0  0
  1  2  1  0  0  0  0
  2  3  1  0  0  0  0
  3  4  2  0  0  0  0
  3 13  1  0  0  0  0
  4  8  1  0  0  0  0
  5  9  1  0  0  0  0
  5  4  1  0  0  0  0
  6  5  2  0  0  0  0
  7  6  1  0  0  0  0
  7  2  2  0  0  0  0
 10  6  1  0  0  0  0
 11 17  1  0  0  0  0
 12 18  1  0  0  0  0
 12 11  2  0  0  0  0
 13 12  1  0  0  0  0
 14 13  2  0  0  0  0
 14 15  1  0  0  0  0
 15 16  2  0  0  0  0
 16 11  1  0  0  0  0
 19 15  1  0  0  0  0
 20 21  2  0  0  0  0
 20 22  1  0  0  0  0
 22  7  1  0  0  0  0
 23 22  1  0  0  0  0
 25 26  1  0  0  0  0
 25 24  1  0  0  0  0
 26 20  1  0  0  0  0
 27 28  1  0  0  0  0
 27 26  2  0  0  0  0
 29 27  1  0  0  0  0
 30 29  1  0  0  0  0
 31 29  2  0  0  0  0
 31 33  1  0  0  0  0
 32 31  1  0  0  0  0
 33 25  2  0  0  0  0
 34 33  1  0  0  0  0
M  END
>  <minimizedAffinity>
-6.52415657

>  <minimizedRMSD>
0.655101418

$$$$
