
 OpenBabel03272508573D

 42 45  0  0  1  0  0  0  0  0999 V2000
   39.2000   31.4390   43.3440 C   0  0  0  0  0  0  0  0  0  0  0  0
   40.2510   30.5690   43.4360 C   0  0  0  0  0  0  0  0  0  0  0  0
   40.9170   30.2400   42.2680 C   0  0  0  0  0  0  0  0  0  0  0  0
   40.4850   30.8030   41.0920 C   0  0  0  0  0  0  0  0  0  0  0  0
   39.4240   31.6820   40.9940 C   0  0  0  0  0  0  0  0  0  0  0  0
   38.8230   31.9600   42.1570 N   0  0  0  0  0  0  0  0  0  0  0  0
   40.5790   30.1340   44.3720 H   0  0  0  0  0  0  0  0  0  0  0  0
   41.7500   29.5590   42.2940 H   0  0  0  0  0  0  0  0  0  0  0  0
   41.0410   30.5120   40.2080 H   0  0  0  0  0  0  0  0  0  0  0  0
   38.4730   31.8090   44.5730 C   0  0  0  0  0  0  0  0  0  0  0  0
   37.3650   32.3930   44.5210 O   0  0  0  0  0  0  0  0  0  0  0  0
   39.0760   31.4760   45.8500 N   0  0  0  0  0  0  0  0  0  0  0  0
   40.0570   31.1940   45.9520 H   0  0  0  0  0  0  0  0  0  0  0  0
   38.7440   31.1370   48.2850 C   0  0  2  0  0  0  0  0  0  0  0  0
   38.7300   32.6030   48.0480 C   0  0  0  0  0  0  0  0  0  0  0  0
   38.2360   31.5500   47.0180 C   0  0  1  0  0  0  0  0  0  0  0  0
   39.7720   30.7310   48.3950 H   0  0  0  0  0  0  0  0  0  0  0  0
   39.6490   33.1450   47.8310 H   0  0  0  0  0  0  0  0  0  0  0  0
   37.9470   33.1500   48.6170 H   0  0  0  0  0  0  0  0  0  0  0  0
   37.1280   31.5850   46.8560 H   0  0  0  0  0  0  0  0  0  0  0  0
   35.9040   29.2080   49.7240 C   0  0  0  0  0  0  0  0  0  0  0  0
   36.1250   29.3810   51.1270 C   0  0  0  0  0  0  0  0  0  0  0  0
   37.2530   30.1730   51.5510 C   0  0  0  0  0  0  0  0  0  0  0  0
   38.0740   30.7320   50.6050 N   0  0  0  0  0  0  0  0  0  0  0  0
   37.8030   30.5270   49.2990 C   0  0  0  0  0  0  0  0  0  0  0  0
   36.7340   29.7750   48.8260 N   0  0  0  0  0  0  0  0  0  0  0  0
   35.0500   28.6090   49.4460 H   0  0  0  0  0  0  0  0  0  0  0  0
   35.4960   28.9530   51.8800 H   0  0  0  0  0  0  0  0  0  0  0  0
   37.4170   30.3020   52.6090 H   0  0  0  0  0  0  0  0  0  0  0  0
   39.0180   32.2440   39.7110 C   0  0  0  0  0  0  0  0  0  0  0  0
   38.9860   33.5100   39.6030 O   0  0  0  0  0  0  0  0  0  0  0  0
   41.2790   31.9860   37.7690 Cl  0  0  0  0  0  0  0  0  0  0  0  0
   39.6620   31.3500   37.6000 C   0  0  0  0  0  0  0  0  0  0  0  0
   38.6430   31.4910   38.5260 C   0  0  0  0  0  0  0  0  0  0  0  0
   37.3880   30.9570   38.3160 C   0  0  0  0  0  0  0  0  0  0  0  0
   36.6620   31.1150   39.0840 H   0  0  0  0  0  0  0  0  0  0  0  0
   37.1910   30.2690   37.1380 C   0  0  0  0  0  0  0  0  0  0  0  0
   36.2020   29.8510   36.9800 H   0  0  0  0  0  0  0  0  0  0  0  0
   38.1700   30.0990   36.1860 C   0  0  0  0  0  0  0  0  0  0  0  0
   37.9760   29.5540   35.2750 H   0  0  0  0  0  0  0  0  0  0  0  0
   39.4230   30.6480   36.4210 C   0  0  0  0  0  0  0  0  0  0  0  0
   40.6360   30.4080   35.1850 Cl  0  0  0  0  0  0  0  0  0  0  0  0
  1  2  1  0  0  0  0
  1 10  1  0  0  0  0
  2  7  1  0  0  0  0
  3  8  1  0  0  0  0
  3  2  2  0  0  0  0
  4  3  1  0  0  0  0
  5  4  2  0  0  0  0
  5  6  1  0  0  0  0
  6  1  2  0  0  0  0
  9  4  1  0  0  0  0
 10 12  1  0  0  0  0
 11 10  2  0  0  0  0
 12 13  1  0  0  0  0
 12 16  1  0  0  0  0
 14 17  1  6  0  0  0
 14 25  1  0  0  0  0
 15 14  1  0  0  0  0
 15 19  1  0  0  0  0
 16 20  1  6  0  0  0
 16 15  1  0  0  0  0
 16 14  1  0  0  0  0
 18 15  1  0  0  0  0
 21 22  1  0  0  0  0
 22 23  2  0  0  0  0
 22 28  1  0  0  0  0
 23 29  1  0  0  0  0
 24 23  1  0  0  0  0
 25 24  2  0  0  0  0
 26 25  1  0  0  0  0
 26 21  2  0  0  0  0
 27 21  1  0  0  0  0
 30  5  1  0  0  0  0
 31 30  2  0  0  0  0
 33 32  1  0  0  0  0
 33 34  1  0  0  0  0
 34 30  1  0  0  0  0
 35 34  2  0  0  0  0
 35 36  1  0  0  0  0
 37 35  1  0  0  0  0
 38 37  1  0  0  0  0
 39 41  1  0  0  0  0
 39 37  2  0  0  0  0
 40 39  1  0  0  0  0
 41 33  2  0  0  0  0
 42 41  1  0  0  0  0
M  END
>  <minimizedAffinity>
-5.0386343

>  <minimizedRMSD>
1.18522692

$$$$
