
 OpenBabel03272508573D

 42 45  0  0  1  0  0  0  0  0999 V2000
   39.1020   31.5080   43.3780 C   0  0  0  0  0  0  0  0  0  0  0  0
   40.0850   30.5680   43.5140 C   0  0  0  0  0  0  0  0  0  0  0  0
   40.8080   30.2260   42.3850 C   0  0  0  0  0  0  0  0  0  0  0  0
   40.4960   30.8450   41.2000 C   0  0  0  0  0  0  0  0  0  0  0  0
   39.5030   31.7950   41.0570 C   0  0  0  0  0  0  0  0  0  0  0  0
   38.8420   32.0820   42.1850 N   0  0  0  0  0  0  0  0  0  0  0  0
   40.3190   30.0890   44.4580 H   0  0  0  0  0  0  0  0  0  0  0  0
   41.5920   29.4910   42.4470 H   0  0  0  0  0  0  0  0  0  0  0  0
   41.0910   30.5410   40.3470 H   0  0  0  0  0  0  0  0  0  0  0  0
   38.3160   31.8930   44.5660 C   0  0  0  0  0  0  0  0  0  0  0  0
   37.1450   32.3270   44.4560 O   0  0  0  0  0  0  0  0  0  0  0  0
   38.9380   31.7570   45.8700 N   0  0  0  0  0  0  0  0  0  0  0  0
   39.9440   31.6110   46.0000 H   0  0  0  0  0  0  0  0  0  0  0  0
   38.4500   31.1660   48.2290 C   0  0  2  0  0  0  0  0  0  0  0  0
   38.7140   32.6270   48.1970 C   0  0  0  0  0  0  0  0  0  0  0  0
   38.0790   31.8310   47.0230 C   0  0  1  0  0  0  0  0  0  0  0  0
   39.3810   30.5640   48.2980 H   0  0  0  0  0  0  0  0  0  0  0  0
   39.7240   33.0120   48.0710 H   0  0  0  0  0  0  0  0  0  0  0  0
   38.0220   33.2310   48.8230 H   0  0  0  0  0  0  0  0  0  0  0  0
   37.0030   32.0940   46.8500 H   0  0  0  0  0  0  0  0  0  0  0  0
   35.0840   30.2490   49.5260 C   0  0  0  0  0  0  0  0  0  0  0  0
   35.4210   29.5750   50.7410 C   0  0  0  0  0  0  0  0  0  0  0  0
   36.8140   29.4570   51.0960 C   0  0  0  0  0  0  0  0  0  0  0  0
   37.7660   29.9890   50.2650 N   0  0  0  0  0  0  0  0  0  0  0  0
   37.3720   30.6130   49.1340 C   0  0  0  0  0  0  0  0  0  0  0  0
   36.0490   30.7600   48.7360 N   0  0  0  0  0  0  0  0  0  0  0  0
   34.0310   30.3170   49.2950 H   0  0  0  0  0  0  0  0  0  0  0  0
   34.6940   29.1510   51.4030 H   0  0  0  0  0  0  0  0  0  0  0  0
   37.0660   28.9470   52.0130 H   0  0  0  0  0  0  0  0  0  0  0  0
   39.2230   32.4140   39.7670 C   0  0  0  0  0  0  0  0  0  0  0  0
   38.6470   33.5470   39.7670 O   0  0  0  0  0  0  0  0  0  0  0  0
   37.0790   30.5910   38.7520 Cl  0  0  0  0  0  0  0  0  0  0  0  0
   38.5750   31.0100   37.9570 C   0  0  0  0  0  0  0  0  0  0  0  0
   39.5440   31.8600   38.4620 C   0  0  0  0  0  0  0  0  0  0  0  0
   40.7010   32.1400   37.7670 C   0  0  0  0  0  0  0  0  0  0  0  0
   41.3940   32.8070   38.2340 H   0  0  0  0  0  0  0  0  0  0  0  0
   40.8560   31.5340   36.5390 C   0  0  0  0  0  0  0  0  0  0  0  0
   41.7700   31.7600   35.9980 H   0  0  0  0  0  0  0  0  0  0  0  0
   39.9250   30.6820   35.9900 C   0  0  0  0  0  0  0  0  0  0  0  0
   40.0830   30.2280   35.0250 H   0  0  0  0  0  0  0  0  0  0  0  0
   38.7680   30.4170   36.7100 C   0  0  0  0  0  0  0  0  0  0  0  0
   37.6130   29.3300   35.9770 Cl  0  0  0  0  0  0  0  0  0  0  0  0
  1  2  1  0  0  0  0
  1 10  1  0  0  0  0
  2  7  1  0  0  0  0
  3  8  1  0  0  0  0
  3  2  2  0  0  0  0
  4  3  1  0  0  0  0
  5  4  2  0  0  0  0
  5  6  1  0  0  0  0
  6  1  2  0  0  0  0
  9  4  1  0  0  0  0
 10 12  1  0  0  0  0
 11 10  2  0  0  0  0
 12 13  1  0  0  0  0
 12 16  1  0  0  0  0
 14 17  1  6  0  0  0
 14 25  1  0  0  0  0
 15 14  1  0  0  0  0
 15 19  1  0  0  0  0
 16 20  1  6  0  0  0
 16 15  1  0  0  0  0
 16 14  1  0  0  0  0
 18 15  1  0  0  0  0
 21 22  1  0  0  0  0
 22 23  2  0  0  0  0
 22 28  1  0  0  0  0
 23 29  1  0  0  0  0
 24 23  1  0  0  0  0
 25 24  2  0  0  0  0
 26 25  1  0  0  0  0
 26 21  2  0  0  0  0
 27 21  1  0  0  0  0
 30 31  2  0  0  0  0
 30  5  1  0  0  0  0
 33 34  1  0  0  0  0
 33 32  1  0  0  0  0
 34 30  1  0  0  0  0
 35 36  1  0  0  0  0
 35 34  2  0  0  0  0
 37 35  1  0  0  0  0
 38 37  1  0  0  0  0
 39 37  2  0  0  0  0
 39 41  1  0  0  0  0
 40 39  1  0  0  0  0
 41 33  2  0  0  0  0
 42 41  1  0  0  0  0
M  END
>  <minimizedAffinity>
-4.97074318

>  <minimizedRMSD>
0.938329637

$$$$
