
 OpenBabel03272508573D

 42 45  0  0  1  0  0  0  0  0999 V2000
   39.1840   31.4250   43.3480 C   0  0  0  0  0  0  0  0  0  0  0  0
   40.2350   30.5670   43.5160 C   0  0  0  0  0  0  0  0  0  0  0  0
   40.9430   30.1900   42.3880 C   0  0  0  0  0  0  0  0  0  0  0  0
   40.5510   30.6970   41.1740 C   0  0  0  0  0  0  0  0  0  0  0  0
   39.4890   31.5640   40.9990 C   0  0  0  0  0  0  0  0  0  0  0  0
   38.8460   31.8900   42.1270 N   0  0  0  0  0  0  0  0  0  0  0  0
   40.5320   30.1760   44.4820 H   0  0  0  0  0  0  0  0  0  0  0  0
   41.7780   29.5170   42.4740 H   0  0  0  0  0  0  0  0  0  0  0  0
   41.1380   30.3710   40.3230 H   0  0  0  0  0  0  0  0  0  0  0  0
   38.4120   31.8440   44.5330 C   0  0  0  0  0  0  0  0  0  0  0  0
   37.3170   32.4430   44.4150 O   0  0  0  0  0  0  0  0  0  0  0  0
   38.9560   31.5440   45.8440 N   0  0  0  0  0  0  0  0  0  0  0  0
   39.9270   31.2520   45.9970 H   0  0  0  0  0  0  0  0  0  0  0  0
   38.4270   31.0830   48.2240 C   0  0  2  0  0  0  0  0  0  0  0  0
   38.6620   32.5460   48.1100 C   0  0  0  0  0  0  0  0  0  0  0  0
   38.0690   31.6680   46.9730 C   0  0  1  0  0  0  0  0  0  0  0  0
   39.3670   30.5070   48.3480 H   0  0  0  0  0  0  0  0  0  0  0  0
   39.6670   32.9430   47.9830 H   0  0  0  0  0  0  0  0  0  0  0  0
   37.9430   33.1700   48.6840 H   0  0  0  0  0  0  0  0  0  0  0  0
   36.9930   31.8970   46.7610 H   0  0  0  0  0  0  0  0  0  0  0  0
   35.0460   30.2320   49.5280 C   0  0  0  0  0  0  0  0  0  0  0  0
   35.3720   29.5800   50.7590 C   0  0  0  0  0  0  0  0  0  0  0  0
   36.7620   29.4550   51.1210 C   0  0  0  0  0  0  0  0  0  0  0  0
   37.7220   29.9590   50.2820 N   0  0  0  0  0  0  0  0  0  0  0  0
   37.3400   30.5620   49.1360 C   0  0  0  0  0  0  0  0  0  0  0  0
   36.0190   30.7140   48.7300 N   0  0  0  0  0  0  0  0  0  0  0  0
   33.9950   30.3060   49.2910 H   0  0  0  0  0  0  0  0  0  0  0  0
   34.6370   29.1800   51.4270 H   0  0  0  0  0  0  0  0  0  0  0  0
   37.0050   28.9640   52.0500 H   0  0  0  0  0  0  0  0  0  0  0  0
   39.1260   32.0650   39.6790 C   0  0  0  0  0  0  0  0  0  0  0  0
   39.0640   33.3250   39.5200 O   0  0  0  0  0  0  0  0  0  0  0  0
   41.4820   31.7860   37.8550 Cl  0  0  0  0  0  0  0  0  0  0  0  0
   39.8900   31.1040   37.6370 C   0  0  0  0  0  0  0  0  0  0  0  0
   38.8250   31.2580   38.5080 C   0  0  0  0  0  0  0  0  0  0  0  0
   37.5950   30.6850   38.2620 C   0  0  0  0  0  0  0  0  0  0  0  0
   36.8290   30.8550   38.9890 H   0  0  0  0  0  0  0  0  0  0  0  0
   37.4680   29.9470   37.1050 C   0  0  0  0  0  0  0  0  0  0  0  0
   36.4980   29.4990   36.9180 H   0  0  0  0  0  0  0  0  0  0  0  0
   38.4940   29.7630   36.2070 C   0  0  0  0  0  0  0  0  0  0  0  0
   38.3560   29.1780   35.3110 H   0  0  0  0  0  0  0  0  0  0  0  0
   39.7220   30.3510   36.4780 C   0  0  0  0  0  0  0  0  0  0  0  0
   40.9970   30.0920   35.3100 Cl  0  0  0  0  0  0  0  0  0  0  0  0
  1  2  1  0  0  0  0
  1 10  1  0  0  0  0
  2  7  1  0  0  0  0
  3  8  1  0  0  0  0
  3  2  2  0  0  0  0
  4  3  1  0  0  0  0
  5  4  2  0  0  0  0
  5  6  1  0  0  0  0
  6  1  2  0  0  0  0
  9  4  1  0  0  0  0
 10 12  1  0  0  0  0
 11 10  2  0  0  0  0
 12 13  1  0  0  0  0
 12 16  1  0  0  0  0
 14 17  1  6  0  0  0
 14 25  1  0  0  0  0
 15 14  1  0  0  0  0
 15 19  1  0  0  0  0
 16 20  1  6  0  0  0
 16 15  1  0  0  0  0
 16 14  1  0  0  0  0
 18 15  1  0  0  0  0
 21 22  1  0  0  0  0
 22 23  2  0  0  0  0
 22 28  1  0  0  0  0
 23 29  1  0  0  0  0
 24 23  1  0  0  0  0
 25 24  2  0  0  0  0
 26 25  1  0  0  0  0
 26 21  2  0  0  0  0
 27 21  1  0  0  0  0
 30  5  1  0  0  0  0
 31 30  2  0  0  0  0
 33 32  1  0  0  0  0
 33 34  1  0  0  0  0
 34 30  1  0  0  0  0
 35 34  2  0  0  0  0
 35 36  1  0  0  0  0
 37 35  1  0  0  0  0
 38 37  1  0  0  0  0
 39 41  1  0  0  0  0
 39 37  2  0  0  0  0
 40 39  1  0  0  0  0
 41 33  2  0  0  0  0
 42 41  1  0  0  0  0
M  END
>  <minimizedAffinity>
-4.93537188

>  <minimizedRMSD>
0.750812471

$$$$
