
 OpenBabel03272509313D

 40 42  0  0  1  0  0  0  0  0999 V2000
   36.3240   30.6920   49.0030 C   0  0  2  0  0  0  0  0  0  0  0  0
   37.4200   31.3670   49.7750 C   0  0  0  0  0  0  0  0  0  0  0  0
   38.1620   30.4170   50.6920 C   0  0  0  0  0  0  0  0  0  0  0  0
   37.1980   29.7290   51.6580 C   0  0  0  0  0  0  0  0  0  0  0  0
   35.8500   29.4150   51.0480 C   0  0  0  0  0  0  0  0  0  0  0  0
   36.0260   29.3260   49.5240 C   0  0  1  0  0  0  0  0  0  0  0  0
   35.3440   31.2420   49.0490 H   0  0  0  0  0  0  0  0  0  0  0  0
   36.8680   32.0550   50.5020 H   0  0  0  0  0  0  0  0  0  0  0  0
   38.0820   32.0120   49.2350 H   0  0  0  0  0  0  0  0  0  0  0  0
   38.8670   30.9970   51.2800 H   0  0  0  0  0  0  0  0  0  0  0  0
   38.6570   29.6020   50.1310 H   0  0  0  0  0  0  0  0  0  0  0  0
   37.6780   28.7710   51.9760 H   0  0  0  0  0  0  0  0  0  0  0  0
   37.0930   30.3760   52.5360 H   0  0  0  0  0  0  0  0  0  0  0  0
   35.1560   30.2330   51.2280 H   0  0  0  0  0  0  0  0  0  0  0  0
   35.4110   28.4770   51.4290 H   0  0  0  0  0  0  0  0  0  0  0  0
   36.8760   28.6940   49.4590 H   0  0  0  0  0  0  0  0  0  0  0  0
   36.6640   30.5980   47.5610 C   0  0  0  0  0  0  0  0  0  0  0  0
   38.0360   30.7490   47.2480 C   0  0  0  0  0  0  0  0  0  0  0  0
   38.3760   30.6560   45.8920 C   0  0  0  0  0  0  0  0  0  0  0  0
   37.3800   30.4280   44.9680 N   0  0  0  0  0  0  0  0  0  0  0  0
   36.0700   30.2880   45.3280 C   0  0  0  0  0  0  0  0  0  0  0  0
   35.7390   30.3780   46.6290 N   0  0  0  0  0  0  0  0  0  0  0  0
   38.8970   30.9180   47.8630 H   0  0  0  0  0  0  0  0  0  0  0  0
   39.3640   30.7490   45.5020 H   0  0  0  0  0  0  0  0  0  0  0  0
   35.3390   30.1080   44.5520 H   0  0  0  0  0  0  0  0  0  0  0  0
   33.6430   28.5710   49.1640 C   0  0  0  0  0  0  0  0  0  0  0  0
   32.9480   29.2370   50.0360 O   0  0  0  0  0  0  0  0  0  0  0  0
   35.0090   28.6260   48.8280 N   0  0  0  0  0  0  0  0  0  0  0  0
   35.1570   28.0450   47.9460 H   0  0  0  0  0  0  0  0  0  0  0  0
   34.2640   26.6260   46.7870 Cl  0  0  0  0  0  0  0  0  0  0  0  0
   32.7170   26.7660   47.5370 C   0  0  0  0  0  0  0  0  0  0  0  0
   32.6340   27.6700   48.5540 C   0  0  0  0  0  0  0  0  0  0  0  0
   31.3490   27.7360   49.1220 C   0  0  0  0  0  0  0  0  0  0  0  0
   31.1710   28.4370   49.9550 H   0  0  0  0  0  0  0  0  0  0  0  0
   30.2420   27.0000   48.7500 C   0  0  0  0  0  0  0  0  0  0  0  0
   29.2970   27.1280   49.2580 H   0  0  0  0  0  0  0  0  0  0  0  0
   30.4310   26.1220   47.7190 C   0  0  0  0  0  0  0  0  0  0  0  0
   29.5910   25.5210   47.3880 H   0  0  0  0  0  0  0  0  0  0  0  0
   31.6600   26.0080   47.1210 C   0  0  0  0  0  0  0  0  0  0  0  0
   31.9490   24.8910   45.7960 Cl  0  0  0  0  0  0  0  0  0  0  0  0
  1  7  1  1  0  0  0
  1  6  1  0  0  0  0
  1  2  1  0  0  0  0
  2  8  1  0  0  0  0
  2  3  1  0  0  0  0
  3 10  1  0  0  0  0
  3  4  1  0  0  0  0
  4 12  1  0  0  0  0
  4 13  1  0  0  0  0
  5 14  1  0  0  0  0
  5 15  1  0  0  0  0
  5  4  1  0  0  0  0
  6 16  1  6  0  0  0
  6  5  1  0  0  0  0
  9  2  1  0  0  0  0
 11  3  1  0  0  0  0
 17  1  1  0  0  0  0
 18 17  1  0  0  0  0
 18 23  1  0  0  0  0
 19 18  2  0  0  0  0
 20 21  2  0  0  0  0
 20 19  1  0  0  0  0
 21 22  1  0  0  0  0
 22 17  2  0  0  0  0
 24 19  1  0  0  0  0
 25 21  1  0  0  0  0
 26 27  2  0  0  0  0
 28 26  1  0  0  0  0
 28  6  1  0  0  0  0
 29 28  1  0  0  0  0
 30 31  1  0  0  0  0
 31 32  1  0  0  0  0
 32 33  2  0  0  0  0
 32 26  1  0  0  0  0
 33 34  1  0  0  0  0
 35 33  1  0  0  0  0
 35 36  1  0  0  0  0
 37 35  2  0  0  0  0
 38 37  1  0  0  0  0
 39 31  2  0  0  0  0
 39 37  1  0  0  0  0
 40 39  1  0  0  0  0
M  END
>  <minimizedAffinity>
-5.86409569

>  <minimizedRMSD>
0.920416355

$$$$
