
 OpenBabel03272509313D

 40 42  0  0  1  0  0  0  0  0999 V2000
   36.1120   30.6390   48.8000 C   0  0  2  0  0  0  0  0  0  0  0  0
   36.9800   31.4820   49.6880 C   0  0  0  0  0  0  0  0  0  0  0  0
   37.7790   30.6590   50.6770 C   0  0  0  0  0  0  0  0  0  0  0  0
   36.8570   29.7880   51.5300 C   0  0  0  0  0  0  0  0  0  0  0  0
   35.6610   29.2520   50.7770 C   0  0  0  0  0  0  0  0  0  0  0  0
   36.0110   29.2300   49.2800 C   0  0  1  0  0  0  0  0  0  0  0  0
   35.0500   31.0040   48.7400 H   0  0  0  0  0  0  0  0  0  0  0  0
   36.2390   32.0430   50.3530 H   0  0  0  0  0  0  0  0  0  0  0  0
   37.5680   32.2460   49.2260 H   0  0  0  0  0  0  0  0  0  0  0  0
   38.3010   31.3430   51.3410 H   0  0  0  0  0  0  0  0  0  0  0  0
   38.4690   29.9590   50.1710 H   0  0  0  0  0  0  0  0  0  0  0  0
   37.4660   28.9240   51.8960 H   0  0  0  0  0  0  0  0  0  0  0  0
   36.5450   30.3850   52.3940 H   0  0  0  0  0  0  0  0  0  0  0  0
   34.8160   29.9280   50.8820 H   0  0  0  0  0  0  0  0  0  0  0  0
   35.3600   28.2410   51.1040 H   0  0  0  0  0  0  0  0  0  0  0  0
   36.9630   28.7620   49.3060 H   0  0  0  0  0  0  0  0  0  0  0  0
   36.6150   30.6400   47.4020 C   0  0  0  0  0  0  0  0  0  0  0  0
   37.9870   30.9560   47.2500 C   0  0  0  0  0  0  0  0  0  0  0  0
   38.4800   30.9540   45.9390 C   0  0  0  0  0  0  0  0  0  0  0  0
   37.6230   30.6530   44.9030 N   0  0  0  0  0  0  0  0  0  0  0  0
   36.3060   30.3550   45.1090 C   0  0  0  0  0  0  0  0  0  0  0  0
   35.8280   30.3550   46.3670 N   0  0  0  0  0  0  0  0  0  0  0  0
   38.7500   31.1950   47.9620 H   0  0  0  0  0  0  0  0  0  0  0  0
   39.4870   31.1730   45.6640 H   0  0  0  0  0  0  0  0  0  0  0  0
   35.6900   30.1250   44.2520 H   0  0  0  0  0  0  0  0  0  0  0  0
   33.8770   28.0110   48.7030 C   0  0  0  0  0  0  0  0  0  0  0  0
   32.9990   28.4570   49.5500 O   0  0  0  0  0  0  0  0  0  0  0  0
   35.2180   28.3760   48.4760 N   0  0  0  0  0  0  0  0  0  0  0  0
   35.5450   27.8970   47.5810 H   0  0  0  0  0  0  0  0  0  0  0  0
   30.8160   28.1850   48.0580 Cl  0  0  0  0  0  0  0  0  0  0  0  0
   31.8230   26.8600   47.6020 C   0  0  0  0  0  0  0  0  0  0  0  0
   33.1290   26.9560   47.9740 C   0  0  0  0  0  0  0  0  0  0  0  0
   33.8950   25.8470   47.5710 C   0  0  0  0  0  0  0  0  0  0  0  0
   34.9700   25.8230   47.8210 H   0  0  0  0  0  0  0  0  0  0  0  0
   33.4480   24.7430   46.8750 C   0  0  0  0  0  0  0  0  0  0  0  0
   34.1240   23.9420   46.6130 H   0  0  0  0  0  0  0  0  0  0  0  0
   32.1180   24.7440   46.5490 C   0  0  0  0  0  0  0  0  0  0  0  0
   31.7170   23.8980   46.0030 H   0  0  0  0  0  0  0  0  0  0  0  0
   31.3170   25.7950   46.9120 C   0  0  0  0  0  0  0  0  0  0  0  0
   29.6050   25.8380   46.5120 Cl  0  0  0  0  0  0  0  0  0  0  0  0
  1  7  1  6  0  0  0
  1  6  1  0  0  0  0
  1  2  1  0  0  0  0
  2  8  1  0  0  0  0
  2  3  1  0  0  0  0
  3 10  1  0  0  0  0
  3  4  1  0  0  0  0
  4 12  1  0  0  0  0
  4 13  1  0  0  0  0
  5 14  1  0  0  0  0
  5 15  1  0  0  0  0
  5  4  1  0  0  0  0
  6 16  1  6  0  0  0
  6  5  1  0  0  0  0
  9  2  1  0  0  0  0
 11  3  1  0  0  0  0
 17  1  1  0  0  0  0
 18 17  1  0  0  0  0
 18 23  1  0  0  0  0
 19 18  2  0  0  0  0
 20 21  2  0  0  0  0
 20 19  1  0  0  0  0
 21 22  1  0  0  0  0
 22 17  2  0  0  0  0
 24 19  1  0  0  0  0
 25 21  1  0  0  0  0
 26 27  2  0  0  0  0
 28 26  1  0  0  0  0
 28  6  1  0  0  0  0
 29 28  1  0  0  0  0
 31 32  1  0  0  0  0
 31 30  1  0  0  0  0
 32 26  1  0  0  0  0
 33 34  1  0  0  0  0
 33 32  2  0  0  0  0
 35 33  1  0  0  0  0
 36 35  1  0  0  0  0
 37 35  2  0  0  0  0
 37 39  1  0  0  0  0
 38 37  1  0  0  0  0
 39 31  2  0  0  0  0
 40 39  1  0  0  0  0
M  END
>  <minimizedAffinity>
-6.12699795

>  <minimizedRMSD>
0.834260821

$$$$
