
 OpenBabel03272509313D

 40 42  0  0  1  0  0  0  0  0999 V2000
   36.5620   30.8940   48.8630 C   0  0  2  0  0  0  0  0  0  0  0  0
   37.4440   31.5530   49.8830 C   0  0  0  0  0  0  0  0  0  0  0  0
   38.0330   30.5670   50.8710 C   0  0  0  0  0  0  0  0  0  0  0  0
   36.9300   29.7760   51.5740 C   0  0  0  0  0  0  0  0  0  0  0  0
   35.7510   29.4570   50.6830 C   0  0  0  0  0  0  0  0  0  0  0  0
   36.2350   29.4840   49.2250 C   0  0  1  0  0  0  0  0  0  0  0  0
   35.5660   31.4020   48.7420 H   0  0  0  0  0  0  0  0  0  0  0  0
   36.7220   32.1650   50.5240 H   0  0  0  0  0  0  0  0  0  0  0  0
   38.1670   32.2580   49.5320 H   0  0  0  0  0  0  0  0  0  0  0  0
   38.5750   31.1290   51.6260 H   0  0  0  0  0  0  0  0  0  0  0  0
   38.6720   29.8140   50.3730 H   0  0  0  0  0  0  0  0  0  0  0  0
   37.3850   28.8160   51.9230 H   0  0  0  0  0  0  0  0  0  0  0  0
   36.6180   30.3530   52.4520 H   0  0  0  0  0  0  0  0  0  0  0  0
   34.9940   30.2330   50.7680 H   0  0  0  0  0  0  0  0  0  0  0  0
   35.2920   28.4770   50.9060 H   0  0  0  0  0  0  0  0  0  0  0  0
   37.1110   28.8900   49.2950 H   0  0  0  0  0  0  0  0  0  0  0  0
   37.1900   30.9160   47.5170 C   0  0  0  0  0  0  0  0  0  0  0  0
   38.5790   31.1870   47.4990 C   0  0  0  0  0  0  0  0  0  0  0  0
   39.1900   31.2050   46.2380 C   0  0  0  0  0  0  0  0  0  0  0  0
   38.4200   30.9640   45.1210 N   0  0  0  0  0  0  0  0  0  0  0  0
   37.0820   30.7070   45.1980 C   0  0  0  0  0  0  0  0  0  0  0  0
   36.4910   30.6900   46.4070 N   0  0  0  0  0  0  0  0  0  0  0  0
   39.2820   31.3780   48.2840 H   0  0  0  0  0  0  0  0  0  0  0  0
   40.2240   31.3940   46.0630 H   0  0  0  0  0  0  0  0  0  0  0  0
   36.5380   30.5240   44.2820 H   0  0  0  0  0  0  0  0  0  0  0  0
   34.1010   28.3420   48.5030 C   0  0  0  0  0  0  0  0  0  0  0  0
   33.2650   28.5570   49.4730 O   0  0  0  0  0  0  0  0  0  0  0  0
   35.4170   28.7990   48.2930 N   0  0  0  0  0  0  0  0  0  0  0  0
   35.7010   28.5420   47.2980 H   0  0  0  0  0  0  0  0  0  0  0  0
   32.0050   29.3660   46.4120 Cl  0  0  0  0  0  0  0  0  0  0  0  0
   32.4080   27.7030   46.6370 C   0  0  0  0  0  0  0  0  0  0  0  0
   33.3380   27.4460   47.5990 C   0  0  0  0  0  0  0  0  0  0  0  0
   33.6220   26.0740   47.7320 C   0  0  0  0  0  0  0  0  0  0  0  0
   34.3650   25.7560   48.4830 H   0  0  0  0  0  0  0  0  0  0  0  0
   33.0640   25.0410   47.0080 C   0  0  0  0  0  0  0  0  0  0  0  0
   33.3550   24.0180   47.1910 H   0  0  0  0  0  0  0  0  0  0  0  0
   32.1390   25.4060   46.0670 C   0  0  0  0  0  0  0  0  0  0  0  0
   31.6690   24.6300   45.4730 H   0  0  0  0  0  0  0  0  0  0  0  0
   31.8170   26.7260   45.8870 C   0  0  0  0  0  0  0  0  0  0  0  0
   30.6380   27.2390   44.6890 Cl  0  0  0  0  0  0  0  0  0  0  0  0
  1  7  1  6  0  0  0
  1  6  1  0  0  0  0
  1  2  1  0  0  0  0
  2  8  1  0  0  0  0
  2  3  1  0  0  0  0
  3  4  1  0  0  0  0
  3 10  1  0  0  0  0
  4 12  1  0  0  0  0
  4 13  1  0  0  0  0
  5 14  1  0  0  0  0
  5 15  1  0  0  0  0
  5  4  1  0  0  0  0
  6 16  1  6  0  0  0
  6  5  1  0  0  0  0
  9  2  1  0  0  0  0
 11  3  1  0  0  0  0
 17  1  1  0  0  0  0
 18 17  1  0  0  0  0
 18 23  1  0  0  0  0
 19 18  2  0  0  0  0
 20 21  2  0  0  0  0
 20 19  1  0  0  0  0
 21 22  1  0  0  0  0
 22 17  2  0  0  0  0
 24 19  1  0  0  0  0
 25 21  1  0  0  0  0
 26 27  2  0  0  0  0
 28 26  1  0  0  0  0
 28  6  1  0  0  0  0
 29 28  1  0  0  0  0
 30 31  1  0  0  0  0
 31 32  1  0  0  0  0
 32 33  2  0  0  0  0
 32 26  1  0  0  0  0
 33 34  1  0  0  0  0
 35 36  1  0  0  0  0
 35 33  1  0  0  0  0
 37 35  2  0  0  0  0
 38 37  1  0  0  0  0
 39 37  1  0  0  0  0
 39 31  2  0  0  0  0
 40 39  1  0  0  0  0
M  END
>  <minimizedAffinity>
-6.03526688

>  <minimizedRMSD>
1.4082824

$$$$
