
 OpenBabel03272503053D

 34 36  0  0  0  0  0  0  0  0999 V2000
   38.5280   30.7100   47.1330 F   0  0  0  0  0  0  0  0  0  0  0  0
   38.8450   31.9040   47.6820 C   0  0  0  0  0  0  0  0  0  0  0  0
   38.3810   32.2210   48.9270 C   0  0  0  0  0  0  0  0  0  0  0  0
   38.7320   33.4430   49.4360 C   0  0  0  0  0  0  0  0  0  0  0  0
   39.5220   34.3420   48.7440 C   0  0  0  0  0  0  0  0  0  0  0  0
   39.9740   33.9960   47.4940 C   0  0  0  0  0  0  0  0  0  0  0  0
   39.6350   32.7630   46.9500 C   0  0  0  0  0  0  0  0  0  0  0  0
   38.3760   33.7120   50.4150 H   0  0  0  0  0  0  0  0  0  0  0  0
   39.7620   35.2930   49.2030 H   0  0  0  0  0  0  0  0  0  0  0  0
   40.6010   34.6890   46.9250 H   0  0  0  0  0  0  0  0  0  0  0  0
   37.1960   29.5580   51.3520 C   0  0  0  0  0  0  0  0  0  0  0  0
   38.0020   30.4950   50.6980 C   0  0  0  0  0  0  0  0  0  0  0  0
   37.5480   31.2370   49.6220 C   0  0  0  0  0  0  0  0  0  0  0  0
   36.2680   31.0060   49.2370 N   0  0  0  0  0  0  0  0  0  0  0  0
   35.4910   30.1050   49.8690 C   0  0  0  0  0  0  0  0  0  0  0  0
   35.9410   29.3980   50.8990 N   0  0  0  0  0  0  0  0  0  0  0  0
   37.6840   29.0390   52.1900 H   0  0  0  0  0  0  0  0  0  0  0  0
   39.0330   30.6920   50.9940 H   0  0  0  0  0  0  0  0  0  0  0  0
   34.4700   29.9230   49.5580 H   0  0  0  0  0  0  0  0  0  0  0  0
   39.0630   32.4360   44.6360 C   0  0  0  0  0  0  0  0  0  0  0  0
   37.9360   32.8450   45.0560 O   0  0  0  0  0  0  0  0  0  0  0  0
   40.0840   32.3600   45.6520 N   0  0  0  0  0  0  0  0  0  0  0  0
   41.0120   32.0330   45.3650 H   0  0  0  0  0  0  0  0  0  0  0  0
   41.0320   30.1980   44.1950 Cl  0  0  0  0  0  0  0  0  0  0  0  0
   40.2210   31.0610   42.8940 C   0  0  0  0  0  0  0  0  0  0  0  0
   39.3440   32.0650   43.2500 C   0  0  0  0  0  0  0  0  0  0  0  0
   38.6710   32.7860   42.2610 C   0  0  0  0  0  0  0  0  0  0  0  0
   37.9590   33.5960   42.4330 H   0  0  0  0  0  0  0  0  0  0  0  0
   38.9000   32.4740   40.9490 C   0  0  0  0  0  0  0  0  0  0  0  0
   38.3950   33.0140   40.1310 H   0  0  0  0  0  0  0  0  0  0  0  0
   39.7840   31.4640   40.6220 C   0  0  0  0  0  0  0  0  0  0  0  0
   39.9390   31.2490   39.5760 H   0  0  0  0  0  0  0  0  0  0  0  0
   40.4720   30.7260   41.5760 C   0  0  0  0  0  0  0  0  0  0  0  0
   41.5930   29.4450   41.1500 Cl  0  0  0  0  0  0  0  0  0  0  0  0
  1  2  1  0  0  0  0
  2  3  1  0  0  0  0
  3  4  2  0  0  0  0
  3 13  1  0  0  0  0
  4  8  1  0  0  0  0
  5  9  1  0  0  0  0
  5  4  1  0  0  0  0
  6  5  2  0  0  0  0
  7  6  1  0  0  0  0
  7  2  2  0  0  0  0
 10  6  1  0  0  0  0
 11 17  1  0  0  0  0
 12 18  1  0  0  0  0
 12 11  2  0  0  0  0
 13 12  1  0  0  0  0
 14 13  2  0  0  0  0
 14 15  1  0  0  0  0
 15 16  2  0  0  0  0
 16 11  1  0  0  0  0
 19 15  1  0  0  0  0
 20 21  2  0  0  0  0
 20 22  1  0  0  0  0
 22  7  1  0  0  0  0
 23 22  1  0  0  0  0
 25 26  1  0  0  0  0
 25 24  1  0  0  0  0
 26 20  1  0  0  0  0
 27 28  1  0  0  0  0
 27 26  2  0  0  0  0
 29 27  1  0  0  0  0
 30 29  1  0  0  0  0
 31 29  2  0  0  0  0
 31 33  1  0  0  0  0
 32 31  1  0  0  0  0
 33 25  2  0  0  0  0
 34 33  1  0  0  0  0
M  END
>  <minimizedAffinity>
-6.53295898

>  <minimizedRMSD>
0.825671911

$$$$
