
 OpenBabel03262522243D

 34 36  0  0  0  0  0  0  0  0999 V2000
   37.0280   25.9350   32.9940 C   0  0  0  0  0  0  0  0  0  0  0  0
   37.6640   25.8650   34.2500 C   0  0  0  0  0  0  0  0  0  0  0  0
   37.6240   26.9870   35.0650 C   0  0  0  0  0  0  0  0  0  0  0  0
   36.9740   28.0850   34.6010 N   0  0  0  0  0  0  0  0  0  0  0  0
   36.3920   28.1070   33.4190 C   0  0  0  0  0  0  0  0  0  0  0  0
   36.3910   27.0320   32.5550 N   0  0  0  0  0  0  0  0  0  0  0  0
   37.0070   25.1170   32.2960 H   0  0  0  0  0  0  0  0  0  0  0  0
   38.1080   26.9210   36.0090 H   0  0  0  0  0  0  0  0  0  0  0  0
   38.2640   24.6730   34.5360 O   0  0  0  0  0  0  0  0  0  0  0  0
   38.3650   24.3000   35.8810 C   0  0  0  0  0  0  0  0  0  0  0  0
   37.5700   24.6850   36.9120 C   0  0  0  0  0  0  0  0  0  0  0  0
   37.8120   24.2260   38.1670 C   0  0  0  0  0  0  0  0  0  0  0  0
   38.8700   23.3690   38.3710 C   0  0  0  0  0  0  0  0  0  0  0  0
   39.6740   22.9830   37.3160 C   0  0  0  0  0  0  0  0  0  0  0  0
   39.3910   23.4720   36.0730 N   0  0  0  0  0  0  0  0  0  0  0  0
   36.7670   25.3630   36.6260 H   0  0  0  0  0  0  0  0  0  0  0  0
   37.1710   24.5420   38.9670 H   0  0  0  0  0  0  0  0  0  0  0  0
   39.0740   22.9960   39.3680 H   0  0  0  0  0  0  0  0  0  0  0  0
   40.8380   22.0450   37.5350 C   0  0  0  0  0  0  0  0  0  0  0  0
   41.7430   22.5980   37.2250 H   0  0  0  0  0  0  0  0  0  0  0  0
   40.9070   21.8550   38.6030 H   0  0  0  0  0  0  0  0  0  0  0  0
   40.6840   21.0990   36.9830 H   0  0  0  0  0  0  0  0  0  0  0  0
   35.5970   29.7040   33.0820 S   0  0  0  0  0  0  0  0  0  0  0  0
   32.6450   29.2450   34.2520 Cl  0  0  0  0  0  0  0  0  0  0  0  0
   33.7490   30.2880   35.0900 C   0  0  0  0  0  0  0  0  0  0  0  0
   35.0090   30.4660   34.5660 C   0  0  0  0  0  0  0  0  0  0  0  0
   35.9110   31.2890   35.2060 C   0  0  0  0  0  0  0  0  0  0  0  0
   36.9150   31.4830   34.8640 H   0  0  0  0  0  0  0  0  0  0  0  0
   35.4890   31.9140   36.3850 C   0  0  0  0  0  0  0  0  0  0  0  0
   36.0990   32.5730   36.9690 H   0  0  0  0  0  0  0  0  0  0  0  0
   34.2320   31.7290   36.8980 C   0  0  0  0  0  0  0  0  0  0  0  0
   33.8800   32.2000   37.8070 H   0  0  0  0  0  0  0  0  0  0  0  0
   33.3210   30.9080   36.2650 C   0  0  0  0  0  0  0  0  0  0  0  0
   31.7040   30.6230   36.8570 Cl  0  0  0  0  0  0  0  0  0  0  0  0
  1  2  1  0  0  0  0
  2  9  1  0  0  0  0
  2  3  2  0  0  0  0
  3  8  1  0  0  0  0
  4  3  1  0  0  0  0
  5  4  2  0  0  0  0
  6  1  2  0  0  0  0
  6  5  1  0  0  0  0
  7  1  1  0  0  0  0
  9 10  1  0  0  0  0
 10 15  2  0  0  0  0
 10 11  1  0  0  0  0
 11 12  2  0  0  0  0
 12 13  1  0  0  0  0
 12 17  1  0  0  0  0
 13 18  1  0  0  0  0
 14 19  1  0  0  0  0
 14 13  2  0  0  0  0
 15 14  1  0  0  0  0
 16 11  1  0  0  0  0
 19 21  1  0  0  0  0
 20 19  1  0  0  0  0
 22 19  1  0  0  0  0
 23  5  1  0  0  0  0
 23 26  1  0  0  0  0
 24 25  1  0  0  0  0
 25 33  1  0  0  0  0
 26 25  2  0  0  0  0
 26 27  1  0  0  0  0
 27 29  2  0  0  0  0
 28 27  1  0  0  0  0
 29 31  1  0  0  0  0
 29 30  1  0  0  0  0
 31 32  1  0  0  0  0
 33 34  1  0  0  0  0
 33 31  2  0  0  0  0
M  END
>  <minimizedAffinity>
-6.23586845

$$$$

 OpenBabel03262522243D

 34 36  0  0  0  0  0  0  0  0999 V2000
   37.0600   25.6940   32.8910 C   0  0  0  0  0  0  0  0  0  0  0  0
   37.6910   25.6240   34.1500 C   0  0  0  0  0  0  0  0  0  0  0  0
   37.6960   26.7630   34.9410 C   0  0  0  0  0  0  0  0  0  0  0  0
   37.0930   27.8780   34.4520 N   0  0  0  0  0  0  0  0  0  0  0  0
   36.5150   27.8980   33.2690 C   0  0  0  0  0  0  0  0  0  0  0  0
   36.4700   26.8070   32.4280 N   0  0  0  0  0  0  0  0  0  0  0  0
   37.0060   24.8630   32.2110 H   0  0  0  0  0  0  0  0  0  0  0  0
   38.1750   26.6970   35.8880 H   0  0  0  0  0  0  0  0  0  0  0  0
   38.2400   24.4140   34.4620 O   0  0  0  0  0  0  0  0  0  0  0  0
   38.3810   24.0920   35.8170 C   0  0  0  0  0  0  0  0  0  0  0  0
   37.5970   24.4910   36.8520 C   0  0  0  0  0  0  0  0  0  0  0  0
   37.8790   24.0840   38.1170 C   0  0  0  0  0  0  0  0  0  0  0  0
   38.9650   23.2650   38.3260 C   0  0  0  0  0  0  0  0  0  0  0  0
   39.7570   22.8640   37.2670 C   0  0  0  0  0  0  0  0  0  0  0  0
   39.4330   23.3010   36.0150 N   0  0  0  0  0  0  0  0  0  0  0  0
   36.7690   25.1360   36.5610 H   0  0  0  0  0  0  0  0  0  0  0  0
   37.2470   24.4100   38.9180 H   0  0  0  0  0  0  0  0  0  0  0  0
   39.2010   22.9320   39.3310 H   0  0  0  0  0  0  0  0  0  0  0  0
   40.9510   21.9670   37.4920 C   0  0  0  0  0  0  0  0  0  0  0  0
   41.8340   22.5330   37.1430 H   0  0  0  0  0  0  0  0  0  0  0  0
   41.0490   21.8170   38.5650 H   0  0  0  0  0  0  0  0  0  0  0  0
   40.8130   20.9980   36.9780 H   0  0  0  0  0  0  0  0  0  0  0  0
   35.7870   29.5200   32.8970 S   0  0  0  0  0  0  0  0  0  0  0  0
   35.9210   31.1440   35.6600 Cl  0  0  0  0  0  0  0  0  0  0  0  0
   34.3970   30.5390   35.0920 C   0  0  0  0  0  0  0  0  0  0  0  0
   34.3700   29.8460   33.9030 C   0  0  0  0  0  0  0  0  0  0  0  0
   33.1760   29.3520   33.4230 C   0  0  0  0  0  0  0  0  0  0  0  0
   33.0660   28.8000   32.5040 H   0  0  0  0  0  0  0  0  0  0  0  0
   32.0270   29.5860   34.1870 C   0  0  0  0  0  0  0  0  0  0  0  0
   31.0450   29.2520   33.9170 H   0  0  0  0  0  0  0  0  0  0  0  0
   32.0670   30.2780   35.3700 C   0  0  0  0  0  0  0  0  0  0  0  0
   31.1940   30.4730   35.9800 H   0  0  0  0  0  0  0  0  0  0  0  0
   33.2570   30.7770   35.8600 C   0  0  0  0  0  0  0  0  0  0  0  0
   33.3870   31.6660   37.3550 Cl  0  0  0  0  0  0  0  0  0  0  0  0
  1  2  1  0  0  0  0
  2  9  1  0  0  0  0
  2  3  2  0  0  0  0
  3  8  1  0  0  0  0
  4  3  1  0  0  0  0
  5  4  2  0  0  0  0
  6  1  2  0  0  0  0
  6  5  1  0  0  0  0
  7  1  1  0  0  0  0
  9 10  1  0  0  0  0
 10 15  2  0  0  0  0
 10 11  1  0  0  0  0
 11 12  2  0  0  0  0
 12 13  1  0  0  0  0
 12 17  1  0  0  0  0
 13 18  1  0  0  0  0
 14 19  1  0  0  0  0
 14 13  2  0  0  0  0
 15 14  1  0  0  0  0
 16 11  1  0  0  0  0
 19 21  1  0  0  0  0
 20 19  1  0  0  0  0
 22 19  1  0  0  0  0
 23  5  1  0  0  0  0
 23 26  1  0  0  0  0
 25 24  1  0  0  0  0
 25 33  1  0  0  0  0
 26 25  2  0  0  0  0
 27 26  1  0  0  0  0
 27 29  2  0  0  0  0
 28 27  1  0  0  0  0
 29 31  1  0  0  0  0
 30 29  1  0  0  0  0
 31 33  2  0  0  0  0
 31 32  1  0  0  0  0
 33 34  1  0  0  0  0
M  END
>  <minimizedAffinity>
-6.1090703

$$$$

 OpenBabel03262522243D

 34 36  0  0  0  0  0  0  0  0999 V2000
   36.9860   28.0330   34.7350 C   0  0  0  0  0  0  0  0  0  0  0  0
   36.3700   28.3560   33.5100 C   0  0  0  0  0  0  0  0  0  0  0  0
   36.3280   27.3820   32.5240 C   0  0  0  0  0  0  0  0  0  0  0  0
   36.8840   26.1740   32.8010 N   0  0  0  0  0  0  0  0  0  0  0  0
   37.4500   25.9150   33.9630 C   0  0  0  0  0  0  0  0  0  0  0  0
   37.5300   26.8320   34.9880 N   0  0  0  0  0  0  0  0  0  0  0  0
   37.0660   28.7230   35.5570 H   0  0  0  0  0  0  0  0  0  0  0  0
   35.8610   27.6380   31.6040 H   0  0  0  0  0  0  0  0  0  0  0  0
   35.8700   29.6230   33.4230 O   0  0  0  0  0  0  0  0  0  0  0  0
   34.8340   29.9760   34.2960 C   0  0  0  0  0  0  0  0  0  0  0  0
   33.5810   29.4560   34.3510 C   0  0  0  0  0  0  0  0  0  0  0  0
   32.6900   29.9180   35.2670 C   0  0  0  0  0  0  0  0  0  0  0  0
   33.0820   30.9150   36.1310 C   0  0  0  0  0  0  0  0  0  0  0  0
   34.3590   31.4390   36.0670 C   0  0  0  0  0  0  0  0  0  0  0  0
   35.2160   30.9420   35.1290 N   0  0  0  0  0  0  0  0  0  0  0  0
   33.3900   28.6730   33.6170 H   0  0  0  0  0  0  0  0  0  0  0  0
   31.7070   29.4930   35.2930 H   0  0  0  0  0  0  0  0  0  0  0  0
   32.3800   31.2930   36.8670 H   0  0  0  0  0  0  0  0  0  0  0  0
   34.7920   32.5350   37.0130 C   0  0  0  0  0  0  0  0  0  0  0  0
   35.0650   33.3990   36.3800 H   0  0  0  0  0  0  0  0  0  0  0  0
   33.9250   32.8130   37.6080 H   0  0  0  0  0  0  0  0  0  0  0  0
   35.6120   32.1840   37.6650 H   0  0  0  0  0  0  0  0  0  0  0  0
   38.0910   24.2180   34.0410 S   0  0  0  0  0  0  0  0  0  0  0  0
   40.6190   22.3660   34.7260 Cl  0  0  0  0  0  0  0  0  0  0  0  0
   39.6280   22.9770   36.0130 C   0  0  0  0  0  0  0  0  0  0  0  0
   38.5510   23.7690   35.6900 C   0  0  0  0  0  0  0  0  0  0  0  0
   37.7420   24.2720   36.6870 C   0  0  0  0  0  0  0  0  0  0  0  0
   36.8810   24.8980   36.5210 H   0  0  0  0  0  0  0  0  0  0  0  0
   38.0680   23.9420   38.0080 C   0  0  0  0  0  0  0  0  0  0  0  0
   37.5160   24.2720   38.8650 H   0  0  0  0  0  0  0  0  0  0  0  0
   39.1440   23.1520   38.3180 C   0  0  0  0  0  0  0  0  0  0  0  0
   39.4180   22.8820   39.3290 H   0  0  0  0  0  0  0  0  0  0  0  0
   39.9600   22.6440   37.3270 C   0  0  0  0  0  0  0  0  0  0  0  0
   41.3470   21.6330   37.6430 Cl  0  0  0  0  0  0  0  0  0  0  0  0
  1  6  1  0  0  0  0
  1  7  1  0  0  0  0
  2  1  2  0  0  0  0
  3  4  2  0  0  0  0
  3  2  1  0  0  0  0
  4  5  1  0  0  0  0
  5 23  1  0  0  0  0
  5  6  2  0  0  0  0
  8  3  1  0  0  0  0
  9  2  1  0  0  0  0
  9 10  1  0  0  0  0
 10 11  2  0  0  0  0
 10 15  1  0  0  0  0
 11 12  1  0  0  0  0
 12 17  1  0  0  0  0
 12 13  2  0  0  0  0
 13 18  1  0  0  0  0
 14 13  1  0  0  0  0
 14 19  1  0  0  0  0
 15 14  2  0  0  0  0
 16 11  1  0  0  0  0
 19 21  1  0  0  0  0
 19 22  1  0  0  0  0
 20 19  1  0  0  0  0
 23 26  1  0  0  0  0
 24 25  1  0  0  0  0
 25 33  1  0  0  0  0
 26 25  2  0  0  0  0
 26 27  1  0  0  0  0
 27 29  2  0  0  0  0
 28 27  1  0  0  0  0
 29 31  1  0  0  0  0
 29 30  1  0  0  0  0
 31 32  1  0  0  0  0
 33 34  1  0  0  0  0
 33 31  2  0  0  0  0
M  END
>  <minimizedAffinity>
-5.85974979

$$$$

 OpenBabel03262522243D

 34 36  0  0  0  0  0  0  0  0999 V2000
   36.6180   28.4850   34.9610 C   0  0  0  0  0  0  0  0  0  0  0  0
   35.9100   28.6990   33.7610 C   0  0  0  0  0  0  0  0  0  0  0  0
   36.1240   27.8190   32.7110 C   0  0  0  0  0  0  0  0  0  0  0  0
   37.0040   26.8040   32.9040 N   0  0  0  0  0  0  0  0  0  0  0  0
   37.6450   26.6400   34.0430 C   0  0  0  0  0  0  0  0  0  0  0  0
   37.4850   27.4740   35.1290 N   0  0  0  0  0  0  0  0  0  0  0  0
   36.5170   29.1140   35.8270 H   0  0  0  0  0  0  0  0  0  0  0  0
   35.5830   27.9920   31.8120 H   0  0  0  0  0  0  0  0  0  0  0  0
   35.0690   29.7750   33.7630 O   0  0  0  0  0  0  0  0  0  0  0  0
   35.6060   31.0210   34.1060 C   0  0  0  0  0  0  0  0  0  0  0  0
   35.7260   31.5620   35.3450 C   0  0  0  0  0  0  0  0  0  0  0  0
   36.2740   32.7940   35.5020 C   0  0  0  0  0  0  0  0  0  0  0  0
   36.7020   33.4790   34.3860 C   0  0  0  0  0  0  0  0  0  0  0  0
   36.5750   32.9210   33.1280 C   0  0  0  0  0  0  0  0  0  0  0  0
   36.0170   31.6800   33.0240 N   0  0  0  0  0  0  0  0  0  0  0  0
   35.3530   30.9250   36.1470 H   0  0  0  0  0  0  0  0  0  0  0  0
   36.3600   33.2020   36.4890 H   0  0  0  0  0  0  0  0  0  0  0  0
   37.1410   34.4640   34.4970 H   0  0  0  0  0  0  0  0  0  0  0  0
   37.0420   33.6690   31.9020 C   0  0  0  0  0  0  0  0  0  0  0  0
   36.1500   33.8030   31.2630 H   0  0  0  0  0  0  0  0  0  0  0  0
   37.3750   34.6520   32.2260 H   0  0  0  0  0  0  0  0  0  0  0  0
   37.8670   33.1260   31.4050 H   0  0  0  0  0  0  0  0  0  0  0  0
   38.7430   25.1940   34.0040 S   0  0  0  0  0  0  0  0  0  0  0  0
   41.0480   23.1110   34.8010 Cl  0  0  0  0  0  0  0  0  0  0  0  0
   39.8090   23.5030   35.9510 C   0  0  0  0  0  0  0  0  0  0  0  0
   38.8330   24.4000   35.5820 C   0  0  0  0  0  0  0  0  0  0  0  0
   37.8340   24.7340   36.4710 C   0  0  0  0  0  0  0  0  0  0  0  0
   37.0330   25.4250   36.2630 H   0  0  0  0  0  0  0  0  0  0  0  0
   37.8650   24.1290   37.7320 C   0  0  0  0  0  0  0  0  0  0  0  0
   37.1440   24.3090   38.5050 H   0  0  0  0  0  0  0  0  0  0  0  0
   38.8420   23.2370   38.0890 C   0  0  0  0  0  0  0  0  0  0  0  0
   38.8900   22.7550   39.0570 H   0  0  0  0  0  0  0  0  0  0  0  0
   39.8480   22.8960   37.2070 C   0  0  0  0  0  0  0  0  0  0  0  0
   41.1250   21.7700   37.5880 Cl  0  0  0  0  0  0  0  0  0  0  0  0
  1  6  1  0  0  0  0
  1  7  1  0  0  0  0
  2  9  1  0  0  0  0
  2  1  2  0  0  0  0
  3  4  2  0  0  0  0
  3  2  1  0  0  0  0
  4  5  1  0  0  0  0
  5  6  2  0  0  0  0
  8  3  1  0  0  0  0
  9 10  1  0  0  0  0
 10 11  1  0  0  0  0
 11 12  2  0  0  0  0
 11 16  1  0  0  0  0
 12 17  1  0  0  0  0
 13 18  1  0  0  0  0
 13 12  1  0  0  0  0
 14 13  2  0  0  0  0
 15 14  1  0  0  0  0
 15 10  2  0  0  0  0
 19 21  1  0  0  0  0
 19 14  1  0  0  0  0
 20 19  1  0  0  0  0
 22 19  1  0  0  0  0
 23  5  1  0  0  0  0
 23 26  1  0  0  0  0
 24 25  1  0  0  0  0
 25 33  1  0  0  0  0
 26 25  2  0  0  0  0
 26 27  1  0  0  0  0
 27 29  2  0  0  0  0
 28 27  1  0  0  0  0
 29 31  1  0  0  0  0
 29 30  1  0  0  0  0
 31 32  1  0  0  0  0
 33 34  1  0  0  0  0
 33 31  2  0  0  0  0
M  END
>  <minimizedAffinity>
-5.49200821

$$$$

 OpenBabel03262522243D

 34 36  0  0  0  0  0  0  0  0999 V2000
   37.5100   25.6310   32.9940 C   0  0  0  0  0  0  0  0  0  0  0  0
   38.2520   26.0440   34.1190 C   0  0  0  0  0  0  0  0  0  0  0  0
   37.9700   27.2860   34.6670 C   0  0  0  0  0  0  0  0  0  0  0  0
   36.9940   28.0300   34.0840 N   0  0  0  0  0  0  0  0  0  0  0  0
   36.3250   27.6040   33.0320 C   0  0  0  0  0  0  0  0  0  0  0  0
   36.5500   26.3830   32.4330 N   0  0  0  0  0  0  0  0  0  0  0  0
   37.6580   24.6860   32.5030 H   0  0  0  0  0  0  0  0  0  0  0  0
   38.5360   27.5850   35.5150 H   0  0  0  0  0  0  0  0  0  0  0  0
   39.1890   25.1550   34.5590 O   0  0  0  0  0  0  0  0  0  0  0  0
   38.9890   24.5620   35.8110 C   0  0  0  0  0  0  0  0  0  0  0  0
   38.0150   24.8400   36.7160 C   0  0  0  0  0  0  0  0  0  0  0  0
   37.9660   24.1650   37.8940 C   0  0  0  0  0  0  0  0  0  0  0  0
   38.9170   23.2030   38.1490 C   0  0  0  0  0  0  0  0  0  0  0  0
   39.9040   22.9270   37.2230 C   0  0  0  0  0  0  0  0  0  0  0  0
   39.9110   23.6320   36.0550 N   0  0  0  0  0  0  0  0  0  0  0  0
   37.3230   25.6200   36.4000 H   0  0  0  0  0  0  0  0  0  0  0  0
   37.1890   24.4000   38.5930 H   0  0  0  0  0  0  0  0  0  0  0  0
   38.8890   22.6570   39.0860 H   0  0  0  0  0  0  0  0  0  0  0  0
   40.9500   21.8720   37.5000 C   0  0  0  0  0  0  0  0  0  0  0  0
   41.9260   22.3910   37.4780 H   0  0  0  0  0  0  0  0  0  0  0  0
   40.7850   21.5070   38.5110 H   0  0  0  0  0  0  0  0  0  0  0  0
   40.8690   21.0440   36.7730 H   0  0  0  0  0  0  0  0  0  0  0  0
   35.0800   28.8090   32.4860 S   0  0  0  0  0  0  0  0  0  0  0  0
   36.8120   29.8340   29.9870 Cl  0  0  0  0  0  0  0  0  0  0  0  0
   36.5020   30.9070   31.3150 C   0  0  0  0  0  0  0  0  0  0  0  0
   35.7560   30.4400   32.3730 C   0  0  0  0  0  0  0  0  0  0  0  0
   35.4900   31.2660   33.4450 C   0  0  0  0  0  0  0  0  0  0  0  0
   34.9160   30.9810   34.3120 H   0  0  0  0  0  0  0  0  0  0  0  0
   36.0060   32.5660   33.4000 C   0  0  0  0  0  0  0  0  0  0  0  0
   35.8660   33.2970   34.1710 H   0  0  0  0  0  0  0  0  0  0  0  0
   36.7470   33.0200   32.3400 C   0  0  0  0  0  0  0  0  0  0  0  0
   37.1570   34.0200   32.2790 H   0  0  0  0  0  0  0  0  0  0  0  0
   37.0180   32.2020   31.2620 C   0  0  0  0  0  0  0  0  0  0  0  0
   37.9530   32.7070   29.8780 Cl  0  0  0  0  0  0  0  0  0  0  0  0
  1  2  1  0  0  0  0
  2  9  1  0  0  0  0
  2  3  2  0  0  0  0
  3  8  1  0  0  0  0
  4  3  1  0  0  0  0
  5  4  2  0  0  0  0
  6  1  2  0  0  0  0
  6  5  1  0  0  0  0
  7  1  1  0  0  0  0
  9 10  1  0  0  0  0
 10 15  2  0  0  0  0
 10 11  1  0  0  0  0
 11 12  2  0  0  0  0
 12 13  1  0  0  0  0
 12 17  1  0  0  0  0
 13 18  1  0  0  0  0
 14 19  1  0  0  0  0
 14 13  2  0  0  0  0
 15 14  1  0  0  0  0
 16 11  1  0  0  0  0
 19 21  1  0  0  0  0
 20 19  1  0  0  0  0
 22 19  1  0  0  0  0
 23  5  1  0  0  0  0
 24 25  1  0  0  0  0
 25 26  1  0  0  0  0
 26 23  1  0  0  0  0
 26 27  2  0  0  0  0
 27 28  1  0  0  0  0
 29 27  1  0  0  0  0
 29 30  1  0  0  0  0
 31 29  2  0  0  0  0
 32 31  1  0  0  0  0
 33 25  2  0  0  0  0
 33 31  1  0  0  0  0
 34 33  1  0  0  0  0
M  END
>  <minimizedAffinity>
-5.45872211

$$$$

 OpenBabel03262522243D

 34 36  0  0  0  0  0  0  0  0999 V2000
   37.5010   27.0220   32.6430 C   0  0  0  0  0  0  0  0  0  0  0  0
   37.8880   26.8540   33.9880 C   0  0  0  0  0  0  0  0  0  0  0  0
   37.2260   27.5960   34.9550 C   0  0  0  0  0  0  0  0  0  0  0  0
   36.2440   28.4400   34.5450 N   0  0  0  0  0  0  0  0  0  0  0  0
   35.9140   28.5650   33.2760 C   0  0  0  0  0  0  0  0  0  0  0  0
   36.5270   27.8630   32.2600 N   0  0  0  0  0  0  0  0  0  0  0  0
   37.9550   26.4900   31.8260 H   0  0  0  0  0  0  0  0  0  0  0  0
   37.5280   27.4600   35.9650 H   0  0  0  0  0  0  0  0  0  0  0  0
   38.8960   25.9580   34.1980 O   0  0  0  0  0  0  0  0  0  0  0  0
   38.5540   24.7010   34.7090 C   0  0  0  0  0  0  0  0  0  0  0  0
   38.1490   23.6050   34.0170 C   0  0  0  0  0  0  0  0  0  0  0  0
   37.8530   22.4540   34.6740 C   0  0  0  0  0  0  0  0  0  0  0  0
   37.9720   22.4210   36.0450 C   0  0  0  0  0  0  0  0  0  0  0  0
   38.3850   23.5410   36.7410 C   0  0  0  0  0  0  0  0  0  0  0  0
   38.6700   24.6730   36.0350 N   0  0  0  0  0  0  0  0  0  0  0  0
   38.0940   23.7540   32.9380 H   0  0  0  0  0  0  0  0  0  0  0  0
   37.5350   21.6010   34.1080 H   0  0  0  0  0  0  0  0  0  0  0  0
   37.7390   21.5080   36.5820 H   0  0  0  0  0  0  0  0  0  0  0  0
   38.5160   23.5100   38.2460 C   0  0  0  0  0  0  0  0  0  0  0  0
   37.8210   24.2770   38.6330 H   0  0  0  0  0  0  0  0  0  0  0  0
   38.1660   22.5370   38.5840 H   0  0  0  0  0  0  0  0  0  0  0  0
   39.5670   23.6690   38.5490 H   0  0  0  0  0  0  0  0  0  0  0  0
   34.5630   29.7560   33.0400 S   0  0  0  0  0  0  0  0  0  0  0  0
   35.7140   32.1570   34.8290 Cl  0  0  0  0  0  0  0  0  0  0  0  0
   34.3220   31.2730   35.3700 C   0  0  0  0  0  0  0  0  0  0  0  0
   33.8500   30.2480   34.5820 C   0  0  0  0  0  0  0  0  0  0  0  0
   32.7460   29.5260   34.9810 C   0  0  0  0  0  0  0  0  0  0  0  0
   32.3120   28.7100   34.4250 H   0  0  0  0  0  0  0  0  0  0  0  0
   32.1480   29.8800   36.1960 C   0  0  0  0  0  0  0  0  0  0  0  0
   31.2870   29.3930   36.6090 H   0  0  0  0  0  0  0  0  0  0  0  0
   32.6270   30.9030   36.9720 C   0  0  0  0  0  0  0  0  0  0  0  0
   32.1840   31.1980   37.9150 H   0  0  0  0  0  0  0  0  0  0  0  0
   33.7310   31.6330   36.5820 C   0  0  0  0  0  0  0  0  0  0  0  0
   34.3990   32.9480   37.5150 Cl  0  0  0  0  0  0  0  0  0  0  0  0
  1  2  1  0  0  0  0
  2  9  1  0  0  0  0
  2  3  2  0  0  0  0
  3  8  1  0  0  0  0
  4  3  1  0  0  0  0
  5  4  2  0  0  0  0
  6  1  2  0  0  0  0
  6  5  1  0  0  0  0
  7  1  1  0  0  0  0
  9 10  1  0  0  0  0
 10 15  1  0  0  0  0
 11 12  1  0  0  0  0
 11 10  2  0  0  0  0
 12 13  2  0  0  0  0
 13 18  1  0  0  0  0
 13 14  1  0  0  0  0
 14 19  1  0  0  0  0
 15 14  2  0  0  0  0
 16 11  1  0  0  0  0
 17 12  1  0  0  0  0
 19 22  1  0  0  0  0
 19 21  1  0  0  0  0
 19 20  1  0  0  0  0
 23  5  1  0  0  0  0
 23 26  1  0  0  0  0
 24 25  1  0  0  0  0
 25 33  1  0  0  0  0
 26 27  1  0  0  0  0
 26 25  2  0  0  0  0
 27 29  2  0  0  0  0
 28 27  1  0  0  0  0
 29 30  1  0  0  0  0
 29 31  1  0  0  0  0
 31 32  1  0  0  0  0
 33 31  2  0  0  0  0
 33 34  1  0  0  0  0
M  END
>  <minimizedAffinity>
-5.3665781

$$$$

 OpenBabel03262522243D

 34 36  0  0  0  0  0  0  0  0999 V2000
   36.4200   28.6620   32.0880 C   0  0  0  0  0  0  0  0  0  0  0  0
   35.8760   28.9100   33.3640 C   0  0  0  0  0  0  0  0  0  0  0  0
   36.2910   28.1100   34.4180 C   0  0  0  0  0  0  0  0  0  0  0  0
   37.1980   27.1340   34.1540 N   0  0  0  0  0  0  0  0  0  0  0  0
   37.6820   26.9370   32.9450 C   0  0  0  0  0  0  0  0  0  0  0  0
   37.3160   27.6900   31.8500 N   0  0  0  0  0  0  0  0  0  0  0  0
   36.1590   29.2300   31.2130 H   0  0  0  0  0  0  0  0  0  0  0  0
   35.8740   28.3080   35.3750 H   0  0  0  0  0  0  0  0  0  0  0  0
   34.9790   29.9370   33.4270 O   0  0  0  0  0  0  0  0  0  0  0  0
   34.9740   30.7300   34.5800 C   0  0  0  0  0  0  0  0  0  0  0  0
   35.9460   31.5750   35.0120 C   0  0  0  0  0  0  0  0  0  0  0  0
   35.7790   32.2740   36.1640 C   0  0  0  0  0  0  0  0  0  0  0  0
   34.6140   32.1100   36.8790 C   0  0  0  0  0  0  0  0  0  0  0  0
   33.6310   31.2480   36.4330 C   0  0  0  0  0  0  0  0  0  0  0  0
   33.8460   30.5680   35.2700 N   0  0  0  0  0  0  0  0  0  0  0  0
   36.8190   31.6190   34.3610 H   0  0  0  0  0  0  0  0  0  0  0  0
   36.5590   32.9350   36.4850 H   0  0  0  0  0  0  0  0  0  0  0  0
   34.4690   32.6630   37.8010 H   0  0  0  0  0  0  0  0  0  0  0  0
   32.3520   31.0650   37.2160 C   0  0  0  0  0  0  0  0  0  0  0  0
   32.3090   29.9950   37.4910 H   0  0  0  0  0  0  0  0  0  0  0  0
   32.4440   31.6450   38.1310 H   0  0  0  0  0  0  0  0  0  0  0  0
   31.4820   31.4070   36.6260 H   0  0  0  0  0  0  0  0  0  0  0  0
   38.8800   25.5720   32.9060 S   0  0  0  0  0  0  0  0  0  0  0  0
   36.9380   24.2090   30.7480 Cl  0  0  0  0  0  0  0  0  0  0  0  0
   37.2580   23.3980   32.2480 C   0  0  0  0  0  0  0  0  0  0  0  0
   38.0950   24.0070   33.1550 C   0  0  0  0  0  0  0  0  0  0  0  0
   38.3710   23.3910   34.3580 C   0  0  0  0  0  0  0  0  0  0  0  0
   39.0140   23.7970   35.1220 H   0  0  0  0  0  0  0  0  0  0  0  0
   37.7710   22.1500   34.5990 C   0  0  0  0  0  0  0  0  0  0  0  0
   37.9100   21.5770   35.4940 H   0  0  0  0  0  0  0  0  0  0  0  0
   36.9390   21.5530   33.6870 C   0  0  0  0  0  0  0  0  0  0  0  0
   36.4630   20.5950   33.8480 H   0  0  0  0  0  0  0  0  0  0  0  0
   36.6570   22.1610   32.4810 C   0  0  0  0  0  0  0  0  0  0  0  0
   35.6090   21.4650   31.2710 Cl  0  0  0  0  0  0  0  0  0  0  0  0
  1  2  1  0  0  0  0
  2  9  1  0  0  0  0
  2  3  2  0  0  0  0
  3  8  1  0  0  0  0
  4  3  1  0  0  0  0
  5  4  2  0  0  0  0
  6  1  2  0  0  0  0
  6  5  1  0  0  0  0
  7  1  1  0  0  0  0
  9 10  1  0  0  0  0
 10 11  2  0  0  0  0
 10 15  1  0  0  0  0
 11 12  1  0  0  0  0
 12 17  1  0  0  0  0
 12 13  2  0  0  0  0
 13 18  1  0  0  0  0
 14 13  1  0  0  0  0
 14 19  1  0  0  0  0
 15 14  2  0  0  0  0
 16 11  1  0  0  0  0
 19 20  1  0  0  0  0
 19 21  1  0  0  0  0
 22 19  1  0  0  0  0
 23  5  1  0  0  0  0
 23 26  1  0  0  0  0
 24 25  1  0  0  0  0
 25 33  2  0  0  0  0
 25 26  1  0  0  0  0
 26 27  2  0  0  0  0
 27 29  1  0  0  0  0
 27 28  1  0  0  0  0
 29 30  1  0  0  0  0
 31 32  1  0  0  0  0
 31 29  2  0  0  0  0
 33 31  1  0  0  0  0
 34 33  1  0  0  0  0
M  END
>  <minimizedAffinity>
-5.35620022

$$$$

 OpenBabel03262522243D

 34 36  0  0  0  0  0  0  0  0999 V2000
   35.2810   28.3990   32.0480 C   0  0  0  0  0  0  0  0  0  0  0  0
   34.9380   29.0980   33.2230 C   0  0  0  0  0  0  0  0  0  0  0  0
   35.7350   28.9220   34.3440 C   0  0  0  0  0  0  0  0  0  0  0  0
   36.8000   28.0840   34.2400 N   0  0  0  0  0  0  0  0  0  0  0  0
   37.0840   27.4500   33.1210 C   0  0  0  0  0  0  0  0  0  0  0  0
   36.3380   27.5750   31.9680 N   0  0  0  0  0  0  0  0  0  0  0  0
   34.7230   28.4730   31.1320 H   0  0  0  0  0  0  0  0  0  0  0  0
   35.4660   29.4550   35.2230 H   0  0  0  0  0  0  0  0  0  0  0  0
   33.8320   29.8930   33.1280 O   0  0  0  0  0  0  0  0  0  0  0  0
   32.9550   29.9210   34.2170 C   0  0  0  0  0  0  0  0  0  0  0  0
   31.8660   29.1380   34.4280 C   0  0  0  0  0  0  0  0  0  0  0  0
   31.1150   29.3000   35.5480 C   0  0  0  0  0  0  0  0  0  0  0  0
   31.4780   30.2670   36.4590 C   0  0  0  0  0  0  0  0  0  0  0  0
   32.5880   31.0600   36.2360 C   0  0  0  0  0  0  0  0  0  0  0  0
   33.3090   30.8580   35.0950 N   0  0  0  0  0  0  0  0  0  0  0  0
   31.6810   28.4100   33.6380 H   0  0  0  0  0  0  0  0  0  0  0  0
   30.2600   28.6700   35.6940 H   0  0  0  0  0  0  0  0  0  0  0  0
   30.8880   30.4060   37.3570 H   0  0  0  0  0  0  0  0  0  0  0  0
   32.9890   32.1230   37.2320 C   0  0  0  0  0  0  0  0  0  0  0  0
   32.9510   33.0850   36.6890 H   0  0  0  0  0  0  0  0  0  0  0  0
   32.2290   32.1440   38.0100 H   0  0  0  0  0  0  0  0  0  0  0  0
   33.9800   31.8960   37.6650 H   0  0  0  0  0  0  0  0  0  0  0  0
   38.5670   26.4150   33.2850 S   0  0  0  0  0  0  0  0  0  0  0  0
   38.4730   26.8020   36.4680 Cl  0  0  0  0  0  0  0  0  0  0  0  0
   38.2660   25.2190   35.7880 C   0  0  0  0  0  0  0  0  0  0  0  0
   38.3110   25.0820   34.4200 C   0  0  0  0  0  0  0  0  0  0  0  0
   38.1510   23.8390   33.8460 C   0  0  0  0  0  0  0  0  0  0  0  0
   38.1720   23.6450   32.7860 H   0  0  0  0  0  0  0  0  0  0  0  0
   37.9460   22.7540   34.7070 C   0  0  0  0  0  0  0  0  0  0  0  0
   37.8090   21.7430   34.3790 H   0  0  0  0  0  0  0  0  0  0  0  0
   37.9030   22.9020   36.0690 C   0  0  0  0  0  0  0  0  0  0  0  0
   37.7460   22.0810   36.7560 H   0  0  0  0  0  0  0  0  0  0  0  0
   38.0620   24.1420   36.6530 C   0  0  0  0  0  0  0  0  0  0  0  0
   38.0190   24.4100   38.3770 Cl  0  0  0  0  0  0  0  0  0  0  0  0
  1  2  1  0  0  0  0
  2  3  2  0  0  0  0
  3  8  1  0  0  0  0
  4  3  1  0  0  0  0
  5 23  1  0  0  0  0
  5  4  2  0  0  0  0
  6  1  2  0  0  0  0
  6  5  1  0  0  0  0
  7  1  1  0  0  0  0
  9  2  1  0  0  0  0
  9 10  1  0  0  0  0
 10 11  2  0  0  0  0
 10 15  1  0  0  0  0
 11 12  1  0  0  0  0
 12 17  1  0  0  0  0
 12 13  2  0  0  0  0
 13 18  1  0  0  0  0
 14 13  1  0  0  0  0
 14 19  1  0  0  0  0
 15 14  2  0  0  0  0
 16 11  1  0  0  0  0
 19 22  1  0  0  0  0
 19 21  1  0  0  0  0
 20 19  1  0  0  0  0
 23 26  1  0  0  0  0
 25 24  1  0  0  0  0
 25 33  1  0  0  0  0
 26 25  2  0  0  0  0
 27 26  1  0  0  0  0
 27 29  2  0  0  0  0
 28 27  1  0  0  0  0
 29 31  1  0  0  0  0
 30 29  1  0  0  0  0
 31 33  2  0  0  0  0
 31 32  1  0  0  0  0
 33 34  1  0  0  0  0
M  END
>  <minimizedAffinity>
-5.27292824

$$$$

 OpenBabel03262522243D

 34 36  0  0  0  0  0  0  0  0999 V2000
   37.7810   26.7240   32.3430 C   0  0  0  0  0  0  0  0  0  0  0  0
   38.0400   26.3700   33.6820 C   0  0  0  0  0  0  0  0  0  0  0  0
   37.3590   27.0510   34.6800 C   0  0  0  0  0  0  0  0  0  0  0  0
   36.4820   28.0180   34.3040 N   0  0  0  0  0  0  0  0  0  0  0  0
   36.2700   28.3160   33.0390 C   0  0  0  0  0  0  0  0  0  0  0  0
   36.9100   27.6840   31.9940 N   0  0  0  0  0  0  0  0  0  0  0  0
   38.2600   26.2520   31.5030 H   0  0  0  0  0  0  0  0  0  0  0  0
   37.5630   26.7740   35.6860 H   0  0  0  0  0  0  0  0  0  0  0  0
   38.9540   25.3720   33.8560 O   0  0  0  0  0  0  0  0  0  0  0  0
   38.5500   24.2340   34.5630 C   0  0  0  0  0  0  0  0  0  0  0  0
   38.7180   23.9740   35.8860 C   0  0  0  0  0  0  0  0  0  0  0  0
   38.2620   22.8090   36.4150 C   0  0  0  0  0  0  0  0  0  0  0  0
   37.6320   21.9050   35.5900 C   0  0  0  0  0  0  0  0  0  0  0  0
   37.4660   22.1770   34.2460 C   0  0  0  0  0  0  0  0  0  0  0  0
   37.9420   23.3620   33.7620 N   0  0  0  0  0  0  0  0  0  0  0  0
   39.2300   24.7650   36.4340 H   0  0  0  0  0  0  0  0  0  0  0  0
   38.4050   22.6250   37.4610 H   0  0  0  0  0  0  0  0  0  0  0  0
   37.2640   20.9710   36.0000 H   0  0  0  0  0  0  0  0  0  0  0  0
   36.7760   21.1870   33.3370 C   0  0  0  0  0  0  0  0  0  0  0  0
   37.5160   20.9110   32.5630 H   0  0  0  0  0  0  0  0  0  0  0  0
   36.5580   20.3010   33.9270 H   0  0  0  0  0  0  0  0  0  0  0  0
   35.8450   21.6190   32.9270 H   0  0  0  0  0  0  0  0  0  0  0  0
   35.0400   29.6380   32.8500 S   0  0  0  0  0  0  0  0  0  0  0  0
   32.6610   29.3440   34.9820 Cl  0  0  0  0  0  0  0  0  0  0  0  0
   33.9070   30.5240   35.2410 C   0  0  0  0  0  0  0  0  0  0  0  0
   34.9140   30.6280   34.3100 C   0  0  0  0  0  0  0  0  0  0  0  0
   35.9200   31.5550   34.4850 C   0  0  0  0  0  0  0  0  0  0  0  0
   36.7440   31.7010   33.8070 H   0  0  0  0  0  0  0  0  0  0  0  0
   35.8620   32.3610   35.6280 C   0  0  0  0  0  0  0  0  0  0  0  0
   36.5840   33.1140   35.8710 H   0  0  0  0  0  0  0  0  0  0  0  0
   34.8530   32.2480   36.5490 C   0  0  0  0  0  0  0  0  0  0  0  0
   34.7830   32.8580   37.4400 H   0  0  0  0  0  0  0  0  0  0  0  0
   33.8420   31.3230   36.3830 C   0  0  0  0  0  0  0  0  0  0  0  0
   32.5250   31.1210   37.5100 Cl  0  0  0  0  0  0  0  0  0  0  0  0
  1  2  1  0  0  0  0
  2  9  1  0  0  0  0
  2  3  2  0  0  0  0
  3  8  1  0  0  0  0
  4  3  1  0  0  0  0
  5  4  2  0  0  0  0
  6  1  2  0  0  0  0
  6  5  1  0  0  0  0
  7  1  1  0  0  0  0
  9 10  1  0  0  0  0
 10 11  1  0  0  0  0
 11 12  2  0  0  0  0
 11 16  1  0  0  0  0
 12 17  1  0  0  0  0
 13 18  1  0  0  0  0
 13 12  1  0  0  0  0
 14 13  2  0  0  0  0
 15 14  1  0  0  0  0
 15 10  2  0  0  0  0
 19 21  1  0  0  0  0
 19 14  1  0  0  0  0
 20 19  1  0  0  0  0
 22 19  1  0  0  0  0
 23  5  1  0  0  0  0
 23 26  1  0  0  0  0
 24 25  1  0  0  0  0
 25 33  1  0  0  0  0
 26 27  1  0  0  0  0
 26 25  2  0  0  0  0
 27 29  2  0  0  0  0
 28 27  1  0  0  0  0
 29 30  1  0  0  0  0
 29 31  1  0  0  0  0
 31 32  1  0  0  0  0
 33 31  2  0  0  0  0
 33 34  1  0  0  0  0
M  END
>  <minimizedAffinity>
-5.20926571

$$$$
