
 OpenBabel03272509403D

 37 39  0  0  1  0  0  0  0  0999 V2000
   36.4200   30.6410   48.3000 C   0  0  0  0  0  0  0  0  0  0  0  0
   36.4750   31.2470   49.5580 C   0  0  0  0  0  0  0  0  0  0  0  0
   37.3610   32.2640   49.8480 C   0  0  0  0  0  0  0  0  0  0  0  0
   38.2420   32.7150   48.8610 C   0  0  0  0  0  0  0  0  0  0  0  0
   38.1760   32.1140   47.6360 C   0  0  0  0  0  0  0  0  0  0  0  0
   37.2790   31.0970   47.3690 C   0  0  0  0  0  0  0  0  0  0  0  0
   35.8180   30.9510   50.3860 H   0  0  0  0  0  0  0  0  0  0  0  0
   37.3840   32.7180   50.8330 H   0  0  0  0  0  0  0  0  0  0  0  0
   38.9170   33.5060   49.1160 H   0  0  0  0  0  0  0  0  0  0  0  0
   38.8880   32.5200   46.9290 H   0  0  0  0  0  0  0  0  0  0  0  0
   35.4490   29.5790   48.0940 C   0  0  2  0  0  3  0  0  0  0  0  0
   35.5190   28.6230   48.9620 O   0  0  0  0  0  1  0  0  0  0  0  0
   32.6600   30.6870   46.0620 C   0  0  0  0  0  0  0  0  0  0  0  0
   32.5410   29.6970   45.0880 C   0  0  0  0  0  0  0  0  0  0  0  0
   33.4260   28.6280   45.1250 C   0  0  0  0  0  0  0  0  0  0  0  0
   34.3790   28.5830   46.1100 N   0  0  0  0  0  0  0  0  0  0  0  0
   34.4580   29.5430   47.0140 C   0  0  0  0  0  0  0  0  0  0  0  0
   33.6000   30.5870   46.9850 N   0  0  0  0  0  0  0  0  0  0  0  0
   31.9410   31.4830   45.9690 H   0  0  0  0  0  0  0  0  0  0  0  0
   31.8510   29.6150   44.2800 H   0  0  0  0  0  0  0  0  0  0  0  0
   33.4890   27.7710   44.4640 H   0  0  0  0  0  0  0  0  0  0  0  0
   37.3380   30.5590   46.0300 C   0  0  0  0  0  3  0  0  0  0  0  0
   37.0370   31.1760   44.9030 C   0  0  0  0  0  3  0  0  0  0  0  0
   37.0670   30.7680   43.4990 C   0  0  0  0  0  0  0  0  0  0  0  0
   36.8930   31.6610   42.8670 H   0  0  0  0  0  0  0  0  0  0  0  0
   36.2480   30.0590   43.2590 H   0  0  0  0  0  0  0  0  0  0  0  0
   36.8240   27.8780   43.0010 Cl  0  0  0  0  0  0  0  0  0  0  0  0
   38.2930   28.8560   42.8870 C   0  0  0  0  0  0  0  0  0  0  0  0
   38.3980   30.2170   43.1250 C   0  0  0  0  0  0  0  0  0  0  0  0
   39.6170   30.8370   42.9930 C   0  0  0  0  0  0  0  0  0  0  0  0
   39.5550   31.8990   43.2080 H   0  0  0  0  0  0  0  0  0  0  0  0
   40.7190   30.0980   42.6280 C   0  0  0  0  0  0  0  0  0  0  0  0
   41.6330   30.6570   42.5470 H   0  0  0  0  0  0  0  0  0  0  0  0
   40.6380   28.7430   42.3870 C   0  0  0  0  0  0  0  0  0  0  0  0
   41.5380   28.2150   42.1030 H   0  0  0  0  0  0  0  0  0  0  0  0
   39.4070   28.1020   42.5160 C   0  0  0  0  0  0  0  0  0  0  0  0
   39.3820   26.3860   42.1950 Cl  0  0  0  0  0  0  0  0  0  0  0  0
  1  2  1  0  0  0  0
  2  3  2  0  0  0  0
  2  7  1  0  0  0  0
  3  8  1  0  0  0  0
  4  9  1  0  0  0  0
  4  3  1  0  0  0  0
  5  4  2  0  0  0  0
  6  5  1  0  0  0  0
  6  1  2  0  0  0  0
 10  5  1  0  0  0  0
 11  1  1  0  0  0  0
 11 12  1  6  0  0  0
 13 18  1  0  0  0  0
 14 15  1  0  0  0  0
 14 13  2  0  0  0  0
 15 16  2  0  0  0  0
 16 17  1  0  0  0  0
 17 11  1  0  0  0  0
 18 17  2  0  0  0  0
 19 13  1  0  0  0  0
 20 14  1  0  0  0  0
 21 15  1  0  0  0  0
 22  6  1  0  0  0  0
 23 22  2  0  0  0  0
 24 23  1  0  0  0  0
 25 24  1  0  0  0  0
 26 24  1  0  0  0  0
 28 27  1  0  0  0  0
 28 29  1  0  0  0  0
 29 24  1  0  0  0  0
 30 29  2  0  0  0  0
 30 31  1  0  0  0  0
 32 30  1  0  0  0  0
 33 32  1  0  0  0  0
 34 36  1  0  0  0  0
 34 32  2  0  0  0  0
 35 34  1  0  0  0  0
 36 28  2  0  0  0  0
 37 36  1  0  0  0  0
M  END
>  <minimizedAffinity>
-5.55910158

>  <minimizedRMSD>
2.30643749

$$$$
