
 OpenBabel03262523563D

 40 42  0  0  1  0  0  0  0  0999 V2000
   35.3620   29.2400   43.6210 C   0  0  1  0  0  0  0  0  0  0  0  0
   35.9150   27.8950   43.5860 C   0  0  0  0  0  0  0  0  0  0  0  0
   34.8330   26.9490   43.1570 C   0  0  0  0  0  0  0  0  0  0  0  0
   33.5640   27.2450   43.8400 C   0  0  0  0  0  0  0  0  0  0  0  0
   33.6430   28.1040   45.0440 C   0  0  0  0  0  0  0  0  0  0  0  0
   34.4910   29.3580   44.8690 C   0  0  1  0  0  0  0  0  0  0  0  0
   34.6330   29.4030   42.7740 H   0  0  0  0  0  0  0  0  0  0  0  0
   36.8050   27.7670   42.9020 H   0  0  0  0  0  0  0  0  0  0  0  0
   36.2870   27.5550   44.5930 H   0  0  0  0  0  0  0  0  0  0  0  0
   34.7020   27.0920   42.0450 H   0  0  0  0  0  0  0  0  0  0  0  0
   35.1470   25.8890   43.2540 H   0  0  0  0  0  0  0  0  0  0  0  0
   33.1190   26.2790   44.1550 H   0  0  0  0  0  0  0  0  0  0  0  0
   32.8150   27.6920   43.1240 H   0  0  0  0  0  0  0  0  0  0  0  0
   34.0920   27.5280   45.8660 H   0  0  0  0  0  0  0  0  0  0  0  0
   32.6040   28.3690   45.3530 H   0  0  0  0  0  0  0  0  0  0  0  0
   33.7780   30.1910   44.6930 H   0  0  0  0  0  0  0  0  0  0  0  0
   36.8230   32.6330   43.2370 C   0  0  0  0  0  0  0  0  0  0  0  0
   35.8790   31.5710   43.1950 C   0  0  0  0  0  0  0  0  0  0  0  0
   36.3240   30.3500   43.6840 C   0  0  0  0  0  0  0  0  0  0  0  0
   37.6130   30.2110   44.1760 N   0  0  0  0  0  0  0  0  0  0  0  0
   38.4660   31.2450   44.1930 C   0  0  0  0  0  0  0  0  0  0  0  0
   38.0760   32.4690   43.7210 N   0  0  0  0  0  0  0  0  0  0  0  0
   36.5320   33.6160   42.8650 H   0  0  0  0  0  0  0  0  0  0  0  0
   34.8830   31.7180   42.8040 H   0  0  0  0  0  0  0  0  0  0  0  0
   39.4400   31.0100   44.5990 H   0  0  0  0  0  0  0  0  0  0  0  0
   34.9240   30.2620   47.3260 C   0  0  0  0  0  0  0  0  0  0  0  0
   33.6860   30.5350   47.3750 O   0  0  0  0  0  0  0  0  0  0  0  0
   35.2240   29.6380   46.0750 N   0  0  0  0  0  0  0  0  0  0  0  0
   36.2020   29.2510   45.8920 H   0  0  0  0  0  0  0  0  0  0  0  0
   34.7000   29.3630   50.2370 Cl  0  0  0  0  0  0  0  0  0  0  0  0
   36.1240   30.1360   49.5880 C   0  0  0  0  0  0  0  0  0  0  0  0
   36.0260   30.4610   48.2630 C   0  0  0  0  0  0  0  0  0  0  0  0
   37.0960   31.0870   47.6120 C   0  0  0  0  0  0  0  0  0  0  0  0
   37.1600   31.3970   46.5840 H   0  0  0  0  0  0  0  0  0  0  0  0
   38.2690   31.3800   48.3170 C   0  0  0  0  0  0  0  0  0  0  0  0
   39.1320   31.8620   47.8740 H   0  0  0  0  0  0  0  0  0  0  0  0
   38.3520   31.0450   49.6560 C   0  0  0  0  0  0  0  0  0  0  0  0
   39.2420   31.2610   50.2110 H   0  0  0  0  0  0  0  0  0  0  0  0
   37.2830   30.4290   50.2740 C   0  0  0  0  0  0  0  0  0  0  0  0
   37.3090   29.9720   51.9650 Cl  0  0  0  0  0  0  0  0  0  0  0  0
  1  7  1  6  0  0  0
  1 19  1  0  0  0  0
  1  6  1  0  0  0  0
  2  1  1  0  0  0  0
  2  9  1  0  0  0  0
  3 11  1  0  0  0  0
  3  2  1  0  0  0  0
  3  4  1  0  0  0  0
  4 12  1  0  0  0  0
  4  5  1  0  0  0  0
  5 15  1  0  0  0  0
  5 14  1  0  0  0  0
  6 16  1  6  0  0  0
  6  5  1  0  0  0  0
  6 28  1  0  0  0  0
  8  2  1  0  0  0  0
 10  3  1  0  0  0  0
 13  4  1  0  0  0  0
 17 22  1  0  0  0  0
 18 17  2  0  0  0  0
 18 19  1  0  0  0  0
 19 20  2  0  0  0  0
 20 21  1  0  0  0  0
 21 25  1  0  0  0  0
 22 21  2  0  0  0  0
 23 17  1  0  0  0  0
 24 18  1  0  0  0  0
 26 27  2  0  0  0  0
 26 32  1  0  0  0  0
 28 26  1  0  0  0  0
 29 28  1  0  0  0  0
 31 30  1  0  0  0  0
 31 39  1  0  0  0  0
 32 31  2  0  0  0  0
 33 32  1  0  0  0  0
 33 35  2  0  0  0  0
 34 33  1  0  0  0  0
 35 37  1  0  0  0  0
 36 35  1  0  0  0  0
 37 38  1  0  0  0  0
 37 39  2  0  0  0  0
 39 40  1  0  0  0  0
M  END
>  <minimizedAffinity>
-5.45493984

>  <minimizedRMSD>
5.94492531

$$$$
