
 OpenBabel03272503053D

 34 36  0  0  0  0  0  0  0  0999 V2000
   38.4990   30.3720   47.3400 F   0  0  0  0  0  0  0  0  0  0  0  0
   38.7590   31.6190   47.7900 C   0  0  0  0  0  0  0  0  0  0  0  0
   38.1740   32.0590   48.9440 C   0  0  0  0  0  0  0  0  0  0  0  0
   38.4720   33.3310   49.3540 C   0  0  0  0  0  0  0  0  0  0  0  0
   39.3260   34.1620   48.6540 C   0  0  0  0  0  0  0  0  0  0  0  0
   39.9010   33.6930   47.4980 C   0  0  0  0  0  0  0  0  0  0  0  0
   39.6180   32.4060   47.0540 C   0  0  0  0  0  0  0  0  0  0  0  0
   38.0200   33.6960   50.2600 H   0  0  0  0  0  0  0  0  0  0  0  0
   39.5200   35.1570   49.0330 H   0  0  0  0  0  0  0  0  0  0  0  0
   40.5820   34.3300   46.9240 H   0  0  0  0  0  0  0  0  0  0  0  0
   36.7780   29.6000   51.4690 C   0  0  0  0  0  0  0  0  0  0  0  0
   37.6450   30.4710   50.8020 C   0  0  0  0  0  0  0  0  0  0  0  0
   37.2750   31.1440   49.6510 C   0  0  0  0  0  0  0  0  0  0  0  0
   36.0170   30.9120   49.2030 N   0  0  0  0  0  0  0  0  0  0  0  0
   35.1800   30.0730   49.8460 C   0  0  0  0  0  0  0  0  0  0  0  0
   35.5490   29.4330   50.9490 N   0  0  0  0  0  0  0  0  0  0  0  0
   37.2010   29.1320   52.3700 H   0  0  0  0  0  0  0  0  0  0  0  0
   38.6600   30.6680   51.1490 H   0  0  0  0  0  0  0  0  0  0  0  0
   34.1770   29.8900   49.4860 H   0  0  0  0  0  0  0  0  0  0  0  0
   39.3310   31.9770   44.7040 C   0  0  0  0  0  0  0  0  0  0  0  0
   38.2060   32.5170   44.9390 O   0  0  0  0  0  0  0  0  0  0  0  0
   40.1930   31.8750   45.8560 N   0  0  0  0  0  0  0  0  0  0  0  0
   41.1140   31.4440   45.7210 H   0  0  0  0  0  0  0  0  0  0  0  0
   38.2990   33.4620   42.2960 Cl  0  0  0  0  0  0  0  0  0  0  0  0
   39.3650   32.0660   42.2030 C   0  0  0  0  0  0  0  0  0  0  0  0
   39.7560   31.4880   43.3940 C   0  0  0  0  0  0  0  0  0  0  0  0
   40.6020   30.3770   43.3840 C   0  0  0  0  0  0  0  0  0  0  0  0
   40.9710   29.8460   44.2640 H   0  0  0  0  0  0  0  0  0  0  0  0
   41.0260   29.8830   42.1790 C   0  0  0  0  0  0  0  0  0  0  0  0
   41.6940   29.0090   42.1180 H   0  0  0  0  0  0  0  0  0  0  0  0
   40.6160   30.4830   41.0050 C   0  0  0  0  0  0  0  0  0  0  0  0
   40.9730   30.0630   40.0760 H   0  0  0  0  0  0  0  0  0  0  0  0
   39.7770   31.5870   40.9740 C   0  0  0  0  0  0  0  0  0  0  0  0
   39.2640   32.3410   39.4750 Cl  0  0  0  0  0  0  0  0  0  0  0  0
  1  2  1  0  0  0  0
  2  3  1  0  0  0  0
  3  4  2  0  0  0  0
  3 13  1  0  0  0  0
  4  8  1  0  0  0  0
  5  9  1  0  0  0  0
  5  4  1  0  0  0  0
  6  5  2  0  0  0  0
  7  6  1  0  0  0  0
  7  2  2  0  0  0  0
 10  6  1  0  0  0  0
 11 17  1  0  0  0  0
 12 18  1  0  0  0  0
 12 11  2  0  0  0  0
 13 12  1  0  0  0  0
 14 13  2  0  0  0  0
 14 15  1  0  0  0  0
 15 16  2  0  0  0  0
 16 11  1  0  0  0  0
 19 15  1  0  0  0  0
 20 21  2  0  0  0  0
 20 22  1  0  0  0  0
 22  7  1  0  0  0  0
 23 22  1  0  0  0  0
 25 24  1  0  0  0  0
 25 26  1  0  0  0  0
 26 20  1  0  0  0  0
 27 26  2  0  0  0  0
 27 28  1  0  0  0  0
 29 27  1  0  0  0  0
 30 29  1  0  0  0  0
 31 29  2  0  0  0  0
 32 31  1  0  0  0  0
 33 31  1  0  0  0  0
 33 25  2  0  0  0  0
 34 33  1  0  0  0  0
M  END
>  <minimizedAffinity>
-6.83865404

>  <minimizedRMSD>
0.275700808

$$$$
