
 OpenBabel03262523563D

 40 42  0  0  1  0  0  0  0  0999 V2000
   38.1280   30.6550   47.5330 C   0  0  1  0  0  0  0  0  0  0  0  0
   37.4380   30.8220   46.2620 C   0  0  0  0  0  0  0  0  0  0  0  0
   38.4590   30.7930   45.1640 C   0  0  0  0  0  0  0  0  0  0  0  0
   39.6410   31.5960   45.5110 C   0  0  0  0  0  0  0  0  0  0  0  0
   39.4860   32.5550   46.6290 C   0  0  0  0  0  0  0  0  0  0  0  0
   38.8170   31.9740   47.8700 C   0  0  1  0  0  0  0  0  0  0  0  0
   38.9850   29.9250   47.4390 H   0  0  0  0  0  0  0  0  0  0  0  0
   36.6480   30.0440   46.0480 H   0  0  0  0  0  0  0  0  0  0  0  0
   36.8900   31.8020   46.1950 H   0  0  0  0  0  0  0  0  0  0  0  0
   38.7640   29.7130   45.0340 H   0  0  0  0  0  0  0  0  0  0  0  0
   38.0170   31.0640   44.1820 H   0  0  0  0  0  0  0  0  0  0  0  0
   39.9250   32.1830   44.6130 H   0  0  0  0  0  0  0  0  0  0  0  0
   40.5310   30.9340   45.7210 H   0  0  0  0  0  0  0  0  0  0  0  0
   38.8610   33.3960   46.2960 H   0  0  0  0  0  0  0  0  0  0  0  0
   40.4920   32.9670   46.8790 H   0  0  0  0  0  0  0  0  0  0  0  0
   39.6370   31.7420   48.5820 H   0  0  0  0  0  0  0  0  0  0  0  0
   37.1640   29.5070   50.9310 C   0  0  0  0  0  0  0  0  0  0  0  0
   37.9770   29.8560   49.8170 C   0  0  0  0  0  0  0  0  0  0  0  0
   37.2970   30.3150   48.6970 C   0  0  0  0  0  0  0  0  0  0  0  0
   35.9140   30.4150   48.6990 N   0  0  0  0  0  0  0  0  0  0  0  0
   35.1940   30.0730   49.7760 C   0  0  0  0  0  0  0  0  0  0  0  0
   35.8160   29.6130   50.9050 N   0  0  0  0  0  0  0  0  0  0  0  0
   37.6410   29.1380   51.8400 H   0  0  0  0  0  0  0  0  0  0  0  0
   39.0520   29.7640   49.8550 H   0  0  0  0  0  0  0  0  0  0  0  0
   34.1260   30.1950   49.6530 H   0  0  0  0  0  0  0  0  0  0  0  0
   38.1260   34.0200   49.4120 C   0  0  0  0  0  0  0  0  0  0  0  0
   39.3610   34.1590   49.6700 O   0  0  0  0  0  0  0  0  0  0  0  0
   37.9550   32.9520   48.4760 N   0  0  0  0  0  0  0  0  0  0  0  0
   36.9890   32.7490   48.0690 H   0  0  0  0  0  0  0  0  0  0  0  0
   37.1540   36.5690   48.0390 Cl  0  0  0  0  0  0  0  0  0  0  0  0
   36.3340   35.8530   49.4030 C   0  0  0  0  0  0  0  0  0  0  0  0
   36.9280   34.7130   49.8740 C   0  0  0  0  0  0  0  0  0  0  0  0
   36.3760   34.0330   50.9670 C   0  0  0  0  0  0  0  0  0  0  0  0
   36.7310   33.1350   51.4390 H   0  0  0  0  0  0  0  0  0  0  0  0
   35.2150   34.5180   51.5790 C   0  0  0  0  0  0  0  0  0  0  0  0
   34.7380   34.0430   52.4270 H   0  0  0  0  0  0  0  0  0  0  0  0
   34.6270   35.6720   51.0900 C   0  0  0  0  0  0  0  0  0  0  0  0
   33.7390   36.0580   51.5480 H   0  0  0  0  0  0  0  0  0  0  0  0
   35.1910   36.3240   50.0120 C   0  0  0  0  0  0  0  0  0  0  0  0
   34.5080   37.7870   49.3350 Cl  0  0  0  0  0  0  0  0  0  0  0  0
  1  7  1  6  0  0  0
  1  6  1  0  0  0  0
  1 19  1  0  0  0  0
  2  1  1  0  0  0  0
  3  4  1  0  0  0  0
  3  2  1  0  0  0  0
  4 13  1  0  0  0  0
  4  5  1  0  0  0  0
  5 15  1  0  0  0  0
  5  6  1  0  0  0  0
  6 28  1  0  0  0  0
  6 16  1  1  0  0  0
  8  2  1  0  0  0  0
  9  2  1  0  0  0  0
 10  3  1  0  0  0  0
 11  3  1  0  0  0  0
 12  4  1  0  0  0  0
 14  5  1  0  0  0  0
 17 23  1  0  0  0  0
 18 24  1  0  0  0  0
 18 17  2  0  0  0  0
 19 20  2  0  0  0  0
 19 18  1  0  0  0  0
 20 21  1  0  0  0  0
 21 22  2  0  0  0  0
 22 17  1  0  0  0  0
 25 21  1  0  0  0  0
 26 27  2  0  0  0  0
 26 32  1  0  0  0  0
 28 26  1  0  0  0  0
 29 28  1  0  0  0  0
 30 31  1  0  0  0  0
 31 32  2  0  0  0  0
 31 39  1  0  0  0  0
 32 33  1  0  0  0  0
 33 34  1  0  0  0  0
 33 35  2  0  0  0  0
 35 36  1  0  0  0  0
 37 38  1  0  0  0  0
 37 35  1  0  0  0  0
 39 37  2  0  0  0  0
 40 39  1  0  0  0  0
M  END
>  <minimizedAffinity>
9.4907608

>  <minimizedRMSD>
0.60580492

$$$$
