
 OpenBabel03272503133D

 48 52  0  0  0  0  0  0  0  0999 V2000
   39.2140   32.2430   42.5750 C   0  0  0  0  0  0  0  0  0  0  0  0
   39.7150   31.5080   43.6390 C   0  0  0  0  0  0  0  0  0  0  0  0
   40.5730   30.4670   43.4800 C   0  0  0  0  0  0  0  0  0  0  0  0
   40.9830   30.1020   42.1940 C   0  0  0  0  0  0  0  0  0  0  0  0
   41.8030   29.1590   41.7400 N   0  0  0  0  0  0  0  0  0  0  0  0
   41.8520   29.2580   40.4250 C   0  0  0  0  0  0  0  0  0  0  0  0
   41.0600   30.2650   40.0490 N   0  0  0  0  0  0  0  0  0  0  0  0
   40.4890   30.8270   41.1450 C   0  0  0  0  0  0  0  0  0  0  0  0
   39.6040   31.9040   41.2620 C   0  0  0  0  0  0  0  0  0  0  0  0
   38.5300   33.0740   42.6840 H   0  0  0  0  0  0  0  0  0  0  0  0
   40.9690   29.8900   44.2920 H   0  0  0  0  0  0  0  0  0  0  0  0
   42.3440   28.4360   42.3000 H   0  0  0  0  0  0  0  0  0  0  0  0
   42.4100   28.6670   39.6930 H   0  0  0  0  0  0  0  0  0  0  0  0
   39.2710   31.9140   44.9530 C   0  0  0  0  0  0  0  0  0  0  0  0
   38.1780   32.5590   45.0750 O   0  0  0  0  0  0  0  0  0  0  0  0
   39.9520   31.6570   46.1670 N   0  0  0  0  0  0  0  0  0  0  0  0
   40.8460   31.1450   46.1250 H   0  0  0  0  0  0  0  0  0  0  0  0
   38.1170   30.1570   47.5010 F   0  0  0  0  0  0  0  0  0  0  0  0
   38.3720   31.3990   47.9950 C   0  0  0  0  0  0  0  0  0  0  0  0
   37.7160   31.8320   49.1070 C   0  0  0  0  0  0  0  0  0  0  0  0
   38.0200   33.0900   49.5520 C   0  0  0  0  0  0  0  0  0  0  0  0
   38.9300   33.8910   48.9290 C   0  0  0  0  0  0  0  0  0  0  0  0
   39.5840   33.4260   47.7990 C   0  0  0  0  0  0  0  0  0  0  0  0
   39.2920   32.1560   47.3320 C   0  0  0  0  0  0  0  0  0  0  0  0
   37.5070   33.4590   50.4420 H   0  0  0  0  0  0  0  0  0  0  0  0
   39.1660   34.8840   49.2850 H   0  0  0  0  0  0  0  0  0  0  0  0
   40.3090   34.0500   47.2950 H   0  0  0  0  0  0  0  0  0  0  0  0
   36.0760   29.3520   51.4520 C   0  0  0  0  0  0  0  0  0  0  0  0
   37.0400   30.2120   50.8690 C   0  0  0  0  0  0  0  0  0  0  0  0
   36.7480   30.9350   49.7360 C   0  0  0  0  0  0  0  0  0  0  0  0
   35.4850   30.7760   49.2080 N   0  0  0  0  0  0  0  0  0  0  0  0
   34.5750   29.9620   49.7620 C   0  0  0  0  0  0  0  0  0  0  0  0
   34.8670   29.2670   50.8580 N   0  0  0  0  0  0  0  0  0  0  0  0
   36.3110   28.7870   52.3430 H   0  0  0  0  0  0  0  0  0  0  0  0
   38.0270   30.3110   51.3150 H   0  0  0  0  0  0  0  0  0  0  0  0
   33.6420   29.9640   49.2100 H   0  0  0  0  0  0  0  0  0  0  0  0
   39.1150   32.6240   40.2280 O   0  0  0  0  0  0  0  0  0  0  0  0
   39.8710   31.8600   37.1460 Cl  0  0  0  0  0  0  0  0  0  0  0  0
   38.3090   32.2570   37.8000 C   0  0  0  0  0  0  0  0  0  0  0  0
   38.4070   32.5230   39.1340 C   0  0  0  0  0  0  0  0  0  0  0  0
   37.1200   32.8710   39.6410 C   0  0  0  0  0  0  0  0  0  0  0  0
   36.7410   33.1570   40.6500 H   0  0  0  0  0  0  0  0  0  0  0  0
   35.9460   32.9290   38.8880 C   0  0  0  0  0  0  0  0  0  0  0  0
   34.9100   33.1760   39.1450 H   0  0  0  0  0  0  0  0  0  0  0  0
   36.0090   32.6280   37.5330 C   0  0  0  0  0  0  0  0  0  0  0  0
   35.1920   32.6300   36.8300 H   0  0  0  0  0  0  0  0  0  0  0  0
   37.2070   32.2900   36.9900 C   0  0  0  0  0  0  0  0  0  0  0  0
   37.4400   31.8900   35.3200 Cl  0  0  0  0  0  0  0  0  0  0  0  0
  1 10  1  0  0  0  0
  1  2  1  0  0  0  0
  2 14  1  0  0  0  0
  3  2  2  0  0  0  0
  3 11  1  0  0  0  0
  4  3  1  0  0  0  0
  5  4  1  0  0  0  0
  5 12  1  0  0  0  0
  6  5  1  0  0  0  0
  7  6  2  0  0  0  0
  7  8  1  0  0  0  0
  8  9  1  0  0  0  0
  8  4  2  0  0  0  0
  9  1  2  0  0  0  0
 13  6  1  0  0  0  0
 14 15  2  0  0  0  0
 14 16  1  0  0  0  0
 16 24  1  0  0  0  0
 17 16  1  0  0  0  0
 18 19  1  0  0  0  0
 19 20  1  0  0  0  0
 20 21  2  0  0  0  0
 20 30  1  0  0  0  0
 21 25  1  0  0  0  0
 22 26  1  0  0  0  0
 22 21  1  0  0  0  0
 23 22  2  0  0  0  0
 24 23  1  0  0  0  0
 24 19  2  0  0  0  0
 27 23  1  0  0  0  0
 28 34  1  0  0  0  0
 29 35  1  0  0  0  0
 29 28  1  0  0  0  0
 30 29  2  0  0  0  0
 31 30  1  0  0  0  0
 31 32  2  0  0  0  0
 32 33  1  0  0  0  0
 33 28  2  0  0  0  0
 36 32  1  0  0  0  0
 37  9  1  0  0  0  0
 38 39  1  0  0  0  0
 39 40  1  0  0  0  0
 40 41  2  0  0  0  0
 40 37  1  0  0  0  0
 41 42  1  0  0  0  0
 43 44  1  0  0  0  0
 43 41  1  0  0  0  0
 45 43  2  0  0  0  0
 46 45  1  0  0  0  0
 47 45  1  0  0  0  0
 47 39  2  0  0  0  0
 48 47  1  0  0  0  0
M  END
>  <minimizedAffinity>
-7.07868099

>  <minimizedRMSD>
0.256444365

$$$$
