
 OpenBabel03272509313D

 40 42  0  0  1  0  0  0  0  0999 V2000
   37.1440   31.3940   48.1110 C   0  0  2  0  0  0  0  0  0  0  0  0
   37.9800   32.0650   49.1610 C   0  0  0  0  0  0  0  0  0  0  0  0
   38.3670   31.1290   50.2880 C   0  0  0  0  0  0  0  0  0  0  0  0
   37.1260   30.5120   50.9320 C   0  0  0  0  0  0  0  0  0  0  0  0
   36.0170   30.2150   49.9490 C   0  0  0  0  0  0  0  0  0  0  0  0
   36.6440   30.0600   48.5550 C   0  0  1  0  0  0  0  0  0  0  0  0
   36.2210   31.9750   47.8390 H   0  0  0  0  0  0  0  0  0  0  0  0
   37.2620   32.7980   49.6650 H   0  0  0  0  0  0  0  0  0  0  0  0
   38.8010   32.6660   48.8310 H   0  0  0  0  0  0  0  0  0  0  0  0
   38.8830   31.7110   51.0470 H   0  0  0  0  0  0  0  0  0  0  0  0
   38.9740   30.2780   49.9290 H   0  0  0  0  0  0  0  0  0  0  0  0
   37.4470   29.5530   51.4100 H   0  0  0  0  0  0  0  0  0  0  0  0
   36.7870   31.1960   51.7180 H   0  0  0  0  0  0  0  0  0  0  0  0
   35.3360   31.0610   49.8840 H   0  0  0  0  0  0  0  0  0  0  0  0
   35.4430   29.3070   50.2040 H   0  0  0  0  0  0  0  0  0  0  0  0
   37.4460   29.3990   48.7710 H   0  0  0  0  0  0  0  0  0  0  0  0
   37.9030   31.2310   46.8450 C   0  0  0  0  0  0  0  0  0  0  0  0
   39.3120   31.2850   46.9690 C   0  0  0  0  0  0  0  0  0  0  0  0
   40.0440   31.1260   45.7850 C   0  0  0  0  0  0  0  0  0  0  0  0
   39.3650   30.9320   44.6020 N   0  0  0  0  0  0  0  0  0  0  0  0
   38.0020   30.8870   44.5410 C   0  0  0  0  0  0  0  0  0  0  0  0
   37.2950   31.0400   45.6750 N   0  0  0  0  0  0  0  0  0  0  0  0
   39.9520   31.4200   47.8180 H   0  0  0  0  0  0  0  0  0  0  0  0
   41.1070   31.1450   45.7170 H   0  0  0  0  0  0  0  0  0  0  0  0
   37.5340   30.7280   43.5800 H   0  0  0  0  0  0  0  0  0  0  0  0
   34.5310   29.6530   47.2330 C   0  0  0  0  0  0  0  0  0  0  0  0
   33.7660   30.6650   47.5090 O   0  0  0  0  0  0  0  0  0  0  0  0
   35.8600   29.3650   47.6020 N   0  0  0  0  0  0  0  0  0  0  0  0
   36.1860   28.5220   47.0340 H   0  0  0  0  0  0  0  0  0  0  0  0
   33.8050   26.6900   47.9510 Cl  0  0  0  0  0  0  0  0  0  0  0  0
   33.2310   27.5090   46.5450 C   0  0  0  0  0  0  0  0  0  0  0  0
   33.6570   28.7940   46.3950 C   0  0  0  0  0  0  0  0  0  0  0  0
   33.1540   29.4050   45.2320 C   0  0  0  0  0  0  0  0  0  0  0  0
   33.4370   30.4490   45.0140 H   0  0  0  0  0  0  0  0  0  0  0  0
   32.3160   28.8340   44.2960 C   0  0  0  0  0  0  0  0  0  0  0  0
   31.9870   29.3960   43.4340 H   0  0  0  0  0  0  0  0  0  0  0  0
   31.9470   27.5390   44.5390 C   0  0  0  0  0  0  0  0  0  0  0  0
   31.2910   27.0450   43.8310 H   0  0  0  0  0  0  0  0  0  0  0  0
   32.4020   26.8870   45.6550 C   0  0  0  0  0  0  0  0  0  0  0  0
   31.9510   25.2240   46.0070 Cl  0  0  0  0  0  0  0  0  0  0  0  0
  1  7  1  6  0  0  0
  1  6  1  0  0  0  0
  1  2  1  0  0  0  0
  2  8  1  0  0  0  0
  2  3  1  0  0  0  0
  3  4  1  0  0  0  0
  3 10  1  0  0  0  0
  4 12  1  0  0  0  0
  4 13  1  0  0  0  0
  5 15  1  0  0  0  0
  5  4  1  0  0  0  0
  6 16  1  1  0  0  0
  6  5  1  0  0  0  0
  9  2  1  0  0  0  0
 11  3  1  0  0  0  0
 14  5  1  0  0  0  0
 17 18  1  0  0  0  0
 17  1  1  0  0  0  0
 18 23  1  0  0  0  0
 19 18  2  0  0  0  0
 20 19  1  0  0  0  0
 21 20  2  0  0  0  0
 21 22  1  0  0  0  0
 22 17  2  0  0  0  0
 24 19  1  0  0  0  0
 25 21  1  0  0  0  0
 26 27  2  0  0  0  0
 26 28  1  0  0  0  0
 28  6  1  0  0  0  0
 29 28  1  0  0  0  0
 31 30  1  0  0  0  0
 32 31  1  0  0  0  0
 32 26  1  0  0  0  0
 33 32  2  0  0  0  0
 34 33  1  0  0  0  0
 35 37  2  0  0  0  0
 35 33  1  0  0  0  0
 36 35  1  0  0  0  0
 37 39  1  0  0  0  0
 38 37  1  0  0  0  0
 39 40  1  0  0  0  0
 39 31  2  0  0  0  0
M  END
>  <minimizedAffinity>
-5.45086384

>  <minimizedRMSD>
2.58736968

$$$$
