
 OpenBabel03272503133D

 48 52  0  0  0  0  0  0  0  0999 V2000
   39.2210   32.2320   42.5690 C   0  0  0  0  0  0  0  0  0  0  0  0
   39.7220   31.5000   43.6350 C   0  0  0  0  0  0  0  0  0  0  0  0
   40.5810   30.4600   43.4790 C   0  0  0  0  0  0  0  0  0  0  0  0
   40.9930   30.0920   42.1950 C   0  0  0  0  0  0  0  0  0  0  0  0
   41.8140   29.1490   41.7430 N   0  0  0  0  0  0  0  0  0  0  0  0
   41.8630   29.2440   40.4280 C   0  0  0  0  0  0  0  0  0  0  0  0
   41.0700   30.2490   40.0490 N   0  0  0  0  0  0  0  0  0  0  0  0
   40.4980   30.8140   41.1430 C   0  0  0  0  0  0  0  0  0  0  0  0
   39.6120   31.8900   41.2570 C   0  0  0  0  0  0  0  0  0  0  0  0
   38.5360   33.0630   42.6750 H   0  0  0  0  0  0  0  0  0  0  0  0
   40.9770   29.8850   44.2930 H   0  0  0  0  0  0  0  0  0  0  0  0
   42.3550   28.4280   42.3060 H   0  0  0  0  0  0  0  0  0  0  0  0
   42.4220   28.6520   39.6980 H   0  0  0  0  0  0  0  0  0  0  0  0
   39.2770   31.9090   44.9480 C   0  0  0  0  0  0  0  0  0  0  0  0
   38.1850   32.5560   45.0670 O   0  0  0  0  0  0  0  0  0  0  0  0
   39.9560   31.6530   46.1630 N   0  0  0  0  0  0  0  0  0  0  0  0
   40.8490   31.1390   46.1230 H   0  0  0  0  0  0  0  0  0  0  0  0
   38.1220   30.1560   47.5010 F   0  0  0  0  0  0  0  0  0  0  0  0
   38.3760   31.4000   47.9910 C   0  0  0  0  0  0  0  0  0  0  0  0
   37.7190   31.8350   49.1010 C   0  0  0  0  0  0  0  0  0  0  0  0
   38.0220   33.0950   49.5430 C   0  0  0  0  0  0  0  0  0  0  0  0
   38.9320   33.8940   48.9180 C   0  0  0  0  0  0  0  0  0  0  0  0
   39.5860   33.4270   47.7890 C   0  0  0  0  0  0  0  0  0  0  0  0
   39.2950   32.1550   47.3260 C   0  0  0  0  0  0  0  0  0  0  0  0
   37.5090   33.4670   50.4320 H   0  0  0  0  0  0  0  0  0  0  0  0
   39.1670   34.8890   49.2710 H   0  0  0  0  0  0  0  0  0  0  0  0
   40.3110   34.0500   47.2840 H   0  0  0  0  0  0  0  0  0  0  0  0
   36.0810   29.3590   51.4510 C   0  0  0  0  0  0  0  0  0  0  0  0
   37.0440   30.2170   50.8660 C   0  0  0  0  0  0  0  0  0  0  0  0
   36.7510   30.9390   49.7330 C   0  0  0  0  0  0  0  0  0  0  0  0
   35.4870   30.7810   49.2080 N   0  0  0  0  0  0  0  0  0  0  0  0
   34.5780   29.9680   49.7640 C   0  0  0  0  0  0  0  0  0  0  0  0
   34.8710   29.2740   50.8600 N   0  0  0  0  0  0  0  0  0  0  0  0
   36.3180   28.7930   52.3430 H   0  0  0  0  0  0  0  0  0  0  0  0
   38.0330   30.3150   51.3100 H   0  0  0  0  0  0  0  0  0  0  0  0
   33.6440   29.9720   49.2140 H   0  0  0  0  0  0  0  0  0  0  0  0
   39.1230   32.6070   40.2200 O   0  0  0  0  0  0  0  0  0  0  0  0
   36.1490   33.0610   41.4860 Cl  0  0  0  0  0  0  0  0  0  0  0  0
   36.8120   33.7470   40.0320 C   0  0  0  0  0  0  0  0  0  0  0  0
   38.0890   33.3080   39.8390 C   0  0  0  0  0  0  0  0  0  0  0  0
   38.6000   33.8630   38.6290 C   0  0  0  0  0  0  0  0  0  0  0  0
   39.5740   33.7790   38.0940 H   0  0  0  0  0  0  0  0  0  0  0  0
   37.9020   34.7210   37.7770 C   0  0  0  0  0  0  0  0  0  0  0  0
   38.1690   35.2120   36.8350 H   0  0  0  0  0  0  0  0  0  0  0  0
   36.6020   35.0780   38.1130 C   0  0  0  0  0  0  0  0  0  0  0  0
   35.9440   35.7280   37.5570 H   0  0  0  0  0  0  0  0  0  0  0  0
   36.0560   34.5820   39.2540 C   0  0  0  0  0  0  0  0  0  0  0  0
   34.4510   34.9370   39.8000 Cl  0  0  0  0  0  0  0  0  0  0  0  0
  1 10  1  0  0  0  0
  1  2  1  0  0  0  0
  2 14  1  0  0  0  0
  3  2  2  0  0  0  0
  3 11  1  0  0  0  0
  4  3  1  0  0  0  0
  5  4  1  0  0  0  0
  5 12  1  0  0  0  0
  6  5  1  0  0  0  0
  7  6  2  0  0  0  0
  7  8  1  0  0  0  0
  8  9  1  0  0  0  0
  8  4  2  0  0  0  0
  9  1  2  0  0  0  0
 13  6  1  0  0  0  0
 14 15  2  0  0  0  0
 14 16  1  0  0  0  0
 16 24  1  0  0  0  0
 17 16  1  0  0  0  0
 18 19  1  0  0  0  0
 19 20  1  0  0  0  0
 20 21  2  0  0  0  0
 20 30  1  0  0  0  0
 21 25  1  0  0  0  0
 22 26  1  0  0  0  0
 22 21  1  0  0  0  0
 23 22  2  0  0  0  0
 24 23  1  0  0  0  0
 24 19  2  0  0  0  0
 27 23  1  0  0  0  0
 28 34  1  0  0  0  0
 29 35  1  0  0  0  0
 29 28  1  0  0  0  0
 30 29  2  0  0  0  0
 31 30  1  0  0  0  0
 31 32  2  0  0  0  0
 32 33  1  0  0  0  0
 33 28  2  0  0  0  0
 36 32  1  0  0  0  0
 37  9  1  0  0  0  0
 39 38  1  0  0  0  0
 40 39  1  0  0  0  0
 40 37  1  0  0  0  0
 41 40  2  0  0  0  0
 42 41  1  0  0  0  0
 43 45  2  0  0  0  0
 43 41  1  0  0  0  0
 44 43  1  0  0  0  0
 45 47  1  0  0  0  0
 46 45  1  0  0  0  0
 47 48  1  0  0  0  0
 47 39  2  0  0  0  0
M  END
>  <minimizedAffinity>
-7.64417887

>  <minimizedRMSD>
1.32568777

$$$$
