
 OpenBabel03272508583D

 42 45  0  0  1  0  0  0  0  0999 V2000
   39.1450   31.4970   43.3510 C   0  0  0  0  0  0  0  0  0  0  0  0
   40.1220   30.5500   43.4850 C   0  0  0  0  0  0  0  0  0  0  0  0
   40.8340   30.1960   42.3520 C   0  0  0  0  0  0  0  0  0  0  0  0
   40.5180   30.8120   41.1670 C   0  0  0  0  0  0  0  0  0  0  0  0
   39.5310   31.7690   41.0260 C   0  0  0  0  0  0  0  0  0  0  0  0
   38.8810   32.0670   42.1570 N   0  0  0  0  0  0  0  0  0  0  0  0
   40.3600   30.0740   44.4290 H   0  0  0  0  0  0  0  0  0  0  0  0
   41.6130   29.4560   42.4120 H   0  0  0  0  0  0  0  0  0  0  0  0
   41.1050   30.4990   40.3110 H   0  0  0  0  0  0  0  0  0  0  0  0
   38.3710   31.8940   44.5430 C   0  0  0  0  0  0  0  0  0  0  0  0
   37.2490   32.4420   44.4340 O   0  0  0  0  0  0  0  0  0  0  0  0
   38.9460   31.6340   45.8490 N   0  0  0  0  0  0  0  0  0  0  0  0
   39.9320   31.3880   45.9900 H   0  0  0  0  0  0  0  0  0  0  0  0
   38.4360   31.1090   48.2190 C   0  0  2  0  0  0  0  0  0  0  0  0
   38.6800   32.5720   48.1450 C   0  0  0  0  0  0  0  0  0  0  0  0
   38.0710   31.7310   46.9890 C   0  0  1  0  0  0  0  0  0  0  0  0
   39.3750   30.5230   48.3180 H   0  0  0  0  0  0  0  0  0  0  0  0
   39.6860   32.9670   48.0200 H   0  0  0  0  0  0  0  0  0  0  0  0
   37.9710   33.1850   48.7440 H   0  0  0  0  0  0  0  0  0  0  0  0
   36.9940   31.9730   46.7930 H   0  0  0  0  0  0  0  0  0  0  0  0
   35.0630   30.2340   49.5260 C   0  0  0  0  0  0  0  0  0  0  0  0
   35.3950   29.5520   50.7390 C   0  0  0  0  0  0  0  0  0  0  0  0
   36.7890   29.4150   51.0880 C   0  0  0  0  0  0  0  0  0  0  0  0
   37.7440   29.9370   50.2540 N   0  0  0  0  0  0  0  0  0  0  0  0
   37.3550   30.5680   49.1260 C   0  0  0  0  0  0  0  0  0  0  0  0
   36.0320   30.7340   48.7340 N   0  0  0  0  0  0  0  0  0  0  0  0
   34.0100   30.3160   49.2990 H   0  0  0  0  0  0  0  0  0  0  0  0
   34.6650   29.1370   51.4020 H   0  0  0  0  0  0  0  0  0  0  0  0
   37.0370   28.9000   52.0030 H   0  0  0  0  0  0  0  0  0  0  0  0
   39.2470   32.3830   39.7340 C   0  0  0  0  0  0  0  0  0  0  0  0
   38.6720   33.5170   39.7320 O   0  0  0  0  0  0  0  0  0  0  0  0
   37.0890   30.5700   38.7310 Cl  0  0  0  0  0  0  0  0  0  0  0  0
   38.5860   30.9770   37.9290 C   0  0  0  0  0  0  0  0  0  0  0  0
   39.5610   31.8240   38.4300 C   0  0  0  0  0  0  0  0  0  0  0  0
   40.7180   32.0940   37.7310 C   0  0  0  0  0  0  0  0  0  0  0  0
   41.4160   32.7590   38.1940 H   0  0  0  0  0  0  0  0  0  0  0  0
   40.8660   31.4840   36.5040 C   0  0  0  0  0  0  0  0  0  0  0  0
   41.7790   31.7020   35.9620 H   0  0  0  0  0  0  0  0  0  0  0  0
   39.9280   30.6350   35.9620 C   0  0  0  0  0  0  0  0  0  0  0  0
   40.0810   30.1770   34.9980 H   0  0  0  0  0  0  0  0  0  0  0  0
   38.7720   30.3790   36.6850 C   0  0  0  0  0  0  0  0  0  0  0  0
   37.6090   29.2960   35.9590 Cl  0  0  0  0  0  0  0  0  0  0  0  0
  1  2  1  0  0  0  0
  1 10  1  0  0  0  0
  2  7  1  0  0  0  0
  3  8  1  0  0  0  0
  3  2  2  0  0  0  0
  4  3  1  0  0  0  0
  5  4  2  0  0  0  0
  5  6  1  0  0  0  0
  6  1  2  0  0  0  0
  9  4  1  0  0  0  0
 10 12  1  0  0  0  0
 11 10  2  0  0  0  0
 12 13  1  0  0  0  0
 12 16  1  0  0  0  0
 14 17  1  6  0  0  0
 14 25  1  0  0  0  0
 15 14  1  0  0  0  0
 15 19  1  0  0  0  0
 16 20  1  6  0  0  0
 16 15  1  0  0  0  0
 16 14  1  0  0  0  0
 18 15  1  0  0  0  0
 21 22  1  0  0  0  0
 22 23  2  0  0  0  0
 22 28  1  0  0  0  0
 23 29  1  0  0  0  0
 24 23  1  0  0  0  0
 25 24  2  0  0  0  0
 26 25  1  0  0  0  0
 26 21  2  0  0  0  0
 27 21  1  0  0  0  0
 30  5  1  0  0  0  0
 31 30  2  0  0  0  0
 33 34  1  0  0  0  0
 33 32  1  0  0  0  0
 34 30  1  0  0  0  0
 35 36  1  0  0  0  0
 35 34  2  0  0  0  0
 37 35  1  0  0  0  0
 38 37  1  0  0  0  0
 39 37  2  0  0  0  0
 39 41  1  0  0  0  0
 40 39  1  0  0  0  0
 41 33  2  0  0  0  0
 42 41  1  0  0  0  0
M  END
>  <minimizedAffinity>
-4.96604204

>  <minimizedRMSD>
0.492737174

$$$$
