
 OpenBabel03272507143D

 42 46  0  0  0  0  0  0  0  0999 V2000
   35.7290   29.0760   49.8250 C   0  0  0  0  0  0  0  0  0  0  0  0
   34.7120   29.5490   50.5900 C   0  0  0  0  0  0  0  0  0  0  0  0
   33.5400   28.9640   50.1090 C   0  0  0  0  0  0  0  0  0  0  0  0
   33.9400   28.1450   49.0450 C   0  0  0  0  0  0  0  0  0  0  0  0
   35.2280   28.2630   48.9400 O   0  0  0  0  0  0  0  0  0  0  0  0
   34.7610   30.2470   51.4240 H   0  0  0  0  0  0  0  0  0  0  0  0
   32.5790   29.1670   50.5370 H   0  0  0  0  0  0  0  0  0  0  0  0
   33.3800   26.3300   47.4360 C   0  0  0  0  0  0  0  0  0  0  0  0
   32.9860   27.3470   48.2660 C   0  0  0  0  0  0  0  0  0  0  0  0
   31.6480   27.6860   48.4280 C   0  0  0  0  0  0  0  0  0  0  0  0
   30.7170   26.9480   47.7110 C   0  0  0  0  0  0  0  0  0  0  0  0
   29.3830   27.0540   47.6800 N   0  0  0  0  0  0  0  0  0  0  0  0
   28.9390   26.1160   46.8420 N   0  0  0  0  0  0  0  0  0  0  0  0
   29.9740   25.4310   46.3540 C   0  0  0  0  0  0  0  0  0  0  0  0
   31.1560   25.9330   46.8870 C   0  0  0  0  0  0  0  0  0  0  0  0
   32.4930   25.5980   46.7270 C   0  0  0  0  0  0  0  0  0  0  0  0
   34.4610   26.1470   47.3800 H   0  0  0  0  0  0  0  0  0  0  0  0
   31.2680   28.4830   49.0710 H   0  0  0  0  0  0  0  0  0  0  0  0
   28.7490   27.7160   48.1850 H   0  0  0  0  0  0  0  0  0  0  0  0
   29.9740   24.5920   45.6410 H   0  0  0  0  0  0  0  0  0  0  0  0
   32.7920   24.7940   46.0680 H   0  0  0  0  0  0  0  0  0  0  0  0
   37.1110   29.4800   50.0480 C   0  0  0  0  0  0  0  0  0  0  0  0
   37.7890   28.8740   50.9200 O   0  0  0  0  0  0  0  0  0  0  0  0
   37.6250   30.5650   49.2450 C   0  0  0  0  0  0  0  0  0  0  0  0
   38.2940   31.5800   49.9070 C   0  0  0  0  0  0  0  0  0  0  0  0
   38.8050   32.6430   49.1710 C   0  0  0  0  0  0  0  0  0  0  0  0
   38.6100   32.6150   47.8230 N   0  0  0  0  0  0  0  0  0  0  0  0
   37.9600   31.6240   47.2020 C   0  0  0  0  0  0  0  0  0  0  0  0
   37.4750   30.6100   47.9230 N   0  0  0  0  0  0  0  0  0  0  0  0
   38.4750   31.6520   50.9580 H   0  0  0  0  0  0  0  0  0  0  0  0
   39.3420   33.4700   49.6440 H   0  0  0  0  0  0  0  0  0  0  0  0
   39.8980   33.3210   45.7920 Cl  0  0  0  0  0  0  0  0  0  0  0  0
   38.6280   32.4100   44.9700 C   0  0  0  0  0  0  0  0  0  0  0  0
   37.7810   31.6490   45.7520 C   0  0  0  0  0  0  0  0  0  0  0  0
   36.7740   30.9190   45.1580 C   0  0  0  0  0  0  0  0  0  0  0  0
   36.0880   30.3100   45.7290 H   0  0  0  0  0  0  0  0  0  0  0  0
   36.6150   30.9530   43.7680 C   0  0  0  0  0  0  0  0  0  0  0  0
   35.8390   30.4000   43.2280 H   0  0  0  0  0  0  0  0  0  0  0  0
   37.4880   31.7280   43.0350 C   0  0  0  0  0  0  0  0  0  0  0  0
   37.3730   31.7620   41.9620 H   0  0  0  0  0  0  0  0  0  0  0  0
   38.4940   32.4590   43.6100 C   0  0  0  0  0  0  0  0  0  0  0  0
   39.6200   33.4580   42.6920 Cl  0  0  0  0  0  0  0  0  0  0  0  0
  1 22  1  0  0  0  0
  1  2  2  0  0  0  0
  2  6  1  0  0  0  0
  3  7  1  0  0  0  0
  3  2  1  0  0  0  0
  4  3  2  0  0  0  0
  5  4  1  0  0  0  0
  5  1  1  0  0  0  0
  8  9  1  0  0  0  0
  9 10  2  0  0  0  0
  9  4  1  0  0  0  0
 10 18  1  0  0  0  0
 11 10  1  0  0  0  0
 12 11  1  0  0  0  0
 12 19  1  0  0  0  0
 13 12  1  0  0  0  0
 14 13  2  0  0  0  0
 14 15  1  0  0  0  0
 15 11  2  0  0  0  0
 16 15  1  0  0  0  0
 16  8  2  0  0  0  0
 17  8  1  0  0  0  0
 20 14  1  0  0  0  0
 21 16  1  0  0  0  0
 22 23  2  0  0  0  0
 24 25  1  0  0  0  0
 24 22  1  0  0  0  0
 25 30  1  0  0  0  0
 26 31  1  0  0  0  0
 26 25  2  0  0  0  0
 27 26  1  0  0  0  0
 28 27  2  0  0  0  0
 28 29  1  0  0  0  0
 29 24  2  0  0  0  0
 33 34  1  0  0  0  0
 33 32  1  0  0  0  0
 34 28  1  0  0  0  0
 35 36  1  0  0  0  0
 35 34  2  0  0  0  0
 37 35  1  0  0  0  0
 38 37  1  0  0  0  0
 39 41  1  0  0  0  0
 39 37  2  0  0  0  0
 40 39  1  0  0  0  0
 41 33  2  0  0  0  0
 42 41  1  0  0  0  0
M  END
>  <minimizedAffinity>
-7.18460178

>  <minimizedRMSD>
0.709726751

$$$$
