
 OpenBabel03262521133D

 33 35  0  0  0  0  0  0  0  0999 V2000
   31.7180   29.5680   45.4970 C   0  0  0  0  0  0  0  0  0  0  0  0
   30.9050   28.9750   44.5680 C   0  0  0  0  0  0  0  0  0  0  0  0
   29.8110   28.5440   45.1780 N   0  0  0  0  0  0  0  0  0  0  0  0
   29.8790   28.8360   46.4920 C   0  0  0  0  0  0  0  0  0  0  0  0
   31.0550   29.4660   46.6800 N   0  0  0  0  0  0  0  0  0  0  0  0
   31.1400   28.8850   43.5100 H   0  0  0  0  0  0  0  0  0  0  0  0
   29.0310   28.0530   44.6800 H   0  0  0  0  0  0  0  0  0  0  0  0
   30.8120   27.6740   49.1580 Cl  0  0  0  0  0  0  0  0  0  0  0  0
   29.1460   28.0040   48.7460 C   0  0  0  0  0  0  0  0  0  0  0  0
   28.8820   28.5320   47.4980 C   0  0  0  0  0  0  0  0  0  0  0  0
   27.5480   28.7710   47.2340 C   0  0  0  0  0  0  0  0  0  0  0  0
   27.2980   29.1880   46.2530 H   0  0  0  0  0  0  0  0  0  0  0  0
   26.4880   28.5340   48.0860 C   0  0  0  0  0  0  0  0  0  0  0  0
   25.4760   28.7650   47.7620 H   0  0  0  0  0  0  0  0  0  0  0  0
   26.7910   28.0080   49.3240 C   0  0  0  0  0  0  0  0  0  0  0  0
   25.9950   27.8040   50.0310 H   0  0  0  0  0  0  0  0  0  0  0  0
   28.1280   27.7450   49.6450 C   0  0  0  0  0  0  0  0  0  0  0  0
   28.5190   27.0740   51.2230 Cl  0  0  0  0  0  0  0  0  0  0  0  0
   32.9830   30.1730   45.3350 O   0  0  0  0  0  0  0  0  0  0  0  0
   35.5210   29.9060   45.6660 O   0  0  0  0  0  0  0  0  0  0  0  0
   34.2040   29.7060   46.3960 P   0  0  2  0  0  0  0  0  0  0  0  0
   34.0040   28.0680   46.8400 O   0  0  0  0  0  0  0  0  0  0  0  0
   34.5550   27.9010   47.6320 H   0  0  0  0  0  0  0  0  0  0  0  0
   34.1130   30.5990   47.8390 O   0  0  0  0  0  0  0  0  0  0  0  0
   34.8760   30.2920   48.9590 C   0  0  0  0  0  0  0  0  0  0  0  0
   34.4960   29.4500   50.0080 C   0  0  0  0  0  0  0  0  0  0  0  0
   35.3910   29.2640   51.0380 C   0  0  0  0  0  0  0  0  0  0  0  0
   36.5910   29.8810   51.0200 N   0  0  0  0  0  0  0  0  0  0  0  0
   36.9380   30.7020   49.9780 C   0  0  0  0  0  0  0  0  0  0  0  0
   36.0670   30.8960   48.9540 N   0  0  0  0  0  0  0  0  0  0  0  0
   33.5320   29.0210   49.9150 H   0  0  0  0  0  0  0  0  0  0  0  0
   35.0860   28.6040   51.8540 H   0  0  0  0  0  0  0  0  0  0  0  0
   37.9090   31.1650   50.0230 H   0  0  0  0  0  0  0  0  0  0  0  0
  1  5  1  0  0  0  0
  2  3  1  0  0  0  0
  2  1  2  0  0  0  0
  3  4  1  0  0  0  0
  4  5  2  0  0  0  0
  4 10  1  0  0  0  0
  6  2  1  0  0  0  0
  7  3  1  0  0  0  0
  9  8  1  0  0  0  0
  9 17  1  0  0  0  0
 10  9  2  0  0  0  0
 11 10  1  0  0  0  0
 11 13  2  0  0  0  0
 12 11  1  0  0  0  0
 13 15  1  0  0  0  0
 14 13  1  0  0  0  0
 15 17  2  0  0  0  0
 15 16  1  0  0  0  0
 17 18  1  0  0  0  0
 19  1  1  0  0  0  0
 19 21  1  0  0  0  0
 21 20  2  6  0  0  0
 21 22  1  0  0  0  0
 21 24  1  0  0  0  0
 22 23  1  0  0  0  0
 24 25  1  0  0  0  0
 25 26  1  0  0  0  0
 26 27  2  0  0  0  0
 27 32  1  0  0  0  0
 28 27  1  0  0  0  0
 29 33  1  0  0  0  0
 29 28  2  0  0  0  0
 30 25  2  0  0  0  0
 30 29  1  0  0  0  0
 31 26  1  0  0  0  0
M  END
>  <minimizedAffinity>
-5.29313612

>  <minimizedRMSD>
1.89928091

$$$$
