
 OpenBabel03272503203D

 37 40  0  0  0  0  0  0  0  0999 V2000
   37.1370   29.5790   50.4290 C   0  0  0  0  0  0  0  0  0  0  0  0
   37.7720   30.2990   49.4020 C   0  0  0  0  0  0  0  0  0  0  0  0
   37.1710   30.2930   48.1270 C   0  0  0  0  0  0  0  0  0  0  0  0
   36.0380   29.6160   47.9440 N   0  0  0  0  0  0  0  0  0  0  0  0
   35.4570   28.9340   48.9600 C   0  0  0  0  0  0  0  0  0  0  0  0
   35.9980   28.9190   50.1760 N   0  0  0  0  0  0  0  0  0  0  0  0
   37.6650   29.6380   51.3730 H   0  0  0  0  0  0  0  0  0  0  0  0
   38.6740   30.8650   49.4610 H   0  0  0  0  0  0  0  0  0  0  0  0
   33.0220   29.7290   50.6250 Cl  0  0  0  0  0  0  0  0  0  0  0  0
   33.0610   28.4930   49.3920 C   0  0  0  0  0  0  0  0  0  0  0  0
   34.2170   28.2110   48.6960 C   0  0  0  0  0  0  0  0  0  0  0  0
   34.1870   27.2250   47.7330 C   0  0  0  0  0  0  0  0  0  0  0  0
   35.1110   27.0220   47.1990 H   0  0  0  0  0  0  0  0  0  0  0  0
   33.0570   26.4880   47.4150 C   0  0  0  0  0  0  0  0  0  0  0  0
   33.0540   25.7260   46.6640 H   0  0  0  0  0  0  0  0  0  0  0  0
   31.9290   26.8220   48.1520 C   0  0  0  0  0  0  0  0  0  0  0  0
   31.0310   26.2380   47.9010 H   0  0  0  0  0  0  0  0  0  0  0  0
   31.8950   27.8030   49.1330 C   0  0  0  0  0  0  0  0  0  0  0  0
   30.3790   28.0900   49.9640 Cl  0  0  0  0  0  0  0  0  0  0  0  0
   37.7800   31.0240   47.0110 C   0  0  0  0  0  0  0  0  0  0  0  0
   38.6630   32.0210   46.9660 C   0  0  0  0  0  0  0  0  0  0  0  0
   39.0550   32.5100   45.7820 C   0  0  0  0  0  0  0  0  0  0  0  0
   38.5150   31.9450   44.6440 C   0  0  0  0  0  0  0  0  0  0  0  0
   37.4070   30.6690   45.3320 S   0  0  0  0  0  0  0  0  0  0  0  0
   39.0380   32.4070   47.9090 H   0  0  0  0  0  0  0  0  0  0  0  0
   39.7590   33.3100   45.5930 H   0  0  0  0  0  0  0  0  0  0  0  0
   40.8020   30.4150   43.3210 Cl  0  0  0  0  0  0  0  0  0  0  0  0
   39.6890   31.5390   42.5730 C   0  0  0  0  0  0  0  0  0  0  0  0
   38.6840   32.1900   43.2290 C   0  0  0  0  0  0  0  0  0  0  0  0
   37.8140   33.0580   42.6830 C   0  0  0  0  0  0  0  0  0  0  0  0
   37.9180   33.3440   41.3200 C   0  0  0  0  0  0  0  0  0  0  0  0
   38.9060   32.7260   40.5950 C   0  0  0  0  0  0  0  0  0  0  0  0
   39.0870   33.0460   38.8770 Cl  0  0  0  0  0  0  0  0  0  0  0  0
   39.7970   31.8240   41.2050 C   0  0  0  0  0  0  0  0  0  0  0  0
   37.0160   33.5750   43.2080 H   0  0  0  0  0  0  0  0  0  0  0  0
   37.2470   34.0330   40.8280 H   0  0  0  0  0  0  0  0  0  0  0  0
   40.5790   31.3310   40.6430 H   0  0  0  0  0  0  0  0  0  0  0  0
  1  7  1  0  0  0  0
  2  8  1  0  0  0  0
  2  1  2  0  0  0  0
  3  2  1  0  0  0  0
  4  3  2  0  0  0  0
  4  5  1  0  0  0  0
  5  6  2  0  0  0  0
  6  1  1  0  0  0  0
 10  9  1  0  0  0  0
 11  5  1  0  0  0  0
 11 10  2  0  0  0  0
 12 11  1  0  0  0  0
 13 12  1  0  0  0  0
 14 12  2  0  0  0  0
 14 16  1  0  0  0  0
 15 14  1  0  0  0  0
 16 18  2  0  0  0  0
 17 16  1  0  0  0  0
 18 10  1  0  0  0  0
 18 19  1  0  0  0  0
 20  3  1  0  0  0  0
 21 20  2  0  0  0  0
 21 25  1  0  0  0  0
 22 21  1  0  0  0  0
 23 24  1  0  0  0  0
 23 22  2  0  0  0  0
 24 20  1  0  0  0  0
 26 22  1  0  0  0  0
 28 29  1  0  0  0  0
 28 27  1  0  0  0  0
 29 23  1  0  0  0  0
 30 35  1  0  0  0  0
 30 29  2  0  0  0  0
 31 30  1  0  0  0  0
 32 34  1  0  0  0  0
 32 31  2  0  0  0  0
 33 32  1  0  0  0  0
 34 28  2  0  0  0  0
 36 31  1  0  0  0  0
 37 34  1  0  0  0  0
M  END
>  <minimizedAffinity>
-6.05358171

>  <minimizedRMSD>
1.68573701

$$$$
