
 OpenBabel03272504573D

 35 37  0  0  1  0  0  0  0  0999 V2000
   37.0290   31.5440   48.7120 C   0  0  1  0  0  0  0  0  0  0  0  0
   36.2080   30.9430   47.6880 C   0  0  0  0  0  0  0  0  0  0  0  0
   37.2040   30.1140   48.4350 C   0  0  2  0  0  0  0  0  0  0  0  0
   36.6380   31.7660   49.7640 H   0  0  0  0  0  0  0  0  0  0  0  0
   35.1880   31.1860   47.9050 H   0  0  0  0  0  0  0  0  0  0  0  0
   36.4750   31.1840   46.6380 H   0  0  0  0  0  0  0  0  0  0  0  0
   37.8500   29.5980   47.7420 H   0  0  0  0  0  0  0  0  0  0  0  0
   38.1730   32.4480   48.3440 C   0  0  0  0  0  0  0  0  0  0  0  0
   38.5400   33.3970   49.3190 C   0  0  0  0  0  0  0  0  0  0  0  0
   39.5890   34.2120   48.9660 C   0  0  0  0  0  0  0  0  0  0  0  0
   40.1900   34.0730   47.7640 N   0  0  0  0  0  0  0  0  0  0  0  0
   39.8060   33.1410   46.8470 C   0  0  0  0  0  0  0  0  0  0  0  0
   38.7630   32.3070   47.1570 N   0  0  0  0  0  0  0  0  0  0  0  0
   40.4280   32.9610   45.6050 N   0  0  0  0  0  0  0  0  0  0  0  0
   38.0740   33.5160   50.2700 H   0  0  0  0  0  0  0  0  0  0  0  0
   39.9730   34.9780   49.6090 H   0  0  0  0  0  0  0  0  0  0  0  0
   41.1970   32.2570   45.5110 H   0  0  0  0  0  0  0  0  0  0  0  0
   40.1710   33.4950   44.7410 H   0  0  0  0  0  0  0  0  0  0  0  0
   36.6620   29.2560   49.3990 O   0  0  0  0  0  0  0  0  0  0  0  0
   34.6440   27.7010   49.7930 O   0  0  0  0  0  0  0  0  0  0  0  0
   35.0620   28.9320   49.0530 P   0  0  1  0  0  0  0  0  0  0  0  0
   34.0780   30.1650   49.7950 O   0  0  0  0  0  0  0  0  0  0  0  0
   33.2270   30.1640   49.2960 H   0  0  0  0  0  0  0  0  0  0  0  0
   34.8140   28.9280   47.4300 O   0  0  0  0  0  0  0  0  0  0  0  0
   35.1500   29.5070   44.4790 Cl  0  0  0  0  0  0  0  0  0  0  0  0
   33.7000   28.9800   45.2510 C   0  0  0  0  0  0  0  0  0  0  0  0
   33.7680   28.7740   46.6150 C   0  0  0  0  0  0  0  0  0  0  0  0
   32.5890   28.3450   47.2450 C   0  0  0  0  0  0  0  0  0  0  0  0
   32.5110   28.1480   48.3080 H   0  0  0  0  0  0  0  0  0  0  0  0
   31.4360   28.1540   46.4760 C   0  0  0  0  0  0  0  0  0  0  0  0
   30.5180   27.8220   46.9540 H   0  0  0  0  0  0  0  0  0  0  0  0
   31.4180   28.3710   45.1280 C   0  0  0  0  0  0  0  0  0  0  0  0
   30.5290   28.2200   44.5630 H   0  0  0  0  0  0  0  0  0  0  0  0
   32.5570   28.7890   44.5000 C   0  0  0  0  0  0  0  0  0  0  0  0
   32.6170   29.0860   42.7960 Cl  0  0  0  0  0  0  0  0  0  0  0  0
  1  4  1  1  0  0  0
  2  5  1  0  0  0  0
  2  3  1  0  0  0  0
  2  1  1  0  0  0  0
  3  7  1  6  0  0  0
  3  1  1  0  0  0  0
  3 19  1  0  0  0  0
  6  2  1  0  0  0  0
  8  1  1  0  0  0  0
  8  9  1  0  0  0  0
  9 15  1  0  0  0  0
 10  9  2  0  0  0  0
 10 16  1  0  0  0  0
 11 10  1  0  0  0  0
 12 13  1  0  0  0  0
 12 11  2  0  0  0  0
 13  8  2  0  0  0  0
 14 12  1  0  0  0  0
 17 14  1  0  0  0  0
 18 14  1  0  0  0  0
 21 19  1  0  0  0  0
 21 20  2  1  0  0  0
 21 22  1  0  0  0  0
 23 22  1  0  0  0  0
 24 21  1  0  0  0  0
 25 26  1  0  0  0  0
 26 27  1  0  0  0  0
 27 28  2  0  0  0  0
 27 24  1  0  0  0  0
 28 29  1  0  0  0  0
 30 31  1  0  0  0  0
 30 28  1  0  0  0  0
 32 30  2  0  0  0  0
 33 32  1  0  0  0  0
 34 32  1  0  0  0  0
 34 26  2  0  0  0  0
 35 34  1  0  0  0  0
M  END
>  <minimizedAffinity>
-4.69412613

>  <minimizedRMSD>
2.0495708

$$$$
