
 OpenBabel03272503423D

 43 46  0  0  1  0  0  0  0  0999 V2000
   39.8920   30.7470   41.8370 C   0  0  2  0  0  0  0  0  0  0  0  0
   39.8900   31.9830   42.7570 C   0  0  1  0  0  0  0  0  0  0  0  0
   38.8070   32.7740   42.0710 C   0  0  0  0  0  0  0  0  0  0  0  0
   38.9230   32.5440   40.7210 O   0  0  0  0  0  0  0  0  0  0  0  0
   39.7630   31.4950   40.5030 C   0  0  0  0  0  0  0  0  0  0  0  0
   40.8240   30.1920   41.9040 H   0  0  0  0  0  0  0  0  0  0  0  0
   40.8280   32.5320   42.7190 H   0  0  0  0  0  0  0  0  0  0  0  0
   37.8320   32.4220   42.4590 H   0  0  0  0  0  0  0  0  0  0  0  0
   38.8950   33.8650   42.2350 H   0  0  0  0  0  0  0  0  0  0  0  0
   39.5320   30.8360   39.6690 H   0  0  0  0  0  0  0  0  0  0  0  0
   40.7810   31.9320   40.3060 H   0  0  0  0  0  0  0  0  0  0  0  0
   38.4950   31.0950   45.9450 C   0  0  0  0  0  0  0  0  0  0  0  0
   39.8280   31.0450   46.2510 C   0  0  0  0  0  0  0  0  0  0  0  0
   40.4630   31.3810   45.0550 C   0  0  0  0  0  0  0  0  0  0  0  0
   39.5540   31.6140   44.1030 N   0  0  0  0  0  0  0  0  0  0  0  0
   38.3460   31.4380   44.6460 N   0  0  0  0  0  0  0  0  0  0  0  0
   40.3030   30.8000   47.2100 H   0  0  0  0  0  0  0  0  0  0  0  0
   41.5600   31.4180   45.0210 H   0  0  0  0  0  0  0  0  0  0  0  0
   36.4720   30.6430   49.0710 C   0  0  0  0  0  0  0  0  0  0  0  0
   37.5490   30.9160   48.2390 C   0  0  0  0  0  0  0  0  0  0  0  0
   37.3990   30.8200   46.8680 C   0  0  0  0  0  0  0  0  0  0  0  0
   36.1940   30.4580   46.3870 N   0  0  0  0  0  0  0  0  0  0  0  0
   35.1530   30.1950   47.2220 C   0  0  0  0  0  0  0  0  0  0  0  0
   35.2870   30.2850   48.5390 N   0  0  0  0  0  0  0  0  0  0  0  0
   38.5440   31.2110   48.5510 H   0  0  0  0  0  0  0  0  0  0  0  0
   34.1960   29.9070   46.8100 H   0  0  0  0  0  0  0  0  0  0  0  0
   36.7790   30.7830   50.4240 O   0  0  0  0  0  0  0  0  0  0  0  0
   36.8200   29.7060   51.3230 C   0  0  0  0  0  0  0  0  0  0  0  0
   35.5640   29.2170   51.6260 F   0  0  0  0  0  0  0  0  0  0  0  0
   37.4930   30.0930   52.4560 F   0  0  0  0  0  0  0  0  0  0  0  0
   37.5680   28.6870   50.7390 F   0  0  0  0  0  0  0  0  0  0  0  0
   38.7170   30.0740   42.0990 O   0  0  0  0  0  0  0  0  0  0  0  0
   35.8580   29.2590   42.3920 Cl  0  0  0  0  0  0  0  0  0  0  0  0
   37.3010   28.2580   42.5080 C   0  0  0  0  0  0  0  0  0  0  0  0
   38.6000   28.7370   42.3540 C   0  0  0  0  0  0  0  0  0  0  0  0
   39.6320   27.8300   42.4720 C   0  0  0  0  0  0  0  0  0  0  0  0
   40.6340   28.2070   42.3530 H   0  0  0  0  0  0  0  0  0  0  0  0
   39.4320   26.4810   42.7340 C   0  0  0  0  0  0  0  0  0  0  0  0
   40.2770   25.8210   42.8160 H   0  0  0  0  0  0  0  0  0  0  0  0
   38.1230   26.0300   42.8830 C   0  0  0  0  0  0  0  0  0  0  0  0
   37.9890   24.9690   43.0870 H   0  0  0  0  0  0  0  0  0  0  0  0
   37.0650   26.9230   42.7680 C   0  0  0  0  0  0  0  0  0  0  0  0
   35.4840   26.2100   42.9790 Cl  0  0  0  0  0  0  0  0  0  0  0  0
  1  6  1  1  0  0  0
  1 32  1  0  0  0  0
  1  2  1  0  0  0  0
  2  7  1  6  0  0  0
  2 15  1  0  0  0  0
  3  9  1  0  0  0  0
  3  8  1  0  0  0  0
  3  2  1  0  0  0  0
  4  3  1  0  0  0  0
  5  4  1  0  0  0  0
  5  1  1  0  0  0  0
 10  5  1  0  0  0  0
 11  5  1  0  0  0  0
 12 13  1  0  0  0  0
 12 21  1  0  0  0  0
 13 17  1  0  0  0  0
 14 13  2  0  0  0  0
 15 16  1  0  0  0  0
 15 14  1  0  0  0  0
 16 12  2  0  0  0  0
 18 14  1  0  0  0  0
 19 27  1  0  0  0  0
 20 25  1  0  0  0  0
 20 19  2  0  0  0  0
 21 20  1  0  0  0  0
 22 21  2  0  0  0  0
 22 23  1  0  0  0  0
 23 24  2  0  0  0  0
 24 19  1  0  0  0  0
 26 23  1  0  0  0  0
 27 28  1  0  0  0  0
 28 29  1  0  0  0  0
 28 30  1  0  0  0  0
 31 28  1  0  0  0  0
 32 35  1  0  0  0  0
 33 34  1  0  0  0  0
 34 42  1  0  0  0  0
 35 36  1  0  0  0  0
 35 34  2  0  0  0  0
 36 38  2  0  0  0  0
 37 36  1  0  0  0  0
 38 39  1  0  0  0  0
 38 40  1  0  0  0  0
 40 41  1  0  0  0  0
 42 40  2  0  0  0  0
 42 43  1  0  0  0  0
M  END
>  <minimizedAffinity>
-6.42945719

>  <minimizedRMSD>
0.546843708

$$$$
