
 OpenBabel03272507153D

 42 46  0  0  0  0  0  0  0  0999 V2000
   37.3410   27.8560   32.3250 C   0  0  0  0  0  0  0  0  0  0  0  0
   36.9000   28.6910   31.3510 C   0  0  0  0  0  0  0  0  0  0  0  0
   35.9740   29.5500   31.9450 C   0  0  0  0  0  0  0  0  0  0  0  0
   35.9140   29.1640   33.2900 C   0  0  0  0  0  0  0  0  0  0  0  0
   36.7370   28.1700   33.4350 O   0  0  0  0  0  0  0  0  0  0  0  0
   37.1880   28.7180   30.3010 H   0  0  0  0  0  0  0  0  0  0  0  0
   35.4670   30.3180   31.3950 H   0  0  0  0  0  0  0  0  0  0  0  0
   33.7090   29.5450   34.3780 C   0  0  0  0  0  0  0  0  0  0  0  0
   35.0430   29.8330   34.2630 C   0  0  0  0  0  0  0  0  0  0  0  0
   35.6630   30.7800   35.0700 C   0  0  0  0  0  0  0  0  0  0  0  0
   34.8700   31.4280   36.0070 C   0  0  0  0  0  0  0  0  0  0  0  0
   35.2010   32.3670   36.9010 N   0  0  0  0  0  0  0  0  0  0  0  0
   34.0890   32.6680   37.5760 N   0  0  0  0  0  0  0  0  0  0  0  0
   33.0780   31.9330   37.1130 C   0  0  0  0  0  0  0  0  0  0  0  0
   33.5320   31.1090   36.0890 C   0  0  0  0  0  0  0  0  0  0  0  0
   32.9170   30.1630   35.2820 C   0  0  0  0  0  0  0  0  0  0  0  0
   33.3210   28.7820   33.6910 H   0  0  0  0  0  0  0  0  0  0  0  0
   36.7180   31.0560   35.0290 H   0  0  0  0  0  0  0  0  0  0  0  0
   36.1250   32.8200   37.0910 H   0  0  0  0  0  0  0  0  0  0  0  0
   32.0250   31.9230   37.4370 H   0  0  0  0  0  0  0  0  0  0  0  0
   31.8610   29.9450   35.3810 H   0  0  0  0  0  0  0  0  0  0  0  0
   38.3270   26.8170   32.0580 C   0  0  0  0  0  0  0  0  0  0  0  0
   39.3280   27.0960   31.3450 O   0  0  0  0  0  0  0  0  0  0  0  0
   38.0940   25.5140   32.6360 C   0  0  0  0  0  0  0  0  0  0  0  0
   37.5370   24.5490   31.8160 C   0  0  0  0  0  0  0  0  0  0  0  0
   37.2970   23.2810   32.3330 C   0  0  0  0  0  0  0  0  0  0  0  0
   37.6330   23.0680   33.6370 N   0  0  0  0  0  0  0  0  0  0  0  0
   38.1720   24.0160   34.4130 C   0  0  0  0  0  0  0  0  0  0  0  0
   38.3960   25.2290   33.9010 N   0  0  0  0  0  0  0  0  0  0  0  0
   37.2550   24.6610   30.7920 H   0  0  0  0  0  0  0  0  0  0  0  0
   36.8590   22.4820   31.7290 H   0  0  0  0  0  0  0  0  0  0  0  0
   40.5460   22.3180   34.7330 Cl  0  0  0  0  0  0  0  0  0  0  0  0
   39.6090   22.9400   36.0930 C   0  0  0  0  0  0  0  0  0  0  0  0
   38.5120   23.7290   35.8040 C   0  0  0  0  0  0  0  0  0  0  0  0
   37.7470   24.2390   36.8310 C   0  0  0  0  0  0  0  0  0  0  0  0
   36.8810   24.8600   36.6520 H   0  0  0  0  0  0  0  0  0  0  0  0
   38.0860   23.9550   38.1590 C   0  0  0  0  0  0  0  0  0  0  0  0
   37.5240   24.3260   39.0260 H   0  0  0  0  0  0  0  0  0  0  0  0
   39.1890   23.1630   38.3920 C   0  0  0  0  0  0  0  0  0  0  0  0
   39.4580   22.9380   39.4140 H   0  0  0  0  0  0  0  0  0  0  0  0
   39.9590   22.6490   37.3830 C   0  0  0  0  0  0  0  0  0  0  0  0
   41.3740   21.6330   37.6590 Cl  0  0  0  0  0  0  0  0  0  0  0  0
  1  5  1  0  0  0  0
  2  3  1  0  0  0  0
  2  1  2  0  0  0  0
  3  4  2  0  0  0  0
  4  5  1  0  0  0  0
  4  9  1  0  0  0  0
  6  2  1  0  0  0  0
  7  3  1  0  0  0  0
  8 16  1  0  0  0  0
  9  8  2  0  0  0  0
  9 10  1  0  0  0  0
 10 11  2  0  0  0  0
 11 15  1  0  0  0  0
 11 12  1  0  0  0  0
 12 19  1  0  0  0  0
 12 13  1  0  0  0  0
 14 20  1  0  0  0  0
 14 13  2  0  0  0  0
 15 14  1  0  0  0  0
 16 21  1  0  0  0  0
 16 15  2  0  0  0  0
 17  8  1  0  0  0  0
 18 10  1  0  0  0  0
 22  1  1  0  0  0  0
 22 24  1  0  0  0  0
 23 22  2  0  0  0  0
 24 29  1  0  0  0  0
 25 26  1  0  0  0  0
 25 24  2  0  0  0  0
 26 27  2  0  0  0  0
 27 28  1  0  0  0  0
 28 34  1  0  0  0  0
 29 28  2  0  0  0  0
 30 25  1  0  0  0  0
 31 26  1  0  0  0  0
 32 33  1  0  0  0  0
 33 41  1  0  0  0  0
 34 33  2  0  0  0  0
 34 35  1  0  0  0  0
 35 37  2  0  0  0  0
 36 35  1  0  0  0  0
 37 39  1  0  0  0  0
 37 38  1  0  0  0  0
 39 40  1  0  0  0  0
 41 42  1  0  0  0  0
 41 39  2  0  0  0  0
M  END
>  <minimizedAffinity>
-7.42792702

$$$$

 OpenBabel03272507153D

 42 46  0  0  0  0  0  0  0  0999 V2000
   37.9150   26.4440   33.7620 C   0  0  0  0  0  0  0  0  0  0  0  0
   38.4300   27.3570   34.6230 C   0  0  0  0  0  0  0  0  0  0  0  0
   39.4780   26.7300   35.2980 C   0  0  0  0  0  0  0  0  0  0  0  0
   39.5320   25.4290   34.7800 C   0  0  0  0  0  0  0  0  0  0  0  0
   38.5900   25.3370   33.8910 O   0  0  0  0  0  0  0  0  0  0  0  0
   38.1150   28.3870   34.7850 H   0  0  0  0  0  0  0  0  0  0  0  0
   40.0640   27.2300   36.0430 H   0  0  0  0  0  0  0  0  0  0  0  0
   41.8170   24.4440   34.8140 C   0  0  0  0  0  0  0  0  0  0  0  0
   40.5140   24.4400   35.2370 C   0  0  0  0  0  0  0  0  0  0  0  0
   40.0370   23.4930   36.1360 C   0  0  0  0  0  0  0  0  0  0  0  0
   40.9400   22.5450   36.5950 C   0  0  0  0  0  0  0  0  0  0  0  0
   40.7570   21.5370   37.4550 N   0  0  0  0  0  0  0  0  0  0  0  0
   41.9300   20.9120   37.5760 N   0  0  0  0  0  0  0  0  0  0  0  0
   42.8350   21.5170   36.8070 C   0  0  0  0  0  0  0  0  0  0  0  0
   42.2430   22.5860   36.1440 C   0  0  0  0  0  0  0  0  0  0  0  0
   42.7150   23.5320   35.2460 C   0  0  0  0  0  0  0  0  0  0  0  0
   42.0880   25.2340   34.1020 H   0  0  0  0  0  0  0  0  0  0  0  0
   39.0130   23.4340   36.5110 H   0  0  0  0  0  0  0  0  0  0  0  0
   39.8940   21.2380   37.9680 H   0  0  0  0  0  0  0  0  0  0  0  0
   43.8980   21.2680   36.6630 H   0  0  0  0  0  0  0  0  0  0  0  0
   43.7470   23.5260   34.9190 H   0  0  0  0  0  0  0  0  0  0  0  0
   36.7940   26.7590   32.8860 C   0  0  0  0  0  0  0  0  0  0  0  0
   36.2620   25.8310   32.2200 O   0  0  0  0  0  0  0  0  0  0  0  0
   36.3550   28.1340   32.8360 C   0  0  0  0  0  0  0  0  0  0  0  0
   36.5150   28.8050   31.6360 C   0  0  0  0  0  0  0  0  0  0  0  0
   36.1050   30.1300   31.5440 C   0  0  0  0  0  0  0  0  0  0  0  0
   35.5630   30.6910   32.6620 N   0  0  0  0  0  0  0  0  0  0  0  0
   35.4170   30.0240   33.8130 C   0  0  0  0  0  0  0  0  0  0  0  0
   35.8160   28.7520   33.8850 N   0  0  0  0  0  0  0  0  0  0  0  0
   36.9310   28.4160   30.7320 H   0  0  0  0  0  0  0  0  0  0  0  0
   36.2070   30.7070   30.6210 H   0  0  0  0  0  0  0  0  0  0  0  0
   32.5690   29.4270   34.2040 Cl  0  0  0  0  0  0  0  0  0  0  0  0
   33.4940   30.4800   35.2760 C   0  0  0  0  0  0  0  0  0  0  0  0
   34.8290   30.6790   34.9790 C   0  0  0  0  0  0  0  0  0  0  0  0
   35.5950   31.4920   35.7860 C   0  0  0  0  0  0  0  0  0  0  0  0
   36.6430   31.6750   35.5920 H   0  0  0  0  0  0  0  0  0  0  0  0
   35.0170   32.1120   36.9000 C   0  0  0  0  0  0  0  0  0  0  0  0
   35.5650   32.7710   37.5850 H   0  0  0  0  0  0  0  0  0  0  0  0
   33.6820   31.8810   37.1510 C   0  0  0  0  0  0  0  0  0  0  0  0
   33.2280   32.3550   38.0080 H   0  0  0  0  0  0  0  0  0  0  0  0
   32.9080   31.0750   36.3590 C   0  0  0  0  0  0  0  0  0  0  0  0
   31.1980   30.7670   36.6610 Cl  0  0  0  0  0  0  0  0  0  0  0  0
  1  5  1  0  0  0  0
  1  2  2  0  0  0  0
  2  6  1  0  0  0  0
  2  3  1  0  0  0  0
  3  7  1  0  0  0  0
  4  9  1  0  0  0  0
  4  3  2  0  0  0  0
  5  4  1  0  0  0  0
  8  9  2  0  0  0  0
  8 16  1  0  0  0  0
  9 10  1  0  0  0  0
 10 18  1  0  0  0  0
 10 11  2  0  0  0  0
 11 12  1  0  0  0  0
 12 13  1  0  0  0  0
 12 19  1  0  0  0  0
 14 13  2  0  0  0  0
 15 11  1  0  0  0  0
 15 14  1  0  0  0  0
 16 15  2  0  0  0  0
 17  8  1  0  0  0  0
 20 14  1  0  0  0  0
 21 16  1  0  0  0  0
 22  1  1  0  0  0  0
 23 22  2  0  0  0  0
 24 22  1  0  0  0  0
 24 29  1  0  0  0  0
 25 24  2  0  0  0  0
 26 25  1  0  0  0  0
 26 27  2  0  0  0  0
 27 28  1  0  0  0  0
 28 29  2  0  0  0  0
 28 34  1  0  0  0  0
 30 25  1  0  0  0  0
 31 26  1  0  0  0  0
 32 33  1  0  0  0  0
 33 41  1  0  0  0  0
 34 33  2  0  0  0  0
 34 35  1  0  0  0  0
 35 37  2  0  0  0  0
 36 35  1  0  0  0  0
 37 39  1  0  0  0  0
 37 38  1  0  0  0  0
 39 40  1  0  0  0  0
 41 42  1  0  0  0  0
 41 39  2  0  0  0  0
M  END
>  <minimizedAffinity>
-7.35744715

$$$$

 OpenBabel03272507153D

 42 46  0  0  0  0  0  0  0  0999 V2000
   37.0140   27.6230   32.3310 C   0  0  0  0  0  0  0  0  0  0  0  0
   36.7110   28.5610   31.3980 C   0  0  0  0  0  0  0  0  0  0  0  0
   35.8900   29.5010   32.0210 C   0  0  0  0  0  0  0  0  0  0  0  0
   35.7450   29.0540   33.3410 C   0  0  0  0  0  0  0  0  0  0  0  0
   36.4270   27.9550   33.4460 O   0  0  0  0  0  0  0  0  0  0  0  0
   37.0270   28.6060   30.3560 H   0  0  0  0  0  0  0  0  0  0  0  0
   35.5020   30.3570   31.5070 H   0  0  0  0  0  0  0  0  0  0  0  0
   33.6190   29.5060   34.5560 C   0  0  0  0  0  0  0  0  0  0  0  0
   34.9430   29.7790   34.3340 C   0  0  0  0  0  0  0  0  0  0  0  0
   35.6190   30.7650   35.0440 C   0  0  0  0  0  0  0  0  0  0  0  0
   34.8930   31.4670   35.9970 C   0  0  0  0  0  0  0  0  0  0  0  0
   35.2860   32.4500   36.8150 N   0  0  0  0  0  0  0  0  0  0  0  0
   34.2240   32.7930   37.5460 N   0  0  0  0  0  0  0  0  0  0  0  0
   33.1820   32.0400   37.1940 C   0  0  0  0  0  0  0  0  0  0  0  0
   33.5630   31.1600   36.1880 C   0  0  0  0  0  0  0  0  0  0  0  0
   32.8930   30.1760   35.4760 C   0  0  0  0  0  0  0  0  0  0  0  0
   33.1840   28.7090   33.9380 H   0  0  0  0  0  0  0  0  0  0  0  0
   36.6690   31.0330   34.9170 H   0  0  0  0  0  0  0  0  0  0  0  0
   36.2220   32.9080   36.9170 H   0  0  0  0  0  0  0  0  0  0  0  0
   32.1530   32.0530   37.5890 H   0  0  0  0  0  0  0  0  0  0  0  0
   31.8460   29.9690   35.6590 H   0  0  0  0  0  0  0  0  0  0  0  0
   37.8620   26.4800   32.0240 C   0  0  0  0  0  0  0  0  0  0  0  0
   37.5350   25.7150   31.0770 O   0  0  0  0  0  0  0  0  0  0  0  0
   39.0420   26.2890   32.8360 C   0  0  0  0  0  0  0  0  0  0  0  0
   40.0930   27.1670   32.6400 C   0  0  0  0  0  0  0  0  0  0  0  0
   41.2470   27.0190   33.4010 C   0  0  0  0  0  0  0  0  0  0  0  0
   41.2660   26.0010   34.3070 N   0  0  0  0  0  0  0  0  0  0  0  0
   40.2380   25.1620   34.4810 C   0  0  0  0  0  0  0  0  0  0  0  0
   39.1370   25.3180   33.7420 N   0  0  0  0  0  0  0  0  0  0  0  0
   40.1310   27.9790   31.9470 H   0  0  0  0  0  0  0  0  0  0  0  0
   42.1060   27.6850   33.2870 H   0  0  0  0  0  0  0  0  0  0  0  0
   38.1970   25.3260   36.5860 Cl  0  0  0  0  0  0  0  0  0  0  0  0
   39.4120   24.0490   36.5130 C   0  0  0  0  0  0  0  0  0  0  0  0
   40.3170   24.0880   35.4680 C   0  0  0  0  0  0  0  0  0  0  0  0
   41.2860   23.1140   35.3660 C   0  0  0  0  0  0  0  0  0  0  0  0
   42.0140   23.1050   34.5670 H   0  0  0  0  0  0  0  0  0  0  0  0
   41.3490   22.0920   36.3200 C   0  0  0  0  0  0  0  0  0  0  0  0
   42.0920   21.2840   36.3020 H   0  0  0  0  0  0  0  0  0  0  0  0
   40.4240   22.0990   37.3410 C   0  0  0  0  0  0  0  0  0  0  0  0
   40.4650   21.3140   38.0810 H   0  0  0  0  0  0  0  0  0  0  0  0
   39.4550   23.0600   37.4560 C   0  0  0  0  0  0  0  0  0  0  0  0
   38.2620   23.0890   38.7540 Cl  0  0  0  0  0  0  0  0  0  0  0  0
  1  5  1  0  0  0  0
  2  3  1  0  0  0  0
  2  1  2  0  0  0  0
  3  4  2  0  0  0  0
  4  5  1  0  0  0  0
  4  9  1  0  0  0  0
  6  2  1  0  0  0  0
  7  3  1  0  0  0  0
  8 16  1  0  0  0  0
  9  8  2  0  0  0  0
  9 10  1  0  0  0  0
 10 11  2  0  0  0  0
 11 15  1  0  0  0  0
 11 12  1  0  0  0  0
 12 19  1  0  0  0  0
 12 13  1  0  0  0  0
 14 13  2  0  0  0  0
 14 20  1  0  0  0  0
 15 14  1  0  0  0  0
 16 21  1  0  0  0  0
 16 15  2  0  0  0  0
 17  8  1  0  0  0  0
 18 10  1  0  0  0  0
 22  1  1  0  0  0  0
 22 24  1  0  0  0  0
 23 22  2  0  0  0  0
 24 29  1  0  0  0  0
 25 24  2  0  0  0  0
 25 26  1  0  0  0  0
 26 27  2  0  0  0  0
 27 28  1  0  0  0  0
 28 34  1  0  0  0  0
 29 28  2  0  0  0  0
 30 25  1  0  0  0  0
 31 26  1  0  0  0  0
 33 32  1  0  0  0  0
 33 41  1  0  0  0  0
 34 33  2  0  0  0  0
 35 34  1  0  0  0  0
 35 37  2  0  0  0  0
 36 35  1  0  0  0  0
 37 39  1  0  0  0  0
 38 37  1  0  0  0  0
 39 41  2  0  0  0  0
 39 40  1  0  0  0  0
 41 42  1  0  0  0  0
M  END
>  <minimizedAffinity>
-7.02459621

$$$$

 OpenBabel03272507153D

 42 46  0  0  0  0  0  0  0  0999 V2000
   36.9500   26.8250   33.2860 C   0  0  0  0  0  0  0  0  0  0  0  0
   37.1080   27.7380   34.2780 C   0  0  0  0  0  0  0  0  0  0  0  0
   37.7610   27.0870   35.3250 C   0  0  0  0  0  0  0  0  0  0  0  0
   37.9640   25.7740   34.8810 C   0  0  0  0  0  0  0  0  0  0  0  0
   37.4640   25.6970   33.6860 O   0  0  0  0  0  0  0  0  0  0  0  0
   36.8000   28.7820   34.2920 H   0  0  0  0  0  0  0  0  0  0  0  0
   38.0130   27.5820   36.2420 H   0  0  0  0  0  0  0  0  0  0  0  0
   38.1180   24.3240   36.8990 C   0  0  0  0  0  0  0  0  0  0  0  0
   38.6310   24.7580   35.7050 C   0  0  0  0  0  0  0  0  0  0  0  0
   39.8220   24.2590   35.1910 C   0  0  0  0  0  0  0  0  0  0  0  0
   40.4770   23.2920   35.9410 C   0  0  0  0  0  0  0  0  0  0  0  0
   41.6210   22.6450   35.6880 N   0  0  0  0  0  0  0  0  0  0  0  0
   41.8280   21.8100   36.7080 N   0  0  0  0  0  0  0  0  0  0  0  0
   40.8330   21.9290   37.5870 C   0  0  0  0  0  0  0  0  0  0  0  0
   39.9260   22.8820   37.1370 C   0  0  0  0  0  0  0  0  0  0  0  0
   38.7380   23.3850   37.6460 C   0  0  0  0  0  0  0  0  0  0  0  0
   37.1730   24.7860   37.2120 H   0  0  0  0  0  0  0  0  0  0  0  0
   40.2840   24.5620   34.2500 H   0  0  0  0  0  0  0  0  0  0  0  0
   42.2740   22.7260   34.8740 H   0  0  0  0  0  0  0  0  0  0  0  0
   40.6830   21.3960   38.5390 H   0  0  0  0  0  0  0  0  0  0  0  0
   38.3420   23.0340   38.5910 H   0  0  0  0  0  0  0  0  0  0  0  0
   36.2980   27.1620   32.0280 C   0  0  0  0  0  0  0  0  0  0  0  0
   36.3420   26.3350   31.0780 O   0  0  0  0  0  0  0  0  0  0  0  0
   35.6320   28.4410   31.9450 C   0  0  0  0  0  0  0  0  0  0  0  0
   36.1520   29.3690   31.0600 C   0  0  0  0  0  0  0  0  0  0  0  0
   35.5400   30.6120   30.9490 C   0  0  0  0  0  0  0  0  0  0  0  0
   34.4490   30.8390   31.7330 N   0  0  0  0  0  0  0  0  0  0  0  0
   33.9610   29.9280   32.5830 C   0  0  0  0  0  0  0  0  0  0  0  0
   34.5610   28.7390   32.6780 N   0  0  0  0  0  0  0  0  0  0  0  0
   37.0010   29.2440   30.4240 H   0  0  0  0  0  0  0  0  0  0  0  0
   35.9090   31.3820   30.2650 H   0  0  0  0  0  0  0  0  0  0  0  0
   34.6010   30.8460   35.2980 Cl  0  0  0  0  0  0  0  0  0  0  0  0
   32.9510   30.6720   34.6980 C   0  0  0  0  0  0  0  0  0  0  0  0
   32.7870   30.2290   33.3990 C   0  0  0  0  0  0  0  0  0  0  0  0
   31.5190   30.0750   32.8840 C   0  0  0  0  0  0  0  0  0  0  0  0
   31.3440   29.7320   31.8730 H   0  0  0  0  0  0  0  0  0  0  0  0
   30.4040   30.3680   33.6770 C   0  0  0  0  0  0  0  0  0  0  0  0
   29.3670   30.2690   33.3340 H   0  0  0  0  0  0  0  0  0  0  0  0
   30.6220   30.8060   34.9650 C   0  0  0  0  0  0  0  0  0  0  0  0
   29.7680   31.0330   35.5860 H   0  0  0  0  0  0  0  0  0  0  0  0
   31.8770   30.9630   35.4930 C   0  0  0  0  0  0  0  0  0  0  0  0
   32.1780   31.5210   37.1380 Cl  0  0  0  0  0  0  0  0  0  0  0  0
  1  5  1  0  0  0  0
  1  2  2  0  0  0  0
  2  6  1  0  0  0  0
  2  3  1  0  0  0  0
  3  7  1  0  0  0  0
  4  3  2  0  0  0  0
  4  9  1  0  0  0  0
  5  4  1  0  0  0  0
  8 17  1  0  0  0  0
  8 16  1  0  0  0  0
  9  8  2  0  0  0  0
 10  9  1  0  0  0  0
 10 11  2  0  0  0  0
 11 15  1  0  0  0  0
 12 11  1  0  0  0  0
 12 13  1  0  0  0  0
 13 14  2  0  0  0  0
 14 20  1  0  0  0  0
 15 14  1  0  0  0  0
 15 16  2  0  0  0  0
 16 21  1  0  0  0  0
 18 10  1  0  0  0  0
 19 12  1  0  0  0  0
 22  1  1  0  0  0  0
 23 22  2  0  0  0  0
 24 22  1  0  0  0  0
 24 29  1  0  0  0  0
 25 24  2  0  0  0  0
 26 25  1  0  0  0  0
 26 27  2  0  0  0  0
 27 28  1  0  0  0  0
 28 29  2  0  0  0  0
 28 34  1  0  0  0  0
 30 25  1  0  0  0  0
 31 26  1  0  0  0  0
 33 32  1  0  0  0  0
 33 41  1  0  0  0  0
 34 33  2  0  0  0  0
 35 34  1  0  0  0  0
 35 37  2  0  0  0  0
 36 35  1  0  0  0  0
 37 39  1  0  0  0  0
 38 37  1  0  0  0  0
 39 41  2  0  0  0  0
 39 40  1  0  0  0  0
 41 42  1  0  0  0  0
M  END
>  <minimizedAffinity>
-6.83426428

$$$$

 OpenBabel03272507153D

 42 46  0  0  0  0  0  0  0  0999 V2000
   38.2410   26.4870   33.7600 C   0  0  0  0  0  0  0  0  0  0  0  0
   38.4650   27.1990   34.8940 C   0  0  0  0  0  0  0  0  0  0  0  0
   39.3930   26.4780   35.6470 C   0  0  0  0  0  0  0  0  0  0  0  0
   39.6810   25.3350   34.8900 C   0  0  0  0  0  0  0  0  0  0  0  0
   38.9720   25.4090   33.8060 O   0  0  0  0  0  0  0  0  0  0  0  0
   38.0270   28.1500   35.1940 H   0  0  0  0  0  0  0  0  0  0  0  0
   39.7500   26.8180   36.5990 H   0  0  0  0  0  0  0  0  0  0  0  0
   41.9000   24.2060   34.8460 C   0  0  0  0  0  0  0  0  0  0  0  0
   40.6280   24.3090   35.3440 C   0  0  0  0  0  0  0  0  0  0  0  0
   40.1490   23.4440   36.3220 C   0  0  0  0  0  0  0  0  0  0  0  0
   41.0200   22.4640   36.7790 C   0  0  0  0  0  0  0  0  0  0  0  0
   40.8280   21.5160   37.7040 N   0  0  0  0  0  0  0  0  0  0  0  0
   41.9650   20.8240   37.7910 N   0  0  0  0  0  0  0  0  0  0  0  0
   42.8560   21.3270   36.9370 C   0  0  0  0  0  0  0  0  0  0  0  0
   42.2920   22.3970   36.2510 C   0  0  0  0  0  0  0  0  0  0  0  0
   42.7640   23.2610   35.2750 C   0  0  0  0  0  0  0  0  0  0  0  0
   42.1740   24.9380   34.0760 H   0  0  0  0  0  0  0  0  0  0  0  0
   39.1500   23.4700   36.7590 H   0  0  0  0  0  0  0  0  0  0  0  0
   39.9820   21.3020   38.2830 H   0  0  0  0  0  0  0  0  0  0  0  0
   43.8910   21.0030   36.7460 H   0  0  0  0  0  0  0  0  0  0  0  0
   43.7720   23.1710   34.8890 H   0  0  0  0  0  0  0  0  0  0  0  0
   37.3170   26.9480   32.7340 C   0  0  0  0  0  0  0  0  0  0  0  0
   37.2670   28.1780   32.4660 O   0  0  0  0  0  0  0  0  0  0  0  0
   36.5030   25.9520   32.0760 C   0  0  0  0  0  0  0  0  0  0  0  0
   35.4910   26.4080   31.2500 C   0  0  0  0  0  0  0  0  0  0  0  0
   34.6840   25.4820   30.5970 C   0  0  0  0  0  0  0  0  0  0  0  0
   34.9490   24.1640   30.8170 N   0  0  0  0  0  0  0  0  0  0  0  0
   35.9340   23.7440   31.6200 C   0  0  0  0  0  0  0  0  0  0  0  0
   36.6990   24.6450   32.2400 N   0  0  0  0  0  0  0  0  0  0  0  0
   35.2390   27.4250   31.0430 H   0  0  0  0  0  0  0  0  0  0  0  0
   33.8700   25.7880   29.9340 H   0  0  0  0  0  0  0  0  0  0  0  0
   38.3700   22.7490   30.3160 Cl  0  0  0  0  0  0  0  0  0  0  0  0
   37.2850   21.7220   31.2550 C   0  0  0  0  0  0  0  0  0  0  0  0
   36.1710   22.3160   31.8180 C   0  0  0  0  0  0  0  0  0  0  0  0
   35.2930   21.5570   32.5600 C   0  0  0  0  0  0  0  0  0  0  0  0
   34.4090   21.9790   33.0180 H   0  0  0  0  0  0  0  0  0  0  0  0
   35.5330   20.1900   32.7410 C   0  0  0  0  0  0  0  0  0  0  0  0
   34.8790   19.5250   33.3180 H   0  0  0  0  0  0  0  0  0  0  0  0
   36.6580   19.6470   32.1590 C   0  0  0  0  0  0  0  0  0  0  0  0
   36.8520   18.5930   32.2920 H   0  0  0  0  0  0  0  0  0  0  0  0
   37.5400   20.3880   31.4180 C   0  0  0  0  0  0  0  0  0  0  0  0
   38.9850   19.7130   30.6640 Cl  0  0  0  0  0  0  0  0  0  0  0  0
  1  5  1  0  0  0  0
  1  2  2  0  0  0  0
  2  6  1  0  0  0  0
  2  3  1  0  0  0  0
  3  7  1  0  0  0  0
  4  9  1  0  0  0  0
  4  3  2  0  0  0  0
  5  4  1  0  0  0  0
  8 16  2  0  0  0  0
  8  9  1  0  0  0  0
  9 10  2  0  0  0  0
 10 18  1  0  0  0  0
 10 11  1  0  0  0  0
 11 12  1  0  0  0  0
 12 13  1  0  0  0  0
 12 19  1  0  0  0  0
 14 13  2  0  0  0  0
 15 11  2  0  0  0  0
 15 14  1  0  0  0  0
 16 15  1  0  0  0  0
 17  8  1  0  0  0  0
 20 14  1  0  0  0  0
 21 16  1  0  0  0  0
 22  1  1  0  0  0  0
 23 22  2  0  0  0  0
 24 29  1  0  0  0  0
 24 22  1  0  0  0  0
 25 24  2  0  0  0  0
 26 27  2  0  0  0  0
 26 25  1  0  0  0  0
 27 28  1  0  0  0  0
 28 34  1  0  0  0  0
 28 29  2  0  0  0  0
 30 25  1  0  0  0  0
 31 26  1  0  0  0  0
 32 33  1  0  0  0  0
 33 41  2  0  0  0  0
 33 34  1  0  0  0  0
 34 35  2  0  0  0  0
 35 37  1  0  0  0  0
 35 36  1  0  0  0  0
 37 38  1  0  0  0  0
 39 40  1  0  0  0  0
 39 37  2  0  0  0  0
 41 39  1  0  0  0  0
 42 41  1  0  0  0  0
M  END
>  <minimizedAffinity>
-6.81395054

$$$$

 OpenBabel03272507153D

 42 46  0  0  0  0  0  0  0  0999 V2000
   36.7290   28.0350   33.0280 C   0  0  0  0  0  0  0  0  0  0  0  0
   36.6370   28.9890   32.0670 C   0  0  0  0  0  0  0  0  0  0  0  0
   35.9970   30.0850   32.6460 C   0  0  0  0  0  0  0  0  0  0  0  0
   35.7350   29.7090   33.9700 C   0  0  0  0  0  0  0  0  0  0  0  0
   36.1890   28.5020   34.1170 O   0  0  0  0  0  0  0  0  0  0  0  0
   36.9820   28.9460   31.0350 H   0  0  0  0  0  0  0  0  0  0  0  0
   35.7940   30.9870   32.1030 H   0  0  0  0  0  0  0  0  0  0  0  0
   35.7500   31.3710   35.8230 C   0  0  0  0  0  0  0  0  0  0  0  0
   35.0630   30.6000   34.9230 C   0  0  0  0  0  0  0  0  0  0  0  0
   33.6750   30.6150   34.8510 C   0  0  0  0  0  0  0  0  0  0  0  0
   33.0050   31.4520   35.7340 C   0  0  0  0  0  0  0  0  0  0  0  0
   31.6920   31.6650   35.8790 N   0  0  0  0  0  0  0  0  0  0  0  0
   31.5510   32.5610   36.8570 N   0  0  0  0  0  0  0  0  0  0  0  0
   32.7530   32.9050   37.3190 C   0  0  0  0  0  0  0  0  0  0  0  0
   33.7360   32.2110   36.6230 C   0  0  0  0  0  0  0  0  0  0  0  0
   35.1210   32.1920   36.6920 C   0  0  0  0  0  0  0  0  0  0  0  0
   36.8440   31.2810   35.7960 H   0  0  0  0  0  0  0  0  0  0  0  0
   33.0680   30.0270   34.1600 H   0  0  0  0  0  0  0  0  0  0  0  0
   30.8820   31.2480   35.3630 H   0  0  0  0  0  0  0  0  0  0  0  0
   33.0080   33.6160   38.1210 H   0  0  0  0  0  0  0  0  0  0  0  0
   35.6530   32.8050   37.4080 H   0  0  0  0  0  0  0  0  0  0  0  0
   37.3490   26.7420   32.7700 C   0  0  0  0  0  0  0  0  0  0  0  0
   38.5440   26.5580   33.1240 O   0  0  0  0  0  0  0  0  0  0  0  0
   36.5440   25.7370   32.1170 C   0  0  0  0  0  0  0  0  0  0  0  0
   35.5420   26.1800   31.2720 C   0  0  0  0  0  0  0  0  0  0  0  0
   34.7440   25.2440   30.6220 C   0  0  0  0  0  0  0  0  0  0  0  0
   35.0080   23.9290   30.8650 N   0  0  0  0  0  0  0  0  0  0  0  0
   35.9830   23.5220   31.6860 C   0  0  0  0  0  0  0  0  0  0  0  0
   36.7400   24.4330   32.3020 N   0  0  0  0  0  0  0  0  0  0  0  0
   35.2930   27.1940   31.0460 H   0  0  0  0  0  0  0  0  0  0  0  0
   33.9390   25.5390   29.9440 H   0  0  0  0  0  0  0  0  0  0  0  0
   38.3850   22.4890   30.3480 Cl  0  0  0  0  0  0  0  0  0  0  0  0
   37.3170   21.4860   31.3320 C   0  0  0  0  0  0  0  0  0  0  0  0
   36.2180   22.0970   31.9060 C   0  0  0  0  0  0  0  0  0  0  0  0
   35.3540   21.3570   32.6840 C   0  0  0  0  0  0  0  0  0  0  0  0
   34.4820   21.7930   33.1530 H   0  0  0  0  0  0  0  0  0  0  0  0
   35.5930   19.9930   32.8860 C   0  0  0  0  0  0  0  0  0  0  0  0
   34.9490   19.3430   33.4910 H   0  0  0  0  0  0  0  0  0  0  0  0
   36.7020   19.4340   32.2910 C   0  0  0  0  0  0  0  0  0  0  0  0
   36.8940   18.3820   32.4410 H   0  0  0  0  0  0  0  0  0  0  0  0
   37.5710   20.1550   31.5150 C   0  0  0  0  0  0  0  0  0  0  0  0
   38.9950   19.4590   30.7440 Cl  0  0  0  0  0  0  0  0  0  0  0  0
  1  5  1  0  0  0  0
  2  3  1  0  0  0  0
  2  1  2  0  0  0  0
  3  4  2  0  0  0  0
  4  5  1  0  0  0  0
  4  9  1  0  0  0  0
  6  2  1  0  0  0  0
  7  3  1  0  0  0  0
  8 16  1  0  0  0  0
  9  8  2  0  0  0  0
 10  9  1  0  0  0  0
 10 11  2  0  0  0  0
 11 12  1  0  0  0  0
 11 15  1  0  0  0  0
 12 13  1  0  0  0  0
 13 14  2  0  0  0  0
 14 20  1  0  0  0  0
 15 16  2  0  0  0  0
 15 14  1  0  0  0  0
 16 21  1  0  0  0  0
 17  8  1  0  0  0  0
 18 10  1  0  0  0  0
 19 12  1  0  0  0  0
 22  1  1  0  0  0  0
 22 23  2  0  0  0  0
 24 29  1  0  0  0  0
 24 22  1  0  0  0  0
 25 24  2  0  0  0  0
 26 27  2  0  0  0  0
 26 25  1  0  0  0  0
 27 28  1  0  0  0  0
 28 34  1  0  0  0  0
 28 29  2  0  0  0  0
 30 25  1  0  0  0  0
 31 26  1  0  0  0  0
 32 33  1  0  0  0  0
 33 41  2  0  0  0  0
 33 34  1  0  0  0  0
 34 35  2  0  0  0  0
 35 37  1  0  0  0  0
 35 36  1  0  0  0  0
 37 38  1  0  0  0  0
 39 40  1  0  0  0  0
 39 37  2  0  0  0  0
 41 39  1  0  0  0  0
 42 41  1  0  0  0  0
M  END
>  <minimizedAffinity>
-6.80904961

$$$$

 OpenBabel03272507153D

 42 46  0  0  0  0  0  0  0  0999 V2000
   37.4340   27.1270   32.2350 C   0  0  0  0  0  0  0  0  0  0  0  0
   38.7420   27.4070   32.0000 C   0  0  0  0  0  0  0  0  0  0  0  0
   39.4840   26.6870   32.9370 C   0  0  0  0  0  0  0  0  0  0  0  0
   38.5410   25.9920   33.7070 C   0  0  0  0  0  0  0  0  0  0  0  0
   37.3700   26.2990   33.2390 O   0  0  0  0  0  0  0  0  0  0  0  0
   39.1670   28.0590   31.2390 H   0  0  0  0  0  0  0  0  0  0  0  0
   40.5540   26.7250   32.9760 H   0  0  0  0  0  0  0  0  0  0  0  0
   40.0410   24.3130   34.7690 C   0  0  0  0  0  0  0  0  0  0  0  0
   38.9270   25.1080   34.8130 C   0  0  0  0  0  0  0  0  0  0  0  0
   38.0850   25.1330   35.9200 C   0  0  0  0  0  0  0  0  0  0  0  0
   38.4230   24.3150   36.9890 C   0  0  0  0  0  0  0  0  0  0  0  0
   37.8040   24.1460   38.1630 N   0  0  0  0  0  0  0  0  0  0  0  0
   38.5190   23.2560   38.8540 N   0  0  0  0  0  0  0  0  0  0  0  0
   39.5690   22.8720   38.1270 C   0  0  0  0  0  0  0  0  0  0  0  0
   39.5530   23.5300   36.9020 C   0  0  0  0  0  0  0  0  0  0  0  0
   40.3890   23.5080   35.7960 C   0  0  0  0  0  0  0  0  0  0  0  0
   40.6340   24.3690   33.8470 H   0  0  0  0  0  0  0  0  0  0  0  0
   37.1840   25.7410   36.0190 H   0  0  0  0  0  0  0  0  0  0  0  0
   36.9310   24.5890   38.5340 H   0  0  0  0  0  0  0  0  0  0  0  0
   40.3630   22.1540   38.3840 H   0  0  0  0  0  0  0  0  0  0  0  0
   41.2670   22.8750   35.7720 H   0  0  0  0  0  0  0  0  0  0  0  0
   36.3670   27.7130   31.4360 C   0  0  0  0  0  0  0  0  0  0  0  0
   35.8350   27.0190   30.5290 O   0  0  0  0  0  0  0  0  0  0  0  0
   35.9780   29.0710   31.7370 C   0  0  0  0  0  0  0  0  0  0  0  0
   36.0090   29.9820   30.6960 C   0  0  0  0  0  0  0  0  0  0  0  0
   35.6420   31.3010   30.9430 C   0  0  0  0  0  0  0  0  0  0  0  0
   35.2690   31.6130   32.2160 N   0  0  0  0  0  0  0  0  0  0  0  0
   35.2460   30.7160   33.2090 C   0  0  0  0  0  0  0  0  0  0  0  0
   35.6020   29.4540   32.9550 N   0  0  0  0  0  0  0  0  0  0  0  0
   36.2920   29.7930   29.6840 H   0  0  0  0  0  0  0  0  0  0  0  0
   35.6480   32.0610   30.1570 H   0  0  0  0  0  0  0  0  0  0  0  0
   32.4740   30.0050   33.8670 Cl  0  0  0  0  0  0  0  0  0  0  0  0
   33.5550   30.8330   34.9900 C   0  0  0  0  0  0  0  0  0  0  0  0
   34.8370   31.1100   34.5540 C   0  0  0  0  0  0  0  0  0  0  0  0
   35.7190   31.7550   35.3940 C   0  0  0  0  0  0  0  0  0  0  0  0
   36.7310   31.9910   35.0950 H   0  0  0  0  0  0  0  0  0  0  0  0
   35.3130   32.1260   36.6800 C   0  0  0  0  0  0  0  0  0  0  0  0
   35.9600   32.6410   37.4010 H   0  0  0  0  0  0  0  0  0  0  0  0
   34.0240   31.8260   37.0640 C   0  0  0  0  0  0  0  0  0  0  0  0
   33.7010   32.1090   38.0550 H   0  0  0  0  0  0  0  0  0  0  0  0
   33.1350   31.1860   36.2420 C   0  0  0  0  0  0  0  0  0  0  0  0
   31.4810   30.7940   36.7140 Cl  0  0  0  0  0  0  0  0  0  0  0  0
  1  5  1  0  0  0  0
  2  1  2  0  0  0  0
  2  3  1  0  0  0  0
  3  7  1  0  0  0  0
  3  4  2  0  0  0  0
  4  9  1  0  0  0  0
  5  4  1  0  0  0  0
  6  2  1  0  0  0  0
  8  9  2  0  0  0  0
  8 16  1  0  0  0  0
  9 10  1  0  0  0  0
 10 18  1  0  0  0  0
 10 11  2  0  0  0  0
 11 12  1  0  0  0  0
 12 19  1  0  0  0  0
 12 13  1  0  0  0  0
 14 20  1  0  0  0  0
 14 13  2  0  0  0  0
 15 11  1  0  0  0  0
 15 14  1  0  0  0  0
 16 15  2  0  0  0  0
 17  8  1  0  0  0  0
 21 16  1  0  0  0  0
 22 24  1  0  0  0  0
 22  1  1  0  0  0  0
 23 22  2  0  0  0  0
 24 29  1  0  0  0  0
 25 26  1  0  0  0  0
 25 24  2  0  0  0  0
 26 27  2  0  0  0  0
 27 28  1  0  0  0  0
 28 34  1  0  0  0  0
 29 28  2  0  0  0  0
 30 25  1  0  0  0  0
 31 26  1  0  0  0  0
 32 33  1  0  0  0  0
 33 41  1  0  0  0  0
 34 33  2  0  0  0  0
 34 35  1  0  0  0  0
 35 37  2  0  0  0  0
 36 35  1  0  0  0  0
 37 39  1  0  0  0  0
 37 38  1  0  0  0  0
 39 40  1  0  0  0  0
 41 42  1  0  0  0  0
 41 39  2  0  0  0  0
M  END
>  <minimizedAffinity>
-6.79160452

$$$$

 OpenBabel03272507153D

 42 46  0  0  0  0  0  0  0  0999 V2000
   37.8890   27.0380   34.1210 C   0  0  0  0  0  0  0  0  0  0  0  0
   38.1190   27.1700   32.7900 C   0  0  0  0  0  0  0  0  0  0  0  0
   37.1170   28.0020   32.2880 C   0  0  0  0  0  0  0  0  0  0  0  0
   36.3180   28.3320   33.3900 C   0  0  0  0  0  0  0  0  0  0  0  0
   36.8290   27.7320   34.4220 O   0  0  0  0  0  0  0  0  0  0  0  0
   38.9170   26.7290   32.1940 H   0  0  0  0  0  0  0  0  0  0  0  0
   37.0610   28.2740   31.2530 H   0  0  0  0  0  0  0  0  0  0  0  0
   34.3000   29.4460   34.3290 C   0  0  0  0  0  0  0  0  0  0  0  0
   35.1420   29.2030   33.2770 C   0  0  0  0  0  0  0  0  0  0  0  0
   34.9390   29.7730   32.0250 C   0  0  0  0  0  0  0  0  0  0  0  0
   33.8390   30.6090   31.8830 C   0  0  0  0  0  0  0  0  0  0  0  0
   33.4130   31.2840   30.8090 N   0  0  0  0  0  0  0  0  0  0  0  0
   32.3160   31.9470   31.1780 N   0  0  0  0  0  0  0  0  0  0  0  0
   32.0570   31.6950   32.4610 C   0  0  0  0  0  0  0  0  0  0  0  0
   33.0170   30.8270   32.9690 C   0  0  0  0  0  0  0  0  0  0  0  0
   33.2240   30.2550   34.2150 C   0  0  0  0  0  0  0  0  0  0  0  0
   34.5520   28.9440   35.2720 H   0  0  0  0  0  0  0  0  0  0  0  0
   35.5690   29.6210   31.1480 H   0  0  0  0  0  0  0  0  0  0  0  0
   33.8110   31.3290   29.8420 H   0  0  0  0  0  0  0  0  0  0  0  0
   31.2330   32.0720   33.0880 H   0  0  0  0  0  0  0  0  0  0  0  0
   32.5510   30.4540   35.0400 H   0  0  0  0  0  0  0  0  0  0  0  0
   38.7500   26.2280   34.9730 C   0  0  0  0  0  0  0  0  0  0  0  0
   39.7210   26.7800   35.5570 O   0  0  0  0  0  0  0  0  0  0  0  0
   38.4330   24.8250   35.0980 C   0  0  0  0  0  0  0  0  0  0  0  0
   38.4550   24.2820   36.3710 C   0  0  0  0  0  0  0  0  0  0  0  0
   38.1560   22.9350   36.5350 C   0  0  0  0  0  0  0  0  0  0  0  0
   37.8540   22.2240   35.4120 N   0  0  0  0  0  0  0  0  0  0  0  0
   37.8380   22.7690   34.1890 C   0  0  0  0  0  0  0  0  0  0  0  0
   38.1280   24.0640   34.0480 N   0  0  0  0  0  0  0  0  0  0  0  0
   38.6840   24.7910   37.2820 H   0  0  0  0  0  0  0  0  0  0  0  0
   38.1580   22.4550   37.5180 H   0  0  0  0  0  0  0  0  0  0  0  0
   35.6810   20.8320   34.6580 Cl  0  0  0  0  0  0  0  0  0  0  0  0
   36.5070   21.0060   33.1080 C   0  0  0  0  0  0  0  0  0  0  0  0
   37.5070   21.9560   33.0210 C   0  0  0  0  0  0  0  0  0  0  0  0
   38.1820   22.1310   31.8330 C   0  0  0  0  0  0  0  0  0  0  0  0
   38.9700   22.8620   31.7190 H   0  0  0  0  0  0  0  0  0  0  0  0
   37.8530   21.3450   30.7230 C   0  0  0  0  0  0  0  0  0  0  0  0
   38.3480   21.4280   29.7470 H   0  0  0  0  0  0  0  0  0  0  0  0
   36.8490   20.4120   30.8630 C   0  0  0  0  0  0  0  0  0  0  0  0
   36.5890   19.8000   30.0120 H   0  0  0  0  0  0  0  0  0  0  0  0
   36.1690   20.2260   32.0370 C   0  0  0  0  0  0  0  0  0  0  0  0
   34.8810   19.0380   32.2380 Cl  0  0  0  0  0  0  0  0  0  0  0  0
  1  5  1  0  0  0  0
  1 22  1  0  0  0  0
  2  1  2  0  0  0  0
  3  2  1  0  0  0  0
  3  4  2  0  0  0  0
  4  5  1  0  0  0  0
  6  2  1  0  0  0  0
  7  3  1  0  0  0  0
  8 17  1  0  0  0  0
  9  4  1  0  0  0  0
  9  8  2  0  0  0  0
 10  9  1  0  0  0  0
 11 10  2  0  0  0  0
 11 15  1  0  0  0  0
 12 13  1  0  0  0  0
 12 11  1  0  0  0  0
 13 14  2  0  0  0  0
 14 15  1  0  0  0  0
 14 20  1  0  0  0  0
 15 16  2  0  0  0  0
 16  8  1  0  0  0  0
 16 21  1  0  0  0  0
 18 10  1  0  0  0  0
 19 12  1  0  0  0  0
 22 24  1  0  0  0  0
 22 23  2  0  0  0  0
 24 25  1  0  0  0  0
 25 26  2  0  0  0  0
 25 30  1  0  0  0  0
 26 31  1  0  0  0  0
 27 26  1  0  0  0  0
 28 27  2  0  0  0  0
 29 28  1  0  0  0  0
 29 24  2  0  0  0  0
 33 32  1  0  0  0  0
 34 33  1  0  0  0  0
 34 28  1  0  0  0  0
 35 34  2  0  0  0  0
 36 35  1  0  0  0  0
 37 39  2  0  0  0  0
 37 35  1  0  0  0  0
 38 37  1  0  0  0  0
 39 41  1  0  0  0  0
 40 39  1  0  0  0  0
 41 42  1  0  0  0  0
 41 33  2  0  0  0  0
M  END
>  <minimizedAffinity>
-6.6322875

$$$$

 OpenBabel03272507153D

 42 46  0  0  0  0  0  0  0  0999 V2000
   37.5860   27.1530   31.7030 C   0  0  0  0  0  0  0  0  0  0  0  0
   37.6540   28.2080   30.8510 C   0  0  0  0  0  0  0  0  0  0  0  0
   36.6780   29.1190   31.2580 C   0  0  0  0  0  0  0  0  0  0  0  0
   36.0600   28.5340   32.3710 C   0  0  0  0  0  0  0  0  0  0  0  0
   36.6420   27.3900   32.5690 O   0  0  0  0  0  0  0  0  0  0  0  0
   38.3240   28.3530   30.0060 H   0  0  0  0  0  0  0  0  0  0  0  0
   36.5140   30.0500   30.7530 H   0  0  0  0  0  0  0  0  0  0  0  0
   35.1560   29.8380   34.2890 C   0  0  0  0  0  0  0  0  0  0  0  0
   34.9660   29.1870   33.0980 C   0  0  0  0  0  0  0  0  0  0  0  0
   33.7150   29.1070   32.4960 C   0  0  0  0  0  0  0  0  0  0  0  0
   32.6580   29.7200   33.1530 C   0  0  0  0  0  0  0  0  0  0  0  0
   31.3680   29.8020   32.8040 N   0  0  0  0  0  0  0  0  0  0  0  0
   30.7510   30.4970   33.7610 N   0  0  0  0  0  0  0  0  0  0  0  0
   31.6360   30.8470   34.6950 C   0  0  0  0  0  0  0  0  0  0  0  0
   32.8930   30.3650   34.3490 C   0  0  0  0  0  0  0  0  0  0  0  0
   34.1420   30.4420   34.9460 C   0  0  0  0  0  0  0  0  0  0  0  0
   36.1830   29.8400   34.6760 H   0  0  0  0  0  0  0  0  0  0  0  0
   33.4960   28.6050   31.5520 H   0  0  0  0  0  0  0  0  0  0  0  0
   30.8730   29.4210   31.9640 H   0  0  0  0  0  0  0  0  0  0  0  0
   31.4740   31.4230   35.6200 H   0  0  0  0  0  0  0  0  0  0  0  0
   34.2810   30.9590   35.8870 H   0  0  0  0  0  0  0  0  0  0  0  0
   38.4700   26.0030   31.5740 C   0  0  0  0  0  0  0  0  0  0  0  0
   39.4780   26.0910   30.8230 O   0  0  0  0  0  0  0  0  0  0  0  0
   38.1330   24.8170   32.3260 C   0  0  0  0  0  0  0  0  0  0  0  0
   37.4200   23.8310   31.6660 C   0  0  0  0  0  0  0  0  0  0  0  0
   37.0760   22.6730   32.3540 C   0  0  0  0  0  0  0  0  0  0  0  0
   37.4710   22.5830   33.6560 N   0  0  0  0  0  0  0  0  0  0  0  0
   38.1610   23.5480   34.2750 C   0  0  0  0  0  0  0  0  0  0  0  0
   38.4830   24.6550   33.6010 N   0  0  0  0  0  0  0  0  0  0  0  0
   37.0860   23.8490   30.6520 H   0  0  0  0  0  0  0  0  0  0  0  0
   36.5140   21.8630   31.8810 H   0  0  0  0  0  0  0  0  0  0  0  0
   40.6080   21.9700   34.6540 Cl  0  0  0  0  0  0  0  0  0  0  0  0
   39.6930   22.6740   35.9880 C   0  0  0  0  0  0  0  0  0  0  0  0
   38.5570   23.3960   35.6730 C   0  0  0  0  0  0  0  0  0  0  0  0
   37.8070   23.9650   36.6790 C   0  0  0  0  0  0  0  0  0  0  0  0
   36.9120   24.5380   36.4790 H   0  0  0  0  0  0  0  0  0  0  0  0
   38.2000   23.8100   38.0130 C   0  0  0  0  0  0  0  0  0  0  0  0
   37.6530   24.2350   38.8640 H   0  0  0  0  0  0  0  0  0  0  0  0
   39.3400   23.0810   38.2730 C   0  0  0  0  0  0  0  0  0  0  0  0
   39.6500   22.9560   39.3000 H   0  0  0  0  0  0  0  0  0  0  0  0
   40.0950   22.5090   37.2850 C   0  0  0  0  0  0  0  0  0  0  0  0
   41.5570   21.5720   37.5950 Cl  0  0  0  0  0  0  0  0  0  0  0  0
  1  5  1  0  0  0  0
  2  3  1  0  0  0  0
  2  1  2  0  0  0  0
  3  4  2  0  0  0  0
  4  5  1  0  0  0  0
  4  9  1  0  0  0  0
  6  2  1  0  0  0  0
  7  3  1  0  0  0  0
  8 17  1  0  0  0  0
  8 16  1  0  0  0  0
  9  8  2  0  0  0  0
 10  9  1  0  0  0  0
 10 11  2  0  0  0  0
 11 15  1  0  0  0  0
 12 11  1  0  0  0  0
 12 13  1  0  0  0  0
 13 14  2  0  0  0  0
 14 20  1  0  0  0  0
 15 14  1  0  0  0  0
 15 16  2  0  0  0  0
 16 21  1  0  0  0  0
 18 10  1  0  0  0  0
 19 12  1  0  0  0  0
 22  1  1  0  0  0  0
 22 24  1  0  0  0  0
 23 22  2  0  0  0  0
 24 29  1  0  0  0  0
 25 24  2  0  0  0  0
 25 26  1  0  0  0  0
 26 27  2  0  0  0  0
 27 28  1  0  0  0  0
 28 34  1  0  0  0  0
 29 28  2  0  0  0  0
 30 25  1  0  0  0  0
 31 26  1  0  0  0  0
 32 33  1  0  0  0  0
 33 41  1  0  0  0  0
 34 33  2  0  0  0  0
 34 35  1  0  0  0  0
 35 37  2  0  0  0  0
 36 35  1  0  0  0  0
 37 39  1  0  0  0  0
 37 38  1  0  0  0  0
 39 40  1  0  0  0  0
 41 42  1  0  0  0  0
 41 39  2  0  0  0  0
M  END
>  <minimizedAffinity>
-6.6079936

$$$$
