
 OpenBabel03272502533D

 29 31  0  0  0  0  0  0  0  0999 V2000
   36.0600   30.3080   48.6300 C   0  0  0  0  0  0  0  0  0  0  0  0
   36.0920   29.3550   49.6410 C   0  0  0  0  0  0  0  0  0  0  0  0
   35.1330   28.3640   49.7120 C   0  0  0  0  0  0  0  0  0  0  0  0
   34.1590   28.3740   48.7440 C   0  0  0  0  0  0  0  0  0  0  0  0
   34.1120   29.3160   47.7310 C   0  0  0  0  0  0  0  0  0  0  0  0
   35.0820   30.2870   47.6900 N   0  0  0  0  0  0  0  0  0  0  0  0
   36.9090   29.4280   50.3690 H   0  0  0  0  0  0  0  0  0  0  0  0
   35.1950   27.6470   50.5090 H   0  0  0  0  0  0  0  0  0  0  0  0
   33.4160   27.5970   48.8100 H   0  0  0  0  0  0  0  0  0  0  0  0
   31.6360   27.7350   48.4050 Cl  0  0  0  0  0  0  0  0  0  0  0  0
   31.8990   28.6340   46.9030 C   0  0  0  0  0  0  0  0  0  0  0  0
   33.0760   29.3230   46.7060 C   0  0  0  0  0  0  0  0  0  0  0  0
   33.1840   29.9900   45.5060 C   0  0  0  0  0  0  0  0  0  0  0  0
   34.0710   30.5450   45.2860 H   0  0  0  0  0  0  0  0  0  0  0  0
   32.2120   30.0020   44.5310 C   0  0  0  0  0  0  0  0  0  0  0  0
   32.3320   30.5410   43.5950 H   0  0  0  0  0  0  0  0  0  0  0  0
   31.0360   29.2970   44.7620 C   0  0  0  0  0  0  0  0  0  0  0  0
   30.2240   29.2450   44.0700 H   0  0  0  0  0  0  0  0  0  0  0  0
   30.8870   28.6140   45.9520 C   0  0  0  0  0  0  0  0  0  0  0  0
   29.4090   27.7070   46.2840 Cl  0  0  0  0  0  0  0  0  0  0  0  0
   38.1010   33.2050   49.5440 C   0  0  0  0  0  0  0  0  0  0  0  0
   39.0170   33.2880   48.4700 C   0  0  0  0  0  0  0  0  0  0  0  0
   38.9170   32.3350   47.4380 C   0  0  0  0  0  0  0  0  0  0  0  0
   37.9360   31.4070   47.5660 N   0  0  0  0  0  0  0  0  0  0  0  0
   37.0790   31.3410   48.5830 C   0  0  0  0  0  0  0  0  0  0  0  0
   37.1800   32.2440   49.5530 N   0  0  0  0  0  0  0  0  0  0  0  0
   38.1740   33.9480   50.3530 H   0  0  0  0  0  0  0  0  0  0  0  0
   39.7820   34.0470   48.4150 H   0  0  0  0  0  0  0  0  0  0  0  0
   39.5970   32.3830   46.6250 H   0  0  0  0  0  0  0  0  0  0  0  0
  1  2  1  0  0  0  0
  2  3  2  0  0  0  0
  2  7  1  0  0  0  0
  3  8  1  0  0  0  0
  4  9  1  0  0  0  0
  4  3  1  0  0  0  0
  5  4  2  0  0  0  0
  6  5  1  0  0  0  0
  6  1  2  0  0  0  0
 11 10  1  0  0  0  0
 12 11  1  0  0  0  0
 12  5  1  0  0  0  0
 13 12  2  0  0  0  0
 14 13  1  0  0  0  0
 15 17  2  0  0  0  0
 15 13  1  0  0  0  0
 16 15  1  0  0  0  0
 17 19  1  0  0  0  0
 18 17  1  0  0  0  0
 19 20  1  0  0  0  0
 19 11  2  0  0  0  0
 21 26  1  0  0  0  0
 21 27  1  0  0  0  0
 22 21  2  0  0  0  0
 23 24  2  0  0  0  0
 23 22  1  0  0  0  0
 24 25  1  0  0  0  0
 25  1  1  0  0  0  0
 25 26  2  0  0  0  0
 28 22  1  0  0  0  0
 29 23  1  0  0  0  0
M  END
>  <minimizedAffinity>
-5.5877738

>  <minimizedRMSD>
0.305463314

$$$$
