
 OpenBabel03272502533D

 29 31  0  0  0  0  0  0  0  0999 V2000
   36.0020   30.3320   48.6120 C   0  0  0  0  0  0  0  0  0  0  0  0
   35.9430   29.4510   49.6860 C   0  0  0  0  0  0  0  0  0  0  0  0
   34.9530   28.4910   49.7620 C   0  0  0  0  0  0  0  0  0  0  0  0
   34.0430   28.4560   48.7340 C   0  0  0  0  0  0  0  0  0  0  0  0
   34.0870   29.3260   47.6580 C   0  0  0  0  0  0  0  0  0  0  0  0
   35.0860   30.2680   47.6150 N   0  0  0  0  0  0  0  0  0  0  0  0
   36.7140   29.5540   50.4600 H   0  0  0  0  0  0  0  0  0  0  0  0
   34.9440   27.8300   50.6090 H   0  0  0  0  0  0  0  0  0  0  0  0
   33.2750   27.7050   48.8040 H   0  0  0  0  0  0  0  0  0  0  0  0
   33.8830   26.6810   46.2270 Cl  0  0  0  0  0  0  0  0  0  0  0  0
   32.9390   28.1300   45.8430 C   0  0  0  0  0  0  0  0  0  0  0  0
   33.1200   29.2860   46.5690 C   0  0  0  0  0  0  0  0  0  0  0  0
   32.3390   30.3550   46.1920 C   0  0  0  0  0  0  0  0  0  0  0  0
   32.4270   31.2850   46.7130 H   0  0  0  0  0  0  0  0  0  0  0  0
   31.4220   30.3280   45.1660 C   0  0  0  0  0  0  0  0  0  0  0  0
   30.8220   31.1940   44.8960 H   0  0  0  0  0  0  0  0  0  0  0  0
   31.2650   29.1440   44.4530 C   0  0  0  0  0  0  0  0  0  0  0  0
   30.5820   29.0210   43.6400 H   0  0  0  0  0  0  0  0  0  0  0  0
   32.0280   28.0470   44.7970 C   0  0  0  0  0  0  0  0  0  0  0  0
   31.8580   26.5270   43.9160 Cl  0  0  0  0  0  0  0  0  0  0  0  0
   38.1350   33.1630   49.5210 C   0  0  0  0  0  0  0  0  0  0  0  0
   39.0460   33.2220   48.4420 C   0  0  0  0  0  0  0  0  0  0  0  0
   38.9110   32.2760   47.4070 C   0  0  0  0  0  0  0  0  0  0  0  0
   37.9030   31.3780   47.5390 N   0  0  0  0  0  0  0  0  0  0  0  0
   37.0510   31.3330   48.5620 C   0  0  0  0  0  0  0  0  0  0  0  0
   37.1860   32.2300   49.5340 N   0  0  0  0  0  0  0  0  0  0  0  0
   38.2360   33.9010   50.3330 H   0  0  0  0  0  0  0  0  0  0  0  0
   39.8330   33.9580   48.3840 H   0  0  0  0  0  0  0  0  0  0  0  0
   39.5870   32.3060   46.5910 H   0  0  0  0  0  0  0  0  0  0  0  0
  1  2  1  0  0  0  0
  2  3  2  0  0  0  0
  2  7  1  0  0  0  0
  3  8  1  0  0  0  0
  4  9  1  0  0  0  0
  4  3  1  0  0  0  0
  5  4  2  0  0  0  0
  6  5  1  0  0  0  0
  6  1  2  0  0  0  0
 11 10  1  0  0  0  0
 11 12  1  0  0  0  0
 12  5  1  0  0  0  0
 13 12  2  0  0  0  0
 13 14  1  0  0  0  0
 15 13  1  0  0  0  0
 16 15  1  0  0  0  0
 17 19  1  0  0  0  0
 17 15  2  0  0  0  0
 18 17  1  0  0  0  0
 19 11  2  0  0  0  0
 20 19  1  0  0  0  0
 21 26  1  0  0  0  0
 21 27  1  0  0  0  0
 22 21  2  0  0  0  0
 23 24  2  0  0  0  0
 23 22  1  0  0  0  0
 24 25  1  0  0  0  0
 25  1  1  0  0  0  0
 25 26  2  0  0  0  0
 28 22  1  0  0  0  0
 29 23  1  0  0  0  0
M  END
>  <minimizedAffinity>
-5.37824583

>  <minimizedRMSD>
0.557057798

$$$$
