
 OpenBabel03272510273D

 47 51  0  0  1  0  0  0  0  0999 V2000
   38.7640   31.6020   41.2970 N   0  0  0  0  0  0  0  0  0  0  0  0
   38.8790   33.0220   41.4390 C   0  0  1  0  0  0  0  0  0  0  0  0
   37.5850   33.6610   41.1830 C   0  0  0  0  0  0  0  0  0  0  0  0
   37.2360   33.4470   39.8530 O   0  0  0  0  0  0  0  0  0  0  0  0
   37.2060   32.1350   39.4840 C   0  0  0  0  0  0  0  0  0  0  0  0
   38.4160   31.3420   39.9000 C   0  0  1  0  0  0  0  0  0  0  0  0
   38.0780   31.0960   41.8260 H   0  0  0  0  0  0  0  0  0  0  0  0
   39.5990   33.4130   40.6910 H   0  0  0  0  0  0  0  0  0  0  0  0
   36.6960   33.4550   41.7180 H   0  0  0  0  0  0  0  0  0  0  0  0
   37.7470   34.7800   41.2480 H   0  0  0  0  0  0  0  0  0  0  0  0
   37.0280   32.0740   38.4160 H   0  0  0  0  0  0  0  0  0  0  0  0
   36.3470   31.6710   40.0540 H   0  0  0  0  0  0  0  0  0  0  0  0
   38.1180   30.2680   39.8180 H   0  0  0  0  0  0  0  0  0  0  0  0
   40.9100   29.5080   40.3230 Cl  0  0  0  0  0  0  0  0  0  0  0  0
   40.7890   30.8620   39.2190 C   0  0  0  0  0  0  0  0  0  0  0  0
   39.6230   31.5900   39.0870 C   0  0  0  0  0  0  0  0  0  0  0  0
   39.7020   32.5880   38.1470 C   0  0  0  0  0  0  0  0  0  0  0  0
   38.8840   33.2310   37.9320 H   0  0  0  0  0  0  0  0  0  0  0  0
   40.8220   32.8760   37.3810 C   0  0  0  0  0  0  0  0  0  0  0  0
   40.8700   33.6580   36.6520 H   0  0  0  0  0  0  0  0  0  0  0  0
   41.9630   32.1100   37.5610 C   0  0  0  0  0  0  0  0  0  0  0  0
   42.8520   32.3110   36.9800 H   0  0  0  0  0  0  0  0  0  0  0  0
   41.9400   31.0930   38.4930 C   0  0  0  0  0  0  0  0  0  0  0  0
   43.4110   30.1610   38.6750 Cl  0  0  0  0  0  0  0  0  0  0  0  0
   39.3100   33.2650   42.7690 O   0  0  0  0  0  0  0  0  0  0  0  0
   36.1220   30.1920   46.6770 C   0  0  0  0  0  0  0  0  0  0  0  0
   37.0580   30.7040   47.5430 C   0  0  0  0  0  0  0  0  0  0  0  0
   38.0930   31.5390   47.0890 C   0  0  0  0  0  0  0  0  0  0  0  0
   38.1110   31.8110   45.7360 C   0  0  0  0  0  0  0  0  0  0  0  0
   39.0030   32.5940   45.0510 N   0  0  0  0  0  0  0  0  0  0  0  0
   38.6160   32.5640   43.7620 C   0  0  0  0  0  0  0  0  0  0  0  0
   37.5460   31.8110   43.6310 N   0  0  0  0  0  0  0  0  0  0  0  0
   37.1880   31.3170   44.8310 C   0  0  0  0  0  0  0  0  0  0  0  0
   36.1700   30.4860   45.3190 C   0  0  0  0  0  0  0  0  0  0  0  0
   35.3210   29.5480   47.0130 H   0  0  0  0  0  0  0  0  0  0  0  0
   38.8410   31.9520   47.7550 H   0  0  0  0  0  0  0  0  0  0  0  0
   39.8340   33.1200   45.4490 H   0  0  0  0  0  0  0  0  0  0  0  0
   35.4490   30.0990   44.6150 H   0  0  0  0  0  0  0  0  0  0  0  0
   37.6130   30.3230   51.2490 C   0  0  0  0  0  0  0  0  0  0  0  0
   37.8650   30.7080   49.9390 C   0  0  0  0  0  0  0  0  0  0  0  0
   36.9650   30.3810   48.9560 C   0  0  0  0  0  0  0  0  0  0  0  0
   35.8430   29.6740   49.3410 N   0  0  0  0  0  0  0  0  0  0  0  0
   35.5990   29.3010   50.6140 C   0  0  0  0  0  0  0  0  0  0  0  0
   36.4770   29.6250   51.5520 N   0  0  0  0  0  0  0  0  0  0  0  0
   38.3520   30.6030   51.9990 H   0  0  0  0  0  0  0  0  0  0  0  0
   38.7270   31.2530   49.6290 H   0  0  0  0  0  0  0  0  0  0  0  0
   34.6930   28.7480   50.8260 H   0  0  0  0  0  0  0  0  0  0  0  0
  1  2  1  0  0  0  0
  1  7  1  0  0  0  0
  2  8  1  6  0  0  0
  2 25  1  0  0  0  0
  3 10  1  0  0  0  0
  3  2  1  0  0  0  0
  3  9  1  0  0  0  0
  4  3  1  0  0  0  0
  5  4  1  0  0  0  0
  5  6  1  0  0  0  0
  5 12  1  0  0  0  0
  6 13  1  6  0  0  0
  6  1  1  0  0  0  0
 11  5  1  0  0  0  0
 15 14  1  0  0  0  0
 16 15  1  0  0  0  0
 16  6  1  0  0  0  0
 17 16  2  0  0  0  0
 18 17  1  0  0  0  0
 19 21  2  0  0  0  0
 19 17  1  0  0  0  0
 20 19  1  0  0  0  0
 21 23  1  0  0  0  0
 22 21  1  0  0  0  0
 23 24  1  0  0  0  0
 23 15  2  0  0  0  0
 25 31  1  0  0  0  0
 26 35  1  0  0  0  0
 26 27  1  0  0  0  0
 27 41  1  0  0  0  0
 28 27  2  0  0  0  0
 28 36  1  0  0  0  0
 29 28  1  0  0  0  0
 30 37  1  0  0  0  0
 30 29  1  0  0  0  0
 31 30  1  0  0  0  0
 32 31  2  0  0  0  0
 32 33  1  0  0  0  0
 33 34  1  0  0  0  0
 33 29  2  0  0  0  0
 34 26  2  0  0  0  0
 38 34  1  0  0  0  0
 39 44  1  0  0  0  0
 39 45  1  0  0  0  0
 40 39  2  0  0  0  0
 41 42  2  0  0  0  0
 41 40  1  0  0  0  0
 42 43  1  0  0  0  0
 43 47  1  0  0  0  0
 43 44  2  0  0  0  0
 46 40  1  0  0  0  0
M  END
>  <minimizedAffinity>
-5.78511858

>  <minimizedRMSD>
1.13711345

$$$$
