
 OpenBabel03272500513D

 47 52  0  0  1  0  0  0  0  0999 V2000
   32.6210   28.7950   45.7620 C   0  0  0  0  0  0  0  0  0  0  0  0
   33.4970   28.9100   44.6880 C   0  0  0  0  0  0  0  0  0  0  0  0
   34.7060   29.2880   45.1870 N   0  0  0  0  0  0  0  0  0  0  0  0
   34.5990   29.4110   46.5480 C   0  0  0  0  0  0  0  0  0  0  0  0
   33.3360   29.1110   46.8750 N   0  0  0  0  0  0  0  0  0  0  0  0
   33.3110   28.7430   43.6360 H   0  0  0  0  0  0  0  0  0  0  0  0
   35.6160   29.4780   44.7180 H   0  0  0  0  0  0  0  0  0  0  0  0
   30.6310   27.3900   46.5430 C   0  0  1  0  0  0  0  0  0  0  0  0
   30.8120   27.1160   45.0040 C   0  0  0  0  0  0  0  0  0  0  0  0
   31.1730   28.4160   45.6550 C   0  0  2  0  0  0  0  0  0  0  0  0
   31.3330   26.7960   47.1620 H   0  0  0  0  0  0  0  0  0  0  0  0
   29.8790   27.1130   44.4240 H   0  0  0  0  0  0  0  0  0  0  0  0
   31.6670   26.4920   44.7150 H   0  0  0  0  0  0  0  0  0  0  0  0
   30.5320   29.2850   45.4030 H   0  0  0  0  0  0  0  0  0  0  0  0
   27.4020   28.3680   47.7890 C   0  0  0  0  0  0  0  0  0  0  0  0
   27.2350   27.0050   47.7160 C   0  0  0  0  0  0  0  0  0  0  0  0
   28.4390   26.4400   47.2330 C   0  0  0  0  0  0  0  0  0  0  0  0
   29.2740   27.4770   47.0360 N   0  0  0  0  0  0  0  0  0  0  0  0
   28.6380   28.5730   47.3690 N   0  0  0  0  0  0  0  0  0  0  0  0
   26.3900   26.3410   47.9530 H   0  0  0  0  0  0  0  0  0  0  0  0
   28.6310   25.3910   47.0620 H   0  0  0  0  0  0  0  0  0  0  0  0
   25.2340   28.8160   48.9770 C   0  0  0  0  0  0  0  0  0  0  0  0
   26.3790   29.2750   48.2430 C   0  0  0  0  0  0  0  0  0  0  0  0
   26.4650   30.6180   47.9900 C   0  0  0  0  0  0  0  0  0  0  0  0
   25.4810   31.4500   48.4330 N   0  0  0  0  0  0  0  0  0  0  0  0
   24.4120   30.9730   49.1240 C   0  0  0  0  0  0  0  0  0  0  0  0
   24.2800   29.6570   49.4000 N   0  0  0  0  0  0  0  0  0  0  0  0
   25.2480   27.7470   49.1300 H   0  0  0  0  0  0  0  0  0  0  0  0
   27.2730   31.0710   47.4540 H   0  0  0  0  0  0  0  0  0  0  0  0
   23.6130   31.5870   49.4920 H   0  0  0  0  0  0  0  0  0  0  0  0
   35.6900   29.8130   47.4710 C   0  0  0  0  0  0  0  0  0  0  0  0
   35.8860   29.1260   48.6880 C   0  0  0  0  0  0  0  0  0  0  0  0
   37.3200   30.0000   49.4220 S   0  0  0  0  0  0  0  0  0  0  0  0
   37.4030   31.1570   47.9360 C   0  0  0  0  0  0  0  0  0  0  0  0
   36.5480   30.7860   47.2890 N   0  0  0  0  0  0  0  0  0  0  0  0
   35.2930   28.2820   49.0490 H   0  0  0  0  0  0  0  0  0  0  0  0
   37.3710   32.9090   50.2590 Cl  0  0  0  0  0  0  0  0  0  0  0  0
   38.4690   33.1070   48.9280 C   0  0  0  0  0  0  0  0  0  0  0  0
   38.4480   32.2480   47.8430 C   0  0  0  0  0  0  0  0  0  0  0  0
   39.2610   32.3110   46.7480 C   0  0  0  0  0  0  0  0  0  0  0  0
   39.1950   31.6080   45.9300 H   0  0  0  0  0  0  0  0  0  0  0  0
   40.1820   33.3390   46.7510 C   0  0  0  0  0  0  0  0  0  0  0  0
   40.8790   33.4820   45.9280 H   0  0  0  0  0  0  0  0  0  0  0  0
   40.2980   34.2690   47.7910 C   0  0  0  0  0  0  0  0  0  0  0  0
   41.0320   35.0590   47.7550 H   0  0  0  0  0  0  0  0  0  0  0  0
   39.4210   34.1010   48.8410 C   0  0  0  0  0  0  0  0  0  0  0  0
   39.4680   35.2060   50.2100 Cl  0  0  0  0  0  0  0  0  0  0  0  0
  1  5  1  0  0  0  0
  2  3  1  0  0  0  0
  2  1  2  0  0  0  0
  3  4  1  0  0  0  0
  4  5  2  0  0  0  0
  4 31  1  0  0  0  0
  6  2  1  0  0  0  0
  7  3  1  0  0  0  0
  8 18  1  0  0  0  0
  8 11  1  1  0  0  0
  9 10  1  0  0  0  0
  9  8  1  0  0  0  0
 10 14  1  6  0  0  0
 10  1  1  0  0  0  0
 10  8  1  0  0  0  0
 12  9  1  0  0  0  0
 13  9  1  0  0  0  0
 15 23  1  0  0  0  0
 16 15  1  0  0  0  0
 16 20  1  0  0  0  0
 17 16  2  0  0  0  0
 18 17  1  0  0  0  0
 18 19  1  0  0  0  0
 19 15  2  0  0  0  0
 21 17  1  0  0  0  0
 22 28  1  0  0  0  0
 22 27  1  0  0  0  0
 23 22  2  0  0  0  0
 24 23  1  0  0  0  0
 24 25  2  0  0  0  0
 25 26  1  0  0  0  0
 26 27  2  0  0  0  0
 26 30  1  0  0  0  0
 29 24  1  0  0  0  0
 31 32  2  0  0  0  0
 32 36  1  0  0  0  0
 32 33  1  0  0  0  0
 34 33  1  0  0  0  0
 35 31  1  0  0  0  0
 35 34  2  0  0  0  0
 38 37  1  0  0  0  0
 39 34  1  0  0  0  0
 39 38  2  0  0  0  0
 40 42  2  0  0  0  0
 40 39  1  0  0  0  0
 41 40  1  0  0  0  0
 42 44  1  0  0  0  0
 43 42  1  0  0  0  0
 44 46  2  0  0  0  0
 45 44  1  0  0  0  0
 46 38  1  0  0  0  0
 46 47  1  0  0  0  0
M  END
>  <minimizedAffinity>
-5.749053

>  <minimizedRMSD>
1.78916776

$$$$
