
 OpenBabel03272502533D

 29 31  0  0  0  0  0  0  0  0999 V2000
   36.0020   30.3320   48.6120 C   0  0  0  0  0  0  0  0  0  0  0  0
   35.9430   29.4520   49.6860 C   0  0  0  0  0  0  0  0  0  0  0  0
   34.9530   28.4920   49.7610 C   0  0  0  0  0  0  0  0  0  0  0  0
   34.0440   28.4570   48.7330 C   0  0  0  0  0  0  0  0  0  0  0  0
   34.0880   29.3270   47.6570 C   0  0  0  0  0  0  0  0  0  0  0  0
   35.0870   30.2690   47.6140 N   0  0  0  0  0  0  0  0  0  0  0  0
   36.7130   29.5550   50.4590 H   0  0  0  0  0  0  0  0  0  0  0  0
   34.9440   27.8310   50.6080 H   0  0  0  0  0  0  0  0  0  0  0  0
   33.2760   27.7050   48.8030 H   0  0  0  0  0  0  0  0  0  0  0  0
   33.8830   26.6810   46.2280 Cl  0  0  0  0  0  0  0  0  0  0  0  0
   32.9390   28.1300   45.8420 C   0  0  0  0  0  0  0  0  0  0  0  0
   33.1210   29.2870   46.5680 C   0  0  0  0  0  0  0  0  0  0  0  0
   32.3390   30.3560   46.1900 C   0  0  0  0  0  0  0  0  0  0  0  0
   32.4280   31.2860   46.7110 H   0  0  0  0  0  0  0  0  0  0  0  0
   31.4240   30.3290   45.1630 C   0  0  0  0  0  0  0  0  0  0  0  0
   30.8240   31.1940   44.8940 H   0  0  0  0  0  0  0  0  0  0  0  0
   31.2660   29.1450   44.4510 C   0  0  0  0  0  0  0  0  0  0  0  0
   30.5830   29.0210   43.6390 H   0  0  0  0  0  0  0  0  0  0  0  0
   32.0290   28.0480   44.7970 C   0  0  0  0  0  0  0  0  0  0  0  0
   31.8590   26.5270   43.9160 Cl  0  0  0  0  0  0  0  0  0  0  0  0
   38.1360   33.1630   49.5230 C   0  0  0  0  0  0  0  0  0  0  0  0
   39.0460   33.2230   48.4420 C   0  0  0  0  0  0  0  0  0  0  0  0
   38.9090   32.2780   47.4060 C   0  0  0  0  0  0  0  0  0  0  0  0
   37.9020   31.3800   47.5380 N   0  0  0  0  0  0  0  0  0  0  0  0
   37.0510   31.3340   48.5610 C   0  0  0  0  0  0  0  0  0  0  0  0
   37.1870   32.2300   49.5350 N   0  0  0  0  0  0  0  0  0  0  0  0
   38.2380   33.8990   50.3350 H   0  0  0  0  0  0  0  0  0  0  0  0
   39.8330   33.9590   48.3850 H   0  0  0  0  0  0  0  0  0  0  0  0
   39.5840   32.3100   46.5890 H   0  0  0  0  0  0  0  0  0  0  0  0
  1  2  1  0  0  0  0
  2  3  2  0  0  0  0
  2  7  1  0  0  0  0
  3  8  1  0  0  0  0
  4  9  1  0  0  0  0
  4  3  1  0  0  0  0
  5  4  2  0  0  0  0
  6  5  1  0  0  0  0
  6  1  2  0  0  0  0
 11 10  1  0  0  0  0
 11 12  1  0  0  0  0
 12  5  1  0  0  0  0
 13 12  2  0  0  0  0
 13 14  1  0  0  0  0
 15 13  1  0  0  0  0
 16 15  1  0  0  0  0
 17 19  1  0  0  0  0
 17 15  2  0  0  0  0
 18 17  1  0  0  0  0
 19 11  2  0  0  0  0
 20 19  1  0  0  0  0
 21 26  1  0  0  0  0
 21 27  1  0  0  0  0
 22 21  2  0  0  0  0
 23 24  2  0  0  0  0
 23 22  1  0  0  0  0
 24 25  1  0  0  0  0
 25  1  1  0  0  0  0
 25 26  2  0  0  0  0
 28 22  1  0  0  0  0
 29 23  1  0  0  0  0
M  END
>  <minimizedAffinity>
-5.37856102

>  <minimizedRMSD>
0.336006403

$$$$
