
 OpenBabel03272508063D

 37 40  0  0  0  0  0  0  0  0999 V2000
   38.8640   30.9320   45.8550 C   0  0  0  0  0  0  0  0  0  0  0  0
   40.0250   31.6160   46.0990 C   0  0  0  0  0  0  0  0  0  0  0  0
   40.8780   31.5600   45.0010 C   0  0  0  0  0  0  0  0  0  0  0  0
   40.1610   30.8160   44.1120 N   0  0  0  0  0  0  0  0  0  0  0  0
   38.9970   30.4490   44.5960 N   0  0  0  0  0  0  0  0  0  0  0  0
   40.2720   32.1380   47.0150 H   0  0  0  0  0  0  0  0  0  0  0  0
   41.8440   31.9690   44.8400 H   0  0  0  0  0  0  0  0  0  0  0  0
   37.7150   30.7470   46.7340 C   0  0  0  0  0  0  0  0  0  0  0  0
   37.9230   30.9470   48.1240 C   0  0  0  0  0  0  0  0  0  0  0  0
   36.8320   30.7710   48.9700 C   0  0  0  0  0  0  0  0  0  0  0  0
   35.6380   30.4190   48.4180 N   0  0  0  0  0  0  0  0  0  0  0  0
   35.4780   30.2370   47.0960 C   0  0  0  0  0  0  0  0  0  0  0  0
   36.5200   30.4030   46.2640 N   0  0  0  0  0  0  0  0  0  0  0  0
   38.8960   31.2300   48.5270 H   0  0  0  0  0  0  0  0  0  0  0  0
   34.4930   29.9530   46.6980 H   0  0  0  0  0  0  0  0  0  0  0  0
   37.0340   30.9770   50.4380 C   0  0  0  0  0  0  0  0  0  0  0  0
   36.5370   32.2160   50.7140 F   0  0  0  0  0  0  0  0  0  0  0  0
   36.3400   30.0230   51.1940 F   0  0  0  0  0  0  0  0  0  0  0  0
   38.3730   30.9180   50.7840 F   0  0  0  0  0  0  0  0  0  0  0  0
   40.5520   30.4330   42.7600 C   0  0  0  0  0  0  0  0  0  0  0  0
   40.1710   31.1890   41.6400 C   0  0  0  0  0  0  0  0  0  0  0  0
   40.5790   30.7950   40.4020 C   0  0  0  0  0  0  0  0  0  0  0  0
   41.3740   29.6370   40.2560 C   0  0  0  0  0  0  0  0  0  0  0  0
   41.5260   29.1080   42.0130 S   0  0  0  0  0  0  0  0  0  0  0  0
   39.5480   32.0910   41.7700 H   0  0  0  0  0  0  0  0  0  0  0  0
   40.3050   31.3540   39.5250 H   0  0  0  0  0  0  0  0  0  0  0  0
   43.7770   30.8530   38.8060 Cl  0  0  0  0  0  0  0  0  0  0  0  0
   43.0630   29.2930   38.4720 C   0  0  0  0  0  0  0  0  0  0  0  0
   41.9800   28.9110   39.2310 C   0  0  0  0  0  0  0  0  0  0  0  0
   41.4980   27.6700   38.8830 C   0  0  0  0  0  0  0  0  0  0  0  0
   40.6480   27.2110   39.3780 H   0  0  0  0  0  0  0  0  0  0  0  0
   42.0310   26.8840   37.8880 C   0  0  0  0  0  0  0  0  0  0  0  0
   41.6330   25.9120   37.6360 H   0  0  0  0  0  0  0  0  0  0  0  0
   43.1140   27.3510   37.1830 C   0  0  0  0  0  0  0  0  0  0  0  0
   43.5340   26.7500   36.4100 H   0  0  0  0  0  0  0  0  0  0  0  0
   43.6640   28.5810   37.4600 C   0  0  0  0  0  0  0  0  0  0  0  0
   45.0340   29.1900   36.5800 Cl  0  0  0  0  0  0  0  0  0  0  0  0
  1  2  1  0  0  0  0
  1  8  1  0  0  0  0
  2  6  1  0  0  0  0
  3  2  2  0  0  0  0
  4  5  1  0  0  0  0
  4  3  1  0  0  0  0
  5  1  2  0  0  0  0
  7  3  1  0  0  0  0
  8  9  1  0  0  0  0
  9 14  1  0  0  0  0
  9 10  2  0  0  0  0
 10 16  1  0  0  0  0
 11 10  1  0  0  0  0
 12 11  2  0  0  0  0
 13  8  2  0  0  0  0
 13 12  1  0  0  0  0
 15 12  1  0  0  0  0
 16 17  1  0  0  0  0
 16 19  1  0  0  0  0
 16 18  1  0  0  0  0
 20  4  1  0  0  0  0
 21 25  1  0  0  0  0
 21 20  2  0  0  0  0
 22 21  1  0  0  0  0
 23 22  2  0  0  0  0
 23 24  1  0  0  0  0
 24 20  1  0  0  0  0
 26 22  1  0  0  0  0
 28 27  1  0  0  0  0
 28 29  1  0  0  0  0
 29 23  1  0  0  0  0
 30 29  2  0  0  0  0
 30 31  1  0  0  0  0
 32 30  1  0  0  0  0
 33 32  1  0  0  0  0
 34 36  1  0  0  0  0
 34 32  2  0  0  0  0
 35 34  1  0  0  0  0
 36 28  2  0  0  0  0
 37 36  1  0  0  0  0
M  END
>  <minimizedAffinity>
-6.61807108

>  <minimizedRMSD>
0.709675848

$$$$
