
 OpenBabel03272508063D

 37 40  0  0  0  0  0  0  0  0999 V2000
   38.8710   30.9260   45.8370 C   0  0  0  0  0  0  0  0  0  0  0  0
   40.0380   31.5980   46.0850 C   0  0  0  0  0  0  0  0  0  0  0  0
   40.8910   31.5390   44.9880 C   0  0  0  0  0  0  0  0  0  0  0  0
   40.1680   30.8040   44.0950 N   0  0  0  0  0  0  0  0  0  0  0  0
   39.0010   30.4450   44.5760 N   0  0  0  0  0  0  0  0  0  0  0  0
   40.2880   32.1150   47.0030 H   0  0  0  0  0  0  0  0  0  0  0  0
   41.8610   31.9410   44.8290 H   0  0  0  0  0  0  0  0  0  0  0  0
   37.7190   30.7470   46.7140 C   0  0  0  0  0  0  0  0  0  0  0  0
   37.9240   30.9510   48.1040 C   0  0  0  0  0  0  0  0  0  0  0  0
   36.8310   30.7810   48.9480 C   0  0  0  0  0  0  0  0  0  0  0  0
   35.6370   30.4320   48.3940 N   0  0  0  0  0  0  0  0  0  0  0  0
   35.4790   30.2460   47.0720 C   0  0  0  0  0  0  0  0  0  0  0  0
   36.5240   30.4060   46.2420 N   0  0  0  0  0  0  0  0  0  0  0  0
   38.8970   31.2310   48.5080 H   0  0  0  0  0  0  0  0  0  0  0  0
   34.4940   29.9640   46.6730 H   0  0  0  0  0  0  0  0  0  0  0  0
   37.0300   30.9910   50.4160 C   0  0  0  0  0  0  0  0  0  0  0  0
   36.5350   32.2320   50.6870 F   0  0  0  0  0  0  0  0  0  0  0  0
   36.3340   30.0400   51.1730 F   0  0  0  0  0  0  0  0  0  0  0  0
   38.3690   30.9320   50.7650 F   0  0  0  0  0  0  0  0  0  0  0  0
   40.5580   30.4220   42.7430 C   0  0  0  0  0  0  0  0  0  0  0  0
   40.1810   31.1830   41.6250 C   0  0  0  0  0  0  0  0  0  0  0  0
   40.5870   30.7910   40.3860 C   0  0  0  0  0  0  0  0  0  0  0  0
   41.3770   29.6280   40.2360 C   0  0  0  0  0  0  0  0  0  0  0  0
   41.5260   29.0940   41.9920 S   0  0  0  0  0  0  0  0  0  0  0  0
   39.5630   32.0880   41.7560 H   0  0  0  0  0  0  0  0  0  0  0  0
   40.3160   31.3530   39.5100 H   0  0  0  0  0  0  0  0  0  0  0  0
   43.7880   30.8360   38.7910 Cl  0  0  0  0  0  0  0  0  0  0  0  0
   43.0640   29.2800   38.4520 C   0  0  0  0  0  0  0  0  0  0  0  0
   41.9800   28.9030   39.2100 C   0  0  0  0  0  0  0  0  0  0  0  0
   41.4920   27.6650   38.8580 C   0  0  0  0  0  0  0  0  0  0  0  0
   40.6380   27.2080   39.3520 H   0  0  0  0  0  0  0  0  0  0  0  0
   42.0200   26.8790   37.8620 C   0  0  0  0  0  0  0  0  0  0  0  0
   41.6170   25.9110   37.6070 H   0  0  0  0  0  0  0  0  0  0  0  0
   43.1070   27.3420   37.1580 C   0  0  0  0  0  0  0  0  0  0  0  0
   43.5240   26.7410   36.3840 H   0  0  0  0  0  0  0  0  0  0  0  0
   43.6640   28.5690   37.4380 C   0  0  0  0  0  0  0  0  0  0  0  0
   45.0360   29.1720   36.5620 Cl  0  0  0  0  0  0  0  0  0  0  0  0
  1  2  1  0  0  0  0
  1  8  1  0  0  0  0
  2  6  1  0  0  0  0
  3  2  2  0  0  0  0
  4  5  1  0  0  0  0
  4  3  1  0  0  0  0
  5  1  2  0  0  0  0
  7  3  1  0  0  0  0
  8  9  1  0  0  0  0
  9 14  1  0  0  0  0
  9 10  2  0  0  0  0
 10 16  1  0  0  0  0
 11 10  1  0  0  0  0
 12 11  2  0  0  0  0
 13  8  2  0  0  0  0
 13 12  1  0  0  0  0
 15 12  1  0  0  0  0
 16 17  1  0  0  0  0
 16 19  1  0  0  0  0
 16 18  1  0  0  0  0
 20  4  1  0  0  0  0
 21 25  1  0  0  0  0
 21 20  2  0  0  0  0
 22 21  1  0  0  0  0
 23 22  2  0  0  0  0
 23 24  1  0  0  0  0
 24 20  1  0  0  0  0
 26 22  1  0  0  0  0
 28 27  1  0  0  0  0
 28 29  1  0  0  0  0
 29 23  1  0  0  0  0
 30 29  2  0  0  0  0
 30 31  1  0  0  0  0
 32 30  1  0  0  0  0
 33 32  1  0  0  0  0
 34 36  1  0  0  0  0
 34 32  2  0  0  0  0
 35 34  1  0  0  0  0
 36 28  2  0  0  0  0
 37 36  1  0  0  0  0
M  END
>  <minimizedAffinity>
-6.61719847

>  <minimizedRMSD>
0.506259561

$$$$
