
 OpenBabel03272502593D

 36 38  0  0  1  0  0  0  0  0999 V2000
   35.7660   29.6770   48.7140 N   0  0  0  0  0  0  0  0  0  0  0  0
   36.6700   28.9150   49.5450 C   0  0  0  0  0  0  0  0  0  0  0  0
   37.2340   29.5730   50.7280 C   0  0  0  0  0  0  0  0  0  0  0  0
   37.3560   31.0420   50.7240 C   0  0  0  0  0  0  0  0  0  0  0  0
   36.4390   31.7350   49.7630 C   0  0  0  0  0  0  0  0  0  0  0  0
   36.3860   30.9650   48.4380 C   0  0  1  0  0  0  0  0  0  0  0  0
   37.4950   28.5850   48.8680 H   0  0  0  0  0  0  0  0  0  0  0  0
   36.1220   27.9730   49.7970 H   0  0  0  0  0  0  0  0  0  0  0  0
   38.2540   29.1420   50.9180 H   0  0  0  0  0  0  0  0  0  0  0  0
   36.6390   29.2470   51.6250 H   0  0  0  0  0  0  0  0  0  0  0  0
   37.0960   31.4580   51.7410 H   0  0  0  0  0  0  0  0  0  0  0  0
   38.3990   31.4150   50.5310 H   0  0  0  0  0  0  0  0  0  0  0  0
   36.7590   32.7760   49.5790 H   0  0  0  0  0  0  0  0  0  0  0  0
   35.3940   31.7940   50.1130 H   0  0  0  0  0  0  0  0  0  0  0  0
   35.8230   31.5520   47.7100 H   0  0  0  0  0  0  0  0  0  0  0  0
   34.4930   29.2310   48.2530 C   0  0  0  0  0  0  0  0  0  0  0  0
   33.8900   29.6590   47.0730 C   0  0  0  0  0  0  0  0  0  0  0  0
   32.6480   29.1490   46.7390 C   0  0  0  0  0  0  0  0  0  0  0  0
   32.0780   28.2520   47.5830 N   0  0  0  0  0  0  0  0  0  0  0  0
   32.6850   27.8630   48.7080 C   0  0  0  0  0  0  0  0  0  0  0  0
   33.8970   28.3540   49.0450 N   0  0  0  0  0  0  0  0  0  0  0  0
   34.4200   30.3760   46.4640 H   0  0  0  0  0  0  0  0  0  0  0  0
   32.1710   29.4740   45.8230 H   0  0  0  0  0  0  0  0  0  0  0  0
   32.1880   27.1360   49.3630 H   0  0  0  0  0  0  0  0  0  0  0  0
   37.7160   30.8070   48.0630 O   0  0  0  0  0  0  0  0  0  0  0  0
   36.9690   30.3630   45.2920 Cl  0  0  0  0  0  0  0  0  0  0  0  0
   38.1200   31.5320   45.9390 C   0  0  0  0  0  0  0  0  0  0  0  0
   38.4280   31.6890   47.2810 C   0  0  0  0  0  0  0  0  0  0  0  0
   39.3490   32.6490   47.6220 C   0  0  0  0  0  0  0  0  0  0  0  0
   39.5400   32.7150   48.6780 H   0  0  0  0  0  0  0  0  0  0  0  0
   39.9450   33.4300   46.6600 C   0  0  0  0  0  0  0  0  0  0  0  0
   40.6580   34.1660   46.9740 H   0  0  0  0  0  0  0  0  0  0  0  0
   39.6520   33.2880   45.3220 C   0  0  0  0  0  0  0  0  0  0  0  0
   40.1230   33.9030   44.5730 H   0  0  0  0  0  0  0  0  0  0  0  0
   38.7160   32.3160   44.9560 C   0  0  0  0  0  0  0  0  0  0  0  0
   38.3740   32.1710   43.2470 Cl  0  0  0  0  0  0  0  0  0  0  0  0
  1  2  1  0  0  0  0
  2  8  1  0  0  0  0
  2  3  1  0  0  0  0
  3  9  1  0  0  0  0
  3 10  1  0  0  0  0
  4  3  1  0  0  0  0
  4 11  1  0  0  0  0
  5 14  1  0  0  0  0
  5  4  1  0  0  0  0
  6 15  1  6  0  0  0
  6  1  1  0  0  0  0
  6  5  1  0  0  0  0
  7  2  1  0  0  0  0
 12  4  1  0  0  0  0
 13  5  1  0  0  0  0
 16  1  1  0  0  0  0
 16 21  1  0  0  0  0
 17 16  2  0  0  0  0
 18 17  1  0  0  0  0
 18 19  2  0  0  0  0
 19 20  1  0  0  0  0
 20 21  2  0  0  0  0
 20 24  1  0  0  0  0
 22 17  1  0  0  0  0
 23 18  1  0  0  0  0
 25  6  1  0  0  0  0
 26 27  1  0  0  0  0
 27 28  1  0  0  0  0
 28 29  2  0  0  0  0
 28 25  1  0  0  0  0
 29 30  1  0  0  0  0
 31 32  1  0  0  0  0
 31 29  1  0  0  0  0
 33 31  2  0  0  0  0
 34 33  1  0  0  0  0
 35 33  1  0  0  0  0
 35 27  2  0  0  0  0
 36 35  1  0  0  0  0
M  END
>  <minimizedAffinity>
-5.81385326

>  <minimizedRMSD>
1.12493682

$$$$
