
 OpenBabel03272510273D

 47 51  0  0  1  0  0  0  0  0999 V2000
   39.2010   31.3350   41.0480 N   0  0  0  0  0  0  0  0  0  0  0  0
   38.9220   32.7380   40.9920 C   0  0  1  0  0  0  0  0  0  0  0  0
   37.5320   32.9620   40.5860 C   0  0  0  0  0  0  0  0  0  0  0  0
   37.3650   32.4980   39.2860 O   0  0  0  0  0  0  0  0  0  0  0  0
   37.7140   31.1920   39.1050 C   0  0  0  0  0  0  0  0  0  0  0  0
   39.0520   30.8190   39.6860 C   0  0  1  0  0  0  0  0  0  0  0  0
   38.6300   30.7300   41.6090 H   0  0  0  0  0  0  0  0  0  0  0  0
   39.5730   33.2150   40.2310 H   0  0  0  0  0  0  0  0  0  0  0  0
   36.6870   32.5890   41.1030 H   0  0  0  0  0  0  0  0  0  0  0  0
   37.3860   34.0810   40.5000 H   0  0  0  0  0  0  0  0  0  0  0  0
   37.6490   30.9530   38.0490 H   0  0  0  0  0  0  0  0  0  0  0  0
   36.9640   30.5860   39.6940 H   0  0  0  0  0  0  0  0  0  0  0  0
   39.0570   29.7020   39.7430 H   0  0  0  0  0  0  0  0  0  0  0  0
   41.8470   29.5410   40.2500 Cl  0  0  0  0  0  0  0  0  0  0  0  0
   41.4970   30.8120   39.0980 C   0  0  0  0  0  0  0  0  0  0  0  0
   40.2140   31.2850   38.9040 C   0  0  0  0  0  0  0  0  0  0  0  0
   40.1240   32.2520   37.9350 C   0  0  0  0  0  0  0  0  0  0  0  0
   39.2040   32.7100   37.6710 H   0  0  0  0  0  0  0  0  0  0  0  0
   41.1920   32.7420   37.1950 C   0  0  0  0  0  0  0  0  0  0  0  0
   41.1090   33.4970   36.4410 H   0  0  0  0  0  0  0  0  0  0  0  0
   42.4570   32.2280   37.4380 C   0  0  0  0  0  0  0  0  0  0  0  0
   43.3080   32.5900   36.8780 H   0  0  0  0  0  0  0  0  0  0  0  0
   42.6040   31.2520   38.4010 C   0  0  0  0  0  0  0  0  0  0  0  0
   44.2250   30.6430   38.6610 Cl  0  0  0  0  0  0  0  0  0  0  0  0
   39.1610   33.2520   42.2930 O   0  0  0  0  0  0  0  0  0  0  0  0
   36.1820   30.2570   46.4200 C   0  0  0  0  0  0  0  0  0  0  0  0
   37.1640   30.7810   47.2250 C   0  0  0  0  0  0  0  0  0  0  0  0
   38.1750   31.6060   46.7010 C   0  0  0  0  0  0  0  0  0  0  0  0
   38.1200   31.8540   45.3450 C   0  0  0  0  0  0  0  0  0  0  0  0
   38.9750   32.6220   44.6000 N   0  0  0  0  0  0  0  0  0  0  0  0
   38.5200   32.5710   43.3340 C   0  0  0  0  0  0  0  0  0  0  0  0
   37.4430   31.8190   43.2740 N   0  0  0  0  0  0  0  0  0  0  0  0
   37.1490   31.3470   44.5000 C   0  0  0  0  0  0  0  0  0  0  0  0
   36.1570   30.5270   45.0560 C   0  0  0  0  0  0  0  0  0  0  0  0
   35.3990   29.6210   46.8090 H   0  0  0  0  0  0  0  0  0  0  0  0
   38.9580   32.0280   47.3190 H   0  0  0  0  0  0  0  0  0  0  0  0
   39.8280   33.1530   44.9430 H   0  0  0  0  0  0  0  0  0  0  0  0
   35.3990   30.1300   44.3990 H   0  0  0  0  0  0  0  0  0  0  0  0
   37.8390   30.5780   50.9250 C   0  0  0  0  0  0  0  0  0  0  0  0
   38.0060   30.9640   49.6020 C   0  0  0  0  0  0  0  0  0  0  0  0
   37.1470   30.4830   48.6470 C   0  0  0  0  0  0  0  0  0  0  0  0
   36.1490   29.6290   49.0720 N   0  0  0  0  0  0  0  0  0  0  0  0
   35.9870   29.2550   50.3580 C   0  0  0  0  0  0  0  0  0  0  0  0
   36.8250   29.7290   51.2680 N   0  0  0  0  0  0  0  0  0  0  0  0
   38.5420   30.9830   51.6520 H   0  0  0  0  0  0  0  0  0  0  0  0
   38.7730   31.6220   49.2610 H   0  0  0  0  0  0  0  0  0  0  0  0
   35.1760   28.5800   50.6020 H   0  0  0  0  0  0  0  0  0  0  0  0
  1  7  1  0  0  0  0
  2  8  1  6  0  0  0
  2  1  1  0  0  0  0
  2 25  1  0  0  0  0
  3  2  1  0  0  0  0
  3  9  1  0  0  0  0
  4  3  1  0  0  0  0
  5  4  1  0  0  0  0
  5  6  1  0  0  0  0
  5 12  1  0  0  0  0
  6 13  1  1  0  0  0
  6  1  1  0  0  0  0
 10  3  1  0  0  0  0
 11  5  1  0  0  0  0
 15 14  1  0  0  0  0
 16 15  1  0  0  0  0
 16  6  1  0  0  0  0
 17 16  2  0  0  0  0
 18 17  1  0  0  0  0
 19 21  2  0  0  0  0
 19 17  1  0  0  0  0
 20 19  1  0  0  0  0
 21 23  1  0  0  0  0
 22 21  1  0  0  0  0
 23 24  1  0  0  0  0
 23 15  2  0  0  0  0
 25 31  1  0  0  0  0
 26 35  1  0  0  0  0
 26 27  1  0  0  0  0
 27 41  1  0  0  0  0
 28 27  2  0  0  0  0
 28 36  1  0  0  0  0
 29 28  1  0  0  0  0
 30 37  1  0  0  0  0
 30 29  1  0  0  0  0
 31 30  1  0  0  0  0
 32 31  2  0  0  0  0
 32 33  1  0  0  0  0
 33 34  1  0  0  0  0
 33 29  2  0  0  0  0
 34 26  2  0  0  0  0
 38 34  1  0  0  0  0
 39 44  1  0  0  0  0
 39 45  1  0  0  0  0
 40 39  2  0  0  0  0
 41 42  2  0  0  0  0
 41 40  1  0  0  0  0
 42 43  1  0  0  0  0
 43 47  1  0  0  0  0
 43 44  2  0  0  0  0
 46 40  1  0  0  0  0
M  END
>  <minimizedAffinity>
-5.57413006

>  <minimizedRMSD>
1.05879653

$$$$
