
 OpenBabel03262522403D

 43 47  0  0  0  0  0  0  0  0999 V2000
   38.6930   31.4670   47.2640 C   0  0  0  0  0  0  0  0  0  0  0  0
   39.3090   32.6910   47.2520 C   0  0  0  0  0  0  0  0  0  0  0  0
   40.1050   33.1330   46.2160 C   0  0  0  0  0  0  0  0  0  0  0  0
   40.3100   32.3290   45.1250 C   0  0  0  0  0  0  0  0  0  0  0  0
   39.6800   31.1040   45.1630 C   0  0  0  0  0  0  0  0  0  0  0  0
   38.9200   30.7050   46.1720 N   0  0  0  0  0  0  0  0  0  0  0  0
   39.1770   33.3630   48.0920 H   0  0  0  0  0  0  0  0  0  0  0  0
   40.5730   34.1060   46.2460 H   0  0  0  0  0  0  0  0  0  0  0  0
   40.9340   32.6580   44.3000 H   0  0  0  0  0  0  0  0  0  0  0  0
   39.0650   29.0950   43.7860 C   0  0  0  0  0  0  0  0  0  0  0  0
   39.8550   30.2010   44.0390 C   0  0  0  0  0  0  0  0  0  0  0  0
   40.8550   30.3740   43.0970 C   0  0  0  0  0  0  0  0  0  0  0  0
   41.0770   29.5560   42.0080 C   0  0  0  0  0  0  0  0  0  0  0  0
   41.9790   29.5730   41.0150 N   0  0  0  0  0  0  0  0  0  0  0  0
   41.7260   28.5120   40.2070 C   0  0  0  0  0  0  0  0  0  0  0  0
   40.6440   27.8010   40.6900 C   0  0  0  0  0  0  0  0  0  0  0  0
   40.2500   28.4780   41.8280 C   0  0  0  0  0  0  0  0  0  0  0  0
   39.2420   28.2460   42.7150 C   0  0  0  0  0  0  0  0  0  0  0  0
   38.2460   28.8840   44.4870 H   0  0  0  0  0  0  0  0  0  0  0  0
   41.5370   31.2150   43.1970 H   0  0  0  0  0  0  0  0  0  0  0  0
   42.7350   30.2950   40.9100 H   0  0  0  0  0  0  0  0  0  0  0  0
   42.3500   28.3440   39.3370 H   0  0  0  0  0  0  0  0  0  0  0  0
   40.2470   26.9160   40.2240 H   0  0  0  0  0  0  0  0  0  0  0  0
   38.6080   27.3990   42.5560 H   0  0  0  0  0  0  0  0  0  0  0  0
   37.2750   30.6690   50.6630 C   0  0  0  0  0  0  0  0  0  0  0  0
   38.1730   31.1690   49.7010 C   0  0  0  0  0  0  0  0  0  0  0  0
   37.8520   30.9980   48.3550 C   0  0  0  0  0  0  0  0  0  0  0  0
   36.7020   30.3640   48.0580 N   0  0  0  0  0  0  0  0  0  0  0  0
   35.8560   29.8910   49.0010 C   0  0  0  0  0  0  0  0  0  0  0  0
   36.1370   30.0410   50.2810 N   0  0  0  0  0  0  0  0  0  0  0  0
   37.5480   30.8150   51.7070 H   0  0  0  0  0  0  0  0  0  0  0  0
   39.0960   31.6790   49.9530 H   0  0  0  0  0  0  0  0  0  0  0  0
   35.3420   30.0770   46.0660 Cl  0  0  0  0  0  0  0  0  0  0  0  0
   34.2810   29.2240   47.1970 C   0  0  0  0  0  0  0  0  0  0  0  0
   34.6590   29.2310   48.5180 C   0  0  0  0  0  0  0  0  0  0  0  0
   33.8260   28.5630   49.3910 C   0  0  0  0  0  0  0  0  0  0  0  0
   34.0240   28.5030   50.4570 H   0  0  0  0  0  0  0  0  0  0  0  0
   32.6820   27.9280   48.9610 C   0  0  0  0  0  0  0  0  0  0  0  0
   32.0110   27.3960   49.6290 H   0  0  0  0  0  0  0  0  0  0  0  0
   32.3890   27.9770   47.6210 C   0  0  0  0  0  0  0  0  0  0  0  0
   31.4770   27.4680   47.2900 H   0  0  0  0  0  0  0  0  0  0  0  0
   33.1610   28.6200   46.6680 C   0  0  0  0  0  0  0  0  0  0  0  0
   32.7670   28.6670   44.9680 Cl  0  0  0  0  0  0  0  0  0  0  0  0
  1 27  1  0  0  0  0
  2  1  1  0  0  0  0
  2  7  1  0  0  0  0
  3  8  1  0  0  0  0
  3  2  2  0  0  0  0
  4  5  2  0  0  0  0
  4  3  1  0  0  0  0
  5  6  1  0  0  0  0
  6  1  2  0  0  0  0
  9  4  1  0  0  0  0
 10 11  1  0  0  0  0
 10 19  1  0  0  0  0
 11  5  1  0  0  0  0
 12 20  1  0  0  0  0
 12 11  2  0  0  0  0
 13 12  1  0  0  0  0
 14 13  1  0  0  0  0
 15 16  2  0  0  0  0
 15 14  1  0  0  0  0
 16 17  1  0  0  0  0
 17 13  2  0  0  0  0
 17 18  1  0  0  0  0
 18 10  2  0  0  0  0
 21 14  1  0  0  0  0
 22 15  1  0  0  0  0
 23 16  1  0  0  0  0
 24 18  1  0  0  0  0
 25 31  1  0  0  0  0
 26 32  1  0  0  0  0
 26 25  2  0  0  0  0
 27 26  1  0  0  0  0
 28 27  2  0  0  0  0
 28 29  1  0  0  0  0
 29 30  2  0  0  0  0
 30 25  1  0  0  0  0
 33 34  1  0  0  0  0
 34 35  1  0  0  0  0
 35 29  1  0  0  0  0
 35 36  2  0  0  0  0
 36 37  1  0  0  0  0
 38 36  1  0  0  0  0
 38 39  1  0  0  0  0
 40 38  2  0  0  0  0
 41 40  1  0  0  0  0
 42 34  2  0  0  0  0
 42 40  1  0  0  0  0
 43 42  1  0  0  0  0
M  END
>  <minimizedAffinity>
-7.93461037

>  <minimizedRMSD>
0.902686656

$$$$
