
 OpenBabel03272502563D

 44 47  0  0  0  0  0  0  0  0999 V2000
   35.8970   30.1920   48.6210 C   0  0  0  0  0  0  0  0  0  0  0  0
   35.9240   29.2650   49.6700 C   0  0  0  0  0  0  0  0  0  0  0  0
   34.9320   28.3120   49.7930 C   0  0  0  0  0  0  0  0  0  0  0  0
   33.9350   28.3410   48.8240 C   0  0  0  0  0  0  0  0  0  0  0  0
   33.9010   29.2490   47.7900 C   0  0  0  0  0  0  0  0  0  0  0  0
   34.9010   30.1570   47.7240 N   0  0  0  0  0  0  0  0  0  0  0  0
   32.8430   29.1830   46.8680 N   0  0  0  0  0  0  0  0  0  0  0  0
   31.6760   28.4030   47.2130 C   0  0  0  0  0  0  0  0  0  0  0  0
   30.7810   28.3950   45.9790 C   0  0  0  0  0  0  0  0  0  0  0  0
   30.3870   29.8350   45.6580 C   0  0  0  0  0  0  0  0  0  0  0  0
   31.5920   30.7000   45.4860 C   0  0  0  0  0  0  0  0  0  0  0  0
   32.8520   29.8540   45.5840 C   0  0  0  0  0  0  0  0  0  0  0  0
   36.7210   29.2750   50.4080 H   0  0  0  0  0  0  0  0  0  0  0  0
   34.9500   27.6010   50.5950 H   0  0  0  0  0  0  0  0  0  0  0  0
   33.1780   27.5830   48.9500 H   0  0  0  0  0  0  0  0  0  0  0  0
   31.9200   27.3150   47.3740 H   0  0  0  0  0  0  0  0  0  0  0  0
   31.1780   28.8760   48.0680 H   0  0  0  0  0  0  0  0  0  0  0  0
   29.8730   27.7980   46.1520 H   0  0  0  0  0  0  0  0  0  0  0  0
   31.3900   28.0040   45.1430 H   0  0  0  0  0  0  0  0  0  0  0  0
   29.8530   30.1990   46.5680 H   0  0  0  0  0  0  0  0  0  0  0  0
   29.6600   29.8580   44.8360 H   0  0  0  0  0  0  0  0  0  0  0  0
   31.5750   31.2350   44.5150 H   0  0  0  0  0  0  0  0  0  0  0  0
   31.6890   31.4970   46.2610 H   0  0  0  0  0  0  0  0  0  0  0  0
   33.7080   30.5800   45.6030 H   0  0  0  0  0  0  0  0  0  0  0  0
   33.0090   29.1980   44.7260 H   0  0  0  0  0  0  0  0  0  0  0  0
   38.3910   32.7300   49.4590 C   0  0  0  0  0  0  0  0  0  0  0  0
   39.0120   32.9680   48.2350 C   0  0  0  0  0  0  0  0  0  0  0  0
   38.5770   32.2720   47.1390 C   0  0  0  0  0  0  0  0  0  0  0  0
   37.5610   31.4000   47.3630 N   0  0  0  0  0  0  0  0  0  0  0  0
   36.9620   31.1660   48.5330 C   0  0  0  0  0  0  0  0  0  0  0  0
   37.3920   31.8450   49.5730 N   0  0  0  0  0  0  0  0  0  0  0  0
   38.7560   33.3000   50.3180 H   0  0  0  0  0  0  0  0  0  0  0  0
   39.8060   33.6540   48.1300 H   0  0  0  0  0  0  0  0  0  0  0  0
   38.2520   29.8060   45.2450 Cl  0  0  0  0  0  0  0  0  0  0  0  0
   38.9730   31.3280   44.8180 C   0  0  0  0  0  0  0  0  0  0  0  0
   39.0400   32.3060   45.7710 C   0  0  0  0  0  0  0  0  0  0  0  0
   39.6530   33.4400   45.2950 C   0  0  0  0  0  0  0  0  0  0  0  0
   39.8050   34.3400   45.9070 H   0  0  0  0  0  0  0  0  0  0  0  0
   40.1420   33.5810   44.0160 C   0  0  0  0  0  0  0  0  0  0  0  0
   40.6170   34.4900   43.6830 H   0  0  0  0  0  0  0  0  0  0  0  0
   40.0420   32.5550   43.1060 C   0  0  0  0  0  0  0  0  0  0  0  0
   40.4310   32.6880   42.1100 H   0  0  0  0  0  0  0  0  0  0  0  0
   39.4360   31.3920   43.5280 C   0  0  0  0  0  0  0  0  0  0  0  0
   39.3010   30.0930   42.3950 Cl  0  0  0  0  0  0  0  0  0  0  0  0
  1  2  1  0  0  0  0
  2  3  2  0  0  0  0
  2 13  1  0  0  0  0
  3 14  1  0  0  0  0
  4 15  1  0  0  0  0
  4  3  1  0  0  0  0
  5  4  2  0  0  0  0
  6  5  1  0  0  0  0
  6  1  2  0  0  0  0
  7  8  1  0  0  0  0
  7  5  1  0  0  0  0
  8 16  1  0  0  0  0
  8 17  1  0  0  0  0
  9 18  1  0  0  0  0
  9  8  1  0  0  0  0
 10  9  1  0  0  0  0
 10 20  1  0  0  0  0
 11 12  1  0  0  0  0
 11 10  1  0  0  0  0
 11 23  1  0  0  0  0
 12 24  1  0  0  0  0
 12  7  1  0  0  0  0
 19  9  1  0  0  0  0
 21 10  1  0  0  0  0
 22 11  1  0  0  0  0
 25 12  1  0  0  0  0
 26 31  1  0  0  0  0
 26 32  1  0  0  0  0
 27 26  2  0  0  0  0
 28 29  2  0  0  0  0
 28 27  1  0  0  0  0
 29 30  1  0  0  0  0
 30  1  1  0  0  0  0
 30 31  2  0  0  0  0
 33 27  1  0  0  0  0
 35 34  1  0  0  0  0
 35 36  1  0  0  0  0
 36 28  1  0  0  0  0
 37 36  2  0  0  0  0
 37 38  1  0  0  0  0
 39 37  1  0  0  0  0
 40 39  1  0  0  0  0
 41 43  1  0  0  0  0
 41 39  2  0  0  0  0
 42 41  1  0  0  0  0
 43 35  2  0  0  0  0
 44 43  1  0  0  0  0
M  END
>  <minimizedAffinity>
-6.87066412

>  <minimizedRMSD>
0.944522798

$$$$
