
 OpenBabel03272507343D

 38 41  0  0  1  0  0  0  0  0999 V2000
   33.1910   27.3570   48.2280 C   0  0  0  0  0  0  0  0  0  0  0  0
   31.9910   27.1690   48.6050 O   0  0  0  0  0  0  0  0  0  0  0  0
   35.8560   29.1490   49.8060 C   0  0  0  0  0  0  0  0  0  0  0  0
   34.7970   29.6910   50.4990 C   0  0  0  0  0  0  0  0  0  0  0  0
   33.6250   29.0980   50.0090 C   0  0  0  0  0  0  0  0  0  0  0  0
   34.0520   28.2210   49.0340 C   0  0  0  0  0  0  0  0  0  0  0  0
   35.3630   28.2850   48.9500 O   0  0  0  0  0  0  0  0  0  0  0  0
   34.7610   30.4410   51.2980 H   0  0  0  0  0  0  0  0  0  0  0  0
   32.6150   29.2980   50.3360 H   0  0  0  0  0  0  0  0  0  0  0  0
   37.2350   29.5370   50.0570 C   0  0  0  0  0  0  0  0  0  0  0  0
   37.8650   28.9760   50.9630 O   0  0  0  0  0  0  0  0  0  0  0  0
   37.7850   30.5680   49.2220 C   0  0  0  0  0  0  0  0  0  0  0  0
   38.1360   31.7570   49.8340 C   0  0  0  0  0  0  0  0  0  0  0  0
   38.6710   32.7840   49.0510 C   0  0  0  0  0  0  0  0  0  0  0  0
   38.8210   32.5510   47.7060 N   0  0  0  0  0  0  0  0  0  0  0  0
   38.4720   31.3910   47.1460 C   0  0  0  0  0  0  0  0  0  0  0  0
   37.9570   30.4030   47.8920 N   0  0  0  0  0  0  0  0  0  0  0  0
   38.0250   31.9620   50.8980 H   0  0  0  0  0  0  0  0  0  0  0  0
   38.9700   33.7410   49.4510 H   0  0  0  0  0  0  0  0  0  0  0  0
   38.5730   31.1690   46.0950 H   0  0  0  0  0  0  0  0  0  0  0  0
   33.7280   26.7050   46.9860 C   0  0  1  0  0  0  0  0  0  0  0  0
   32.5500   25.9900   46.2210 C   0  0  0  0  0  0  0  0  0  0  0  0
   33.2980   27.1380   45.6560 C   0  0  1  0  0  0  0  0  0  0  0  0
   34.4990   25.9190   47.1940 H   0  0  0  0  0  0  0  0  0  0  0  0
   32.7380   24.9980   45.8170 H   0  0  0  0  0  0  0  0  0  0  0  0
   31.5260   26.2340   46.5370 H   0  0  0  0  0  0  0  0  0  0  0  0
   33.9430   26.9110   44.7960 H   0  0  0  0  0  0  0  0  0  0  0  0
   30.7150   27.0830   44.2370 Cl  0  0  0  0  0  0  0  0  0  0  0  0
   31.4720   28.5270   44.9270 C   0  0  0  0  0  0  0  0  0  0  0  0
   32.7040   28.4920   45.5920 C   0  0  0  0  0  0  0  0  0  0  0  0
   33.1730   29.6980   46.0800 C   0  0  0  0  0  0  0  0  0  0  0  0
   34.1350   29.5840   46.5820 H   0  0  0  0  0  0  0  0  0  0  0  0
   32.4640   30.8480   45.9140 C   0  0  0  0  0  0  0  0  0  0  0  0
   32.9090   31.7470   46.3300 H   0  0  0  0  0  0  0  0  0  0  0  0
   31.2490   30.8800   45.2600 C   0  0  0  0  0  0  0  0  0  0  0  0
   30.6950   31.8010   45.1350 H   0  0  0  0  0  0  0  0  0  0  0  0
   30.7570   29.6920   44.7630 C   0  0  0  0  0  0  0  0  0  0  0  0
   29.2140   29.7430   43.9320 Cl  0  0  0  0  0  0  0  0  0  0  0  0
  1  2  2  0  0  0  0
  1  6  1  0  0  0  0
  3 10  1  0  0  0  0
  3  4  2  0  0  0  0
  4  8  1  0  0  0  0
  5  9  1  0  0  0  0
  5  4  1  0  0  0  0
  6  5  2  0  0  0  0
  7  6  1  0  0  0  0
  7  3  1  0  0  0  0
 10 11  2  0  0  0  0
 12 13  1  0  0  0  0
 12 10  1  0  0  0  0
 13 18  1  0  0  0  0
 14 19  1  0  0  0  0
 14 13  2  0  0  0  0
 15 14  1  0  0  0  0
 16 15  2  0  0  0  0
 16 17  1  0  0  0  0
 17 12  2  0  0  0  0
 20 16  1  0  0  0  0
 21 24  1  1  0  0  0
 21  1  1  0  0  0  0
 22 26  1  0  0  0  0
 22 21  1  0  0  0  0
 23 27  1  6  0  0  0
 23 22  1  0  0  0  0
 23 21  1  0  0  0  0
 25 22  1  0  0  0  0
 28 29  1  0  0  0  0
 29 30  1  0  0  0  0
 30 23  1  0  0  0  0
 30 31  2  0  0  0  0
 31 32  1  0  0  0  0
 33 31  1  0  0  0  0
 33 34  1  0  0  0  0
 35 33  2  0  0  0  0
 36 35  1  0  0  0  0
 37 29  2  0  0  0  0
 37 35  1  0  0  0  0
 38 37  1  0  0  0  0
M  END
>  <minimizedAffinity>
-5.45147943

>  <minimizedRMSD>
2.92103338

$$$$
