
 OpenBabel03272508553D

 40 43  0  0  1  0  0  0  0  0999 V2000
   38.3630   31.8750   44.4600 C   0  0  0  0  0  0  0  0  0  0  0  0
   37.2510   32.4660   44.3680 O   0  0  0  0  0  0  0  0  0  0  0  0
   38.9290   31.5830   45.7460 N   0  0  0  0  0  0  0  0  0  0  0  0
   39.9020   31.2780   45.8820 H   0  0  0  0  0  0  0  0  0  0  0  0
   39.1160   31.4660   43.2560 C   0  0  0  0  0  0  0  0  0  0  0  0
   40.2360   30.6950   43.4130 C   0  0  0  0  0  0  0  0  0  0  0  0
   40.9160   30.3290   42.2630 C   0  0  0  0  0  0  0  0  0  0  0  0
   40.4440   30.7470   41.0580 C   0  0  0  0  0  0  0  0  0  0  0  0
   39.3130   31.5250   40.8890 C   0  0  0  0  0  0  0  0  0  0  0  0
   38.6970   31.8480   42.0340 N   0  0  0  0  0  0  0  0  0  0  0  0
   40.6250   30.3540   44.3620 H   0  0  0  0  0  0  0  0  0  0  0  0
   41.8250   29.7100   42.3240 H   0  0  0  0  0  0  0  0  0  0  0  0
   41.0060   30.4380   40.1870 H   0  0  0  0  0  0  0  0  0  0  0  0
   37.4040   29.6540   39.6780 Cl  0  0  0  0  0  0  0  0  0  0  0  0
   37.9180   31.1730   38.9350 C   0  0  0  0  0  0  0  0  0  0  0  0
   38.8170   31.9670   39.5980 C   0  0  0  0  0  0  0  0  0  0  0  0
   39.1920   33.1260   39.0010 C   0  0  0  0  0  0  0  0  0  0  0  0
   39.8920   33.7900   39.4720 H   0  0  0  0  0  0  0  0  0  0  0  0
   38.6870   33.5040   37.7620 C   0  0  0  0  0  0  0  0  0  0  0  0
   38.9720   34.4350   37.2560 H   0  0  0  0  0  0  0  0  0  0  0  0
   37.7850   32.6650   37.1420 C   0  0  0  0  0  0  0  0  0  0  0  0
   37.3560   32.9060   36.1730 H   0  0  0  0  0  0  0  0  0  0  0  0
   37.3730   31.4750   37.7060 C   0  0  0  0  0  0  0  0  0  0  0  0
   36.2230   30.3840   36.9390 Cl  0  0  0  0  0  0  0  0  0  0  0  0
   38.4380   31.0800   48.1360 C   0  0  2  0  0  0  0  0  0  0  0  0
   38.7450   32.5170   48.0620 C   0  0  0  0  0  0  0  0  0  0  0  0
   38.0710   31.7330   46.9060 C   0  0  1  0  0  0  0  0  0  0  0  0
   39.3450   30.4400   48.1980 H   0  0  0  0  0  0  0  0  0  0  0  0
   38.1040   33.2500   48.5950 H   0  0  0  0  0  0  0  0  0  0  0  0
   39.7700   32.8520   47.9170 H   0  0  0  0  0  0  0  0  0  0  0  0
   37.0190   32.0380   46.7210 H   0  0  0  0  0  0  0  0  0  0  0  0
   35.0960   30.2310   49.4800 C   0  0  0  0  0  0  0  0  0  0  0  0
   35.4150   29.5560   50.6900 C   0  0  0  0  0  0  0  0  0  0  0  0
   36.8040   29.4140   51.0230 C   0  0  0  0  0  0  0  0  0  0  0  0
   37.7520   29.9210   50.1810 N   0  0  0  0  0  0  0  0  0  0  0  0
   37.3590   30.5580   49.0350 C   0  0  0  0  0  0  0  0  0  0  0  0
   36.0430   30.7310   48.6530 N   0  0  0  0  0  0  0  0  0  0  0  0
   34.0720   30.3630   49.1860 H   0  0  0  0  0  0  0  0  0  0  0  0
   34.6400   29.1750   51.3190 H   0  0  0  0  0  0  0  0  0  0  0  0
   37.0610   28.9040   51.9390 H   0  0  0  0  0  0  0  0  0  0  0  0
  1  3  1  0  0  0  0
  2  1  2  0  0  0  0
  3  4  1  0  0  0  0
  3 27  1  0  0  0  0
  5  6  1  0  0  0  0
  5  1  1  0  0  0  0
  6 11  1  0  0  0  0
  7 12  1  0  0  0  0
  7  6  2  0  0  0  0
  8  7  1  0  0  0  0
  9  8  2  0  0  0  0
  9 10  1  0  0  0  0
 10  5  2  0  0  0  0
 13  8  1  0  0  0  0
 15 16  1  0  0  0  0
 15 14  1  0  0  0  0
 16  9  1  0  0  0  0
 17 18  1  0  0  0  0
 17 16  2  0  0  0  0
 19 17  1  0  0  0  0
 20 19  1  0  0  0  0
 21 23  1  0  0  0  0
 21 19  2  0  0  0  0
 22 21  1  0  0  0  0
 23 15  2  0  0  0  0
 24 23  1  0  0  0  0
 25 28  1  6  0  0  0
 25 36  1  0  0  0  0
 26 25  1  0  0  0  0
 26 29  1  0  0  0  0
 27 31  1  6  0  0  0
 27 26  1  0  0  0  0
 27 25  1  0  0  0  0
 30 26  1  0  0  0  0
 32 33  1  0  0  0  0
 33 34  2  0  0  0  0
 33 39  1  0  0  0  0
 34 40  1  0  0  0  0
 35 34  1  0  0  0  0
 36 35  2  0  0  0  0
 37 36  1  0  0  0  0
 37 32  2  0  0  0  0
 38 32  1  0  0  0  0
M  END
>  <minimizedAffinity>
-5.03865719

>  <minimizedRMSD>
1.16737819

$$$$
