
 OpenBabel03272503413D

 43 46  0  0  1  0  0  0  0  0999 V2000
   39.8980   30.7390   41.8440 C   0  0  2  0  0  0  0  0  0  0  0  0
   39.8960   31.9770   42.7610 C   0  0  1  0  0  0  0  0  0  0  0  0
   38.8160   32.7690   42.0720 C   0  0  0  0  0  0  0  0  0  0  0  0
   38.9340   32.5360   40.7230 O   0  0  0  0  0  0  0  0  0  0  0  0
   39.7720   31.4860   40.5090 C   0  0  0  0  0  0  0  0  0  0  0  0
   40.8290   30.1830   41.9130 H   0  0  0  0  0  0  0  0  0  0  0  0
   40.8350   32.5250   42.7240 H   0  0  0  0  0  0  0  0  0  0  0  0
   37.8400   32.4190   42.4590 H   0  0  0  0  0  0  0  0  0  0  0  0
   38.9050   33.8600   42.2340 H   0  0  0  0  0  0  0  0  0  0  0  0
   39.5420   30.8260   39.6760 H   0  0  0  0  0  0  0  0  0  0  0  0
   40.7920   31.9200   40.3120 H   0  0  0  0  0  0  0  0  0  0  0  0
   38.4950   31.0940   45.9480 C   0  0  0  0  0  0  0  0  0  0  0  0
   39.8270   31.0490   46.2580 C   0  0  0  0  0  0  0  0  0  0  0  0
   40.4650   31.3840   45.0630 C   0  0  0  0  0  0  0  0  0  0  0  0
   39.5570   31.6110   44.1080 N   0  0  0  0  0  0  0  0  0  0  0  0
   38.3480   31.4340   44.6480 N   0  0  0  0  0  0  0  0  0  0  0  0
   40.3000   30.8090   47.2190 H   0  0  0  0  0  0  0  0  0  0  0  0
   41.5620   31.4240   45.0320 H   0  0  0  0  0  0  0  0  0  0  0  0
   36.4650   30.6420   49.0690 C   0  0  0  0  0  0  0  0  0  0  0  0
   37.5430   30.9160   48.2400 C   0  0  0  0  0  0  0  0  0  0  0  0
   37.3970   30.8190   46.8690 C   0  0  0  0  0  0  0  0  0  0  0  0
   36.1930   30.4570   46.3850 N   0  0  0  0  0  0  0  0  0  0  0  0
   35.1500   30.1940   47.2180 C   0  0  0  0  0  0  0  0  0  0  0  0
   35.2810   30.2840   48.5350 N   0  0  0  0  0  0  0  0  0  0  0  0
   38.5380   31.2120   48.5540 H   0  0  0  0  0  0  0  0  0  0  0  0
   34.1950   29.9050   46.8030 H   0  0  0  0  0  0  0  0  0  0  0  0
   36.7680   30.7840   50.4230 O   0  0  0  0  0  0  0  0  0  0  0  0
   36.8130   29.7060   51.3220 C   0  0  0  0  0  0  0  0  0  0  0  0
   35.5580   29.2140   51.6250 F   0  0  0  0  0  0  0  0  0  0  0  0
   37.4850   30.0940   52.4550 F   0  0  0  0  0  0  0  0  0  0  0  0
   37.5640   28.6890   50.7370 F   0  0  0  0  0  0  0  0  0  0  0  0
   38.7210   30.0690   42.1050 O   0  0  0  0  0  0  0  0  0  0  0  0
   35.8610   29.2600   42.3930 Cl  0  0  0  0  0  0  0  0  0  0  0  0
   37.3010   28.2550   42.5100 C   0  0  0  0  0  0  0  0  0  0  0  0
   38.6020   28.7320   42.3590 C   0  0  0  0  0  0  0  0  0  0  0  0
   39.6310   27.8230   42.4770 C   0  0  0  0  0  0  0  0  0  0  0  0
   40.6340   28.1980   42.3600 H   0  0  0  0  0  0  0  0  0  0  0  0
   39.4280   26.4740   42.7380 C   0  0  0  0  0  0  0  0  0  0  0  0
   40.2720   25.8130   42.8190 H   0  0  0  0  0  0  0  0  0  0  0  0
   38.1180   26.0250   42.8840 C   0  0  0  0  0  0  0  0  0  0  0  0
   37.9810   24.9640   43.0880 H   0  0  0  0  0  0  0  0  0  0  0  0
   37.0630   26.9220   42.7690 C   0  0  0  0  0  0  0  0  0  0  0  0
   35.4800   26.2110   42.9770 Cl  0  0  0  0  0  0  0  0  0  0  0  0
  1  6  1  1  0  0  0
  1 32  1  0  0  0  0
  1  2  1  0  0  0  0
  2  7  1  6  0  0  0
  2 15  1  0  0  0  0
  3  9  1  0  0  0  0
  3  8  1  0  0  0  0
  3  2  1  0  0  0  0
  4  3  1  0  0  0  0
  5  4  1  0  0  0  0
  5  1  1  0  0  0  0
 10  5  1  0  0  0  0
 11  5  1  0  0  0  0
 12 13  1  0  0  0  0
 12 21  1  0  0  0  0
 13 17  1  0  0  0  0
 14 13  2  0  0  0  0
 15 16  1  0  0  0  0
 15 14  1  0  0  0  0
 16 12  2  0  0  0  0
 18 14  1  0  0  0  0
 19 27  1  0  0  0  0
 20 25  1  0  0  0  0
 20 19  2  0  0  0  0
 21 20  1  0  0  0  0
 22 21  2  0  0  0  0
 22 23  1  0  0  0  0
 23 24  2  0  0  0  0
 24 19  1  0  0  0  0
 26 23  1  0  0  0  0
 27 28  1  0  0  0  0
 28 29  1  0  0  0  0
 28 30  1  0  0  0  0
 31 28  1  0  0  0  0
 32 35  1  0  0  0  0
 33 34  1  0  0  0  0
 34 42  1  0  0  0  0
 35 36  1  0  0  0  0
 35 34  2  0  0  0  0
 36 38  2  0  0  0  0
 37 36  1  0  0  0  0
 38 39  1  0  0  0  0
 38 40  1  0  0  0  0
 40 41  1  0  0  0  0
 42 40  2  0  0  0  0
 42 43  1  0  0  0  0
M  END
>  <minimizedAffinity>
-6.42622995

>  <minimizedRMSD>
0.206170753

$$$$
