
 OpenBabel03272502183D

 35 37  0  0  1  0  0  0  0  0999 V2000
   35.7590   29.2460   49.6400 C   0  0  0  0  0  0  0  0  0  0  0  0
   36.1710   29.2990   50.9890 C   0  0  0  0  0  0  0  0  0  0  0  0
   37.3260   29.9980   51.3070 C   0  0  0  0  0  0  0  0  0  0  0  0
   37.9950   30.5960   50.2730 N   0  0  0  0  0  0  0  0  0  0  0  0
   37.5980   30.5390   49.0030 C   0  0  0  0  0  0  0  0  0  0  0  0
   36.4830   29.8640   48.6980 N   0  0  0  0  0  0  0  0  0  0  0  0
   35.6640   28.8400   51.8090 H   0  0  0  0  0  0  0  0  0  0  0  0
   37.6770   30.0640   52.3210 H   0  0  0  0  0  0  0  0  0  0  0  0
   38.6370   33.2260   49.7490 Cl  0  0  0  0  0  0  0  0  0  0  0  0
   38.9010   32.4590   48.1900 C   0  0  0  0  0  0  0  0  0  0  0  0
   38.3680   31.2060   47.9560 C   0  0  0  0  0  0  0  0  0  0  0  0
   38.5680   30.5930   46.7330 C   0  0  0  0  0  0  0  0  0  0  0  0
   38.1640   29.6110   46.5190 H   0  0  0  0  0  0  0  0  0  0  0  0
   39.3000   31.2110   45.7210 C   0  0  0  0  0  0  0  0  0  0  0  0
   39.4660   30.7400   44.7520 H   0  0  0  0  0  0  0  0  0  0  0  0
   39.8310   32.4700   45.9660 C   0  0  0  0  0  0  0  0  0  0  0  0
   40.4110   33.0060   45.2210 H   0  0  0  0  0  0  0  0  0  0  0  0
   39.6330   33.0860   47.1870 C   0  0  0  0  0  0  0  0  0  0  0  0
   40.2910   34.6830   47.5340 Cl  0  0  0  0  0  0  0  0  0  0  0  0
   34.2660   28.3160   49.3900 S   0  0  0  0  0  0  0  0  0  0  0  0
   32.3990   28.9140   47.5240 N   0  0  0  0  0  0  0  0  0  0  0  0
   33.7480   28.3980   47.6200 C   0  0  2  0  0  0  0  0  0  0  0  0
   33.7500   27.0040   47.0570 C   0  0  0  0  0  0  0  0  0  0  0  0
   32.6120   26.7790   46.2540 O   0  0  0  0  0  0  0  0  0  0  0  0
   31.5490   26.7220   47.1650 C   0  0  0  0  0  0  0  0  0  0  0  0
   31.4990   27.9240   48.0650 C   0  0  2  0  0  0  0  0  0  0  0  0
   32.2840   29.8280   48.0240 H   0  0  0  0  0  0  0  0  0  0  0  0
   34.4560   29.0760   47.1380 H   0  0  0  0  0  0  0  0  0  0  0  0
   33.6860   26.2310   47.8530 H   0  0  0  0  0  0  0  0  0  0  0  0
   34.6690   26.8970   46.4400 H   0  0  0  0  0  0  0  0  0  0  0  0
   30.6190   26.6430   46.5490 H   0  0  0  0  0  0  0  0  0  0  0  0
   31.6410   25.7810   47.7510 H   0  0  0  0  0  0  0  0  0  0  0  0
   31.8250   27.7140   49.0980 H   0  0  0  0  0  0  0  0  0  0  0  0
   30.2000   28.4750   48.0670 O   0  0  0  0  0  0  0  0  0  0  0  0
   30.0300   28.8040   48.9680 H   0  0  0  0  0  0  0  0  0  0  0  0
  1  2  1  0  0  0  0
  2  3  2  0  0  0  0
  2  7  1  0  0  0  0
  3  8  1  0  0  0  0
  4  3  1  0  0  0  0
  5  4  2  0  0  0  0
  6  5  1  0  0  0  0
  6  1  2  0  0  0  0
 10  9  1  0  0  0  0
 11 10  1  0  0  0  0
 11  5  1  0  0  0  0
 12 11  2  0  0  0  0
 13 12  1  0  0  0  0
 14 16  2  0  0  0  0
 14 12  1  0  0  0  0
 15 14  1  0  0  0  0
 16 18  1  0  0  0  0
 17 16  1  0  0  0  0
 18 19  1  0  0  0  0
 18 10  2  0  0  0  0
 20  1  1  0  0  0  0
 21 22  1  0  0  0  0
 21 27  1  0  0  0  0
 21 26  1  0  0  0  0
 22 28  1  6  0  0  0
 22 20  1  0  0  0  0
 23 22  1  0  0  0  0
 23 29  1  0  0  0  0
 24 23  1  0  0  0  0
 24 25  1  0  0  0  0
 25 32  1  0  0  0  0
 25 26  1  0  0  0  0
 26 34  1  0  0  0  0
 26 33  1  1  0  0  0
 30 23  1  0  0  0  0
 31 25  1  0  0  0  0
 34 35  1  0  0  0  0
M  END
>  <minimizedAffinity>
-6.39355707

>  <minimizedRMSD>
2.8740108

$$$$
