
 OpenBabel03272507163D

 28 30  0  0  1  0  0  0  0  0999 V2000
   36.6460   30.4000   50.3740 C   0  0  1  0  0  0  0  0  0  0  0  0
   35.7760   29.2590   50.2100 C   0  0  2  0  0  0  0  0  0  0  0  0
   37.2070   28.9990   50.6220 C   0  0  0  0  0  0  0  0  0  0  0  0
   36.6310   31.0770   51.2550 H   0  0  0  0  0  0  0  0  0  0  0  0
   35.0010   29.0840   50.9800 H   0  0  0  0  0  0  0  0  0  0  0  0
   37.9210   28.5590   49.9160 H   0  0  0  0  0  0  0  0  0  0  0  0
   37.3650   28.7700   51.6920 H   0  0  0  0  0  0  0  0  0  0  0  0
   37.2860   31.0780   49.1860 C   0  0  0  0  0  0  0  0  0  0  0  0
   38.2200   32.0880   49.4680 C   0  0  0  0  0  0  0  0  0  0  0  0
   38.7670   32.7040   48.3590 C   0  0  0  0  0  0  0  0  0  0  0  0
   38.4060   32.3350   47.0990 N   0  0  0  0  0  0  0  0  0  0  0  0
   37.5030   31.3580   46.8680 C   0  0  0  0  0  0  0  0  0  0  0  0
   36.9290   30.7130   47.9270 N   0  0  0  0  0  0  0  0  0  0  0  0
   38.4470   32.3170   50.4960 H   0  0  0  0  0  0  0  0  0  0  0  0
   39.4960   33.4940   48.5450 H   0  0  0  0  0  0  0  0  0  0  0  0
   37.2620   31.1150   45.8420 H   0  0  0  0  0  0  0  0  0  0  0  0
   35.4370   28.8340   48.9170 O   0  0  0  0  0  0  0  0  0  0  0  0
   33.1670   29.6640   50.5290 Cl  0  0  0  0  0  0  0  0  0  0  0  0
   33.1830   28.4350   49.2830 C   0  0  0  0  0  0  0  0  0  0  0  0
   34.3330   28.1050   48.5570 C   0  0  0  0  0  0  0  0  0  0  0  0
   34.2590   27.1250   47.5940 C   0  0  0  0  0  0  0  0  0  0  0  0
   35.1740   26.9070   47.0620 H   0  0  0  0  0  0  0  0  0  0  0  0
   33.1030   26.4380   47.2960 C   0  0  0  0  0  0  0  0  0  0  0  0
   33.0580   25.6810   46.5460 H   0  0  0  0  0  0  0  0  0  0  0  0
   31.9720   26.7900   48.0360 C   0  0  0  0  0  0  0  0  0  0  0  0
   31.0160   26.3130   47.8810 H   0  0  0  0  0  0  0  0  0  0  0  0
   32.0040   27.7610   49.0060 C   0  0  0  0  0  0  0  0  0  0  0  0
   30.5510   28.1730   49.9160 Cl  0  0  0  0  0  0  0  0  0  0  0  0
  1  3  1  0  0  0  0
  1  4  1  1  0  0  0
  2  1  1  0  0  0  0
  2  3  1  0  0  0  0
  2  5  1  1  0  0  0
  3  7  1  0  0  0  0
  6  3  1  0  0  0  0
  8  9  1  0  0  0  0
  8  1  1  0  0  0  0
  9 14  1  0  0  0  0
 10 15  1  0  0  0  0
 10  9  2  0  0  0  0
 11 10  1  0  0  0  0
 12 11  2  0  0  0  0
 12 13  1  0  0  0  0
 13  8  2  0  0  0  0
 16 12  1  0  0  0  0
 17  2  1  0  0  0  0
 19 18  1  0  0  0  0
 20 17  1  0  0  0  0
 20 19  2  0  0  0  0
 21 20  1  0  0  0  0
 22 21  1  0  0  0  0
 23 21  2  0  0  0  0
 23 25  1  0  0  0  0
 24 23  1  0  0  0  0
 25 27  2  0  0  0  0
 26 25  1  0  0  0  0
 27 19  1  0  0  0  0
 27 28  1  0  0  0  0
M  END
>  <minimizedAffinity>
-5.02521992

>  <minimizedRMSD>
1.35462189

$$$$
