
 OpenBabel03272504573D

 35 37  0  0  1  0  0  0  0  0999 V2000
   37.0180   29.4850   49.7420 C   0  0  1  0  0  0  0  0  0  0  0  0
   36.3710   29.5120   51.0320 C   0  0  0  0  0  0  0  0  0  0  0  0
   35.5530   29.4210   49.7840 C   0  0  2  0  0  0  0  0  0  0  0  0
   37.5100   28.5420   49.3180 H   0  0  0  0  0  0  0  0  0  0  0  0
   36.8220   28.7520   51.6380 H   0  0  0  0  0  0  0  0  0  0  0  0
   36.3480   30.4930   51.5510 H   0  0  0  0  0  0  0  0  0  0  0  0
   34.8070   30.2000   49.7720 H   0  0  0  0  0  0  0  0  0  0  0  0
   37.6230   30.7340   49.1620 C   0  0  0  0  0  0  0  0  0  0  0  0
   38.2970   31.5690   50.0770 C   0  0  0  0  0  0  0  0  0  0  0  0
   38.8440   32.7030   49.5280 C   0  0  0  0  0  0  0  0  0  0  0  0
   38.7200   32.9540   48.2060 N   0  0  0  0  0  0  0  0  0  0  0  0
   38.0610   32.1210   47.3530 C   0  0  0  0  0  0  0  0  0  0  0  0
   37.4980   30.9770   47.8580 N   0  0  0  0  0  0  0  0  0  0  0  0
   37.9390   32.3450   45.9760 N   0  0  0  0  0  0  0  0  0  0  0  0
   38.4020   31.3820   51.1210 H   0  0  0  0  0  0  0  0  0  0  0  0
   39.3840   33.4280   50.1050 H   0  0  0  0  0  0  0  0  0  0  0  0
   38.6390   31.9240   45.3210 H   0  0  0  0  0  0  0  0  0  0  0  0
   37.1760   32.9190   45.5440 H   0  0  0  0  0  0  0  0  0  0  0  0
   35.0100   28.1580   49.5180 O   0  0  0  0  0  0  0  0  0  0  0  0
   33.6090   26.9910   47.6960 O   0  0  0  0  0  0  0  0  0  0  0  0
   33.7500   28.2860   48.4320 P   0  0  1  0  0  0  0  0  0  0  0  0
   32.2580   28.3680   49.3300 O   0  0  0  0  0  0  0  0  0  0  0  0
   31.6040   28.7930   48.7250 H   0  0  0  0  0  0  0  0  0  0  0  0
   33.9180   29.6350   47.5120 O   0  0  0  0  0  0  0  0  0  0  0  0
   31.3320   30.1450   46.0270 Cl  0  0  0  0  0  0  0  0  0  0  0  0
   32.9160   30.1750   45.3450 C   0  0  0  0  0  0  0  0  0  0  0  0
   33.9610   29.9120   46.2070 C   0  0  0  0  0  0  0  0  0  0  0  0
   35.2530   29.9360   45.6530 C   0  0  0  0  0  0  0  0  0  0  0  0
   36.1570   29.7460   46.2210 H   0  0  0  0  0  0  0  0  0  0  0  0
   35.4050   30.2170   44.2920 C   0  0  0  0  0  0  0  0  0  0  0  0
   36.3990   30.2380   43.8530 H   0  0  0  0  0  0  0  0  0  0  0  0
   34.3390   30.4710   43.4790 C   0  0  0  0  0  0  0  0  0  0  0  0
   34.4770   30.6820   42.4440 H   0  0  0  0  0  0  0  0  0  0  0  0
   33.0760   30.4510   44.0010 C   0  0  0  0  0  0  0  0  0  0  0  0
   31.6720   30.7620   43.0390 Cl  0  0  0  0  0  0  0  0  0  0  0  0
  1  4  1  6  0  0  0
  1  3  1  0  0  0  0
  1  2  1  0  0  0  0
  2  6  1  0  0  0  0
  2  5  1  0  0  0  0
  3  7  1  6  0  0  0
  3  2  1  0  0  0  0
  8  1  1  0  0  0  0
  8  9  1  0  0  0  0
  9 15  1  0  0  0  0
 10  9  2  0  0  0  0
 10 16  1  0  0  0  0
 11 10  1  0  0  0  0
 12 13  1  0  0  0  0
 12 11  2  0  0  0  0
 13  8  2  0  0  0  0
 14 12  1  0  0  0  0
 17 14  1  0  0  0  0
 18 14  1  0  0  0  0
 19  3  1  0  0  0  0
 21 20  2  6  0  0  0
 21 22  1  0  0  0  0
 21 19  1  0  0  0  0
 23 22  1  0  0  0  0
 24 21  1  0  0  0  0
 26 25  1  0  0  0  0
 26 27  1  0  0  0  0
 27 24  1  0  0  0  0
 28 27  2  0  0  0  0
 28 29  1  0  0  0  0
 30 28  1  0  0  0  0
 31 30  1  0  0  0  0
 32 34  1  0  0  0  0
 32 30  2  0  0  0  0
 33 32  1  0  0  0  0
 34 26  2  0  0  0  0
 35 34  1  0  0  0  0
M  END
>  <minimizedAffinity>
-5.69596958

>  <minimizedRMSD>
2.92207623

$$$$
