
 OpenBabel03272505343D

 37 39  0  0  1  0  0  0  0  0999 V2000
   37.1420   30.9620   49.2260 C   0  0  0  0  0  0  0  0  0  0  0  0
   37.2250   32.2250   49.7960 C   0  0  0  0  0  0  0  0  0  0  0  0
   37.9050   33.2240   49.0720 C   0  0  0  0  0  0  0  0  0  0  0  0
   38.4360   32.8770   47.8580 N   0  0  0  0  0  0  0  0  0  0  0  0
   38.3320   31.6420   47.3470 C   0  0  0  0  0  0  0  0  0  0  0  0
   37.6930   30.7180   48.0360 N   0  0  0  0  0  0  0  0  0  0  0  0
   38.9210   31.4110   46.0850 N   0  0  0  0  0  0  0  0  0  0  0  0
   40.3110   30.9590   46.0310 C   0  0  0  0  0  0  0  0  0  0  0  0
   41.0850   31.6900   44.9500 C   0  0  0  0  0  0  0  0  0  0  0  0
   40.3710   31.7420   43.7040 N   0  0  0  0  0  0  0  0  0  0  0  0
   39.1010   31.1000   43.7260 C   0  0  0  0  0  0  0  0  0  0  0  0
   38.2230   31.6050   44.8470 C   0  0  1  0  0  0  0  0  0  0  0  0
   36.7970   32.4680   50.7510 H   0  0  0  0  0  0  0  0  0  0  0  0
   37.9970   34.2270   49.4740 H   0  0  0  0  0  0  0  0  0  0  0  0
   40.3430   29.8700   45.8890 H   0  0  0  0  0  0  0  0  0  0  0  0
   40.8060   31.1800   46.9930 H   0  0  0  0  0  0  0  0  0  0  0  0
   41.2250   32.7280   45.3060 H   0  0  0  0  0  0  0  0  0  0  0  0
   42.0710   31.2130   44.8800 H   0  0  0  0  0  0  0  0  0  0  0  0
   40.9650   31.2690   42.9810 H   0  0  0  0  0  0  0  0  0  0  0  0
   39.2990   30.0110   43.8080 H   0  0  0  0  0  0  0  0  0  0  0  0
   38.5810   31.3140   42.7760 H   0  0  0  0  0  0  0  0  0  0  0  0
   38.2460   32.7360   44.7090 H   0  0  0  0  0  0  0  0  0  0  0  0
   36.4060   32.8080   42.6710 Cl  0  0  0  0  0  0  0  0  0  0  0  0
   35.9220   31.5900   43.8180 C   0  0  0  0  0  0  0  0  0  0  0  0
   36.8430   31.1630   44.7500 C   0  0  0  0  0  0  0  0  0  0  0  0
   36.3150   30.2020   45.6260 C   0  0  0  0  0  0  0  0  0  0  0  0
   36.9600   29.7860   46.4150 H   0  0  0  0  0  0  0  0  0  0  0  0
   35.0310   29.7290   45.5760 C   0  0  0  0  0  0  0  0  0  0  0  0
   34.6810   28.9850   46.2800 H   0  0  0  0  0  0  0  0  0  0  0  0
   34.1820   30.2030   44.6230 C   0  0  0  0  0  0  0  0  0  0  0  0
   33.1700   29.8400   44.5710 H   0  0  0  0  0  0  0  0  0  0  0  0
   34.6180   31.1560   43.7120 C   0  0  0  0  0  0  0  0  0  0  0  0
   33.5250   31.7660   42.4870 Cl  0  0  0  0  0  0  0  0  0  0  0  0
   36.4220   29.8720   49.9720 C   0  0  0  0  0  0  0  0  0  0  0  0
   35.0990   30.2610   50.1870 F   0  0  0  0  0  0  0  0  0  0  0  0
   36.5590   28.7150   49.2970 F   0  0  0  0  0  0  0  0  0  0  0  0
   37.0120   29.8150   51.2410 F   0  0  0  0  0  0  0  0  0  0  0  0
  1  2  1  0  0  0  0
  1 34  1  0  0  0  0
  2 13  1  0  0  0  0
  3 14  1  0  0  0  0
  3  2  2  0  0  0  0
  4  3  1  0  0  0  0
  5  4  2  0  0  0  0
  5  6  1  0  0  0  0
  6  1  2  0  0  0  0
  7  5  1  0  0  0  0
  8  7  1  0  0  0  0
  8 16  1  0  0  0  0
  9 17  1  0  0  0  0
  9  8  1  0  0  0  0
 10 11  1  0  0  0  0
 10  9  1  0  0  0  0
 11 20  1  0  0  0  0
 11 12  1  0  0  0  0
 12 22  1  6  0  0  0
 12  7  1  0  0  0  0
 15  8  1  0  0  0  0
 18  9  1  0  0  0  0
 19 10  1  0  0  0  0
 21 11  1  0  0  0  0
 23 24  1  0  0  0  0
 24 25  1  0  0  0  0
 25 12  1  0  0  0  0
 25 26  2  0  0  0  0
 26 27  1  0  0  0  0
 28 26  1  0  0  0  0
 28 29  1  0  0  0  0
 30 28  2  0  0  0  0
 31 30  1  0  0  0  0
 32 24  2  0  0  0  0
 32 30  1  0  0  0  0
 33 32  1  0  0  0  0
 34 35  1  0  0  0  0
 34 37  1  0  0  0  0
 36 34  1  0  0  0  0
M  END
>  <minimizedAffinity>
-6.08967066

>  <minimizedRMSD>
1.24755418

$$$$
