
 OpenBabel03272508453D

 29 31  0  0  0  0  0  0  0  0999 V2000
   35.7760   30.0560   49.9340 C   0  0  0  0  0  0  0  0  0  0  0  0
   36.7710   29.5590   50.7650 C   0  0  0  0  0  0  0  0  0  0  0  0
   37.8670   30.3520   50.4140 C   0  0  0  0  0  0  0  0  0  0  0  0
   37.5170   31.2500   49.4380 C   0  0  0  0  0  0  0  0  0  0  0  0
   36.2560   31.0450   49.1740 O   0  0  0  0  0  0  0  0  0  0  0  0
   36.6700   28.7590   51.4850 H   0  0  0  0  0  0  0  0  0  0  0  0
   38.8510   30.2440   50.8730 H   0  0  0  0  0  0  0  0  0  0  0  0
   38.4630   30.6460   46.5980 Cl  0  0  0  0  0  0  0  0  0  0  0  0
   38.8740   32.0490   47.5420 C   0  0  0  0  0  0  0  0  0  0  0  0
   38.3980   32.2390   48.8230 C   0  0  0  0  0  0  0  0  0  0  0  0
   38.7580   33.3700   49.5220 C   0  0  0  0  0  0  0  0  0  0  0  0
   38.3620   33.4850   50.5320 H   0  0  0  0  0  0  0  0  0  0  0  0
   39.5870   34.3580   49.0180 C   0  0  0  0  0  0  0  0  0  0  0  0
   39.8050   35.2060   49.6530 H   0  0  0  0  0  0  0  0  0  0  0  0
   40.0670   34.1650   47.7270 C   0  0  0  0  0  0  0  0  0  0  0  0
   40.7140   34.9360   47.3340 H   0  0  0  0  0  0  0  0  0  0  0  0
   39.7140   33.0290   47.0070 C   0  0  0  0  0  0  0  0  0  0  0  0
   40.3770   32.8900   45.3850 Cl  0  0  0  0  0  0  0  0  0  0  0  0
   34.3990   29.5620   49.9010 C   0  0  0  0  0  0  0  0  0  0  0  0
   33.6720   29.8020   50.9050 O   0  0  0  0  0  0  0  0  0  0  0  0
   32.4240   27.2540   47.9190 C   0  0  0  0  0  0  0  0  0  0  0  0
   32.9450   27.4060   46.6290 C   0  0  0  0  0  0  0  0  0  0  0  0
   33.9780   28.3030   46.4360 C   0  0  0  0  0  0  0  0  0  0  0  0
   34.4290   28.9900   47.5210 N   0  0  0  0  0  0  0  0  0  0  0  0
   33.9150   28.8300   48.7500 C   0  0  0  0  0  0  0  0  0  0  0  0
   32.9060   27.9560   48.9490 N   0  0  0  0  0  0  0  0  0  0  0  0
   31.6070   26.5640   48.1480 H   0  0  0  0  0  0  0  0  0  0  0  0
   32.5020   26.8080   45.8690 H   0  0  0  0  0  0  0  0  0  0  0  0
   34.3820   28.4210   45.4390 H   0  0  0  0  0  0  0  0  0  0  0  0
  1  2  2  0  0  0  0
  2  6  1  0  0  0  0
  3  2  1  0  0  0  0
  3  7  1  0  0  0  0
  4  3  2  0  0  0  0
  5  4  1  0  0  0  0
  5  1  1  0  0  0  0
  8  9  1  0  0  0  0
  9 10  1  0  0  0  0
 10  4  1  0  0  0  0
 10 11  2  0  0  0  0
 11 12  1  0  0  0  0
 13 11  1  0  0  0  0
 13 14  1  0  0  0  0
 15 13  2  0  0  0  0
 16 15  1  0  0  0  0
 17  9  2  0  0  0  0
 17 15  1  0  0  0  0
 18 17  1  0  0  0  0
 19  1  1  0  0  0  0
 19 20  2  0  0  0  0
 21 27  1  0  0  0  0
 21 26  1  0  0  0  0
 22 21  2  0  0  0  0
 23 22  1  0  0  0  0
 23 24  2  0  0  0  0
 24 25  1  0  0  0  0
 25 26  2  0  0  0  0
 25 19  1  0  0  0  0
 28 22  1  0  0  0  0
 29 23  1  0  0  0  0
M  END
>  <minimizedAffinity>
-6.56785488

>  <minimizedRMSD>
2.29189539

$$$$
