
 OpenBabel03272504573D

 35 37  0  0  1  0  0  0  0  0999 V2000
   36.6700   29.3580   49.9700 C   0  0  1  0  0  0  0  0  0  0  0  0
   35.9520   29.4690   51.2170 C   0  0  0  0  0  0  0  0  0  0  0  0
   35.2040   29.3280   49.9300 C   0  0  2  0  0  0  0  0  0  0  0  0
   37.1610   28.3830   49.6260 H   0  0  0  0  0  0  0  0  0  0  0  0
   36.3490   28.7340   51.8880 H   0  0  0  0  0  0  0  0  0  0  0  0
   35.9240   30.4780   51.6810 H   0  0  0  0  0  0  0  0  0  0  0  0
   34.4790   30.1210   49.8340 H   0  0  0  0  0  0  0  0  0  0  0  0
   37.3370   30.5600   49.3600 C   0  0  0  0  0  0  0  0  0  0  0  0
   37.0610   31.7940   49.9830 C   0  0  0  0  0  0  0  0  0  0  0  0
   37.6810   32.8800   49.4130 C   0  0  0  0  0  0  0  0  0  0  0  0
   38.4850   32.7240   48.3380 N   0  0  0  0  0  0  0  0  0  0  0  0
   38.7280   31.5130   47.7640 C   0  0  0  0  0  0  0  0  0  0  0  0
   38.1290   30.4020   48.3000 N   0  0  0  0  0  0  0  0  0  0  0  0
   39.5750   31.3220   46.6670 N   0  0  0  0  0  0  0  0  0  0  0  0
   36.4290   31.9290   50.8310 H   0  0  0  0  0  0  0  0  0  0  0  0
   37.5610   33.8790   49.7820 H   0  0  0  0  0  0  0  0  0  0  0  0
   40.5800   31.0770   46.8280 H   0  0  0  0  0  0  0  0  0  0  0  0
   39.2660   31.4080   45.6690 H   0  0  0  0  0  0  0  0  0  0  0  0
   34.6460   28.0640   49.7010 O   0  0  0  0  0  0  0  0  0  0  0  0
   33.4150   26.8390   47.7960 O   0  0  0  0  0  0  0  0  0  0  0  0
   33.4820   28.1520   48.5100 P   0  0  1  0  0  0  0  0  0  0  0  0
   31.9170   28.2390   49.2750 O   0  0  0  0  0  0  0  0  0  0  0  0
   31.3140   28.6420   48.6050 H   0  0  0  0  0  0  0  0  0  0  0  0
   33.7160   29.4810   47.5730 O   0  0  0  0  0  0  0  0  0  0  0  0
   35.9160   30.2120   45.6290 Cl  0  0  0  0  0  0  0  0  0  0  0  0
   34.2230   30.2290   45.2990 C   0  0  0  0  0  0  0  0  0  0  0  0
   33.3890   29.8570   46.3350 C   0  0  0  0  0  0  0  0  0  0  0  0
   32.0100   29.8700   46.0680 C   0  0  0  0  0  0  0  0  0  0  0  0
   31.2520   29.6010   46.7950 H   0  0  0  0  0  0  0  0  0  0  0  0
   31.5660   30.2520   44.7970 C   0  0  0  0  0  0  0  0  0  0  0  0
   30.5020   30.2640   44.5800 H   0  0  0  0  0  0  0  0  0  0  0  0
   32.4300   30.6110   43.8040 C   0  0  0  0  0  0  0  0  0  0  0  0
   32.0700   30.8980   42.8440 H   0  0  0  0  0  0  0  0  0  0  0  0
   33.7750   30.6030   44.0470 C   0  0  0  0  0  0  0  0  0  0  0  0
   34.9350   31.0450   42.8420 Cl  0  0  0  0  0  0  0  0  0  0  0  0
  1  4  1  6  0  0  0
  1  2  1  0  0  0  0
  2  6  1  0  0  0  0
  2  5  1  0  0  0  0
  3  7  1  6  0  0  0
  3  1  1  0  0  0  0
  3  2  1  0  0  0  0
  8  1  1  0  0  0  0
  8  9  1  0  0  0  0
  9 15  1  0  0  0  0
 10 16  1  0  0  0  0
 10  9  2  0  0  0  0
 11 10  1  0  0  0  0
 12 13  1  0  0  0  0
 12 11  2  0  0  0  0
 13  8  2  0  0  0  0
 14 17  1  0  0  0  0
 14 12  1  0  0  0  0
 18 14  1  0  0  0  0
 19  3  1  0  0  0  0
 21 20  2  6  0  0  0
 21 22  1  0  0  0  0
 21 19  1  0  0  0  0
 23 22  1  0  0  0  0
 24 21  1  0  0  0  0
 26 25  1  0  0  0  0
 26 27  1  0  0  0  0
 27 24  1  0  0  0  0
 28 27  2  0  0  0  0
 28 29  1  0  0  0  0
 30 28  1  0  0  0  0
 31 30  1  0  0  0  0
 32 34  1  0  0  0  0
 32 30  2  0  0  0  0
 33 32  1  0  0  0  0
 34 26  2  0  0  0  0
 35 34  1  0  0  0  0
M  END
>  <minimizedAffinity>
-5.69318771

>  <minimizedRMSD>
3.06073666

$$$$
