
 OpenBabel03272508073D

 37 40  0  0  0  0  0  0  0  0999 V2000
   37.6390   24.2070   31.2420 C   0  0  0  0  0  0  0  0  0  0  0  0
   38.5520   24.9880   30.5860 C   0  0  0  0  0  0  0  0  0  0  0  0
   38.3630   26.3330   30.8810 C   0  0  0  0  0  0  0  0  0  0  0  0
   37.3010   26.2980   31.7370 N   0  0  0  0  0  0  0  0  0  0  0  0
   36.8770   25.0750   31.9510 N   0  0  0  0  0  0  0  0  0  0  0  0
   39.3270   24.6300   29.9200 H   0  0  0  0  0  0  0  0  0  0  0  0
   38.8770   27.2040   30.5570 H   0  0  0  0  0  0  0  0  0  0  0  0
   37.4910   22.7560   31.2100 C   0  0  0  0  0  0  0  0  0  0  0  0
   36.5010   22.1870   32.0540 C   0  0  0  0  0  0  0  0  0  0  0  0
   36.3550   20.8030   32.0310 C   0  0  0  0  0  0  0  0  0  0  0  0
   37.1650   20.0820   31.2080 N   0  0  0  0  0  0  0  0  0  0  0  0
   38.0930   20.6550   30.4230 C   0  0  0  0  0  0  0  0  0  0  0  0
   38.2480   21.9900   30.4310 N   0  0  0  0  0  0  0  0  0  0  0  0
   35.8720   22.7990   32.6990 H   0  0  0  0  0  0  0  0  0  0  0  0
   38.7240   20.0300   29.7740 H   0  0  0  0  0  0  0  0  0  0  0  0
   35.3170   20.1860   32.9150 C   0  0  0  0  0  0  0  0  0  0  0  0
   34.1360   20.3070   32.2450 F   0  0  0  0  0  0  0  0  0  0  0  0
   35.5780   18.8300   33.1490 F   0  0  0  0  0  0  0  0  0  0  0  0
   35.2340   20.8330   34.1370 F   0  0  0  0  0  0  0  0  0  0  0  0
   36.6560   27.4290   32.3930 C   0  0  0  0  0  0  0  0  0  0  0  0
   35.9450   28.3970   31.6650 C   0  0  0  0  0  0  0  0  0  0  0  0
   35.3470   29.4230   32.3310 C   0  0  0  0  0  0  0  0  0  0  0  0
   35.4460   29.5060   33.7380 C   0  0  0  0  0  0  0  0  0  0  0  0
   36.4630   28.0120   34.0920 S   0  0  0  0  0  0  0  0  0  0  0  0
   35.8770   28.3200   30.5660 H   0  0  0  0  0  0  0  0  0  0  0  0
   34.7940   30.1790   31.8020 H   0  0  0  0  0  0  0  0  0  0  0  0
   32.5350   29.3260   34.6570 Cl  0  0  0  0  0  0  0  0  0  0  0  0
   33.7500   30.4030   35.3080 C   0  0  0  0  0  0  0  0  0  0  0  0
   35.0120   30.3420   34.7660 C   0  0  0  0  0  0  0  0  0  0  0  0
   35.8860   31.2300   35.3520 C   0  0  0  0  0  0  0  0  0  0  0  0
   36.9240   31.3170   35.0480 H   0  0  0  0  0  0  0  0  0  0  0  0
   35.5480   32.0910   36.3690 C   0  0  0  0  0  0  0  0  0  0  0  0
   36.2540   32.7770   36.8100 H   0  0  0  0  0  0  0  0  0  0  0  0
   34.2590   32.0790   36.8460 C   0  0  0  0  0  0  0  0  0  0  0  0
   33.9870   32.7410   37.6340 H   0  0  0  0  0  0  0  0  0  0  0  0
   33.3150   31.2260   36.3220 C   0  0  0  0  0  0  0  0  0  0  0  0
   31.6810   31.1950   36.9110 Cl  0  0  0  0  0  0  0  0  0  0  0  0
  1  5  2  0  0  0  0
  2  3  2  0  0  0  0
  2  1  1  0  0  0  0
  3  4  1  0  0  0  0
  4  5  1  0  0  0  0
  4 20  1  0  0  0  0
  6  2  1  0  0  0  0
  7  3  1  0  0  0  0
  8  1  1  0  0  0  0
  8  9  1  0  0  0  0
  9 14  1  0  0  0  0
 10  9  2  0  0  0  0
 10 16  1  0  0  0  0
 11 10  1  0  0  0  0
 12 13  1  0  0  0  0
 12 11  2  0  0  0  0
 13  8  2  0  0  0  0
 15 12  1  0  0  0  0
 16 18  1  0  0  0  0
 16 19  1  0  0  0  0
 17 16  1  0  0  0  0
 20 24  1  0  0  0  0
 21 22  1  0  0  0  0
 21 20  2  0  0  0  0
 22 23  2  0  0  0  0
 23 24  1  0  0  0  0
 23 29  1  0  0  0  0
 25 21  1  0  0  0  0
 26 22  1  0  0  0  0
 27 28  1  0  0  0  0
 28 36  1  0  0  0  0
 29 28  2  0  0  0  0
 29 30  1  0  0  0  0
 30 32  2  0  0  0  0
 31 30  1  0  0  0  0
 32 33  1  0  0  0  0
 32 34  1  0  0  0  0
 34 35  1  0  0  0  0
 36 34  2  0  0  0  0
 36 37  1  0  0  0  0
M  END
>  <minimizedAffinity>
-6.62872934

$$$$

 OpenBabel03272508073D

 37 40  0  0  0  0  0  0  0  0999 V2000
   35.5040   29.5340   32.0090 C   0  0  0  0  0  0  0  0  0  0  0  0
   36.1190   29.5610   30.7860 C   0  0  0  0  0  0  0  0  0  0  0  0
   36.5280   28.2870   30.4060 C   0  0  0  0  0  0  0  0  0  0  0  0
   36.1240   27.5230   31.4600 N   0  0  0  0  0  0  0  0  0  0  0  0
   35.5320   28.2340   32.3910 N   0  0  0  0  0  0  0  0  0  0  0  0
   36.2780   30.4410   30.1770 H   0  0  0  0  0  0  0  0  0  0  0  0
   37.0290   27.9400   29.5360 H   0  0  0  0  0  0  0  0  0  0  0  0
   34.9300   30.6430   32.7640 C   0  0  0  0  0  0  0  0  0  0  0  0
   35.4570   30.8860   34.0590 C   0  0  0  0  0  0  0  0  0  0  0  0
   34.9140   31.9410   34.7880 C   0  0  0  0  0  0  0  0  0  0  0  0
   33.9170   32.6720   34.2190 N   0  0  0  0  0  0  0  0  0  0  0  0
   33.4410   32.4120   32.9890 C   0  0  0  0  0  0  0  0  0  0  0  0
   33.9530   31.3970   32.2710 N   0  0  0  0  0  0  0  0  0  0  0  0
   36.2580   30.2780   34.4800 H   0  0  0  0  0  0  0  0  0  0  0  0
   32.6330   33.0300   32.5720 H   0  0  0  0  0  0  0  0  0  0  0  0
   35.4580   32.2110   36.1550 C   0  0  0  0  0  0  0  0  0  0  0  0
   36.6530   31.5580   36.2190 F   0  0  0  0  0  0  0  0  0  0  0  0
   35.6690   33.5800   36.3660 F   0  0  0  0  0  0  0  0  0  0  0  0
   34.6120   31.7430   37.1460 F   0  0  0  0  0  0  0  0  0  0  0  0
   36.2770   26.0810   31.6190 C   0  0  0  0  0  0  0  0  0  0  0  0
   37.2740   25.5320   32.4410 C   0  0  0  0  0  0  0  0  0  0  0  0
   37.3610   24.1790   32.5670 C   0  0  0  0  0  0  0  0  0  0  0  0
   36.4560   23.3450   31.8720 C   0  0  0  0  0  0  0  0  0  0  0  0
   35.4370   24.6070   30.9990 S   0  0  0  0  0  0  0  0  0  0  0  0
   37.9750   26.1950   32.9770 H   0  0  0  0  0  0  0  0  0  0  0  0
   38.1120   23.7270   33.1900 H   0  0  0  0  0  0  0  0  0  0  0  0
   38.3920   21.6510   30.2190 Cl  0  0  0  0  0  0  0  0  0  0  0  0
   36.9500   21.0690   31.0190 C   0  0  0  0  0  0  0  0  0  0  0  0
   36.1990   21.9830   31.7210 C   0  0  0  0  0  0  0  0  0  0  0  0
   35.0890   21.4180   32.3090 C   0  0  0  0  0  0  0  0  0  0  0  0
   34.3840   21.9920   32.9020 H   0  0  0  0  0  0  0  0  0  0  0  0
   34.7570   20.0880   32.2150 C   0  0  0  0  0  0  0  0  0  0  0  0
   33.8800   19.6710   32.6870 H   0  0  0  0  0  0  0  0  0  0  0  0
   35.5710   19.2500   31.4900 C   0  0  0  0  0  0  0  0  0  0  0  0
   35.3230   18.2180   31.4110 H   0  0  0  0  0  0  0  0  0  0  0  0
   36.7020   19.7250   30.8660 C   0  0  0  0  0  0  0  0  0  0  0  0
   37.7450   18.6840   29.9460 Cl  0  0  0  0  0  0  0  0  0  0  0  0
  1  5  2  0  0  0  0
  1  8  1  0  0  0  0
  2  1  1  0  0  0  0
  3  2  2  0  0  0  0
  3  4  1  0  0  0  0
  4 20  1  0  0  0  0
  4  5  1  0  0  0  0
  6  2  1  0  0  0  0
  7  3  1  0  0  0  0
  8  9  1  0  0  0  0
  9 14  1  0  0  0  0
  9 10  2  0  0  0  0
 10 16  1  0  0  0  0
 11 10  1  0  0  0  0
 12 11  2  0  0  0  0
 13  8  2  0  0  0  0
 13 12  1  0  0  0  0
 15 12  1  0  0  0  0
 16 17  1  0  0  0  0
 16 18  1  0  0  0  0
 16 19  1  0  0  0  0
 20 21  2  0  0  0  0
 21 22  1  0  0  0  0
 21 25  1  0  0  0  0
 22 26  1  0  0  0  0
 23 22  2  0  0  0  0
 24 20  1  0  0  0  0
 24 23  1  0  0  0  0
 27 28  1  0  0  0  0
 28 29  1  0  0  0  0
 29 23  1  0  0  0  0
 29 30  2  0  0  0  0
 30 31  1  0  0  0  0
 32 30  1  0  0  0  0
 32 33  1  0  0  0  0
 34 32  2  0  0  0  0
 35 34  1  0  0  0  0
 36 28  2  0  0  0  0
 36 34  1  0  0  0  0
 37 36  1  0  0  0  0
M  END
>  <minimizedAffinity>
-6.42594099

$$$$

 OpenBabel03272508073D

 37 40  0  0  0  0  0  0  0  0999 V2000
   37.7250   25.2890   33.6980 C   0  0  0  0  0  0  0  0  0  0  0  0
   37.6560   25.2670   32.3310 C   0  0  0  0  0  0  0  0  0  0  0  0
   37.1090   26.4470   31.8390 C   0  0  0  0  0  0  0  0  0  0  0  0
   36.8660   27.1540   32.9790 N   0  0  0  0  0  0  0  0  0  0  0  0
   37.2180   26.4940   34.0580 N   0  0  0  0  0  0  0  0  0  0  0  0
   37.9760   24.4510   31.6950 H   0  0  0  0  0  0  0  0  0  0  0  0
   36.9100   26.7700   30.8470 H   0  0  0  0  0  0  0  0  0  0  0  0
   38.2310   24.2620   34.6020 C   0  0  0  0  0  0  0  0  0  0  0  0
   38.0410   24.4710   35.9930 C   0  0  0  0  0  0  0  0  0  0  0  0
   38.5220   23.4970   36.8620 C   0  0  0  0  0  0  0  0  0  0  0  0
   39.1430   22.4080   36.3310 N   0  0  0  0  0  0  0  0  0  0  0  0
   39.3060   22.2430   35.0070 C   0  0  0  0  0  0  0  0  0  0  0  0
   38.8480   23.1730   34.1520 N   0  0  0  0  0  0  0  0  0  0  0  0
   37.5370   25.3580   36.3790 H   0  0  0  0  0  0  0  0  0  0  0  0
   39.8150   21.3460   34.6260 H   0  0  0  0  0  0  0  0  0  0  0  0
   38.3300   23.7020   38.3320 C   0  0  0  0  0  0  0  0  0  0  0  0
   39.5290   23.4130   38.9110 F   0  0  0  0  0  0  0  0  0  0  0  0
   37.9830   25.0280   38.6260 F   0  0  0  0  0  0  0  0  0  0  0  0
   37.3470   22.8700   38.8420 F   0  0  0  0  0  0  0  0  0  0  0  0
   36.2960   28.4920   33.0860 C   0  0  0  0  0  0  0  0  0  0  0  0
   36.3760   29.4140   32.0300 C   0  0  0  0  0  0  0  0  0  0  0  0
   35.8120   30.6440   32.1780 C   0  0  0  0  0  0  0  0  0  0  0  0
   35.1560   30.9820   33.3830 C   0  0  0  0  0  0  0  0  0  0  0  0
   35.3830   29.4220   34.3370 S   0  0  0  0  0  0  0  0  0  0  0  0
   36.8930   29.1380   31.0950 H   0  0  0  0  0  0  0  0  0  0  0  0
   35.8550   31.3720   31.3870 H   0  0  0  0  0  0  0  0  0  0  0  0
   36.6010   32.7520   35.4160 Cl  0  0  0  0  0  0  0  0  0  0  0  0
   34.9590   32.9690   34.8530 C   0  0  0  0  0  0  0  0  0  0  0  0
   34.4780   32.0690   33.9320 C   0  0  0  0  0  0  0  0  0  0  0  0
   33.1780   32.3340   33.5600 C   0  0  0  0  0  0  0  0  0  0  0  0
   32.6390   31.7240   32.8410 H   0  0  0  0  0  0  0  0  0  0  0  0
   32.4320   33.3800   34.0470 C   0  0  0  0  0  0  0  0  0  0  0  0
   31.4150   33.5650   33.7370 H   0  0  0  0  0  0  0  0  0  0  0  0
   33.0020   34.2290   34.9660 C   0  0  0  0  0  0  0  0  0  0  0  0
   32.4320   35.0430   35.3500 H   0  0  0  0  0  0  0  0  0  0  0  0
   34.2950   34.0430   35.3990 C   0  0  0  0  0  0  0  0  0  0  0  0
   35.0330   35.1040   36.5590 Cl  0  0  0  0  0  0  0  0  0  0  0  0
  1  5  2  0  0  0  0
  1  8  1  0  0  0  0
  2  1  1  0  0  0  0
  3  2  2  0  0  0  0
  3  4  1  0  0  0  0
  4 20  1  0  0  0  0
  4  5  1  0  0  0  0
  6  2  1  0  0  0  0
  7  3  1  0  0  0  0
  8  9  1  0  0  0  0
  9 14  1  0  0  0  0
  9 10  2  0  0  0  0
 10 16  1  0  0  0  0
 11 10  1  0  0  0  0
 12 11  2  0  0  0  0
 13  8  2  0  0  0  0
 13 12  1  0  0  0  0
 15 12  1  0  0  0  0
 16 18  1  0  0  0  0
 16 19  1  0  0  0  0
 16 17  1  0  0  0  0
 20 24  1  0  0  0  0
 21 22  1  0  0  0  0
 21 20  2  0  0  0  0
 22 23  2  0  0  0  0
 23 29  1  0  0  0  0
 23 24  1  0  0  0  0
 25 21  1  0  0  0  0
 26 22  1  0  0  0  0
 28 36  1  0  0  0  0
 28 27  1  0  0  0  0
 29 28  2  0  0  0  0
 30 29  1  0  0  0  0
 30 32  2  0  0  0  0
 31 30  1  0  0  0  0
 32 34  1  0  0  0  0
 33 32  1  0  0  0  0
 34 35  1  0  0  0  0
 34 36  2  0  0  0  0
 36 37  1  0  0  0  0
M  END
>  <minimizedAffinity>
-6.28791618

$$$$

 OpenBabel03272508073D

 37 40  0  0  0  0  0  0  0  0999 V2000
   35.3150   29.7690   33.2850 C   0  0  0  0  0  0  0  0  0  0  0  0
   35.7520   29.5460   32.0070 C   0  0  0  0  0  0  0  0  0  0  0  0
   36.5770   28.4280   31.9490 C   0  0  0  0  0  0  0  0  0  0  0  0
   36.5990   28.0130   33.2480 N   0  0  0  0  0  0  0  0  0  0  0  0
   35.8730   28.7800   34.0260 N   0  0  0  0  0  0  0  0  0  0  0  0
   35.5040   30.1450   31.1400 H   0  0  0  0  0  0  0  0  0  0  0  0
   37.0860   27.9700   31.1370 H   0  0  0  0  0  0  0  0  0  0  0  0
   34.4390   30.8260   33.7760 C   0  0  0  0  0  0  0  0  0  0  0  0
   34.4220   31.0550   35.1770 C   0  0  0  0  0  0  0  0  0  0  0  0
   33.5870   32.0610   35.6550 C   0  0  0  0  0  0  0  0  0  0  0  0
   32.8400   32.7600   34.7570 N   0  0  0  0  0  0  0  0  0  0  0  0
   32.8800   32.5140   33.4360 C   0  0  0  0  0  0  0  0  0  0  0  0
   33.6810   31.5470   32.9560 N   0  0  0  0  0  0  0  0  0  0  0  0
   35.0370   30.4730   35.8640 H   0  0  0  0  0  0  0  0  0  0  0  0
   32.2570   33.1060   32.7500 H   0  0  0  0  0  0  0  0  0  0  0  0
   33.5570   32.3160   37.1290 C   0  0  0  0  0  0  0  0  0  0  0  0
   32.7930   33.4310   37.3010 F   0  0  0  0  0  0  0  0  0  0  0  0
   32.9780   31.2470   37.8260 F   0  0  0  0  0  0  0  0  0  0  0  0
   34.8270   32.5310   37.6370 F   0  0  0  0  0  0  0  0  0  0  0  0
   37.3040   26.8610   33.7970 C   0  0  0  0  0  0  0  0  0  0  0  0
   37.3230   25.6230   33.1350 C   0  0  0  0  0  0  0  0  0  0  0  0
   38.0120   24.5850   33.6840 C   0  0  0  0  0  0  0  0  0  0  0  0
   38.6970   24.7600   34.9080 C   0  0  0  0  0  0  0  0  0  0  0  0
   38.3070   26.5250   35.2620 S   0  0  0  0  0  0  0  0  0  0  0  0
   36.7820   25.5000   32.1800 H   0  0  0  0  0  0  0  0  0  0  0  0
   38.0460   23.6250   33.2010 H   0  0  0  0  0  0  0  0  0  0  0  0
   41.6250   24.2530   34.1880 Cl  0  0  0  0  0  0  0  0  0  0  0  0
   40.8100   23.6790   35.6250 C   0  0  0  0  0  0  0  0  0  0  0  0
   39.4840   24.0080   35.7790 C   0  0  0  0  0  0  0  0  0  0  0  0
   38.9440   23.5060   36.9420 C   0  0  0  0  0  0  0  0  0  0  0  0
   37.9080   23.6690   37.2250 H   0  0  0  0  0  0  0  0  0  0  0  0
   39.6410   22.7560   37.8580 C   0  0  0  0  0  0  0  0  0  0  0  0
   39.1920   22.3740   38.7620 H   0  0  0  0  0  0  0  0  0  0  0  0
   40.9660   22.4780   37.6160 C   0  0  0  0  0  0  0  0  0  0  0  0
   41.5160   21.8980   38.3200 H   0  0  0  0  0  0  0  0  0  0  0  0
   41.5920   22.9370   36.4800 C   0  0  0  0  0  0  0  0  0  0  0  0
   43.2640   22.5980   36.1560 Cl  0  0  0  0  0  0  0  0  0  0  0  0
  1  8  1  0  0  0  0
  1  5  2  0  0  0  0
  2  1  1  0  0  0  0
  3  2  2  0  0  0  0
  3  4  1  0  0  0  0
  4 20  1  0  0  0  0
  4  5  1  0  0  0  0
  6  2  1  0  0  0  0
  7  3  1  0  0  0  0
  8  9  1  0  0  0  0
  9 10  2  0  0  0  0
  9 14  1  0  0  0  0
 10 16  1  0  0  0  0
 11 10  1  0  0  0  0
 12 11  2  0  0  0  0
 13 12  1  0  0  0  0
 13  8  2  0  0  0  0
 15 12  1  0  0  0  0
 16 17  1  0  0  0  0
 16 19  1  0  0  0  0
 16 18  1  0  0  0  0
 20 24  1  0  0  0  0
 21 22  1  0  0  0  0
 21 20  2  0  0  0  0
 22 23  2  0  0  0  0
 23 24  1  0  0  0  0
 23 29  1  0  0  0  0
 25 21  1  0  0  0  0
 26 22  1  0  0  0  0
 27 28  1  0  0  0  0
 28 29  2  0  0  0  0
 28 36  1  0  0  0  0
 29 30  1  0  0  0  0
 30 31  1  0  0  0  0
 30 32  2  0  0  0  0
 32 33  1  0  0  0  0
 34 32  1  0  0  0  0
 34 35  1  0  0  0  0
 36 34  2  0  0  0  0
 37 36  1  0  0  0  0
M  END
>  <minimizedAffinity>
-6.22691107

$$$$

 OpenBabel03272508073D

 37 40  0  0  0  0  0  0  0  0999 V2000
   37.4510   26.3070   34.3000 C   0  0  0  0  0  0  0  0  0  0  0  0
   37.6140   26.7520   33.0150 C   0  0  0  0  0  0  0  0  0  0  0  0
   36.9410   27.9520   32.8130 C   0  0  0  0  0  0  0  0  0  0  0  0
   36.3820   28.1830   34.0350 N   0  0  0  0  0  0  0  0  0  0  0  0
   36.6710   27.2400   34.9000 N   0  0  0  0  0  0  0  0  0  0  0  0
   38.1840   26.2540   32.2410 H   0  0  0  0  0  0  0  0  0  0  0  0
   36.8490   28.5710   31.9550 H   0  0  0  0  0  0  0  0  0  0  0  0
   37.9880   25.1020   34.9220 C   0  0  0  0  0  0  0  0  0  0  0  0
   37.8960   25.0060   36.3350 C   0  0  0  0  0  0  0  0  0  0  0  0
   38.4080   23.8600   36.9370 C   0  0  0  0  0  0  0  0  0  0  0  0
   38.9620   22.9050   36.1400 N   0  0  0  0  0  0  0  0  0  0  0  0
   39.0330   23.0310   34.8040 C   0  0  0  0  0  0  0  0  0  0  0  0
   38.5440   24.1300   34.2050 N   0  0  0  0  0  0  0  0  0  0  0  0
   37.4440   25.7930   36.9390 H   0  0  0  0  0  0  0  0  0  0  0  0
   39.4910   22.2320   34.2020 H   0  0  0  0  0  0  0  0  0  0  0  0
   38.3200   23.7430   38.4260 C   0  0  0  0  0  0  0  0  0  0  0  0
   39.5570   23.3550   38.8460 F   0  0  0  0  0  0  0  0  0  0  0  0
   37.9920   24.9680   39.0210 F   0  0  0  0  0  0  0  0  0  0  0  0
   37.3760   22.8050   38.8110 F   0  0  0  0  0  0  0  0  0  0  0  0
   35.5580   29.3190   34.4300 C   0  0  0  0  0  0  0  0  0  0  0  0
   36.0950   30.4110   35.1310 C   0  0  0  0  0  0  0  0  0  0  0  0
   35.2830   31.4540   35.4600 C   0  0  0  0  0  0  0  0  0  0  0  0
   33.9170   31.4290   35.0980 C   0  0  0  0  0  0  0  0  0  0  0  0
   33.8270   29.8020   34.2400 S   0  0  0  0  0  0  0  0  0  0  0  0
   37.1630   30.4170   35.4080 H   0  0  0  0  0  0  0  0  0  0  0  0
   35.6650   32.3050   35.9950 H   0  0  0  0  0  0  0  0  0  0  0  0
   33.1040   33.2120   32.7510 Cl  0  0  0  0  0  0  0  0  0  0  0  0
   32.2750   33.0990   34.2860 C   0  0  0  0  0  0  0  0  0  0  0  0
   32.7900   32.2380   35.2260 C   0  0  0  0  0  0  0  0  0  0  0  0
   32.0600   32.2290   36.3940 C   0  0  0  0  0  0  0  0  0  0  0  0
   32.3230   31.6070   37.2440 H   0  0  0  0  0  0  0  0  0  0  0  0
   30.9370   32.9910   36.6110 C   0  0  0  0  0  0  0  0  0  0  0  0
   30.3840   32.9640   37.5370 H   0  0  0  0  0  0  0  0  0  0  0  0
   30.4980   33.8240   35.6080 C   0  0  0  0  0  0  0  0  0  0  0  0
   29.6290   34.4190   35.7660 H   0  0  0  0  0  0  0  0  0  0  0  0
   31.1630   33.9010   34.4060 C   0  0  0  0  0  0  0  0  0  0  0  0
   30.6250   34.9460   33.1280 Cl  0  0  0  0  0  0  0  0  0  0  0  0
  1  5  2  0  0  0  0
  1  8  1  0  0  0  0
  2  1  1  0  0  0  0
  3  2  2  0  0  0  0
  3  4  1  0  0  0  0
  4 20  1  0  0  0  0
  4  5  1  0  0  0  0
  6  2  1  0  0  0  0
  7  3  1  0  0  0  0
  8  9  1  0  0  0  0
  9 10  2  0  0  0  0
  9 14  1  0  0  0  0
 10 16  1  0  0  0  0
 11 10  1  0  0  0  0
 12 11  2  0  0  0  0
 13 12  1  0  0  0  0
 13  8  2  0  0  0  0
 15 12  1  0  0  0  0
 16 19  1  0  0  0  0
 16 17  1  0  0  0  0
 16 18  1  0  0  0  0
 20 21  2  0  0  0  0
 21 25  1  0  0  0  0
 21 22  1  0  0  0  0
 22 26  1  0  0  0  0
 23 29  1  0  0  0  0
 23 22  2  0  0  0  0
 24 20  1  0  0  0  0
 24 23  1  0  0  0  0
 27 28  1  0  0  0  0
 28 36  2  0  0  0  0
 28 29  1  0  0  0  0
 29 30  2  0  0  0  0
 30 32  1  0  0  0  0
 30 31  1  0  0  0  0
 32 33  1  0  0  0  0
 34 35  1  0  0  0  0
 34 32  2  0  0  0  0
 36 34  1  0  0  0  0
 37 36  1  0  0  0  0
M  END
>  <minimizedAffinity>
-6.18438387

$$$$

 OpenBabel03272508073D

 37 40  0  0  0  0  0  0  0  0999 V2000
   35.4160   29.1690   33.1690 C   0  0  0  0  0  0  0  0  0  0  0  0
   35.9050   29.3020   31.8970 C   0  0  0  0  0  0  0  0  0  0  0  0
   37.0330   28.5100   31.7100 C   0  0  0  0  0  0  0  0  0  0  0  0
   37.1760   27.9140   32.9280 N   0  0  0  0  0  0  0  0  0  0  0  0
   36.2470   28.2870   33.7770 N   0  0  0  0  0  0  0  0  0  0  0  0
   35.4880   29.9320   31.1210 H   0  0  0  0  0  0  0  0  0  0  0  0
   37.6600   28.3670   30.8660 H   0  0  0  0  0  0  0  0  0  0  0  0
   34.2560   29.8160   33.7710 C   0  0  0  0  0  0  0  0  0  0  0  0
   34.4540   30.4790   35.0100 C   0  0  0  0  0  0  0  0  0  0  0  0
   33.3510   31.0980   35.5930 C   0  0  0  0  0  0  0  0  0  0  0  0
   32.1560   31.0320   34.9440 N   0  0  0  0  0  0  0  0  0  0  0  0
   32.0050   30.3940   33.7700 C   0  0  0  0  0  0  0  0  0  0  0  0
   33.0590   29.7900   33.1930 N   0  0  0  0  0  0  0  0  0  0  0  0
   35.4280   30.5110   35.4990 H   0  0  0  0  0  0  0  0  0  0  0  0
   31.0190   30.3670   33.2840 H   0  0  0  0  0  0  0  0  0  0  0  0
   33.5430   31.8010   36.9000 C   0  0  0  0  0  0  0  0  0  0  0  0
   32.8680   31.0620   37.8250 F   0  0  0  0  0  0  0  0  0  0  0  0
   34.8960   31.8650   37.2580 F   0  0  0  0  0  0  0  0  0  0  0  0
   33.0380   33.0900   36.8670 F   0  0  0  0  0  0  0  0  0  0  0  0
   38.1990   26.9540   33.3290 C   0  0  0  0  0  0  0  0  0  0  0  0
   38.6160   25.9210   32.4750 C   0  0  0  0  0  0  0  0  0  0  0  0
   39.5880   25.0640   32.8940 C   0  0  0  0  0  0  0  0  0  0  0  0
   40.1630   25.2190   34.1750 C   0  0  0  0  0  0  0  0  0  0  0  0
   39.2320   26.6860   34.7860 S   0  0  0  0  0  0  0  0  0  0  0  0
   38.1570   25.8110   31.4770 H   0  0  0  0  0  0  0  0  0  0  0  0
   39.9290   24.2630   32.2620 H   0  0  0  0  0  0  0  0  0  0  0  0
   39.4160   22.6870   35.7200 Cl  0  0  0  0  0  0  0  0  0  0  0  0
   40.9830   23.4650   35.7250 C   0  0  0  0  0  0  0  0  0  0  0  0
   41.1320   24.6010   34.9640 C   0  0  0  0  0  0  0  0  0  0  0  0
   42.4020   25.1280   35.0410 C   0  0  0  0  0  0  0  0  0  0  0  0
   42.6970   26.0250   34.5050 H   0  0  0  0  0  0  0  0  0  0  0  0
   43.4190   24.5890   35.7910 C   0  0  0  0  0  0  0  0  0  0  0  0
   44.4060   25.0240   35.8330 H   0  0  0  0  0  0  0  0  0  0  0  0
   43.1730   23.4490   36.5200 C   0  0  0  0  0  0  0  0  0  0  0  0
   43.9550   23.0230   37.1040 H   0  0  0  0  0  0  0  0  0  0  0  0
   41.9340   22.8510   36.5060 C   0  0  0  0  0  0  0  0  0  0  0  0
   41.6040   21.4110   37.4180 Cl  0  0  0  0  0  0  0  0  0  0  0  0
  1  8  1  0  0  0  0
  1  5  2  0  0  0  0
  2  1  1  0  0  0  0
  3  2  2  0  0  0  0
  3  4  1  0  0  0  0
  4 20  1  0  0  0  0
  4  5  1  0  0  0  0
  6  2  1  0  0  0  0
  7  3  1  0  0  0  0
  8  9  1  0  0  0  0
  9 14  1  0  0  0  0
  9 10  2  0  0  0  0
 10 16  1  0  0  0  0
 11 10  1  0  0  0  0
 12 11  2  0  0  0  0
 13 12  1  0  0  0  0
 13  8  2  0  0  0  0
 15 12  1  0  0  0  0
 16 18  1  0  0  0  0
 16 17  1  0  0  0  0
 19 16  1  0  0  0  0
 20 24  1  0  0  0  0
 21 22  1  0  0  0  0
 21 20  2  0  0  0  0
 22 23  2  0  0  0  0
 23 24  1  0  0  0  0
 23 29  1  0  0  0  0
 25 21  1  0  0  0  0
 26 22  1  0  0  0  0
 27 28  1  0  0  0  0
 28 36  1  0  0  0  0
 29 30  1  0  0  0  0
 29 28  2  0  0  0  0
 30 32  2  0  0  0  0
 31 30  1  0  0  0  0
 32 33  1  0  0  0  0
 32 34  1  0  0  0  0
 34 35  1  0  0  0  0
 36 34  2  0  0  0  0
 36 37  1  0  0  0  0
M  END
>  <minimizedAffinity>
-6.1746316

$$$$

 OpenBabel03272508073D

 37 40  0  0  0  0  0  0  0  0999 V2000
   35.6090   29.7930   33.4060 C   0  0  0  0  0  0  0  0  0  0  0  0
   35.9870   30.2140   32.1600 C   0  0  0  0  0  0  0  0  0  0  0  0
   36.2740   29.1340   31.3330 C   0  0  0  0  0  0  0  0  0  0  0  0
   36.0470   28.0690   32.1530 N   0  0  0  0  0  0  0  0  0  0  0  0
   35.6620   28.4390   33.3520 N   0  0  0  0  0  0  0  0  0  0  0  0
   36.0600   31.2450   31.8360 H   0  0  0  0  0  0  0  0  0  0  0  0
   36.5920   29.0870   30.3200 H   0  0  0  0  0  0  0  0  0  0  0  0
   35.2240   30.5950   34.5610 C   0  0  0  0  0  0  0  0  0  0  0  0
   33.9190   30.3970   35.0830 C   0  0  0  0  0  0  0  0  0  0  0  0
   33.5430   31.1610   36.1840 C   0  0  0  0  0  0  0  0  0  0  0  0
   34.4420   32.0460   36.6930 N   0  0  0  0  0  0  0  0  0  0  0  0
   35.6710   32.2090   36.1720 C   0  0  0  0  0  0  0  0  0  0  0  0
   36.0520   31.4800   35.1090 N   0  0  0  0  0  0  0  0  0  0  0  0
   33.2270   29.6760   34.6470 H   0  0  0  0  0  0  0  0  0  0  0  0
   36.3630   32.9380   36.6180 H   0  0  0  0  0  0  0  0  0  0  0  0
   32.1700   30.9640   36.7460 C   0  0  0  0  0  0  0  0  0  0  0  0
   31.7850   32.1790   37.2300 F   0  0  0  0  0  0  0  0  0  0  0  0
   31.2630   30.5520   35.7600 F   0  0  0  0  0  0  0  0  0  0  0  0
   32.1620   30.0260   37.7650 F   0  0  0  0  0  0  0  0  0  0  0  0
   36.1770   26.6540   31.8240 C   0  0  0  0  0  0  0  0  0  0  0  0
   35.1500   25.9510   31.1740 C   0  0  0  0  0  0  0  0  0  0  0  0
   35.3320   24.6350   30.8740 C   0  0  0  0  0  0  0  0  0  0  0  0
   36.5420   23.9920   31.2190 C   0  0  0  0  0  0  0  0  0  0  0  0
   37.4470   25.3840   32.0180 S   0  0  0  0  0  0  0  0  0  0  0  0
   34.2100   26.4660   30.9120 H   0  0  0  0  0  0  0  0  0  0  0  0
   34.5650   24.0700   30.3760 H   0  0  0  0  0  0  0  0  0  0  0  0
   35.0690   21.5870   32.4000 Cl  0  0  0  0  0  0  0  0  0  0  0  0
   36.6090   21.5390   31.5740 C   0  0  0  0  0  0  0  0  0  0  0  0
   37.1190   22.7280   31.1080 C   0  0  0  0  0  0  0  0  0  0  0  0
   38.3330   22.5740   30.4760 C   0  0  0  0  0  0  0  0  0  0  0  0
   38.8800   23.4080   30.0470 H   0  0  0  0  0  0  0  0  0  0  0  0
   38.9770   21.3700   30.3200 C   0  0  0  0  0  0  0  0  0  0  0  0
   39.9280   21.2780   29.8190 H   0  0  0  0  0  0  0  0  0  0  0  0
   38.3860   20.2330   30.8200 C   0  0  0  0  0  0  0  0  0  0  0  0
   38.8770   19.2950   30.7040 H   0  0  0  0  0  0  0  0  0  0  0  0
   37.1740   20.2890   31.4680 C   0  0  0  0  0  0  0  0  0  0  0  0
   36.4120   18.8650   32.1070 Cl  0  0  0  0  0  0  0  0  0  0  0  0
  1  8  1  0  0  0  0
  2  1  1  0  0  0  0
  3  4  1  0  0  0  0
  3  2  2  0  0  0  0
  4  5  1  0  0  0  0
  5  1  2  0  0  0  0
  6  2  1  0  0  0  0
  7  3  1  0  0  0  0
  8  9  2  0  0  0  0
  8 13  1  0  0  0  0
  9 10  1  0  0  0  0
 10 11  2  0  0  0  0
 10 16  1  0  0  0  0
 12 15  1  0  0  0  0
 12 11  1  0  0  0  0
 13 12  2  0  0  0  0
 14  9  1  0  0  0  0
 16 17  1  0  0  0  0
 16 19  1  0  0  0  0
 18 16  1  0  0  0  0
 20 24  1  0  0  0  0
 20  4  1  0  0  0  0
 21 20  2  0  0  0  0
 22 21  1  0  0  0  0
 22 23  2  0  0  0  0
 23 24  1  0  0  0  0
 25 21  1  0  0  0  0
 26 22  1  0  0  0  0
 28 27  1  0  0  0  0
 29 23  1  0  0  0  0
 29 28  2  0  0  0  0
 30 29  1  0  0  0  0
 31 30  1  0  0  0  0
 32 30  2  0  0  0  0
 32 34  1  0  0  0  0
 33 32  1  0  0  0  0
 34 36  2  0  0  0  0
 35 34  1  0  0  0  0
 36 28  1  0  0  0  0
 36 37  1  0  0  0  0
M  END
>  <minimizedAffinity>
-6.0902133

$$$$

 OpenBabel03272508073D

 37 40  0  0  0  0  0  0  0  0999 V2000
   38.1070   24.9880   34.8720 C   0  0  0  0  0  0  0  0  0  0  0  0
   38.2750   24.6280   33.5620 C   0  0  0  0  0  0  0  0  0  0  0  0
   37.6960   25.5620   32.7090 C   0  0  0  0  0  0  0  0  0  0  0  0
   37.1850   26.4770   33.5810 N   0  0  0  0  0  0  0  0  0  0  0  0
   37.4180   26.1550   34.8320 N   0  0  0  0  0  0  0  0  0  0  0  0
   38.7860   23.7410   33.2100 H   0  0  0  0  0  0  0  0  0  0  0  0
   37.6340   25.6040   31.6500 H   0  0  0  0  0  0  0  0  0  0  0  0
   38.5590   24.2950   36.0720 C   0  0  0  0  0  0  0  0  0  0  0  0
   39.7450   23.5220   35.9660 C   0  0  0  0  0  0  0  0  0  0  0  0
   40.1830   22.8540   37.1060 C   0  0  0  0  0  0  0  0  0  0  0  0
   39.4530   22.9810   38.2480 N   0  0  0  0  0  0  0  0  0  0  0  0
   38.3330   23.7220   38.3120 C   0  0  0  0  0  0  0  0  0  0  0  0
   37.8950   24.3740   37.2220 N   0  0  0  0  0  0  0  0  0  0  0  0
   40.3020   23.4450   35.0320 H   0  0  0  0  0  0  0  0  0  0  0  0
   37.7780   23.7940   39.2590 H   0  0  0  0  0  0  0  0  0  0  0  0
   41.4310   22.0340   37.0110 C   0  0  0  0  0  0  0  0  0  0  0  0
   42.4630   22.9240   36.9990 F   0  0  0  0  0  0  0  0  0  0  0  0
   41.5720   21.1780   38.1120 F   0  0  0  0  0  0  0  0  0  0  0  0
   41.4550   21.2690   35.8570 F   0  0  0  0  0  0  0  0  0  0  0  0
   36.4640   27.7030   33.2560 C   0  0  0  0  0  0  0  0  0  0  0  0
   36.1390   28.6500   34.2410 C   0  0  0  0  0  0  0  0  0  0  0  0
   35.4800   29.7850   33.8790 C   0  0  0  0  0  0  0  0  0  0  0  0
   35.1290   29.9980   32.5270 C   0  0  0  0  0  0  0  0  0  0  0  0
   35.7980   28.4630   31.7600 S   0  0  0  0  0  0  0  0  0  0  0  0
   36.4180   28.4690   35.2930 H   0  0  0  0  0  0  0  0  0  0  0  0
   35.2180   30.5300   34.6090 H   0  0  0  0  0  0  0  0  0  0  0  0
   32.0720   30.0560   32.4810 Cl  0  0  0  0  0  0  0  0  0  0  0  0
   33.1300   31.1460   31.6140 C   0  0  0  0  0  0  0  0  0  0  0  0
   34.4860   30.9660   31.7570 C   0  0  0  0  0  0  0  0  0  0  0  0
   35.2220   31.8770   31.0330 C   0  0  0  0  0  0  0  0  0  0  0  0
   36.3070   31.8830   31.0290 H   0  0  0  0  0  0  0  0  0  0  0  0
   34.6750   32.8650   30.2480 C   0  0  0  0  0  0  0  0  0  0  0  0
   35.2770   33.5660   29.6910 H   0  0  0  0  0  0  0  0  0  0  0  0
   33.3060   32.9650   30.1680 C   0  0  0  0  0  0  0  0  0  0  0  0
   32.8730   33.7270   29.5630 H   0  0  0  0  0  0  0  0  0  0  0  0
   32.4880   32.0990   30.8560 C   0  0  0  0  0  0  0  0  0  0  0  0
   30.7580   32.2100   30.7680 Cl  0  0  0  0  0  0  0  0  0  0  0  0
  1  8  1  0  0  0  0
  2  1  1  0  0  0  0
  3  2  2  0  0  0  0
  3  4  1  0  0  0  0
  4  5  1  0  0  0  0
  5  1  2  0  0  0  0
  6  2  1  0  0  0  0
  7  3  1  0  0  0  0
  8 13  1  0  0  0  0
  9  8  2  0  0  0  0
  9 10  1  0  0  0  0
 10 11  2  0  0  0  0
 11 12  1  0  0  0  0
 12 15  1  0  0  0  0
 13 12  2  0  0  0  0
 14  9  1  0  0  0  0
 16 10  1  0  0  0  0
 16 18  1  0  0  0  0
 17 16  1  0  0  0  0
 19 16  1  0  0  0  0
 20  4  1  0  0  0  0
 20 21  2  0  0  0  0
 21 25  1  0  0  0  0
 22 21  1  0  0  0  0
 22 26  1  0  0  0  0
 23 22  2  0  0  0  0
 24 23  1  0  0  0  0
 24 20  1  0  0  0  0
 28 29  1  0  0  0  0
 28 27  1  0  0  0  0
 29 23  1  0  0  0  0
 30 29  2  0  0  0  0
 31 30  1  0  0  0  0
 32 30  1  0  0  0  0
 33 32  1  0  0  0  0
 34 32  2  0  0  0  0
 34 36  1  0  0  0  0
 35 34  1  0  0  0  0
 36 28  2  0  0  0  0
 37 36  1  0  0  0  0
M  END
>  <minimizedAffinity>
-6.05397701

$$$$

 OpenBabel03272508073D

 37 40  0  0  0  0  0  0  0  0999 V2000
   36.7220   23.8870   31.4130 C   0  0  0  0  0  0  0  0  0  0  0  0
   37.7810   24.4380   30.7430 C   0  0  0  0  0  0  0  0  0  0  0  0
   37.8640   25.8060   30.9790 C   0  0  0  0  0  0  0  0  0  0  0  0
   36.8080   26.0240   31.8140 N   0  0  0  0  0  0  0  0  0  0  0  0
   36.1430   24.9220   32.0700 N   0  0  0  0  0  0  0  0  0  0  0  0
   38.4760   23.9030   30.1080 H   0  0  0  0  0  0  0  0  0  0  0  0
   38.5470   26.5410   30.6300 H   0  0  0  0  0  0  0  0  0  0  0  0
   36.2850   22.4960   31.4380 C   0  0  0  0  0  0  0  0  0  0  0  0
   36.9710   21.5850   30.5930 C   0  0  0  0  0  0  0  0  0  0  0  0
   36.5590   20.2560   30.6090 C   0  0  0  0  0  0  0  0  0  0  0  0
   35.5290   19.9100   31.4290 N   0  0  0  0  0  0  0  0  0  0  0  0
   34.9010   20.8000   32.2160 C   0  0  0  0  0  0  0  0  0  0  0  0
   35.2850   22.0880   32.2140 N   0  0  0  0  0  0  0  0  0  0  0  0
   37.7930   21.9020   29.9500 H   0  0  0  0  0  0  0  0  0  0  0  0
   34.0730   20.4720   32.8610 H   0  0  0  0  0  0  0  0  0  0  0  0
   37.2730   19.2830   29.7240 C   0  0  0  0  0  0  0  0  0  0  0  0
   37.7160   18.2870   30.5420 F   0  0  0  0  0  0  0  0  0  0  0  0
   36.4150   18.7400   28.7570 F   0  0  0  0  0  0  0  0  0  0  0  0
   38.3450   19.8720   29.0740 F   0  0  0  0  0  0  0  0  0  0  0  0
   36.3970   27.2890   32.4100 C   0  0  0  0  0  0  0  0  0  0  0  0
   35.9720   28.3710   31.6230 C   0  0  0  0  0  0  0  0  0  0  0  0
   35.5820   29.5250   32.2330 C   0  0  0  0  0  0  0  0  0  0  0  0
   35.6100   29.6230   33.6420 C   0  0  0  0  0  0  0  0  0  0  0  0
   36.2370   27.9490   34.0840 S   0  0  0  0  0  0  0  0  0  0  0  0
   35.9560   28.2810   30.5230 H   0  0  0  0  0  0  0  0  0  0  0  0
   35.2500   30.3700   31.6580 H   0  0  0  0  0  0  0  0  0  0  0  0
   32.9540   29.4060   35.1420 Cl  0  0  0  0  0  0  0  0  0  0  0  0
   34.1790   30.6280   35.4010 C   0  0  0  0  0  0  0  0  0  0  0  0
   35.3140   30.5640   34.6270 C   0  0  0  0  0  0  0  0  0  0  0  0
   36.2090   31.5710   34.9140 C   0  0  0  0  0  0  0  0  0  0  0  0
   37.1590   31.6750   34.4000 H   0  0  0  0  0  0  0  0  0  0  0  0
   36.0030   32.5410   35.8660 C   0  0  0  0  0  0  0  0  0  0  0  0
   36.7220   33.3190   36.0700 H   0  0  0  0  0  0  0  0  0  0  0  0
   34.8340   32.5210   36.5900 C   0  0  0  0  0  0  0  0  0  0  0  0
   34.6650   33.2680   37.3310 H   0  0  0  0  0  0  0  0  0  0  0  0
   33.8800   31.5540   36.3740 C   0  0  0  0  0  0  0  0  0  0  0  0
   32.3980   31.5110   37.2770 Cl  0  0  0  0  0  0  0  0  0  0  0  0
  1  8  1  0  0  0  0
  1  5  2  0  0  0  0
  2  3  2  0  0  0  0
  2  1  1  0  0  0  0
  3  4  1  0  0  0  0
  4  5  1  0  0  0  0
  4 20  1  0  0  0  0
  6  2  1  0  0  0  0
  7  3  1  0  0  0  0
  8 13  1  0  0  0  0
  9 10  1  0  0  0  0
  9  8  2  0  0  0  0
 10 11  2  0  0  0  0
 11 12  1  0  0  0  0
 12 15  1  0  0  0  0
 13 12  2  0  0  0  0
 14  9  1  0  0  0  0
 16 17  1  0  0  0  0
 16 10  1  0  0  0  0
 18 16  1  0  0  0  0
 19 16  1  0  0  0  0
 20 24  1  0  0  0  0
 21 22  1  0  0  0  0
 21 20  2  0  0  0  0
 22 23  2  0  0  0  0
 23 24  1  0  0  0  0
 23 29  1  0  0  0  0
 25 21  1  0  0  0  0
 26 22  1  0  0  0  0
 27 28  1  0  0  0  0
 28 36  1  0  0  0  0
 29 30  1  0  0  0  0
 29 28  2  0  0  0  0
 30 32  2  0  0  0  0
 31 30  1  0  0  0  0
 32 33  1  0  0  0  0
 32 34  1  0  0  0  0
 34 35  1  0  0  0  0
 36 34  2  0  0  0  0
 36 37  1  0  0  0  0
M  END
>  <minimizedAffinity>
-6.0208807

$$$$
