
 OpenBabel03272504503D

 44 47  0  0  1  0  0  0  0  0999 V2000
   36.4640   30.4130   48.4500 N   0  0  0  0  0  0  0  0  0  0  0  0
   37.0850   30.0670   49.7150 C   0  0  0  0  0  0  0  0  0  0  0  0
   38.3450   30.8180   49.9940 C   0  0  0  0  0  0  0  0  0  0  0  0
   38.1970   32.2580   49.5110 C   0  0  0  0  0  0  0  0  0  0  0  0
   38.1310   32.1650   48.0180 C   0  0  0  0  0  0  0  0  0  0  0  0
   36.9610   31.3650   47.5160 C   0  0  1  0  0  0  0  0  0  0  0  0
   36.3420   30.4240   50.4900 H   0  0  0  0  0  0  0  0  0  0  0  0
   37.1940   29.0020   49.9080 H   0  0  0  0  0  0  0  0  0  0  0  0
   38.5080   30.8040   51.0890 H   0  0  0  0  0  0  0  0  0  0  0  0
   39.1850   30.3730   49.4330 H   0  0  0  0  0  0  0  0  0  0  0  0
   39.0610   32.8520   49.8110 H   0  0  0  0  0  0  0  0  0  0  0  0
   37.2540   32.6750   49.9210 H   0  0  0  0  0  0  0  0  0  0  0  0
   38.0720   33.1950   47.6110 H   0  0  0  0  0  0  0  0  0  0  0  0
   39.0840   31.7070   47.6490 H   0  0  0  0  0  0  0  0  0  0  0  0
   36.1200   32.1040   47.3520 H   0  0  0  0  0  0  0  0  0  0  0  0
   39.8950   31.4630   46.4970 Cl  0  0  0  0  0  0  0  0  0  0  0  0
   38.5610   30.8330   45.5940 C   0  0  0  0  0  0  0  0  0  0  0  0
   37.3260   30.8570   46.1880 C   0  0  0  0  0  0  0  0  0  0  0  0
   36.3330   30.3200   45.3500 C   0  0  0  0  0  0  0  0  0  0  0  0
   35.2990   30.2910   45.7300 H   0  0  0  0  0  0  0  0  0  0  0  0
   36.5450   29.8210   44.0830 C   0  0  0  0  0  0  0  0  0  0  0  0
   35.7020   29.4310   43.5250 H   0  0  0  0  0  0  0  0  0  0  0  0
   37.8150   29.8390   43.5710 C   0  0  0  0  0  0  0  0  0  0  0  0
   37.9230   29.4400   42.5850 H   0  0  0  0  0  0  0  0  0  0  0  0
   38.8320   30.3530   44.3460 C   0  0  0  0  0  0  0  0  0  0  0  0
   40.4490   30.3700   43.6840 Cl  0  0  0  0  0  0  0  0  0  0  0  0
   35.0350   28.4300   48.5470 C   0  0  0  0  0  0  0  0  0  0  0  0
   35.2550   29.7420   48.1470 C   0  0  0  0  0  0  0  0  0  0  0  0
   34.2250   30.3420   47.4480 C   0  0  0  0  0  0  0  0  0  0  0  0
   33.0840   29.6490   47.1910 N   0  0  0  0  0  0  0  0  0  0  0  0
   32.9150   28.3780   47.5970 C   0  0  0  0  0  0  0  0  0  0  0  0
   33.9000   27.7830   48.2740 N   0  0  0  0  0  0  0  0  0  0  0  0
   35.7590   27.8520   49.1000 H   0  0  0  0  0  0  0  0  0  0  0  0
   34.2750   31.3370   47.0970 H   0  0  0  0  0  0  0  0  0  0  0  0
   31.6890   27.6620   47.3120 C   0  0  0  0  0  0  0  0  0  0  0  0
   31.7150   26.3640   46.9040 C   0  0  0  0  0  0  0  0  0  0  0  0
   30.5690   25.6520   46.6250 C   0  0  0  0  0  0  0  0  0  0  0  0
   29.3960   26.3250   46.7820 C   0  0  0  0  0  0  0  0  0  0  0  0
   29.3060   27.6710   47.2030 C   0  0  0  0  0  0  0  0  0  0  0  0
   30.4970   28.2950   47.4570 N   0  0  0  0  0  0  0  0  0  0  0  0
   32.6890   25.9030   46.8030 H   0  0  0  0  0  0  0  0  0  0  0  0
   30.6200   24.6370   46.3060 H   0  0  0  0  0  0  0  0  0  0  0  0
   28.4650   25.8170   46.5780 H   0  0  0  0  0  0  0  0  0  0  0  0
   28.3590   28.1800   47.3200 H   0  0  0  0  0  0  0  0  0  0  0  0
  1  2  1  0  0  0  0
  2  8  1  0  0  0  0
  2  3  1  0  0  0  0
  2  7  1  0  0  0  0
  3  9  1  0  0  0  0
  4 11  1  0  0  0  0
  4 12  1  0  0  0  0
  4  3  1  0  0  0  0
  5  4  1  0  0  0  0
  6 15  1  6  0  0  0
  6  5  1  0  0  0  0
  6  1  1  0  0  0  0
 10  3  1  0  0  0  0
 13  5  1  0  0  0  0
 14  5  1  0  0  0  0
 17 18  1  0  0  0  0
 17 16  1  0  0  0  0
 18  6  1  0  0  0  0
 19 20  1  0  0  0  0
 19 18  2  0  0  0  0
 21 19  1  0  0  0  0
 22 21  1  0  0  0  0
 23 21  2  0  0  0  0
 23 25  1  0  0  0  0
 24 23  1  0  0  0  0
 25 17  2  0  0  0  0
 26 25  1  0  0  0  0
 27 33  1  0  0  0  0
 28  1  1  0  0  0  0
 28 27  2  0  0  0  0
 29 28  1  0  0  0  0
 30 29  2  0  0  0  0
 30 31  1  0  0  0  0
 31 32  2  0  0  0  0
 32 27  1  0  0  0  0
 34 29  1  0  0  0  0
 35 40  1  0  0  0  0
 35 31  1  0  0  0  0
 36 35  2  0  0  0  0
 37 38  2  0  0  0  0
 37 36  1  0  0  0  0
 38 39  1  0  0  0  0
 39 44  1  0  0  0  0
 39 40  2  0  0  0  0
 41 36  1  0  0  0  0
 42 37  1  0  0  0  0
 43 38  1  0  0  0  0
M  END
>  <minimizedAffinity>
-5.95414305

>  <minimizedRMSD>
1.35774529

$$$$
