
 OpenBabel03272500513D

 47 52  0  0  1  0  0  0  0  0999 V2000
   32.6210   28.7950   45.7610 C   0  0  0  0  0  0  0  0  0  0  0  0
   33.4970   28.9110   44.6870 C   0  0  0  0  0  0  0  0  0  0  0  0
   34.7060   29.2890   45.1860 N   0  0  0  0  0  0  0  0  0  0  0  0
   34.5990   29.4110   46.5470 C   0  0  0  0  0  0  0  0  0  0  0  0
   33.3360   29.1100   46.8740 N   0  0  0  0  0  0  0  0  0  0  0  0
   33.3100   28.7440   43.6350 H   0  0  0  0  0  0  0  0  0  0  0  0
   35.6150   29.4800   44.7160 H   0  0  0  0  0  0  0  0  0  0  0  0
   30.6310   27.3900   46.5440 C   0  0  1  0  0  0  0  0  0  0  0  0
   30.8130   27.1150   45.0040 C   0  0  0  0  0  0  0  0  0  0  0  0
   31.1730   28.4150   45.6550 C   0  0  2  0  0  0  0  0  0  0  0  0
   31.3340   26.7970   47.1630 H   0  0  0  0  0  0  0  0  0  0  0  0
   29.8790   27.1110   44.4250 H   0  0  0  0  0  0  0  0  0  0  0  0
   31.6680   26.4910   44.7160 H   0  0  0  0  0  0  0  0  0  0  0  0
   30.5320   29.2840   45.4020 H   0  0  0  0  0  0  0  0  0  0  0  0
   27.4030   28.3680   47.7890 C   0  0  0  0  0  0  0  0  0  0  0  0
   27.2360   27.0060   47.7160 C   0  0  0  0  0  0  0  0  0  0  0  0
   28.4390   26.4410   47.2320 C   0  0  0  0  0  0  0  0  0  0  0  0
   29.2750   27.4780   47.0360 N   0  0  0  0  0  0  0  0  0  0  0  0
   28.6390   28.5730   47.3700 N   0  0  0  0  0  0  0  0  0  0  0  0
   26.3900   26.3420   47.9520 H   0  0  0  0  0  0  0  0  0  0  0  0
   28.6310   25.3920   47.0610 H   0  0  0  0  0  0  0  0  0  0  0  0
   25.2330   28.8170   48.9750 C   0  0  0  0  0  0  0  0  0  0  0  0
   26.3800   29.2760   48.2440 C   0  0  0  0  0  0  0  0  0  0  0  0
   26.4670   30.6190   47.9920 C   0  0  0  0  0  0  0  0  0  0  0  0
   25.4830   31.4510   48.4350 N   0  0  0  0  0  0  0  0  0  0  0  0
   24.4140   30.9740   49.1240 C   0  0  0  0  0  0  0  0  0  0  0  0
   24.2800   29.6570   49.3990 N   0  0  0  0  0  0  0  0  0  0  0  0
   25.2470   27.7470   49.1270 H   0  0  0  0  0  0  0  0  0  0  0  0
   27.2760   31.0730   47.4580 H   0  0  0  0  0  0  0  0  0  0  0  0
   23.6140   31.5880   49.4930 H   0  0  0  0  0  0  0  0  0  0  0  0
   35.6910   29.8130   47.4700 C   0  0  0  0  0  0  0  0  0  0  0  0
   35.8860   29.1260   48.6860 C   0  0  0  0  0  0  0  0  0  0  0  0
   37.3210   30.0000   49.4210 S   0  0  0  0  0  0  0  0  0  0  0  0
   37.4040   31.1570   47.9350 C   0  0  0  0  0  0  0  0  0  0  0  0
   36.5490   30.7860   47.2880 N   0  0  0  0  0  0  0  0  0  0  0  0
   35.2940   28.2820   49.0480 H   0  0  0  0  0  0  0  0  0  0  0  0
   37.3720   32.9080   50.2580 Cl  0  0  0  0  0  0  0  0  0  0  0  0
   38.4700   33.1070   48.9280 C   0  0  0  0  0  0  0  0  0  0  0  0
   38.4480   32.2480   47.8420 C   0  0  0  0  0  0  0  0  0  0  0  0
   39.2620   32.3120   46.7470 C   0  0  0  0  0  0  0  0  0  0  0  0
   39.1960   31.6080   45.9280 H   0  0  0  0  0  0  0  0  0  0  0  0
   40.1820   33.3400   46.7500 C   0  0  0  0  0  0  0  0  0  0  0  0
   40.8790   33.4840   45.9270 H   0  0  0  0  0  0  0  0  0  0  0  0
   40.2990   34.2700   47.7900 C   0  0  0  0  0  0  0  0  0  0  0  0
   41.0320   35.0600   47.7550 H   0  0  0  0  0  0  0  0  0  0  0  0
   39.4220   34.1010   48.8410 C   0  0  0  0  0  0  0  0  0  0  0  0
   39.4670   35.2060   50.2100 Cl  0  0  0  0  0  0  0  0  0  0  0  0
  1  5  1  0  0  0  0
  2  3  1  0  0  0  0
  2  1  2  0  0  0  0
  3  4  1  0  0  0  0
  4  5  2  0  0  0  0
  4 31  1  0  0  0  0
  6  2  1  0  0  0  0
  7  3  1  0  0  0  0
  8 18  1  0  0  0  0
  8 11  1  1  0  0  0
  9 10  1  0  0  0  0
  9  8  1  0  0  0  0
 10 14  1  6  0  0  0
 10  1  1  0  0  0  0
 10  8  1  0  0  0  0
 12  9  1  0  0  0  0
 13  9  1  0  0  0  0
 15 23  1  0  0  0  0
 16 15  1  0  0  0  0
 16 20  1  0  0  0  0
 17 16  2  0  0  0  0
 18 17  1  0  0  0  0
 18 19  1  0  0  0  0
 19 15  2  0  0  0  0
 21 17  1  0  0  0  0
 22 28  1  0  0  0  0
 22 27  1  0  0  0  0
 23 22  2  0  0  0  0
 24 23  1  0  0  0  0
 24 25  2  0  0  0  0
 25 26  1  0  0  0  0
 26 27  2  0  0  0  0
 26 30  1  0  0  0  0
 29 24  1  0  0  0  0
 31 32  2  0  0  0  0
 32 36  1  0  0  0  0
 32 33  1  0  0  0  0
 34 33  1  0  0  0  0
 35 31  1  0  0  0  0
 35 34  2  0  0  0  0
 38 37  1  0  0  0  0
 39 34  1  0  0  0  0
 39 38  2  0  0  0  0
 40 42  2  0  0  0  0
 40 39  1  0  0  0  0
 41 40  1  0  0  0  0
 42 44  1  0  0  0  0
 43 42  1  0  0  0  0
 44 46  2  0  0  0  0
 45 44  1  0  0  0  0
 46 38  1  0  0  0  0
 46 47  1  0  0  0  0
M  END
>  <minimizedAffinity>
-5.7490077

>  <minimizedRMSD>
1.83309889

$$$$
