
 OpenBabel03272503423D

 43 46  0  0  1  0  0  0  0  0999 V2000
   39.7710   31.1910   41.6980 C   0  0  2  0  0  0  0  0  0  0  0  0
   39.5840   32.3440   42.7030 C   0  0  1  0  0  0  0  0  0  0  0  0
   38.3890   33.0070   42.0690 C   0  0  0  0  0  0  0  0  0  0  0  0
   38.5320   32.8930   40.7070 O   0  0  0  0  0  0  0  0  0  0  0  0
   39.5210   32.0030   40.4200 C   0  0  0  0  0  0  0  0  0  0  0  0
   40.7770   30.7830   41.7300 H   0  0  0  0  0  0  0  0  0  0  0  0
   40.4270   33.0330   42.7090 H   0  0  0  0  0  0  0  0  0  0  0  0
   37.4820   32.4830   42.4260 H   0  0  0  0  0  0  0  0  0  0  0  0
   38.3100   34.0840   42.3110 H   0  0  0  0  0  0  0  0  0  0  0  0
   39.3890   31.3780   39.5410 H   0  0  0  0  0  0  0  0  0  0  0  0
   40.4590   32.6040   40.2600 H   0  0  0  0  0  0  0  0  0  0  0  0
   38.3540   31.1570   45.8610 C   0  0  0  0  0  0  0  0  0  0  0  0
   39.6980   30.9920   46.0570 C   0  0  0  0  0  0  0  0  0  0  0  0
   40.2710   31.4340   44.8650 C   0  0  0  0  0  0  0  0  0  0  0  0
   39.3170   31.8340   44.0180 N   0  0  0  0  0  0  0  0  0  0  0  0
   38.1400   31.6640   44.6270 N   0  0  0  0  0  0  0  0  0  0  0  0
   40.2200   30.6040   46.9420 H   0  0  0  0  0  0  0  0  0  0  0  0
   41.3640   31.4100   44.7520 H   0  0  0  0  0  0  0  0  0  0  0  0
   36.4770   30.6150   49.0630 C   0  0  0  0  0  0  0  0  0  0  0  0
   37.5080   30.9340   48.1900 C   0  0  0  0  0  0  0  0  0  0  0  0
   37.3070   30.8360   46.8260 C   0  0  0  0  0  0  0  0  0  0  0  0
   36.0990   30.4290   46.3910 N   0  0  0  0  0  0  0  0  0  0  0  0
   35.1030   30.1230   47.2660 C   0  0  0  0  0  0  0  0  0  0  0  0
   35.2860   30.2140   48.5770 N   0  0  0  0  0  0  0  0  0  0  0  0
   38.5030   31.2670   48.4630 H   0  0  0  0  0  0  0  0  0  0  0  0
   34.1430   29.7990   46.8910 H   0  0  0  0  0  0  0  0  0  0  0  0
   36.8310   30.7640   50.4040 O   0  0  0  0  0  0  0  0  0  0  0  0
   36.8800   29.6950   51.3130 C   0  0  0  0  0  0  0  0  0  0  0  0
   35.6250   29.2310   51.6550 F   0  0  0  0  0  0  0  0  0  0  0  0
   37.5900   30.0820   52.4230 F   0  0  0  0  0  0  0  0  0  0  0  0
   37.5940   28.6570   50.7190 F   0  0  0  0  0  0  0  0  0  0  0  0
   38.7140   30.3290   41.9060 O   0  0  0  0  0  0  0  0  0  0  0  0
   37.9040   28.9650   39.3760 Cl  0  0  0  0  0  0  0  0  0  0  0  0
   38.4420   28.2420   40.8870 C   0  0  0  0  0  0  0  0  0  0  0  0
   38.8000   28.9710   42.0190 C   0  0  0  0  0  0  0  0  0  0  0  0
   39.2030   28.2630   43.1320 C   0  0  0  0  0  0  0  0  0  0  0  0
   39.4790   28.8330   44.0040 H   0  0  0  0  0  0  0  0  0  0  0  0
   39.2650   26.8770   43.1700 C   0  0  0  0  0  0  0  0  0  0  0  0
   39.5870   26.3800   44.0680 H   0  0  0  0  0  0  0  0  0  0  0  0
   38.9010   26.1730   42.0230 C   0  0  0  0  0  0  0  0  0  0  0  0
   38.9570   25.0870   42.0750 H   0  0  0  0  0  0  0  0  0  0  0  0
   38.4910   26.8630   40.8890 C   0  0  0  0  0  0  0  0  0  0  0  0
   38.0680   25.8450   39.5330 Cl  0  0  0  0  0  0  0  0  0  0  0  0
  1  6  1  1  0  0  0
  1 32  1  0  0  0  0
  1  2  1  0  0  0  0
  2  7  1  1  0  0  0
  2 15  1  0  0  0  0
  3  9  1  0  0  0  0
  3  8  1  0  0  0  0
  3  2  1  0  0  0  0
  4  3  1  0  0  0  0
  5  4  1  0  0  0  0
  5  1  1  0  0  0  0
 10  5  1  0  0  0  0
 11  5  1  0  0  0  0
 12 13  1  0  0  0  0
 12 21  1  0  0  0  0
 13 17  1  0  0  0  0
 14 13  2  0  0  0  0
 15 16  1  0  0  0  0
 15 14  1  0  0  0  0
 16 12  2  0  0  0  0
 18 14  1  0  0  0  0
 19 27  1  0  0  0  0
 20 25  1  0  0  0  0
 20 19  2  0  0  0  0
 21 20  1  0  0  0  0
 22 21  2  0  0  0  0
 22 23  1  0  0  0  0
 23 24  2  0  0  0  0
 24 19  1  0  0  0  0
 26 23  1  0  0  0  0
 27 28  1  0  0  0  0
 28 29  1  0  0  0  0
 28 30  1  0  0  0  0
 31 28  1  0  0  0  0
 32 35  1  0  0  0  0
 33 34  1  0  0  0  0
 34 42  2  0  0  0  0
 34 35  1  0  0  0  0
 35 36  2  0  0  0  0
 36 38  1  0  0  0  0
 36 37  1  0  0  0  0
 38 39  1  0  0  0  0
 40 41  1  0  0  0  0
 40 38  2  0  0  0  0
 42 40  1  0  0  0  0
 43 42  1  0  0  0  0
M  END
>  <minimizedAffinity>
-6.26598215

>  <minimizedRMSD>
0.676929533

$$$$
