
 OpenBabel03272507143D

 42 46  0  0  0  0  0  0  0  0999 V2000
   35.8730   29.2140   49.8190 C   0  0  0  0  0  0  0  0  0  0  0  0
   34.8710   29.5690   50.6620 C   0  0  0  0  0  0  0  0  0  0  0  0
   33.7110   28.9510   50.1940 C   0  0  0  0  0  0  0  0  0  0  0  0
   34.1020   28.2350   49.0550 C   0  0  0  0  0  0  0  0  0  0  0  0
   35.3750   28.4370   48.8990 O   0  0  0  0  0  0  0  0  0  0  0  0
   34.9220   30.2080   51.5430 H   0  0  0  0  0  0  0  0  0  0  0  0
   32.7620   29.0640   50.6800 H   0  0  0  0  0  0  0  0  0  0  0  0
   33.5650   26.4810   47.3720 C   0  0  0  0  0  0  0  0  0  0  0  0
   33.1570   27.4380   48.2630 C   0  0  0  0  0  0  0  0  0  0  0  0
   31.8120   27.7150   48.4800 C   0  0  0  0  0  0  0  0  0  0  0  0
   30.8900   26.9760   47.7530 C   0  0  0  0  0  0  0  0  0  0  0  0
   29.5530   27.0300   47.7650 N   0  0  0  0  0  0  0  0  0  0  0  0
   29.1200   26.1170   46.8930 N   0  0  0  0  0  0  0  0  0  0  0  0
   30.1660   25.5000   46.3430 C   0  0  0  0  0  0  0  0  0  0  0  0
   31.3430   26.0220   46.8670 C   0  0  0  0  0  0  0  0  0  0  0  0
   32.6860   25.7500   46.6530 C   0  0  0  0  0  0  0  0  0  0  0  0
   34.6500   26.3440   47.2780 H   0  0  0  0  0  0  0  0  0  0  0  0
   31.4220   28.4630   49.1720 H   0  0  0  0  0  0  0  0  0  0  0  0
   28.9090   27.6410   48.3200 H   0  0  0  0  0  0  0  0  0  0  0  0
   30.1770   24.6980   45.5880 H   0  0  0  0  0  0  0  0  0  0  0  0
   32.9970   24.9910   45.9460 H   0  0  0  0  0  0  0  0  0  0  0  0
   37.2390   29.6830   50.0070 C   0  0  0  0  0  0  0  0  0  0  0  0
   37.9110   29.2300   50.9720 O   0  0  0  0  0  0  0  0  0  0  0  0
   37.7460   30.6520   49.0640 C   0  0  0  0  0  0  0  0  0  0  0  0
   38.2520   31.8320   49.5800 C   0  0  0  0  0  0  0  0  0  0  0  0
   38.7500   32.7920   48.7060 C   0  0  0  0  0  0  0  0  0  0  0  0
   38.7080   32.5010   47.3750 N   0  0  0  0  0  0  0  0  0  0  0  0
   38.2140   31.3530   46.8960 C   0  0  0  0  0  0  0  0  0  0  0  0
   37.7390   30.4420   47.7490 N   0  0  0  0  0  0  0  0  0  0  0  0
   38.3100   32.1110   50.6100 H   0  0  0  0  0  0  0  0  0  0  0  0
   39.1620   33.7410   49.0600 H   0  0  0  0  0  0  0  0  0  0  0  0
   40.8720   30.9190   45.7270 Cl  0  0  0  0  0  0  0  0  0  0  0  0
   39.3800   30.8770   44.7850 C   0  0  0  0  0  0  0  0  0  0  0  0
   38.1940   31.0970   45.4580 C   0  0  0  0  0  0  0  0  0  0  0  0
   37.0020   31.0750   44.7670 C   0  0  0  0  0  0  0  0  0  0  0  0
   36.0500   31.2420   45.2520 H   0  0  0  0  0  0  0  0  0  0  0  0
   36.9980   30.8280   43.3900 C   0  0  0  0  0  0  0  0  0  0  0  0
   36.0900   30.7950   42.7760 H   0  0  0  0  0  0  0  0  0  0  0  0
   38.2090   30.6150   42.7660 C   0  0  0  0  0  0  0  0  0  0  0  0
   38.2180   30.4240   41.7050 H   0  0  0  0  0  0  0  0  0  0  0  0
   39.4030   30.6340   43.4390 C   0  0  0  0  0  0  0  0  0  0  0  0
   40.9620   30.3650   42.6620 Cl  0  0  0  0  0  0  0  0  0  0  0  0
  1 22  1  0  0  0  0
  1  2  2  0  0  0  0
  2  6  1  0  0  0  0
  3  2  1  0  0  0  0
  3  7  1  0  0  0  0
  4  3  2  0  0  0  0
  5  4  1  0  0  0  0
  5  1  1  0  0  0  0
  8  9  1  0  0  0  0
  9 10  2  0  0  0  0
  9  4  1  0  0  0  0
 10 18  1  0  0  0  0
 11 12  1  0  0  0  0
 11 10  1  0  0  0  0
 12 19  1  0  0  0  0
 13 12  1  0  0  0  0
 14 15  1  0  0  0  0
 14 13  2  0  0  0  0
 15 11  2  0  0  0  0
 16 15  1  0  0  0  0
 16  8  2  0  0  0  0
 17  8  1  0  0  0  0
 20 14  1  0  0  0  0
 21 16  1  0  0  0  0
 22 23  2  0  0  0  0
 24 25  1  0  0  0  0
 24 22  1  0  0  0  0
 25 30  1  0  0  0  0
 26 31  1  0  0  0  0
 26 25  2  0  0  0  0
 27 26  1  0  0  0  0
 28 27  2  0  0  0  0
 28 29  1  0  0  0  0
 29 24  2  0  0  0  0
 33 34  1  0  0  0  0
 33 32  1  0  0  0  0
 34 28  1  0  0  0  0
 35 36  1  0  0  0  0
 35 34  2  0  0  0  0
 37 35  1  0  0  0  0
 38 37  1  0  0  0  0
 39 37  2  0  0  0  0
 39 41  1  0  0  0  0
 40 39  1  0  0  0  0
 41 33  2  0  0  0  0
 42 41  1  0  0  0  0
M  END
>  <minimizedAffinity>
-7.13645411

>  <minimizedRMSD>
0.598451257

$$$$
