
 OpenBabel03272507143D

 42 46  0  0  0  0  0  0  0  0999 V2000
   35.7770   29.1360   49.8780 C   0  0  0  0  0  0  0  0  0  0  0  0
   34.7320   29.6200   50.5970 C   0  0  0  0  0  0  0  0  0  0  0  0
   33.5790   29.0290   50.0810 C   0  0  0  0  0  0  0  0  0  0  0  0
   34.0170   28.1940   49.0450 C   0  0  0  0  0  0  0  0  0  0  0  0
   35.3090   28.3100   48.9860 O   0  0  0  0  0  0  0  0  0  0  0  0
   34.7510   30.3310   51.4220 H   0  0  0  0  0  0  0  0  0  0  0  0
   32.6020   29.2370   50.4700 H   0  0  0  0  0  0  0  0  0  0  0  0
   33.5240   26.4180   47.3710 C   0  0  0  0  0  0  0  0  0  0  0  0
   33.0930   27.3840   48.2420 C   0  0  0  0  0  0  0  0  0  0  0  0
   31.7430   27.6590   48.4250 C   0  0  0  0  0  0  0  0  0  0  0  0
   30.8390   26.9080   47.6860 C   0  0  0  0  0  0  0  0  0  0  0  0
   29.5020   26.9570   47.6680 N   0  0  0  0  0  0  0  0  0  0  0  0
   29.0920   26.0320   46.7980 N   0  0  0  0  0  0  0  0  0  0  0  0
   30.1520   25.4120   46.2790 C   0  0  0  0  0  0  0  0  0  0  0  0
   31.3150   25.9450   46.8220 C   0  0  0  0  0  0  0  0  0  0  0  0
   32.6640   25.6750   46.6420 C   0  0  0  0  0  0  0  0  0  0  0  0
   34.6110   26.2850   47.3020 H   0  0  0  0  0  0  0  0  0  0  0  0
   31.3340   28.4140   49.1000 H   0  0  0  0  0  0  0  0  0  0  0  0
   28.8440   27.5720   48.2020 H   0  0  0  0  0  0  0  0  0  0  0  0
   30.1830   24.6020   45.5340 H   0  0  0  0  0  0  0  0  0  0  0  0
   32.9920   24.9100   45.9500 H   0  0  0  0  0  0  0  0  0  0  0  0
   37.1490   29.5430   50.1460 C   0  0  0  0  0  0  0  0  0  0  0  0
   37.7930   28.9540   51.0550 O   0  0  0  0  0  0  0  0  0  0  0  0
   37.6960   30.6120   49.3430 C   0  0  0  0  0  0  0  0  0  0  0  0
   37.7770   31.8640   49.9270 C   0  0  0  0  0  0  0  0  0  0  0  0
   38.2980   32.9200   49.1880 C   0  0  0  0  0  0  0  0  0  0  0  0
   38.7020   32.6480   47.9150 N   0  0  0  0  0  0  0  0  0  0  0  0
   38.6150   31.4290   47.3690 C   0  0  0  0  0  0  0  0  0  0  0  0
   38.1120   30.4250   48.0920 N   0  0  0  0  0  0  0  0  0  0  0  0
   37.4770   32.1320   50.9160 H   0  0  0  0  0  0  0  0  0  0  0  0
   38.3850   33.9290   49.6000 H   0  0  0  0  0  0  0  0  0  0  0  0
   36.4800   30.5680   45.5460 Cl  0  0  0  0  0  0  0  0  0  0  0  0
   38.1570   30.7880   45.0400 C   0  0  0  0  0  0  0  0  0  0  0  0
   39.0640   31.1980   45.9990 C   0  0  0  0  0  0  0  0  0  0  0  0
   40.3850   31.3830   45.6530 C   0  0  0  0  0  0  0  0  0  0  0  0
   41.1290   31.7030   46.3700 H   0  0  0  0  0  0  0  0  0  0  0  0
   40.8000   31.1580   44.3370 C   0  0  0  0  0  0  0  0  0  0  0  0
   41.8340   31.2860   43.9910 H   0  0  0  0  0  0  0  0  0  0  0  0
   39.8560   30.7510   43.4200 C   0  0  0  0  0  0  0  0  0  0  0  0
   40.1660   30.5750   42.4010 H   0  0  0  0  0  0  0  0  0  0  0  0
   38.5390   30.5610   43.7460 C   0  0  0  0  0  0  0  0  0  0  0  0
   37.3140   30.0410   42.5900 Cl  0  0  0  0  0  0  0  0  0  0  0  0
  1 22  1  0  0  0  0
  1  2  2  0  0  0  0
  2  6  1  0  0  0  0
  3  7  1  0  0  0  0
  3  2  1  0  0  0  0
  4  3  2  0  0  0  0
  5  4  1  0  0  0  0
  5  1  1  0  0  0  0
  8  9  1  0  0  0  0
  9 10  2  0  0  0  0
  9  4  1  0  0  0  0
 10 18  1  0  0  0  0
 11 10  1  0  0  0  0
 12 11  1  0  0  0  0
 12 19  1  0  0  0  0
 13 12  1  0  0  0  0
 14 13  2  0  0  0  0
 14 15  1  0  0  0  0
 15 11  2  0  0  0  0
 16 15  1  0  0  0  0
 16  8  2  0  0  0  0
 17  8  1  0  0  0  0
 20 14  1  0  0  0  0
 21 16  1  0  0  0  0
 22 23  2  0  0  0  0
 24 25  1  0  0  0  0
 24 22  1  0  0  0  0
 25 30  1  0  0  0  0
 26 31  1  0  0  0  0
 26 25  2  0  0  0  0
 27 26  1  0  0  0  0
 28 27  2  0  0  0  0
 28 29  1  0  0  0  0
 29 24  2  0  0  0  0
 33 32  1  0  0  0  0
 33 34  1  0  0  0  0
 34 28  1  0  0  0  0
 35 34  2  0  0  0  0
 35 36  1  0  0  0  0
 37 35  1  0  0  0  0
 38 37  1  0  0  0  0
 39 41  1  0  0  0  0
 39 37  2  0  0  0  0
 40 39  1  0  0  0  0
 41 33  2  0  0  0  0
 42 41  1  0  0  0  0
M  END
>  <minimizedAffinity>
-7.42355108

>  <minimizedRMSD>
0.797881961

$$$$
