
 OpenBabel03272510273D

 47 51  0  0  1  0  0  0  0  0999 V2000
   39.4280   30.5990   41.5670 N   0  0  0  0  0  0  0  0  0  0  0  0
   39.7440   31.9760   41.7960 C   0  0  1  0  0  0  0  0  0  0  0  0
   38.5580   32.8100   41.5770 C   0  0  0  0  0  0  0  0  0  0  0  0
   38.1960   32.7280   40.2360 O   0  0  0  0  0  0  0  0  0  0  0  0
   37.9810   31.4580   39.7870 C   0  0  0  0  0  0  0  0  0  0  0  0
   39.0600   30.4760   40.1560 C   0  0  1  0  0  0  0  0  0  0  0  0
   38.6700   30.1660   42.0630 H   0  0  0  0  0  0  0  0  0  0  0  0
   40.5200   32.3030   41.0740 H   0  0  0  0  0  0  0  0  0  0  0  0
   37.6430   32.7020   42.0970 H   0  0  0  0  0  0  0  0  0  0  0  0
   38.8790   33.8870   41.7100 H   0  0  0  0  0  0  0  0  0  0  0  0
   37.8070   31.4880   38.7170 H   0  0  0  0  0  0  0  0  0  0  0  0
   37.0590   31.0900   40.3270 H   0  0  0  0  0  0  0  0  0  0  0  0
   38.6120   29.4630   40.0080 H   0  0  0  0  0  0  0  0  0  0  0  0
   38.8230   30.9480   37.0760 Cl  0  0  0  0  0  0  0  0  0  0  0  0
   40.3060   30.7710   37.9900 C   0  0  0  0  0  0  0  0  0  0  0  0
   40.2990   30.5960   39.3620 C   0  0  0  0  0  0  0  0  0  0  0  0
   41.5520   30.5150   39.9120 C   0  0  0  0  0  0  0  0  0  0  0  0
   41.7090   30.3820   40.9530 H   0  0  0  0  0  0  0  0  0  0  0  0
   42.7430   30.5930   39.2010 C   0  0  0  0  0  0  0  0  0  0  0  0
   43.7150   30.5280   39.6430 H   0  0  0  0  0  0  0  0  0  0  0  0
   42.6840   30.7680   37.8270 C   0  0  0  0  0  0  0  0  0  0  0  0
   43.5930   30.8320   37.2470 H   0  0  0  0  0  0  0  0  0  0  0  0
   41.4480   30.8560   37.2220 C   0  0  0  0  0  0  0  0  0  0  0  0
   41.4390   31.0760   35.4840 Cl  0  0  0  0  0  0  0  0  0  0  0  0
   40.1920   32.0740   43.1390 O   0  0  0  0  0  0  0  0  0  0  0  0
   36.0580   30.2530   46.9430 C   0  0  0  0  0  0  0  0  0  0  0  0
   37.0960   30.3980   47.8320 C   0  0  0  0  0  0  0  0  0  0  0  0
   38.3660   30.8270   47.4080 C   0  0  0  0  0  0  0  0  0  0  0  0
   38.5040   31.0920   46.0610 C   0  0  0  0  0  0  0  0  0  0  0  0
   39.6250   31.5250   45.4040 N   0  0  0  0  0  0  0  0  0  0  0  0
   39.2780   31.6460   44.1090 C   0  0  0  0  0  0  0  0  0  0  0  0
   38.0160   31.3130   43.9480 N   0  0  0  0  0  0  0  0  0  0  0  0
   37.4850   30.9590   45.1340 C   0  0  0  0  0  0  0  0  0  0  0  0
   36.2330   30.5280   45.5910 C   0  0  0  0  0  0  0  0  0  0  0  0
   35.0770   29.9230   47.2550 H   0  0  0  0  0  0  0  0  0  0  0  0
   39.1970   30.9480   48.0930 H   0  0  0  0  0  0  0  0  0  0  0  0
   40.5790   31.7250   45.8230 H   0  0  0  0  0  0  0  0  0  0  0  0
   35.4370   30.4230   44.8700 H   0  0  0  0  0  0  0  0  0  0  0  0
   37.3310   30.0440   51.5740 C   0  0  0  0  0  0  0  0  0  0  0  0
   37.7140   30.3820   50.2830 C   0  0  0  0  0  0  0  0  0  0  0  0
   36.8690   30.1110   49.2370 C   0  0  0  0  0  0  0  0  0  0  0  0
   35.6650   29.5060   49.5430 N   0  0  0  0  0  0  0  0  0  0  0  0
   35.2940   29.1780   50.7980 C   0  0  0  0  0  0  0  0  0  0  0  0
   36.1220   29.4470   51.7970 N   0  0  0  0  0  0  0  0  0  0  0  0
   38.0310   30.2770   52.3760 H   0  0  0  0  0  0  0  0  0  0  0  0
   38.6400   30.8480   50.0350 H   0  0  0  0  0  0  0  0  0  0  0  0
   34.3310   28.7060   50.9450 H   0  0  0  0  0  0  0  0  0  0  0  0
  1  2  1  0  0  0  0
  1  7  1  0  0  0  0
  2  8  1  6  0  0  0
  2 25  1  0  0  0  0
  3 10  1  0  0  0  0
  3  2  1  0  0  0  0
  3  9  1  0  0  0  0
  4  3  1  0  0  0  0
  5  6  1  0  0  0  0
  5  4  1  0  0  0  0
  5 12  1  0  0  0  0
  6 13  1  6  0  0  0
  6  1  1  0  0  0  0
 11  5  1  0  0  0  0
 14 15  1  0  0  0  0
 15 16  1  0  0  0  0
 16 17  2  0  0  0  0
 16  6  1  0  0  0  0
 17 18  1  0  0  0  0
 19 20  1  0  0  0  0
 19 17  1  0  0  0  0
 21 19  2  0  0  0  0
 22 21  1  0  0  0  0
 23 21  1  0  0  0  0
 23 15  2  0  0  0  0
 24 23  1  0  0  0  0
 25 31  1  0  0  0  0
 26 35  1  0  0  0  0
 26 27  1  0  0  0  0
 27 41  1  0  0  0  0
 28 27  2  0  0  0  0
 28 36  1  0  0  0  0
 29 28  1  0  0  0  0
 30 37  1  0  0  0  0
 30 29  1  0  0  0  0
 31 30  1  0  0  0  0
 32 31  2  0  0  0  0
 32 33  1  0  0  0  0
 33 34  1  0  0  0  0
 33 29  2  0  0  0  0
 34 26  2  0  0  0  0
 38 34  1  0  0  0  0
 39 44  1  0  0  0  0
 39 45  1  0  0  0  0
 40 39  2  0  0  0  0
 41 42  2  0  0  0  0
 41 40  1  0  0  0  0
 42 43  1  0  0  0  0
 43 47  1  0  0  0  0
 43 44  2  0  0  0  0
 46 40  1  0  0  0  0
M  END
>  <minimizedAffinity>
-5.69172716

>  <minimizedRMSD>
1.60969484

$$$$
