
 OpenBabel03272504573D

 35 37  0  0  1  0  0  0  0  0999 V2000
   36.2020   29.6060   49.6510 C   0  0  1  0  0  0  0  0  0  0  0  0
   34.8980   29.9150   50.1880 C   0  0  0  0  0  0  0  0  0  0  0  0
   35.0250   29.3100   48.8260 C   0  0  2  0  0  0  0  0  0  0  0  0
   36.7920   28.6760   49.9630 H   0  0  0  0  0  0  0  0  0  0  0  0
   34.8300   29.4640   51.1570 H   0  0  0  0  0  0  0  0  0  0  0  0
   34.6170   30.9890   50.2110 H   0  0  0  0  0  0  0  0  0  0  0  0
   34.4960   29.9100   48.1030 H   0  0  0  0  0  0  0  0  0  0  0  0
   37.1100   30.7010   49.1640 C   0  0  0  0  0  0  0  0  0  0  0  0
   37.0110   31.9280   49.8520 C   0  0  0  0  0  0  0  0  0  0  0  0
   37.8500   32.9150   49.3950 C   0  0  0  0  0  0  0  0  0  0  0  0
   38.6870   32.6790   48.3610 N   0  0  0  0  0  0  0  0  0  0  0  0
   38.7540   31.4780   47.7210 C   0  0  0  0  0  0  0  0  0  0  0  0
   37.9340   30.4630   48.1450 N   0  0  0  0  0  0  0  0  0  0  0  0
   39.6300   31.2000   46.6650 N   0  0  0  0  0  0  0  0  0  0  0  0
   36.3550   32.1260   50.6680 H   0  0  0  0  0  0  0  0  0  0  0  0
   37.8810   33.8980   49.8230 H   0  0  0  0  0  0  0  0  0  0  0  0
   40.5630   30.7710   46.8680 H   0  0  0  0  0  0  0  0  0  0  0  0
   39.4110   31.3960   45.6590 H   0  0  0  0  0  0  0  0  0  0  0  0
   34.6890   27.9530   48.7430 O   0  0  0  0  0  0  0  0  0  0  0  0
   32.8960   26.3580   47.8010 O   0  0  0  0  0  0  0  0  0  0  0  0
   33.4810   27.7230   47.6170 P   0  0  1  0  0  0  0  0  0  0  0  0
   32.1410   28.7610   48.0290 O   0  0  0  0  0  0  0  0  0  0  0  0
   31.6260   28.8770   47.1950 H   0  0  0  0  0  0  0  0  0  0  0  0
   34.0210   28.0890   46.1100 O   0  0  0  0  0  0  0  0  0  0  0  0
   35.9780   30.2440   45.2850 Cl  0  0  0  0  0  0  0  0  0  0  0  0
   34.4070   29.9900   44.6180 C   0  0  0  0  0  0  0  0  0  0  0  0
   33.6770   28.9430   45.1430 C   0  0  0  0  0  0  0  0  0  0  0  0
   32.3970   28.7340   44.6020 C   0  0  0  0  0  0  0  0  0  0  0  0
   31.7250   27.9480   44.9260 H   0  0  0  0  0  0  0  0  0  0  0  0
   31.9440   29.5780   43.5820 C   0  0  0  0  0  0  0  0  0  0  0  0
   30.9570   29.4260   43.1550 H   0  0  0  0  0  0  0  0  0  0  0  0
   32.7040   30.6010   43.0940 C   0  0  0  0  0  0  0  0  0  0  0  0
   32.3390   31.2320   42.3170 H   0  0  0  0  0  0  0  0  0  0  0  0
   33.9500   30.8180   43.6100 C   0  0  0  0  0  0  0  0  0  0  0  0
   34.9760   32.0920   43.0470 Cl  0  0  0  0  0  0  0  0  0  0  0  0
  1  4  1  1  0  0  0
  1  2  1  0  0  0  0
  2  6  1  0  0  0  0
  2  5  1  0  0  0  0
  3  7  1  6  0  0  0
  3  1  1  0  0  0  0
  3  2  1  0  0  0  0
  8  1  1  0  0  0  0
  8  9  1  0  0  0  0
  9 15  1  0  0  0  0
 10 16  1  0  0  0  0
 10  9  2  0  0  0  0
 11 10  1  0  0  0  0
 12 13  1  0  0  0  0
 12 11  2  0  0  0  0
 13  8  2  0  0  0  0
 14 17  1  0  0  0  0
 14 12  1  0  0  0  0
 18 14  1  0  0  0  0
 19  3  1  0  0  0  0
 21 20  2  1  0  0  0
 21 22  1  0  0  0  0
 21 19  1  0  0  0  0
 23 22  1  0  0  0  0
 24 21  1  0  0  0  0
 26 27  1  0  0  0  0
 26 25  1  0  0  0  0
 27 24  1  0  0  0  0
 28 29  1  0  0  0  0
 28 27  2  0  0  0  0
 30 28  1  0  0  0  0
 31 30  1  0  0  0  0
 32 30  2  0  0  0  0
 32 34  1  0  0  0  0
 33 32  1  0  0  0  0
 34 26  2  0  0  0  0
 35 34  1  0  0  0  0
M  END
>  <minimizedAffinity>
-5.21269894

>  <minimizedRMSD>
3.06164002

$$$$
