
 OpenBabel03272504583D

 35 37  0  0  1  0  0  0  0  0999 V2000
   36.6160   23.0500   31.2880 C   0  0  1  0  0  0  0  0  0  0  0  0
   35.6590   24.0820   30.9700 C   0  0  0  0  0  0  0  0  0  0  0  0
   36.5730   24.2420   32.1420 C   0  0  2  0  0  0  0  0  0  0  0  0
   37.6010   22.9250   30.7180 H   0  0  0  0  0  0  0  0  0  0  0  0
   35.7850   24.3350   29.9360 H   0  0  0  0  0  0  0  0  0  0  0  0
   34.5980   23.8630   31.2140 H   0  0  0  0  0  0  0  0  0  0  0  0
   36.0020   24.4590   33.0310 H   0  0  0  0  0  0  0  0  0  0  0  0
   36.1690   21.7560   31.9110 C   0  0  0  0  0  0  0  0  0  0  0  0
   35.9350   20.6940   31.0130 C   0  0  0  0  0  0  0  0  0  0  0  0
   35.5300   19.5200   31.6010 C   0  0  0  0  0  0  0  0  0  0  0  0
   35.3820   19.4410   32.9420 N   0  0  0  0  0  0  0  0  0  0  0  0
   35.6190   20.4900   33.7770 C   0  0  0  0  0  0  0  0  0  0  0  0
   36.0250   21.6820   33.2330 N   0  0  0  0  0  0  0  0  0  0  0  0
   35.4970   20.4260   35.1700 N   0  0  0  0  0  0  0  0  0  0  0  0
   36.0490   20.7450   29.9550 H   0  0  0  0  0  0  0  0  0  0  0  0
   35.3170   18.6320   31.0410 H   0  0  0  0  0  0  0  0  0  0  0  0
   36.3380   20.2010   35.7520 H   0  0  0  0  0  0  0  0  0  0  0  0
   34.6000   20.5930   35.6860 H   0  0  0  0  0  0  0  0  0  0  0  0
   37.6310   25.1390   31.9550 O   0  0  0  0  0  0  0  0  0  0  0  0
   39.8890   25.5640   33.1250 O   0  0  0  0  0  0  0  0  0  0  0  0
   38.4260   25.4070   33.3970 P   0  0  1  0  0  0  0  0  0  0  0  0
   37.9840   26.9880   33.9840 O   0  0  0  0  0  0  0  0  0  0  0  0
   38.1590   26.9720   34.9550 H   0  0  0  0  0  0  0  0  0  0  0  0
   38.0080   24.2690   34.5050 O   0  0  0  0  0  0  0  0  0  0  0  0
   40.3530   22.3700   34.7340 Cl  0  0  0  0  0  0  0  0  0  0  0  0
   39.4700   23.0560   36.0480 C   0  0  0  0  0  0  0  0  0  0  0  0
   38.4310   23.9010   35.7160 C   0  0  0  0  0  0  0  0  0  0  0  0
   37.7100   24.4610   36.7850 C   0  0  0  0  0  0  0  0  0  0  0  0
   36.8730   25.1390   36.6600 H   0  0  0  0  0  0  0  0  0  0  0  0
   38.0760   24.1370   38.0960 C   0  0  0  0  0  0  0  0  0  0  0  0
   37.5260   24.5640   38.9300 H   0  0  0  0  0  0  0  0  0  0  0  0
   39.1130   23.2950   38.3740 C   0  0  0  0  0  0  0  0  0  0  0  0
   39.3740   23.0620   39.3800 H   0  0  0  0  0  0  0  0  0  0  0  0
   39.8240   22.7420   37.3460 C   0  0  0  0  0  0  0  0  0  0  0  0
   41.1510   21.6660   37.6130 Cl  0  0  0  0  0  0  0  0  0  0  0  0
  1  4  1  6  0  0  0
  1  8  1  0  0  0  0
  1  3  1  0  0  0  0
  2  6  1  0  0  0  0
  2  1  1  0  0  0  0
  2  3  1  0  0  0  0
  3  7  1  1  0  0  0
  5  2  1  0  0  0  0
  8 13  1  0  0  0  0
  9 10  1  0  0  0  0
  9  8  2  0  0  0  0
 10 11  2  0  0  0  0
 11 12  1  0  0  0  0
 12 14  1  0  0  0  0
 13 12  2  0  0  0  0
 14 18  1  0  0  0  0
 14 17  1  0  0  0  0
 15  9  1  0  0  0  0
 16 10  1  0  0  0  0
 19  3  1  0  0  0  0
 19 21  1  0  0  0  0
 21 20  2  6  0  0  0
 21 22  1  0  0  0  0
 21 24  1  0  0  0  0
 22 23  1  0  0  0  0
 24 27  1  0  0  0  0
 25 26  1  0  0  0  0
 26 34  1  0  0  0  0
 27 26  2  0  0  0  0
 27 28  1  0  0  0  0
 28 30  2  0  0  0  0
 29 28  1  0  0  0  0
 30 32  1  0  0  0  0
 30 31  1  0  0  0  0
 32 33  1  0  0  0  0
 34 35  1  0  0  0  0
 34 32  2  0  0  0  0
M  END
>  <minimizedAffinity>
-5.89324617

$$$$

 OpenBabel03272504583D

 35 37  0  0  1  0  0  0  0  0999 V2000
   38.7890   23.3790   36.5080 C   0  0  1  0  0  0  0  0  0  0  0  0
   38.1520   23.8010   37.7330 C   0  0  0  0  0  0  0  0  0  0  0  0
   38.5860   24.8160   36.7230 C   0  0  2  0  0  0  0  0  0  0  0  0
   38.2010   22.9580   35.6210 H   0  0  0  0  0  0  0  0  0  0  0  0
   37.2400   23.2490   37.8320 H   0  0  0  0  0  0  0  0  0  0  0  0
   38.7710   23.7450   38.6530 H   0  0  0  0  0  0  0  0  0  0  0  0
   39.2120   25.5600   37.1910 H   0  0  0  0  0  0  0  0  0  0  0  0
   40.2110   22.8910   36.5120 C   0  0  0  0  0  0  0  0  0  0  0  0
   41.1070   23.6120   35.6960 C   0  0  0  0  0  0  0  0  0  0  0  0
   42.4020   23.1530   35.7150 C   0  0  0  0  0  0  0  0  0  0  0  0
   42.7400   22.0870   36.4740 N   0  0  0  0  0  0  0  0  0  0  0  0
   41.8450   21.4160   37.2510 C   0  0  0  0  0  0  0  0  0  0  0  0
   40.5410   21.8400   37.2620 N   0  0  0  0  0  0  0  0  0  0  0  0
   42.1750   20.3260   38.0640 N   0  0  0  0  0  0  0  0  0  0  0  0
   40.8520   24.4530   35.0940 H   0  0  0  0  0  0  0  0  0  0  0  0
   43.1890   23.6040   35.1440 H   0  0  0  0  0  0  0  0  0  0  0  0
   42.4230   20.4880   39.0680 H   0  0  0  0  0  0  0  0  0  0  0  0
   42.1910   19.3320   37.7310 H   0  0  0  0  0  0  0  0  0  0  0  0
   37.5520   25.3850   35.9690 O   0  0  0  0  0  0  0  0  0  0  0  0
   37.4910   27.8740   35.3000 O   0  0  0  0  0  0  0  0  0  0  0  0
   38.1540   26.5750   34.9670 P   0  0  1  0  0  0  0  0  0  0  0  0
   39.8130   26.8790   35.4090 O   0  0  0  0  0  0  0  0  0  0  0  0
   40.2310   27.2880   34.6140 H   0  0  0  0  0  0  0  0  0  0  0  0
   38.0770   26.0980   33.3970 O   0  0  0  0  0  0  0  0  0  0  0  0
   37.8570   23.0990   33.0690 Cl  0  0  0  0  0  0  0  0  0  0  0  0
   36.8680   24.2800   32.2930 C   0  0  0  0  0  0  0  0  0  0  0  0
   37.1420   25.6000   32.5860 C   0  0  0  0  0  0  0  0  0  0  0  0
   36.3370   26.5640   31.9550 C   0  0  0  0  0  0  0  0  0  0  0  0
   36.4500   27.6330   32.0990 H   0  0  0  0  0  0  0  0  0  0  0  0
   35.3270   26.1430   31.0840 C   0  0  0  0  0  0  0  0  0  0  0  0
   34.6990   26.8790   30.5900 H   0  0  0  0  0  0  0  0  0  0  0  0
   35.0940   24.8240   30.8250 C   0  0  0  0  0  0  0  0  0  0  0  0
   34.3190   24.5250   30.1580 H   0  0  0  0  0  0  0  0  0  0  0  0
   35.8680   23.8730   31.4310 C   0  0  0  0  0  0  0  0  0  0  0  0
   35.6370   22.1810   31.1570 Cl  0  0  0  0  0  0  0  0  0  0  0  0
  1  4  1  6  0  0  0
  1  8  1  0  0  0  0
  1  3  1  0  0  0  0
  1  2  1  0  0  0  0
  2  5  1  0  0  0  0
  2  6  1  0  0  0  0
  3  7  1  1  0  0  0
  3  2  1  0  0  0  0
  8 13  1  0  0  0  0
  9 10  1  0  0  0  0
  9  8  2  0  0  0  0
 10 11  2  0  0  0  0
 11 12  1  0  0  0  0
 12 13  2  0  0  0  0
 12 14  1  0  0  0  0
 14 17  1  0  0  0  0
 15  9  1  0  0  0  0
 16 10  1  0  0  0  0
 18 14  1  0  0  0  0
 19  3  1  0  0  0  0
 21 20  2  1  0  0  0
 21 22  1  0  0  0  0
 21 19  1  0  0  0  0
 23 22  1  0  0  0  0
 24 21  1  0  0  0  0
 26 27  1  0  0  0  0
 26 25  1  0  0  0  0
 27 24  1  0  0  0  0
 28 29  1  0  0  0  0
 28 27  2  0  0  0  0
 30 28  1  0  0  0  0
 31 30  1  0  0  0  0
 32 30  2  0  0  0  0
 32 34  1  0  0  0  0
 33 32  1  0  0  0  0
 34 26  2  0  0  0  0
 35 34  1  0  0  0  0
M  END
>  <minimizedAffinity>
-5.81397343

$$$$

 OpenBabel03272504583D

 35 37  0  0  1  0  0  0  0  0999 V2000
   38.7190   26.6130   35.4040 C   0  0  1  0  0  0  0  0  0  0  0  0
   37.3800   26.1940   35.0670 C   0  0  0  0  0  0  0  0  0  0  0  0
   38.3540   25.2100   35.6310 C   0  0  2  0  0  0  0  0  0  0  0  0
   38.9620   27.1880   36.3640 H   0  0  0  0  0  0  0  0  0  0  0  0
   36.6990   26.8680   35.5460 H   0  0  0  0  0  0  0  0  0  0  0  0
   37.1570   26.0820   33.9850 H   0  0  0  0  0  0  0  0  0  0  0  0
   38.4210   24.3450   34.9900 H   0  0  0  0  0  0  0  0  0  0  0  0
   39.7330   26.8800   34.3260 C   0  0  0  0  0  0  0  0  0  0  0  0
   39.2200   26.9850   33.0170 C   0  0  0  0  0  0  0  0  0  0  0  0
   40.1610   27.2320   32.0470 C   0  0  0  0  0  0  0  0  0  0  0  0
   41.4670   27.3560   32.3730 N   0  0  0  0  0  0  0  0  0  0  0  0
   41.9240   27.2480   33.6520 C   0  0  0  0  0  0  0  0  0  0  0  0
   41.0190   27.0020   34.6530 N   0  0  0  0  0  0  0  0  0  0  0  0
   43.2670   27.3970   34.0190 N   0  0  0  0  0  0  0  0  0  0  0  0
   38.1940   26.8900   32.7480 H   0  0  0  0  0  0  0  0  0  0  0  0
   39.9140   27.3350   31.0090 H   0  0  0  0  0  0  0  0  0  0  0  0
   43.6170   28.3350   34.3230 H   0  0  0  0  0  0  0  0  0  0  0  0
   43.9640   26.6140   34.0110 H   0  0  0  0  0  0  0  0  0  0  0  0
   38.1430   24.8650   36.9720 O   0  0  0  0  0  0  0  0  0  0  0  0
   39.7560   23.1650   38.0450 O   0  0  0  0  0  0  0  0  0  0  0  0
   38.5110   23.2570   37.2210 P   0  0  1  0  0  0  0  0  0  0  0  0
   37.3090   22.5780   38.2860 O   0  0  0  0  0  0  0  0  0  0  0  0
   37.3320   21.6040   38.1290 H   0  0  0  0  0  0  0  0  0  0  0  0
   38.5150   22.4400   35.7970 O   0  0  0  0  0  0  0  0  0  0  0  0
   38.7140   23.0690   32.8450 Cl  0  0  0  0  0  0  0  0  0  0  0  0
   37.4940   22.1100   33.5970 C   0  0  0  0  0  0  0  0  0  0  0  0
   37.5940   21.9500   34.9650 C   0  0  0  0  0  0  0  0  0  0  0  0
   36.6010   21.1690   35.5800 C   0  0  0  0  0  0  0  0  0  0  0  0
   36.5650   20.9680   36.6450 H   0  0  0  0  0  0  0  0  0  0  0  0
   35.5890   20.6100   34.7930 C   0  0  0  0  0  0  0  0  0  0  0  0
   34.8160   20.0050   35.2580 H   0  0  0  0  0  0  0  0  0  0  0  0
   35.5330   20.7970   33.4420 C   0  0  0  0  0  0  0  0  0  0  0  0
   34.7530   20.3620   32.8610 H   0  0  0  0  0  0  0  0  0  0  0  0
   36.4910   21.5540   32.8280 C   0  0  0  0  0  0  0  0  0  0  0  0
   36.4920   21.8380   31.1220 Cl  0  0  0  0  0  0  0  0  0  0  0  0
  1  3  1  0  0  0  0
  1  4  1  1  0  0  0
  2  1  1  0  0  0  0
  2  5  1  0  0  0  0
  2  3  1  0  0  0  0
  3  7  1  6  0  0  0
  3 19  1  0  0  0  0
  6  2  1  0  0  0  0
  8 13  1  0  0  0  0
  8  1  1  0  0  0  0
  9  8  2  0  0  0  0
 10 11  2  0  0  0  0
 10  9  1  0  0  0  0
 11 12  1  0  0  0  0
 12 14  1  0  0  0  0
 12 13  2  0  0  0  0
 14 17  1  0  0  0  0
 15  9  1  0  0  0  0
 16 10  1  0  0  0  0
 18 14  1  0  0  0  0
 19 21  1  0  0  0  0
 21 20  2  1  0  0  0
 21 22  1  0  0  0  0
 23 22  1  0  0  0  0
 24 21  1  0  0  0  0
 25 26  1  0  0  0  0
 26 27  1  0  0  0  0
 27 28  2  0  0  0  0
 27 24  1  0  0  0  0
 28 29  1  0  0  0  0
 30 31  1  0  0  0  0
 30 28  1  0  0  0  0
 32 30  2  0  0  0  0
 33 32  1  0  0  0  0
 34 32  1  0  0  0  0
 34 26  2  0  0  0  0
 35 34  1  0  0  0  0
M  END
>  <minimizedAffinity>
-5.77034712

$$$$

 OpenBabel03272504583D

 35 37  0  0  1  0  0  0  0  0999 V2000
   37.6260   25.6810   35.1310 C   0  0  1  0  0  0  0  0  0  0  0  0
   38.2590   26.9340   34.7980 C   0  0  0  0  0  0  0  0  0  0  0  0
   37.8680   25.9790   33.7150 C   0  0  2  0  0  0  0  0  0  0  0  0
   36.5170   25.6030   35.4040 H   0  0  0  0  0  0  0  0  0  0  0  0
   37.7090   27.7150   35.2830 H   0  0  0  0  0  0  0  0  0  0  0  0
   39.3470   27.0070   35.0040 H   0  0  0  0  0  0  0  0  0  0  0  0
   38.7150   25.7720   33.0800 H   0  0  0  0  0  0  0  0  0  0  0  0
   38.4240   24.5550   35.7290 C   0  0  0  0  0  0  0  0  0  0  0  0
   39.3330   23.9200   34.8580 C   0  0  0  0  0  0  0  0  0  0  0  0
   40.0540   22.8960   35.4220 C   0  0  0  0  0  0  0  0  0  0  0  0
   39.8700   22.5610   36.7180 N   0  0  0  0  0  0  0  0  0  0  0  0
   38.9810   23.1990   37.5300 C   0  0  0  0  0  0  0  0  0  0  0  0
   38.2390   24.2280   37.0070 N   0  0  0  0  0  0  0  0  0  0  0  0
   38.7890   22.8880   38.8810 N   0  0  0  0  0  0  0  0  0  0  0  0
   39.4870   24.1750   33.8350 H   0  0  0  0  0  0  0  0  0  0  0  0
   40.7800   22.3250   34.8780 H   0  0  0  0  0  0  0  0  0  0  0  0
   39.3270   23.4100   39.6120 H   0  0  0  0  0  0  0  0  0  0  0  0
   38.1280   22.1500   39.2220 H   0  0  0  0  0  0  0  0  0  0  0  0
   36.7290   26.3400   32.9860 O   0  0  0  0  0  0  0  0  0  0  0  0
   35.0730   25.4560   31.2180 O   0  0  0  0  0  0  0  0  0  0  0  0
   36.4470   25.2350   31.7680 P   0  0  1  0  0  0  0  0  0  0  0  0
   37.4610   25.6450   30.4090 O   0  0  0  0  0  0  0  0  0  0  0  0
   37.5480   24.8160   29.8810 H   0  0  0  0  0  0  0  0  0  0  0  0
   36.7930   23.7140   32.2790 O   0  0  0  0  0  0  0  0  0  0  0  0
   38.7840   22.4170   30.4060 Cl  0  0  0  0  0  0  0  0  0  0  0  0
   37.3280   21.7010   30.9920 C   0  0  0  0  0  0  0  0  0  0  0  0
   36.5620   22.4740   31.8420 C   0  0  0  0  0  0  0  0  0  0  0  0
   35.3750   21.8940   32.3210 C   0  0  0  0  0  0  0  0  0  0  0  0
   34.6870   22.3940   32.9930 H   0  0  0  0  0  0  0  0  0  0  0  0
   35.0430   20.5960   31.9210 C   0  0  0  0  0  0  0  0  0  0  0  0
   34.1270   20.1370   32.2850 H   0  0  0  0  0  0  0  0  0  0  0  0
   35.8330   19.8700   31.0780 C   0  0  0  0  0  0  0  0  0  0  0  0
   35.5600   18.8820   30.7850 H   0  0  0  0  0  0  0  0  0  0  0  0
   36.9900   20.4200   30.6020 C   0  0  0  0  0  0  0  0  0  0  0  0
   38.0480   19.5670   29.5310 Cl  0  0  0  0  0  0  0  0  0  0  0  0
  1  4  1  1  0  0  0
  1  8  1  0  0  0  0
  2  6  1  0  0  0  0
  2  1  1  0  0  0  0
  2  5  1  0  0  0  0
  3  7  1  6  0  0  0
  3  2  1  0  0  0  0
  3  1  1  0  0  0  0
  8 13  1  0  0  0  0
  9 10  1  0  0  0  0
  9  8  2  0  0  0  0
 10 11  2  0  0  0  0
 11 12  1  0  0  0  0
 12 14  1  0  0  0  0
 13 12  2  0  0  0  0
 14 18  1  0  0  0  0
 14 17  1  0  0  0  0
 15  9  1  0  0  0  0
 16 10  1  0  0  0  0
 19  3  1  0  0  0  0
 21 20  2  6  0  0  0
 21 24  1  0  0  0  0
 21 19  1  0  0  0  0
 22 21  1  0  0  0  0
 23 22  1  0  0  0  0
 25 26  1  0  0  0  0
 26 27  1  0  0  0  0
 27 24  1  0  0  0  0
 27 28  2  0  0  0  0
 28 29  1  0  0  0  0
 30 31  1  0  0  0  0
 30 28  1  0  0  0  0
 32 30  2  0  0  0  0
 33 32  1  0  0  0  0
 34 26  2  0  0  0  0
 34 32  1  0  0  0  0
 35 34  1  0  0  0  0
M  END
>  <minimizedAffinity>
-5.73396873

$$$$

 OpenBabel03272504583D

 35 37  0  0  1  0  0  0  0  0999 V2000
   37.3600   25.6120   31.8690 C   0  0  1  0  0  0  0  0  0  0  0  0
   36.2570   26.5420   31.8190 C   0  0  0  0  0  0  0  0  0  0  0  0
   37.0030   26.3310   33.0980 C   0  0  2  0  0  0  0  0  0  0  0  0
   38.4020   25.8700   31.4710 H   0  0  0  0  0  0  0  0  0  0  0  0
   36.4330   27.2110   31.0010 H   0  0  0  0  0  0  0  0  0  0  0  0
   35.2410   26.0970   31.7780 H   0  0  0  0  0  0  0  0  0  0  0  0
   36.3160   26.0830   33.8920 H   0  0  0  0  0  0  0  0  0  0  0  0
   37.1140   24.1290   31.8590 C   0  0  0  0  0  0  0  0  0  0  0  0
   35.8660   23.7200   31.3450 C   0  0  0  0  0  0  0  0  0  0  0  0
   35.6600   22.3620   31.3410 C   0  0  0  0  0  0  0  0  0  0  0  0
   36.6120   21.5230   31.8060 N   0  0  0  0  0  0  0  0  0  0  0  0
   37.8080   21.9570   32.2950 C   0  0  0  0  0  0  0  0  0  0  0  0
   38.0550   23.3060   32.3180 N   0  0  0  0  0  0  0  0  0  0  0  0
   38.8200   21.1080   32.7580 N   0  0  0  0  0  0  0  0  0  0  0  0
   35.1080   24.3720   30.9760 H   0  0  0  0  0  0  0  0  0  0  0  0
   34.7580   21.9100   30.9800 H   0  0  0  0  0  0  0  0  0  0  0  0
   39.5750   20.8000   32.1020 H   0  0  0  0  0  0  0  0  0  0  0  0
   38.8760   20.7500   33.7420 H   0  0  0  0  0  0  0  0  0  0  0  0
   37.8800   27.3630   33.4540 O   0  0  0  0  0  0  0  0  0  0  0  0
   40.3170   27.1710   34.2720 O   0  0  0  0  0  0  0  0  0  0  0  0
   38.9080   26.8570   34.6660 P   0  0  1  0  0  0  0  0  0  0  0  0
   38.6710   27.8880   36.0530 O   0  0  0  0  0  0  0  0  0  0  0  0
   38.9960   27.3710   36.8290 H   0  0  0  0  0  0  0  0  0  0  0  0
   38.5940   25.2980   35.0750 O   0  0  0  0  0  0  0  0  0  0  0  0
   40.8730   23.3110   34.9640 Cl  0  0  0  0  0  0  0  0  0  0  0  0
   39.7990   23.5490   36.2920 C   0  0  0  0  0  0  0  0  0  0  0  0
   38.8240   24.5130   36.1290 C   0  0  0  0  0  0  0  0  0  0  0  0
   37.9470   24.7090   37.2100 C   0  0  0  0  0  0  0  0  0  0  0  0
   37.1410   25.4340   37.2100 H   0  0  0  0  0  0  0  0  0  0  0  0
   38.1060   23.9340   38.3640 C   0  0  0  0  0  0  0  0  0  0  0  0
   37.4330   24.0770   39.2050 H   0  0  0  0  0  0  0  0  0  0  0  0
   39.0860   22.9920   38.4770 C   0  0  0  0  0  0  0  0  0  0  0  0
   39.1880   22.4120   39.3650 H   0  0  0  0  0  0  0  0  0  0  0  0
   39.9470   22.7880   37.4350 C   0  0  0  0  0  0  0  0  0  0  0  0
   41.2150   21.6150   37.4990 Cl  0  0  0  0  0  0  0  0  0  0  0  0
  1  4  1  6  0  0  0
  1  3  1  0  0  0  0
  2  1  1  0  0  0  0
  2  3  1  0  0  0  0
  3 19  1  0  0  0  0
  3  7  1  1  0  0  0
  5  2  1  0  0  0  0
  6  2  1  0  0  0  0
  8  1  1  0  0  0  0
  8 13  1  0  0  0  0
  9  8  2  0  0  0  0
 10  9  1  0  0  0  0
 10 11  2  0  0  0  0
 11 12  1  0  0  0  0
 12 13  2  0  0  0  0
 12 14  1  0  0  0  0
 14 18  1  0  0  0  0
 15  9  1  0  0  0  0
 16 10  1  0  0  0  0
 17 14  1  0  0  0  0
 19 21  1  0  0  0  0
 21 20  2  6  0  0  0
 21 24  1  0  0  0  0
 21 22  1  0  0  0  0
 22 23  1  0  0  0  0
 24 27  1  0  0  0  0
 25 26  1  0  0  0  0
 26 34  1  0  0  0  0
 27 26  2  0  0  0  0
 27 28  1  0  0  0  0
 28 29  1  0  0  0  0
 28 30  2  0  0  0  0
 30 32  1  0  0  0  0
 30 31  1  0  0  0  0
 32 33  1  0  0  0  0
 34 35  1  0  0  0  0
 34 32  2  0  0  0  0
M  END
>  <minimizedAffinity>
-5.70567989

$$$$

 OpenBabel03272504583D

 35 37  0  0  1  0  0  0  0  0999 V2000
   38.5580   26.6380   34.5260 C   0  0  1  0  0  0  0  0  0  0  0  0
   38.5340   27.0650   35.9050 C   0  0  0  0  0  0  0  0  0  0  0  0
   38.2520   25.6380   35.5560 C   0  0  2  0  0  0  0  0  0  0  0  0
   39.5330   26.4350   33.9610 H   0  0  0  0  0  0  0  0  0  0  0  0
   39.4550   27.5740   36.1040 H   0  0  0  0  0  0  0  0  0  0  0  0
   37.6540   27.6650   36.2190 H   0  0  0  0  0  0  0  0  0  0  0  0
   37.3140   25.3290   35.9890 H   0  0  0  0  0  0  0  0  0  0  0  0
   37.4410   27.0070   33.5900 C   0  0  0  0  0  0  0  0  0  0  0  0
   36.7430   28.1910   33.9070 C   0  0  0  0  0  0  0  0  0  0  0  0
   35.7280   28.5120   33.0390 C   0  0  0  0  0  0  0  0  0  0  0  0
   35.4580   27.7220   31.9770 N   0  0  0  0  0  0  0  0  0  0  0  0
   36.1550   26.5840   31.7040 C   0  0  0  0  0  0  0  0  0  0  0  0
   37.1780   26.2240   32.5440 N   0  0  0  0  0  0  0  0  0  0  0  0
   35.9110   25.7620   30.5970 N   0  0  0  0  0  0  0  0  0  0  0  0
   36.9480   28.8220   34.7410 H   0  0  0  0  0  0  0  0  0  0  0  0
   35.1150   29.3840   33.1570 H   0  0  0  0  0  0  0  0  0  0  0  0
   36.4520   25.9120   29.7140 H   0  0  0  0  0  0  0  0  0  0  0  0
   35.2070   24.9860   30.5910 H   0  0  0  0  0  0  0  0  0  0  0  0
   39.2900   24.7400   35.8330 O   0  0  0  0  0  0  0  0  0  0  0  0
   39.4860   22.8910   37.6190 O   0  0  0  0  0  0  0  0  0  0  0  0
   38.6750   23.3110   36.4340 P   0  0  1  0  0  0  0  0  0  0  0  0
   37.1170   23.6390   37.1460 O   0  0  0  0  0  0  0  0  0  0  0  0
   36.6400   22.7750   37.1570 H   0  0  0  0  0  0  0  0  0  0  0  0
   38.5120   22.2040   35.2320 O   0  0  0  0  0  0  0  0  0  0  0  0
   35.8780   20.7330   35.0100 Cl  0  0  0  0  0  0  0  0  0  0  0  0
   36.7000   21.5390   33.7260 C   0  0  0  0  0  0  0  0  0  0  0  0
   37.8950   22.1490   34.0490 C   0  0  0  0  0  0  0  0  0  0  0  0
   38.5680   22.8070   33.0050 C   0  0  0  0  0  0  0  0  0  0  0  0
   39.5130   23.3240   33.1260 H   0  0  0  0  0  0  0  0  0  0  0  0
   38.0030   22.8060   31.7250 C   0  0  0  0  0  0  0  0  0  0  0  0
   38.5140   23.3110   30.9100 H   0  0  0  0  0  0  0  0  0  0  0  0
   36.8170   22.1880   31.4550 C   0  0  0  0  0  0  0  0  0  0  0  0
   36.4050   22.2000   30.4720 H   0  0  0  0  0  0  0  0  0  0  0  0
   36.1500   21.5440   32.4590 C   0  0  0  0  0  0  0  0  0  0  0  0
   34.6430   20.7370   32.2000 Cl  0  0  0  0  0  0  0  0  0  0  0  0
  1  4  1  6  0  0  0
  1  3  1  0  0  0  0
  1  2  1  0  0  0  0
  2  5  1  0  0  0  0
  2  6  1  0  0  0  0
  3 19  1  0  0  0  0
  3  2  1  0  0  0  0
  3  7  1  1  0  0  0
  8  9  1  0  0  0  0
  8  1  1  0  0  0  0
  9 15  1  0  0  0  0
 10 16  1  0  0  0  0
 10  9  2  0  0  0  0
 11 10  1  0  0  0  0
 12 11  2  0  0  0  0
 12 13  1  0  0  0  0
 13  8  2  0  0  0  0
 14 12  1  0  0  0  0
 17 14  1  0  0  0  0
 18 14  1  0  0  0  0
 19 21  1  0  0  0  0
 21 22  1  0  0  0  0
 21 20  2  1  0  0  0
 22 23  1  0  0  0  0
 24 21  1  0  0  0  0
 26 27  1  0  0  0  0
 26 25  1  0  0  0  0
 27 24  1  0  0  0  0
 28 29  1  0  0  0  0
 28 27  2  0  0  0  0
 30 28  1  0  0  0  0
 31 30  1  0  0  0  0
 32 30  2  0  0  0  0
 32 34  1  0  0  0  0
 33 32  1  0  0  0  0
 34 26  2  0  0  0  0
 35 34  1  0  0  0  0
M  END
>  <minimizedAffinity>
-5.59490776

$$$$

 OpenBabel03272504583D

 35 37  0  0  1  0  0  0  0  0999 V2000
   38.6850   23.2560   36.5830 C   0  0  1  0  0  0  0  0  0  0  0  0
   38.0930   23.6500   37.8390 C   0  0  0  0  0  0  0  0  0  0  0  0
   38.4710   24.6870   36.8290 C   0  0  2  0  0  0  0  0  0  0  0  0
   38.0670   22.8390   35.7140 H   0  0  0  0  0  0  0  0  0  0  0  0
   37.1940   23.0830   37.9670 H   0  0  0  0  0  0  0  0  0  0  0  0
   38.7490   23.5900   38.7320 H   0  0  0  0  0  0  0  0  0  0  0  0
   39.1050   25.4330   37.2820 H   0  0  0  0  0  0  0  0  0  0  0  0
   40.1130   22.7890   36.5220 C   0  0  0  0  0  0  0  0  0  0  0  0
   40.9440   23.4810   35.6170 C   0  0  0  0  0  0  0  0  0  0  0  0
   42.2450   23.0410   35.5770 C   0  0  0  0  0  0  0  0  0  0  0  0
   42.6480   22.0200   36.3640 N   0  0  0  0  0  0  0  0  0  0  0  0
   41.8150   21.3760   37.2280 C   0  0  0  0  0  0  0  0  0  0  0  0
   40.5060   21.7820   37.3000 N   0  0  0  0  0  0  0  0  0  0  0  0
   42.2130   20.3330   38.0720 N   0  0  0  0  0  0  0  0  0  0  0  0
   40.6380   24.2870   34.9910 H   0  0  0  0  0  0  0  0  0  0  0  0
   42.9870   23.4740   34.9350 H   0  0  0  0  0  0  0  0  0  0  0  0
   42.5210   20.5490   39.0490 H   0  0  0  0  0  0  0  0  0  0  0  0
   42.2260   19.3240   37.7870 H   0  0  0  0  0  0  0  0  0  0  0  0
   37.3990   25.2520   36.1260 O   0  0  0  0  0  0  0  0  0  0  0  0
   36.7210   27.3650   34.8150 O   0  0  0  0  0  0  0  0  0  0  0  0
   37.9140   26.5740   35.2490 P   0  0  1  0  0  0  0  0  0  0  0  0
   38.7170   27.6760   36.3360 O   0  0  0  0  0  0  0  0  0  0  0  0
   39.3020   28.2330   35.7690 H   0  0  0  0  0  0  0  0  0  0  0  0
   38.9520   26.1100   34.0650 O   0  0  0  0  0  0  0  0  0  0  0  0
   38.5950   26.9880   31.1910 Cl  0  0  0  0  0  0  0  0  0  0  0  0
   40.0420   27.1230   32.1210 C   0  0  0  0  0  0  0  0  0  0  0  0
   39.9840   26.6570   33.4190 C   0  0  0  0  0  0  0  0  0  0  0  0
   41.1620   26.7660   34.1780 C   0  0  0  0  0  0  0  0  0  0  0  0
   41.2490   26.4380   35.2080 H   0  0  0  0  0  0  0  0  0  0  0  0
   42.3010   27.3260   33.5910 C   0  0  0  0  0  0  0  0  0  0  0  0
   43.2170   27.4150   34.1680 H   0  0  0  0  0  0  0  0  0  0  0  0
   42.3090   27.7730   32.3010 C   0  0  0  0  0  0  0  0  0  0  0  0
   43.1880   28.1970   31.8740 H   0  0  0  0  0  0  0  0  0  0  0  0
   41.1720   27.6740   31.5490 C   0  0  0  0  0  0  0  0  0  0  0  0
   41.0980   28.2180   29.9090 Cl  0  0  0  0  0  0  0  0  0  0  0  0
  1  4  1  6  0  0  0
  1  3  1  0  0  0  0
  1  2  1  0  0  0  0
  2  5  1  0  0  0  0
  2  6  1  0  0  0  0
  3  7  1  1  0  0  0
  3  2  1  0  0  0  0
  8  1  1  0  0  0  0
  8 13  1  0  0  0  0
  9  8  2  0  0  0  0
 10  9  1  0  0  0  0
 10 11  2  0  0  0  0
 11 12  1  0  0  0  0
 12 13  2  0  0  0  0
 12 14  1  0  0  0  0
 14 17  1  0  0  0  0
 15  9  1  0  0  0  0
 16 10  1  0  0  0  0
 18 14  1  0  0  0  0
 19  3  1  0  0  0  0
 21 20  2  6  0  0  0
 21 19  1  0  0  0  0
 21 22  1  0  0  0  0
 23 22  1  0  0  0  0
 24 21  1  0  0  0  0
 25 26  1  0  0  0  0
 26 27  1  0  0  0  0
 27 24  1  0  0  0  0
 27 28  2  0  0  0  0
 28 29  1  0  0  0  0
 30 31  1  0  0  0  0
 30 28  1  0  0  0  0
 32 30  2  0  0  0  0
 33 32  1  0  0  0  0
 34 26  2  0  0  0  0
 34 32  1  0  0  0  0
 35 34  1  0  0  0  0
M  END
>  <minimizedAffinity>
-5.57477903

$$$$

 OpenBabel03272504583D

 35 37  0  0  1  0  0  0  0  0999 V2000
   37.5910   25.9790   35.2860 C   0  0  1  0  0  0  0  0  0  0  0  0
   38.4090   27.1520   35.4820 C   0  0  0  0  0  0  0  0  0  0  0  0
   38.1110   26.6660   34.0990 C   0  0  2  0  0  0  0  0  0  0  0  0
   36.4500   26.0020   35.3700 H   0  0  0  0  0  0  0  0  0  0  0  0
   37.8730   27.8190   36.1270 H   0  0  0  0  0  0  0  0  0  0  0  0
   39.4450   26.9760   35.8400 H   0  0  0  0  0  0  0  0  0  0  0  0
   39.0290   26.5350   33.5470 H   0  0  0  0  0  0  0  0  0  0  0  0
   38.1400   24.6070   35.5660 C   0  0  0  0  0  0  0  0  0  0  0  0
   38.2360   23.7490   34.4520 C   0  0  0  0  0  0  0  0  0  0  0  0
   38.7420   22.5010   34.7270 C   0  0  0  0  0  0  0  0  0  0  0  0
   39.1040   22.1710   35.9860 N   0  0  0  0  0  0  0  0  0  0  0  0
   38.9970   23.0290   37.0380 C   0  0  0  0  0  0  0  0  0  0  0  0
   38.4960   24.2860   36.8090 N   0  0  0  0  0  0  0  0  0  0  0  0
   39.3880   22.7200   38.3460 N   0  0  0  0  0  0  0  0  0  0  0  0
   37.9540   23.9980   33.4550 H   0  0  0  0  0  0  0  0  0  0  0  0
   38.8700   21.7460   33.9770 H   0  0  0  0  0  0  0  0  0  0  0  0
   40.3530   22.9690   38.6680 H   0  0  0  0  0  0  0  0  0  0  0  0
   38.7680   22.2450   39.0440 H   0  0  0  0  0  0  0  0  0  0  0  0
   37.1660   27.4210   33.3930 O   0  0  0  0  0  0  0  0  0  0  0  0
   37.3070   28.9640   31.3320 O   0  0  0  0  0  0  0  0  0  0  0  0
   37.6260   27.5780   31.7970 P   0  0  1  0  0  0  0  0  0  0  0  0
   39.3680   27.5510   31.7210 O   0  0  0  0  0  0  0  0  0  0  0  0
   39.5920   27.2850   30.7970 H   0  0  0  0  0  0  0  0  0  0  0  0
   37.0130   26.3480   30.8980 O   0  0  0  0  0  0  0  0  0  0  0  0
   39.3390   24.6860   29.9060 Cl  0  0  0  0  0  0  0  0  0  0  0  0
   37.8880   24.0800   30.6140 C   0  0  0  0  0  0  0  0  0  0  0  0
   36.9520   25.0180   30.9980 C   0  0  0  0  0  0  0  0  0  0  0  0
   35.7690   24.5270   31.5750 C   0  0  0  0  0  0  0  0  0  0  0  0
   34.9560   25.1580   31.9180 H   0  0  0  0  0  0  0  0  0  0  0  0
   35.6080   23.1450   31.7250 C   0  0  0  0  0  0  0  0  0  0  0  0
   34.6970   22.7540   32.1690 H   0  0  0  0  0  0  0  0  0  0  0  0
   36.5630   22.2550   31.3290 C   0  0  0  0  0  0  0  0  0  0  0  0
   36.4190   21.2070   31.4520 H   0  0  0  0  0  0  0  0  0  0  0  0
   37.7190   22.7170   30.7650 C   0  0  0  0  0  0  0  0  0  0  0  0
   38.9790   21.6560   30.2370 Cl  0  0  0  0  0  0  0  0  0  0  0  0
  1  4  1  1  0  0  0
  1  2  1  0  0  0  0
  1  8  1  0  0  0  0
  2  6  1  0  0  0  0
  2  5  1  0  0  0  0
  3  7  1  6  0  0  0
  3  1  1  0  0  0  0
  3  2  1  0  0  0  0
  8 13  1  0  0  0  0
  9 10  1  0  0  0  0
  9  8  2  0  0  0  0
 10 11  2  0  0  0  0
 11 12  1  0  0  0  0
 12 14  1  0  0  0  0
 13 12  2  0  0  0  0
 14 17  1  0  0  0  0
 14 18  1  0  0  0  0
 15  9  1  0  0  0  0
 16 10  1  0  0  0  0
 19  3  1  0  0  0  0
 21 20  2  6  0  0  0
 21 19  1  0  0  0  0
 22 21  1  0  0  0  0
 23 22  1  0  0  0  0
 24 27  1  0  0  0  0
 24 21  1  0  0  0  0
 25 26  1  0  0  0  0
 26 34  2  0  0  0  0
 26 27  1  0  0  0  0
 27 28  2  0  0  0  0
 28 30  1  0  0  0  0
 28 29  1  0  0  0  0
 30 31  1  0  0  0  0
 32 33  1  0  0  0  0
 32 30  2  0  0  0  0
 34 32  1  0  0  0  0
 35 34  1  0  0  0  0
M  END
>  <minimizedAffinity>
-5.51133919

$$$$

 OpenBabel03272504583D

 35 37  0  0  1  0  0  0  0  0999 V2000
   38.4000   26.4010   35.5400 C   0  0  1  0  0  0  0  0  0  0  0  0
   39.4160   26.8700   34.6290 C   0  0  0  0  0  0  0  0  0  0  0  0
   37.9740   26.9230   34.2360 C   0  0  2  0  0  0  0  0  0  0  0  0
   38.0330   27.0230   36.4280 H   0  0  0  0  0  0  0  0  0  0  0  0
   40.0300   27.5700   35.1590 H   0  0  0  0  0  0  0  0  0  0  0  0
   40.0230   26.0900   34.1240 H   0  0  0  0  0  0  0  0  0  0  0  0
   37.8300   26.4310   33.2860 H   0  0  0  0  0  0  0  0  0  0  0  0
   38.2020   24.9290   35.7750 C   0  0  0  0  0  0  0  0  0  0  0  0
   38.2840   24.1110   34.6290 C   0  0  0  0  0  0  0  0  0  0  0  0
   38.1030   22.7690   34.8640 C   0  0  0  0  0  0  0  0  0  0  0  0
   37.8670   22.3180   36.1160 N   0  0  0  0  0  0  0  0  0  0  0  0
   37.7960   23.1410   37.1990 C   0  0  0  0  0  0  0  0  0  0  0  0
   37.9700   24.4890   37.0110 N   0  0  0  0  0  0  0  0  0  0  0  0
   37.5780   22.6970   38.5090 N   0  0  0  0  0  0  0  0  0  0  0  0
   38.4700   24.4550   33.6380 H   0  0  0  0  0  0  0  0  0  0  0  0
   38.1380   22.0320   34.0870 H   0  0  0  0  0  0  0  0  0  0  0  0
   38.3970   22.4970   39.1290 H   0  0  0  0  0  0  0  0  0  0  0  0
   36.6270   22.5470   38.9230 H   0  0  0  0  0  0  0  0  0  0  0  0
   37.3930   28.1960   34.2720 O   0  0  0  0  0  0  0  0  0  0  0  0
   37.0120   29.0480   31.8690 O   0  0  0  0  0  0  0  0  0  0  0  0
   36.3160   28.3770   33.0100 P   0  0  1  0  0  0  0  0  0  0  0  0
   35.9650   26.7990   32.3570 O   0  0  0  0  0  0  0  0  0  0  0  0
   35.0990   26.8880   31.8910 H   0  0  0  0  0  0  0  0  0  0  0  0
   34.9280   29.0800   33.5350 O   0  0  0  0  0  0  0  0  0  0  0  0
   32.0640   29.0830   34.5110 Cl  0  0  0  0  0  0  0  0  0  0  0  0
   33.3440   30.0670   35.1180 C   0  0  0  0  0  0  0  0  0  0  0  0
   34.5800   29.9040   34.5250 C   0  0  0  0  0  0  0  0  0  0  0  0
   35.6240   30.7050   35.0180 C   0  0  0  0  0  0  0  0  0  0  0  0
   36.6390   30.6740   34.6400 H   0  0  0  0  0  0  0  0  0  0  0  0
   35.3600   31.6030   36.0580 C   0  0  0  0  0  0  0  0  0  0  0  0
   36.1600   32.2280   36.4470 H   0  0  0  0  0  0  0  0  0  0  0  0
   34.1200   31.7290   36.6120 C   0  0  0  0  0  0  0  0  0  0  0  0
   33.9410   32.4190   37.4040 H   0  0  0  0  0  0  0  0  0  0  0  0
   33.0930   30.9570   36.1440 C   0  0  0  0  0  0  0  0  0  0  0  0
   31.4930   31.0550   36.7930 Cl  0  0  0  0  0  0  0  0  0  0  0  0
  1  8  1  0  0  0  0
  1  4  1  1  0  0  0
  2  5  1  0  0  0  0
  2  1  1  0  0  0  0
  3  7  1  6  0  0  0
  3 19  1  0  0  0  0
  3  2  1  0  0  0  0
  3  1  1  0  0  0  0
  6  2  1  0  0  0  0
  8 13  1  0  0  0  0
  9 10  1  0  0  0  0
  9  8  2  0  0  0  0
 10 11  2  0  0  0  0
 11 12  1  0  0  0  0
 12 14  1  0  0  0  0
 13 12  2  0  0  0  0
 14 18  1  0  0  0  0
 14 17  1  0  0  0  0
 15  9  1  0  0  0  0
 16 10  1  0  0  0  0
 21 20  2  6  0  0  0
 21 24  1  0  0  0  0
 21 19  1  0  0  0  0
 22 21  1  0  0  0  0
 23 22  1  0  0  0  0
 24 27  1  0  0  0  0
 25 26  1  0  0  0  0
 26 34  1  0  0  0  0
 27 28  1  0  0  0  0
 27 26  2  0  0  0  0
 28 30  2  0  0  0  0
 29 28  1  0  0  0  0
 30 31  1  0  0  0  0
 30 32  1  0  0  0  0
 32 33  1  0  0  0  0
 34 32  2  0  0  0  0
 34 35  1  0  0  0  0
M  END
>  <minimizedAffinity>
-5.49807692

$$$$
