
 OpenBabel03272502533D

 29 31  0  0  0  0  0  0  0  0999 V2000
   35.8980   30.2410   48.4950 C   0  0  0  0  0  0  0  0  0  0  0  0
   35.8240   29.3340   49.5460 C   0  0  0  0  0  0  0  0  0  0  0  0
   34.8230   28.3850   49.5930 C   0  0  0  0  0  0  0  0  0  0  0  0
   33.9160   28.3870   48.5620 C   0  0  0  0  0  0  0  0  0  0  0  0
   33.9750   29.2840   47.5090 C   0  0  0  0  0  0  0  0  0  0  0  0
   34.9850   30.2150   47.4930 N   0  0  0  0  0  0  0  0  0  0  0  0
   36.5930   29.4080   50.3250 H   0  0  0  0  0  0  0  0  0  0  0  0
   34.8020   27.7020   50.4230 H   0  0  0  0  0  0  0  0  0  0  0  0
   33.1390   27.6430   48.6090 H   0  0  0  0  0  0  0  0  0  0  0  0
   33.9510   26.7820   45.8280 Cl  0  0  0  0  0  0  0  0  0  0  0  0
   32.9090   28.1930   45.5790 C   0  0  0  0  0  0  0  0  0  0  0  0
   33.0110   29.2830   46.4160 C   0  0  0  0  0  0  0  0  0  0  0  0
   32.1580   30.3290   46.1390 C   0  0  0  0  0  0  0  0  0  0  0  0
   32.1830   31.2070   46.7480 H   0  0  0  0  0  0  0  0  0  0  0  0
   31.2450   30.3380   45.1100 C   0  0  0  0  0  0  0  0  0  0  0  0
   30.5870   31.1830   44.9210 H   0  0  0  0  0  0  0  0  0  0  0  0
   31.1680   29.2210   44.2840 C   0  0  0  0  0  0  0  0  0  0  0  0
   30.4950   29.1310   43.4600 H   0  0  0  0  0  0  0  0  0  0  0  0
   32.0060   28.1520   44.5270 C   0  0  0  0  0  0  0  0  0  0  0  0
   31.9400   26.7150   43.5010 Cl  0  0  0  0  0  0  0  0  0  0  0  0
   38.0870   32.9950   49.5050 C   0  0  0  0  0  0  0  0  0  0  0  0
   38.9760   33.0990   48.4110 C   0  0  0  0  0  0  0  0  0  0  0  0
   38.8060   32.2110   47.3310 C   0  0  0  0  0  0  0  0  0  0  0  0
   37.7900   31.3190   47.4370 N   0  0  0  0  0  0  0  0  0  0  0  0
   36.9590   31.2310   48.4740 C   0  0  0  0  0  0  0  0  0  0  0  0
   37.1260   32.0740   49.4890 N   0  0  0  0  0  0  0  0  0  0  0  0
   38.2150   33.6870   50.3520 H   0  0  0  0  0  0  0  0  0  0  0  0
   39.7710   33.8270   48.3740 H   0  0  0  0  0  0  0  0  0  0  0  0
   39.4650   32.2760   46.5020 H   0  0  0  0  0  0  0  0  0  0  0  0
  1  2  1  0  0  0  0
  2  3  2  0  0  0  0
  2  7  1  0  0  0  0
  3  8  1  0  0  0  0
  4  9  1  0  0  0  0
  4  3  1  0  0  0  0
  5  4  2  0  0  0  0
  6  5  1  0  0  0  0
  6  1  2  0  0  0  0
 11 10  1  0  0  0  0
 11 12  1  0  0  0  0
 12  5  1  0  0  0  0
 13 12  2  0  0  0  0
 13 14  1  0  0  0  0
 15 13  1  0  0  0  0
 16 15  1  0  0  0  0
 17 19  1  0  0  0  0
 17 15  2  0  0  0  0
 18 17  1  0  0  0  0
 19 11  2  0  0  0  0
 20 19  1  0  0  0  0
 21 27  1  0  0  0  0
 22 21  2  0  0  0  0
 23 24  2  0  0  0  0
 23 22  1  0  0  0  0
 24 25  1  0  0  0  0
 25  1  1  0  0  0  0
 25 26  2  0  0  0  0
 26 21  1  0  0  0  0
 28 22  1  0  0  0  0
 29 23  1  0  0  0  0
M  END
>  <minimizedAffinity>
-5.29458284

>  <minimizedRMSD>
0.298518538

$$$$
