
 OpenBabel03272508353D

 33 35  0  0  0  0  0  0  0  0999 V2000
   38.0320   32.0680   44.4340 C   0  0  0  0  0  0  0  0  0  0  0  0
   37.8520   33.1480   44.4480 H   0  0  0  0  0  0  0  0  0  0  0  0
   39.1120   31.9080   44.6310 H   0  0  0  0  0  0  0  0  0  0  0  0
   36.8650   30.6210   47.5190 C   0  0  0  0  0  0  0  0  0  0  0  0
   35.9420   30.1220   46.6390 C   0  0  0  0  0  0  0  0  0  0  0  0
   36.2360   30.5820   45.3660 C   0  0  0  0  0  0  0  0  0  0  0  0
   37.3560   31.3620   45.5330 N   0  0  0  0  0  0  0  0  0  0  0  0
   37.7280   31.3830   46.8190 N   0  0  0  0  0  0  0  0  0  0  0  0
   35.0840   29.4650   46.8240 H   0  0  0  0  0  0  0  0  0  0  0  0
   35.7230   30.3900   44.4330 H   0  0  0  0  0  0  0  0  0  0  0  0
   37.7070   30.3640   51.1760 C   0  0  0  0  0  0  0  0  0  0  0  0
   37.8380   30.6980   49.8380 C   0  0  0  0  0  0  0  0  0  0  0  0
   36.8310   30.3230   48.9420 C   0  0  0  0  0  0  0  0  0  0  0  0
   35.7670   29.6380   49.4490 N   0  0  0  0  0  0  0  0  0  0  0  0
   35.6790   29.3310   50.7670 C   0  0  0  0  0  0  0  0  0  0  0  0
   36.6400   29.6910   51.6200 N   0  0  0  0  0  0  0  0  0  0  0  0
   38.5730   30.7300   51.7350 H   0  0  0  0  0  0  0  0  0  0  0  0
   38.6480   31.2360   49.3700 H   0  0  0  0  0  0  0  0  0  0  0  0
   34.8180   28.7840   51.1450 H   0  0  0  0  0  0  0  0  0  0  0  0
   37.6090   31.4130   43.1260 C   0  0  0  0  0  0  0  0  0  0  0  0
   38.4230   30.6700   42.8940 H   0  0  0  0  0  0  0  0  0  0  0  0
   36.6930   30.8370   43.2210 H   0  0  0  0  0  0  0  0  0  0  0  0
   35.0710   32.8580   42.7430 Cl  0  0  0  0  0  0  0  0  0  0  0  0
   36.4880   33.1200   41.7280 C   0  0  0  0  0  0  0  0  0  0  0  0
   37.6420   32.3750   42.0020 C   0  0  0  0  0  0  0  0  0  0  0  0
   38.7040   32.6300   41.1760 C   0  0  0  0  0  0  0  0  0  0  0  0
   39.6140   32.0600   41.3750 H   0  0  0  0  0  0  0  0  0  0  0  0
   38.6780   33.5390   40.1440 C   0  0  0  0  0  0  0  0  0  0  0  0
   39.5560   33.6840   39.5330 H   0  0  0  0  0  0  0  0  0  0  0  0
   37.5080   34.2370   39.9300 C   0  0  0  0  0  0  0  0  0  0  0  0
   37.4280   34.9660   39.1300 H   0  0  0  0  0  0  0  0  0  0  0  0
   36.3780   34.0480   40.7170 C   0  0  0  0  0  0  0  0  0  0  0  0
   34.8870   34.9180   40.4670 Cl  0  0  0  0  0  0  0  0  0  0  0  0
  1  2  1  0  0  0  0
  1  3  1  0  0  0  0
  1  7  1  0  0  0  0
  4 13  1  0  0  0  0
  5  9  1  0  0  0  0
  5  4  1  0  0  0  0
  6  7  1  0  0  0  0
  6  5  2  0  0  0  0
  7  8  1  0  0  0  0
  8  4  2  0  0  0  0
 10  6  1  0  0  0  0
 11 16  1  0  0  0  0
 11 17  1  0  0  0  0
 12 11  2  0  0  0  0
 13 14  2  0  0  0  0
 13 12  1  0  0  0  0
 14 15  1  0  0  0  0
 15 19  1  0  0  0  0
 15 16  2  0  0  0  0
 18 12  1  0  0  0  0
 20 22  1  0  0  0  0
 20  1  1  0  0  0  0
 21 20  1  0  0  0  0
 24 25  1  0  0  0  0
 24 23  1  0  0  0  0
 25 20  1  0  0  0  0
 26 27  1  0  0  0  0
 26 25  2  0  0  0  0
 28 26  1  0  0  0  0
 29 28  1  0  0  0  0
 30 28  2  0  0  0  0
 30 32  1  0  0  0  0
 31 30  1  0  0  0  0
 32 24  2  0  0  0  0
 33 32  1  0  0  0  0
M  END
>  <minimizedAffinity>
-4.44957685

>  <minimizedRMSD>
3.54650784

$$$$
