
 OpenBabel03272505063D

 35 37  0  0  1  0  0  0  0  0999 V2000
   36.7260   29.2770   50.4450 C   0  0  0  0  0  0  0  0  0  0  0  0
   36.9090   29.5800   49.0960 C   0  0  0  0  0  0  0  0  0  0  0  0
   35.7840   29.8700   48.3070 C   0  0  0  0  0  0  0  0  0  0  0  0
   34.5620   29.8450   48.8910 N   0  0  0  0  0  0  0  0  0  0  0  0
   34.4270   29.5460   50.2090 C   0  0  0  0  0  0  0  0  0  0  0  0
   35.5000   29.2610   50.9950 N   0  0  0  0  0  0  0  0  0  0  0  0
   35.7800   30.1940   46.9330 N   0  0  0  0  0  0  0  0  0  0  0  0
   36.6910   31.1320   46.3220 C   0  0  0  0  0  0  0  0  0  0  0  0
   37.3050   30.7310   45.0410 C   0  0  0  0  0  0  0  0  0  0  0  0
   36.4680   29.9230   44.1140 C   0  0  0  0  0  0  0  0  0  0  0  0
   35.7040   28.8940   44.9000 C   0  0  0  0  0  0  0  0  0  0  0  0
   34.9000   29.6620   45.9470 C   0  0  1  0  0  0  0  0  0  0  0  0
   37.6910   29.0830   50.8920 H   0  0  0  0  0  0  0  0  0  0  0  0
   37.8150   29.6280   48.5370 H   0  0  0  0  0  0  0  0  0  0  0  0
   33.4670   29.5170   50.7100 H   0  0  0  0  0  0  0  0  0  0  0  0
   36.0940   32.0660   46.1410 H   0  0  0  0  0  0  0  0  0  0  0  0
   37.4800   31.4360   47.0300 H   0  0  0  0  0  0  0  0  0  0  0  0
   38.2660   30.1990   45.1990 H   0  0  0  0  0  0  0  0  0  0  0  0
   37.5840   31.6670   44.4760 H   0  0  0  0  0  0  0  0  0  0  0  0
   37.1500   29.4290   43.3750 H   0  0  0  0  0  0  0  0  0  0  0  0
   35.7450   30.5130   43.5260 H   0  0  0  0  0  0  0  0  0  0  0  0
   36.4540   28.2560   45.4160 H   0  0  0  0  0  0  0  0  0  0  0  0
   35.0500   28.2810   44.2550 H   0  0  0  0  0  0  0  0  0  0  0  0
   34.4320   30.4920   45.3240 H   0  0  0  0  0  0  0  0  0  0  0  0
   32.1770   30.9880   45.8210 Cl  0  0  0  0  0  0  0  0  0  0  0  0
   32.4340   29.3380   46.4220 C   0  0  0  0  0  0  0  0  0  0  0  0
   33.7580   28.8750   46.4270 C   0  0  0  0  0  0  0  0  0  0  0  0
   33.8190   27.5740   46.9190 C   0  0  0  0  0  0  0  0  0  0  0  0
   34.7990   27.0940   46.9660 H   0  0  0  0  0  0  0  0  0  0  0  0
   32.7800   26.8090   47.3490 C   0  0  0  0  0  0  0  0  0  0  0  0
   32.9120   25.8120   47.7150 H   0  0  0  0  0  0  0  0  0  0  0  0
   31.5200   27.3660   47.2990 C   0  0  0  0  0  0  0  0  0  0  0  0
   30.6830   26.7730   47.6360 H   0  0  0  0  0  0  0  0  0  0  0  0
   31.3200   28.6430   46.8340 C   0  0  0  0  0  0  0  0  0  0  0  0
   29.7440   29.3650   46.7620 Cl  0  0  0  0  0  0  0  0  0  0  0  0
  1 13  1  0  0  0  0
  1  6  1  0  0  0  0
  2  1  2  0  0  0  0
  3  4  2  0  0  0  0
  3  2  1  0  0  0  0
  4  5  1  0  0  0  0
  5 15  1  0  0  0  0
  5  6  2  0  0  0  0
  7  3  1  0  0  0  0
  8  7  1  0  0  0  0
  8 17  1  0  0  0  0
  9 18  1  0  0  0  0
  9  8  1  0  0  0  0
 10 11  1  0  0  0  0
 10  9  1  0  0  0  0
 11 22  1  0  0  0  0
 11 12  1  0  0  0  0
 12 24  1  6  0  0  0
 12 27  1  0  0  0  0
 12  7  1  0  0  0  0
 14  2  1  0  0  0  0
 16  8  1  0  0  0  0
 19  9  1  0  0  0  0
 20 10  1  0  0  0  0
 21 10  1  0  0  0  0
 23 11  1  0  0  0  0
 25 26  1  0  0  0  0
 26 27  2  0  0  0  0
 26 34  1  0  0  0  0
 27 28  1  0  0  0  0
 28 29  1  0  0  0  0
 28 30  2  0  0  0  0
 30 31  1  0  0  0  0
 32 30  1  0  0  0  0
 32 33  1  0  0  0  0
 34 32  2  0  0  0  0
 35 34  1  0  0  0  0
M  END
>  <minimizedAffinity>
-4.23038149

>  <minimizedRMSD>
3.09781766

$$$$
