
 OpenBabel03272503213D

 37 40  0  0  0  0  0  0  0  0999 V2000
   36.1870   29.7840   31.6860 C   0  0  0  0  0  0  0  0  0  0  0  0
   36.7640   28.5210   31.9050 C   0  0  0  0  0  0  0  0  0  0  0  0
   36.6900   27.9810   33.2040 C   0  0  0  0  0  0  0  0  0  0  0  0
   36.0820   28.6760   34.1650 N   0  0  0  0  0  0  0  0  0  0  0  0
   35.5380   29.8910   33.9140 C   0  0  0  0  0  0  0  0  0  0  0  0
   35.5900   30.4300   32.6990 N   0  0  0  0  0  0  0  0  0  0  0  0
   36.2890   30.1230   30.6630 H   0  0  0  0  0  0  0  0  0  0  0  0
   37.2660   27.9010   31.1980 H   0  0  0  0  0  0  0  0  0  0  0  0
   32.5390   29.4260   34.2630 Cl  0  0  0  0  0  0  0  0  0  0  0  0
   33.5370   30.4620   35.2530 C   0  0  0  0  0  0  0  0  0  0  0  0
   34.8860   30.6030   35.0090 C   0  0  0  0  0  0  0  0  0  0  0  0
   35.6250   31.4360   35.8240 C   0  0  0  0  0  0  0  0  0  0  0  0
   36.6850   31.5280   35.6100 H   0  0  0  0  0  0  0  0  0  0  0  0
   35.0910   32.1500   36.8860 C   0  0  0  0  0  0  0  0  0  0  0  0
   35.6800   32.7920   37.5080 H   0  0  0  0  0  0  0  0  0  0  0  0
   33.7280   31.9630   37.0750 C   0  0  0  0  0  0  0  0  0  0  0  0
   33.3030   32.5300   37.9170 H   0  0  0  0  0  0  0  0  0  0  0  0
   32.9320   31.1410   36.2910 C   0  0  0  0  0  0  0  0  0  0  0  0
   31.2270   31.0260   36.6760 Cl  0  0  0  0  0  0  0  0  0  0  0  0
   37.2710   26.6680   33.5010 C   0  0  0  0  0  0  0  0  0  0  0  0
   37.1400   25.4760   32.9190 C   0  0  0  0  0  0  0  0  0  0  0  0
   37.8030   24.4200   33.4100 C   0  0  0  0  0  0  0  0  0  0  0  0
   38.6040   24.6220   34.5150 C   0  0  0  0  0  0  0  0  0  0  0  0
   38.3770   26.4020   34.8390 S   0  0  0  0  0  0  0  0  0  0  0  0
   36.4890   25.4050   32.0530 H   0  0  0  0  0  0  0  0  0  0  0  0
   37.7940   23.4000   33.0440 H   0  0  0  0  0  0  0  0  0  0  0  0
   37.5360   23.9480   37.2950 Cl  0  0  0  0  0  0  0  0  0  0  0  0
   39.0330   23.4160   36.5640 C   0  0  0  0  0  0  0  0  0  0  0  0
   39.4500   23.7580   35.3090 C   0  0  0  0  0  0  0  0  0  0  0  0
   40.5920   23.3660   34.7190 C   0  0  0  0  0  0  0  0  0  0  0  0
   41.4590   22.5300   35.4270 C   0  0  0  0  0  0  0  0  0  0  0  0
   41.1060   22.1440   36.6960 C   0  0  0  0  0  0  0  0  0  0  0  0
   42.1560   21.0940   37.6350 Cl  0  0  0  0  0  0  0  0  0  0  0  0
   39.9000   22.5780   37.2760 C   0  0  0  0  0  0  0  0  0  0  0  0
   40.9210   23.6400   33.7210 H   0  0  0  0  0  0  0  0  0  0  0  0
   42.3910   22.1840   35.0030 H   0  0  0  0  0  0  0  0  0  0  0  0
   39.6130   22.2790   38.2760 H   0  0  0  0  0  0  0  0  0  0  0  0
  1  2  2  0  0  0  0
  1  6  1  0  0  0  0
  2  3  1  0  0  0  0
  3 20  1  0  0  0  0
  3  4  2  0  0  0  0
  5  4  1  0  0  0  0
  5 11  1  0  0  0  0
  6  5  2  0  0  0  0
  7  1  1  0  0  0  0
  8  2  1  0  0  0  0
  9 10  1  0  0  0  0
 10 18  1  0  0  0  0
 11 10  2  0  0  0  0
 11 12  1  0  0  0  0
 12 14  2  0  0  0  0
 13 12  1  0  0  0  0
 14 16  1  0  0  0  0
 14 15  1  0  0  0  0
 16 17  1  0  0  0  0
 18 19  1  0  0  0  0
 18 16  2  0  0  0  0
 20 24  1  0  0  0  0
 21 22  1  0  0  0  0
 21 20  2  0  0  0  0
 22 23  2  0  0  0  0
 23 24  1  0  0  0  0
 23 29  1  0  0  0  0
 25 21  1  0  0  0  0
 26 22  1  0  0  0  0
 28 34  1  0  0  0  0
 28 27  1  0  0  0  0
 29 28  2  0  0  0  0
 30 29  1  0  0  0  0
 30 31  2  0  0  0  0
 31 32  1  0  0  0  0
 32 34  2  0  0  0  0
 32 33  1  0  0  0  0
 34 37  1  0  0  0  0
 35 30  1  0  0  0  0
 36 31  1  0  0  0  0
M  END
>  <minimizedAffinity>
-6.93386412

$$$$

 OpenBabel03272503213D

 37 40  0  0  0  0  0  0  0  0999 V2000
   36.1120   30.0110   31.8610 C   0  0  0  0  0  0  0  0  0  0  0  0
   36.7360   28.7650   32.0480 C   0  0  0  0  0  0  0  0  0  0  0  0
   36.5220   28.1000   33.2710 C   0  0  0  0  0  0  0  0  0  0  0  0
   35.7450   28.6660   34.1940 N   0  0  0  0  0  0  0  0  0  0  0  0
   35.1610   29.8690   33.9770 C   0  0  0  0  0  0  0  0  0  0  0  0
   35.3430   30.5240   32.8330 N   0  0  0  0  0  0  0  0  0  0  0  0
   36.3290   30.4510   30.8970 H   0  0  0  0  0  0  0  0  0  0  0  0
   37.3680   28.2430   31.3670 H   0  0  0  0  0  0  0  0  0  0  0  0
   36.2870   32.2750   35.4850 Cl  0  0  0  0  0  0  0  0  0  0  0  0
   34.7360   31.5240   35.7660 C   0  0  0  0  0  0  0  0  0  0  0  0
   34.3220   30.4370   35.0270 C   0  0  0  0  0  0  0  0  0  0  0  0
   33.0860   29.8850   35.2940 C   0  0  0  0  0  0  0  0  0  0  0  0
   32.7840   29.0300   34.6960 H   0  0  0  0  0  0  0  0  0  0  0  0
   32.2230   30.3570   36.2700 C   0  0  0  0  0  0  0  0  0  0  0  0
   31.2670   29.9150   36.4630 H   0  0  0  0  0  0  0  0  0  0  0  0
   32.7020   31.4510   36.9780 C   0  0  0  0  0  0  0  0  0  0  0  0
   32.0180   31.8270   37.7540 H   0  0  0  0  0  0  0  0  0  0  0  0
   33.9340   32.0520   36.7570 C   0  0  0  0  0  0  0  0  0  0  0  0
   34.3740   33.4270   37.7470 Cl  0  0  0  0  0  0  0  0  0  0  0  0
   37.1420   26.7960   33.5310 C   0  0  0  0  0  0  0  0  0  0  0  0
   37.0810   25.6290   32.8900 C   0  0  0  0  0  0  0  0  0  0  0  0
   37.7650   24.5770   33.3580 C   0  0  0  0  0  0  0  0  0  0  0  0
   38.5140   24.7560   34.5030 C   0  0  0  0  0  0  0  0  0  0  0  0
   38.2060   26.5100   34.8990 S   0  0  0  0  0  0  0  0  0  0  0  0
   36.4670   25.5760   31.9960 H   0  0  0  0  0  0  0  0  0  0  0  0
   37.8100   23.5760   32.9450 H   0  0  0  0  0  0  0  0  0  0  0  0
   37.3980   23.9690   37.2340 Cl  0  0  0  0  0  0  0  0  0  0  0  0
   38.9250   23.4960   36.5230 C   0  0  0  0  0  0  0  0  0  0  0  0
   39.3620   23.8880   35.2890 C   0  0  0  0  0  0  0  0  0  0  0  0
   40.5280   23.5420   34.7160 C   0  0  0  0  0  0  0  0  0  0  0  0
   41.3980   22.7050   35.4180 C   0  0  0  0  0  0  0  0  0  0  0  0
   41.0250   22.2710   36.6650 C   0  0  0  0  0  0  0  0  0  0  0  0
   42.0780   21.2160   37.5960 Cl  0  0  0  0  0  0  0  0  0  0  0  0
   39.7960   22.6570   37.2290 C   0  0  0  0  0  0  0  0  0  0  0  0
   40.8730   23.8560   33.7350 H   0  0  0  0  0  0  0  0  0  0  0  0
   42.3480   22.3950   35.0060 H   0  0  0  0  0  0  0  0  0  0  0  0
   39.4920   22.3200   38.2120 H   0  0  0  0  0  0  0  0  0  0  0  0
  1  2  2  0  0  0  0
  1  6  1  0  0  0  0
  2  3  1  0  0  0  0
  3 20  1  0  0  0  0
  3  4  2  0  0  0  0
  5  4  1  0  0  0  0
  5 11  1  0  0  0  0
  6  5  2  0  0  0  0
  7  1  1  0  0  0  0
  8  2  1  0  0  0  0
  9 10  1  0  0  0  0
 10 18  1  0  0  0  0
 11 12  1  0  0  0  0
 11 10  2  0  0  0  0
 12 14  2  0  0  0  0
 13 12  1  0  0  0  0
 14 15  1  0  0  0  0
 14 16  1  0  0  0  0
 16 17  1  0  0  0  0
 18 16  2  0  0  0  0
 18 19  1  0  0  0  0
 20 24  1  0  0  0  0
 21 22  1  0  0  0  0
 21 20  2  0  0  0  0
 22 23  2  0  0  0  0
 23 24  1  0  0  0  0
 23 29  1  0  0  0  0
 25 21  1  0  0  0  0
 26 22  1  0  0  0  0
 28 34  1  0  0  0  0
 28 27  1  0  0  0  0
 29 28  2  0  0  0  0
 30 29  1  0  0  0  0
 30 31  2  0  0  0  0
 31 32  1  0  0  0  0
 32 34  2  0  0  0  0
 32 33  1  0  0  0  0
 34 37  1  0  0  0  0
 35 30  1  0  0  0  0
 36 31  1  0  0  0  0
M  END
>  <minimizedAffinity>
-6.66269112

$$$$

 OpenBabel03272503213D

 37 40  0  0  0  0  0  0  0  0999 V2000
   36.1500   30.3780   31.4080 C   0  0  0  0  0  0  0  0  0  0  0  0
   36.5170   29.0210   31.3850 C   0  0  0  0  0  0  0  0  0  0  0  0
   36.3040   28.2620   32.5530 C   0  0  0  0  0  0  0  0  0  0  0  0
   35.7680   28.8490   33.6220 N   0  0  0  0  0  0  0  0  0  0  0  0
   35.4260   30.1600   33.6050 C   0  0  0  0  0  0  0  0  0  0  0  0
   35.6150   30.9050   32.5190 N   0  0  0  0  0  0  0  0  0  0  0  0
   36.3480   30.8840   30.4720 H   0  0  0  0  0  0  0  0  0  0  0  0
   36.9500   28.4750   30.5780 H   0  0  0  0  0  0  0  0  0  0  0  0
   32.4860   29.5370   34.1490 Cl  0  0  0  0  0  0  0  0  0  0  0  0
   33.5250   30.5250   35.1460 C   0  0  0  0  0  0  0  0  0  0  0  0
   34.8430   30.7450   34.8090 C   0  0  0  0  0  0  0  0  0  0  0  0
   35.6170   31.5350   35.6340 C   0  0  0  0  0  0  0  0  0  0  0  0
   36.6520   31.6920   35.3450 H   0  0  0  0  0  0  0  0  0  0  0  0
   35.1480   32.1310   36.7950 C   0  0  0  0  0  0  0  0  0  0  0  0
   35.7640   32.7410   37.4240 H   0  0  0  0  0  0  0  0  0  0  0  0
   33.8140   31.8690   37.0750 C   0  0  0  0  0  0  0  0  0  0  0  0
   33.4400   32.3410   37.9960 H   0  0  0  0  0  0  0  0  0  0  0  0
   32.9850   31.0830   36.2860 C   0  0  0  0  0  0  0  0  0  0  0  0
   31.3240   30.8620   36.7950 Cl  0  0  0  0  0  0  0  0  0  0  0  0
   36.6640   26.8410   32.5970 C   0  0  0  0  0  0  0  0  0  0  0  0
   37.4340   26.1350   33.4240 C   0  0  0  0  0  0  0  0  0  0  0  0
   37.5920   24.8200   33.2270 C   0  0  0  0  0  0  0  0  0  0  0  0
   36.9370   24.2490   32.1540 C   0  0  0  0  0  0  0  0  0  0  0  0
   36.0710   25.6770   31.4230 S   0  0  0  0  0  0  0  0  0  0  0  0
   37.9130   26.6640   34.2430 H   0  0  0  0  0  0  0  0  0  0  0  0
   38.1810   24.1250   33.8130 H   0  0  0  0  0  0  0  0  0  0  0  0
   39.3660   23.3420   30.5410 Cl  0  0  0  0  0  0  0  0  0  0  0  0
   37.9140   22.4320   30.8970 C   0  0  0  0  0  0  0  0  0  0  0  0
   36.8620   22.9030   31.6300 C   0  0  0  0  0  0  0  0  0  0  0  0
   35.7350   22.2300   31.9210 C   0  0  0  0  0  0  0  0  0  0  0  0
   35.5930   20.9250   31.4460 C   0  0  0  0  0  0  0  0  0  0  0  0
   36.6110   20.3840   30.7020 C   0  0  0  0  0  0  0  0  0  0  0  0
   36.4900   18.7460   30.0780 Cl  0  0  0  0  0  0  0  0  0  0  0  0
   37.7750   21.1230   30.4200 C   0  0  0  0  0  0  0  0  0  0  0  0
   34.9000   22.6080   32.5030 H   0  0  0  0  0  0  0  0  0  0  0  0
   34.7090   20.3360   31.6490 H   0  0  0  0  0  0  0  0  0  0  0  0
   38.5840   20.7060   29.8340 H   0  0  0  0  0  0  0  0  0  0  0  0
  1  6  1  0  0  0  0
  2  1  2  0  0  0  0
  2  3  1  0  0  0  0
  3 20  1  0  0  0  0
  3  4  2  0  0  0  0
  5  4  1  0  0  0  0
  5 11  1  0  0  0  0
  6  5  2  0  0  0  0
  7  1  1  0  0  0  0
  8  2  1  0  0  0  0
  9 10  1  0  0  0  0
 10 18  1  0  0  0  0
 11 10  2  0  0  0  0
 11 12  1  0  0  0  0
 12 14  2  0  0  0  0
 13 12  1  0  0  0  0
 14 16  1  0  0  0  0
 14 15  1  0  0  0  0
 16 17  1  0  0  0  0
 18 19  1  0  0  0  0
 18 16  2  0  0  0  0
 20 21  2  0  0  0  0
 21 25  1  0  0  0  0
 22 21  1  0  0  0  0
 22 26  1  0  0  0  0
 23 22  2  0  0  0  0
 24 23  1  0  0  0  0
 24 20  1  0  0  0  0
 27 28  1  0  0  0  0
 28 29  1  0  0  0  0
 29 30  2  0  0  0  0
 29 23  1  0  0  0  0
 30 35  1  0  0  0  0
 31 36  1  0  0  0  0
 31 30  1  0  0  0  0
 32 31  2  0  0  0  0
 33 32  1  0  0  0  0
 34 32  1  0  0  0  0
 34 28  2  0  0  0  0
 37 34  1  0  0  0  0
M  END
>  <minimizedAffinity>
-6.60098362

$$$$

 OpenBabel03272503213D

 37 40  0  0  0  0  0  0  0  0999 V2000
   36.4850   29.4070   31.4260 C   0  0  0  0  0  0  0  0  0  0  0  0
   37.0280   28.1380   31.6930 C   0  0  0  0  0  0  0  0  0  0  0  0
   36.9050   27.6320   33.0020 C   0  0  0  0  0  0  0  0  0  0  0  0
   36.2840   28.3640   33.9270 N   0  0  0  0  0  0  0  0  0  0  0  0
   35.7730   29.5830   33.6310 C   0  0  0  0  0  0  0  0  0  0  0  0
   35.8730   30.0900   32.4040 N   0  0  0  0  0  0  0  0  0  0  0  0
   36.6240   29.7170   30.3980 H   0  0  0  0  0  0  0  0  0  0  0  0
   37.5380   27.4900   31.0170 H   0  0  0  0  0  0  0  0  0  0  0  0
   32.7340   29.3240   33.7900 Cl  0  0  0  0  0  0  0  0  0  0  0  0
   33.7370   30.2870   34.8470 C   0  0  0  0  0  0  0  0  0  0  0  0
   35.1050   30.3350   34.6880 C   0  0  0  0  0  0  0  0  0  0  0  0
   35.8470   31.1130   35.5530 C   0  0  0  0  0  0  0  0  0  0  0  0
   36.9220   31.1330   35.4050 H   0  0  0  0  0  0  0  0  0  0  0  0
   35.2990   31.8600   36.5840 C   0  0  0  0  0  0  0  0  0  0  0  0
   35.8900   32.4580   37.2460 H   0  0  0  0  0  0  0  0  0  0  0  0
   33.9170   31.7670   36.6870 C   0  0  0  0  0  0  0  0  0  0  0  0
   33.4800   32.3590   37.5060 H   0  0  0  0  0  0  0  0  0  0  0  0
   33.1160   31.0020   35.8500 C   0  0  0  0  0  0  0  0  0  0  0  0
   31.3870   31.0040   36.1290 Cl  0  0  0  0  0  0  0  0  0  0  0  0
   37.4490   26.3150   33.3490 C   0  0  0  0  0  0  0  0  0  0  0  0
   37.1920   25.0890   32.8940 C   0  0  0  0  0  0  0  0  0  0  0  0
   37.8520   24.0390   33.3990 C   0  0  0  0  0  0  0  0  0  0  0  0
   38.7860   24.2840   34.3870 C   0  0  0  0  0  0  0  0  0  0  0  0
   38.6890   26.0950   34.5730 S   0  0  0  0  0  0  0  0  0  0  0  0
   36.4420   24.9870   32.1150 H   0  0  0  0  0  0  0  0  0  0  0  0
   37.7490   22.9960   33.1290 H   0  0  0  0  0  0  0  0  0  0  0  0
   41.3380   23.4260   32.9470 Cl  0  0  0  0  0  0  0  0  0  0  0  0
   40.8340   23.0160   34.5720 C   0  0  0  0  0  0  0  0  0  0  0  0
   39.6730   23.4390   35.1550 C   0  0  0  0  0  0  0  0  0  0  0  0
   39.2580   23.1420   36.3990 C   0  0  0  0  0  0  0  0  0  0  0  0
   40.0640   22.3290   37.1980 C   0  0  0  0  0  0  0  0  0  0  0  0
   41.2480   21.8670   36.6790 C   0  0  0  0  0  0  0  0  0  0  0  0
   42.3040   20.8410   37.6370 Cl  0  0  0  0  0  0  0  0  0  0  0  0
   41.6450   22.2010   35.3710 C   0  0  0  0  0  0  0  0  0  0  0  0
   38.3340   23.4790   36.8590 H   0  0  0  0  0  0  0  0  0  0  0  0
   39.7820   22.0590   38.2060 H   0  0  0  0  0  0  0  0  0  0  0  0
   42.5760   21.8420   34.9520 H   0  0  0  0  0  0  0  0  0  0  0  0
  1  2  2  0  0  0  0
  1  6  1  0  0  0  0
  2  3  1  0  0  0  0
  3 20  1  0  0  0  0
  3  4  2  0  0  0  0
  5  4  1  0  0  0  0
  5 11  1  0  0  0  0
  6  5  2  0  0  0  0
  7  1  1  0  0  0  0
  8  2  1  0  0  0  0
  9 10  1  0  0  0  0
 10 18  1  0  0  0  0
 11 10  2  0  0  0  0
 11 12  1  0  0  0  0
 12 14  2  0  0  0  0
 13 12  1  0  0  0  0
 14 16  1  0  0  0  0
 14 15  1  0  0  0  0
 16 17  1  0  0  0  0
 18 19  1  0  0  0  0
 18 16  2  0  0  0  0
 20 24  1  0  0  0  0
 21 20  2  0  0  0  0
 21 22  1  0  0  0  0
 22 23  2  0  0  0  0
 23 24  1  0  0  0  0
 23 29  1  0  0  0  0
 25 21  1  0  0  0  0
 26 22  1  0  0  0  0
 27 28  1  0  0  0  0
 28 29  2  0  0  0  0
 28 34  1  0  0  0  0
 29 30  1  0  0  0  0
 30 35  1  0  0  0  0
 30 31  2  0  0  0  0
 31 36  1  0  0  0  0
 32 31  1  0  0  0  0
 32 33  1  0  0  0  0
 34 32  2  0  0  0  0
 37 34  1  0  0  0  0
M  END
>  <minimizedAffinity>
-6.34966373

$$$$

 OpenBabel03272503213D

 37 40  0  0  0  0  0  0  0  0999 V2000
   37.9940   24.1670   31.3980 C   0  0  0  0  0  0  0  0  0  0  0  0
   37.2340   25.3330   31.5960 C   0  0  0  0  0  0  0  0  0  0  0  0
   37.5190   26.1180   32.7310 C   0  0  0  0  0  0  0  0  0  0  0  0
   38.4850   25.7330   33.5640 N   0  0  0  0  0  0  0  0  0  0  0  0
   39.1950   24.6010   33.3390 C   0  0  0  0  0  0  0  0  0  0  0  0
   38.9520   23.8380   32.2760 N   0  0  0  0  0  0  0  0  0  0  0  0
   37.7100   23.6250   30.5050 H   0  0  0  0  0  0  0  0  0  0  0  0
   36.4480   25.7120   30.9840 H   0  0  0  0  0  0  0  0  0  0  0  0
   38.4090   22.6660   35.5670 Cl  0  0  0  0  0  0  0  0  0  0  0  0
   39.9910   23.3670   35.3300 C   0  0  0  0  0  0  0  0  0  0  0  0
   40.2410   24.2330   34.2880 C   0  0  0  0  0  0  0  0  0  0  0  0
   41.5100   24.7570   34.1500 C   0  0  0  0  0  0  0  0  0  0  0  0
   41.6800   25.4370   33.3210 H   0  0  0  0  0  0  0  0  0  0  0  0
   42.5640   24.4640   35.0020 C   0  0  0  0  0  0  0  0  0  0  0  0
   43.5430   24.8800   34.8790 H   0  0  0  0  0  0  0  0  0  0  0  0
   42.2430   23.5860   36.0290 C   0  0  0  0  0  0  0  0  0  0  0  0
   43.0790   23.3530   36.7070 H   0  0  0  0  0  0  0  0  0  0  0  0
   40.9880   23.0270   36.2210 C   0  0  0  0  0  0  0  0  0  0  0  0
   40.7650   21.9360   37.5730 Cl  0  0  0  0  0  0  0  0  0  0  0  0
   36.7640   27.3470   32.9980 C   0  0  0  0  0  0  0  0  0  0  0  0
   36.0810   28.1710   32.2030 C   0  0  0  0  0  0  0  0  0  0  0  0
   35.4740   29.2460   32.7240 C   0  0  0  0  0  0  0  0  0  0  0  0
   35.5880   29.4500   34.0840 C   0  0  0  0  0  0  0  0  0  0  0  0
   36.6090   28.0330   34.6070 S   0  0  0  0  0  0  0  0  0  0  0  0
   36.0430   27.9350   31.1440 H   0  0  0  0  0  0  0  0  0  0  0  0
   34.8890   29.9950   32.2050 H   0  0  0  0  0  0  0  0  0  0  0  0
   32.6090   29.2700   34.7290 Cl  0  0  0  0  0  0  0  0  0  0  0  0
   33.7640   30.4440   35.3190 C   0  0  0  0  0  0  0  0  0  0  0  0
   35.0890   30.4640   34.9870 C   0  0  0  0  0  0  0  0  0  0  0  0
   36.0010   31.3510   35.4230 C   0  0  0  0  0  0  0  0  0  0  0  0
   35.5910   32.3590   36.2980 C   0  0  0  0  0  0  0  0  0  0  0  0
   34.2720   32.4010   36.6760 C   0  0  0  0  0  0  0  0  0  0  0  0
   33.6970   33.6460   37.7750 Cl  0  0  0  0  0  0  0  0  0  0  0  0
   33.3500   31.4540   36.1970 C   0  0  0  0  0  0  0  0  0  0  0  0
   37.0540   31.3650   35.1570 H   0  0  0  0  0  0  0  0  0  0  0  0
   36.2800   33.0990   36.6800 H   0  0  0  0  0  0  0  0  0  0  0  0
   32.3080   31.4780   36.4890 H   0  0  0  0  0  0  0  0  0  0  0  0
  1  2  2  0  0  0  0
  1  6  1  0  0  0  0
  2  3  1  0  0  0  0
  3 20  1  0  0  0  0
  3  4  2  0  0  0  0
  5  4  1  0  0  0  0
  5 11  1  0  0  0  0
  6  5  2  0  0  0  0
  7  1  1  0  0  0  0
  8  2  1  0  0  0  0
 10  9  1  0  0  0  0
 10 18  1  0  0  0  0
 11 10  2  0  0  0  0
 12 11  1  0  0  0  0
 12 14  2  0  0  0  0
 13 12  1  0  0  0  0
 14 16  1  0  0  0  0
 15 14  1  0  0  0  0
 16 18  2  0  0  0  0
 16 17  1  0  0  0  0
 18 19  1  0  0  0  0
 20 24  1  0  0  0  0
 21 22  1  0  0  0  0
 21 20  2  0  0  0  0
 22 23  2  0  0  0  0
 23 24  1  0  0  0  0
 23 29  1  0  0  0  0
 25 21  1  0  0  0  0
 26 22  1  0  0  0  0
 27 28  1  0  0  0  0
 28 34  1  0  0  0  0
 29 28  2  0  0  0  0
 29 30  1  0  0  0  0
 30 31  2  0  0  0  0
 31 32  1  0  0  0  0
 31 36  1  0  0  0  0
 32 33  1  0  0  0  0
 34 37  1  0  0  0  0
 34 32  2  0  0  0  0
 35 30  1  0  0  0  0
M  END
>  <minimizedAffinity>
-6.26765823

$$$$

 OpenBabel03272503213D

 37 40  0  0  0  0  0  0  0  0999 V2000
   37.5610   24.3370   32.0690 C   0  0  0  0  0  0  0  0  0  0  0  0
   37.0090   25.6290   32.1290 C   0  0  0  0  0  0  0  0  0  0  0  0
   37.1050   26.3280   33.3480 C   0  0  0  0  0  0  0  0  0  0  0  0
   37.7080   25.7500   34.3850 N   0  0  0  0  0  0  0  0  0  0  0  0
   38.2290   24.5030   34.2880 C   0  0  0  0  0  0  0  0  0  0  0  0
   38.1550   23.8150   33.1510 N   0  0  0  0  0  0  0  0  0  0  0  0
   37.4440   23.8730   31.0980 H   0  0  0  0  0  0  0  0  0  0  0  0
   36.5110   26.1630   31.3510 H   0  0  0  0  0  0  0  0  0  0  0  0
   41.1940   23.8210   34.0200 Cl  0  0  0  0  0  0  0  0  0  0  0  0
   40.2120   23.5820   35.4450 C   0  0  0  0  0  0  0  0  0  0  0  0
   38.8770   23.9250   35.4600 C   0  0  0  0  0  0  0  0  0  0  0  0
   38.1510   23.7120   36.6140 C   0  0  0  0  0  0  0  0  0  0  0  0
   37.1020   23.9920   36.5990 H   0  0  0  0  0  0  0  0  0  0  0  0
   38.6820   23.1690   37.7730 C   0  0  0  0  0  0  0  0  0  0  0  0
   38.1030   23.0120   38.6590 H   0  0  0  0  0  0  0  0  0  0  0  0
   40.0300   22.8460   37.6890 C   0  0  0  0  0  0  0  0  0  0  0  0
   40.4540   22.4140   38.6080 H   0  0  0  0  0  0  0  0  0  0  0  0
   40.8140   23.0350   36.5590 C   0  0  0  0  0  0  0  0  0  0  0  0
   42.5000   22.5680   36.6340 Cl  0  0  0  0  0  0  0  0  0  0  0  0
   36.5500   27.6800   33.4790 C   0  0  0  0  0  0  0  0  0  0  0  0
   36.0980   28.5560   32.5820 C   0  0  0  0  0  0  0  0  0  0  0  0
   35.6360   29.7460   32.9870 C   0  0  0  0  0  0  0  0  0  0  0  0
   35.6510   30.0110   34.3420 C   0  0  0  0  0  0  0  0  0  0  0  0
   36.3590   28.4790   35.0310 S   0  0  0  0  0  0  0  0  0  0  0  0
   36.1220   28.2650   31.5350 H   0  0  0  0  0  0  0  0  0  0  0  0
   35.2400   30.5490   32.3780 H   0  0  0  0  0  0  0  0  0  0  0  0
   32.8040   29.8890   35.4390 Cl  0  0  0  0  0  0  0  0  0  0  0  0
   33.9870   31.1590   35.6650 C   0  0  0  0  0  0  0  0  0  0  0  0
   35.2490   31.1470   35.1420 C   0  0  0  0  0  0  0  0  0  0  0  0
   36.1780   32.1050   35.2980 C   0  0  0  0  0  0  0  0  0  0  0  0
   35.8600   33.2320   36.0580 C   0  0  0  0  0  0  0  0  0  0  0  0
   34.6080   33.3130   36.6150 C   0  0  0  0  0  0  0  0  0  0  0  0
   34.1490   34.7060   37.5820 Cl  0  0  0  0  0  0  0  0  0  0  0  0
   33.6630   32.2880   36.4280 C   0  0  0  0  0  0  0  0  0  0  0  0
   37.1810   32.0930   34.8800 H   0  0  0  0  0  0  0  0  0  0  0  0
   36.5680   34.0330   36.2160 H   0  0  0  0  0  0  0  0  0  0  0  0
   32.6740   32.3420   36.8630 H   0  0  0  0  0  0  0  0  0  0  0  0
  1  2  2  0  0  0  0
  1  6  1  0  0  0  0
  2  3  1  0  0  0  0
  3 20  1  0  0  0  0
  3  4  2  0  0  0  0
  5  4  1  0  0  0  0
  5 11  1  0  0  0  0
  6  5  2  0  0  0  0
  7  1  1  0  0  0  0
  8  2  1  0  0  0  0
  9 10  1  0  0  0  0
 10 11  2  0  0  0  0
 10 18  1  0  0  0  0
 11 12  1  0  0  0  0
 12 14  2  0  0  0  0
 13 12  1  0  0  0  0
 14 15  1  0  0  0  0
 16 14  1  0  0  0  0
 16 17  1  0  0  0  0
 18 19  1  0  0  0  0
 18 16  2  0  0  0  0
 20 24  1  0  0  0  0
 21 22  1  0  0  0  0
 21 20  2  0  0  0  0
 22 23  2  0  0  0  0
 23 24  1  0  0  0  0
 23 29  1  0  0  0  0
 25 21  1  0  0  0  0
 26 22  1  0  0  0  0
 27 28  1  0  0  0  0
 28 34  1  0  0  0  0
 29 30  1  0  0  0  0
 29 28  2  0  0  0  0
 30 31  2  0  0  0  0
 31 36  1  0  0  0  0
 31 32  1  0  0  0  0
 32 33  1  0  0  0  0
 34 32  2  0  0  0  0
 34 37  1  0  0  0  0
 35 30  1  0  0  0  0
M  END
>  <minimizedAffinity>
-6.21324301

$$$$

 OpenBabel03272503213D

 37 40  0  0  0  0  0  0  0  0999 V2000
   36.2990   29.0180   30.9800 C   0  0  0  0  0  0  0  0  0  0  0  0
   37.1170   28.2840   31.8580 C   0  0  0  0  0  0  0  0  0  0  0  0
   36.6750   28.1200   33.1850 C   0  0  0  0  0  0  0  0  0  0  0  0
   35.5140   28.6580   33.5570 N   0  0  0  0  0  0  0  0  0  0  0  0
   34.7540   29.3590   32.6810 C   0  0  0  0  0  0  0  0  0  0  0  0
   35.1420   29.5320   31.4200 N   0  0  0  0  0  0  0  0  0  0  0  0
   36.7140   29.0940   29.9830 H   0  0  0  0  0  0  0  0  0  0  0  0
   38.0550   27.8230   31.6450 H   0  0  0  0  0  0  0  0  0  0  0  0
   34.9040   32.0340   34.1480 Cl  0  0  0  0  0  0  0  0  0  0  0  0
   33.4490   31.1250   33.8200 C   0  0  0  0  0  0  0  0  0  0  0  0
   33.4920   29.9230   33.1490 C   0  0  0  0  0  0  0  0  0  0  0  0
   32.3100   29.2480   32.9190 C   0  0  0  0  0  0  0  0  0  0  0  0
   32.3720   28.3040   32.3870 H   0  0  0  0  0  0  0  0  0  0  0  0
   31.0660   29.7070   33.3250 C   0  0  0  0  0  0  0  0  0  0  0  0
   30.1600   29.1700   33.1380 H   0  0  0  0  0  0  0  0  0  0  0  0
   31.0960   30.9220   33.9970 C   0  0  0  0  0  0  0  0  0  0  0  0
   30.1090   31.2880   34.3200 H   0  0  0  0  0  0  0  0  0  0  0  0
   32.2500   31.6480   34.2580 C   0  0  0  0  0  0  0  0  0  0  0  0
   32.0970   33.1650   35.1190 Cl  0  0  0  0  0  0  0  0  0  0  0  0
   37.4790   27.3660   34.1520 C   0  0  0  0  0  0  0  0  0  0  0  0
   37.8930   27.6450   35.3880 C   0  0  0  0  0  0  0  0  0  0  0  0
   38.6320   26.7530   36.0600 C   0  0  0  0  0  0  0  0  0  0  0  0
   38.9360   25.5650   35.4260 C   0  0  0  0  0  0  0  0  0  0  0  0
   38.1160   25.7650   33.8100 S   0  0  0  0  0  0  0  0  0  0  0  0
   37.6080   28.6040   35.8110 H   0  0  0  0  0  0  0  0  0  0  0  0
   39.0340   26.8420   37.0620 H   0  0  0  0  0  0  0  0  0  0  0  0
   37.4670   23.6260   37.2730 Cl  0  0  0  0  0  0  0  0  0  0  0  0
   39.0910   23.4800   36.6370 C   0  0  0  0  0  0  0  0  0  0  0  0
   39.6870   24.3900   35.8120 C   0  0  0  0  0  0  0  0  0  0  0  0
   40.9300   24.3060   35.3070 C   0  0  0  0  0  0  0  0  0  0  0  0
   41.7140   23.1990   35.6380 C   0  0  0  0  0  0  0  0  0  0  0  0
   41.1810   22.2420   36.4640 C   0  0  0  0  0  0  0  0  0  0  0  0
   42.1180   20.8260   36.9140 Cl  0  0  0  0  0  0  0  0  0  0  0  0
   39.8740   22.3680   36.9700 C   0  0  0  0  0  0  0  0  0  0  0  0
   41.4020   25.0320   34.6510 H   0  0  0  0  0  0  0  0  0  0  0  0
   42.7200   23.0790   35.2620 H   0  0  0  0  0  0  0  0  0  0  0  0
   39.4440   21.6190   37.6220 H   0  0  0  0  0  0  0  0  0  0  0  0
  1  6  2  0  0  0  0
  1  2  1  0  0  0  0
  2  3  2  0  0  0  0
  3  4  1  0  0  0  0
  3 20  1  0  0  0  0
  5 11  1  0  0  0  0
  5  4  2  0  0  0  0
  6  5  1  0  0  0  0
  7  1  1  0  0  0  0
  8  2  1  0  0  0  0
 10  9  1  0  0  0  0
 10 18  1  0  0  0  0
 11 10  2  0  0  0  0
 12 11  1  0  0  0  0
 12 14  2  0  0  0  0
 13 12  1  0  0  0  0
 14 16  1  0  0  0  0
 15 14  1  0  0  0  0
 16 18  2  0  0  0  0
 16 17  1  0  0  0  0
 18 19  1  0  0  0  0
 20 21  2  0  0  0  0
 21 25  1  0  0  0  0
 21 22  1  0  0  0  0
 22 26  1  0  0  0  0
 23 29  1  0  0  0  0
 23 22  2  0  0  0  0
 24 20  1  0  0  0  0
 24 23  1  0  0  0  0
 28 34  1  0  0  0  0
 28 27  1  0  0  0  0
 29 28  2  0  0  0  0
 30 31  2  0  0  0  0
 30 29  1  0  0  0  0
 31 32  1  0  0  0  0
 32 33  1  0  0  0  0
 32 34  2  0  0  0  0
 34 37  1  0  0  0  0
 35 30  1  0  0  0  0
 36 31  1  0  0  0  0
M  END
>  <minimizedAffinity>
-6.20034742

$$$$

 OpenBabel03272503213D

 37 40  0  0  0  0  0  0  0  0999 V2000
   34.4510   30.1820   31.7450 C   0  0  0  0  0  0  0  0  0  0  0  0
   35.2860   29.0560   31.8470 C   0  0  0  0  0  0  0  0  0  0  0  0
   35.9590   28.8440   33.0660 C   0  0  0  0  0  0  0  0  0  0  0  0
   35.7820   29.7070   34.0660 N   0  0  0  0  0  0  0  0  0  0  0  0
   34.9680   30.7810   33.9300 C   0  0  0  0  0  0  0  0  0  0  0  0
   34.3180   31.0100   32.7920 N   0  0  0  0  0  0  0  0  0  0  0  0
   33.9740   30.2680   30.7770 H   0  0  0  0  0  0  0  0  0  0  0  0
   35.4840   28.3200   31.1010 H   0  0  0  0  0  0  0  0  0  0  0  0
   36.5410   33.3980   33.8150 Cl  0  0  0  0  0  0  0  0  0  0  0  0
   35.4810   32.8950   35.1080 C   0  0  0  0  0  0  0  0  0  0  0  0
   34.8160   31.6890   35.0620 C   0  0  0  0  0  0  0  0  0  0  0  0
   33.9920   31.3440   36.1140 C   0  0  0  0  0  0  0  0  0  0  0  0
   33.4800   30.3890   36.0520 H   0  0  0  0  0  0  0  0  0  0  0  0
   33.7860   32.1430   37.2290 C   0  0  0  0  0  0  0  0  0  0  0  0
   33.1420   31.8590   38.0350 H   0  0  0  0  0  0  0  0  0  0  0  0
   34.4860   33.3420   37.2110 C   0  0  0  0  0  0  0  0  0  0  0  0
   34.3240   33.9770   38.0960 H   0  0  0  0  0  0  0  0  0  0  0  0
   35.3290   33.7450   36.1850 C   0  0  0  0  0  0  0  0  0  0  0  0
   36.1310   35.2950   36.3330 Cl  0  0  0  0  0  0  0  0  0  0  0  0
   36.8460   27.6880   33.2390 C   0  0  0  0  0  0  0  0  0  0  0  0
   37.5010   26.9210   32.3690 C   0  0  0  0  0  0  0  0  0  0  0  0
   38.2580   25.9090   32.8120 C   0  0  0  0  0  0  0  0  0  0  0  0
   38.3230   25.7070   34.1760 C   0  0  0  0  0  0  0  0  0  0  0  0
   37.2490   27.0330   34.8180 S   0  0  0  0  0  0  0  0  0  0  0  0
   37.3940   27.1510   31.3130 H   0  0  0  0  0  0  0  0  0  0  0  0
   38.8420   25.2090   32.2270 H   0  0  0  0  0  0  0  0  0  0  0  0
   41.3720   25.8130   34.0410 Cl  0  0  0  0  0  0  0  0  0  0  0  0
   40.3780   24.7400   35.0000 C   0  0  0  0  0  0  0  0  0  0  0  0
   39.0120   24.7490   35.0120 C   0  0  0  0  0  0  0  0  0  0  0  0
   38.2220   23.9390   35.7370 C   0  0  0  0  0  0  0  0  0  0  0  0
   38.8180   22.9870   36.5680 C   0  0  0  0  0  0  0  0  0  0  0  0
   40.1880   22.9200   36.6080 C   0  0  0  0  0  0  0  0  0  0  0  0
   40.9950   21.7450   37.6340 Cl  0  0  0  0  0  0  0  0  0  0  0  0
   40.9790   23.7870   35.8320 C   0  0  0  0  0  0  0  0  0  0  0  0
   37.1350   23.9480   35.7440 H   0  0  0  0  0  0  0  0  0  0  0  0
   38.2320   22.3100   37.1730 H   0  0  0  0  0  0  0  0  0  0  0  0
   42.0610   23.7430   35.8570 H   0  0  0  0  0  0  0  0  0  0  0  0
  1  2  2  0  0  0  0
  1  6  1  0  0  0  0
  2  3  1  0  0  0  0
  3 20  1  0  0  0  0
  3  4  2  0  0  0  0
  5  4  1  0  0  0  0
  5 11  1  0  0  0  0
  6  5  2  0  0  0  0
  7  1  1  0  0  0  0
  8  2  1  0  0  0  0
  9 10  1  0  0  0  0
 10 18  1  0  0  0  0
 11 10  2  0  0  0  0
 11 12  1  0  0  0  0
 12 14  2  0  0  0  0
 13 12  1  0  0  0  0
 14 15  1  0  0  0  0
 16 14  1  0  0  0  0
 16 17  1  0  0  0  0
 18 19  1  0  0  0  0
 18 16  2  0  0  0  0
 20 24  1  0  0  0  0
 21 22  1  0  0  0  0
 21 20  2  0  0  0  0
 22 23  2  0  0  0  0
 23 24  1  0  0  0  0
 23 29  1  0  0  0  0
 25 21  1  0  0  0  0
 26 22  1  0  0  0  0
 27 28  1  0  0  0  0
 28 29  2  0  0  0  0
 28 34  1  0  0  0  0
 29 30  1  0  0  0  0
 30 35  1  0  0  0  0
 30 31  2  0  0  0  0
 31 32  1  0  0  0  0
 31 36  1  0  0  0  0
 32 33  1  0  0  0  0
 34 37  1  0  0  0  0
 34 32  2  0  0  0  0
M  END
>  <minimizedAffinity>
-6.07637835

$$$$

 OpenBabel03272503213D

 37 40  0  0  0  0  0  0  0  0999 V2000
   39.9890   23.7870   33.8010 C   0  0  0  0  0  0  0  0  0  0  0  0
   39.4190   25.0720   33.7800 C   0  0  0  0  0  0  0  0  0  0  0  0
   38.0740   25.1870   33.3760 C   0  0  0  0  0  0  0  0  0  0  0  0
   37.3990   24.0890   33.0360 N   0  0  0  0  0  0  0  0  0  0  0  0
   37.9840   22.8680   33.0700 C   0  0  0  0  0  0  0  0  0  0  0  0
   39.2530   22.7240   33.4460 N   0  0  0  0  0  0  0  0  0  0  0  0
   41.0230   23.7900   34.1230 H   0  0  0  0  0  0  0  0  0  0  0  0
   39.8830   25.9970   34.0340 H   0  0  0  0  0  0  0  0  0  0  0  0
   38.3480   21.8410   30.2160 Cl  0  0  0  0  0  0  0  0  0  0  0  0
   37.2820   21.1620   31.4220 C   0  0  0  0  0  0  0  0  0  0  0  0
   37.1920   21.7040   32.6850 C   0  0  0  0  0  0  0  0  0  0  0  0
   36.3330   21.1260   33.5960 C   0  0  0  0  0  0  0  0  0  0  0  0
   36.2810   21.5730   34.5850 H   0  0  0  0  0  0  0  0  0  0  0  0
   35.5430   20.0200   33.3200 C   0  0  0  0  0  0  0  0  0  0  0  0
   34.8820   19.5840   34.0400 H   0  0  0  0  0  0  0  0  0  0  0  0
   35.6820   19.5250   32.0300 C   0  0  0  0  0  0  0  0  0  0  0  0
   35.0550   18.6470   31.8090 H   0  0  0  0  0  0  0  0  0  0  0  0
   36.5280   20.0610   31.0700 C   0  0  0  0  0  0  0  0  0  0  0  0
   36.5740   19.3040   29.4910 Cl  0  0  0  0  0  0  0  0  0  0  0  0
   37.4170   26.4980   33.3310 C   0  0  0  0  0  0  0  0  0  0  0  0
   37.1840   27.3520   32.3350 C   0  0  0  0  0  0  0  0  0  0  0  0
   36.5480   28.5040   32.5810 C   0  0  0  0  0  0  0  0  0  0  0  0
   36.1590   28.7570   33.8820 C   0  0  0  0  0  0  0  0  0  0  0  0
   36.7390   27.2670   34.7580 S   0  0  0  0  0  0  0  0  0  0  0  0
   37.5250   27.0740   31.3420 H   0  0  0  0  0  0  0  0  0  0  0  0
   36.2920   29.2860   31.8770 H   0  0  0  0  0  0  0  0  0  0  0  0
   33.2570   29.1580   33.0210 Cl  0  0  0  0  0  0  0  0  0  0  0  0
   34.1690   30.0930   34.1850 C   0  0  0  0  0  0  0  0  0  0  0  0
   35.4710   29.8550   34.5240 C   0  0  0  0  0  0  0  0  0  0  0  0
   36.1980   30.5530   35.4130 C   0  0  0  0  0  0  0  0  0  0  0  0
   35.5990   31.6300   36.0710 C   0  0  0  0  0  0  0  0  0  0  0  0
   34.2910   31.9280   35.7820 C   0  0  0  0  0  0  0  0  0  0  0  0
   33.4830   33.2690   36.5780 Cl  0  0  0  0  0  0  0  0  0  0  0  0
   33.5650   31.1710   34.8440 C   0  0  0  0  0  0  0  0  0  0  0  0
   37.2340   30.3620   35.6790 H   0  0  0  0  0  0  0  0  0  0  0  0
   36.1350   32.2260   36.7960 H   0  0  0  0  0  0  0  0  0  0  0  0
   32.5330   31.3980   34.6090 H   0  0  0  0  0  0  0  0  0  0  0  0
  1  7  1  0  0  0  0
  2  1  1  0  0  0  0
  2  8  1  0  0  0  0
  3  2  2  0  0  0  0
  4  5  2  0  0  0  0
  4  3  1  0  0  0  0
  5  6  1  0  0  0  0
  6  1  2  0  0  0  0
  9 10  1  0  0  0  0
 10 11  1  0  0  0  0
 11  5  1  0  0  0  0
 11 12  2  0  0  0  0
 12 13  1  0  0  0  0
 14 12  1  0  0  0  0
 14 15  1  0  0  0  0
 16 14  2  0  0  0  0
 17 16  1  0  0  0  0
 18 10  2  0  0  0  0
 18 16  1  0  0  0  0
 19 18  1  0  0  0  0
 20  3  1  0  0  0  0
 20 24  1  0  0  0  0
 21 22  1  0  0  0  0
 21 20  2  0  0  0  0
 22 23  2  0  0  0  0
 23 29  1  0  0  0  0
 23 24  1  0  0  0  0
 25 21  1  0  0  0  0
 26 22  1  0  0  0  0
 27 28  1  0  0  0  0
 28 29  2  0  0  0  0
 28 34  1  0  0  0  0
 29 30  1  0  0  0  0
 30 35  1  0  0  0  0
 30 31  2  0  0  0  0
 31 36  1  0  0  0  0
 32 31  1  0  0  0  0
 32 33  1  0  0  0  0
 34 32  2  0  0  0  0
 37 34  1  0  0  0  0
M  END
>  <minimizedAffinity>
-6.05625916

$$$$
