
 OpenBabel03272502533D

 29 31  0  0  0  0  0  0  0  0999 V2000
   35.9320   30.4650   48.7240 C   0  0  0  0  0  0  0  0  0  0  0  0
   35.4890   30.1780   50.0100 C   0  0  0  0  0  0  0  0  0  0  0  0
   34.4450   29.2990   50.2190 C   0  0  0  0  0  0  0  0  0  0  0  0
   33.8760   28.7340   49.1050 C   0  0  0  0  0  0  0  0  0  0  0  0
   34.3050   29.0090   47.8170 C   0  0  0  0  0  0  0  0  0  0  0  0
   35.3470   29.8880   47.6450 N   0  0  0  0  0  0  0  0  0  0  0  0
   36.0050   30.6770   50.8390 H   0  0  0  0  0  0  0  0  0  0  0  0
   34.1330   29.1050   51.2290 H   0  0  0  0  0  0  0  0  0  0  0  0
   33.0620   28.0510   49.2800 H   0  0  0  0  0  0  0  0  0  0  0  0
   32.5610   30.8550   46.1950 Cl  0  0  0  0  0  0  0  0  0  0  0  0
   32.8820   29.1540   45.8180 C   0  0  0  0  0  0  0  0  0  0  0  0
   33.7000   28.4070   46.6370 C   0  0  0  0  0  0  0  0  0  0  0  0
   33.8850   27.0960   46.2570 C   0  0  0  0  0  0  0  0  0  0  0  0
   34.5080   26.4580   46.8480 H   0  0  0  0  0  0  0  0  0  0  0  0
   33.3180   26.5180   45.1450 C   0  0  0  0  0  0  0  0  0  0  0  0
   33.4880   25.4790   44.8770 H   0  0  0  0  0  0  0  0  0  0  0  0
   32.4980   27.3020   44.3400 C   0  0  0  0  0  0  0  0  0  0  0  0
   32.0120   26.9480   43.4570 H   0  0  0  0  0  0  0  0  0  0  0  0
   32.2850   28.6220   44.6840 C   0  0  0  0  0  0  0  0  0  0  0  0
   31.2500   29.6490   43.6870 Cl  0  0  0  0  0  0  0  0  0  0  0  0
   38.3720   33.1190   49.3530 C   0  0  0  0  0  0  0  0  0  0  0  0
   39.1100   33.1520   48.1470 C   0  0  0  0  0  0  0  0  0  0  0  0
   38.7520   32.2500   47.1260 C   0  0  0  0  0  0  0  0  0  0  0  0
   37.7160   31.4170   47.3930 N   0  0  0  0  0  0  0  0  0  0  0  0
   37.0290   31.3960   48.5330 C   0  0  0  0  0  0  0  0  0  0  0  0
   37.3730   32.2510   49.4920 N   0  0  0  0  0  0  0  0  0  0  0  0
   38.6470   33.8220   50.1550 H   0  0  0  0  0  0  0  0  0  0  0  0
   39.9290   33.8350   47.9840 H   0  0  0  0  0  0  0  0  0  0  0  0
   39.2960   32.2620   46.2160 H   0  0  0  0  0  0  0  0  0  0  0  0
  1  2  1  0  0  0  0
  2  3  2  0  0  0  0
  2  7  1  0  0  0  0
  3  8  1  0  0  0  0
  4  9  1  0  0  0  0
  4  3  1  0  0  0  0
  5  4  2  0  0  0  0
  6  5  1  0  0  0  0
  6  1  2  0  0  0  0
 11 10  1  0  0  0  0
 11 12  1  0  0  0  0
 12  5  1  0  0  0  0
 13 12  2  0  0  0  0
 13 14  1  0  0  0  0
 15 13  1  0  0  0  0
 16 15  1  0  0  0  0
 17 19  1  0  0  0  0
 17 15  2  0  0  0  0
 18 17  1  0  0  0  0
 19 11  2  0  0  0  0
 20 19  1  0  0  0  0
 21 26  1  0  0  0  0
 21 27  1  0  0  0  0
 22 21  2  0  0  0  0
 23 24  2  0  0  0  0
 23 22  1  0  0  0  0
 24 25  1  0  0  0  0
 25  1  1  0  0  0  0
 25 26  2  0  0  0  0
 28 22  1  0  0  0  0
 29 23  1  0  0  0  0
M  END
>  <minimizedAffinity>
-5.28768063

>  <minimizedRMSD>
1.41677272

$$$$
