
 OpenBabel03272502483D

 44 47  0  0  0  0  0  0  0  0999 V2000
   34.4850   27.6960   49.4420 Cl  0  0  0  0  0  0  0  0  0  0  0  0
   33.7850   28.5880   48.1330 C   0  0  0  0  0  0  0  0  0  0  0  0
   34.3060   29.8150   47.7990 C   0  0  0  0  0  0  0  0  0  0  0  0
   33.7740   30.5510   46.7640 C   0  0  0  0  0  0  0  0  0  0  0  0
   32.7010   30.0870   46.0270 C   0  0  0  0  0  0  0  0  0  0  0  0
   32.1690   28.8600   46.3510 C   0  0  0  0  0  0  0  0  0  0  0  0
   30.8020   28.1700   45.4790 Cl  0  0  0  0  0  0  0  0  0  0  0  0
   32.7290   28.1530   47.3920 C   0  0  0  0  0  0  0  0  0  0  0  0
   34.1440   31.5230   46.4580 H   0  0  0  0  0  0  0  0  0  0  0  0
   33.9110   29.6210   43.3950 Cl  0  0  0  0  0  0  0  0  0  0  0  0
   32.5840   30.7590   43.6420 C   0  0  0  0  0  0  0  0  0  0  0  0
   32.1320   30.8610   44.9300 C   0  0  0  0  0  0  0  0  0  0  0  0
   31.0930   31.7460   45.1510 C   0  0  0  0  0  0  0  0  0  0  0  0
   30.6920   31.8730   46.1330 H   0  0  0  0  0  0  0  0  0  0  0  0
   30.5720   32.4680   44.0890 C   0  0  0  0  0  0  0  0  0  0  0  0
   29.7510   33.1540   44.3170 H   0  0  0  0  0  0  0  0  0  0  0  0
   31.0820   32.3070   42.8280 C   0  0  0  0  0  0  0  0  0  0  0  0
   30.6260   32.9030   42.0480 H   0  0  0  0  0  0  0  0  0  0  0  0
   32.1260   31.4340   42.5390 C   0  0  0  0  0  0  0  0  0  0  0  0
   32.7500   31.2530   40.9350 Cl  0  0  0  0  0  0  0  0  0  0  0  0
   36.5830   30.6540   50.5480 C   0  0  0  0  0  0  0  0  0  0  0  0
   37.5920   31.3700   49.9160 C   0  0  0  0  0  0  0  0  0  0  0  0
   37.4730   31.5540   48.5480 C   0  0  0  0  0  0  0  0  0  0  0  0
   36.3980   31.0390   47.8900 N   0  0  0  0  0  0  0  0  0  0  0  0
   35.4390   30.3480   48.5480 C   0  0  0  0  0  0  0  0  0  0  0  0
   35.5440   30.1640   49.8680 N   0  0  0  0  0  0  0  0  0  0  0  0
   36.7330   30.5450   51.6150 H   0  0  0  0  0  0  0  0  0  0  0  0
   38.4720   31.8070   50.3770 H   0  0  0  0  0  0  0  0  0  0  0  0
   38.4720   32.2930   47.7620 C   0  0  0  0  0  0  0  0  0  0  0  0
   39.1690   33.3810   48.2350 C   0  0  0  0  0  0  0  0  0  0  0  0
   40.0220   33.8570   47.2850 N   0  0  0  0  0  0  0  0  0  0  0  0
   39.8600   33.0720   46.2220 C   0  0  0  0  0  0  0  0  0  0  0  0
   38.9290   32.1430   46.5270 N   0  0  0  0  0  0  0  0  0  0  0  0
   40.6030   31.8270   44.2680 C   0  0  0  0  0  0  0  0  0  0  0  0
   40.1900   30.7880   44.7940 O   0  0  0  0  0  0  0  0  0  0  0  0
   40.4700   33.0830   44.9510 N   0  0  0  0  0  0  0  0  0  0  0  0
   39.0760   33.8250   49.2300 H   0  0  0  0  0  0  0  0  0  0  0  0
   40.6820   34.6630   47.3340 H   0  0  0  0  0  0  0  0  0  0  0  0
   41.0820   31.8020   43.2600 H   0  0  0  0  0  0  0  0  0  0  0  0
   40.8330   33.9500   44.4730 H   0  0  0  0  0  0  0  0  0  0  0  0
   32.1470   26.8230   47.7390 C   0  0  0  0  0  0  0  0  0  0  0  0
   33.1590   25.8640   47.8280 F   0  0  0  0  0  0  0  0  0  0  0  0
   31.3300   26.3570   46.6960 F   0  0  0  0  0  0  0  0  0  0  0  0
   31.3710   26.8570   48.8650 F   0  0  0  0  0  0  0  0  0  0  0  0
  2  1  1  0  0  0  0
  3  2  1  0  0  0  0
  3 25  1  0  0  0  0
  4  3  2  0  0  0  0
  5  6  2  0  0  0  0
  5  4  1  0  0  0  0
  6  8  1  0  0  0  0
  7  6  1  0  0  0  0
  8 41  1  0  0  0  0
  8  2  2  0  0  0  0
  9  4  1  0  0  0  0
 10 11  1  0  0  0  0
 11 12  1  0  0  0  0
 12 13  2  0  0  0  0
 12  5  1  0  0  0  0
 13 14  1  0  0  0  0
 15 16  1  0  0  0  0
 15 13  1  0  0  0  0
 17 15  2  0  0  0  0
 18 17  1  0  0  0  0
 19 17  1  0  0  0  0
 19 11  2  0  0  0  0
 20 19  1  0  0  0  0
 21 27  1  0  0  0  0
 22 28  1  0  0  0  0
 22 21  1  0  0  0  0
 23 22  2  0  0  0  0
 24 23  1  0  0  0  0
 24 25  2  0  0  0  0
 25 26  1  0  0  0  0
 26 21  2  0  0  0  0
 29 30  2  0  0  0  0
 29 23  1  0  0  0  0
 30 37  1  0  0  0  0
 31 38  1  0  0  0  0
 31 30  1  0  0  0  0
 32 33  2  0  0  0  0
 32 31  1  0  0  0  0
 33 29  1  0  0  0  0
 34 35  2  0  0  0  0
 34 36  1  0  0  0  0
 36 32  1  0  0  0  0
 39 34  1  0  0  0  0
 40 36  1  0  0  0  0
 41 42  1  0  0  0  0
 41 44  1  0  0  0  0
 43 41  1  0  0  0  0
M  END
>  <minimizedAffinity>
-6.95188284

>  <minimizedRMSD>
0.182444349

$$$$
