
 OpenBabel03262523053D

 43 48  0  0  0  0  0  0  0  0999 V2000
   37.3240   30.9870   49.6610 C   0  0  0  0  0  0  0  0  0  0  0  0
   37.5480   30.6120   50.9650 C   0  0  0  0  0  0  0  0  0  0  0  0
   36.7250   29.6850   51.5360 C   0  0  0  0  0  0  0  0  0  0  0  0
   35.6980   29.1420   50.8160 N   0  0  0  0  0  0  0  0  0  0  0  0
   35.5140   29.5300   49.5620 C   0  0  0  0  0  0  0  0  0  0  0  0
   36.3090   30.4450   48.9690 N   0  0  0  0  0  0  0  0  0  0  0  0
   38.3760   31.0650   51.5090 H   0  0  0  0  0  0  0  0  0  0  0  0
   36.8780   29.3710   52.5610 H   0  0  0  0  0  0  0  0  0  0  0  0
   34.4230   28.9530   48.8000 C   0  0  0  0  0  0  0  0  0  0  0  0
   34.4860   28.8420   47.4350 C   0  0  0  0  0  0  0  0  0  0  0  0
   33.5400   28.3230   46.5760 C   0  0  0  0  0  0  0  0  0  0  0  0
   32.3970   27.8640   47.2090 C   0  0  0  0  0  0  0  0  0  0  0  0
   31.4170   27.3360   46.4280 N   0  0  0  0  0  0  0  0  0  0  0  0
   30.2680   26.8630   46.9430 C   0  0  0  0  0  0  0  0  0  0  0  0
   30.0720   26.9140   48.3180 C   0  0  0  0  0  0  0  0  0  0  0  0
   31.0700   27.4520   49.1180 C   0  0  0  0  0  0  0  0  0  0  0  0
   32.2590   27.9420   48.5890 C   0  0  0  0  0  0  0  0  0  0  0  0
   33.2540   28.4770   49.3750 C   0  0  0  0  0  0  0  0  0  0  0  0
   35.4070   29.2170   46.9740 H   0  0  0  0  0  0  0  0  0  0  0  0
   33.7030   28.2890   45.5130 H   0  0  0  0  0  0  0  0  0  0  0  0
   29.4830   26.4420   46.3280 H   0  0  0  0  0  0  0  0  0  0  0  0
   29.1570   26.5400   48.7610 H   0  0  0  0  0  0  0  0  0  0  0  0
   30.9460   27.5040   50.1940 H   0  0  0  0  0  0  0  0  0  0  0  0
   33.1320   28.5300   50.4410 H   0  0  0  0  0  0  0  0  0  0  0  0
   39.4160   33.9380   48.9960 C   0  0  0  0  0  0  0  0  0  0  0  0
   39.7600   33.7580   47.6420 C   0  0  0  0  0  0  0  0  0  0  0  0
   39.2640   32.6170   46.9770 C   0  0  0  0  0  0  0  0  0  0  0  0
   38.4880   31.7750   47.6970 N   0  0  0  0  0  0  0  0  0  0  0  0
   38.1700   31.9740   49.0030 C   0  0  0  0  0  0  0  0  0  0  0  0
   38.6380   33.0520   49.6370 N   0  0  0  0  0  0  0  0  0  0  0  0
   39.8080   34.8210   49.4870 H   0  0  0  0  0  0  0  0  0  0  0  0
   40.3690   34.4300   47.0990 H   0  0  0  0  0  0  0  0  0  0  0  0
   40.4050   31.2570   45.3520 C   0  0  0  0  0  3  0  0  0  0  0  0
   39.5380   32.3040   45.5830 C   0  0  0  0  0  0  0  0  0  0  0  0
   38.9750   32.9990   44.5370 C   0  0  0  0  0  0  0  0  0  0  0  0
   38.2960   33.8200   44.7120 H   0  0  0  0  0  0  0  0  0  0  0  0
   39.2580   32.6740   43.2160 C   0  0  0  0  0  0  0  0  0  0  0  0
   40.1300   31.6200   42.9990 C   0  0  0  0  0  0  0  0  0  0  0  0
   40.7170   30.8960   44.0360 C   0  0  0  0  0  3  0  0  0  0  0  0
   40.2850   31.4500   41.6160 O   0  0  0  0  0  0  0  0  0  0  0  0
   39.2520   32.1850   40.9660 C   0  0  0  0  0  3  0  0  0  0  0  0
   38.3510   31.5480   40.8050 H   0  0  0  0  0  0  0  0  0  0  0  0
   38.8970   33.1280   41.9550 O   0  0  0  0  0  0  0  0  0  0  0  0
  1  2  1  0  0  0  0
  2  7  1  0  0  0  0
  2  3  2  0  0  0  0
  3  8  1  0  0  0  0
  4  3  1  0  0  0  0
  5  4  2  0  0  0  0
  6  5  1  0  0  0  0
  6  1  2  0  0  0  0
  9 18  1  0  0  0  0
  9  5  1  0  0  0  0
 10  9  2  0  0  0  0
 11 12  2  0  0  0  0
 11 10  1  0  0  0  0
 12 17  1  0  0  0  0
 13 14  2  0  0  0  0
 13 12  1  0  0  0  0
 14 15  1  0  0  0  0
 15 22  1  0  0  0  0
 15 16  2  0  0  0  0
 16 23  1  0  0  0  0
 17 16  1  0  0  0  0
 17 18  2  0  0  0  0
 18 24  1  0  0  0  0
 19 10  1  0  0  0  0
 20 11  1  0  0  0  0
 21 14  1  0  0  0  0
 25 31  1  0  0  0  0
 25 30  1  0  0  0  0
 26 25  2  0  0  0  0
 27 26  1  0  0  0  0
 27 28  2  0  0  0  0
 28 29  1  0  0  0  0
 29 30  2  0  0  0  0
 29  1  1  0  0  0  0
 32 26  1  0  0  0  0
 33 34  1  0  0  0  0
 34 27  1  0  0  0  0
 35 36  1  0  0  0  0
 35 34  2  0  0  0  0
 37 35  1  0  0  0  0
 38 37  2  0  0  0  0
 38 39  1  0  0  0  0
 39 33  2  0  0  0  0
 40 38  1  0  0  0  0
 41 40  1  0  0  0  0
 41 43  1  0  0  0  0
 42 41  1  0  0  0  0
 43 37  1  0  0  0  0
M  END
>  <minimizedAffinity>
-8.28797054

>  <minimizedRMSD>
0.486915588

$$$$
