
 OpenBabel03272505063D

 35 38  0  0  1  0  0  0  0  0999 V2000
   36.8050   29.1660   50.3490 C   0  0  0  0  0  0  0  0  0  0  0  0
   37.2720   29.5790   49.1020 C   0  0  0  0  0  0  0  0  0  0  0  0
   36.3400   30.2400   48.2870 C   0  0  0  0  0  0  0  0  0  0  0  0
   35.0890   30.4290   48.7510 N   0  0  0  0  0  0  0  0  0  0  0  0
   34.6940   30.0100   49.9600 C   0  0  0  0  0  0  0  0  0  0  0  0
   35.5560   29.3750   50.7670 N   0  0  0  0  0  0  0  0  0  0  0  0
   36.5820   30.7420   46.9680 N   0  0  0  0  0  0  0  0  0  0  0  0
   37.7340   31.5030   46.5900 C   0  0  0  0  0  0  0  0  0  0  0  0
   38.4000   31.1400   45.3230 C   0  0  0  0  0  0  0  0  0  0  0  0
   37.5120   30.6960   44.2110 C   0  0  0  0  0  0  0  0  0  0  0  0
   36.4830   29.7460   44.7600 C   0  0  0  0  0  0  0  0  0  0  0  0
   35.7220   30.5630   45.8320 C   0  0  1  0  0  0  0  0  0  0  0  0
   37.5850   28.6590   50.9290 H   0  0  0  0  0  0  0  0  0  0  0  0
   38.2450   29.4610   48.6810 H   0  0  0  0  0  0  0  0  0  0  0  0
   33.6990   30.1470   50.3610 H   0  0  0  0  0  0  0  0  0  0  0  0
   38.4680   31.4500   47.4250 H   0  0  0  0  0  0  0  0  0  0  0  0
   37.3960   32.5800   46.5680 H   0  0  0  0  0  0  0  0  0  0  0  0
   38.9690   32.0360   44.9610 H   0  0  0  0  0  0  0  0  0  0  0  0
   39.1640   30.3490   45.5010 H   0  0  0  0  0  0  0  0  0  0  0  0
   36.9400   31.5810   43.8300 H   0  0  0  0  0  0  0  0  0  0  0  0
   38.1410   30.2480   43.4180 H   0  0  0  0  0  0  0  0  0  0  0  0
   37.0550   28.9510   45.3030 H   0  0  0  0  0  0  0  0  0  0  0  0
   35.7970   29.3250   44.0190 H   0  0  0  0  0  0  0  0  0  0  0  0
   35.3450   31.4930   45.3780 H   0  0  0  0  0  0  0  0  0  0  0  0
   34.6100   28.3700   46.4900 C   0  0  0  0  0  3  0  0  0  0  0  0
   34.5250   29.6970   46.1260 C   0  0  0  0  0  0  0  0  0  0  0  0
   33.2300   30.2190   46.0390 C   0  0  0  0  0  0  0  0  0  0  0  0
   33.1470   31.2540   45.7570 H   0  0  0  0  0  0  0  0  0  0  0  0
   32.0980   29.4970   46.2900 C   0  0  0  0  0  0  0  0  0  0  0  0
   32.2250   28.1710   46.6520 C   0  0  0  0  0  0  0  0  0  0  0  0
   33.4830   27.6160   46.7490 C   0  0  0  0  0  3  0  0  0  0  0  0
   30.9250   27.6650   46.8500 O   0  0  0  0  0  0  0  0  0  0  0  0
   30.0750   28.4970   46.0540 C   0  0  0  0  0  3  0  0  0  0  0  0
   30.2300   28.2000   44.9810 H   0  0  0  0  0  0  0  0  0  0  0  0
   30.7330   29.7530   46.2810 O   0  0  0  0  0  0  0  0  0  0  0  0
  1  6  1  0  0  0  0
  1 13  1  0  0  0  0
  2  1  2  0  0  0  0
  3  4  2  0  0  0  0
  3  2  1  0  0  0  0
  4  5  1  0  0  0  0
  5 15  1  0  0  0  0
  5  6  2  0  0  0  0
  7  3  1  0  0  0  0
  8  7  1  0  0  0  0
  8 16  1  0  0  0  0
  9 19  1  0  0  0  0
  9  8  1  0  0  0  0
 10 11  1  0  0  0  0
 10  9  1  0  0  0  0
 11 22  1  0  0  0  0
 11 12  1  0  0  0  0
 12 24  1  6  0  0  0
 12 26  1  0  0  0  0
 12  7  1  0  0  0  0
 14  2  1  0  0  0  0
 17  8  1  0  0  0  0
 18  9  1  0  0  0  0
 20 10  1  0  0  0  0
 21 10  1  0  0  0  0
 23 11  1  0  0  0  0
 25 31  1  0  0  0  0
 26 25  2  0  0  0  0
 27 26  1  0  0  0  0
 27 29  2  0  0  0  0
 28 27  1  0  0  0  0
 29 30  1  0  0  0  0
 30 31  2  0  0  0  0
 30 32  1  0  0  0  0
 33 35  1  0  0  0  0
 33 32  1  0  0  0  0
 34 33  1  0  0  0  0
 35 29  1  0  0  0  0
M  END
>  <minimizedAffinity>
-4.37162828

>  <minimizedRMSD>
3.30369902

$$$$
