
 OpenBabel03272507123D

 42 47  0  0  0  0  0  0  0  0999 V2000
   35.8410   29.1030   49.8570 C   0  0  0  0  0  0  0  0  0  0  0  0
   34.7980   29.6080   50.5820 C   0  0  0  0  0  0  0  0  0  0  0  0
   33.6350   29.0310   50.0630 C   0  0  0  0  0  0  0  0  0  0  0  0
   34.0570   28.1870   49.0240 C   0  0  0  0  0  0  0  0  0  0  0  0
   35.3490   28.2830   48.9660 O   0  0  0  0  0  0  0  0  0  0  0  0
   34.8370   30.3240   51.4100 H   0  0  0  0  0  0  0  0  0  0  0  0
   32.6610   29.2590   50.4540 H   0  0  0  0  0  0  0  0  0  0  0  0
   33.5210   26.4550   47.3270 C   0  0  0  0  0  0  0  0  0  0  0  0
   33.1140   27.4100   48.2430 C   0  0  0  0  0  0  0  0  0  0  0  0
   31.7810   27.6590   48.4500 C   0  0  0  0  0  0  0  0  0  0  0  0
   30.8420   26.9370   47.7250 C   0  0  0  0  0  0  0  0  0  0  0  0
   29.5020   26.9710   47.7250 N   0  0  0  0  0  0  0  0  0  0  0  0
   29.0820   26.0670   46.8370 N   0  0  0  0  0  0  0  0  0  0  0  0
   30.1460   25.4640   46.2800 C   0  0  0  0  0  0  0  0  0  0  0  0
   31.3040   25.9960   46.8250 C   0  0  0  0  0  0  0  0  0  0  0  0
   32.6330   25.7270   46.5980 C   0  0  0  0  0  0  0  0  0  0  0  0
   34.5900   26.2690   47.1750 H   0  0  0  0  0  0  0  0  0  0  0  0
   31.3670   28.3980   49.1550 H   0  0  0  0  0  0  0  0  0  0  0  0
   28.8650   27.5880   48.3070 H   0  0  0  0  0  0  0  0  0  0  0  0
   30.1640   24.6750   45.5150 H   0  0  0  0  0  0  0  0  0  0  0  0
   32.9820   24.9910   45.8920 H   0  0  0  0  0  0  0  0  0  0  0  0
   37.2130   29.4860   50.1240 C   0  0  0  0  0  0  0  0  0  0  0  0
   37.8330   28.9120   51.0590 O   0  0  0  0  0  0  0  0  0  0  0  0
   37.7940   30.5140   49.2920 C   0  0  0  0  0  0  0  0  0  0  0  0
   38.2290   31.6750   49.9240 C   0  0  0  0  0  0  0  0  0  0  0  0
   38.7950   32.6850   49.1450 C   0  0  0  0  0  0  0  0  0  0  0  0
   38.8830   32.4610   47.8050 N   0  0  0  0  0  0  0  0  0  0  0  0
   38.4600   31.3440   47.2260 C   0  0  0  0  0  0  0  0  0  0  0  0
   37.9160   30.3740   47.9750 N   0  0  0  0  0  0  0  0  0  0  0  0
   38.1230   31.7730   50.9930 H   0  0  0  0  0  0  0  0  0  0  0  0
   39.1240   33.5750   49.6640 H   0  0  0  0  0  0  0  0  0  0  0  0
   37.4840   31.3300   44.9590 C   0  0  0  0  0  3  0  0  0  0  0  0
   38.5770   31.1530   45.7840 C   0  0  0  0  0  0  0  0  0  0  0  0
   39.7630   30.7940   45.1940 C   0  0  0  0  0  0  0  0  0  0  0  0
   40.6430   30.6450   45.7950 H   0  0  0  0  0  0  0  0  0  0  0  0
   39.8560   30.6170   43.8170 C   0  0  0  0  0  0  0  0  0  0  0  0
   38.7640   30.7940   42.9910 C   0  0  0  0  0  0  0  0  0  0  0  0
   37.5760   31.1540   43.5930 C   0  0  0  0  0  3  0  0  0  0  0  0
   39.1690   30.5460   41.6740 O   0  0  0  0  0  0  0  0  0  0  0  0
   40.5850   30.5100   41.6850 C   0  0  0  0  0  3  0  0  0  0  0  0
   41.0010   31.5100   41.4190 H   0  0  0  0  0  0  0  0  0  0  0  0
   40.9500   30.2600   43.0430 O   0  0  0  0  0  0  0  0  0  0  0  0
  1 22  1  0  0  0  0
  1  2  2  0  0  0  0
  2  6  1  0  0  0  0
  3  7  1  0  0  0  0
  3  2  1  0  0  0  0
  4  3  2  0  0  0  0
  5  4  1  0  0  0  0
  5  1  1  0  0  0  0
  8  9  1  0  0  0  0
  9 10  2  0  0  0  0
  9  4  1  0  0  0  0
 10 18  1  0  0  0  0
 11 10  1  0  0  0  0
 12 11  1  0  0  0  0
 12 19  1  0  0  0  0
 13 12  1  0  0  0  0
 14 15  1  0  0  0  0
 14 13  2  0  0  0  0
 15 11  2  0  0  0  0
 16 15  1  0  0  0  0
 16  8  2  0  0  0  0
 17  8  1  0  0  0  0
 20 14  1  0  0  0  0
 21 16  1  0  0  0  0
 22 23  2  0  0  0  0
 24 25  1  0  0  0  0
 24 22  1  0  0  0  0
 25 30  1  0  0  0  0
 26 31  1  0  0  0  0
 26 25  2  0  0  0  0
 27 26  1  0  0  0  0
 28 27  2  0  0  0  0
 28 29  1  0  0  0  0
 29 24  2  0  0  0  0
 32 33  1  0  0  0  0
 33 28  1  0  0  0  0
 34 33  2  0  0  0  0
 34 35  1  0  0  0  0
 36 34  1  0  0  0  0
 37 38  1  0  0  0  0
 37 36  2  0  0  0  0
 38 32  2  0  0  0  0
 39 40  1  0  0  0  0
 39 37  1  0  0  0  0
 40 42  1  0  0  0  0
 41 40  1  0  0  0  0
 42 36  1  0  0  0  0
M  END
>  <minimizedAffinity>
-7.42686176

>  <minimizedRMSD>
0.155263871

$$$$
