
 OpenBabel03272507123D

 42 47  0  0  0  0  0  0  0  0999 V2000
   35.8420   29.1040   49.8560 C   0  0  0  0  0  0  0  0  0  0  0  0
   34.8000   29.6080   50.5820 C   0  0  0  0  0  0  0  0  0  0  0  0
   33.6360   29.0310   50.0630 C   0  0  0  0  0  0  0  0  0  0  0  0
   34.0580   28.1870   49.0230 C   0  0  0  0  0  0  0  0  0  0  0  0
   35.3500   28.2830   48.9650 O   0  0  0  0  0  0  0  0  0  0  0  0
   34.8390   30.3240   51.4110 H   0  0  0  0  0  0  0  0  0  0  0  0
   32.6630   29.2570   50.4550 H   0  0  0  0  0  0  0  0  0  0  0  0
   33.5220   26.4550   47.3270 C   0  0  0  0  0  0  0  0  0  0  0  0
   33.1150   27.4110   48.2430 C   0  0  0  0  0  0  0  0  0  0  0  0
   31.7820   27.6600   48.4500 C   0  0  0  0  0  0  0  0  0  0  0  0
   30.8420   26.9380   47.7260 C   0  0  0  0  0  0  0  0  0  0  0  0
   29.5030   26.9710   47.7250 N   0  0  0  0  0  0  0  0  0  0  0  0
   29.0830   26.0680   46.8380 N   0  0  0  0  0  0  0  0  0  0  0  0
   30.1470   25.4650   46.2800 C   0  0  0  0  0  0  0  0  0  0  0  0
   31.3040   25.9970   46.8250 C   0  0  0  0  0  0  0  0  0  0  0  0
   32.6330   25.7270   46.5980 C   0  0  0  0  0  0  0  0  0  0  0  0
   34.5910   26.2700   47.1740 H   0  0  0  0  0  0  0  0  0  0  0  0
   31.3680   28.3990   49.1550 H   0  0  0  0  0  0  0  0  0  0  0  0
   28.8660   27.5890   48.3070 H   0  0  0  0  0  0  0  0  0  0  0  0
   30.1640   24.6760   45.5160 H   0  0  0  0  0  0  0  0  0  0  0  0
   32.9820   24.9910   45.8920 H   0  0  0  0  0  0  0  0  0  0  0  0
   37.2140   29.4870   50.1220 C   0  0  0  0  0  0  0  0  0  0  0  0
   37.8350   28.9130   51.0570 O   0  0  0  0  0  0  0  0  0  0  0  0
   37.7950   30.5150   49.2900 C   0  0  0  0  0  0  0  0  0  0  0  0
   38.2280   31.6770   49.9220 C   0  0  0  0  0  0  0  0  0  0  0  0
   38.7940   32.6880   49.1430 C   0  0  0  0  0  0  0  0  0  0  0  0
   38.8820   32.4630   47.8030 N   0  0  0  0  0  0  0  0  0  0  0  0
   38.4600   31.3460   47.2230 C   0  0  0  0  0  0  0  0  0  0  0  0
   37.9170   30.3750   47.9730 N   0  0  0  0  0  0  0  0  0  0  0  0
   38.1230   31.7750   50.9910 H   0  0  0  0  0  0  0  0  0  0  0  0
   39.1210   33.5780   49.6610 H   0  0  0  0  0  0  0  0  0  0  0  0
   37.4850   31.3330   44.9560 C   0  0  0  0  0  3  0  0  0  0  0  0
   38.5780   31.1550   45.7820 C   0  0  0  0  0  0  0  0  0  0  0  0
   39.7640   30.7940   45.1920 C   0  0  0  0  0  0  0  0  0  0  0  0
   40.6430   30.6440   45.7940 H   0  0  0  0  0  0  0  0  0  0  0  0
   39.8570   30.6170   43.8150 C   0  0  0  0  0  0  0  0  0  0  0  0
   38.7650   30.7950   42.9890 C   0  0  0  0  0  0  0  0  0  0  0  0
   37.5780   31.1570   43.5910 C   0  0  0  0  0  3  0  0  0  0  0  0
   39.1700   30.5470   41.6730 O   0  0  0  0  0  0  0  0  0  0  0  0
   40.5860   30.5090   41.6840 C   0  0  0  0  0  3  0  0  0  0  0  0
   41.0040   31.5080   41.4180 H   0  0  0  0  0  0  0  0  0  0  0  0
   40.9500   30.2590   43.0420 O   0  0  0  0  0  0  0  0  0  0  0  0
  1 22  1  0  0  0  0
  1  2  2  0  0  0  0
  2  6  1  0  0  0  0
  3  7  1  0  0  0  0
  3  2  1  0  0  0  0
  4  3  2  0  0  0  0
  5  4  1  0  0  0  0
  5  1  1  0  0  0  0
  8  9  1  0  0  0  0
  9 10  2  0  0  0  0
  9  4  1  0  0  0  0
 10 18  1  0  0  0  0
 11 10  1  0  0  0  0
 12 11  1  0  0  0  0
 12 19  1  0  0  0  0
 13 12  1  0  0  0  0
 14 15  1  0  0  0  0
 14 13  2  0  0  0  0
 15 11  2  0  0  0  0
 16 15  1  0  0  0  0
 16  8  2  0  0  0  0
 17  8  1  0  0  0  0
 20 14  1  0  0  0  0
 21 16  1  0  0  0  0
 22 23  2  0  0  0  0
 24 25  1  0  0  0  0
 24 22  1  0  0  0  0
 25 30  1  0  0  0  0
 26 31  1  0  0  0  0
 26 25  2  0  0  0  0
 27 26  1  0  0  0  0
 28 27  2  0  0  0  0
 28 29  1  0  0  0  0
 29 24  2  0  0  0  0
 32 33  1  0  0  0  0
 33 28  1  0  0  0  0
 34 33  2  0  0  0  0
 34 35  1  0  0  0  0
 36 34  1  0  0  0  0
 37 38  1  0  0  0  0
 37 36  2  0  0  0  0
 38 32  2  0  0  0  0
 39 40  1  0  0  0  0
 39 37  1  0  0  0  0
 40 42  1  0  0  0  0
 41 40  1  0  0  0  0
 42 36  1  0  0  0  0
M  END
>  <minimizedAffinity>
-7.42730093

>  <minimizedRMSD>
0.27473703

$$$$
