
 OpenBabel03272507123D

 42 47  0  0  0  0  0  0  0  0999 V2000
   35.8670   29.0870   49.8270 C   0  0  0  0  0  0  0  0  0  0  0  0
   34.8290   29.6210   50.5380 C   0  0  0  0  0  0  0  0  0  0  0  0
   33.6590   29.0520   50.0250 C   0  0  0  0  0  0  0  0  0  0  0  0
   34.0730   28.1830   49.0030 C   0  0  0  0  0  0  0  0  0  0  0  0
   35.3670   28.2580   48.9500 O   0  0  0  0  0  0  0  0  0  0  0  0
   34.8750   30.3510   51.3540 H   0  0  0  0  0  0  0  0  0  0  0  0
   32.6880   29.3010   50.4080 H   0  0  0  0  0  0  0  0  0  0  0  0
   33.5180   26.4370   47.3270 C   0  0  0  0  0  0  0  0  0  0  0  0
   33.1210   27.4060   48.2330 C   0  0  0  0  0  0  0  0  0  0  0  0
   31.7910   27.6700   48.4390 C   0  0  0  0  0  0  0  0  0  0  0  0
   30.8440   26.9490   47.7240 C   0  0  0  0  0  0  0  0  0  0  0  0
   29.5050   26.9950   47.7240 N   0  0  0  0  0  0  0  0  0  0  0  0
   29.0750   26.0850   46.8480 N   0  0  0  0  0  0  0  0  0  0  0  0
   30.1330   25.4660   46.2950 C   0  0  0  0  0  0  0  0  0  0  0  0
   31.2960   25.9930   46.8330 C   0  0  0  0  0  0  0  0  0  0  0  0
   32.6220   25.7090   46.6070 C   0  0  0  0  0  0  0  0  0  0  0  0
   34.5850   26.2400   47.1750 H   0  0  0  0  0  0  0  0  0  0  0  0
   31.3850   28.4200   49.1360 H   0  0  0  0  0  0  0  0  0  0  0  0
   28.8740   27.6240   48.3000 H   0  0  0  0  0  0  0  0  0  0  0  0
   30.1420   24.6680   45.5400 H   0  0  0  0  0  0  0  0  0  0  0  0
   32.9630   24.9620   45.9090 H   0  0  0  0  0  0  0  0  0  0  0  0
   37.2440   29.4540   50.0930 C   0  0  0  0  0  0  0  0  0  0  0  0
   37.8840   28.8150   50.9710 O   0  0  0  0  0  0  0  0  0  0  0  0
   37.8050   30.5420   49.3270 C   0  0  0  0  0  0  0  0  0  0  0  0
   38.2130   31.6720   50.0300 C   0  0  0  0  0  0  0  0  0  0  0  0
   38.7600   32.7400   49.3150 C   0  0  0  0  0  0  0  0  0  0  0  0
   38.8570   32.5980   47.9650 N   0  0  0  0  0  0  0  0  0  0  0  0
   38.4600   31.5090   47.3170 C   0  0  0  0  0  0  0  0  0  0  0  0
   37.9350   30.4840   48.0040 N   0  0  0  0  0  0  0  0  0  0  0  0
   38.1020   31.7030   51.1020 H   0  0  0  0  0  0  0  0  0  0  0  0
   39.0670   33.6030   49.8880 H   0  0  0  0  0  0  0  0  0  0  0  0
   38.0900   32.4000   45.0450 C   0  0  0  0  0  3  0  0  0  0  0  0
   38.5860   31.4080   45.8680 C   0  0  0  0  0  0  0  0  0  0  0  0
   39.1950   30.3350   45.2650 C   0  0  0  0  0  0  0  0  0  0  0  0
   39.5980   29.5360   45.8630 H   0  0  0  0  0  0  0  0  0  0  0  0
   39.3060   30.2560   43.8800 C   0  0  0  0  0  0  0  0  0  0  0  0
   38.8090   31.2470   43.0590 C   0  0  0  0  0  0  0  0  0  0  0  0
   38.1990   32.3220   43.6730 C   0  0  0  0  0  3  0  0  0  0  0  0
   39.0700   30.8850   41.7320 O   0  0  0  0  0  0  0  0  0  0  0  0
   39.9920   29.8090   41.7790 C   0  0  0  0  0  3  0  0  0  0  0  0
   41.0360   30.1880   41.6760 H   0  0  0  0  0  0  0  0  0  0  0  0
   39.8790   29.2670   43.0950 O   0  0  0  0  0  0  0  0  0  0  0  0
  1 22  1  0  0  0  0
  1  2  2  0  0  0  0
  2  6  1  0  0  0  0
  3  7  1  0  0  0  0
  3  2  1  0  0  0  0
  4  3  2  0  0  0  0
  5  4  1  0  0  0  0
  5  1  1  0  0  0  0
  8  9  1  0  0  0  0
  9 10  2  0  0  0  0
  9  4  1  0  0  0  0
 10 18  1  0  0  0  0
 11 12  1  0  0  0  0
 11 10  1  0  0  0  0
 12 19  1  0  0  0  0
 13 12  1  0  0  0  0
 14 15  1  0  0  0  0
 14 13  2  0  0  0  0
 15 11  2  0  0  0  0
 16 15  1  0  0  0  0
 16  8  2  0  0  0  0
 17  8  1  0  0  0  0
 20 14  1  0  0  0  0
 21 16  1  0  0  0  0
 22 23  2  0  0  0  0
 24 25  1  0  0  0  0
 24 22  1  0  0  0  0
 25 30  1  0  0  0  0
 26 31  1  0  0  0  0
 26 25  2  0  0  0  0
 27 26  1  0  0  0  0
 28 27  2  0  0  0  0
 28 29  1  0  0  0  0
 29 24  2  0  0  0  0
 32 33  1  0  0  0  0
 33 28  1  0  0  0  0
 34 35  1  0  0  0  0
 34 33  2  0  0  0  0
 36 34  1  0  0  0  0
 37 38  1  0  0  0  0
 37 36  2  0  0  0  0
 38 32  2  0  0  0  0
 39 40  1  0  0  0  0
 39 37  1  0  0  0  0
 40 42  1  0  0  0  0
 41 40  1  0  0  0  0
 42 36  1  0  0  0  0
M  END
>  <minimizedAffinity>
-7.44194317

>  <minimizedRMSD>
0.290379822

$$$$
