
 OpenBabel03272507153D

 42 47  0  0  0  0  0  0  0  0999 V2000
   36.7520   27.9300   31.5280 C   0  0  0  0  0  0  0  0  0  0  0  0
   36.3860   28.9810   30.7360 C   0  0  0  0  0  0  0  0  0  0  0  0
   35.6240   29.8380   31.5370 C   0  0  0  0  0  0  0  0  0  0  0  0
   35.5740   29.2340   32.8030 C   0  0  0  0  0  0  0  0  0  0  0  0
   36.2530   28.1320   32.7180 O   0  0  0  0  0  0  0  0  0  0  0  0
   36.6270   29.1460   29.6790 H   0  0  0  0  0  0  0  0  0  0  0  0
   35.2060   30.7510   31.1590 H   0  0  0  0  0  0  0  0  0  0  0  0
   33.5230   29.5880   34.1560 C   0  0  0  0  0  0  0  0  0  0  0  0
   34.8620   29.8430   33.9090 C   0  0  0  0  0  0  0  0  0  0  0  0
   35.5740   30.6930   34.7160 C   0  0  0  0  0  0  0  0  0  0  0  0
   34.9310   31.2980   35.7880 C   0  0  0  0  0  0  0  0  0  0  0  0
   35.3720   32.1530   36.7210 N   0  0  0  0  0  0  0  0  0  0  0  0
   34.3440   32.4270   37.5270 N   0  0  0  0  0  0  0  0  0  0  0  0
   33.2600   31.7500   37.1100 C   0  0  0  0  0  0  0  0  0  0  0  0
   33.5950   31.0070   35.9890 C   0  0  0  0  0  0  0  0  0  0  0  0
   32.8570   30.1600   35.1960 C   0  0  0  0  0  0  0  0  0  0  0  0
   32.9700   28.9060   33.5010 H   0  0  0  0  0  0  0  0  0  0  0  0
   36.6370   30.9540   34.5950 H   0  0  0  0  0  0  0  0  0  0  0  0
   36.3470   32.5570   36.8270 H   0  0  0  0  0  0  0  0  0  0  0  0
   32.2490   31.7430   37.5410 H   0  0  0  0  0  0  0  0  0  0  0  0
   31.8160   29.9410   35.3620 H   0  0  0  0  0  0  0  0  0  0  0  0
   37.5600   26.8370   31.0220 C   0  0  0  0  0  0  0  0  0  0  0  0
   38.3820   27.0680   30.0950 O   0  0  0  0  0  0  0  0  0  0  0  0
   37.3720   25.5350   31.6190 C   0  0  0  0  0  0  0  0  0  0  0  0
   36.4930   24.6640   30.9820 C   0  0  0  0  0  0  0  0  0  0  0  0
   36.2920   23.3980   31.5350 C   0  0  0  0  0  0  0  0  0  0  0  0
   36.9780   23.1020   32.6730 N   0  0  0  0  0  0  0  0  0  0  0  0
   37.8100   23.9520   33.2630 C   0  0  0  0  0  0  0  0  0  0  0  0
   38.0030   25.1670   32.7300 N   0  0  0  0  0  0  0  0  0  0  0  0
   35.9900   24.9770   30.0810 H   0  0  0  0  0  0  0  0  0  0  0  0
   35.6050   22.7430   31.0190 H   0  0  0  0  0  0  0  0  0  0  0  0
   38.0800   24.0250   35.7150 C   0  0  0  0  0  3  0  0  0  0  0  0
   38.5210   23.5850   34.4820 C   0  0  0  0  0  0  0  0  0  0  0  0
   39.6450   22.7980   34.4580 C   0  0  0  0  0  0  0  0  0  0  0  0
   40.0290   22.4310   33.5220 H   0  0  0  0  0  0  0  0  0  0  0  0
   40.3110   22.4570   35.6320 C   0  0  0  0  0  0  0  0  0  0  0  0
   39.8700   22.8970   36.8640 C   0  0  0  0  0  0  0  0  0  0  0  0
   38.7410   23.6880   36.8790 C   0  0  0  0  0  3  0  0  0  0  0  0
   40.7380   22.3960   37.8410 O   0  0  0  0  0  0  0  0  0  0  0  0
   41.5310   21.4060   37.2100 C   0  0  0  0  0  3  0  0  0  0  0  0
   41.0860   20.3950   37.3640 H   0  0  0  0  0  0  0  0  0  0  0  0
   41.4470   21.6840   35.8120 O   0  0  0  0  0  0  0  0  0  0  0  0
  1  5  1  0  0  0  0
  2  1  2  0  0  0  0
  2  3  1  0  0  0  0
  3  4  2  0  0  0  0
  4  9  1  0  0  0  0
  5  4  1  0  0  0  0
  6  2  1  0  0  0  0
  7  3  1  0  0  0  0
  8 16  1  0  0  0  0
  9  8  2  0  0  0  0
  9 10  1  0  0  0  0
 10 11  2  0  0  0  0
 11 15  1  0  0  0  0
 11 12  1  0  0  0  0
 12 19  1  0  0  0  0
 12 13  1  0  0  0  0
 14 13  2  0  0  0  0
 14 20  1  0  0  0  0
 15 14  1  0  0  0  0
 16 21  1  0  0  0  0
 16 15  2  0  0  0  0
 17  8  1  0  0  0  0
 18 10  1  0  0  0  0
 22  1  1  0  0  0  0
 22 24  1  0  0  0  0
 23 22  2  0  0  0  0
 24 29  1  0  0  0  0
 25 26  1  0  0  0  0
 25 24  2  0  0  0  0
 26 27  2  0  0  0  0
 27 28  1  0  0  0  0
 28 33  1  0  0  0  0
 29 28  2  0  0  0  0
 30 25  1  0  0  0  0
 31 26  1  0  0  0  0
 32 38  1  0  0  0  0
 33 32  2  0  0  0  0
 34 33  1  0  0  0  0
 34 36  2  0  0  0  0
 35 34  1  0  0  0  0
 36 42  1  0  0  0  0
 36 37  1  0  0  0  0
 37 38  2  0  0  0  0
 37 39  1  0  0  0  0
 40 41  1  0  0  0  0
 40 39  1  0  0  0  0
 42 40  1  0  0  0  0
M  END
>  <minimizedAffinity>
-7.05647564

$$$$

 OpenBabel03272507153D

 42 47  0  0  0  0  0  0  0  0999 V2000
   36.4200   24.9440   31.8940 C   0  0  0  0  0  0  0  0  0  0  0  0
   36.3190   23.6010   31.6590 C   0  0  0  0  0  0  0  0  0  0  0  0
   37.2880   22.9830   32.4550 C   0  0  0  0  0  0  0  0  0  0  0  0
   37.9370   24.0200   33.1440 C   0  0  0  0  0  0  0  0  0  0  0  0
   37.3760   25.1270   32.7660 O   0  0  0  0  0  0  0  0  0  0  0  0
   35.6260   23.0850   30.9860 H   0  0  0  0  0  0  0  0  0  0  0  0
   37.4270   21.9180   32.4620 H   0  0  0  0  0  0  0  0  0  0  0  0
   40.2390   24.4000   33.9930 C   0  0  0  0  0  0  0  0  0  0  0  0
   39.0150   23.7560   34.0760 C   0  0  0  0  0  0  0  0  0  0  0  0
   38.7750   22.8330   35.0610 C   0  0  0  0  0  0  0  0  0  0  0  0
   39.7800   22.5500   35.9770 C   0  0  0  0  0  0  0  0  0  0  0  0
   39.8200   21.7110   37.0210 N   0  0  0  0  0  0  0  0  0  0  0  0
   41.0290   21.8230   37.5750 N   0  0  0  0  0  0  0  0  0  0  0  0
   41.7500   22.7270   36.8880 C   0  0  0  0  0  0  0  0  0  0  0  0
   40.9810   23.2210   35.8470 C   0  0  0  0  0  0  0  0  0  0  0  0
   41.2480   24.1510   34.8710 C   0  0  0  0  0  0  0  0  0  0  0  0
   40.4130   25.1350   33.1990 H   0  0  0  0  0  0  0  0  0  0  0  0
   37.8360   22.2740   35.2030 H   0  0  0  0  0  0  0  0  0  0  0  0
   39.0540   21.0650   37.3690 H   0  0  0  0  0  0  0  0  0  0  0  0
   42.7800   23.0610   37.0700 H   0  0  0  0  0  0  0  0  0  0  0  0
   42.1890   24.6680   34.7780 H   0  0  0  0  0  0  0  0  0  0  0  0
   35.5580   25.9030   31.2320 C   0  0  0  0  0  0  0  0  0  0  0  0
   34.6250   25.4760   30.4980 O   0  0  0  0  0  0  0  0  0  0  0  0
   35.8230   27.3050   31.4540 C   0  0  0  0  0  0  0  0  0  0  0  0
   36.5920   27.9670   30.5020 C   0  0  0  0  0  0  0  0  0  0  0  0
   36.8640   29.3230   30.6910 C   0  0  0  0  0  0  0  0  0  0  0  0
   36.3500   29.9100   31.8070 N   0  0  0  0  0  0  0  0  0  0  0  0
   35.6190   29.2560   32.7020 C   0  0  0  0  0  0  0  0  0  0  0  0
   35.3590   27.9530   32.5190 N   0  0  0  0  0  0  0  0  0  0  0  0
   36.9610   27.4280   29.6440 H   0  0  0  0  0  0  0  0  0  0  0  0
   37.4640   29.8110   29.9360 H   0  0  0  0  0  0  0  0  0  0  0  0
   35.8940   30.7700   34.6310 C   0  0  0  0  0  3  0  0  0  0  0  0
   35.0920   29.9310   33.8820 C   0  0  0  0  0  0  0  0  0  0  0  0
   33.7940   29.7640   34.2950 C   0  0  0  0  0  0  0  0  0  0  0  0
   33.1300   29.1200   33.7450 H   0  0  0  0  0  0  0  0  0  0  0  0
   33.3080   30.4170   35.4240 C   0  0  0  0  0  0  0  0  0  0  0  0
   34.1100   31.2560   36.1730 C   0  0  0  0  0  0  0  0  0  0  0  0
   35.4120   31.4170   35.7510 C   0  0  0  0  0  3  0  0  0  0  0  0
   33.3450   31.7560   37.2330 O   0  0  0  0  0  0  0  0  0  0  0  0
   31.9940   31.4430   36.9420 C   0  0  0  0  0  3  0  0  0  0  0  0
   31.4970   32.3020   36.4330 H   0  0  0  0  0  0  0  0  0  0  0  0
   32.0450   30.3770   35.9940 O   0  0  0  0  0  0  0  0  0  0  0  0
  1  5  1  0  0  0  0
  2  1  2  0  0  0  0
  2  3  1  0  0  0  0
  3  7  1  0  0  0  0
  3  4  2  0  0  0  0
  4  9  1  0  0  0  0
  5  4  1  0  0  0  0
  6  2  1  0  0  0  0
  8  9  2  0  0  0  0
  8 16  1  0  0  0  0
  9 10  1  0  0  0  0
 10 18  1  0  0  0  0
 10 11  2  0  0  0  0
 11 12  1  0  0  0  0
 12 19  1  0  0  0  0
 12 13  1  0  0  0  0
 14 20  1  0  0  0  0
 14 13  2  0  0  0  0
 15 11  1  0  0  0  0
 15 14  1  0  0  0  0
 16 15  2  0  0  0  0
 17  8  1  0  0  0  0
 21 16  1  0  0  0  0
 22 24  1  0  0  0  0
 22  1  1  0  0  0  0
 23 22  2  0  0  0  0
 24 29  1  0  0  0  0
 25 26  1  0  0  0  0
 25 24  2  0  0  0  0
 26 27  2  0  0  0  0
 27 28  1  0  0  0  0
 28 33  1  0  0  0  0
 29 28  2  0  0  0  0
 30 25  1  0  0  0  0
 31 26  1  0  0  0  0
 32 38  1  0  0  0  0
 33 34  1  0  0  0  0
 33 32  2  0  0  0  0
 34 36  2  0  0  0  0
 35 34  1  0  0  0  0
 36 42  1  0  0  0  0
 36 37  1  0  0  0  0
 37 39  1  0  0  0  0
 38 37  2  0  0  0  0
 40 39  1  0  0  0  0
 41 40  1  0  0  0  0
 42 40  1  0  0  0  0
M  END
>  <minimizedAffinity>
-7.0192914

$$$$

 OpenBabel03272507153D

 42 47  0  0  0  0  0  0  0  0999 V2000
   36.8010   25.7240   32.0550 C   0  0  0  0  0  0  0  0  0  0  0  0
   35.5870   25.8170   31.4330 C   0  0  0  0  0  0  0  0  0  0  0  0
   35.1710   24.5080   31.1750 C   0  0  0  0  0  0  0  0  0  0  0  0
   36.1880   23.6770   31.6700 C   0  0  0  0  0  0  0  0  0  0  0  0
   37.0980   24.4570   32.1660 O   0  0  0  0  0  0  0  0  0  0  0  0
   35.0290   26.7240   31.1760 H   0  0  0  0  0  0  0  0  0  0  0  0
   34.2400   24.2910   30.6870 H   0  0  0  0  0  0  0  0  0  0  0  0
   35.1310   21.5040   32.2430 C   0  0  0  0  0  0  0  0  0  0  0  0
   36.1040   22.2330   31.5780 C   0  0  0  0  0  0  0  0  0  0  0  0
   37.0380   21.6040   30.7950 C   0  0  0  0  0  0  0  0  0  0  0  0
   36.9940   20.2210   30.6770 C   0  0  0  0  0  0  0  0  0  0  0  0
   37.7630   19.3620   29.9930 N   0  0  0  0  0  0  0  0  0  0  0  0
   37.2890   18.1350   30.2210 N   0  0  0  0  0  0  0  0  0  0  0  0
   36.2280   18.2150   31.0420 C   0  0  0  0  0  0  0  0  0  0  0  0
   36.0020   19.5440   31.3610 C   0  0  0  0  0  0  0  0  0  0  0  0
   35.0540   20.1490   32.1530 C   0  0  0  0  0  0  0  0  0  0  0  0
   34.3930   22.0240   32.8650 H   0  0  0  0  0  0  0  0  0  0  0  0
   37.8450   22.1000   30.2330 H   0  0  0  0  0  0  0  0  0  0  0  0
   38.5990   19.5830   29.3780 H   0  0  0  0  0  0  0  0  0  0  0  0
   35.6010   17.4000   31.4310 H   0  0  0  0  0  0  0  0  0  0  0  0
   34.2860   19.6110   32.6820 H   0  0  0  0  0  0  0  0  0  0  0  0
   37.5360   26.9010   32.4750 C   0  0  0  0  0  0  0  0  0  0  0  0
   38.6960   26.7570   32.9470 O   0  0  0  0  0  0  0  0  0  0  0  0
   36.8880   28.1830   32.3240 C   0  0  0  0  0  0  0  0  0  0  0  0
   36.9120   28.7640   31.0600 C   0  0  0  0  0  0  0  0  0  0  0  0
   36.2930   30.0030   30.8850 C   0  0  0  0  0  0  0  0  0  0  0  0
   35.7020   30.5620   31.9770 N   0  0  0  0  0  0  0  0  0  0  0  0
   35.6930   29.9870   33.1730 C   0  0  0  0  0  0  0  0  0  0  0  0
   36.2880   28.7970   33.3410 N   0  0  0  0  0  0  0  0  0  0  0  0
   37.4010   28.2530   30.2460 H   0  0  0  0  0  0  0  0  0  0  0  0
   36.3270   30.4300   29.8920 H   0  0  0  0  0  0  0  0  0  0  0  0
   35.7940   31.1230   35.3620 C   0  0  0  0  0  3  0  0  0  0  0  0
   35.0460   30.6290   34.3120 C   0  0  0  0  0  0  0  0  0  0  0  0
   33.6820   30.7670   34.3880 C   0  0  0  0  0  0  0  0  0  0  0  0
   33.0560   30.3980   33.5950 H   0  0  0  0  0  0  0  0  0  0  0  0
   33.0820   31.3830   35.4820 C   0  0  0  0  0  0  0  0  0  0  0  0
   33.8300   31.8770   36.5320 C   0  0  0  0  0  0  0  0  0  0  0  0
   35.1980   31.7330   36.4470 C   0  0  0  0  0  3  0  0  0  0  0  0
   32.9500   32.4300   37.4710 O   0  0  0  0  0  0  0  0  0  0  0  0
   31.6890   32.5290   36.8340 C   0  0  0  0  0  3  0  0  0  0  0  0
   31.5530   33.5460   36.3960 H   0  0  0  0  0  0  0  0  0  0  0  0
   31.7400   31.6140   35.7400 O   0  0  0  0  0  0  0  0  0  0  0  0
  1  5  1  0  0  0  0
  1 22  1  0  0  0  0
  2  1  2  0  0  0  0
  3  2  1  0  0  0  0
  3  4  2  0  0  0  0
  4  5  1  0  0  0  0
  6  2  1  0  0  0  0
  7  3  1  0  0  0  0
  8 17  1  0  0  0  0
  9  4  1  0  0  0  0
  9  8  2  0  0  0  0
 10  9  1  0  0  0  0
 11 10  2  0  0  0  0
 11 15  1  0  0  0  0
 12 13  1  0  0  0  0
 12 11  1  0  0  0  0
 13 14  2  0  0  0  0
 14 15  1  0  0  0  0
 14 20  1  0  0  0  0
 15 16  2  0  0  0  0
 16  8  1  0  0  0  0
 16 21  1  0  0  0  0
 18 10  1  0  0  0  0
 19 12  1  0  0  0  0
 22 23  2  0  0  0  0
 24 22  1  0  0  0  0
 24 29  1  0  0  0  0
 25 24  2  0  0  0  0
 26 25  1  0  0  0  0
 26 27  2  0  0  0  0
 27 28  1  0  0  0  0
 28 29  2  0  0  0  0
 28 33  1  0  0  0  0
 30 25  1  0  0  0  0
 31 26  1  0  0  0  0
 32 38  1  0  0  0  0
 33 34  1  0  0  0  0
 33 32  2  0  0  0  0
 34 36  2  0  0  0  0
 35 34  1  0  0  0  0
 36 42  1  0  0  0  0
 36 37  1  0  0  0  0
 37 39  1  0  0  0  0
 38 37  2  0  0  0  0
 40 39  1  0  0  0  0
 41 40  1  0  0  0  0
 42 40  1  0  0  0  0
M  END
>  <minimizedAffinity>
-6.95930147

$$$$

 OpenBabel03272507153D

 42 47  0  0  0  0  0  0  0  0999 V2000
   36.7780   27.5000   32.9810 C   0  0  0  0  0  0  0  0  0  0  0  0
   36.3480   28.2590   31.9290 C   0  0  0  0  0  0  0  0  0  0  0  0
   35.7000   29.3700   32.4780 C   0  0  0  0  0  0  0  0  0  0  0  0
   35.7800   29.2110   33.8710 C   0  0  0  0  0  0  0  0  0  0  0  0
   36.4210   28.1020   34.0830 O   0  0  0  0  0  0  0  0  0  0  0  0
   36.4720   28.0610   30.8590 H   0  0  0  0  0  0  0  0  0  0  0  0
   35.2620   30.1360   31.8670 H   0  0  0  0  0  0  0  0  0  0  0  0
   35.9920   31.0740   35.4990 C   0  0  0  0  0  0  0  0  0  0  0  0
   35.2100   30.1830   34.7830 C   0  0  0  0  0  0  0  0  0  0  0  0
   33.8450   30.1890   34.9110 C   0  0  0  0  0  0  0  0  0  0  0  0
   33.2550   31.1050   35.7730 C   0  0  0  0  0  0  0  0  0  0  0  0
   31.9720   31.3310   36.0870 N   0  0  0  0  0  0  0  0  0  0  0  0
   31.9490   32.3310   36.9710 N   0  0  0  0  0  0  0  0  0  0  0  0
   33.2070   32.7360   37.2150 C   0  0  0  0  0  0  0  0  0  0  0  0
   34.0830   31.9700   36.4620 C   0  0  0  0  0  0  0  0  0  0  0  0
   35.4530   31.9860   36.3520 C   0  0  0  0  0  0  0  0  0  0  0  0
   37.0820   31.0540   35.3840 H   0  0  0  0  0  0  0  0  0  0  0  0
   33.1460   29.5190   34.3840 H   0  0  0  0  0  0  0  0  0  0  0  0
   31.1120   30.8280   35.7210 H   0  0  0  0  0  0  0  0  0  0  0  0
   33.5510   33.5340   37.8880 H   0  0  0  0  0  0  0  0  0  0  0  0
   36.0890   32.6650   36.8950 H   0  0  0  0  0  0  0  0  0  0  0  0
   37.5000   26.2580   32.7810 C   0  0  0  0  0  0  0  0  0  0  0  0
   36.9540   25.3390   32.1130 O   0  0  0  0  0  0  0  0  0  0  0  0
   38.8160   26.1490   33.3670 C   0  0  0  0  0  0  0  0  0  0  0  0
   39.7300   27.1560   33.0730 C   0  0  0  0  0  0  0  0  0  0  0  0
   41.0090   27.0760   33.6250 C   0  0  0  0  0  0  0  0  0  0  0  0
   41.2760   26.0060   34.4230 N   0  0  0  0  0  0  0  0  0  0  0  0
   40.3860   25.0570   34.6880 C   0  0  0  0  0  0  0  0  0  0  0  0
   39.1570   25.1340   34.1570 N   0  0  0  0  0  0  0  0  0  0  0  0
   39.4370   27.9720   32.4310 H   0  0  0  0  0  0  0  0  0  0  0  0
   41.6970   27.8730   33.3790 H   0  0  0  0  0  0  0  0  0  0  0  0
   39.8320   23.4820   36.5060 C   0  0  0  0  0  3  0  0  0  0  0  0
   40.7220   23.9290   35.5500 C   0  0  0  0  0  0  0  0  0  0  0  0
   41.9230   23.2720   35.4490 C   0  0  0  0  0  0  0  0  0  0  0  0
   42.6510   23.5840   34.7200 H   0  0  0  0  0  0  0  0  0  0  0  0
   42.2270   22.1980   36.2800 C   0  0  0  0  0  0  0  0  0  0  0  0
   41.3370   21.7510   37.2360 C   0  0  0  0  0  0  0  0  0  0  0  0
   40.1340   22.4170   37.3300 C   0  0  0  0  0  3  0  0  0  0  0  0
   41.9240   20.6700   37.9040 O   0  0  0  0  0  0  0  0  0  0  0  0
   43.0520   20.2840   37.1400 C   0  0  0  0  0  3  0  0  0  0  0  0
   42.7840   19.4560   36.4420 H   0  0  0  0  0  0  0  0  0  0  0  0
   43.3710   21.4170   36.3320 O   0  0  0  0  0  0  0  0  0  0  0  0
  1  5  1  0  0  0  0
  2  3  1  0  0  0  0
  2  1  2  0  0  0  0
  3  4  2  0  0  0  0
  4  5  1  0  0  0  0
  4  9  1  0  0  0  0
  6  2  1  0  0  0  0
  7  3  1  0  0  0  0
  8 16  1  0  0  0  0
  9 10  1  0  0  0  0
  9  8  2  0  0  0  0
 10 11  2  0  0  0  0
 11 12  1  0  0  0  0
 11 15  1  0  0  0  0
 12 13  1  0  0  0  0
 13 14  2  0  0  0  0
 14 20  1  0  0  0  0
 15 14  1  0  0  0  0
 16 15  2  0  0  0  0
 16 21  1  0  0  0  0
 17  8  1  0  0  0  0
 18 10  1  0  0  0  0
 19 12  1  0  0  0  0
 22  1  1  0  0  0  0
 22 24  1  0  0  0  0
 23 22  2  0  0  0  0
 24 29  1  0  0  0  0
 25 24  2  0  0  0  0
 25 26  1  0  0  0  0
 26 27  2  0  0  0  0
 27 28  1  0  0  0  0
 28 33  1  0  0  0  0
 29 28  2  0  0  0  0
 30 25  1  0  0  0  0
 31 26  1  0  0  0  0
 32 38  1  0  0  0  0
 33 32  2  0  0  0  0
 34 33  1  0  0  0  0
 34 36  2  0  0  0  0
 35 34  1  0  0  0  0
 36 42  1  0  0  0  0
 36 37  1  0  0  0  0
 37 38  2  0  0  0  0
 37 39  1  0  0  0  0
 40 39  1  0  0  0  0
 41 40  1  0  0  0  0
 42 40  1  0  0  0  0
M  END
>  <minimizedAffinity>
-6.95009279

$$$$

 OpenBabel03272507153D

 42 47  0  0  0  0  0  0  0  0999 V2000
   36.7710   29.6670   31.0670 C   0  0  0  0  0  0  0  0  0  0  0  0
   36.7040   30.9910   30.7360 C   0  0  0  0  0  0  0  0  0  0  0  0
   36.0950   31.6410   31.8150 C   0  0  0  0  0  0  0  0  0  0  0  0
   35.8230   30.6400   32.7610 C   0  0  0  0  0  0  0  0  0  0  0  0
   36.2440   29.5230   32.2540 O   0  0  0  0  0  0  0  0  0  0  0  0
   37.0500   31.4750   29.8160 H   0  0  0  0  0  0  0  0  0  0  0  0
   35.9170   32.6990   31.8170 H   0  0  0  0  0  0  0  0  0  0  0  0
   35.8580   31.5660   35.0640 C   0  0  0  0  0  0  0  0  0  0  0  0
   35.1850   30.9420   34.0270 C   0  0  0  0  0  0  0  0  0  0  0  0
   33.8680   30.5830   34.1610 C   0  0  0  0  0  0  0  0  0  0  0  0
   33.2160   30.8550   35.3570 C   0  0  0  0  0  0  0  0  0  0  0  0
   31.9590   30.6210   35.7570 N   0  0  0  0  0  0  0  0  0  0  0  0
   31.8460   31.0830   37.0040 N   0  0  0  0  0  0  0  0  0  0  0  0
   33.0220   31.6060   37.3930 C   0  0  0  0  0  0  0  0  0  0  0  0
   33.9360   31.4800   36.3590 C   0  0  0  0  0  0  0  0  0  0  0  0
   35.2550   31.8500   36.2510 C   0  0  0  0  0  0  0  0  0  0  0  0
   36.9100   31.8460   34.9390 H   0  0  0  0  0  0  0  0  0  0  0  0
   33.2560   30.0840   33.3930 H   0  0  0  0  0  0  0  0  0  0  0  0
   31.1760   30.1580   35.2110 H   0  0  0  0  0  0  0  0  0  0  0  0
   33.2800   32.0700   38.3540 H   0  0  0  0  0  0  0  0  0  0  0  0
   35.8060   32.3360   37.0380 H   0  0  0  0  0  0  0  0  0  0  0  0
   37.3510   28.6850   30.1720 C   0  0  0  0  0  0  0  0  0  0  0  0
   37.1540   28.8010   28.9320 O   0  0  0  0  0  0  0  0  0  0  0  0
   38.1300   27.6200   30.7620 C   0  0  0  0  0  0  0  0  0  0  0  0
   39.0400   26.9660   29.9380 C   0  0  0  0  0  0  0  0  0  0  0  0
   39.8070   25.9330   30.4800 C   0  0  0  0  0  0  0  0  0  0  0  0
   39.6070   25.6360   31.7940 N   0  0  0  0  0  0  0  0  0  0  0  0
   38.7310   26.2760   32.5590 C   0  0  0  0  0  0  0  0  0  0  0  0
   37.9950   27.2670   32.0370 N   0  0  0  0  0  0  0  0  0  0  0  0
   39.1380   27.2640   28.9060 H   0  0  0  0  0  0  0  0  0  0  0  0
   40.5050   25.4430   29.8170 H   0  0  0  0  0  0  0  0  0  0  0  0
   38.5150   26.8930   34.9390 C   0  0  0  0  0  3  0  0  0  0  0  0
   38.5550   25.9180   33.9620 C   0  0  0  0  0  0  0  0  0  0  0  0
   38.4230   24.6130   34.3670 C   0  0  0  0  0  0  0  0  0  0  0  0
   38.4490   23.8170   33.6430 H   0  0  0  0  0  0  0  0  0  0  0  0
   38.2560   24.2900   35.7100 C   0  0  0  0  0  0  0  0  0  0  0  0
   38.2150   25.2650   36.6870 C   0  0  0  0  0  0  0  0  0  0  0  0
   38.3490   26.5720   36.2710 C   0  0  0  0  0  3  0  0  0  0  0  0
   38.0400   24.6340   37.9240 O   0  0  0  0  0  0  0  0  0  0  0  0
   37.6760   23.2930   37.6480 C   0  0  0  0  0  3  0  0  0  0  0  0
   36.5660   23.1820   37.6530 H   0  0  0  0  0  0  0  0  0  0  0  0
   38.1080   23.0490   36.3100 O   0  0  0  0  0  0  0  0  0  0  0  0
  1  5  1  0  0  0  0
  2  1  2  0  0  0  0
  2  3  1  0  0  0  0
  3  7  1  0  0  0  0
  3  4  2  0  0  0  0
  4  9  1  0  0  0  0
  5  4  1  0  0  0  0
  6  2  1  0  0  0  0
  8 16  1  0  0  0  0
  9 10  1  0  0  0  0
  9  8  2  0  0  0  0
 10 11  2  0  0  0  0
 11 12  1  0  0  0  0
 11 15  1  0  0  0  0
 12 13  1  0  0  0  0
 13 14  2  0  0  0  0
 14 20  1  0  0  0  0
 15 14  1  0  0  0  0
 16 15  2  0  0  0  0
 16 21  1  0  0  0  0
 17  8  1  0  0  0  0
 18 10  1  0  0  0  0
 19 12  1  0  0  0  0
 22 24  1  0  0  0  0
 22  1  1  0  0  0  0
 23 22  2  0  0  0  0
 24 29  1  0  0  0  0
 25 26  1  0  0  0  0
 25 24  2  0  0  0  0
 26 27  2  0  0  0  0
 27 28  1  0  0  0  0
 28 33  1  0  0  0  0
 29 28  2  0  0  0  0
 30 25  1  0  0  0  0
 31 26  1  0  0  0  0
 32 38  1  0  0  0  0
 33 34  1  0  0  0  0
 33 32  2  0  0  0  0
 34 36  2  0  0  0  0
 35 34  1  0  0  0  0
 36 42  1  0  0  0  0
 36 37  1  0  0  0  0
 37 39  1  0  0  0  0
 38 37  2  0  0  0  0
 40 41  1  0  0  0  0
 40 39  1  0  0  0  0
 42 40  1  0  0  0  0
M  END
>  <minimizedAffinity>
-6.94059706

$$$$

 OpenBabel03272507153D

 42 47  0  0  0  0  0  0  0  0999 V2000
   37.1310   26.7010   33.6320 C   0  0  0  0  0  0  0  0  0  0  0  0
   37.4310   27.5930   34.6240 C   0  0  0  0  0  0  0  0  0  0  0  0
   38.1640   26.8890   35.5850 C   0  0  0  0  0  0  0  0  0  0  0  0
   38.2650   25.5750   35.1020 C   0  0  0  0  0  0  0  0  0  0  0  0
   37.6420   25.5450   33.9650 O   0  0  0  0  0  0  0  0  0  0  0  0
   37.1630   28.6540   34.6800 H   0  0  0  0  0  0  0  0  0  0  0  0
   38.5280   27.3570   36.4800 H   0  0  0  0  0  0  0  0  0  0  0  0
   38.5040   24.0580   37.0540 C   0  0  0  0  0  0  0  0  0  0  0  0
   38.9670   24.5440   35.8420 C   0  0  0  0  0  0  0  0  0  0  0  0
   40.1240   24.0600   35.2890 C   0  0  0  0  0  0  0  0  0  0  0  0
   40.8290   23.0700   35.9620 C   0  0  0  0  0  0  0  0  0  0  0  0
   41.9650   22.4260   35.6620 N   0  0  0  0  0  0  0  0  0  0  0  0
   42.2080   21.5650   36.6510 N   0  0  0  0  0  0  0  0  0  0  0  0
   41.2330   21.6600   37.5720 C   0  0  0  0  0  0  0  0  0  0  0  0
   40.3210   22.6210   37.1670 C   0  0  0  0  0  0  0  0  0  0  0  0
   39.1650   23.0890   37.7440 C   0  0  0  0  0  0  0  0  0  0  0  0
   37.5770   24.4570   37.4810 H   0  0  0  0  0  0  0  0  0  0  0  0
   40.5670   24.3870   34.3340 H   0  0  0  0  0  0  0  0  0  0  0  0
   42.5800   22.5540   34.8070 H   0  0  0  0  0  0  0  0  0  0  0  0
   41.1200   21.0990   38.5100 H   0  0  0  0  0  0  0  0  0  0  0  0
   38.7780   22.7320   38.6840 H   0  0  0  0  0  0  0  0  0  0  0  0
   36.3720   27.0890   32.4600 C   0  0  0  0  0  0  0  0  0  0  0  0
   35.8560   26.1880   31.7440 O   0  0  0  0  0  0  0  0  0  0  0  0
   36.2490   28.5010   32.1810 C   0  0  0  0  0  0  0  0  0  0  0  0
   36.4020   28.9040   30.8570 C   0  0  0  0  0  0  0  0  0  0  0  0
   36.2880   30.2620   30.5570 C   0  0  0  0  0  0  0  0  0  0  0  0
   36.0330   31.1080   31.5930 N   0  0  0  0  0  0  0  0  0  0  0  0
   35.8930   30.6990   32.8480 C   0  0  0  0  0  0  0  0  0  0  0  0
   36.0020   29.3930   33.1350 N   0  0  0  0  0  0  0  0  0  0  0  0
   36.6010   28.1680   30.0940 H   0  0  0  0  0  0  0  0  0  0  0  0
   36.4110   30.5450   29.5210 H   0  0  0  0  0  0  0  0  0  0  0  0
   36.2270   32.8870   33.9390 C   0  0  0  0  0  3  0  0  0  0  0  0
   35.6200   31.6470   33.9220 C   0  0  0  0  0  0  0  0  0  0  0  0
   34.7610   31.3510   34.9510 C   0  0  0  0  0  0  0  0  0  0  0  0
   34.2650   30.3960   34.9830 H   0  0  0  0  0  0  0  0  0  0  0  0
   34.5130   32.2670   35.9680 C   0  0  0  0  0  0  0  0  0  0  0  0
   35.1190   33.5080   35.9840 C   0  0  0  0  0  0  0  0  0  0  0  0
   35.9810   33.7960   34.9480 C   0  0  0  0  0  3  0  0  0  0  0  0
   34.6750   34.1940   37.1210 O   0  0  0  0  0  0  0  0  0  0  0  0
   33.5680   33.4680   37.6260 C   0  0  0  0  0  3  0  0  0  0  0  0
   32.6140   33.8930   37.2350 H   0  0  0  0  0  0  0  0  0  0  0  0
   33.6900   32.1560   37.0780 O   0  0  0  0  0  0  0  0  0  0  0  0
  1  5  1  0  0  0  0
  1  2  2  0  0  0  0
  2  6  1  0  0  0  0
  2  3  1  0  0  0  0
  3  7  1  0  0  0  0
  4  3  2  0  0  0  0
  4  9  1  0  0  0  0
  5  4  1  0  0  0  0
  8 17  1  0  0  0  0
  8 16  1  0  0  0  0
  9  8  2  0  0  0  0
 10  9  1  0  0  0  0
 10 11  2  0  0  0  0
 11 15  1  0  0  0  0
 12 11  1  0  0  0  0
 12 13  1  0  0  0  0
 13 14  2  0  0  0  0
 14 20  1  0  0  0  0
 15 14  1  0  0  0  0
 15 16  2  0  0  0  0
 16 21  1  0  0  0  0
 18 10  1  0  0  0  0
 19 12  1  0  0  0  0
 22  1  1  0  0  0  0
 23 22  2  0  0  0  0
 24 22  1  0  0  0  0
 24 29  1  0  0  0  0
 25 24  2  0  0  0  0
 26 25  1  0  0  0  0
 26 27  2  0  0  0  0
 27 28  1  0  0  0  0
 28 29  2  0  0  0  0
 28 33  1  0  0  0  0
 30 25  1  0  0  0  0
 31 26  1  0  0  0  0
 32 38  1  0  0  0  0
 33 32  2  0  0  0  0
 33 34  1  0  0  0  0
 34 35  1  0  0  0  0
 34 36  2  0  0  0  0
 36 37  1  0  0  0  0
 36 42  1  0  0  0  0
 37 39  1  0  0  0  0
 38 37  2  0  0  0  0
 39 40  1  0  0  0  0
 41 40  1  0  0  0  0
 42 40  1  0  0  0  0
M  END
>  <minimizedAffinity>
-6.90625286

$$$$

 OpenBabel03272507153D

 42 47  0  0  0  0  0  0  0  0999 V2000
   36.4260   28.3750   34.3450 C   0  0  0  0  0  0  0  0  0  0  0  0
   35.4570   28.6590   33.4240 C   0  0  0  0  0  0  0  0  0  0  0  0
   35.0440   29.9720   33.6710 C   0  0  0  0  0  0  0  0  0  0  0  0
   35.8100   30.4150   34.7600 C   0  0  0  0  0  0  0  0  0  0  0  0
   36.5890   29.4330   35.0950 O   0  0  0  0  0  0  0  0  0  0  0  0
   35.0630   28.0060   32.6370 H   0  0  0  0  0  0  0  0  0  0  0  0
   34.2820   30.4500   33.0860 H   0  0  0  0  0  0  0  0  0  0  0  0
   36.3070   32.8480   34.7710 C   0  0  0  0  0  0  0  0  0  0  0  0
   35.6560   31.7490   35.3070 C   0  0  0  0  0  0  0  0  0  0  0  0
   34.8270   31.8860   36.3900 C   0  0  0  0  0  0  0  0  0  0  0  0
   34.6480   33.1460   36.9450 C   0  0  0  0  0  0  0  0  0  0  0  0
   33.9110   33.5640   37.9830 N   0  0  0  0  0  0  0  0  0  0  0  0
   34.0930   34.8810   38.0970 N   0  0  0  0  0  0  0  0  0  0  0  0
   34.9390   35.2960   37.1370 C   0  0  0  0  0  0  0  0  0  0  0  0
   35.3210   34.2080   36.3710 C   0  0  0  0  0  0  0  0  0  0  0  0
   36.1590   34.0990   35.2850 C   0  0  0  0  0  0  0  0  0  0  0  0
   36.9670   32.7200   33.9050 H   0  0  0  0  0  0  0  0  0  0  0  0
   34.2710   31.0710   36.8810 H   0  0  0  0  0  0  0  0  0  0  0  0
   33.2890   32.9830   38.6180 H   0  0  0  0  0  0  0  0  0  0  0  0
   35.3040   36.3130   36.9400 H   0  0  0  0  0  0  0  0  0  0  0  0
   36.6800   34.9330   34.8460 H   0  0  0  0  0  0  0  0  0  0  0  0
   37.0880   27.0860   34.3850 C   0  0  0  0  0  0  0  0  0  0  0  0
   37.3780   26.5850   35.5050 O   0  0  0  0  0  0  0  0  0  0  0  0
   37.3790   26.4450   33.1230 C   0  0  0  0  0  0  0  0  0  0  0  0
   37.9720   27.2250   32.1350 C   0  0  0  0  0  0  0  0  0  0  0  0
   38.2660   26.6330   30.9050 C   0  0  0  0  0  0  0  0  0  0  0  0
   37.9470   25.3180   30.7580 N   0  0  0  0  0  0  0  0  0  0  0  0
   37.3810   24.5950   31.7170 C   0  0  0  0  0  0  0  0  0  0  0  0
   37.0990   25.1650   32.8980 N   0  0  0  0  0  0  0  0  0  0  0  0
   38.1940   28.2620   32.3340 H   0  0  0  0  0  0  0  0  0  0  0  0
   38.7260   27.2630   30.1580 H   0  0  0  0  0  0  0  0  0  0  0  0
   37.9360   22.3550   30.8420 C   0  0  0  0  0  3  0  0  0  0  0  0
   37.0590   23.1880   31.5080 C   0  0  0  0  0  0  0  0  0  0  0  0
   35.8850   22.6370   31.9590 C   0  0  0  0  0  0  0  0  0  0  0  0
   35.1680   23.2460   32.4830 H   0  0  0  0  0  0  0  0  0  0  0  0
   35.5940   21.2920   31.7510 C   0  0  0  0  0  0  0  0  0  0  0  0
   36.4710   20.4600   31.0840 C   0  0  0  0  0  0  0  0  0  0  0  0
   37.6470   21.0210   30.6350 C   0  0  0  0  0  3  0  0  0  0  0  0
   35.9030   19.1810   31.0330 O   0  0  0  0  0  0  0  0  0  0  0  0
   34.8120   19.1860   31.9360 C   0  0  0  0  0  3  0  0  0  0  0  0
   35.1280   18.7940   32.9310 H   0  0  0  0  0  0  0  0  0  0  0  0
   34.4770   20.5610   32.1230 O   0  0  0  0  0  0  0  0  0  0  0  0
  1 22  1  0  0  0  0
  1  5  1  0  0  0  0
  2  3  1  0  0  0  0
  2  1  2  0  0  0  0
  3  4  2  0  0  0  0
  4  5  1  0  0  0  0
  4  9  1  0  0  0  0
  6  2  1  0  0  0  0
  7  3  1  0  0  0  0
  8 16  2  0  0  0  0
  8  9  1  0  0  0  0
  9 10  2  0  0  0  0
 10 18  1  0  0  0  0
 10 11  1  0  0  0  0
 11 12  1  0  0  0  0
 12 13  1  0  0  0  0
 12 19  1  0  0  0  0
 14 13  2  0  0  0  0
 15 11  2  0  0  0  0
 15 14  1  0  0  0  0
 16 15  1  0  0  0  0
 17  8  1  0  0  0  0
 20 14  1  0  0  0  0
 21 16  1  0  0  0  0
 22 23  2  0  0  0  0
 24 22  1  0  0  0  0
 25 30  1  0  0  0  0
 25 24  2  0  0  0  0
 26 25  1  0  0  0  0
 27 26  2  0  0  0  0
 27 28  1  0  0  0  0
 28 29  2  0  0  0  0
 29 24  1  0  0  0  0
 31 26  1  0  0  0  0
 32 33  1  0  0  0  0
 33 28  1  0  0  0  0
 33 34  2  0  0  0  0
 34 35  1  0  0  0  0
 36 34  1  0  0  0  0
 36 42  1  0  0  0  0
 37 36  2  0  0  0  0
 38 32  2  0  0  0  0
 38 37  1  0  0  0  0
 39 37  1  0  0  0  0
 39 40  1  0  0  0  0
 40 42  1  0  0  0  0
 40 41  1  0  0  0  0
M  END
>  <minimizedAffinity>
-6.86732769

$$$$

 OpenBabel03272507153D

 42 47  0  0  0  0  0  0  0  0999 V2000
   35.9820   27.1270   31.3660 C   0  0  0  0  0  0  0  0  0  0  0  0
   36.6480   27.8550   30.4200 C   0  0  0  0  0  0  0  0  0  0  0  0
   36.6900   29.1720   30.8870 C   0  0  0  0  0  0  0  0  0  0  0  0
   36.0270   29.1610   32.1240 C   0  0  0  0  0  0  0  0  0  0  0  0
   35.6460   27.9390   32.3330 O   0  0  0  0  0  0  0  0  0  0  0  0
   37.0740   27.5020   29.4740 H   0  0  0  0  0  0  0  0  0  0  0  0
   37.1600   29.9600   30.3300 H   0  0  0  0  0  0  0  0  0  0  0  0
   35.9330   31.6320   32.3560 C   0  0  0  0  0  0  0  0  0  0  0  0
   35.8720   30.3660   32.9150 C   0  0  0  0  0  0  0  0  0  0  0  0
   35.6560   30.2040   34.2600 C   0  0  0  0  0  0  0  0  0  0  0  0
   35.5000   31.3310   35.0560 C   0  0  0  0  0  0  0  0  0  0  0  0
   35.2810   31.4670   36.3710 N   0  0  0  0  0  0  0  0  0  0  0  0
   35.2080   32.7740   36.6290 N   0  0  0  0  0  0  0  0  0  0  0  0
   35.3780   33.4630   35.4870 C   0  0  0  0  0  0  0  0  0  0  0  0
   35.5700   32.5690   34.4460 C   0  0  0  0  0  0  0  0  0  0  0  0
   35.7850   32.7600   33.1010 C   0  0  0  0  0  0  0  0  0  0  0  0
   36.1060   31.7420   31.2790 H   0  0  0  0  0  0  0  0  0  0  0  0
   35.5940   29.2400   34.7890 H   0  0  0  0  0  0  0  0  0  0  0  0
   35.1810   30.7010   37.0990 H   0  0  0  0  0  0  0  0  0  0  0  0
   35.3760   34.5510   35.3370 H   0  0  0  0  0  0  0  0  0  0  0  0
   35.8380   33.7300   32.6360 H   0  0  0  0  0  0  0  0  0  0  0  0
   35.7520   25.7040   31.2120 C   0  0  0  0  0  0  0  0  0  0  0  0
   34.6130   25.3090   30.8430 O   0  0  0  0  0  0  0  0  0  0  0  0
   36.8540   24.8140   31.4950 C   0  0  0  0  0  0  0  0  0  0  0  0
   37.4800   24.2110   30.4080 C   0  0  0  0  0  0  0  0  0  0  0  0
   38.5490   23.3460   30.6510 C   0  0  0  0  0  0  0  0  0  0  0  0
   38.9070   23.1510   31.9490 N   0  0  0  0  0  0  0  0  0  0  0  0
   38.2920   23.7370   32.9700 C   0  0  0  0  0  0  0  0  0  0  0  0
   37.2650   24.5680   32.7350 N   0  0  0  0  0  0  0  0  0  0  0  0
   37.1350   24.4220   29.4080 H   0  0  0  0  0  0  0  0  0  0  0  0
   39.0160   22.8940   29.7880 H   0  0  0  0  0  0  0  0  0  0  0  0
   39.9070   22.8510   34.6120 C   0  0  0  0  0  3  0  0  0  0  0  0
   38.7140   23.4930   34.3440 C   0  0  0  0  0  0  0  0  0  0  0  0
   37.9540   23.8860   35.4170 C   0  0  0  0  0  0  0  0  0  0  0  0
   37.0160   24.3890   35.2600 H   0  0  0  0  0  0  0  0  0  0  0  0
   38.3730   23.6450   36.7220 C   0  0  0  0  0  0  0  0  0  0  0  0
   39.5660   23.0030   36.9900 C   0  0  0  0  0  0  0  0  0  0  0  0
   40.3220   22.6120   35.9060 C   0  0  0  0  0  3  0  0  0  0  0  0
   39.7070   22.9080   38.3790 O   0  0  0  0  0  0  0  0  0  0  0  0
   38.7310   23.7650   38.9450 C   0  0  0  0  0  3  0  0  0  0  0  0
   39.1710   24.7660   39.1630 H   0  0  0  0  0  0  0  0  0  0  0  0
   37.7550   23.9590   37.9220 O   0  0  0  0  0  0  0  0  0  0  0  0
  1  5  1  0  0  0  0
  2  3  1  0  0  0  0
  2  1  2  0  0  0  0
  3  4  2  0  0  0  0
  4  5  1  0  0  0  0
  4  9  1  0  0  0  0
  6  2  1  0  0  0  0
  7  3  1  0  0  0  0
  8  9  2  0  0  0  0
  8 16  1  0  0  0  0
  9 10  1  0  0  0  0
 10 18  1  0  0  0  0
 10 11  2  0  0  0  0
 11 12  1  0  0  0  0
 12 13  1  0  0  0  0
 12 19  1  0  0  0  0
 14 13  2  0  0  0  0
 15 11  1  0  0  0  0
 15 14  1  0  0  0  0
 16 15  2  0  0  0  0
 17  8  1  0  0  0  0
 20 14  1  0  0  0  0
 21 16  1  0  0  0  0
 22  1  1  0  0  0  0
 22 24  1  0  0  0  0
 23 22  2  0  0  0  0
 24 29  1  0  0  0  0
 25 26  1  0  0  0  0
 25 24  2  0  0  0  0
 26 27  2  0  0  0  0
 27 28  1  0  0  0  0
 28 33  1  0  0  0  0
 29 28  2  0  0  0  0
 30 25  1  0  0  0  0
 31 26  1  0  0  0  0
 32 38  1  0  0  0  0
 33 32  2  0  0  0  0
 33 34  1  0  0  0  0
 34 36  2  0  0  0  0
 35 34  1  0  0  0  0
 36 37  1  0  0  0  0
 36 42  1  0  0  0  0
 37 39  1  0  0  0  0
 38 37  2  0  0  0  0
 39 40  1  0  0  0  0
 40 41  1  0  0  0  0
 42 40  1  0  0  0  0
M  END
>  <minimizedAffinity>
-6.82991791

$$$$

 OpenBabel03272507153D

 42 47  0  0  0  0  0  0  0  0999 V2000
   36.9160   27.5760   31.1120 C   0  0  0  0  0  0  0  0  0  0  0  0
   36.0940   26.5150   30.8510 C   0  0  0  0  0  0  0  0  0  0  0  0
   36.2980   25.5890   31.8790 C   0  0  0  0  0  0  0  0  0  0  0  0
   37.2600   26.1630   32.7260 C   0  0  0  0  0  0  0  0  0  0  0  0
   37.5680   27.3150   32.2140 O   0  0  0  0  0  0  0  0  0  0  0  0
   35.4030   26.3880   30.0100 H   0  0  0  0  0  0  0  0  0  0  0  0
   35.7730   24.6540   31.9180 H   0  0  0  0  0  0  0  0  0  0  0  0
   37.7610   26.0990   35.1570 C   0  0  0  0  0  0  0  0  0  0  0  0
   37.7290   25.4830   33.9170 C   0  0  0  0  0  0  0  0  0  0  0  0
   38.1450   24.1850   33.7680 C   0  0  0  0  0  0  0  0  0  0  0  0
   38.6010   23.4930   34.8840 C   0  0  0  0  0  0  0  0  0  0  0  0
   39.0580   22.2420   35.0280 N   0  0  0  0  0  0  0  0  0  0  0  0
   39.3670   22.0770   36.3160 N   0  0  0  0  0  0  0  0  0  0  0  0
   39.1070   23.2150   36.9840 C   0  0  0  0  0  0  0  0  0  0  0  0
   38.6110   24.1570   36.0960 C   0  0  0  0  0  0  0  0  0  0  0  0
   38.2000   25.4560   36.2730 C   0  0  0  0  0  0  0  0  0  0  0  0
   37.4240   27.1370   35.2570 H   0  0  0  0  0  0  0  0  0  0  0  0
   38.1560   23.6170   32.8240 H   0  0  0  0  0  0  0  0  0  0  0  0
   39.1680   21.4970   34.2800 H   0  0  0  0  0  0  0  0  0  0  0  0
   39.2430   23.4280   38.0530 H   0  0  0  0  0  0  0  0  0  0  0  0
   38.2120   25.9640   37.2230 H   0  0  0  0  0  0  0  0  0  0  0  0
   36.9660   28.7350   30.2440 C   0  0  0  0  0  0  0  0  0  0  0  0
   37.1660   28.5630   29.0110 O   0  0  0  0  0  0  0  0  0  0  0  0
   36.7800   30.0330   30.8510 C   0  0  0  0  0  0  0  0  0  0  0  0
   37.2180   31.1410   30.1310 C   0  0  0  0  0  0  0  0  0  0  0  0
   37.0520   32.4080   30.6920 C   0  0  0  0  0  0  0  0  0  0  0  0
   36.4650   32.4710   31.9190 N   0  0  0  0  0  0  0  0  0  0  0  0
   36.0560   31.3990   32.5860 C   0  0  0  0  0  0  0  0  0  0  0  0
   36.2170   30.1820   32.0460 N   0  0  0  0  0  0  0  0  0  0  0  0
   37.6730   31.0030   29.1630 H   0  0  0  0  0  0  0  0  0  0  0  0
   37.4010   33.2490   30.1100 H   0  0  0  0  0  0  0  0  0  0  0  0
   35.9720   32.3530   34.8600 C   0  0  0  0  0  3  0  0  0  0  0  0
   35.4330   31.5210   33.8990 C   0  0  0  0  0  0  0  0  0  0  0  0
   34.2990   30.8240   34.2320 C   0  0  0  0  0  0  0  0  0  0  0  0
   33.8410   30.1620   33.5170 H   0  0  0  0  0  0  0  0  0  0  0  0
   33.7180   30.9530   35.4900 C   0  0  0  0  0  0  0  0  0  0  0  0
   34.2560   31.7850   36.4510 C   0  0  0  0  0  0  0  0  0  0  0  0
   35.3960   32.4810   36.1080 C   0  0  0  0  0  3  0  0  0  0  0  0
   33.4570   31.7000   37.5970 O   0  0  0  0  0  0  0  0  0  0  0  0
   32.2660   31.0380   37.2130 C   0  0  0  0  0  3  0  0  0  0  0  0
   31.4750   31.7800   36.9520 H   0  0  0  0  0  0  0  0  0  0  0  0
   32.5880   30.3410   36.0090 O   0  0  0  0  0  0  0  0  0  0  0  0
  1  5  1  0  0  0  0
  2  1  2  0  0  0  0
  2  3  1  0  0  0  0
  3  7  1  0  0  0  0
  3  4  2  0  0  0  0
  4  9  1  0  0  0  0
  5  4  1  0  0  0  0
  6  2  1  0  0  0  0
  8 17  1  0  0  0  0
  8 16  1  0  0  0  0
  9  8  2  0  0  0  0
 10  9  1  0  0  0  0
 10 11  2  0  0  0  0
 11 12  1  0  0  0  0
 11 15  1  0  0  0  0
 12 13  1  0  0  0  0
 13 14  2  0  0  0  0
 14 20  1  0  0  0  0
 15 16  2  0  0  0  0
 15 14  1  0  0  0  0
 16 21  1  0  0  0  0
 18 10  1  0  0  0  0
 19 12  1  0  0  0  0
 22 24  1  0  0  0  0
 22  1  1  0  0  0  0
 23 22  2  0  0  0  0
 24 29  1  0  0  0  0
 25 26  1  0  0  0  0
 25 24  2  0  0  0  0
 26 27  2  0  0  0  0
 27 28  1  0  0  0  0
 28 33  1  0  0  0  0
 29 28  2  0  0  0  0
 30 25  1  0  0  0  0
 31 26  1  0  0  0  0
 32 38  1  0  0  0  0
 33 34  1  0  0  0  0
 33 32  2  0  0  0  0
 34 36  2  0  0  0  0
 35 34  1  0  0  0  0
 36 42  1  0  0  0  0
 36 37  1  0  0  0  0
 37 39  1  0  0  0  0
 38 37  2  0  0  0  0
 40 39  1  0  0  0  0
 41 40  1  0  0  0  0
 42 40  1  0  0  0  0
M  END
>  <minimizedAffinity>
-6.77833176

$$$$
