
 OpenBabel03272510263D

 47 52  0  0  1  0  0  0  0  0999 V2000
   38.8710   31.7610   41.4410 N   0  0  0  0  0  0  0  0  0  0  0  0
   38.9260   33.1880   41.5880 C   0  0  1  0  0  0  0  0  0  0  0  0
   37.6370   33.7960   41.2880 C   0  0  0  0  0  0  0  0  0  0  0  0
   37.3150   33.5440   39.9470 O   0  0  0  0  0  0  0  0  0  0  0  0
   37.3350   32.2160   39.5870 C   0  0  0  0  0  0  0  0  0  0  0  0
   38.5690   31.5030   40.0480 C   0  0  1  0  0  0  0  0  0  0  0  0
   38.4480   31.1860   42.1280 H   0  0  0  0  0  0  0  0  0  0  0  0
   39.7070   33.5710   40.9170 H   0  0  0  0  0  0  0  0  0  0  0  0
   37.7900   34.9190   41.3110 H   0  0  0  0  0  0  0  0  0  0  0  0
   36.7360   33.6060   41.8060 H   0  0  0  0  0  0  0  0  0  0  0  0
   36.3990   31.6980   39.9450 H   0  0  0  0  0  0  0  0  0  0  0  0
   37.2740   32.1550   38.4860 H   0  0  0  0  0  0  0  0  0  0  0  0
   38.3090   30.4030   40.0170 H   0  0  0  0  0  0  0  0  0  0  0  0
   39.9650   32.4720   38.0900 C   0  0  0  0  0  3  0  0  0  0  0  0
   39.7420   31.6660   39.1860 C   0  0  0  0  0  0  0  0  0  0  0  0
   40.7830   30.8270   39.6020 C   0  0  0  0  0  0  0  0  0  0  0  0
   40.7610   30.1310   40.4500 H   0  0  0  0  0  0  0  0  0  0  0  0
   42.0070   30.8090   38.9270 C   0  0  0  0  0  0  0  0  0  0  0  0
   42.1400   31.6460   37.8440 C   0  0  0  0  0  0  0  0  0  0  0  0
   41.1530   32.4800   37.4030 C   0  0  0  0  0  3  0  0  0  0  0  0
   43.4270   31.4660   37.3290 O   0  0  0  0  0  0  0  0  0  0  0  0
   44.0050   30.3640   37.9830 C   0  0  0  0  0  3  0  0  0  0  0  0
   45.0580   30.5540   38.2870 H   0  0  0  0  0  0  0  0  0  0  0  0
   43.1990   30.1020   39.0970 O   0  0  0  0  0  0  0  0  0  0  0  0
   39.3090   33.4520   42.9320 O   0  0  0  0  0  0  0  0  0  0  0  0
   36.1790   30.1940   46.7280 C   0  0  0  0  0  0  0  0  0  0  0  0
   37.0670   30.7560   47.6360 C   0  0  0  0  0  0  0  0  0  0  0  0
   38.0570   31.6430   47.2140 C   0  0  0  0  0  0  0  0  0  0  0  0
   38.0960   31.9210   45.8530 C   0  0  0  0  0  0  0  0  0  0  0  0
   38.9750   32.7610   45.2060 N   0  0  0  0  0  0  0  0  0  0  0  0
   38.6290   32.7150   43.9040 C   0  0  0  0  0  0  0  0  0  0  0  0
   37.6010   31.9030   43.7350 N   0  0  0  0  0  0  0  0  0  0  0  0
   37.2390   31.3890   44.9240 C   0  0  0  0  0  0  0  0  0  0  0  0
   36.2550   30.5020   45.3780 C   0  0  0  0  0  0  0  0  0  0  0  0
   35.4030   29.5030   47.0370 H   0  0  0  0  0  0  0  0  0  0  0  0
   38.7590   32.0920   47.9040 H   0  0  0  0  0  0  0  0  0  0  0  0
   39.7500   33.3140   45.6530 H   0  0  0  0  0  0  0  0  0  0  0  0
   35.5740   30.0760   44.6520 H   0  0  0  0  0  0  0  0  0  0  0  0
   37.5640   30.2810   51.3340 C   0  0  0  0  0  0  0  0  0  0  0  0
   37.8420   30.7000   50.0310 C   0  0  0  0  0  0  0  0  0  0  0  0
   36.9420   30.4020   49.0350 C   0  0  0  0  0  0  0  0  0  0  0  0
   35.8070   29.7020   49.3930 N   0  0  0  0  0  0  0  0  0  0  0  0
   35.5610   29.3100   50.6600 C   0  0  0  0  0  0  0  0  0  0  0  0
   36.4270   29.5960   51.6110 N   0  0  0  0  0  0  0  0  0  0  0  0
   38.2960   30.5340   52.0850 H   0  0  0  0  0  0  0  0  0  0  0  0
   38.7250   31.2450   49.7460 H   0  0  0  0  0  0  0  0  0  0  0  0
   34.6430   28.7720   50.8060 H   0  0  0  0  0  0  0  0  0  0  0  0
  1  2  1  0  0  0  0
  1  7  1  0  0  0  0
  2  8  1  6  0  0  0
  2 25  1  0  0  0  0
  3  9  1  0  0  0  0
  3  2  1  0  0  0  0
  3 10  1  0  0  0  0
  4  3  1  0  0  0  0
  5 11  1  0  0  0  0
  5  4  1  0  0  0  0
  5  6  1  0  0  0  0
  6 13  1  6  0  0  0
  6  1  1  0  0  0  0
 12  5  1  0  0  0  0
 14 15  1  0  0  0  0
 15 16  2  0  0  0  0
 15  6  1  0  0  0  0
 16 17  1  0  0  0  0
 18 24  1  0  0  0  0
 18 16  1  0  0  0  0
 19 18  2  0  0  0  0
 20 19  1  0  0  0  0
 20 14  2  0  0  0  0
 21 19  1  0  0  0  0
 21 22  1  0  0  0  0
 22 23  1  0  0  0  0
 22 24  1  0  0  0  0
 25 31  1  0  0  0  0
 26 35  1  0  0  0  0
 26 27  1  0  0  0  0
 27 41  1  0  0  0  0
 28 27  2  0  0  0  0
 28 36  1  0  0  0  0
 29 28  1  0  0  0  0
 30 37  1  0  0  0  0
 30 29  1  0  0  0  0
 31 30  1  0  0  0  0
 32 31  2  0  0  0  0
 32 33  1  0  0  0  0
 33 34  1  0  0  0  0
 33 29  2  0  0  0  0
 34 26  2  0  0  0  0
 38 34  1  0  0  0  0
 39 44  1  0  0  0  0
 39 45  1  0  0  0  0
 40 39  2  0  0  0  0
 41 42  2  0  0  0  0
 41 40  1  0  0  0  0
 42 43  1  0  0  0  0
 43 47  1  0  0  0  0
 43 44  2  0  0  0  0
 46 40  1  0  0  0  0
M  END
>  <minimizedAffinity>
-6.07283974

>  <minimizedRMSD>
0.756150723

$$$$
