
 OpenBabel03272509073D

 42 46  0  0  0  0  0  0  0  0999 V2000
   32.8700   27.9620   48.3750 C   0  0  0  0  0  0  0  0  0  0  0  0
   31.9850   28.5820   48.2660 H   0  0  0  0  0  0  0  0  0  0  0  0
   32.6490   27.2370   49.1880 H   0  0  0  0  0  0  0  0  0  0  0  0
   33.1200   27.1300   47.1650 C   0  0  0  0  0  0  0  0  0  0  0  0
   33.8890   25.9690   47.1390 C   0  0  0  0  0  0  0  0  0  0  0  0
   34.0620   25.2590   45.9810 C   0  0  0  0  0  0  0  0  0  0  0  0
   33.4790   25.6700   44.8030 C   0  0  0  0  0  0  0  0  0  0  0  0
   32.7180   26.8140   44.8230 C   0  0  0  0  0  0  0  0  0  0  0  0
   32.5330   27.5470   45.9880 C   0  0  0  0  0  0  0  0  0  0  0  0
   34.3160   25.7150   48.1180 H   0  0  0  0  0  0  0  0  0  0  0  0
   34.6810   24.3960   46.1460 H   0  0  0  0  0  0  0  0  0  0  0  0
   33.6790   25.0370   43.9530 H   0  0  0  0  0  0  0  0  0  0  0  0
   32.3160   27.0280   43.8310 H   0  0  0  0  0  0  0  0  0  0  0  0
   30.3520   28.9250   45.7980 C   0  0  0  0  0  3  0  0  0  0  0  0
   31.7070   28.7130   45.6950 C   0  0  0  0  0  0  0  0  0  0  0  0
   32.4160   29.8110   45.1850 C   0  0  0  0  0  0  0  0  0  0  0  0
   33.5030   29.7760   45.0510 H   0  0  0  0  0  0  0  0  0  0  0  0
   31.8510   31.0100   44.8090 C   0  0  0  0  0  0  0  0  0  0  0  0
   30.4880   31.1670   44.9350 C   0  0  0  0  0  0  0  0  0  0  0  0
   29.7740   30.1110   45.4300 C   0  0  0  0  0  3  0  0  0  0  0  0
   30.1630   32.4420   44.4980 O   0  0  0  0  0  0  0  0  0  0  0  0
   31.3510   33.2130   44.5520 C   0  0  0  0  0  3  0  0  0  0  0  0
   31.4250   33.6060   45.5860 H   0  0  0  0  0  0  0  0  0  0  0  0
   32.3370   32.2030   44.2960 O   0  0  0  0  0  0  0  0  0  0  0  0
   34.9800   28.3350   49.6890 C   0  0  0  0  0  3  0  0  0  0  0  0
   34.0570   28.7150   48.8380 C   0  0  0  0  0  3  0  0  0  0  0  0
   37.5460   30.2810   51.4000 C   0  0  0  0  0  0  0  0  0  0  0  0
   38.0970   31.0300   50.3420 C   0  0  0  0  0  0  0  0  0  0  0  0
   37.5560   30.8390   49.0470 C   0  0  0  0  0  0  0  0  0  0  0  0
   36.5350   29.9420   48.9000 N   0  0  0  0  0  0  0  0  0  0  0  0
   36.0570   29.2580   49.9750 C   0  0  0  0  0  0  0  0  0  0  0  0
   36.5500   29.4230   51.1980 N   0  0  0  0  0  0  0  0  0  0  0  0
   37.9940   30.4610   52.3840 H   0  0  0  0  0  0  0  0  0  0  0  0
   38.9090   31.7440   50.4540 H   0  0  0  0  0  0  0  0  0  0  0  0
   38.0380   31.5680   47.8740 C   0  0  0  0  0  0  0  0  0  0  0  0
   37.6020   31.2880   46.5980 C   0  0  0  0  0  0  0  0  0  0  0  0
   38.2540   32.1720   45.7330 C   0  0  0  0  0  0  0  0  0  0  0  0
   39.0480   32.9400   46.5170 N   0  0  0  0  0  0  0  0  0  0  0  0
   38.9270   32.5870   47.7950 N   0  0  0  0  0  0  0  0  0  0  0  0
   36.8800   30.5250   46.2770 H   0  0  0  0  0  0  0  0  0  0  0  0
   38.1090   32.1880   44.6630 H   0  0  0  0  0  0  0  0  0  0  0  0
   39.6380   33.6850   46.0660 H   0  0  0  0  0  0  0  0  0  0  0  0
  1 26  1  0  0  0  0
  1  3  1  0  0  0  0
  2  1  1  0  0  0  0
  4  1  1  0  0  0  0
  5  4  1  0  0  0  0
  5 10  1  0  0  0  0
  6 11  1  0  0  0  0
  6  5  2  0  0  0  0
  7  8  2  0  0  0  0
  7  6  1  0  0  0  0
  8  9  1  0  0  0  0
  9  4  2  0  0  0  0
 12  7  1  0  0  0  0
 13  8  1  0  0  0  0
 15 14  1  0  0  0  0
 15  9  1  0  0  0  0
 16 15  2  0  0  0  0
 17 16  1  0  0  0  0
 18 19  2  0  0  0  0
 18 16  1  0  0  0  0
 19 20  1  0  0  0  0
 20 14  2  0  0  0  0
 21 22  1  0  0  0  0
 21 19  1  0  0  0  0
 22 23  1  0  0  0  0
 24 22  1  0  0  0  0
 24 18  1  0  0  0  0
 25 31  1  0  0  0  0
 26 25  2  0  0  0  0
 27 33  1  0  0  0  0
 28 34  1  0  0  0  0
 28 27  2  0  0  0  0
 29 28  1  0  0  0  0
 30 29  2  0  0  0  0
 30 31  1  0  0  0  0
 31 32  2  0  0  0  0
 32 27  1  0  0  0  0
 35 29  1  0  0  0  0
 36 35  1  0  0  0  0
 37 38  1  0  0  0  0
 37 36  2  0  0  0  0
 38 39  1  0  0  0  0
 39 35  2  0  0  0  0
 40 36  1  0  0  0  0
 41 37  1  0  0  0  0
 42 38  1  0  0  0  0
M  END
>  <minimizedAffinity>
-6.54216623

>  <minimizedRMSD>
1.81893837

$$$$
