
 OpenBabel03272500583D

 37 40  0  0  0  0  0  0  0  0999 V2000
   38.1080   31.8850   47.4190 C   0  0  0  0  0  0  0  0  0  0  0  0
   38.6290   32.7990   48.2860 C   0  0  0  0  0  0  0  0  0  0  0  0
   38.1990   32.9110   49.6110 C   0  0  0  0  0  0  0  0  0  0  0  0
   37.1560   32.0050   50.0500 C   0  0  0  0  0  0  0  0  0  0  0  0
   36.6800   31.1180   49.1380 C   0  0  0  0  0  0  0  0  0  0  0  0
   37.1000   31.0220   47.8710 C   0  0  0  0  0  0  0  0  0  0  0  0
   39.4230   33.5020   47.9830 H   0  0  0  0  0  0  0  0  0  0  0  0
   38.6540   33.6610   50.2450 H   0  0  0  0  0  0  0  0  0  0  0  0
   36.9270   32.2010   51.0750 H   0  0  0  0  0  0  0  0  0  0  0  0
   35.9490   30.5380   49.6790 H   0  0  0  0  0  0  0  0  0  0  0  0
   39.9210   31.2170   45.9160 C   0  0  0  0  0  0  0  0  0  0  0  0
   38.6790   31.8780   46.0910 C   0  0  0  0  0  0  0  0  0  0  0  0
   38.1670   32.4320   44.9440 C   0  0  0  0  0  0  0  0  0  0  0  0
   38.8150   32.3340   43.7780 N   0  0  0  0  0  0  0  0  0  0  0  0
   39.9700   31.7150   43.6330 C   0  0  0  0  0  0  0  0  0  0  0  0
   40.5120   31.1620   44.7070 N   0  0  0  0  0  0  0  0  0  0  0  0
   40.4070   30.7450   46.7750 H   0  0  0  0  0  0  0  0  0  0  0  0
   37.2220   32.9370   45.0680 H   0  0  0  0  0  0  0  0  0  0  0  0
   40.5040   31.6300   42.6950 H   0  0  0  0  0  0  0  0  0  0  0  0
   35.1230   29.9690   47.1540 C   0  0  0  0  0  0  0  0  0  0  0  0
   34.5420   30.6480   48.0870 O   0  0  0  0  0  0  0  0  0  0  0  0
   36.5570   30.1180   46.9950 N   0  0  0  0  0  0  0  0  0  0  0  0
   37.0980   29.5810   46.2820 H   0  0  0  0  0  0  0  0  0  0  0  0
   34.3630   29.1490   46.3710 O   0  0  0  0  0  0  0  0  0  0  0  0
   33.2440   29.5300   45.6530 C   0  0  0  0  0  0  0  0  0  0  0  0
   33.1890   30.6610   44.9810 O   0  0  0  0  0  0  0  0  0  0  0  0
   31.9920   27.5120   44.8500 C   0  0  0  0  0  3  0  0  0  0  0  0
   32.0500   28.6560   45.5920 C   0  0  0  0  0  0  0  0  0  0  0  0
   30.9160   28.9780   46.3070 C   0  0  0  0  0  0  0  0  0  0  0  0
   30.9180   29.8870   46.9160 H   0  0  0  0  0  0  0  0  0  0  0  0
   29.7720   28.2370   46.3130 C   0  0  0  0  0  0  0  0  0  0  0  0
   29.7550   27.0770   45.5410 C   0  0  0  0  0  0  0  0  0  0  0  0
   30.8680   26.7160   44.8090 C   0  0  0  0  0  3  0  0  0  0  0  0
   28.4910   26.4780   45.6960 O   0  0  0  0  0  0  0  0  0  0  0  0
   27.8910   27.0370   46.8480 C   0  0  0  0  0  3  0  0  0  0  0  0
   26.8040   27.1990   46.7600 H   0  0  0  0  0  0  0  0  0  0  0  0
   28.5140   28.3150   46.9200 O   0  0  0  0  0  0  0  0  0  0  0  0
  1  6  2  0  0  0  0
  1  2  1  0  0  0  0
  2  3  2  0  0  0  0
  3  4  1  0  0  0  0
  3  8  1  0  0  0  0
  4  9  1  0  0  0  0
  5 10  1  0  0  0  0
  5  4  2  0  0  0  0
  6  5  1  0  0  0  0
  7  2  1  0  0  0  0
 11 12  1  0  0  0  0
 11 17  1  0  0  0  0
 12  1  1  0  0  0  0
 13 18  1  0  0  0  0
 13 12  2  0  0  0  0
 14 13  1  0  0  0  0
 15 14  2  0  0  0  0
 15 16  1  0  0  0  0
 16 11  2  0  0  0  0
 19 15  1  0  0  0  0
 20 21  2  0  0  0  0
 22 20  1  0  0  0  0
 22  6  1  0  0  0  0
 23 22  1  0  0  0  0
 24 20  1  0  0  0  0
 25 24  1  0  0  0  0
 26 25  2  0  0  0  0
 27 28  1  0  0  0  0
 28 25  1  0  0  0  0
 28 29  2  0  0  0  0
 29 31  1  0  0  0  0
 29 30  1  0  0  0  0
 31 37  1  0  0  0  0
 32 34  1  0  0  0  0
 32 31  2  0  0  0  0
 33 27  2  0  0  0  0
 33 32  1  0  0  0  0
 34 35  1  0  0  0  0
 35 37  1  0  0  0  0
 36 35  1  0  0  0  0
M  END
>  <minimizedAffinity>
-5.71580935

>  <minimizedRMSD>
0.406185269

$$$$
