
 OpenBabel03272502183D

 35 38  0  0  1  0  0  0  0  0999 V2000
   37.2990   30.4070   49.0840 C   0  0  0  0  0  0  0  0  0  0  0  0
   37.6520   31.3510   50.0750 C   0  0  0  0  0  0  0  0  0  0  0  0
   38.4660   32.4240   49.7230 C   0  0  0  0  0  0  0  0  0  0  0  0
   38.8820   32.4930   48.4050 N   0  0  0  0  0  0  0  0  0  0  0  0
   38.5300   31.5860   47.5000 C   0  0  0  0  0  0  0  0  0  0  0  0
   37.7420   30.5480   47.8400 N   0  0  0  0  0  0  0  0  0  0  0  0
   37.3360   31.3150   51.1110 H   0  0  0  0  0  0  0  0  0  0  0  0
   38.7470   33.1570   50.4660 H   0  0  0  0  0  0  0  0  0  0  0  0
   40.2090   31.2160   45.7210 C   0  0  0  0  0  0  0  0  0  0  0  0
   38.9830   31.6870   46.1250 C   0  0  0  0  0  0  0  0  0  0  0  0
   38.1660   32.2700   45.1980 C   0  0  0  0  0  0  0  0  0  0  0  0
   37.2140   32.6370   45.5070 H   0  0  0  0  0  0  0  0  0  0  0  0
   38.6110   32.3580   43.8990 C   0  0  0  0  0  0  0  0  0  0  0  0
   39.8380   31.9010   43.4320 C   0  0  0  0  0  0  0  0  0  0  0  0
   40.6290   31.3190   44.4080 C   0  0  0  0  0  0  0  0  0  0  0  0
   39.8720   32.1880   42.0880 O   0  0  0  0  0  0  0  0  0  0  0  0
   38.9400   33.2250   41.8460 C   0  0  0  0  0  0  0  0  0  0  0  0
   38.5460   33.2020   40.8030 H   0  0  0  0  0  0  0  0  0  0  0  0
   37.9370   32.9120   42.8110 O   0  0  0  0  0  0  0  0  0  0  0  0
   36.2580   29.1140   49.7180 S   0  0  0  0  0  0  0  0  0  0  0  0
   33.7780   28.2090   49.1660 N   0  0  0  0  0  0  0  0  0  0  0  0
   34.4950   29.4490   49.3540 C   0  0  2  0  0  0  0  0  0  0  0  0
   34.3960   30.2360   48.0700 C   0  0  0  0  0  0  0  0  0  0  0  0
   33.3670   29.7500   47.2350 O   0  0  0  0  0  0  0  0  0  0  0  0
   33.7980   28.4940   46.8060 C   0  0  0  0  0  0  0  0  0  0  0  0
   34.2200   27.5930   47.9480 C   0  0  2  0  0  0  0  0  0  0  0  0
   33.8590   27.5980   49.9960 H   0  0  0  0  0  0  0  0  0  0  0  0
   34.0880   29.9750   50.2390 H   0  0  0  0  0  0  0  0  0  0  0  0
   35.3540   30.3220   47.5530 H   0  0  0  0  0  0  0  0  0  0  0  0
   34.0990   31.2850   48.3590 H   0  0  0  0  0  0  0  0  0  0  0  0
   32.9090   28.0210   46.3160 H   0  0  0  0  0  0  0  0  0  0  0  0
   34.5760   28.5520   46.0180 H   0  0  0  0  0  0  0  0  0  0  0  0
   35.3250   27.5090   47.9620 H   0  0  0  0  0  0  0  0  0  0  0  0
   33.6100   26.3280   47.8340 O   0  0  0  0  0  0  0  0  0  0  0  0
   33.7910   25.9280   46.9400 H   0  0  0  0  0  0  0  0  0  0  0  0
  1 20  1  0  0  0  0
  1  2  1  0  0  0  0
  2  7  1  0  0  0  0
  3  2  2  0  0  0  0
  3  8  1  0  0  0  0
  4  3  1  0  0  0  0
  5  6  1  0  0  0  0
  5  4  2  0  0  0  0
  6  1  2  0  0  0  0
  9 10  1  0  0  0  0
 10  5  1  0  0  0  0
 11 12  1  0  0  0  0
 11 10  2  0  0  0  0
 13 11  1  0  0  0  0
 14 13  2  0  0  0  0
 14 15  1  0  0  0  0
 15  9  2  0  0  0  0
 16 14  1  0  0  0  0
 17 16  1  0  0  0  0
 17 19  1  0  0  0  0
 18 17  1  0  0  0  0
 19 13  1  0  0  0  0
 21 22  1  0  0  0  0
 21 27  1  0  0  0  0
 22 20  1  0  0  0  0
 22 28  1  1  0  0  0
 23 30  1  0  0  0  0
 23 22  1  0  0  0  0
 24 23  1  0  0  0  0
 25 24  1  0  0  0  0
 25 26  1  0  0  0  0
 26 33  1  1  0  0  0
 26 21  1  0  0  0  0
 29 23  1  0  0  0  0
 31 25  1  0  0  0  0
 32 25  1  0  0  0  0
 34 26  1  0  0  0  0
 35 34  1  0  0  0  0
M  END
>  <minimizedAffinity>
-6.4577837

>  <minimizedRMSD>
1.17080569

$$$$
