
 OpenBabel03272507473D

 48 53  0  0  1  0  0  0  0  0999 V2000
   33.0450   28.6370   46.5750 N   0  0  0  0  0  0  0  0  0  0  0  0
   33.5760   28.0150   47.7380 C   0  0  0  0  0  0  0  0  0  0  0  0
   34.7070   28.7020   48.4020 C   0  0  0  0  0  0  0  0  0  0  0  0
   35.6950   29.3440   47.5360 C   0  0  1  0  0  0  0  0  0  0  0  0
   35.0630   29.9310   46.2610 C   0  0  0  0  0  0  0  0  0  0  0  0
   34.1480   28.8530   45.6650 C   0  0  0  0  0  0  0  0  0  0  0  0
   33.8790   26.9590   47.4750 H   0  0  0  0  0  0  0  0  0  0  0  0
   32.7240   27.8900   48.4540 H   0  0  0  0  0  0  0  0  0  0  0  0
   34.1730   29.5430   48.9570 H   0  0  0  0  0  0  0  0  0  0  0  0
   35.1660   28.0420   49.1500 H   0  0  0  0  0  0  0  0  0  0  0  0
   36.4150   28.5840   47.1230 H   0  0  0  0  0  0  0  0  0  0  0  0
   34.4710   30.8310   46.4620 H   0  0  0  0  0  0  0  0  0  0  0  0
   35.8730   30.0810   45.5240 H   0  0  0  0  0  0  0  0  0  0  0  0
   33.7500   29.2560   44.7010 H   0  0  0  0  0  0  0  0  0  0  0  0
   34.7200   27.9390   45.4540 H   0  0  0  0  0  0  0  0  0  0  0  0
   36.0680   30.8380   49.4480 C   0  0  0  0  0  0  0  0  0  0  0  0
   36.4260   30.4770   48.1550 C   0  0  0  0  0  0  0  0  0  0  0  0
   37.3850   31.1240   47.4230 C   0  0  0  0  0  0  0  0  0  0  0  0
   38.0320   32.2070   48.0160 C   0  0  0  0  0  0  0  0  0  0  0  0
   37.6760   32.5650   49.2930 C   0  0  0  0  0  0  0  0  0  0  0  0
   36.7070   31.9140   50.0430 C   0  0  0  0  0  0  0  0  0  0  0  0
   38.4310   33.6720   49.7140 O   0  0  0  0  0  0  0  0  0  0  0  0
   39.5110   33.7400   48.7800 C   0  0  0  0  0  0  0  0  0  0  0  0
   39.0330   33.1010   47.6220 O   0  0  0  0  0  0  0  0  0  0  0  0
   35.3440   30.3960   50.1190 H   0  0  0  0  0  0  0  0  0  0  0  0
   37.6380   30.8270   46.4390 H   0  0  0  0  0  0  0  0  0  0  0  0
   36.4730   32.2480   51.0490 H   0  0  0  0  0  0  0  0  0  0  0  0
   39.6720   34.8200   48.4970 H   0  0  0  0  0  0  0  0  0  0  0  0
   40.4410   33.3040   49.1490 H   0  0  0  0  0  0  0  0  0  0  0  0
   31.6850   28.9950   46.3080 C   0  0  0  0  0  0  0  0  0  0  0  0
   31.2100   29.5710   45.1370 C   0  0  0  0  0  0  0  0  0  0  0  0
   29.8480   29.8400   45.0620 C   0  0  0  0  0  0  0  0  0  0  0  0
   29.0640   29.5320   46.1230 N   0  0  0  0  0  0  0  0  0  0  0  0
   29.5460   28.9740   47.2480 C   0  0  0  0  0  0  0  0  0  0  0  0
   30.8580   28.7160   47.3180 N   0  0  0  0  0  0  0  0  0  0  0  0
   31.9320   29.7600   44.3860 H   0  0  0  0  0  0  0  0  0  0  0  0
   29.4990   30.2860   44.1490 H   0  0  0  0  0  0  0  0  0  0  0  0
   27.3220   29.0110   48.2800 C   0  0  0  0  0  0  0  0  0  0  0  0
   28.6490   28.6640   48.3590 C   0  0  0  0  0  0  0  0  0  0  0  0
   29.1230   28.0230   49.4860 C   0  0  0  0  0  0  0  0  0  0  0  0
   30.1550   27.7310   49.5960 H   0  0  0  0  0  0  0  0  0  0  0  0
   28.1820   27.7750   50.4860 C   0  0  0  0  0  0  0  0  0  0  0  0
   26.8490   28.1190   50.4210 C   0  0  0  0  0  0  0  0  0  0  0  0
   26.4030   28.7570   49.2830 C   0  0  0  0  0  0  0  0  0  0  0  0
   26.2690   27.6940   51.6150 O   0  0  0  0  0  0  0  0  0  0  0  0
   27.1160   26.7580   52.2520 C   0  0  0  0  0  0  0  0  0  0  0  0
   27.1720   26.8820   53.3520 H   0  0  0  0  0  0  0  0  0  0  0  0
   28.3780   27.1460   51.7300 O   0  0  0  0  0  0  0  0  0  0  0  0
  1  2  1  0  0  0  0
  2  3  1  0  0  0  0
  2  8  1  0  0  0  0
  3  9  1  0  0  0  0
  3 10  1  0  0  0  0
  4 11  1  6  0  0  0
  4 17  1  0  0  0  0
  4  3  1  0  0  0  0
  5 12  1  0  0  0  0
  5  4  1  0  0  0  0
  6  5  1  0  0  0  0
  6  1  1  0  0  0  0
  7  2  1  0  0  0  0
 13  5  1  0  0  0  0
 14  6  1  0  0  0  0
 15  6  1  0  0  0  0
 16 21  1  0  0  0  0
 16 25  1  0  0  0  0
 17 16  2  0  0  0  0
 18 19  2  0  0  0  0
 18 17  1  0  0  0  0
 19 20  1  0  0  0  0
 20 22  1  0  0  0  0
 20 21  2  0  0  0  0
 21 27  1  0  0  0  0
 23 29  1  0  0  0  0
 23 22  1  0  0  0  0
 24 19  1  0  0  0  0
 24 23  1  0  0  0  0
 26 18  1  0  0  0  0
 28 23  1  0  0  0  0
 30  1  1  0  0  0  0
 30 35  1  0  0  0  0
 31 30  2  0  0  0  0
 32 31  1  0  0  0  0
 32 33  2  0  0  0  0
 33 34  1  0  0  0  0
 34 35  2  0  0  0  0
 34 39  1  0  0  0  0
 36 31  1  0  0  0  0
 37 32  1  0  0  0  0
 38 39  2  0  0  0  0
 38 44  1  0  0  0  0
 39 40  1  0  0  0  0
 40 41  1  0  0  0  0
 40 42  2  0  0  0  0
 42 48  1  0  0  0  0
 43 42  1  0  0  0  0
 43 45  1  0  0  0  0
 44 43  2  0  0  0  0
 45 46  1  0  0  0  0
 46 47  1  0  0  0  0
 48 46  1  0  0  0  0
M  END
>  <minimizedAffinity>
-7.79540443

>  <minimizedRMSD>
1.30128467

$$$$
