
 OpenBabel03272510263D

 47 52  0  0  1  0  0  0  0  0999 V2000
   38.8710   31.7610   41.4420 N   0  0  0  0  0  0  0  0  0  0  0  0
   38.9260   33.1870   41.5890 C   0  0  1  0  0  0  0  0  0  0  0  0
   37.6370   33.7950   41.2890 C   0  0  0  0  0  0  0  0  0  0  0  0
   37.3150   33.5430   39.9490 O   0  0  0  0  0  0  0  0  0  0  0  0
   37.3360   32.2150   39.5880 C   0  0  0  0  0  0  0  0  0  0  0  0
   38.5690   31.5020   40.0500 C   0  0  1  0  0  0  0  0  0  0  0  0
   38.4490   31.1850   42.1290 H   0  0  0  0  0  0  0  0  0  0  0  0
   39.7070   33.5710   40.9190 H   0  0  0  0  0  0  0  0  0  0  0  0
   37.7900   34.9180   41.3130 H   0  0  0  0  0  0  0  0  0  0  0  0
   36.7360   33.6050   41.8080 H   0  0  0  0  0  0  0  0  0  0  0  0
   36.4000   31.6970   39.9460 H   0  0  0  0  0  0  0  0  0  0  0  0
   37.2740   32.1540   38.4870 H   0  0  0  0  0  0  0  0  0  0  0  0
   38.3100   30.4020   40.0180 H   0  0  0  0  0  0  0  0  0  0  0  0
   39.9650   32.4710   38.0910 C   0  0  0  0  0  3  0  0  0  0  0  0
   39.7430   31.6650   39.1870 C   0  0  0  0  0  0  0  0  0  0  0  0
   40.7850   30.8260   39.6030 C   0  0  0  0  0  0  0  0  0  0  0  0
   40.7620   30.1310   40.4520 H   0  0  0  0  0  0  0  0  0  0  0  0
   42.0070   30.8090   38.9280 C   0  0  0  0  0  0  0  0  0  0  0  0
   42.1400   31.6460   37.8450 C   0  0  0  0  0  0  0  0  0  0  0  0
   41.1540   32.4800   37.4040 C   0  0  0  0  0  3  0  0  0  0  0  0
   43.4280   31.4650   37.3290 O   0  0  0  0  0  0  0  0  0  0  0  0
   44.0050   30.3650   37.9830 C   0  0  0  0  0  3  0  0  0  0  0  0
   45.0580   30.5540   38.2870 H   0  0  0  0  0  0  0  0  0  0  0  0
   43.1990   30.1030   39.0980 O   0  0  0  0  0  0  0  0  0  0  0  0
   39.3090   33.4510   42.9330 O   0  0  0  0  0  0  0  0  0  0  0  0
   36.1790   30.1940   46.7290 C   0  0  0  0  0  0  0  0  0  0  0  0
   37.0660   30.7550   47.6380 C   0  0  0  0  0  0  0  0  0  0  0  0
   38.0570   31.6420   47.2160 C   0  0  0  0  0  0  0  0  0  0  0  0
   38.0960   31.9210   45.8540 C   0  0  0  0  0  0  0  0  0  0  0  0
   38.9750   32.7600   45.2070 N   0  0  0  0  0  0  0  0  0  0  0  0
   38.6290   32.7150   43.9060 C   0  0  0  0  0  0  0  0  0  0  0  0
   37.6010   31.9030   43.7360 N   0  0  0  0  0  0  0  0  0  0  0  0
   37.2390   31.3890   44.9250 C   0  0  0  0  0  0  0  0  0  0  0  0
   36.2540   30.5020   45.3800 C   0  0  0  0  0  0  0  0  0  0  0  0
   35.4020   29.5030   47.0390 H   0  0  0  0  0  0  0  0  0  0  0  0
   38.7590   32.0910   47.9050 H   0  0  0  0  0  0  0  0  0  0  0  0
   39.7500   33.3130   45.6540 H   0  0  0  0  0  0  0  0  0  0  0  0
   35.5740   30.0770   44.6530 H   0  0  0  0  0  0  0  0  0  0  0  0
   37.5630   30.2810   51.3350 C   0  0  0  0  0  0  0  0  0  0  0  0
   37.8410   30.6990   50.0320 C   0  0  0  0  0  0  0  0  0  0  0  0
   36.9420   30.4020   49.0370 C   0  0  0  0  0  0  0  0  0  0  0  0
   35.8070   29.7020   49.3940 N   0  0  0  0  0  0  0  0  0  0  0  0
   35.5610   29.3100   50.6620 C   0  0  0  0  0  0  0  0  0  0  0  0
   36.4270   29.5960   51.6120 N   0  0  0  0  0  0  0  0  0  0  0  0
   38.2950   30.5340   52.0860 H   0  0  0  0  0  0  0  0  0  0  0  0
   38.7240   31.2450   49.7480 H   0  0  0  0  0  0  0  0  0  0  0  0
   34.6430   28.7710   50.8070 H   0  0  0  0  0  0  0  0  0  0  0  0
  1  2  1  0  0  0  0
  1  7  1  0  0  0  0
  2  8  1  6  0  0  0
  2 25  1  0  0  0  0
  3  9  1  0  0  0  0
  3  2  1  0  0  0  0
  3 10  1  0  0  0  0
  4  3  1  0  0  0  0
  5 11  1  0  0  0  0
  5  4  1  0  0  0  0
  5  6  1  0  0  0  0
  6 13  1  6  0  0  0
  6  1  1  0  0  0  0
 12  5  1  0  0  0  0
 14 15  1  0  0  0  0
 15 16  2  0  0  0  0
 15  6  1  0  0  0  0
 16 17  1  0  0  0  0
 18 24  1  0  0  0  0
 18 16  1  0  0  0  0
 19 18  2  0  0  0  0
 20 19  1  0  0  0  0
 20 14  2  0  0  0  0
 21 19  1  0  0  0  0
 21 22  1  0  0  0  0
 22 23  1  0  0  0  0
 22 24  1  0  0  0  0
 25 31  1  0  0  0  0
 26 35  1  0  0  0  0
 26 27  1  0  0  0  0
 27 41  1  0  0  0  0
 28 27  2  0  0  0  0
 28 36  1  0  0  0  0
 29 28  1  0  0  0  0
 30 37  1  0  0  0  0
 30 29  1  0  0  0  0
 31 30  1  0  0  0  0
 32 31  2  0  0  0  0
 32 33  1  0  0  0  0
 33 34  1  0  0  0  0
 33 29  2  0  0  0  0
 34 26  2  0  0  0  0
 38 34  1  0  0  0  0
 39 44  1  0  0  0  0
 39 45  1  0  0  0  0
 40 39  2  0  0  0  0
 41 42  2  0  0  0  0
 41 40  1  0  0  0  0
 42 43  1  0  0  0  0
 43 47  1  0  0  0  0
 43 44  2  0  0  0  0
 46 40  1  0  0  0  0
M  END
>  <minimizedAffinity>
-6.07492685

>  <minimizedRMSD>
0.764878452

$$$$
