
 OpenBabel03272500493D

 41 46  0  0  1  0  0  0  0  0999 V2000
   37.6580   25.9030   35.8960 C   0  0  1  0  0  0  0  0  0  0  0  0
   38.4070   27.2780   35.9690 C   0  0  0  0  0  0  0  0  0  0  0  0
   38.2000   26.5530   34.6880 C   0  0  2  0  0  0  0  0  0  0  0  0
   36.5740   25.9770   36.0610 H   0  0  0  0  0  0  0  0  0  0  0  0
   39.3830   27.2220   36.4770 H   0  0  0  0  0  0  0  0  0  0  0  0
   37.7590   28.1590   36.1980 H   0  0  0  0  0  0  0  0  0  0  0  0
   39.0790   26.0900   34.2410 H   0  0  0  0  0  0  0  0  0  0  0  0
   39.8220   23.1210   36.6540 C   0  0  0  0  0  0  0  0  0  0  0  0
   39.0450   23.1430   37.7900 C   0  0  0  0  0  0  0  0  0  0  0  0
   38.1150   24.1980   37.6670 C   0  0  0  0  0  0  0  0  0  0  0  0
   38.3610   24.7710   36.4710 N   0  0  0  0  0  0  0  0  0  0  0  0
   39.3580   24.1190   35.9130 N   0  0  0  0  0  0  0  0  0  0  0  0
   39.0900   22.4920   38.6600 H   0  0  0  0  0  0  0  0  0  0  0  0
   37.3600   24.4710   38.4080 H   0  0  0  0  0  0  0  0  0  0  0  0
   41.3850   21.8730   35.1250 C   0  0  0  0  0  0  0  0  0  0  0  0
   40.8840   22.1800   36.4170 C   0  0  0  0  0  0  0  0  0  0  0  0
   41.4690   21.5200   37.4930 C   0  0  0  0  0  0  0  0  0  0  0  0
   42.4710   20.6360   37.2420 N   0  0  0  0  0  0  0  0  0  0  0  0
   42.9120   20.3770   36.0070 C   0  0  0  0  0  0  0  0  0  0  0  0
   42.3660   21.0010   34.9210 N   0  0  0  0  0  0  0  0  0  0  0  0
   40.8930   22.4160   34.3140 H   0  0  0  0  0  0  0  0  0  0  0  0
   41.1150   21.7270   38.4920 H   0  0  0  0  0  0  0  0  0  0  0  0
   43.6990   19.6840   35.7730 H   0  0  0  0  0  0  0  0  0  0  0  0
   37.2430   27.1120   33.6700 C   0  0  0  0  0  0  0  0  0  0  0  0
   37.0660   26.5600   32.3940 C   0  0  0  0  0  0  0  0  0  0  0  0
   36.1370   27.3210   31.7560 N   0  0  0  0  0  0  0  0  0  0  0  0
   35.7470   28.3140   32.6020 C   0  0  0  0  0  0  0  0  0  0  0  0
   36.4220   28.1900   33.7750 N   0  0  0  0  0  0  0  0  0  0  0  0
   37.5650   25.6920   31.9780 H   0  0  0  0  0  0  0  0  0  0  0  0
   35.8200   27.1260   30.7850 H   0  0  0  0  0  0  0  0  0  0  0  0
   35.1390   30.3790   31.4590 C   0  0  0  0  0  3  0  0  0  0  0  0
   34.7600   29.3370   32.2760 C   0  0  0  0  0  0  0  0  0  0  0  0
   33.4850   29.2350   32.7890 C   0  0  0  0  0  0  0  0  0  0  0  0
   33.1770   28.4140   33.4360 H   0  0  0  0  0  0  0  0  0  0  0  0
   32.5370   30.1950   32.4920 C   0  0  0  0  0  0  0  0  0  0  0  0
   32.9580   31.2240   31.6680 C   0  0  0  0  0  0  0  0  0  0  0  0
   34.2320   31.3650   31.1290 C   0  0  0  0  0  3  0  0  0  0  0  0
   31.8450   32.0690   31.5040 O   0  0  0  0  0  0  0  0  0  0  0  0
   30.9240   31.8330   32.5690 C   0  0  0  0  0  3  0  0  0  0  0  0
   29.8830   32.0130   32.2950 H   0  0  0  0  0  0  0  0  0  0  0  0
   31.1880   30.4410   32.8020 O   0  0  0  0  0  0  0  0  0  0  0  0
  1  2  1  0  0  0  0
  1  4  1  1  0  0  0
  1 11  1  0  0  0  0
  2  6  1  0  0  0  0
  2  5  1  0  0  0  0
  3  7  1  6  0  0  0
  3  1  1  0  0  0  0
  3  2  1  0  0  0  0
  8  9  1  0  0  0  0
  9 13  1  0  0  0  0
 10  9  2  0  0  0  0
 10 14  1  0  0  0  0
 11 10  1  0  0  0  0
 12 11  1  0  0  0  0
 12  8  2  0  0  0  0
 15 16  1  0  0  0  0
 16  8  1  0  0  0  0
 16 17  2  0  0  0  0
 17 22  1  0  0  0  0
 18 17  1  0  0  0  0
 19 18  2  0  0  0  0
 20 15  2  0  0  0  0
 20 19  1  0  0  0  0
 21 15  1  0  0  0  0
 23 19  1  0  0  0  0
 24 28  1  0  0  0  0
 24  3  1  0  0  0  0
 25 24  2  0  0  0  0
 26 25  1  0  0  0  0
 26 27  1  0  0  0  0
 27 28  2  0  0  0  0
 29 25  1  0  0  0  0
 30 26  1  0  0  0  0
 31 32  1  0  0  0  0
 32 27  1  0  0  0  0
 32 33  2  0  0  0  0
 33 34  1  0  0  0  0
 35 33  1  0  0  0  0
 35 41  1  0  0  0  0
 36 35  2  0  0  0  0
 37 31  2  0  0  0  0
 37 36  1  0  0  0  0
 38 36  1  0  0  0  0
 38 39  1  0  0  0  0
 39 41  1  0  0  0  0
 40 39  1  0  0  0  0
M  END
>  <minimizedAffinity>
-6.08905649

$$$$

 OpenBabel03272500493D

 41 46  0  0  1  0  0  0  0  0999 V2000
   35.1000   29.5370   34.9710 C   0  0  1  0  0  0  0  0  0  0  0  0
   34.9180   29.4040   33.4200 C   0  0  0  0  0  0  0  0  0  0  0  0
   36.2250   29.1760   34.0890 C   0  0  2  0  0  0  0  0  0  0  0  0
   34.6330   28.7240   35.5460 H   0  0  0  0  0  0  0  0  0  0  0  0
   34.7220   30.3650   32.9160 H   0  0  0  0  0  0  0  0  0  0  0  0
   34.3230   28.5190   33.0870 H   0  0  0  0  0  0  0  0  0  0  0  0
   36.9890   29.9380   33.9420 H   0  0  0  0  0  0  0  0  0  0  0  0
   34.1450   32.6820   36.4510 C   0  0  0  0  0  0  0  0  0  0  0  0
   35.4590   32.9480   36.1380 C   0  0  0  0  0  0  0  0  0  0  0  0
   36.0090   31.7970   35.5340 C   0  0  0  0  0  0  0  0  0  0  0  0
   35.0160   30.8850   35.5030 N   0  0  0  0  0  0  0  0  0  0  0  0
   33.9510   31.4350   36.0440 N   0  0  0  0  0  0  0  0  0  0  0  0
   36.0280   33.8600   36.3010 H   0  0  0  0  0  0  0  0  0  0  0  0
   37.0360   31.6960   35.1730 H   0  0  0  0  0  0  0  0  0  0  0  0
   31.8700   33.7040   36.7930 C   0  0  0  0  0  0  0  0  0  0  0  0
   33.2570   33.6210   37.0820 C   0  0  0  0  0  0  0  0  0  0  0  0
   33.7570   34.5060   38.0320 C   0  0  0  0  0  0  0  0  0  0  0  0
   32.8970   35.3840   38.6150 N   0  0  0  0  0  0  0  0  0  0  0  0
   31.5960   35.4270   38.3120 C   0  0  0  0  0  0  0  0  0  0  0  0
   31.0610   34.5770   37.3850 N   0  0  0  0  0  0  0  0  0  0  0  0
   31.5260   32.9880   36.0420 H   0  0  0  0  0  0  0  0  0  0  0  0
   34.8080   34.4740   38.2790 H   0  0  0  0  0  0  0  0  0  0  0  0
   30.8890   36.1070   38.7510 H   0  0  0  0  0  0  0  0  0  0  0  0
   36.7860   27.7810   34.1560 C   0  0  0  0  0  0  0  0  0  0  0  0
   36.7640   26.8880   33.0760 C   0  0  0  0  0  0  0  0  0  0  0  0
   37.3480   25.7360   33.5000 N   0  0  0  0  0  0  0  0  0  0  0  0
   37.7200   25.9000   34.8000 C   0  0  0  0  0  0  0  0  0  0  0  0
   37.3780   27.1510   35.2050 N   0  0  0  0  0  0  0  0  0  0  0  0
   36.3650   27.0650   32.0840 H   0  0  0  0  0  0  0  0  0  0  0  0
   37.4610   24.9030   32.8880 H   0  0  0  0  0  0  0  0  0  0  0  0
   37.8900   24.6200   36.8660 C   0  0  0  0  0  3  0  0  0  0  0  0
   38.3810   24.8810   35.6060 C   0  0  0  0  0  0  0  0  0  0  0  0
   39.4690   24.2100   35.0920 C   0  0  0  0  0  0  0  0  0  0  0  0
   39.8640   24.4090   34.0960 H   0  0  0  0  0  0  0  0  0  0  0  0
   40.1070   23.2410   35.8420 C   0  0  0  0  0  0  0  0  0  0  0  0
   39.5820   23.0100   37.1000 C   0  0  0  0  0  0  0  0  0  0  0  0
   38.4880   23.6620   37.6580 C   0  0  0  0  0  3  0  0  0  0  0  0
   40.3780   22.0000   37.6730 O   0  0  0  0  0  0  0  0  0  0  0  0
   41.6310   21.9560   36.9890 C   0  0  0  0  0  3  0  0  0  0  0  0
   42.0870   20.9650   36.9750 H   0  0  0  0  0  0  0  0  0  0  0  0
   41.2000   22.3710   35.6840 O   0  0  0  0  0  0  0  0  0  0  0  0
  1 11  1  0  0  0  0
  1  4  1  1  0  0  0
  2  3  1  0  0  0  0
  2  1  1  0  0  0  0
  3  7  1  6  0  0  0
  3 24  1  0  0  0  0
  3  1  1  0  0  0  0
  5  2  1  0  0  0  0
  6  2  1  0  0  0  0
  8 16  1  0  0  0  0
  9 13  1  0  0  0  0
  9  8  1  0  0  0  0
 10  9  2  0  0  0  0
 11 10  1  0  0  0  0
 11 12  1  0  0  0  0
 12  8  2  0  0  0  0
 14 10  1  0  0  0  0
 15 16  2  0  0  0  0
 15 20  1  0  0  0  0
 16 17  1  0  0  0  0
 17 22  1  0  0  0  0
 17 18  2  0  0  0  0
 19 18  1  0  0  0  0
 19 23  1  0  0  0  0
 20 19  2  0  0  0  0
 21 15  1  0  0  0  0
 24 28  1  0  0  0  0
 25 26  1  0  0  0  0
 25 24  2  0  0  0  0
 26 27  1  0  0  0  0
 27 28  2  0  0  0  0
 27 32  1  0  0  0  0
 29 25  1  0  0  0  0
 30 26  1  0  0  0  0
 31 37  1  0  0  0  0
 32 31  2  0  0  0  0
 33 32  1  0  0  0  0
 33 35  2  0  0  0  0
 34 33  1  0  0  0  0
 35 36  1  0  0  0  0
 36 37  2  0  0  0  0
 36 38  1  0  0  0  0
 39 38  1  0  0  0  0
 40 39  1  0  0  0  0
 41 35  1  0  0  0  0
 41 39  1  0  0  0  0
M  END
>  <minimizedAffinity>
-6.07754993

$$$$

 OpenBabel03272500493D

 41 46  0  0  1  0  0  0  0  0999 V2000
   38.3510   26.7060   34.5720 C   0  0  1  0  0  0  0  0  0  0  0  0
   38.3980   27.2070   36.0570 C   0  0  0  0  0  0  0  0  0  0  0  0
   37.7410   25.9320   35.6690 C   0  0  2  0  0  0  0  0  0  0  0  0
   39.3210   26.3560   34.1900 H   0  0  0  0  0  0  0  0  0  0  0  0
   37.7850   28.1050   36.2380 H   0  0  0  0  0  0  0  0  0  0  0  0
   39.4050   27.1670   36.5390 H   0  0  0  0  0  0  0  0  0  0  0  0
   36.6520   25.9130   35.7010 H   0  0  0  0  0  0  0  0  0  0  0  0
   35.8060   28.7180   33.0000 C   0  0  0  0  0  0  0  0  0  0  0  0
   36.6100   28.4500   31.9170 C   0  0  0  0  0  0  0  0  0  0  0  0
   37.6880   27.6510   32.3540 C   0  0  0  0  0  0  0  0  0  0  0  0
   37.4990   27.4660   33.6770 N   0  0  0  0  0  0  0  0  0  0  0  0
   36.3970   28.1000   34.0150 N   0  0  0  0  0  0  0  0  0  0  0  0
   36.4900   28.7680   30.8830 H   0  0  0  0  0  0  0  0  0  0  0  0
   38.4990   27.2740   31.7250 H   0  0  0  0  0  0  0  0  0  0  0  0
   34.2610   30.3330   31.8420 C   0  0  0  0  0  0  0  0  0  0  0  0
   34.6050   29.5080   32.9440 C   0  0  0  0  0  0  0  0  0  0  0  0
   33.7150   29.4810   34.0130 C   0  0  0  0  0  0  0  0  0  0  0  0
   32.5870   30.2360   33.9350 N   0  0  0  0  0  0  0  0  0  0  0  0
   32.3030   31.0010   32.8760 C   0  0  0  0  0  0  0  0  0  0  0  0
   33.1480   31.0590   31.8040 N   0  0  0  0  0  0  0  0  0  0  0  0
   34.9920   30.3200   31.0280 H   0  0  0  0  0  0  0  0  0  0  0  0
   33.9420   28.8640   34.8700 H   0  0  0  0  0  0  0  0  0  0  0  0
   31.4230   31.6110   32.7820 H   0  0  0  0  0  0  0  0  0  0  0  0
   38.3680   24.6250   36.0750 C   0  0  0  0  0  0  0  0  0  0  0  0
   37.7240   23.6810   36.8860 C   0  0  0  0  0  0  0  0  0  0  0  0
   38.5840   22.6400   37.0450 N   0  0  0  0  0  0  0  0  0  0  0  0
   39.7250   22.9230   36.3590 C   0  0  0  0  0  0  0  0  0  0  0  0
   39.5970   24.1370   35.7630 N   0  0  0  0  0  0  0  0  0  0  0  0
   36.7300   23.7490   37.3140 H   0  0  0  0  0  0  0  0  0  0  0  0
   38.3510   21.7980   37.6080 H   0  0  0  0  0  0  0  0  0  0  0  0
   41.3440   21.4650   37.4530 C   0  0  0  0  0  3  0  0  0  0  0  0
   40.8870   22.0440   36.2890 C   0  0  0  0  0  0  0  0  0  0  0  0
   41.4930   21.8160   35.0720 C   0  0  0  0  0  0  0  0  0  0  0  0
   41.1380   22.2700   34.1470 H   0  0  0  0  0  0  0  0  0  0  0  0
   42.5950   20.9880   34.9880 C   0  0  0  0  0  0  0  0  0  0  0  0
   43.0200   20.4270   36.1790 C   0  0  0  0  0  0  0  0  0  0  0  0
   42.4400   20.6280   37.4260 C   0  0  0  0  0  3  0  0  0  0  0  0
   44.1360   19.6330   35.8560 O   0  0  0  0  0  0  0  0  0  0  0  0
   44.6690   20.0700   34.6060 C   0  0  0  0  0  3  0  0  0  0  0  0
   45.1540   19.2770   34.0350 H   0  0  0  0  0  0  0  0  0  0  0  0
   43.4580   20.5210   33.9810 O   0  0  0  0  0  0  0  0  0  0  0  0
  1  4  1  6  0  0  0
  1  3  1  0  0  0  0
  1  2  1  0  0  0  0
  2  5  1  0  0  0  0
  2  6  1  0  0  0  0
  3  7  1  1  0  0  0
  3  2  1  0  0  0  0
  3 24  1  0  0  0  0
  8 12  2  0  0  0  0
  9 10  2  0  0  0  0
  9  8  1  0  0  0  0
 10 11  1  0  0  0  0
 11 12  1  0  0  0  0
 11  1  1  0  0  0  0
 13  9  1  0  0  0  0
 14 10  1  0  0  0  0
 15 16  1  0  0  0  0
 16  8  1  0  0  0  0
 16 17  2  0  0  0  0
 17 22  1  0  0  0  0
 18 17  1  0  0  0  0
 19 18  2  0  0  0  0
 20 15  2  0  0  0  0
 20 19  1  0  0  0  0
 21 15  1  0  0  0  0
 23 19  1  0  0  0  0
 24 25  2  0  0  0  0
 25 26  1  0  0  0  0
 25 29  1  0  0  0  0
 26 30  1  0  0  0  0
 27 26  1  0  0  0  0
 28 24  1  0  0  0  0
 28 27  2  0  0  0  0
 32 27  1  0  0  0  0
 32 31  2  0  0  0  0
 33 32  1  0  0  0  0
 34 33  1  0  0  0  0
 35 33  2  0  0  0  0
 35 36  1  0  0  0  0
 36 37  2  0  0  0  0
 37 31  1  0  0  0  0
 38 36  1  0  0  0  0
 39 38  1  0  0  0  0
 40 39  1  0  0  0  0
 41 39  1  0  0  0  0
 41 35  1  0  0  0  0
M  END
>  <minimizedAffinity>
-6.04383135

$$$$

 OpenBabel03272500493D

 41 46  0  0  1  0  0  0  0  0999 V2000
   36.4270   28.3920   31.4700 C   0  0  1  0  0  0  0  0  0  0  0  0
   37.8910   27.8480   31.6020 C   0  0  0  0  0  0  0  0  0  0  0  0
   36.7430   27.2170   32.3020 C   0  0  2  0  0  0  0  0  0  0  0  0
   35.9690   28.2040   30.4890 H   0  0  0  0  0  0  0  0  0  0  0  0
   38.5640   28.5240   32.1550 H   0  0  0  0  0  0  0  0  0  0  0  0
   38.2980   27.3550   30.6860 H   0  0  0  0  0  0  0  0  0  0  0  0
   36.6890   27.3590   33.3810 H   0  0  0  0  0  0  0  0  0  0  0  0
   35.5790   31.1150   33.6750 C   0  0  0  0  0  0  0  0  0  0  0  0
   35.9590   31.8170   32.5540 C   0  0  0  0  0  0  0  0  0  0  0  0
   36.3340   30.8900   31.5590 C   0  0  0  0  0  0  0  0  0  0  0  0
   36.1690   29.6690   32.1090 N   0  0  0  0  0  0  0  0  0  0  0  0
   35.7310   29.8410   33.3380 N   0  0  0  0  0  0  0  0  0  0  0  0
   35.9870   32.8940   32.4000 H   0  0  0  0  0  0  0  0  0  0  0  0
   36.6840   31.1400   30.5540 H   0  0  0  0  0  0  0  0  0  0  0  0
   35.6340   32.9550   35.3930 C   0  0  0  0  0  0  0  0  0  0  0  0
   35.1310   31.7230   34.8990 C   0  0  0  0  0  0  0  0  0  0  0  0
   34.1530   31.0910   35.6600 C   0  0  0  0  0  0  0  0  0  0  0  0
   33.7460   31.6860   36.8140 N   0  0  0  0  0  0  0  0  0  0  0  0
   34.2490   32.8490   37.2420 C   0  0  0  0  0  0  0  0  0  0  0  0
   35.2110   33.5040   36.5260 N   0  0  0  0  0  0  0  0  0  0  0  0
   36.4000   33.4110   34.7590 H   0  0  0  0  0  0  0  0  0  0  0  0
   33.7450   30.1520   35.3180 H   0  0  0  0  0  0  0  0  0  0  0  0
   33.9520   33.3460   38.1470 H   0  0  0  0  0  0  0  0  0  0  0  0
   36.2630   25.8610   31.8600 C   0  0  0  0  0  0  0  0  0  0  0  0
   35.2160   25.6730   30.9470 C   0  0  0  0  0  0  0  0  0  0  0  0
   35.0600   24.3310   30.7910 N   0  0  0  0  0  0  0  0  0  0  0  0
   35.9750   23.7020   31.5790 C   0  0  0  0  0  0  0  0  0  0  0  0
   36.7140   24.6350   32.2350 N   0  0  0  0  0  0  0  0  0  0  0  0
   34.6320   26.4380   30.4500 H   0  0  0  0  0  0  0  0  0  0  0  0
   34.3430   23.9170   30.1620 H   0  0  0  0  0  0  0  0  0  0  0  0
   35.1390   21.5420   32.3400 C   0  0  0  0  0  3  0  0  0  0  0  0
   36.1190   22.2540   31.6840 C   0  0  0  0  0  0  0  0  0  0  0  0
   37.2210   21.6410   31.1280 C   0  0  0  0  0  0  0  0  0  0  0  0
   38.0010   22.1970   30.6080 H   0  0  0  0  0  0  0  0  0  0  0  0
   37.3740   20.2710   31.2190 C   0  0  0  0  0  0  0  0  0  0  0  0
   36.3680   19.5950   31.8850 C   0  0  0  0  0  0  0  0  0  0  0  0
   35.2410   20.1720   32.4580 C   0  0  0  0  0  3  0  0  0  0  0  0
   36.7300   18.2350   31.8530 O   0  0  0  0  0  0  0  0  0  0  0  0
   38.1320   18.1350   31.6070 C   0  0  0  0  0  3  0  0  0  0  0  0
   38.4200   17.2260   31.0750 H   0  0  0  0  0  0  0  0  0  0  0  0
   38.3130   19.3110   30.8030 O   0  0  0  0  0  0  0  0  0  0  0  0
  1  4  1  6  0  0  0
  1  2  1  0  0  0  0
  1 11  1  0  0  0  0
  1  3  1  0  0  0  0
  2  5  1  0  0  0  0
  2  3  1  0  0  0  0
  3  7  1  1  0  0  0
  6  2  1  0  0  0  0
  8 16  1  0  0  0  0
  9  8  1  0  0  0  0
 10 11  1  0  0  0  0
 10  9  2  0  0  0  0
 11 12  1  0  0  0  0
 12  8  2  0  0  0  0
 13  9  1  0  0  0  0
 14 10  1  0  0  0  0
 15 20  1  0  0  0  0
 16 15  2  0  0  0  0
 16 17  1  0  0  0  0
 17 18  2  0  0  0  0
 18 19  1  0  0  0  0
 19 23  1  0  0  0  0
 20 19  2  0  0  0  0
 21 15  1  0  0  0  0
 22 17  1  0  0  0  0
 24 28  1  0  0  0  0
 24  3  1  0  0  0  0
 25 24  2  0  0  0  0
 26 25  1  0  0  0  0
 26 27  1  0  0  0  0
 27 32  1  0  0  0  0
 27 28  2  0  0  0  0
 29 25  1  0  0  0  0
 30 26  1  0  0  0  0
 31 37  1  0  0  0  0
 32 31  2  0  0  0  0
 33 35  2  0  0  0  0
 33 32  1  0  0  0  0
 34 33  1  0  0  0  0
 35 36  1  0  0  0  0
 36 37  2  0  0  0  0
 38 36  1  0  0  0  0
 39 38  1  0  0  0  0
 40 39  1  0  0  0  0
 41 35  1  0  0  0  0
 41 39  1  0  0  0  0
M  END
>  <minimizedAffinity>
-6.01840496

$$$$

 OpenBabel03272500493D

 41 46  0  0  1  0  0  0  0  0999 V2000
   36.7440   27.5150   32.2020 C   0  0  1  0  0  0  0  0  0  0  0  0
   37.6690   28.2350   31.1620 C   0  0  0  0  0  0  0  0  0  0  0  0
   36.2870   28.6990   31.4520 C   0  0  2  0  0  0  0  0  0  0  0  0
   37.0450   27.6690   33.2480 H   0  0  0  0  0  0  0  0  0  0  0  0
   37.8660   27.6350   30.2580 H   0  0  0  0  0  0  0  0  0  0  0  0
   38.5270   28.7980   31.6010 H   0  0  0  0  0  0  0  0  0  0  0  0
   35.5400   28.5240   30.6780 H   0  0  0  0  0  0  0  0  0  0  0  0
   36.1730   23.9950   31.6700 C   0  0  0  0  0  0  0  0  0  0  0  0
   35.1250   24.5240   30.9520 C   0  0  0  0  0  0  0  0  0  0  0  0
   35.1900   25.9310   31.0490 C   0  0  0  0  0  0  0  0  0  0  0  0
   36.2660   26.2000   31.8170 N   0  0  0  0  0  0  0  0  0  0  0  0
   36.8100   25.0510   32.1580 N   0  0  0  0  0  0  0  0  0  0  0  0
   34.3530   24.0050   30.3880 H   0  0  0  0  0  0  0  0  0  0  0  0
   34.4940   26.6350   30.5850 H   0  0  0  0  0  0  0  0  0  0  0  0
   35.6730   21.5830   31.1520 C   0  0  0  0  0  0  0  0  0  0  0  0
   36.4350   22.5870   31.8030 C   0  0  0  0  0  0  0  0  0  0  0  0
   37.4850   22.1590   32.6080 C   0  0  0  0  0  0  0  0  0  0  0  0
   37.7130   20.8220   32.7180 N   0  0  0  0  0  0  0  0  0  0  0  0
   36.9690   19.9100   32.0850 C   0  0  0  0  0  0  0  0  0  0  0  0
   35.9270   20.2850   31.2850 N   0  0  0  0  0  0  0  0  0  0  0  0
   34.8610   21.9700   30.5310 H   0  0  0  0  0  0  0  0  0  0  0  0
   38.0880   22.8930   33.1210 H   0  0  0  0  0  0  0  0  0  0  0  0
   37.1190   18.8480   32.1500 H   0  0  0  0  0  0  0  0  0  0  0  0
   36.0830   29.9950   32.1890 C   0  0  0  0  0  0  0  0  0  0  0  0
   36.3440   31.2520   31.6260 C   0  0  0  0  0  0  0  0  0  0  0  0
   36.0520   32.1810   32.5740 N   0  0  0  0  0  0  0  0  0  0  0  0
   35.6230   31.5310   33.6900 C   0  0  0  0  0  0  0  0  0  0  0  0
   35.6410   30.1920   33.4590 N   0  0  0  0  0  0  0  0  0  0  0  0
   36.7090   31.4620   30.6270 H   0  0  0  0  0  0  0  0  0  0  0  0
   36.1580   33.2030   32.4120 H   0  0  0  0  0  0  0  0  0  0  0  0
   34.5600   31.4450   35.8810 C   0  0  0  0  0  3  0  0  0  0  0  0
   35.2160   32.1890   34.9260 C   0  0  0  0  0  0  0  0  0  0  0  0
   35.4940   33.5270   35.1040 C   0  0  0  0  0  0  0  0  0  0  0  0
   36.0120   34.1230   34.3540 H   0  0  0  0  0  0  0  0  0  0  0  0
   35.1150   34.1670   36.2680 C   0  0  0  0  0  0  0  0  0  0  0  0
   34.4600   33.3840   37.2010 C   0  0  0  0  0  0  0  0  0  0  0  0
   34.1590   32.0330   37.0630 C   0  0  0  0  0  3  0  0  0  0  0  0
   34.1740   34.2320   38.2880 O   0  0  0  0  0  0  0  0  0  0  0  0
   34.2170   35.5870   37.8400 C   0  0  0  0  0  3  0  0  0  0  0  0
   34.5180   36.2950   38.6140 H   0  0  0  0  0  0  0  0  0  0  0  0
   35.2090   35.4610   36.8090 O   0  0  0  0  0  0  0  0  0  0  0  0
  1  4  1  1  0  0  0
  2  3  1  0  0  0  0
  2  6  1  0  0  0  0
  2  1  1  0  0  0  0
  3  7  1  6  0  0  0
  3 24  1  0  0  0  0
  3  1  1  0  0  0  0
  5  2  1  0  0  0  0
  8 16  1  0  0  0  0
  8 12  2  0  0  0  0
  9 10  2  0  0  0  0
  9  8  1  0  0  0  0
 10 11  1  0  0  0  0
 11 12  1  0  0  0  0
 11  1  1  0  0  0  0
 13  9  1  0  0  0  0
 14 10  1  0  0  0  0
 15 20  2  0  0  0  0
 15 16  1  0  0  0  0
 16 17  2  0  0  0  0
 17 18  1  0  0  0  0
 17 22  1  0  0  0  0
 19 23  1  0  0  0  0
 19 18  2  0  0  0  0
 20 19  1  0  0  0  0
 21 15  1  0  0  0  0
 24 28  1  0  0  0  0
 25 24  2  0  0  0  0
 25 26  1  0  0  0  0
 26 27  1  0  0  0  0
 27 32  1  0  0  0  0
 28 27  2  0  0  0  0
 29 25  1  0  0  0  0
 30 26  1  0  0  0  0
 31 37  1  0  0  0  0
 32 33  1  0  0  0  0
 32 31  2  0  0  0  0
 33 35  2  0  0  0  0
 34 33  1  0  0  0  0
 35 41  1  0  0  0  0
 35 36  1  0  0  0  0
 36 38  1  0  0  0  0
 37 36  2  0  0  0  0
 39 38  1  0  0  0  0
 39 40  1  0  0  0  0
 41 39  1  0  0  0  0
M  END
>  <minimizedAffinity>
-5.98272038

$$$$

 OpenBabel03272500493D

 41 46  0  0  1  0  0  0  0  0999 V2000
   38.8020   26.2690   34.7270 C   0  0  1  0  0  0  0  0  0  0  0  0
   39.0840   26.3720   33.1890 C   0  0  0  0  0  0  0  0  0  0  0  0
   37.7080   26.4020   33.7480 C   0  0  2  0  0  0  0  0  0  0  0  0
   39.0820   27.1700   35.2920 H   0  0  0  0  0  0  0  0  0  0  0  0
   39.4760   25.4390   32.7490 H   0  0  0  0  0  0  0  0  0  0  0  0
   39.5490   27.3310   32.8550 H   0  0  0  0  0  0  0  0  0  0  0  0
   37.0940   25.5170   33.5850 H   0  0  0  0  0  0  0  0  0  0  0  0
   40.1830   23.1710   35.9470 C   0  0  0  0  0  0  0  0  0  0  0  0
   38.8880   23.0570   36.4000 C   0  0  0  0  0  0  0  0  0  0  0  0
   38.1800   24.2110   36.0040 C   0  0  0  0  0  0  0  0  0  0  0  0
   39.0640   24.9760   35.3320 N   0  0  0  0  0  0  0  0  0  0  0  0
   40.2150   24.3390   35.3200 N   0  0  0  0  0  0  0  0  0  0  0  0
   38.4320   22.2470   36.9660 H   0  0  0  0  0  0  0  0  0  0  0  0
   37.1270   24.4170   36.2140 H   0  0  0  0  0  0  0  0  0  0  0  0
   42.0950   21.7430   35.1460 C   0  0  0  0  0  0  0  0  0  0  0  0
   41.2060   22.1830   36.1610 C   0  0  0  0  0  0  0  0  0  0  0  0
   41.3540   21.6100   37.4200 C   0  0  0  0  0  0  0  0  0  0  0  0
   42.3290   20.6780   37.5970 N   0  0  0  0  0  0  0  0  0  0  0  0
   43.1460   20.2930   36.6110 C   0  0  0  0  0  0  0  0  0  0  0  0
   43.0360   20.8280   35.3580 N   0  0  0  0  0  0  0  0  0  0  0  0
   41.9380   22.2220   34.1760 H   0  0  0  0  0  0  0  0  0  0  0  0
   40.6960   21.9180   38.2190 H   0  0  0  0  0  0  0  0  0  0  0  0
   43.9250   19.5600   36.7140 H   0  0  0  0  0  0  0  0  0  0  0  0
   36.9210   27.6840   33.7030 C   0  0  0  0  0  0  0  0  0  0  0  0
   36.5830   28.3400   32.5120 C   0  0  0  0  0  0  0  0  0  0  0  0
   35.8830   29.4540   32.8560 N   0  0  0  0  0  0  0  0  0  0  0  0
   35.7860   29.4940   34.2130 C   0  0  0  0  0  0  0  0  0  0  0  0
   36.4200   28.4120   34.7360 N   0  0  0  0  0  0  0  0  0  0  0  0
   36.8240   28.0330   31.5010 H   0  0  0  0  0  0  0  0  0  0  0  0
   35.5100   30.1240   32.1530 H   0  0  0  0  0  0  0  0  0  0  0  0
   35.8390   31.2990   35.8500 C   0  0  0  0  0  3  0  0  0  0  0  0
   35.1050   30.5430   34.9630 C   0  0  0  0  0  0  0  0  0  0  0  0
   33.7560   30.7490   34.7670 C   0  0  0  0  0  0  0  0  0  0  0  0
   33.1680   30.1550   34.0680 H   0  0  0  0  0  0  0  0  0  0  0  0
   33.0950   31.7370   35.4690 C   0  0  0  0  0  0  0  0  0  0  0  0
   33.8680   32.4740   36.3480 C   0  0  0  0  0  0  0  0  0  0  0  0
   35.2290   32.3010   36.5760 C   0  0  0  0  0  3  0  0  0  0  0  0
   32.9980   33.4080   36.9410 O   0  0  0  0  0  0  0  0  0  0  0  0
   31.6550   32.9460   36.7950 C   0  0  0  0  0  3  0  0  0  0  0  0
   30.9190   33.7500   36.7360 H   0  0  0  0  0  0  0  0  0  0  0  0
   31.7850   32.2410   35.5510 O   0  0  0  0  0  0  0  0  0  0  0  0
  1  4  1  1  0  0  0
  1 11  1  0  0  0  0
  2  3  1  0  0  0  0
  2  1  1  0  0  0  0
  3  7  1  6  0  0  0
  3  1  1  0  0  0  0
  5  2  1  0  0  0  0
  6  2  1  0  0  0  0
  8 16  1  0  0  0  0
  8  9  1  0  0  0  0
  9 13  1  0  0  0  0
 10 14  1  0  0  0  0
 10  9  2  0  0  0  0
 11 10  1  0  0  0  0
 12 11  1  0  0  0  0
 12  8  2  0  0  0  0
 15 20  2  0  0  0  0
 15 16  1  0  0  0  0
 16 17  2  0  0  0  0
 17 18  1  0  0  0  0
 17 22  1  0  0  0  0
 19 23  1  0  0  0  0
 19 18  2  0  0  0  0
 20 19  1  0  0  0  0
 21 15  1  0  0  0  0
 24  3  1  0  0  0  0
 24 28  1  0  0  0  0
 25 26  1  0  0  0  0
 25 24  2  0  0  0  0
 26 27  1  0  0  0  0
 27 28  2  0  0  0  0
 27 32  1  0  0  0  0
 29 25  1  0  0  0  0
 30 26  1  0  0  0  0
 31 37  1  0  0  0  0
 32 31  2  0  0  0  0
 33 32  1  0  0  0  0
 33 35  2  0  0  0  0
 34 33  1  0  0  0  0
 35 41  1  0  0  0  0
 35 36  1  0  0  0  0
 36 37  2  0  0  0  0
 36 38  1  0  0  0  0
 39 38  1  0  0  0  0
 40 39  1  0  0  0  0
 41 39  1  0  0  0  0
M  END
>  <minimizedAffinity>
-5.94220734

$$$$

 OpenBabel03272500493D

 41 46  0  0  1  0  0  0  0  0999 V2000
   34.7540   30.5320   33.2420 C   0  0  1  0  0  0  0  0  0  0  0  0
   35.1570   31.3920   31.9950 C   0  0  0  0  0  0  0  0  0  0  0  0
   36.0270   30.3140   32.5310 C   0  0  2  0  0  0  0  0  0  0  0  0
   33.9420   29.8180   33.0470 H   0  0  0  0  0  0  0  0  0  0  0  0
   35.3780   32.4450   32.2380 H   0  0  0  0  0  0  0  0  0  0  0  0
   34.5640   31.1930   31.0700 H   0  0  0  0  0  0  0  0  0  0  0  0
   36.9320   30.6280   33.0510 H   0  0  0  0  0  0  0  0  0  0  0  0
   34.1180   32.6050   36.1220 C   0  0  0  0  0  0  0  0  0  0  0  0
   35.2580   31.9540   36.5360 C   0  0  0  0  0  0  0  0  0  0  0  0
   35.6630   31.0770   35.5070 C   0  0  0  0  0  0  0  0  0  0  0  0
   34.7600   31.2280   34.5160 N   0  0  0  0  0  0  0  0  0  0  0  0
   33.8800   32.1220   34.9100 N   0  0  0  0  0  0  0  0  0  0  0  0
   35.7980   32.0550   37.4750 H   0  0  0  0  0  0  0  0  0  0  0  0
   36.5360   30.4210   35.5360 H   0  0  0  0  0  0  0  0  0  0  0  0
   32.0360   33.8810   36.7320 C   0  0  0  0  0  0  0  0  0  0  0  0
   33.4110   33.5800   36.9080 C   0  0  0  0  0  0  0  0  0  0  0  0
   34.0880   34.2820   37.9010 C   0  0  0  0  0  0  0  0  0  0  0  0
   33.3970   35.1990   38.6310 N   0  0  0  0  0  0  0  0  0  0  0  0
   32.0990   35.4500   38.4300 C   0  0  0  0  0  0  0  0  0  0  0  0
   31.3950   34.7850   37.4660 N   0  0  0  0  0  0  0  0  0  0  0  0
   31.5490   33.3040   35.9410 H   0  0  0  0  0  0  0  0  0  0  0  0
   35.1360   34.0820   38.0650 H   0  0  0  0  0  0  0  0  0  0  0  0
   31.5230   36.1680   38.9860 H   0  0  0  0  0  0  0  0  0  0  0  0
   36.2100   29.0490   31.7360 C   0  0  0  0  0  0  0  0  0  0  0  0
   36.3640   29.0290   30.3430 C   0  0  0  0  0  0  0  0  0  0  0  0
   36.4990   27.7270   29.9760 N   0  0  0  0  0  0  0  0  0  0  0  0
   36.4320   26.9590   31.0980 C   0  0  0  0  0  0  0  0  0  0  0  0
   36.2550   27.7650   32.1780 N   0  0  0  0  0  0  0  0  0  0  0  0
   36.3760   29.8790   29.6710 H   0  0  0  0  0  0  0  0  0  0  0  0
   36.6290   27.4320   28.9870 H   0  0  0  0  0  0  0  0  0  0  0  0
   35.3790   24.7650   31.2250 C   0  0  0  0  0  3  0  0  0  0  0  0
   36.5360   25.5050   31.1120 C   0  0  0  0  0  0  0  0  0  0  0  0
   37.7760   24.9130   31.0120 C   0  0  0  0  0  0  0  0  0  0  0  0
   38.6960   25.4910   30.9220 H   0  0  0  0  0  0  0  0  0  0  0  0
   37.8940   23.5370   31.0240 C   0  0  0  0  0  0  0  0  0  0  0  0
   36.7090   22.8320   31.1380 C   0  0  0  0  0  0  0  0  0  0  0  0
   35.4380   23.3860   31.2400 C   0  0  0  0  0  3  0  0  0  0  0  0
   37.0670   21.4700   31.1280 O   0  0  0  0  0  0  0  0  0  0  0  0
   38.4440   21.3510   31.4830 C   0  0  0  0  0  3  0  0  0  0  0  0
   38.9390   20.4880   31.0340 H   0  0  0  0  0  0  0  0  0  0  0  0
   38.9310   22.5910   30.9480 O   0  0  0  0  0  0  0  0  0  0  0  0
  1  4  1  6  0  0  0
  1 11  1  0  0  0  0
  2  5  1  0  0  0  0
  2  3  1  0  0  0  0
  2  1  1  0  0  0  0
  3  7  1  1  0  0  0
  3  1  1  0  0  0  0
  6  2  1  0  0  0  0
  8  9  1  0  0  0  0
  8 16  1  0  0  0  0
  9 13  1  0  0  0  0
 10 14  1  0  0  0  0
 10  9  2  0  0  0  0
 11 12  1  0  0  0  0
 11 10  1  0  0  0  0
 12  8  2  0  0  0  0
 15 16  2  0  0  0  0
 15 20  1  0  0  0  0
 16 17  1  0  0  0  0
 17 22  1  0  0  0  0
 17 18  2  0  0  0  0
 19 18  1  0  0  0  0
 19 23  1  0  0  0  0
 20 19  2  0  0  0  0
 21 15  1  0  0  0  0
 24 28  1  0  0  0  0
 24  3  1  0  0  0  0
 25 24  2  0  0  0  0
 26 25  1  0  0  0  0
 26 27  1  0  0  0  0
 27 32  1  0  0  0  0
 27 28  2  0  0  0  0
 29 25  1  0  0  0  0
 30 26  1  0  0  0  0
 31 37  1  0  0  0  0
 32 31  2  0  0  0  0
 33 35  2  0  0  0  0
 33 32  1  0  0  0  0
 34 33  1  0  0  0  0
 35 36  1  0  0  0  0
 36 37  2  0  0  0  0
 38 36  1  0  0  0  0
 38 39  1  0  0  0  0
 40 39  1  0  0  0  0
 41 35  1  0  0  0  0
 41 39  1  0  0  0  0
M  END
>  <minimizedAffinity>
-5.90364456

$$$$

 OpenBabel03272500493D

 41 46  0  0  1  0  0  0  0  0999 V2000
   37.3890   26.7530   33.6320 C   0  0  1  0  0  0  0  0  0  0  0  0
   38.8600   26.9760   33.1370 C   0  0  0  0  0  0  0  0  0  0  0  0
   38.5300   26.7380   34.5660 C   0  0  2  0  0  0  0  0  0  0  0  0
   36.9650   25.7810   33.3430 H   0  0  0  0  0  0  0  0  0  0  0  0
   39.0550   28.0020   32.7840 H   0  0  0  0  0  0  0  0  0  0  0  0
   39.2910   26.1370   32.5390 H   0  0  0  0  0  0  0  0  0  0  0  0
   38.6180   27.5920   35.2370 H   0  0  0  0  0  0  0  0  0  0  0  0
   35.4430   29.7200   34.2710 C   0  0  0  0  0  0  0  0  0  0  0  0
   35.1460   29.5130   32.9440 C   0  0  0  0  0  0  0  0  0  0  0  0
   35.8380   28.3620   32.5110 C   0  0  0  0  0  0  0  0  0  0  0  0
   36.5240   27.9180   33.5830 N   0  0  0  0  0  0  0  0  0  0  0  0
   36.2710   28.7320   34.5850 N   0  0  0  0  0  0  0  0  0  0  0  0
   34.5000   30.0960   32.2910 H   0  0  0  0  0  0  0  0  0  0  0  0
   35.8050   27.9400   31.5030 H   0  0  0  0  0  0  0  0  0  0  0  0
   33.5840   31.2690   34.9660 C   0  0  0  0  0  0  0  0  0  0  0  0
   34.9220   30.8040   35.0600 C   0  0  0  0  0  0  0  0  0  0  0  0
   35.7500   31.4490   35.9720 C   0  0  0  0  0  0  0  0  0  0  0  0
   35.2330   32.4710   36.7060 N   0  0  0  0  0  0  0  0  0  0  0  0
   33.9650   32.8770   36.5840 C   0  0  0  0  0  0  0  0  0  0  0  0
   33.1160   32.2720   35.7010 N   0  0  0  0  0  0  0  0  0  0  0  0
   32.9740   30.7300   34.2360 H   0  0  0  0  0  0  0  0  0  0  0  0
   36.7750   31.1240   36.0720 H   0  0  0  0  0  0  0  0  0  0  0  0
   33.5250   33.6800   37.1460 H   0  0  0  0  0  0  0  0  0  0  0  0
   38.9290   25.4370   35.2090 C   0  0  0  0  0  0  0  0  0  0  0  0
   38.0520   24.6540   35.9720 C   0  0  0  0  0  0  0  0  0  0  0  0
   38.7520   23.5660   36.3910 N   0  0  0  0  0  0  0  0  0  0  0  0
   40.0220   23.6650   35.9090 C   0  0  0  0  0  0  0  0  0  0  0  0
   40.1340   24.8100   35.1850 N   0  0  0  0  0  0  0  0  0  0  0  0
   37.0110   24.8580   36.1950 H   0  0  0  0  0  0  0  0  0  0  0  0
   38.3320   22.8190   36.9790 H   0  0  0  0  0  0  0  0  0  0  0  0
   41.0250   21.9340   37.3010 C   0  0  0  0  0  3  0  0  0  0  0  0
   41.0750   22.6850   36.1470 C   0  0  0  0  0  0  0  0  0  0  0  0
   42.0840   22.5370   35.2200 C   0  0  0  0  0  0  0  0  0  0  0  0
   42.1310   23.1260   34.3050 H   0  0  0  0  0  0  0  0  0  0  0  0
   43.0900   21.6140   35.4290 C   0  0  0  0  0  0  0  0  0  0  0  0
   43.0020   20.8810   36.5980 C   0  0  0  0  0  0  0  0  0  0  0  0
   42.0040   20.9970   37.5590 C   0  0  0  0  0  3  0  0  0  0  0  0
   44.1140   20.0180   36.5990 O   0  0  0  0  0  0  0  0  0  0  0  0
   45.1030   20.5370   35.7100 C   0  0  0  0  0  3  0  0  0  0  0  0
   45.7260   19.7680   35.2500 H   0  0  0  0  0  0  0  0  0  0  0  0
   44.2440   21.1790   34.7550 O   0  0  0  0  0  0  0  0  0  0  0  0
  1  4  1  6  0  0  0
  1  3  1  0  0  0  0
  2  1  1  0  0  0  0
  2  3  1  0  0  0  0
  3 24  1  0  0  0  0
  3  7  1  1  0  0  0
  5  2  1  0  0  0  0
  6  2  1  0  0  0  0
  8 12  2  0  0  0  0
  8 16  1  0  0  0  0
  9  8  1  0  0  0  0
 10  9  2  0  0  0  0
 10 11  1  0  0  0  0
 11  1  1  0  0  0  0
 11 12  1  0  0  0  0
 13  9  1  0  0  0  0
 14 10  1  0  0  0  0
 15 16  2  0  0  0  0
 15 20  1  0  0  0  0
 16 17  1  0  0  0  0
 17 22  1  0  0  0  0
 17 18  2  0  0  0  0
 19 18  1  0  0  0  0
 19 23  1  0  0  0  0
 20 19  2  0  0  0  0
 21 15  1  0  0  0  0
 24 25  2  0  0  0  0
 25 29  1  0  0  0  0
 25 26  1  0  0  0  0
 26 30  1  0  0  0  0
 27 32  1  0  0  0  0
 27 26  1  0  0  0  0
 28 24  1  0  0  0  0
 28 27  2  0  0  0  0
 31 37  1  0  0  0  0
 32 31  2  0  0  0  0
 33 35  2  0  0  0  0
 33 32  1  0  0  0  0
 34 33  1  0  0  0  0
 35 36  1  0  0  0  0
 36 38  1  0  0  0  0
 36 37  2  0  0  0  0
 39 38  1  0  0  0  0
 40 39  1  0  0  0  0
 41 35  1  0  0  0  0
 41 39  1  0  0  0  0
M  END
>  <minimizedAffinity>
-5.87357378

$$$$

 OpenBabel03272500493D

 41 46  0  0  1  0  0  0  0  0999 V2000
   37.9810   27.1150   33.7300 C   0  0  1  0  0  0  0  0  0  0  0  0
   38.0970   27.5780   32.2370 C   0  0  0  0  0  0  0  0  0  0  0  0
   36.7900   27.4690   32.9360 C   0  0  2  0  0  0  0  0  0  0  0  0
   38.3380   27.8600   34.4560 H   0  0  0  0  0  0  0  0  0  0  0  0
   38.4190   26.7770   31.5520 H   0  0  0  0  0  0  0  0  0  0  0  0
   38.5430   28.5910   32.0880 H   0  0  0  0  0  0  0  0  0  0  0  0
   36.1440   26.6430   32.6380 H   0  0  0  0  0  0  0  0  0  0  0  0
   39.2620   23.9380   34.8530 C   0  0  0  0  0  0  0  0  0  0  0  0
   38.2990   23.5140   33.9670 C   0  0  0  0  0  0  0  0  0  0  0  0
   37.6760   24.6540   33.4140 C   0  0  0  0  0  0  0  0  0  0  0  0
   38.2800   25.7180   33.9820 N   0  0  0  0  0  0  0  0  0  0  0  0
   39.1940   25.2620   34.8120 N   0  0  0  0  0  0  0  0  0  0  0  0
   38.0210   22.4980   33.6960 H   0  0  0  0  0  0  0  0  0  0  0  0
   36.8690   24.6450   32.6760 H   0  0  0  0  0  0  0  0  0  0  0  0
   39.9570   22.8360   37.0070 C   0  0  0  0  0  0  0  0  0  0  0  0
   40.1080   23.0580   35.6140 C   0  0  0  0  0  0  0  0  0  0  0  0
   41.1370   22.3750   34.9750 C   0  0  0  0  0  0  0  0  0  0  0  0
   41.9230   21.5480   35.7170 N   0  0  0  0  0  0  0  0  0  0  0  0
   41.7440   21.3690   37.0290 C   0  0  0  0  0  0  0  0  0  0  0  0
   40.7460   22.0200   37.6980 N   0  0  0  0  0  0  0  0  0  0  0  0
   39.1340   23.3950   37.4630 H   0  0  0  0  0  0  0  0  0  0  0  0
   41.2850   22.5170   33.9150 H   0  0  0  0  0  0  0  0  0  0  0  0
   42.3460   20.7260   37.6450 H   0  0  0  0  0  0  0  0  0  0  0  0
   36.0300   28.7210   33.2790 C   0  0  0  0  0  0  0  0  0  0  0  0
   35.3130   29.4710   32.3370 C   0  0  0  0  0  0  0  0  0  0  0  0
   34.7640   30.5230   33.0000 N   0  0  0  0  0  0  0  0  0  0  0  0
   35.1240   30.4360   34.3100 C   0  0  0  0  0  0  0  0  0  0  0  0
   35.8990   29.3340   34.4850 N   0  0  0  0  0  0  0  0  0  0  0  0
   35.2040   29.2660   31.2780 H   0  0  0  0  0  0  0  0  0  0  0  0
   34.1770   31.2410   32.5290 H   0  0  0  0  0  0  0  0  0  0  0  0
   33.7360   31.0230   36.2250 C   0  0  0  0  0  3  0  0  0  0  0  0
   34.7280   31.3880   35.3410 C   0  0  0  0  0  0  0  0  0  0  0  0
   35.3500   32.6160   35.4060 C   0  0  0  0  0  0  0  0  0  0  0  0
   36.1350   32.9120   34.7110 H   0  0  0  0  0  0  0  0  0  0  0  0
   34.9870   33.5290   36.3760 C   0  0  0  0  0  0  0  0  0  0  0  0
   33.9880   33.1240   37.2430 C   0  0  0  0  0  0  0  0  0  0  0  0
   33.3350   31.8960   37.2150 C   0  0  0  0  0  3  0  0  0  0  0  0
   33.7870   34.1970   38.1310 O   0  0  0  0  0  0  0  0  0  0  0  0
   34.2950   35.3910   37.5360 C   0  0  0  0  0  3  0  0  0  0  0  0
   34.6560   36.1220   38.2620 H   0  0  0  0  0  0  0  0  0  0  0  0
   35.3630   34.8290   36.7590 O   0  0  0  0  0  0  0  0  0  0  0  0
  1 11  1  0  0  0  0
  1  4  1  1  0  0  0
  2  3  1  0  0  0  0
  2  1  1  0  0  0  0
  3  7  1  6  0  0  0
  3 24  1  0  0  0  0
  3  1  1  0  0  0  0
  5  2  1  0  0  0  0
  6  2  1  0  0  0  0
  8 16  1  0  0  0  0
  9  8  1  0  0  0  0
 10  9  2  0  0  0  0
 10 11  1  0  0  0  0
 11 12  1  0  0  0  0
 12  8  2  0  0  0  0
 13  9  1  0  0  0  0
 14 10  1  0  0  0  0
 15 21  1  0  0  0  0
 15 20  1  0  0  0  0
 16 15  2  0  0  0  0
 17 16  1  0  0  0  0
 17 18  2  0  0  0  0
 18 19  1  0  0  0  0
 19 23  1  0  0  0  0
 19 20  2  0  0  0  0
 22 17  1  0  0  0  0
 24 28  1  0  0  0  0
 25 26  1  0  0  0  0
 25 24  2  0  0  0  0
 26 27  1  0  0  0  0
 27 28  2  0  0  0  0
 27 32  1  0  0  0  0
 29 25  1  0  0  0  0
 30 26  1  0  0  0  0
 31 37  1  0  0  0  0
 32 33  1  0  0  0  0
 32 31  2  0  0  0  0
 33 35  2  0  0  0  0
 34 33  1  0  0  0  0
 35 41  1  0  0  0  0
 35 36  1  0  0  0  0
 36 38  1  0  0  0  0
 37 36  2  0  0  0  0
 39 38  1  0  0  0  0
 39 40  1  0  0  0  0
 41 39  1  0  0  0  0
M  END
>  <minimizedAffinity>
-5.82555771

$$$$
