
 OpenBabel03272500583D

 37 40  0  0  0  0  0  0  0  0999 V2000
   38.0910   31.8640   47.4200 C   0  0  0  0  0  0  0  0  0  0  0  0
   38.5900   32.7270   48.3500 C   0  0  0  0  0  0  0  0  0  0  0  0
   38.1010   32.7910   49.6580 C   0  0  0  0  0  0  0  0  0  0  0  0
   37.0200   31.8920   50.0080 C   0  0  0  0  0  0  0  0  0  0  0  0
   36.5670   31.0570   49.0370 C   0  0  0  0  0  0  0  0  0  0  0  0
   37.0440   31.0060   47.7870 C   0  0  0  0  0  0  0  0  0  0  0  0
   39.4120   33.4230   48.1160 H   0  0  0  0  0  0  0  0  0  0  0  0
   38.5430   33.5010   50.3450 H   0  0  0  0  0  0  0  0  0  0  0  0
   36.7480   32.0480   51.0300 H   0  0  0  0  0  0  0  0  0  0  0  0
   35.7990   30.4710   49.5180 H   0  0  0  0  0  0  0  0  0  0  0  0
   39.9720   31.2470   45.9820 C   0  0  0  0  0  0  0  0  0  0  0  0
   38.7220   31.9010   46.1210 C   0  0  0  0  0  0  0  0  0  0  0  0
   38.2620   32.4920   44.9710 C   0  0  0  0  0  0  0  0  0  0  0  0
   38.9640   32.4330   43.8330 N   0  0  0  0  0  0  0  0  0  0  0  0
   40.1260   31.8200   43.7220 C   0  0  0  0  0  0  0  0  0  0  0  0
   40.6180   31.2320   44.8000 N   0  0  0  0  0  0  0  0  0  0  0  0
   40.4190   30.7460   46.8460 H   0  0  0  0  0  0  0  0  0  0  0  0
   37.3120   32.9930   45.0670 H   0  0  0  0  0  0  0  0  0  0  0  0
   40.7020   31.7660   42.8060 H   0  0  0  0  0  0  0  0  0  0  0  0
   35.0830   30.0090   46.9540 C   0  0  0  0  0  0  0  0  0  0  0  0
   34.4780   30.6430   47.9030 O   0  0  0  0  0  0  0  0  0  0  0  0
   36.5230   30.1540   46.8480 N   0  0  0  0  0  0  0  0  0  0  0  0
   37.0820   29.6500   46.1250 H   0  0  0  0  0  0  0  0  0  0  0  0
   34.3430   29.2380   46.1050 O   0  0  0  0  0  0  0  0  0  0  0  0
   33.3900   29.7040   45.2180 C   0  0  0  0  0  0  0  0  0  0  0  0
   33.7050   30.1860   44.0340 O   0  0  0  0  0  0  0  0  0  0  0  0
   31.0030   30.4230   44.9440 C   0  0  0  0  0  3  0  0  0  0  0  0
   31.9500   29.6570   45.5600 C   0  0  0  0  0  0  0  0  0  0  0  0
   31.4990   28.8080   46.5480 C   0  0  0  0  0  0  0  0  0  0  0  0
   32.2220   28.1740   47.0700 H   0  0  0  0  0  0  0  0  0  0  0  0
   30.1950   28.6950   46.9310 C   0  0  0  0  0  0  0  0  0  0  0  0
   29.2620   29.4950   46.2760 C   0  0  0  0  0  0  0  0  0  0  0  0
   29.6700   30.3590   45.2810 C   0  0  0  0  0  3  0  0  0  0  0  0
   27.9970   29.2160   46.8270 O   0  0  0  0  0  0  0  0  0  0  0  0
   28.0940   27.9860   47.5190 C   0  0  0  0  0  3  0  0  0  0  0  0
   27.5110   27.9470   48.4540 H   0  0  0  0  0  0  0  0  0  0  0  0
   29.4730   27.9460   47.8680 O   0  0  0  0  0  0  0  0  0  0  0  0
  1  6  2  0  0  0  0
  1  2  1  0  0  0  0
  2  3  2  0  0  0  0
  3  4  1  0  0  0  0
  3  8  1  0  0  0  0
  4  9  1  0  0  0  0
  5 10  1  0  0  0  0
  5  4  2  0  0  0  0
  6  5  1  0  0  0  0
  7  2  1  0  0  0  0
 11 12  1  0  0  0  0
 11 17  1  0  0  0  0
 12  1  1  0  0  0  0
 13 18  1  0  0  0  0
 13 12  2  0  0  0  0
 14 13  1  0  0  0  0
 15 14  2  0  0  0  0
 15 16  1  0  0  0  0
 16 11  2  0  0  0  0
 19 15  1  0  0  0  0
 20 21  2  0  0  0  0
 22 20  1  0  0  0  0
 22  6  1  0  0  0  0
 23 22  1  0  0  0  0
 24 20  1  0  0  0  0
 25 28  1  0  0  0  0
 25 24  1  0  0  0  0
 26 25  2  0  0  0  0
 27 33  2  0  0  0  0
 27 28  1  0  0  0  0
 28 29  2  0  0  0  0
 29 31  1  0  0  0  0
 29 30  1  0  0  0  0
 31 37  1  0  0  0  0
 32 34  1  0  0  0  0
 32 31  2  0  0  0  0
 33 32  1  0  0  0  0
 34 35  1  0  0  0  0
 35 37  1  0  0  0  0
 35 36  1  0  0  0  0
M  END
>  <minimizedAffinity>
-6.05820274

>  <minimizedRMSD>
1.54526031

$$$$
