
 OpenBabel03272507123D

 42 47  0  0  0  0  0  0  0  0999 V2000
   35.6800   29.1250   49.8680 C   0  0  0  0  0  0  0  0  0  0  0  0
   34.5730   29.6270   50.4930 C   0  0  0  0  0  0  0  0  0  0  0  0
   33.4690   28.9790   49.9300 C   0  0  0  0  0  0  0  0  0  0  0  0
   33.9900   28.0990   48.9690 C   0  0  0  0  0  0  0  0  0  0  0  0
   35.2790   28.2410   48.9930 O   0  0  0  0  0  0  0  0  0  0  0  0
   34.5310   30.3860   51.2820 H   0  0  0  0  0  0  0  0  0  0  0  0
   32.4640   29.1890   50.2430 H   0  0  0  0  0  0  0  0  0  0  0  0
   33.6290   26.2260   47.3800 C   0  0  0  0  0  0  0  0  0  0  0  0
   33.1300   27.2470   48.1720 C   0  0  0  0  0  0  0  0  0  0  0  0
   31.7820   27.4930   48.2320 C   0  0  0  0  0  0  0  0  0  0  0  0
   30.9200   26.7000   47.4850 C   0  0  0  0  0  0  0  0  0  0  0  0
   29.5870   26.7130   47.3560 N   0  0  0  0  0  0  0  0  0  0  0  0
   29.2580   25.7340   46.5120 N   0  0  0  0  0  0  0  0  0  0  0  0
   30.3750   25.1030   46.1080 C   0  0  0  0  0  0  0  0  0  0  0  0
   31.4720   25.6950   46.7130 C   0  0  0  0  0  0  0  0  0  0  0  0
   32.8180   25.4270   46.6340 C   0  0  0  0  0  0  0  0  0  0  0  0
   34.7090   26.0440   47.3440 H   0  0  0  0  0  0  0  0  0  0  0  0
   31.2980   28.2800   48.8310 H   0  0  0  0  0  0  0  0  0  0  0  0
   28.8930   27.3670   47.8230 H   0  0  0  0  0  0  0  0  0  0  0  0
   30.4690   24.2540   45.4170 H   0  0  0  0  0  0  0  0  0  0  0  0
   33.2370   24.6410   46.0280 H   0  0  0  0  0  0  0  0  0  0  0  0
   37.0170   29.5730   50.2040 C   0  0  0  0  0  0  0  0  0  0  0  0
   37.6490   28.9710   51.1130 O   0  0  0  0  0  0  0  0  0  0  0  0
   37.5500   30.6970   49.4680 C   0  0  0  0  0  0  0  0  0  0  0  0
   37.4750   31.9470   50.0730 C   0  0  0  0  0  0  0  0  0  0  0  0
   37.9820   33.0510   49.3860 C   0  0  0  0  0  0  0  0  0  0  0  0
   38.5220   32.8230   48.1570 N   0  0  0  0  0  0  0  0  0  0  0  0
   38.5810   31.6190   47.6010 C   0  0  0  0  0  0  0  0  0  0  0  0
   38.0930   30.5590   48.2620 N   0  0  0  0  0  0  0  0  0  0  0  0
   37.0320   32.0420   51.0520 H   0  0  0  0  0  0  0  0  0  0  0  0
   37.9100   34.0100   49.8800 H   0  0  0  0  0  0  0  0  0  0  0  0
   40.0220   32.3740   45.7450 C   0  0  0  0  0  3  0  0  0  0  0  0
   39.1700   31.4280   46.2800 C   0  0  0  0  0  0  0  0  0  0  0  0
   38.9040   30.3160   45.5210 C   0  0  0  0  0  0  0  0  0  0  0  0
   38.2450   29.5510   45.8940 H   0  0  0  0  0  0  0  0  0  0  0  0
   39.4750   30.1510   44.2620 C   0  0  0  0  0  0  0  0  0  0  0  0
   40.3280   31.0960   43.7280 C   0  0  0  0  0  0  0  0  0  0  0  0
   40.5880   32.2100   44.4970 C   0  0  0  0  0  3  0  0  0  0  0  0
   40.7320   30.6500   42.4640 O   0  0  0  0  0  0  0  0  0  0  0  0
   40.3490   29.2900   42.3710 C   0  0  0  0  0  3  0  0  0  0  0  0
   41.1970   28.6260   42.6610 H   0  0  0  0  0  0  0  0  0  0  0  0
   39.3320   29.1120   43.3560 O   0  0  0  0  0  0  0  0  0  0  0  0
  1 22  1  0  0  0  0
  1  2  2  0  0  0  0
  2  6  1  0  0  0  0
  3  7  1  0  0  0  0
  3  2  1  0  0  0  0
  4  5  1  0  0  0  0
  4  3  2  0  0  0  0
  5  1  1  0  0  0  0
  8  9  1  0  0  0  0
  9 10  2  0  0  0  0
  9  4  1  0  0  0  0
 10 18  1  0  0  0  0
 11 10  1  0  0  0  0
 12 11  1  0  0  0  0
 12 19  1  0  0  0  0
 13 12  1  0  0  0  0
 14 13  2  0  0  0  0
 14 15  1  0  0  0  0
 15 11  2  0  0  0  0
 16 15  1  0  0  0  0
 16  8  2  0  0  0  0
 17  8  1  0  0  0  0
 20 14  1  0  0  0  0
 21 16  1  0  0  0  0
 22 23  2  0  0  0  0
 24 25  1  0  0  0  0
 24 22  1  0  0  0  0
 25 30  1  0  0  0  0
 26 31  1  0  0  0  0
 26 25  2  0  0  0  0
 27 26  1  0  0  0  0
 28 27  2  0  0  0  0
 28 29  1  0  0  0  0
 29 24  2  0  0  0  0
 32 33  1  0  0  0  0
 33 28  1  0  0  0  0
 34 35  1  0  0  0  0
 34 33  2  0  0  0  0
 36 34  1  0  0  0  0
 37 36  2  0  0  0  0
 37 38  1  0  0  0  0
 38 32  2  0  0  0  0
 39 37  1  0  0  0  0
 40 39  1  0  0  0  0
 40 41  1  0  0  0  0
 40 42  1  0  0  0  0
 42 36  1  0  0  0  0
M  END
>  <minimizedAffinity>
-7.88487959

>  <minimizedRMSD>
0.775080204

$$$$
