
 OpenBabel03272500583D

 37 40  0  0  0  0  0  0  0  0999 V2000
   38.1100   31.8940   47.4340 C   0  0  0  0  0  0  0  0  0  0  0  0
   38.7350   32.8100   48.2270 C   0  0  0  0  0  0  0  0  0  0  0  0
   38.4250   32.9710   49.5810 C   0  0  0  0  0  0  0  0  0  0  0  0
   37.3950   32.1150   50.1330 C   0  0  0  0  0  0  0  0  0  0  0  0
   36.8110   31.2230   49.2900 C   0  0  0  0  0  0  0  0  0  0  0  0
   37.1160   31.0800   47.9950 C   0  0  0  0  0  0  0  0  0  0  0  0
   39.5230   33.4760   47.8380 H   0  0  0  0  0  0  0  0  0  0  0  0
   38.9590   33.7190   50.1520 H   0  0  0  0  0  0  0  0  0  0  0  0
   37.2620   32.3440   51.1680 H   0  0  0  0  0  0  0  0  0  0  0  0
   36.1100   30.6830   49.9080 H   0  0  0  0  0  0  0  0  0  0  0  0
   39.7620   31.1240   45.8010 C   0  0  0  0  0  0  0  0  0  0  0  0
   38.5630   31.8330   46.0630 C   0  0  0  0  0  0  0  0  0  0  0  0
   37.9730   32.3760   44.9490 C   0  0  0  0  0  0  0  0  0  0  0  0
   38.5140   32.2260   43.7350 N   0  0  0  0  0  0  0  0  0  0  0  0
   39.6300   31.5620   43.5090 C   0  0  0  0  0  0  0  0  0  0  0  0
   40.2440   31.0170   44.5470 N   0  0  0  0  0  0  0  0  0  0  0  0
   40.3050   30.6560   46.6280 H   0  0  0  0  0  0  0  0  0  0  0  0
   37.0600   32.9180   45.1390 H   0  0  0  0  0  0  0  0  0  0  0  0
   40.0780   31.4340   42.5310 H   0  0  0  0  0  0  0  0  0  0  0  0
   35.0510   30.0740   47.4870 C   0  0  0  0  0  0  0  0  0  0  0  0
   34.5790   30.7920   48.4520 O   0  0  0  0  0  0  0  0  0  0  0  0
   36.4690   30.1740   47.1940 N   0  0  0  0  0  0  0  0  0  0  0  0
   36.9260   29.6050   46.4490 H   0  0  0  0  0  0  0  0  0  0  0  0
   34.2000   29.2620   46.7960 O   0  0  0  0  0  0  0  0  0  0  0  0
   33.0340   29.6640   46.1690 C   0  0  0  0  0  0  0  0  0  0  0  0
   32.9750   30.7410   45.4160 O   0  0  0  0  0  0  0  0  0  0  0  0
   31.7020   27.7290   47.0470 C   0  0  0  0  0  3  0  0  0  0  0  0
   31.7900   28.8710   46.3040 C   0  0  0  0  0  0  0  0  0  0  0  0
   30.6380   29.2730   45.6630 C   0  0  0  0  0  0  0  0  0  0  0  0
   30.6620   30.1840   45.0580 H   0  0  0  0  0  0  0  0  0  0  0  0
   29.4490   28.6100   45.7280 C   0  0  0  0  0  0  0  0  0  0  0  0
   29.4020   27.4490   46.4960 C   0  0  0  0  0  0  0  0  0  0  0  0
   30.5310   27.0090   47.1550 C   0  0  0  0  0  3  0  0  0  0  0  0
   28.0930   26.9380   46.4200 O   0  0  0  0  0  0  0  0  0  0  0  0
   27.2540   27.9750   45.9500 C   0  0  0  0  0  3  0  0  0  0  0  0
   26.4600   27.6390   45.2630 H   0  0  0  0  0  0  0  0  0  0  0  0
   28.1620   28.7780   45.2030 O   0  0  0  0  0  0  0  0  0  0  0  0
  1  6  2  0  0  0  0
  1  2  1  0  0  0  0
  2  3  2  0  0  0  0
  3  4  1  0  0  0  0
  3  8  1  0  0  0  0
  4  9  1  0  0  0  0
  5 10  1  0  0  0  0
  5  4  2  0  0  0  0
  6  5  1  0  0  0  0
  7  2  1  0  0  0  0
 11 12  1  0  0  0  0
 11 17  1  0  0  0  0
 12  1  1  0  0  0  0
 13 18  1  0  0  0  0
 13 12  2  0  0  0  0
 14 13  1  0  0  0  0
 15 14  2  0  0  0  0
 15 16  1  0  0  0  0
 16 11  2  0  0  0  0
 19 15  1  0  0  0  0
 20 21  2  0  0  0  0
 22 20  1  0  0  0  0
 22  6  1  0  0  0  0
 23 22  1  0  0  0  0
 24 20  1  0  0  0  0
 25 28  1  0  0  0  0
 25 24  1  0  0  0  0
 26 25  2  0  0  0  0
 27 33  1  0  0  0  0
 28 27  2  0  0  0  0
 29 31  2  0  0  0  0
 29 28  1  0  0  0  0
 30 29  1  0  0  0  0
 31 32  1  0  0  0  0
 32 33  2  0  0  0  0
 34 32  1  0  0  0  0
 35 34  1  0  0  0  0
 36 35  1  0  0  0  0
 37 31  1  0  0  0  0
 37 35  1  0  0  0  0
M  END
>  <minimizedAffinity>
-5.7624855

>  <minimizedRMSD>
1.09612787

$$$$
