
 OpenBabel03272507123D

 42 47  0  0  0  0  0  0  0  0999 V2000
   35.8800   29.1250   49.8380 C   0  0  0  0  0  0  0  0  0  0  0  0
   34.8390   29.6710   50.5350 C   0  0  0  0  0  0  0  0  0  0  0  0
   33.6710   29.1050   50.0160 C   0  0  0  0  0  0  0  0  0  0  0  0
   34.0880   28.2230   49.0060 C   0  0  0  0  0  0  0  0  0  0  0  0
   35.3830   28.2910   48.9640 O   0  0  0  0  0  0  0  0  0  0  0  0
   34.8830   30.4090   51.3440 H   0  0  0  0  0  0  0  0  0  0  0  0
   32.6970   29.3630   50.3880 H   0  0  0  0  0  0  0  0  0  0  0  0
   33.5390   26.4940   47.3110 C   0  0  0  0  0  0  0  0  0  0  0  0
   33.1390   27.4450   48.2350 C   0  0  0  0  0  0  0  0  0  0  0  0
   31.8080   27.6890   48.4570 C   0  0  0  0  0  0  0  0  0  0  0  0
   30.8630   26.9660   47.7410 C   0  0  0  0  0  0  0  0  0  0  0  0
   29.5230   26.9950   47.7550 N   0  0  0  0  0  0  0  0  0  0  0  0
   29.0960   26.0920   46.8710 N   0  0  0  0  0  0  0  0  0  0  0  0
   30.1570   25.4940   46.3000 C   0  0  0  0  0  0  0  0  0  0  0  0
   31.3180   26.0290   46.8330 C   0  0  0  0  0  0  0  0  0  0  0  0
   32.6450   25.7640   46.5900 C   0  0  0  0  0  0  0  0  0  0  0  0
   34.6070   26.3120   47.1470 H   0  0  0  0  0  0  0  0  0  0  0  0
   31.3990   28.4250   49.1680 H   0  0  0  0  0  0  0  0  0  0  0  0
   28.8900   27.6090   48.3460 H   0  0  0  0  0  0  0  0  0  0  0  0
   30.1680   24.7070   45.5330 H   0  0  0  0  0  0  0  0  0  0  0  0
   32.9890   25.0320   45.8800 H   0  0  0  0  0  0  0  0  0  0  0  0
   37.2570   29.4860   50.1130 C   0  0  0  0  0  0  0  0  0  0  0  0
   37.8940   28.8340   50.9840 O   0  0  0  0  0  0  0  0  0  0  0  0
   37.8220   30.5840   49.3630 C   0  0  0  0  0  0  0  0  0  0  0  0
   38.1100   31.7520   50.0630 C   0  0  0  0  0  0  0  0  0  0  0  0
   38.6580   32.8290   49.3650 C   0  0  0  0  0  0  0  0  0  0  0  0
   38.8740   32.6590   48.0320 N   0  0  0  0  0  0  0  0  0  0  0  0
   38.5900   31.5340   47.3860 C   0  0  0  0  0  0  0  0  0  0  0  0
   38.0640   30.5000   48.0580 N   0  0  0  0  0  0  0  0  0  0  0  0
   37.9090   31.8040   51.1220 H   0  0  0  0  0  0  0  0  0  0  0  0
   38.8710   33.7220   49.9350 H   0  0  0  0  0  0  0  0  0  0  0  0
   39.0520   30.1630   45.3870 C   0  0  0  0  0  3  0  0  0  0  0  0
   38.8410   31.4030   45.9560 C   0  0  0  0  0  0  0  0  0  0  0  0
   38.8770   32.4940   45.1230 C   0  0  0  0  0  0  0  0  0  0  0  0
   38.7190   33.4820   45.5180 H   0  0  0  0  0  0  0  0  0  0  0  0
   39.1190   32.3500   43.7590 C   0  0  0  0  0  0  0  0  0  0  0  0
   39.3300   31.1110   43.1910 C   0  0  0  0  0  0  0  0  0  0  0  0
   39.2910   30.0200   44.0350 C   0  0  0  0  0  3  0  0  0  0  0  0
   39.5420   31.2900   41.8190 O   0  0  0  0  0  0  0  0  0  0  0  0
   39.1600   32.6220   41.5210 C   0  0  0  0  0  3  0  0  0  0  0  0
   38.1040   32.6530   41.1640 H   0  0  0  0  0  0  0  0  0  0  0  0
   39.1930   33.3160   42.7690 O   0  0  0  0  0  0  0  0  0  0  0  0
  1 22  1  0  0  0  0
  1  2  2  0  0  0  0
  2  6  1  0  0  0  0
  3  7  1  0  0  0  0
  3  2  1  0  0  0  0
  4  3  2  0  0  0  0
  5  4  1  0  0  0  0
  5  1  1  0  0  0  0
  8  9  1  0  0  0  0
  9 10  2  0  0  0  0
  9  4  1  0  0  0  0
 10 18  1  0  0  0  0
 11 12  1  0  0  0  0
 11 10  1  0  0  0  0
 12 19  1  0  0  0  0
 13 12  1  0  0  0  0
 14 15  1  0  0  0  0
 14 13  2  0  0  0  0
 15 11  2  0  0  0  0
 16 15  1  0  0  0  0
 16  8  2  0  0  0  0
 17  8  1  0  0  0  0
 20 14  1  0  0  0  0
 21 16  1  0  0  0  0
 22 23  2  0  0  0  0
 24 25  1  0  0  0  0
 24 22  1  0  0  0  0
 25 30  1  0  0  0  0
 26 31  1  0  0  0  0
 26 25  2  0  0  0  0
 27 26  1  0  0  0  0
 28 27  2  0  0  0  0
 28 29  1  0  0  0  0
 29 24  2  0  0  0  0
 32 33  1  0  0  0  0
 33 28  1  0  0  0  0
 34 35  1  0  0  0  0
 34 33  2  0  0  0  0
 36 34  1  0  0  0  0
 37 36  2  0  0  0  0
 37 38  1  0  0  0  0
 38 32  2  0  0  0  0
 39 37  1  0  0  0  0
 40 39  1  0  0  0  0
 40 42  1  0  0  0  0
 41 40  1  0  0  0  0
 42 36  1  0  0  0  0
M  END
>  <minimizedAffinity>
-7.53090906

>  <minimizedRMSD>
0.332494885

$$$$
