
 OpenBabel03272502193D

 35 38  0  0  1  0  0  0  0  0999 V2000
   37.4110   26.6500   34.7570 C   0  0  0  0  0  0  0  0  0  0  0  0
   37.3320   25.9790   33.5150 C   0  0  0  0  0  0  0  0  0  0  0  0
   36.6790   26.6020   32.4540 C   0  0  0  0  0  0  0  0  0  0  0  0
   36.1430   27.8550   32.6940 N   0  0  0  0  0  0  0  0  0  0  0  0
   36.2370   28.4550   33.8750 C   0  0  0  0  0  0  0  0  0  0  0  0
   36.8680   27.8540   34.9010 N   0  0  0  0  0  0  0  0  0  0  0  0
   37.7450   24.9990   33.3090 H   0  0  0  0  0  0  0  0  0  0  0  0
   36.6070   26.1060   31.4960 H   0  0  0  0  0  0  0  0  0  0  0  0
   34.9180   30.4120   33.1350 C   0  0  0  0  0  3  0  0  0  0  0  0
   35.6640   29.7700   34.0930 C   0  0  0  0  0  0  0  0  0  0  0  0
   35.8710   30.3950   35.2910 C   0  0  0  0  0  0  0  0  0  0  0  0
   36.4490   29.9000   36.0380 H   0  0  0  0  0  0  0  0  0  0  0  0
   35.3210   31.6420   35.4810 C   0  0  0  0  0  0  0  0  0  0  0  0
   34.5600   32.3400   34.5500 C   0  0  0  0  0  0  0  0  0  0  0  0
   34.3780   31.6660   33.3550 C   0  0  0  0  0  3  0  0  0  0  0  0
   34.2170   33.5310   35.1460 O   0  0  0  0  0  0  0  0  0  0  0  0
   35.1450   33.7740   36.1860 C   0  0  0  0  0  3  0  0  0  0  0  0
   34.7110   34.4030   36.9990 H   0  0  0  0  0  0  0  0  0  0  0  0
   35.4150   32.4410   36.6190 O   0  0  0  0  0  0  0  0  0  0  0  0
   38.2780   25.7030   35.9850 S   0  0  0  0  0  0  0  0  0  0  0  0
   37.8400   23.1750   36.8170 N   0  0  0  0  0  0  0  0  0  0  0  0
   38.1860   23.9110   35.6220 C   0  0  2  0  0  0  0  0  0  0  0  0
   39.5390   23.4290   35.1600 C   0  0  0  0  0  0  0  0  0  0  0  0
   39.8890   22.1980   35.7570 O   0  0  0  0  0  0  0  0  0  0  0  0
   40.0970   22.4850   37.1070 C   0  0  0  0  0  0  0  0  0  0  0  0
   38.9390   23.2330   37.7360 C   0  0  2  0  0  0  0  0  0  0  0  0
   36.9450   23.5030   37.2150 H   0  0  0  0  0  0  0  0  0  0  0  0
   37.3810   23.7860   34.8720 H   0  0  0  0  0  0  0  0  0  0  0  0
   40.3170   24.1870   35.2700 H   0  0  0  0  0  0  0  0  0  0  0  0
   39.4470   23.2280   34.0540 H   0  0  0  0  0  0  0  0  0  0  0  0
   40.1720   21.4920   37.6180 H   0  0  0  0  0  0  0  0  0  0  0  0
   41.0660   22.9910   37.2950 H   0  0  0  0  0  0  0  0  0  0  0  0
   39.2270   24.2920   37.8930 H   0  0  0  0  0  0  0  0  0  0  0  0
   38.5510   22.6220   38.9440 O   0  0  0  0  0  0  0  0  0  0  0  0
   39.3300   22.5280   39.5590 H   0  0  0  0  0  0  0  0  0  0  0  0
  1  6  1  0  0  0  0
  1 20  1  0  0  0  0
  2  1  2  0  0  0  0
  3  4  2  0  0  0  0
  3  2  1  0  0  0  0
  4  5  1  0  0  0  0
  5 10  1  0  0  0  0
  5  6  2  0  0  0  0
  7  2  1  0  0  0  0
  8  3  1  0  0  0  0
  9 15  2  0  0  0  0
  9 10  1  0  0  0  0
 10 11  2  0  0  0  0
 11 13  1  0  0  0  0
 11 12  1  0  0  0  0
 13 19  1  0  0  0  0
 14 16  1  0  0  0  0
 14 13  2  0  0  0  0
 15 14  1  0  0  0  0
 16 17  1  0  0  0  0
 17 19  1  0  0  0  0
 17 18  1  0  0  0  0
 21 27  1  0  0  0  0
 21 26  1  0  0  0  0
 22 28  1  6  0  0  0
 22 20  1  0  0  0  0
 22 21  1  0  0  0  0
 23 29  1  0  0  0  0
 23 22  1  0  0  0  0
 23 24  1  0  0  0  0
 24 25  1  0  0  0  0
 25 32  1  0  0  0  0
 25 31  1  0  0  0  0
 25 26  1  0  0  0  0
 26 33  1  1  0  0  0
 26 34  1  0  0  0  0
 30 23  1  0  0  0  0
 34 35  1  0  0  0  0
M  END
>  <minimizedAffinity>
-5.92493343

$$$$

 OpenBabel03272502193D

 35 38  0  0  1  0  0  0  0  0999 V2000
   35.6660   29.4840   33.9220 C   0  0  0  0  0  0  0  0  0  0  0  0
   35.7880   29.8060   32.5520 C   0  0  0  0  0  0  0  0  0  0  0  0
   36.4530   28.9190   31.7090 C   0  0  0  0  0  0  0  0  0  0  0  0
   36.9570   27.7650   32.2820 N   0  0  0  0  0  0  0  0  0  0  0  0
   36.8230   27.4950   33.5750 C   0  0  0  0  0  0  0  0  0  0  0  0
   36.1800   28.3520   34.3910 N   0  0  0  0  0  0  0  0  0  0  0  0
   35.4000   30.7040   32.0850 H   0  0  0  0  0  0  0  0  0  0  0  0
   36.5580   29.1470   30.6570 H   0  0  0  0  0  0  0  0  0  0  0  0
   37.7740   25.2220   33.3640 C   0  0  0  0  0  3  0  0  0  0  0  0
   37.3630   26.2750   34.1450 C   0  0  0  0  0  0  0  0  0  0  0  0
   37.4680   26.1650   35.5030 C   0  0  0  0  0  0  0  0  0  0  0  0
   37.1500   26.9800   36.1130 H   0  0  0  0  0  0  0  0  0  0  0  0
   37.9820   25.0010   36.0260 C   0  0  0  0  0  0  0  0  0  0  0  0
   38.4120   23.9040   35.2890 C   0  0  0  0  0  0  0  0  0  0  0  0
   38.2870   24.0630   33.9190 C   0  0  0  0  0  3  0  0  0  0  0  0
   38.8450   22.9700   36.2010 O   0  0  0  0  0  0  0  0  0  0  0  0
   38.2350   23.2670   37.4420 C   0  0  0  0  0  3  0  0  0  0  0  0
   38.8460   22.9140   38.3060 H   0  0  0  0  0  0  0  0  0  0  0  0
   38.1700   24.6910   37.3720 O   0  0  0  0  0  0  0  0  0  0  0  0
   34.7890   30.7300   34.8370 S   0  0  0  0  0  0  0  0  0  0  0  0
   35.2470   32.1010   37.1140 N   0  0  0  0  0  0  0  0  0  0  0  0
   35.9270   31.6830   35.9090 C   0  0  2  0  0  0  0  0  0  0  0  0
   36.3730   32.9250   35.1780 C   0  0  0  0  0  0  0  0  0  0  0  0
   36.3530   34.0620   36.0150 O   0  0  0  0  0  0  0  0  0  0  0  0
   35.0030   34.3100   36.2700 C   0  0  0  0  0  0  0  0  0  0  0  0
   34.2640   33.0890   36.7760 C   0  0  2  0  0  0  0  0  0  0  0  0
   34.8660   31.2920   37.6310 H   0  0  0  0  0  0  0  0  0  0  0  0
   36.7520   30.9940   36.1770 H   0  0  0  0  0  0  0  0  0  0  0  0
   35.8340   33.0800   34.2420 H   0  0  0  0  0  0  0  0  0  0  0  0
   37.4530   32.7600   34.8970 H   0  0  0  0  0  0  0  0  0  0  0  0
   34.9870   35.0750   37.0890 H   0  0  0  0  0  0  0  0  0  0  0  0
   34.4820   34.7820   35.4130 H   0  0  0  0  0  0  0  0  0  0  0  0
   33.6120   32.6940   35.9720 H   0  0  0  0  0  0  0  0  0  0  0  0
   33.5210   33.4020   37.9320 O   0  0  0  0  0  0  0  0  0  0  0  0
   32.9180   34.1770   37.7660 H   0  0  0  0  0  0  0  0  0  0  0  0
  1  6  1  0  0  0  0
  1 20  1  0  0  0  0
  2  1  2  0  0  0  0
  3  4  2  0  0  0  0
  3  2  1  0  0  0  0
  4  5  1  0  0  0  0
  5 10  1  0  0  0  0
  5  6  2  0  0  0  0
  7  2  1  0  0  0  0
  8  3  1  0  0  0  0
  9 15  2  0  0  0  0
  9 10  1  0  0  0  0
 10 11  2  0  0  0  0
 11 13  1  0  0  0  0
 11 12  1  0  0  0  0
 13 19  1  0  0  0  0
 14 13  2  0  0  0  0
 14 16  1  0  0  0  0
 15 14  1  0  0  0  0
 16 17  1  0  0  0  0
 17 18  1  0  0  0  0
 19 17  1  0  0  0  0
 20 22  1  0  0  0  0
 21 27  1  0  0  0  0
 22 28  1  1  0  0  0
 22 21  1  0  0  0  0
 23 22  1  0  0  0  0
 23 24  1  0  0  0  0
 24 25  1  0  0  0  0
 25 26  1  0  0  0  0
 25 31  1  0  0  0  0
 26 33  1  6  0  0  0
 26 21  1  0  0  0  0
 26 34  1  0  0  0  0
 29 23  1  0  0  0  0
 30 23  1  0  0  0  0
 32 25  1  0  0  0  0
 35 34  1  0  0  0  0
M  END
>  <minimizedAffinity>
-5.8885684

$$$$

 OpenBabel03272502193D

 35 38  0  0  1  0  0  0  0  0999 V2000
   37.2730   25.2600   32.9370 C   0  0  0  0  0  0  0  0  0  0  0  0
   36.5800   24.6670   31.8570 C   0  0  0  0  0  0  0  0  0  0  0  0
   35.7000   25.4480   31.1120 C   0  0  0  0  0  0  0  0  0  0  0  0
   35.5620   26.7730   31.4880 N   0  0  0  0  0  0  0  0  0  0  0  0
   36.2310   27.2960   32.5100 C   0  0  0  0  0  0  0  0  0  0  0  0
   37.0820   26.5410   33.2300 N   0  0  0  0  0  0  0  0  0  0  0  0
   36.6750   23.6330   31.5480 H   0  0  0  0  0  0  0  0  0  0  0  0
   35.1600   25.0140   30.2820 H   0  0  0  0  0  0  0  0  0  0  0  0
   36.0660   29.6980   31.9450 C   0  0  0  0  0  3  0  0  0  0  0  0
   36.0640   28.6900   32.8780 C   0  0  0  0  0  0  0  0  0  0  0  0
   35.8990   29.0140   34.1950 C   0  0  0  0  0  0  0  0  0  0  0  0
   35.8970   28.2340   34.9220 H   0  0  0  0  0  0  0  0  0  0  0  0
   35.7430   30.3400   34.5260 C   0  0  0  0  0  0  0  0  0  0  0  0
   35.7370   31.4020   33.6290 C   0  0  0  0  0  0  0  0  0  0  0  0
   35.9060   31.0230   32.3090 C   0  0  0  0  0  3  0  0  0  0  0  0
   35.5560   32.5410   34.3790 O   0  0  0  0  0  0  0  0  0  0  0  0
   35.9470   32.2480   35.7070 C   0  0  0  0  0  3  0  0  0  0  0  0
   35.4170   32.8870   36.4520 H   0  0  0  0  0  0  0  0  0  0  0  0
   35.5640   30.8760   35.8010 O   0  0  0  0  0  0  0  0  0  0  0  0
   38.3470   24.1120   33.7660 S   0  0  0  0  0  0  0  0  0  0  0  0
   39.8390   23.8640   36.0000 N   0  0  0  0  0  0  0  0  0  0  0  0
   38.9770   24.8150   35.3350 C   0  0  2  0  0  0  0  0  0  0  0  0
   37.8130   25.1000   36.2530 C   0  0  0  0  0  0  0  0  0  0  0  0
   38.0770   24.6890   37.5770 O   0  0  0  0  0  0  0  0  0  0  0  0
   38.1140   23.2950   37.5340 C   0  0  0  0  0  0  0  0  0  0  0  0
   39.0470   22.7620   36.4660 C   0  0  2  0  0  0  0  0  0  0  0  0
   40.6280   23.5840   35.3940 H   0  0  0  0  0  0  0  0  0  0  0  0
   39.5670   25.7110   35.0610 H   0  0  0  0  0  0  0  0  0  0  0  0
   36.8680   24.7080   35.8690 H   0  0  0  0  0  0  0  0  0  0  0  0
   37.6990   26.2210   36.2860 H   0  0  0  0  0  0  0  0  0  0  0  0
   38.5220   22.9730   38.5260 H   0  0  0  0  0  0  0  0  0  0  0  0
   37.1060   22.8390   37.4640 H   0  0  0  0  0  0  0  0  0  0  0  0
   38.4510   22.3590   35.6230 H   0  0  0  0  0  0  0  0  0  0  0  0
   39.9070   21.7820   37.0010 O   0  0  0  0  0  0  0  0  0  0  0  0
   39.3850   21.0630   37.4520 H   0  0  0  0  0  0  0  0  0  0  0  0
  1  6  1  0  0  0  0
  1 20  1  0  0  0  0
  2  1  2  0  0  0  0
  3  4  2  0  0  0  0
  3  2  1  0  0  0  0
  4  5  1  0  0  0  0
  5 10  1  0  0  0  0
  5  6  2  0  0  0  0
  7  2  1  0  0  0  0
  8  3  1  0  0  0  0
  9 15  2  0  0  0  0
  9 10  1  0  0  0  0
 10 11  2  0  0  0  0
 11 13  1  0  0  0  0
 11 12  1  0  0  0  0
 13 19  1  0  0  0  0
 14 16  1  0  0  0  0
 14 13  2  0  0  0  0
 15 14  1  0  0  0  0
 16 17  1  0  0  0  0
 17 19  1  0  0  0  0
 17 18  1  0  0  0  0
 20 22  1  0  0  0  0
 21 26  1  0  0  0  0
 22 28  1  6  0  0  0
 22 21  1  0  0  0  0
 22 23  1  0  0  0  0
 23 30  1  0  0  0  0
 23 24  1  0  0  0  0
 25 24  1  0  0  0  0
 25 31  1  0  0  0  0
 26 33  1  6  0  0  0
 26 34  1  0  0  0  0
 26 25  1  0  0  0  0
 27 21  1  0  0  0  0
 29 23  1  0  0  0  0
 32 25  1  0  0  0  0
 34 35  1  0  0  0  0
M  END
>  <minimizedAffinity>
-5.78237391

$$$$

 OpenBabel03272502193D

 35 38  0  0  1  0  0  0  0  0999 V2000
   37.3530   27.6470   32.4440 C   0  0  0  0  0  0  0  0  0  0  0  0
   37.6020   28.3060   31.2190 C   0  0  0  0  0  0  0  0  0  0  0  0
   36.9990   29.5390   30.9840 C   0  0  0  0  0  0  0  0  0  0  0  0
   36.1830   30.0410   31.9820 N   0  0  0  0  0  0  0  0  0  0  0  0
   35.9720   29.3920   33.1220 C   0  0  0  0  0  0  0  0  0  0  0  0
   36.5550   28.2000   33.3510 N   0  0  0  0  0  0  0  0  0  0  0  0
   38.2380   27.9300   30.4260 H   0  0  0  0  0  0  0  0  0  0  0  0
   37.1760   30.0600   30.0540 H   0  0  0  0  0  0  0  0  0  0  0  0
   33.7960   29.5700   34.2850 C   0  0  0  0  0  3  0  0  0  0  0  0
   35.1100   29.9460   34.1500 C   0  0  0  0  0  0  0  0  0  0  0  0
   35.6190   30.8750   35.0140 C   0  0  0  0  0  0  0  0  0  0  0  0
   36.6380   31.1700   34.9120 H   0  0  0  0  0  0  0  0  0  0  0  0
   34.7880   31.3910   35.9820 C   0  0  0  0  0  0  0  0  0  0  0  0
   33.4540   31.0500   36.1670 C   0  0  0  0  0  0  0  0  0  0  0  0
   32.9850   30.1060   35.2690 C   0  0  0  0  0  3  0  0  0  0  0  0
   33.0080   31.7940   37.2340 O   0  0  0  0  0  0  0  0  0  0  0  0
   33.8690   32.9090   37.3690 C   0  0  0  0  0  3  0  0  0  0  0  0
   33.9080   33.2850   38.4180 H   0  0  0  0  0  0  0  0  0  0  0  0
   35.1090   32.3400   36.9510 O   0  0  0  0  0  0  0  0  0  0  0  0
   38.2070   26.0930   32.5640 S   0  0  0  0  0  0  0  0  0  0  0  0
   36.6090   25.3330   30.5280 N   0  0  0  0  0  0  0  0  0  0  0  0
   37.9210   25.0680   31.0730 C   0  0  2  0  0  0  0  0  0  0  0  0
   37.9740   23.6100   31.4560 C   0  0  0  0  0  0  0  0  0  0  0  0
   36.9360   22.8700   30.8510 O   0  0  0  0  0  0  0  0  0  0  0  0
   35.7600   23.3160   31.4570 C   0  0  0  0  0  0  0  0  0  0  0  0
   35.6170   24.8240   31.4300 C   0  0  2  0  0  0  0  0  0  0  0  0
   36.4910   26.3330   30.2990 H   0  0  0  0  0  0  0  0  0  0  0  0
   38.6890   25.3710   30.3360 H   0  0  0  0  0  0  0  0  0  0  0  0
   38.0260   23.4600   32.5370 H   0  0  0  0  0  0  0  0  0  0  0  0
   38.9380   23.2030   31.0350 H   0  0  0  0  0  0  0  0  0  0  0  0
   34.9250   22.8880   30.8460 H   0  0  0  0  0  0  0  0  0  0  0  0
   35.6200   22.9070   32.4790 H   0  0  0  0  0  0  0  0  0  0  0  0
   35.8040   25.2300   32.4440 H   0  0  0  0  0  0  0  0  0  0  0  0
   34.3420   25.1930   30.9560 O   0  0  0  0  0  0  0  0  0  0  0  0
   33.6260   24.7460   31.4850 H   0  0  0  0  0  0  0  0  0  0  0  0
  1 20  1  0  0  0  0
  1  6  1  0  0  0  0
  2  1  2  0  0  0  0
  3  2  1  0  0  0  0
  3  4  2  0  0  0  0
  4  5  1  0  0  0  0
  5  6  2  0  0  0  0
  5 10  1  0  0  0  0
  7  2  1  0  0  0  0
  8  3  1  0  0  0  0
  9 15  1  0  0  0  0
 10  9  2  0  0  0  0
 10 11  1  0  0  0  0
 11 13  2  0  0  0  0
 12 11  1  0  0  0  0
 13 14  1  0  0  0  0
 13 19  1  0  0  0  0
 14 16  1  0  0  0  0
 15 14  2  0  0  0  0
 16 17  1  0  0  0  0
 17 18  1  0  0  0  0
 19 17  1  0  0  0  0
 21 22  1  0  0  0  0
 21 26  1  0  0  0  0
 22 28  1  6  0  0  0
 22 23  1  0  0  0  0
 22 20  1  0  0  0  0
 23 29  1  0  0  0  0
 24 23  1  0  0  0  0
 24 25  1  0  0  0  0
 25 32  1  0  0  0  0
 26 25  1  0  0  0  0
 26 33  1  1  0  0  0
 27 21  1  0  0  0  0
 30 23  1  0  0  0  0
 31 25  1  0  0  0  0
 34 26  1  0  0  0  0
 34 35  1  0  0  0  0
M  END
>  <minimizedAffinity>
-5.67767525

$$$$

 OpenBabel03272502193D

 35 38  0  0  1  0  0  0  0  0999 V2000
   37.8580   25.4890   34.0520 C   0  0  0  0  0  0  0  0  0  0  0  0
   37.5430   24.4200   33.1830 C   0  0  0  0  0  0  0  0  0  0  0  0
   36.8150   24.6850   32.0260 C   0  0  0  0  0  0  0  0  0  0  0  0
   36.4420   25.9990   31.8050 N   0  0  0  0  0  0  0  0  0  0  0  0
   36.7550   26.9790   32.6460 C   0  0  0  0  0  0  0  0  0  0  0  0
   37.4600   26.7240   33.7640 N   0  0  0  0  0  0  0  0  0  0  0  0
   37.8270   23.3860   33.3390 H   0  0  0  0  0  0  0  0  0  0  0  0
   36.5640   23.8820   31.3480 H   0  0  0  0  0  0  0  0  0  0  0  0
   36.4040   28.9000   31.1280 C   0  0  0  0  0  3  0  0  0  0  0  0
   36.3490   28.3470   32.3840 C   0  0  0  0  0  0  0  0  0  0  0  0
   35.8980   29.1160   33.4200 C   0  0  0  0  0  0  0  0  0  0  0  0
   35.8540   28.6910   34.3970 H   0  0  0  0  0  0  0  0  0  0  0  0
   35.5180   30.4110   33.1540 C   0  0  0  0  0  0  0  0  0  0  0  0
   35.5500   31.0240   31.9070 C   0  0  0  0  0  0  0  0  0  0  0  0
   36.0140   30.2050   30.8910 C   0  0  0  0  0  3  0  0  0  0  0  0
   35.0890   32.3060   32.0930 O   0  0  0  0  0  0  0  0  0  0  0  0
   35.2540   32.6280   33.4610 C   0  0  0  0  0  3  0  0  0  0  0  0
   34.5160   33.3900   33.8050 H   0  0  0  0  0  0  0  0  0  0  0  0
   35.0340   31.3520   34.0620 O   0  0  0  0  0  0  0  0  0  0  0  0
   38.7900   24.9590   35.4700 S   0  0  0  0  0  0  0  0  0  0  0  0
   38.4430   22.6090   36.7470 N   0  0  0  0  0  0  0  0  0  0  0  0
   38.9580   23.1360   35.5040 C   0  0  2  0  0  0  0  0  0  0  0  0
   40.4200   22.7720   35.4210 C   0  0  0  0  0  0  0  0  0  0  0  0
   40.7570   21.7470   36.3300 O   0  0  0  0  0  0  0  0  0  0  0  0
   40.6440   22.3220   37.5970 C   0  0  0  0  0  0  0  0  0  0  0  0
   39.3100   23.0050   37.8180 C   0  0  2  0  0  0  0  0  0  0  0  0
   37.4550   22.8770   36.8890 H   0  0  0  0  0  0  0  0  0  0  0  0
   38.3470   22.7520   34.6640 H   0  0  0  0  0  0  0  0  0  0  0  0
   41.0760   23.6410   35.5010 H   0  0  0  0  0  0  0  0  0  0  0  0
   40.5850   22.3460   34.3900 H   0  0  0  0  0  0  0  0  0  0  0  0
   40.7090   21.4710   38.3220 H   0  0  0  0  0  0  0  0  0  0  0  0
   41.4950   22.9890   37.8450 H   0  0  0  0  0  0  0  0  0  0  0  0
   39.4500   24.1040   37.7860 H   0  0  0  0  0  0  0  0  0  0  0  0
   38.7390   22.5950   39.0390 O   0  0  0  0  0  0  0  0  0  0  0  0
   39.3750   22.7370   39.7920 H   0  0  0  0  0  0  0  0  0  0  0  0
  1 20  1  0  0  0  0
  2  7  1  0  0  0  0
  2  1  2  0  0  0  0
  3  2  1  0  0  0  0
  4  3  2  0  0  0  0
  4  5  1  0  0  0  0
  5  6  2  0  0  0  0
  6  1  1  0  0  0  0
  8  3  1  0  0  0  0
  9 10  1  0  0  0  0
 10  5  1  0  0  0  0
 10 11  2  0  0  0  0
 11 12  1  0  0  0  0
 13 11  1  0  0  0  0
 13 19  1  0  0  0  0
 14 16  1  0  0  0  0
 14 13  2  0  0  0  0
 15  9  2  0  0  0  0
 15 14  1  0  0  0  0
 16 17  1  0  0  0  0
 17 18  1  0  0  0  0
 17 19  1  0  0  0  0
 20 22  1  0  0  0  0
 21 27  1  0  0  0  0
 21 26  1  0  0  0  0
 22 28  1  6  0  0  0
 22 21  1  0  0  0  0
 23 29  1  0  0  0  0
 23 22  1  0  0  0  0
 23 24  1  0  0  0  0
 24 25  1  0  0  0  0
 25 26  1  0  0  0  0
 25 32  1  0  0  0  0
 25 31  1  0  0  0  0
 26 33  1  6  0  0  0
 26 34  1  0  0  0  0
 30 23  1  0  0  0  0
 34 35  1  0  0  0  0
M  END
>  <minimizedAffinity>
-5.67174864

$$$$

 OpenBabel03272502193D

 35 38  0  0  1  0  0  0  0  0999 V2000
   38.0350   27.1190   32.6820 C   0  0  0  0  0  0  0  0  0  0  0  0
   36.9710   27.9450   33.1130 C   0  0  0  0  0  0  0  0  0  0  0  0
   36.4470   27.7550   34.3890 C   0  0  0  0  0  0  0  0  0  0  0  0
   37.0110   26.7540   35.1590 N   0  0  0  0  0  0  0  0  0  0  0  0
   38.0110   25.9970   34.7200 C   0  0  0  0  0  0  0  0  0  0  0  0
   38.5190   26.1800   33.4870 N   0  0  0  0  0  0  0  0  0  0  0  0
   36.5160   28.7330   32.5250 H   0  0  0  0  0  0  0  0  0  0  0  0
   35.6330   28.3750   34.7370 H   0  0  0  0  0  0  0  0  0  0  0  0
   38.0400   24.6090   36.7670 C   0  0  0  0  0  3  0  0  0  0  0  0
   38.5820   24.9550   35.5530 C   0  0  0  0  0  0  0  0  0  0  0  0
   39.6970   24.2940   35.1210 C   0  0  0  0  0  0  0  0  0  0  0  0
   40.1210   24.5590   34.1790 H   0  0  0  0  0  0  0  0  0  0  0  0
   40.2250   23.3100   35.9230 C   0  0  0  0  0  0  0  0  0  0  0  0
   39.7220   22.9170   37.1580 C   0  0  0  0  0  0  0  0  0  0  0  0
   38.5940   23.6150   37.5530 C   0  0  0  0  0  3  0  0  0  0  0  0
   40.5470   21.9140   37.6110 O   0  0  0  0  0  0  0  0  0  0  0  0
   41.7850   22.0380   36.9360 C   0  0  0  0  0  3  0  0  0  0  0  0
   42.3180   21.0620   36.8550 H   0  0  0  0  0  0  0  0  0  0  0  0
   41.3480   22.5240   35.6670 O   0  0  0  0  0  0  0  0  0  0  0  0
   38.5710   27.5080   31.0330 S   0  0  0  0  0  0  0  0  0  0  0  0
   37.5130   28.1900   28.6470 N   0  0  0  0  0  0  0  0  0  0  0  0
   37.2130   28.2590   30.0590 C   0  0  2  0  0  0  0  0  0  0  0  0
   37.0830   29.7150   30.4310 C   0  0  0  0  0  0  0  0  0  0  0  0
   36.9100   30.5340   29.2940 O   0  0  0  0  0  0  0  0  0  0  0  0
   38.1270   30.4870   28.6130 C   0  0  0  0  0  0  0  0  0  0  0  0
   38.6060   29.0720   28.3580 C   0  0  2  0  0  0  0  0  0  0  0  0
   37.6710   27.2150   28.3430 H   0  0  0  0  0  0  0  0  0  0  0  0
   36.3090   27.6550   30.2690 H   0  0  0  0  0  0  0  0  0  0  0  0
   37.8920   30.0590   31.0790 H   0  0  0  0  0  0  0  0  0  0  0  0
   36.1350   29.8080   31.0340 H   0  0  0  0  0  0  0  0  0  0  0  0
   37.9340   30.9600   27.6170 H   0  0  0  0  0  0  0  0  0  0  0  0
   38.9120   31.1080   29.0910 H   0  0  0  0  0  0  0  0  0  0  0  0
   39.4510   28.8410   29.0370 H   0  0  0  0  0  0  0  0  0  0  0  0
   38.9740   28.9090   27.0080 O   0  0  0  0  0  0  0  0  0  0  0  0
   39.6420   29.5970   26.7380 H   0  0  0  0  0  0  0  0  0  0  0  0
  1  2  2  0  0  0  0
  1  6  1  0  0  0  0
  2  3  1  0  0  0  0
  3  8  1  0  0  0  0
  3  4  2  0  0  0  0
  5  4  1  0  0  0  0
  5 10  1  0  0  0  0
  6  5  2  0  0  0  0
  7  2  1  0  0  0  0
  9 15  1  0  0  0  0
 10  9  2  0  0  0  0
 11 10  1  0  0  0  0
 11 13  2  0  0  0  0
 12 11  1  0  0  0  0
 13 14  1  0  0  0  0
 14 15  2  0  0  0  0
 14 16  1  0  0  0  0
 17 16  1  0  0  0  0
 18 17  1  0  0  0  0
 19 13  1  0  0  0  0
 19 17  1  0  0  0  0
 20  1  1  0  0  0  0
 21 22  1  0  0  0  0
 22 28  1  1  0  0  0
 22 23  1  0  0  0  0
 22 20  1  0  0  0  0
 23 30  1  0  0  0  0
 23 29  1  0  0  0  0
 24 23  1  0  0  0  0
 25 32  1  0  0  0  0
 25 24  1  0  0  0  0
 26 25  1  0  0  0  0
 26 21  1  0  0  0  0
 26 33  1  1  0  0  0
 27 21  1  0  0  0  0
 31 25  1  0  0  0  0
 34 26  1  0  0  0  0
 35 34  1  0  0  0  0
M  END
>  <minimizedAffinity>
-5.64152861

$$$$

 OpenBabel03272502193D

 35 38  0  0  1  0  0  0  0  0999 V2000
   37.4670   23.8990   32.9470 C   0  0  0  0  0  0  0  0  0  0  0  0
   36.6460   22.9960   32.2350 C   0  0  0  0  0  0  0  0  0  0  0  0
   35.7800   23.4960   31.2660 C   0  0  0  0  0  0  0  0  0  0  0  0
   35.7820   24.8640   31.0650 N   0  0  0  0  0  0  0  0  0  0  0  0
   36.5690   25.6830   31.7540 C   0  0  0  0  0  0  0  0  0  0  0  0
   37.4070   25.2010   32.6910 N   0  0  0  0  0  0  0  0  0  0  0  0
   36.6300   21.9220   32.3780 H   0  0  0  0  0  0  0  0  0  0  0  0
   35.1430   22.8220   30.7100 H   0  0  0  0  0  0  0  0  0  0  0  0
   35.8190   27.9760   32.3020 C   0  0  0  0  0  3  0  0  0  0  0  0
   36.5480   27.1150   31.5180 C   0  0  0  0  0  0  0  0  0  0  0  0
   37.2760   27.6290   30.4820 C   0  0  0  0  0  0  0  0  0  0  0  0
   37.8440   26.9640   29.8710 H   0  0  0  0  0  0  0  0  0  0  0  0
   37.2440   28.9880   30.2730 C   0  0  0  0  0  0  0  0  0  0  0  0
   36.5270   29.9060   31.0300 C   0  0  0  0  0  0  0  0  0  0  0  0
   35.8060   29.3380   32.0670 C   0  0  0  0  0  3  0  0  0  0  0  0
   36.7760   31.1410   30.4790 O   0  0  0  0  0  0  0  0  0  0  0  0
   37.2060   30.9390   29.1470 C   0  0  0  0  0  3  0  0  0  0  0  0
   37.8640   31.7650   28.7870 H   0  0  0  0  0  0  0  0  0  0  0  0
   37.9100   29.7050   29.2790 O   0  0  0  0  0  0  0  0  0  0  0  0
   38.5030   23.0810   34.1370 S   0  0  0  0  0  0  0  0  0  0  0  0
   40.0100   23.5960   36.3140 N   0  0  0  0  0  0  0  0  0  0  0  0
   39.0770   24.2500   35.4250 C   0  0  2  0  0  0  0  0  0  0  0  0
   37.8950   24.7000   36.2480 C   0  0  0  0  0  0  0  0  0  0  0  0
   38.1900   24.7080   37.6280 O   0  0  0  0  0  0  0  0  0  0  0  0
   38.3350   23.3670   37.9860 C   0  0  0  0  0  0  0  0  0  0  0  0
   39.3060   22.6200   37.0940 C   0  0  2  0  0  0  0  0  0  0  0  0
   40.8180   23.2130   35.7960 H   0  0  0  0  0  0  0  0  0  0  0  0
   39.5960   25.0700   34.8920 H   0  0  0  0  0  0  0  0  0  0  0  0
   36.9830   24.1460   36.0140 H   0  0  0  0  0  0  0  0  0  0  0  0
   37.6950   25.7720   35.9620 H   0  0  0  0  0  0  0  0  0  0  0  0
   38.7660   23.3750   39.0190 H   0  0  0  0  0  0  0  0  0  0  0  0
   37.3640   22.8370   38.0730 H   0  0  0  0  0  0  0  0  0  0  0  0
   38.7420   21.9490   36.4160 H   0  0  0  0  0  0  0  0  0  0  0  0
   40.2380   21.9020   37.8690 O   0  0  0  0  0  0  0  0  0  0  0  0
   39.7740   21.3060   38.5180 H   0  0  0  0  0  0  0  0  0  0  0  0
  1 20  1  0  0  0  0
  2  7  1  0  0  0  0
  2  1  2  0  0  0  0
  3  2  1  0  0  0  0
  4  3  2  0  0  0  0
  4  5  1  0  0  0  0
  5  6  2  0  0  0  0
  6  1  1  0  0  0  0
  8  3  1  0  0  0  0
 10  5  1  0  0  0  0
 10  9  2  0  0  0  0
 11 10  1  0  0  0  0
 12 11  1  0  0  0  0
 13 11  2  0  0  0  0
 13 14  1  0  0  0  0
 14 15  2  0  0  0  0
 15  9  1  0  0  0  0
 16 14  1  0  0  0  0
 17 19  1  0  0  0  0
 17 16  1  0  0  0  0
 18 17  1  0  0  0  0
 19 13  1  0  0  0  0
 20 22  1  0  0  0  0
 21 26  1  0  0  0  0
 22 28  1  6  0  0  0
 22 23  1  0  0  0  0
 22 21  1  0  0  0  0
 23 24  1  0  0  0  0
 24 25  1  0  0  0  0
 25 32  1  0  0  0  0
 25 31  1  0  0  0  0
 26 33  1  6  0  0  0
 26 34  1  0  0  0  0
 26 25  1  0  0  0  0
 27 21  1  0  0  0  0
 29 23  1  0  0  0  0
 30 23  1  0  0  0  0
 34 35  1  0  0  0  0
M  END
>  <minimizedAffinity>
-5.59817839

$$$$

 OpenBabel03272502193D

 35 38  0  0  1  0  0  0  0  0999 V2000
   36.8950   28.0280   32.1210 C   0  0  0  0  0  0  0  0  0  0  0  0
   36.9120   28.6820   30.8680 C   0  0  0  0  0  0  0  0  0  0  0  0
   36.2240   29.8840   30.7280 C   0  0  0  0  0  0  0  0  0  0  0  0
   35.5590   30.3630   31.8430 N   0  0  0  0  0  0  0  0  0  0  0  0
   35.5650   29.7200   33.0050 C   0  0  0  0  0  0  0  0  0  0  0  0
   36.2310   28.5570   33.1420 N   0  0  0  0  0  0  0  0  0  0  0  0
   37.4260   28.3230   29.9840 H   0  0  0  0  0  0  0  0  0  0  0  0
   36.2240   30.4010   29.7780 H   0  0  0  0  0  0  0  0  0  0  0  0
   33.6110   29.8020   34.5190 C   0  0  0  0  0  3  0  0  0  0  0  0
   34.8580   30.2490   34.1560 C   0  0  0  0  0  0  0  0  0  0  0  0
   35.4490   31.2260   34.9070 C   0  0  0  0  0  0  0  0  0  0  0  0
   36.4170   31.5770   34.6290 H   0  0  0  0  0  0  0  0  0  0  0  0
   34.7640   31.7180   35.9950 C   0  0  0  0  0  0  0  0  0  0  0  0
   33.5030   31.3060   36.4100 C   0  0  0  0  0  0  0  0  0  0  0  0
   32.9470   30.3150   35.6180 C   0  0  0  0  0  3  0  0  0  0  0  0
   33.2010   32.0500   37.5260 O   0  0  0  0  0  0  0  0  0  0  0  0
   34.0030   33.2150   37.4960 C   0  0  0  0  0  3  0  0  0  0  0  0
   34.1960   33.6190   38.5170 H   0  0  0  0  0  0  0  0  0  0  0  0
   35.1870   32.7070   36.8820 O   0  0  0  0  0  0  0  0  0  0  0  0
   37.8250   26.5130   32.1080 S   0  0  0  0  0  0  0  0  0  0  0  0
   37.4820   26.3330   34.7780 N   0  0  0  0  0  0  0  0  0  0  0  0
   37.4620   25.5050   33.5930 C   0  0  2  0  0  0  0  0  0  0  0  0
   38.5300   24.4510   33.7500 C   0  0  0  0  0  0  0  0  0  0  0  0
   38.9560   24.3320   35.0910 O   0  0  0  0  0  0  0  0  0  0  0  0
   39.6350   25.5180   35.3720 C   0  0  0  0  0  0  0  0  0  0  0  0
   38.8300   26.7540   35.0300 C   0  0  2  0  0  0  0  0  0  0  0  0
   36.8080   27.1120   34.7040 H   0  0  0  0  0  0  0  0  0  0  0  0
   36.4420   25.0980   33.4510 H   0  0  0  0  0  0  0  0  0  0  0  0
   39.3610   24.5860   33.0540 H   0  0  0  0  0  0  0  0  0  0  0  0
   38.0500   23.4670   33.4820 H   0  0  0  0  0  0  0  0  0  0  0  0
   39.7950   25.5180   36.4810 H   0  0  0  0  0  0  0  0  0  0  0  0
   40.6500   25.5500   34.9260 H   0  0  0  0  0  0  0  0  0  0  0  0
   39.2430   27.2210   34.1140 H   0  0  0  0  0  0  0  0  0  0  0  0
   38.8260   27.6590   36.1100 O   0  0  0  0  0  0  0  0  0  0  0  0
   39.7560   27.8710   36.3960 H   0  0  0  0  0  0  0  0  0  0  0  0
  1  6  1  0  0  0  0
  2  1  2  0  0  0  0
  3  2  1  0  0  0  0
  3  4  2  0  0  0  0
  4  5  1  0  0  0  0
  5  6  2  0  0  0  0
  5 10  1  0  0  0  0
  7  2  1  0  0  0  0
  8  3  1  0  0  0  0
  9 15  1  0  0  0  0
 10  9  2  0  0  0  0
 10 11  1  0  0  0  0
 11 13  2  0  0  0  0
 12 11  1  0  0  0  0
 13 14  1  0  0  0  0
 13 19  1  0  0  0  0
 14 16  1  0  0  0  0
 15 14  2  0  0  0  0
 17 16  1  0  0  0  0
 17 18  1  0  0  0  0
 19 17  1  0  0  0  0
 20  1  1  0  0  0  0
 20 22  1  0  0  0  0
 21 26  1  0  0  0  0
 22 28  1  6  0  0  0
 22 23  1  0  0  0  0
 22 21  1  0  0  0  0
 23 24  1  0  0  0  0
 24 25  1  0  0  0  0
 25 31  1  0  0  0  0
 26 33  1  6  0  0  0
 26 25  1  0  0  0  0
 26 34  1  0  0  0  0
 27 21  1  0  0  0  0
 29 23  1  0  0  0  0
 30 23  1  0  0  0  0
 32 25  1  0  0  0  0
 34 35  1  0  0  0  0
M  END
>  <minimizedAffinity>
-5.58562422

$$$$

 OpenBabel03272502193D

 35 38  0  0  1  0  0  0  0  0999 V2000
   32.7650   30.7270   34.2420 C   0  0  0  0  0  0  0  0  0  0  0  0
   32.3500   31.2480   32.9950 C   0  0  0  0  0  0  0  0  0  0  0  0
   33.0840   30.9290   31.8560 C   0  0  0  0  0  0  0  0  0  0  0  0
   34.1870   30.1120   32.0250 N   0  0  0  0  0  0  0  0  0  0  0  0
   34.5470   29.6400   33.2140 C   0  0  0  0  0  0  0  0  0  0  0  0
   33.8380   29.9470   34.3160 N   0  0  0  0  0  0  0  0  0  0  0  0
   31.4900   31.8890   32.8430 H   0  0  0  0  0  0  0  0  0  0  0  0
   32.7840   31.3180   30.8920 H   0  0  0  0  0  0  0  0  0  0  0  0
   36.3040   28.1690   32.2820 C   0  0  0  0  0  3  0  0  0  0  0  0
   35.7100   28.7840   33.3580 C   0  0  0  0  0  0  0  0  0  0  0  0
   36.2330   28.5780   34.6030 C   0  0  0  0  0  0  0  0  0  0  0  0
   35.7750   29.0530   35.4400 H   0  0  0  0  0  0  0  0  0  0  0  0
   37.3350   27.7630   34.7210 C   0  0  0  0  0  0  0  0  0  0  0  0
   37.9780   27.1150   33.6730 C   0  0  0  0  0  0  0  0  0  0  0  0
   37.4110   27.3550   32.4330 C   0  0  0  0  0  3  0  0  0  0  0  0
   39.0200   26.4130   34.2320 O   0  0  0  0  0  0  0  0  0  0  0  0
   38.7230   26.2220   35.6020 C   0  0  0  0  0  3  0  0  0  0  0  0
   39.6440   26.1140   36.2210 H   0  0  0  0  0  0  0  0  0  0  0  0
   38.0150   27.4270   35.8910 O   0  0  0  0  0  0  0  0  0  0  0  0
   31.7100   31.2400   35.5770 S   0  0  0  0  0  0  0  0  0  0  0  0
   30.3750   29.5590   37.2110 N   0  0  0  0  0  0  0  0  0  0  0  0
   30.3570   30.0360   35.8460 C   0  0  2  0  0  0  0  0  0  0  0  0
   30.5640   28.8470   34.9410 C   0  0  0  0  0  0  0  0  0  0  0  0
   30.3370   27.6280   35.6160 O   0  0  0  0  0  0  0  0  0  0  0  0
   31.3800   27.5130   36.5370 C   0  0  0  0  0  0  0  0  0  0  0  0
   31.5380   28.7440   37.4050 C   0  0  2  0  0  0  0  0  0  0  0  0
   30.2950   30.3400   37.8830 H   0  0  0  0  0  0  0  0  0  0  0  0
   29.4120   30.5840   35.6650 H   0  0  0  0  0  0  0  0  0  0  0  0
   31.5270   28.8710   34.4260 H   0  0  0  0  0  0  0  0  0  0  0  0
   29.7750   28.9140   34.1380 H   0  0  0  0  0  0  0  0  0  0  0  0
   31.0970   26.6630   37.2080 H   0  0  0  0  0  0  0  0  0  0  0  0
   32.3390   27.2140   36.0670 H   0  0  0  0  0  0  0  0  0  0  0  0
   32.4370   29.3080   37.0840 H   0  0  0  0  0  0  0  0  0  0  0  0
   31.6170   28.3850   38.7650 O   0  0  0  0  0  0  0  0  0  0  0  0
   32.3370   27.7130   38.9130 H   0  0  0  0  0  0  0  0  0  0  0  0
  1  6  1  0  0  0  0
  1 20  1  0  0  0  0
  2  1  2  0  0  0  0
  3  4  2  0  0  0  0
  3  2  1  0  0  0  0
  4  5  1  0  0  0  0
  5 10  1  0  0  0  0
  5  6  2  0  0  0  0
  7  2  1  0  0  0  0
  8  3  1  0  0  0  0
  9 15  2  0  0  0  0
  9 10  1  0  0  0  0
 10 11  2  0  0  0  0
 11 13  1  0  0  0  0
 11 12  1  0  0  0  0
 13 19  1  0  0  0  0
 14 16  1  0  0  0  0
 14 13  2  0  0  0  0
 15 14  1  0  0  0  0
 16 17  1  0  0  0  0
 17 19  1  0  0  0  0
 17 18  1  0  0  0  0
 20 22  1  0  0  0  0
 21 26  1  0  0  0  0
 21 27  1  0  0  0  0
 22 28  1  6  0  0  0
 22 21  1  0  0  0  0
 23 24  1  0  0  0  0
 23 22  1  0  0  0  0
 24 25  1  0  0  0  0
 25 31  1  0  0  0  0
 25 26  1  0  0  0  0
 26 33  1  6  0  0  0
 26 34  1  0  0  0  0
 29 23  1  0  0  0  0
 30 23  1  0  0  0  0
 32 25  1  0  0  0  0
 34 35  1  0  0  0  0
M  END
>  <minimizedAffinity>
-5.51251364

$$$$
