
 OpenBabel03272510163D

 30 33  0  0  0  0  0  0  0  0999 V2000
   37.2090   29.6070   51.2600 Br  0  0  0  0  0  0  0  0  0  0  0  0
   36.0300   29.3410   49.7770 C   0  0  0  0  0  0  0  0  0  0  0  0
   36.1320   30.1310   48.6410 C   0  0  0  0  0  0  0  0  0  0  0  0
   35.2480   29.8760   47.6190 C   0  0  0  0  0  0  0  0  0  0  0  0
   34.2750   28.8890   47.6600 C   0  0  0  0  0  0  0  0  0  0  0  0
   34.2100   28.1330   48.8030 C   0  0  0  0  0  0  0  0  0  0  0  0
   35.0820   28.3610   49.8500 C   0  0  0  0  0  0  0  0  0  0  0  0
   35.3210   30.4890   46.7240 H   0  0  0  0  0  0  0  0  0  0  0  0
   33.4570   27.3500   48.8670 H   0  0  0  0  0  0  0  0  0  0  0  0
   34.9960   27.7330   50.7450 H   0  0  0  0  0  0  0  0  0  0  0  0
   33.8780   28.0090   45.4470 C   0  0  0  0  0  3  0  0  0  0  0  0
   33.3720   28.6730   46.5440 C   0  0  0  0  0  0  0  0  0  0  0  0
   32.0570   29.0940   46.5320 C   0  0  0  0  0  0  0  0  0  0  0  0
   31.6570   29.6080   47.3780 H   0  0  0  0  0  0  0  0  0  0  0  0
   31.2790   28.8420   45.4270 C   0  0  0  0  0  0  0  0  0  0  0  0
   31.7950   28.1700   44.3190 C   0  0  0  0  0  0  0  0  0  0  0  0
   33.1190   27.7340   44.3050 C   0  0  0  0  0  3  0  0  0  0  0  0
   30.8330   28.0230   43.3120 O   0  0  0  0  0  0  0  0  0  0  0  0
   29.6000   28.2510   44.0130 C   0  0  0  0  0  3  0  0  0  0  0  0
   28.8470   28.6780   43.3520 H   0  0  0  0  0  0  0  0  0  0  0  0
   29.9460   29.1160   45.0790 O   0  0  0  0  0  0  0  0  0  0  0  0
   37.9830   33.1790   49.3910 C   0  0  0  0  0  0  0  0  0  0  0  0
   39.0200   33.1920   48.4330 C   0  0  0  0  0  0  0  0  0  0  0  0
   39.0660   32.1370   47.5290 C   0  0  0  0  0  0  0  0  0  0  0  0
   38.1230   31.1390   47.5990 N   0  0  0  0  0  0  0  0  0  0  0  0
   37.1420   31.1810   48.5500 C   0  0  0  0  0  0  0  0  0  0  0  0
   37.0820   32.1940   49.4330 N   0  0  0  0  0  0  0  0  0  0  0  0
   37.9860   34.0180   50.0740 H   0  0  0  0  0  0  0  0  0  0  0  0
   39.7690   33.9700   48.3660 H   0  0  0  0  0  0  0  0  0  0  0  0
   39.8100   32.0370   46.7500 H   0  0  0  0  0  0  0  0  0  0  0  0
  2  7  1  0  0  0  0
  2  1  1  0  0  0  0
  3  2  2  0  0  0  0
  4  5  2  0  0  0  0
  4  3  1  0  0  0  0
  5  6  1  0  0  0  0
  6  9  1  0  0  0  0
  6  7  2  0  0  0  0
  7 10  1  0  0  0  0
  8  4  1  0  0  0  0
 11 12  1  0  0  0  0
 12  5  1  0  0  0  0
 13 12  2  0  0  0  0
 13 14  1  0  0  0  0
 15 13  1  0  0  0  0
 16 15  2  0  0  0  0
 17 16  1  0  0  0  0
 17 11  2  0  0  0  0
 18 19  1  0  0  0  0
 18 16  1  0  0  0  0
 19 21  1  0  0  0  0
 20 19  1  0  0  0  0
 21 15  1  0  0  0  0
 22 27  1  0  0  0  0
 22 28  1  0  0  0  0
 23 22  2  0  0  0  0
 24 25  2  0  0  0  0
 24 23  1  0  0  0  0
 25 26  1  0  0  0  0
 26  3  1  0  0  0  0
 26 27  2  0  0  0  0
 29 23  1  0  0  0  0
 30 24  1  0  0  0  0
M  END
>  <minimizedAffinity>
-6.05165911

>  <minimizedRMSD>
0.622666478

$$$$
