
 OpenBabel03272500373D

 38 41  0  0  1  0  0  0  0  0999 V2000
   37.2680   30.5480   49.2450 C   0  0  0  0  0  0  0  0  0  0  0  0
   37.3270   31.7470   49.9910 C   0  0  0  0  0  0  0  0  0  0  0  0
   37.9140   32.8640   49.3850 C   0  0  0  0  0  0  0  0  0  0  0  0
   38.3880   32.7110   48.1130 N   0  0  0  0  0  0  0  0  0  0  0  0
   38.3110   31.5400   47.4340 C   0  0  0  0  0  0  0  0  0  0  0  0
   37.7500   30.4740   48.0150 N   0  0  0  0  0  0  0  0  0  0  0  0
   38.8430   31.5020   46.1090 N   0  0  0  0  0  0  0  0  0  0  0  0
   40.2160   31.1340   45.9220 C   0  0  0  0  0  0  0  0  0  0  0  0
   40.7700   32.1510   44.9210 C   0  0  0  0  0  0  0  0  0  0  0  0
   40.0880   31.8040   43.6130 C   0  0  0  0  0  0  0  0  0  0  0  0
   38.6460   32.1740   43.7370 C   0  0  0  0  0  0  0  0  0  0  0  0
   37.9850   31.8350   45.0280 C   0  0  1  0  0  0  0  0  0  0  0  0
   36.9430   31.8500   51.0020 H   0  0  0  0  0  0  0  0  0  0  0  0
   37.9700   33.7780   49.9230 H   0  0  0  0  0  0  0  0  0  0  0  0
   40.3350   30.1270   45.4760 H   0  0  0  0  0  0  0  0  0  0  0  0
   40.8030   31.1350   46.8580 H   0  0  0  0  0  0  0  0  0  0  0  0
   40.5390   33.1830   45.2290 H   0  0  0  0  0  0  0  0  0  0  0  0
   41.8800   31.9740   44.8230 H   0  0  0  0  0  0  0  0  0  0  0  0
   40.2960   30.7680   43.3440 H   0  0  0  0  0  0  0  0  0  0  0  0
   40.5720   32.4450   42.8470 H   0  0  0  0  0  0  0  0  0  0  0  0
   38.0920   31.6400   42.9200 H   0  0  0  0  0  0  0  0  0  0  0  0
   38.5640   33.2610   43.4670 H   0  0  0  0  0  0  0  0  0  0  0  0
   37.4260   32.7630   45.3500 H   0  0  0  0  0  0  0  0  0  0  0  0
   36.9730   29.8500   43.8630 C   0  0  0  0  0  0  0  0  0  0  0  0
   36.9350   30.7940   44.8540 C   0  0  0  0  0  0  0  0  0  0  0  0
   35.8300   30.7170   45.7060 C   0  0  0  0  0  0  0  0  0  0  0  0
   35.7450   31.4510   46.5220 H   0  0  0  0  0  0  0  0  0  0  0  0
   34.8630   29.7490   45.5350 C   0  0  0  0  0  0  0  0  0  0  0  0
   34.9460   28.8150   44.5160 C   0  0  0  0  0  0  0  0  0  0  0  0
   36.0300   28.8800   43.6710 C   0  0  0  0  0  0  0  0  0  0  0  0
   33.8550   27.9670   44.5730 O   0  0  0  0  0  0  0  0  0  0  0  0
   32.8730   28.5920   45.3860 C   0  0  0  0  0  0  0  0  0  0  0  0
   32.1860   29.1440   44.7280 H   0  0  0  0  0  0  0  0  0  0  0  0
   33.6770   29.4280   46.2080 O   0  0  0  0  0  0  0  0  0  0  0  0
   36.6410   29.3580   49.8950 C   0  0  0  0  0  0  0  0  0  0  0  0
   35.8040   29.7760   50.9350 F   0  0  0  0  0  0  0  0  0  0  0  0
   36.0100   28.6280   48.9300 F   0  0  0  0  0  0  0  0  0  0  0  0
   37.6700   28.6240   50.4900 F   0  0  0  0  0  0  0  0  0  0  0  0
  1 35  1  0  0  0  0
  1  2  1  0  0  0  0
  2 13  1  0  0  0  0
  3 14  1  0  0  0  0
  3  2  2  0  0  0  0
  4  3  1  0  0  0  0
  5  6  1  0  0  0  0
  5  4  2  0  0  0  0
  6  1  2  0  0  0  0
  7  5  1  0  0  0  0
  8  7  1  0  0  0  0
  8 16  1  0  0  0  0
  9 17  1  0  0  0  0
  9  8  1  0  0  0  0
 10 11  1  0  0  0  0
 10  9  1  0  0  0  0
 11 12  1  0  0  0  0
 12 23  1  1  0  0  0
 12  7  1  0  0  0  0
 15  8  1  0  0  0  0
 18  9  1  0  0  0  0
 19 10  1  0  0  0  0
 20 10  1  0  0  0  0
 21 11  1  0  0  0  0
 22 11  1  0  0  0  0
 24 25  1  0  0  0  0
 25 12  1  0  0  0  0
 25 26  2  0  0  0  0
 26 27  1  0  0  0  0
 28 26  1  0  0  0  0
 28 34  1  0  0  0  0
 29 31  1  0  0  0  0
 29 28  2  0  0  0  0
 30 24  2  0  0  0  0
 30 29  1  0  0  0  0
 31 32  1  0  0  0  0
 32 34  1  0  0  0  0
 33 32  1  0  0  0  0
 35 38  1  0  0  0  0
 35 36  1  0  0  0  0
 37 35  1  0  0  0  0
M  END
>  <minimizedAffinity>
-6.71366453

>  <minimizedRMSD>
1.20558202

$$$$
