
 OpenBabel03272507323D

 38 42  0  0  1  0  0  0  0  0999 V2000
   33.0520   27.7650   48.5080 C   0  0  0  0  0  0  0  0  0  0  0  0
   31.9210   27.5630   49.0490 O   0  0  0  0  0  0  0  0  0  0  0  0
   35.9820   29.3390   49.8190 C   0  0  0  0  0  0  0  0  0  0  0  0
   35.0480   29.9130   50.6510 C   0  0  0  0  0  0  0  0  0  0  0  0
   33.7910   29.4070   50.2830 C   0  0  0  0  0  0  0  0  0  0  0  0
   34.0500   28.5460   49.2350 C   0  0  0  0  0  0  0  0  0  0  0  0
   35.3450   28.5390   49.0000 O   0  0  0  0  0  0  0  0  0  0  0  0
   35.1510   30.6300   51.4670 H   0  0  0  0  0  0  0  0  0  0  0  0
   32.8170   29.6150   50.6940 H   0  0  0  0  0  0  0  0  0  0  0  0
   37.4020   29.6410   49.9230 C   0  0  0  0  0  0  0  0  0  0  0  0
   38.0930   29.0220   50.7440 O   0  0  0  0  0  0  0  0  0  0  0  0
   37.9190   30.6560   49.0490 C   0  0  0  0  0  0  0  0  0  0  0  0
   38.2480   31.8720   49.6200 C   0  0  0  0  0  0  0  0  0  0  0  0
   38.7520   32.8850   48.7950 C   0  0  0  0  0  0  0  0  0  0  0  0
   38.8920   32.6130   47.4560 N   0  0  0  0  0  0  0  0  0  0  0  0
   38.5650   31.4280   46.9400 C   0  0  0  0  0  0  0  0  0  0  0  0
   38.0810   30.4530   47.7240 N   0  0  0  0  0  0  0  0  0  0  0  0
   38.1430   32.0980   50.6630 H   0  0  0  0  0  0  0  0  0  0  0  0
   39.0130   33.8410   49.2370 H   0  0  0  0  0  0  0  0  0  0  0  0
   38.6710   31.2040   45.8870 H   0  0  0  0  0  0  0  0  0  0  0  0
   33.3500   27.2080   47.1630 C   0  0  1  0  0  0  0  0  0  0  0  0
   32.6230   25.8200   46.9530 C   0  0  0  0  0  0  0  0  0  0  0  0
   32.3210   26.9970   46.1420 C   0  0  1  0  0  0  0  0  0  0  0  0
   34.4420   27.0520   46.9990 H   0  0  0  0  0  0  0  0  0  0  0  0
   33.2410   25.0090   46.5200 H   0  0  0  0  0  0  0  0  0  0  0  0
   31.9980   25.4620   47.7770 H   0  0  0  0  0  0  0  0  0  0  0  0
   32.7750   27.0140   45.0960 H   0  0  0  0  0  0  0  0  0  0  0  0
   30.9490   29.0050   45.9000 C   0  0  0  0  0  3  0  0  0  0  0  0
   30.9870   27.6350   46.1670 C   0  0  0  0  0  0  0  0  0  0  0  0
   29.7650   27.0470   46.4050 C   0  0  0  0  0  0  0  0  0  0  0  0
   29.7760   25.9930   46.6010 H   0  0  0  0  0  0  0  0  0  0  0  0
   28.5960   27.7800   46.3780 C   0  0  0  0  0  0  0  0  0  0  0  0
   28.5640   29.1210   46.1160 C   0  0  0  0  0  0  0  0  0  0  0  0
   29.7650   29.7510   45.8710 C   0  0  0  0  0  3  0  0  0  0  0  0
   27.2530   29.5630   46.1610 O   0  0  0  0  0  0  0  0  0  0  0  0
   26.4380   28.4060   46.1540 C   0  0  0  0  0  3  0  0  0  0  0  0
   25.6320   28.5450   46.8790 H   0  0  0  0  0  0  0  0  0  0  0  0
   27.2830   27.3440   46.5960 O   0  0  0  0  0  0  0  0  0  0  0  0
  1  2  2  0  0  0  0
  1  6  1  0  0  0  0
  3 10  1  0  0  0  0
  3  4  2  0  0  0  0
  4  8  1  0  0  0  0
  5  4  1  0  0  0  0
  5  9  1  0  0  0  0
  6  5  2  0  0  0  0
  7  6  1  0  0  0  0
  7  3  1  0  0  0  0
 10 11  2  0  0  0  0
 12 13  1  0  0  0  0
 12 10  1  0  0  0  0
 13 18  1  0  0  0  0
 14 19  1  0  0  0  0
 14 13  2  0  0  0  0
 15 14  1  0  0  0  0
 16 15  2  0  0  0  0
 16 17  1  0  0  0  0
 17 12  2  0  0  0  0
 20 16  1  0  0  0  0
 21 24  1  6  0  0  0
 21  1  1  0  0  0  0
 22 21  1  0  0  0  0
 22 26  1  0  0  0  0
 23 27  1  6  0  0  0
 23 29  1  0  0  0  0
 23 22  1  0  0  0  0
 23 21  1  0  0  0  0
 25 22  1  0  0  0  0
 28 29  1  0  0  0  0
 29 30  2  0  0  0  0
 30 31  1  0  0  0  0
 32 30  1  0  0  0  0
 32 38  1  0  0  0  0
 33 35  1  0  0  0  0
 33 32  2  0  0  0  0
 34 28  2  0  0  0  0
 34 33  1  0  0  0  0
 36 35  1  0  0  0  0
 36 38  1  0  0  0  0
 36 37  1  0  0  0  0
M  END
>  <minimizedAffinity>
-5.75245333

>  <minimizedRMSD>
2.18445492

$$$$
