
 OpenBabel03272500483D

 41 46  0  0  1  0  0  0  0  0999 V2000
   32.2360   27.6550   47.9290 C   0  0  1  0  0  0  0  0  0  0  0  0
   33.1640   26.5500   47.3170 C   0  0  0  0  0  0  0  0  0  0  0  0
   32.9730   27.8740   46.6710 C   0  0  2  0  0  0  0  0  0  0  0  0
   32.6420   28.1250   48.8360 H   0  0  0  0  0  0  0  0  0  0  0  0
   32.6130   25.6730   46.9380 H   0  0  0  0  0  0  0  0  0  0  0  0
   34.1090   26.3580   47.8800 H   0  0  0  0  0  0  0  0  0  0  0  0
   32.3780   27.8920   45.7580 H   0  0  0  0  0  0  0  0  0  0  0  0
   28.6520   27.5810   48.3120 C   0  0  0  0  0  0  0  0  0  0  0  0
   28.8260   26.5340   47.4370 C   0  0  0  0  0  0  0  0  0  0  0  0
   30.2060   26.4110   47.1660 C   0  0  0  0  0  0  0  0  0  0  0  0
   30.8120   27.3800   47.8810 N   0  0  0  0  0  0  0  0  0  0  0  0
   29.8780   28.0390   48.5330 N   0  0  0  0  0  0  0  0  0  0  0  0
   28.0760   25.8800   46.9980 H   0  0  0  0  0  0  0  0  0  0  0  0
   30.6620   25.6690   46.5050 H   0  0  0  0  0  0  0  0  0  0  0  0
   27.0080   27.9260   50.1870 C   0  0  0  0  0  0  0  0  0  0  0  0
   27.3770   28.0110   48.8190 C   0  0  0  0  0  0  0  0  0  0  0  0
   26.4340   28.5410   47.9440 C   0  0  0  0  0  0  0  0  0  0  0  0
   25.2360   28.9400   48.4480 N   0  0  0  0  0  0  0  0  0  0  0  0
   24.9300   28.8420   49.7460 C   0  0  0  0  0  0  0  0  0  0  0  0
   25.8250   28.3260   50.6410 N   0  0  0  0  0  0  0  0  0  0  0  0
   27.7810   27.5030   50.8330 H   0  0  0  0  0  0  0  0  0  0  0  0
   26.6780   28.6220   46.8950 H   0  0  0  0  0  0  0  0  0  0  0  0
   23.9940   29.1450   50.1770 H   0  0  0  0  0  0  0  0  0  0  0  0
   34.1110   28.8580   46.6550 C   0  0  0  0  0  0  0  0  0  0  0  0
   34.7170   29.3180   45.4770 C   0  0  0  0  0  0  0  0  0  0  0  0
   35.7000   30.1820   45.8460 N   0  0  0  0  0  0  0  0  0  0  0  0
   35.7090   30.2610   47.2050 C   0  0  0  0  0  0  0  0  0  0  0  0
   34.7380   29.4520   47.7040 N   0  0  0  0  0  0  0  0  0  0  0  0
   34.4640   29.0470   44.4590 H   0  0  0  0  0  0  0  0  0  0  0  0
   36.3080   30.6700   45.1580 H   0  0  0  0  0  0  0  0  0  0  0  0
   36.4700   31.1420   49.3460 C   0  0  0  0  0  0  0  0  0  0  0  0
   36.6260   31.0910   47.9780 C   0  0  0  0  0  0  0  0  0  0  0  0
   37.6160   31.7940   47.3280 C   0  0  0  0  0  0  0  0  0  0  0  0
   37.7460   31.7590   46.2470 H   0  0  0  0  0  0  0  0  0  0  0  0
   38.4930   32.5850   48.0450 C   0  0  0  0  0  0  0  0  0  0  0  0
   38.3020   32.6090   49.4140 C   0  0  0  0  0  0  0  0  0  0  0  0
   37.3190   31.9150   50.1110 C   0  0  0  0  0  0  0  0  0  0  0  0
   39.2940   33.4640   49.9290 O   0  0  0  0  0  0  0  0  0  0  0  0
   39.7650   34.3100   48.8800 C   0  0  0  0  0  0  0  0  0  0  0  0
   40.8050   34.6170   48.9990 H   0  0  0  0  0  0  0  0  0  0  0  0
   39.5890   33.4210   47.7670 O   0  0  0  0  0  0  0  0  0  0  0  0
  1  4  1  1  0  0  0
  2  6  1  0  0  0  0
  2  1  1  0  0  0  0
  3  7  1  6  0  0  0
  3  2  1  0  0  0  0
  3  1  1  0  0  0  0
  5  2  1  0  0  0  0
  8 12  2  0  0  0  0
  8 16  1  0  0  0  0
  9  8  1  0  0  0  0
 10  9  2  0  0  0  0
 10 11  1  0  0  0  0
 11  1  1  0  0  0  0
 11 12  1  0  0  0  0
 13  9  1  0  0  0  0
 14 10  1  0  0  0  0
 15 20  1  0  0  0  0
 15 21  1  0  0  0  0
 16 15  2  0  0  0  0
 17 18  2  0  0  0  0
 17 16  1  0  0  0  0
 18 19  1  0  0  0  0
 19 23  1  0  0  0  0
 19 20  2  0  0  0  0
 22 17  1  0  0  0  0
 24  3  1  0  0  0  0
 24 28  1  0  0  0  0
 25 26  1  0  0  0  0
 25 24  2  0  0  0  0
 26 27  1  0  0  0  0
 27 28  2  0  0  0  0
 27 32  1  0  0  0  0
 29 25  1  0  0  0  0
 30 26  1  0  0  0  0
 31 37  1  0  0  0  0
 32 31  2  0  0  0  0
 33 32  1  0  0  0  0
 33 35  2  0  0  0  0
 34 33  1  0  0  0  0
 35 36  1  0  0  0  0
 36 38  1  0  0  0  0
 36 37  2  0  0  0  0
 39 40  1  0  0  0  0
 39 38  1  0  0  0  0
 41 35  1  0  0  0  0
 41 39  1  0  0  0  0
M  END
>  <minimizedAffinity>
-6.83701515

>  <minimizedRMSD>
5.59239817

$$$$
