
 OpenBabel03272505353D

 37 40  0  0  1  0  0  0  0  0999 V2000
   37.8980   26.0570   34.9000 C   0  0  0  0  0  0  0  0  0  0  0  0
   37.2520   27.2800   34.7650 C   0  0  0  0  0  0  0  0  0  0  0  0
   37.0400   27.7740   33.4560 C   0  0  0  0  0  0  0  0  0  0  0  0
   37.4890   27.0110   32.4000 N   0  0  0  0  0  0  0  0  0  0  0  0
   38.1040   25.8420   32.5930 C   0  0  0  0  0  0  0  0  0  0  0  0
   38.3070   25.3700   33.8220 N   0  0  0  0  0  0  0  0  0  0  0  0
   38.5250   25.1360   31.4380 N   0  0  0  0  0  0  0  0  0  0  0  0
   39.8600   25.3590   30.9070 C   0  0  0  0  0  0  0  0  0  0  0  0
   39.8620   25.4560   29.4050 C   0  0  0  0  0  0  0  0  0  0  0  0
   39.0720   24.4300   28.7780 N   0  0  0  0  0  0  0  0  0  0  0  0
   38.5130   23.4800   29.6990 C   0  0  0  0  0  0  0  0  0  0  0  0
   37.6630   24.1800   30.7490 C   0  0  1  0  0  0  0  0  0  0  0  0
   36.9230   27.8330   35.6320 H   0  0  0  0  0  0  0  0  0  0  0  0
   36.5410   28.7220   33.3040 H   0  0  0  0  0  0  0  0  0  0  0  0
   40.2810   26.3120   31.2920 H   0  0  0  0  0  0  0  0  0  0  0  0
   40.4850   24.5000   31.2260 H   0  0  0  0  0  0  0  0  0  0  0  0
   40.9270   25.2520   29.0980 H   0  0  0  0  0  0  0  0  0  0  0  0
   39.6510   26.4740   29.0300 H   0  0  0  0  0  0  0  0  0  0  0  0
   38.2530   24.9180   28.3190 H   0  0  0  0  0  0  0  0  0  0  0  0
   37.9120   22.7630   29.1240 H   0  0  0  0  0  0  0  0  0  0  0  0
   39.3510   22.9340   30.1880 H   0  0  0  0  0  0  0  0  0  0  0  0
   36.8820   24.7250   30.1790 H   0  0  0  0  0  0  0  0  0  0  0  0
   35.8850   22.5350   31.3150 C   0  0  0  0  0  3  0  0  0  0  0  0
   37.0390   23.1990   31.6470 C   0  0  0  0  0  0  0  0  0  0  0  0
   37.5800   22.8810   32.8890 C   0  0  0  0  0  0  0  0  0  0  0  0
   38.4970   23.3910   33.1820 H   0  0  0  0  0  0  0  0  0  0  0  0
   36.9990   21.9650   33.7270 C   0  0  0  0  0  0  0  0  0  0  0  0
   35.8250   21.3090   33.3570 C   0  0  0  0  0  0  0  0  0  0  0  0
   35.2600   21.5970   32.1360 C   0  0  0  0  0  3  0  0  0  0  0  0
   35.4880   20.4580   34.3970 O   0  0  0  0  0  0  0  0  0  0  0  0
   36.1820   20.8660   35.5700 C   0  0  0  0  0  3  0  0  0  0  0  0
   35.6200   21.6320   36.1260 H   0  0  0  0  0  0  0  0  0  0  0  0
   37.3240   21.4750   34.9910 O   0  0  0  0  0  0  0  0  0  0  0  0
   38.1240   25.5300   36.2790 C   0  0  0  0  0  0  0  0  0  0  0  0
   37.0130   24.7810   36.6780 F   0  0  0  0  0  0  0  0  0  0  0  0
   39.2790   24.8250   36.2870 F   0  0  0  0  0  0  0  0  0  0  0  0
   38.1570   26.6270   37.1350 F   0  0  0  0  0  0  0  0  0  0  0  0
  1 34  1  0  0  0  0
  2  1  1  0  0  0  0
  2 13  1  0  0  0  0
  3  2  2  0  0  0  0
  4  5  2  0  0  0  0
  4  3  1  0  0  0  0
  5  6  1  0  0  0  0
  6  1  2  0  0  0  0
  7  5  1  0  0  0  0
  8 16  1  0  0  0  0
  8 15  1  0  0  0  0
  8  7  1  0  0  0  0
  9  8  1  0  0  0  0
 10  9  1  0  0  0  0
 10 11  1  0  0  0  0
 11 21  1  0  0  0  0
 11 12  1  0  0  0  0
 12 22  1  6  0  0  0
 12  7  1  0  0  0  0
 12 24  1  0  0  0  0
 14  3  1  0  0  0  0
 17  9  1  0  0  0  0
 18  9  1  0  0  0  0
 19 10  1  0  0  0  0
 20 11  1  0  0  0  0
 23 24  2  0  0  0  0
 23 29  1  0  0  0  0
 24 25  1  0  0  0  0
 25 26  1  0  0  0  0
 25 27  2  0  0  0  0
 27 33  1  0  0  0  0
 28 27  1  0  0  0  0
 28 30  1  0  0  0  0
 29 28  2  0  0  0  0
 30 31  1  0  0  0  0
 31 32  1  0  0  0  0
 33 31  1  0  0  0  0
 34 36  1  0  0  0  0
 34 35  1  0  0  0  0
 34 37  1  0  0  0  0
M  END
>  <minimizedAffinity>
-6.03086329

$$$$

 OpenBabel03272505353D

 37 40  0  0  1  0  0  0  0  0999 V2000
   38.5600   22.5900   34.7030 C   0  0  0  0  0  0  0  0  0  0  0  0
   38.6720   22.1650   36.0220 C   0  0  0  0  0  0  0  0  0  0  0  0
   39.6560   22.7780   36.8330 C   0  0  0  0  0  0  0  0  0  0  0  0
   40.4420   23.7560   36.2630 N   0  0  0  0  0  0  0  0  0  0  0  0
   40.2880   24.1230   34.9890 C   0  0  0  0  0  0  0  0  0  0  0  0
   39.3630   23.5510   34.2190 N   0  0  0  0  0  0  0  0  0  0  0  0
   41.1470   25.1390   34.5020 N   0  0  0  0  0  0  0  0  0  0  0  0
   42.4130   24.7750   33.8850 C   0  0  0  0  0  0  0  0  0  0  0  0
   43.5350   25.6770   34.3250 C   0  0  0  0  0  0  0  0  0  0  0  0
   43.1740   27.0690   34.3040 N   0  0  0  0  0  0  0  0  0  0  0  0
   41.8550   27.3220   33.7950 C   0  0  0  0  0  0  0  0  0  0  0  0
   40.8110   26.5570   34.5930 C   0  0  1  0  0  0  0  0  0  0  0  0
   38.0260   21.3920   36.4120 H   0  0  0  0  0  0  0  0  0  0  0  0
   39.7770   22.4770   37.8660 H   0  0  0  0  0  0  0  0  0  0  0  0
   42.7020   23.7400   34.1650 H   0  0  0  0  0  0  0  0  0  0  0  0
   42.2760   24.8590   32.7870 H   0  0  0  0  0  0  0  0  0  0  0  0
   44.3340   25.5570   33.5390 H   0  0  0  0  0  0  0  0  0  0  0  0
   44.0150   25.3540   35.2660 H   0  0  0  0  0  0  0  0  0  0  0  0
   43.1730   27.3960   35.3100 H   0  0  0  0  0  0  0  0  0  0  0  0
   41.6720   28.4040   33.8480 H   0  0  0  0  0  0  0  0  0  0  0  0
   41.8270   27.0050   32.7270 H   0  0  0  0  0  0  0  0  0  0  0  0
   40.9320   26.9020   35.6420 H   0  0  0  0  0  0  0  0  0  0  0  0
   38.4250   27.1550   34.9700 C   0  0  0  0  0  3  0  0  0  0  0  0
   39.4590   26.8720   34.1120 C   0  0  0  0  0  0  0  0  0  0  0  0
   39.1420   26.9030   32.7570 C   0  0  0  0  0  0  0  0  0  0  0  0
   39.9410   26.6820   32.0510 H   0  0  0  0  0  0  0  0  0  0  0  0
   37.8810   27.1980   32.3080 C   0  0  0  0  0  0  0  0  0  0  0  0
   36.8550   27.4810   33.2090 C   0  0  0  0  0  0  0  0  0  0  0  0
   37.1290   27.4600   34.5570 C   0  0  0  0  0  3  0  0  0  0  0  0
   35.7160   27.7350   32.4620 O   0  0  0  0  0  0  0  0  0  0  0  0
   35.8990   27.2160   31.1500 C   0  0  0  0  0  3  0  0  0  0  0  0
   35.6010   26.1580   31.0890 H   0  0  0  0  0  0  0  0  0  0  0  0
   37.3100   27.2940   31.0400 O   0  0  0  0  0  0  0  0  0  0  0  0
   37.5230   21.9480   33.8420 C   0  0  0  0  0  0  0  0  0  0  0  0
   38.1330   21.0130   33.0000 F   0  0  0  0  0  0  0  0  0  0  0  0
   36.5700   21.4140   34.6400 F   0  0  0  0  0  0  0  0  0  0  0  0
   37.0260   22.9370   32.9970 F   0  0  0  0  0  0  0  0  0  0  0  0
  1  2  1  0  0  0  0
  2 13  1  0  0  0  0
  2  3  2  0  0  0  0
  3 14  1  0  0  0  0
  4  3  1  0  0  0  0
  5  4  2  0  0  0  0
  6  1  2  0  0  0  0
  6  5  1  0  0  0  0
  7 12  1  0  0  0  0
  7  5  1  0  0  0  0
  8 15  1  0  0  0  0
  8  9  1  0  0  0  0
  8  7  1  0  0  0  0
  9 18  1  0  0  0  0
 10  9  1  0  0  0  0
 10 19  1  0  0  0  0
 11 20  1  0  0  0  0
 11 10  1  0  0  0  0
 11 12  1  0  0  0  0
 12 22  1  1  0  0  0
 16  8  1  0  0  0  0
 17  9  1  0  0  0  0
 21 11  1  0  0  0  0
 24 12  1  0  0  0  0
 24 23  2  0  0  0  0
 25 24  1  0  0  0  0
 26 25  1  0  0  0  0
 27 25  2  0  0  0  0
 27 28  1  0  0  0  0
 28 29  2  0  0  0  0
 29 23  1  0  0  0  0
 30 28  1  0  0  0  0
 31 30  1  0  0  0  0
 32 31  1  0  0  0  0
 33 31  1  0  0  0  0
 33 27  1  0  0  0  0
 34 36  1  0  0  0  0
 34  1  1  0  0  0  0
 35 34  1  0  0  0  0
 37 34  1  0  0  0  0
M  END
>  <minimizedAffinity>
-5.94261169

$$$$

 OpenBabel03272505353D

 37 40  0  0  1  0  0  0  0  0999 V2000
   36.5610   21.5520   32.3160 C   0  0  0  0  0  0  0  0  0  0  0  0
   37.2530   20.9780   31.2560 C   0  0  0  0  0  0  0  0  0  0  0  0
   38.0400   21.8280   30.4440 C   0  0  0  0  0  0  0  0  0  0  0  0
   38.0700   23.1700   30.7550 N   0  0  0  0  0  0  0  0  0  0  0  0
   37.3830   23.6640   31.7870 C   0  0  0  0  0  0  0  0  0  0  0  0
   36.6400   22.8700   32.5570 N   0  0  0  0  0  0  0  0  0  0  0  0
   37.4830   25.0580   32.0210 N   0  0  0  0  0  0  0  0  0  0  0  0
   36.5290   25.9610   31.3980 C   0  0  0  0  0  0  0  0  0  0  0  0
   37.1930   27.2000   30.8580 C   0  0  0  0  0  0  0  0  0  0  0  0
   38.1330   27.7780   31.7810 N   0  0  0  0  0  0  0  0  0  0  0  0
   38.1880   27.1090   33.0520 C   0  0  0  0  0  0  0  0  0  0  0  0
   38.5180   25.6350   32.8750 C   0  0  1  0  0  0  0  0  0  0  0  0
   37.1910   19.9180   31.0620 H   0  0  0  0  0  0  0  0  0  0  0  0
   38.5960   21.4230   29.6070 H   0  0  0  0  0  0  0  0  0  0  0  0
   36.0230   25.4670   30.5420 H   0  0  0  0  0  0  0  0  0  0  0  0
   35.7910   26.2440   32.1770 H   0  0  0  0  0  0  0  0  0  0  0  0
   36.3640   27.9560   30.7530 H   0  0  0  0  0  0  0  0  0  0  0  0
   37.5910   27.0740   29.8350 H   0  0  0  0  0  0  0  0  0  0  0  0
   39.0900   27.6670   31.3450 H   0  0  0  0  0  0  0  0  0  0  0  0
   38.9490   27.6090   33.6650 H   0  0  0  0  0  0  0  0  0  0  0  0
   37.1970   27.2220   33.5480 H   0  0  0  0  0  0  0  0  0  0  0  0
   39.4930   25.6150   32.3440 H   0  0  0  0  0  0  0  0  0  0  0  0
   37.8330   25.2960   35.2420 C   0  0  0  0  0  3  0  0  0  0  0  0
   38.6400   24.9720   34.1800 C   0  0  0  0  0  0  0  0  0  0  0  0
   39.5810   23.9750   34.4210 C   0  0  0  0  0  0  0  0  0  0  0  0
   40.2370   23.6960   33.5970 H   0  0  0  0  0  0  0  0  0  0  0  0
   39.6950   23.3560   35.6390 C   0  0  0  0  0  0  0  0  0  0  0  0
   38.8570   23.7100   36.6960 C   0  0  0  0  0  0  0  0  0  0  0  0
   37.9140   24.6920   36.4970 C   0  0  0  0  0  3  0  0  0  0  0  0
   39.2100   22.9210   37.7780 O   0  0  0  0  0  0  0  0  0  0  0  0
   40.5080   22.3810   37.5520 C   0  0  0  0  0  3  0  0  0  0  0  0
   41.2960   23.0660   37.9000 H   0  0  0  0  0  0  0  0  0  0  0  0
   40.5280   22.3550   36.1340 O   0  0  0  0  0  0  0  0  0  0  0  0
   35.7290   20.6610   33.1780 C   0  0  0  0  0  0  0  0  0  0  0  0
   36.1480   19.3370   33.0170 F   0  0  0  0  0  0  0  0  0  0  0  0
   35.8070   21.1000   34.4550 F   0  0  0  0  0  0  0  0  0  0  0  0
   34.4320   20.7020   32.6730 F   0  0  0  0  0  0  0  0  0  0  0  0
  1  6  1  0  0  0  0
  1 34  1  0  0  0  0
  2  1  2  0  0  0  0
  3  4  2  0  0  0  0
  3  2  1  0  0  0  0
  4  5  1  0  0  0  0
  5  7  1  0  0  0  0
  5  6  2  0  0  0  0
  7 12  1  0  0  0  0
  8  7  1  0  0  0  0
  8 16  1  0  0  0  0
  9  8  1  0  0  0  0
  9 10  1  0  0  0  0
 10 11  1  0  0  0  0
 11 21  1  0  0  0  0
 11 20  1  0  0  0  0
 12 22  1  6  0  0  0
 12 11  1  0  0  0  0
 12 24  1  0  0  0  0
 13  2  1  0  0  0  0
 14  3  1  0  0  0  0
 15  8  1  0  0  0  0
 17  9  1  0  0  0  0
 18  9  1  0  0  0  0
 19 10  1  0  0  0  0
 23 29  1  0  0  0  0
 24 25  1  0  0  0  0
 24 23  2  0  0  0  0
 25 27  2  0  0  0  0
 26 25  1  0  0  0  0
 27 33  1  0  0  0  0
 27 28  1  0  0  0  0
 28 30  1  0  0  0  0
 29 28  2  0  0  0  0
 31 30  1  0  0  0  0
 31 32  1  0  0  0  0
 33 31  1  0  0  0  0
 34 36  1  0  0  0  0
 35 34  1  0  0  0  0
 37 34  1  0  0  0  0
M  END
>  <minimizedAffinity>
-5.92943811

$$$$

 OpenBabel03272505353D

 37 40  0  0  1  0  0  0  0  0999 V2000
   38.6900   24.7190   35.1960 C   0  0  0  0  0  0  0  0  0  0  0  0
   40.0230   24.3270   35.2460 C   0  0  0  0  0  0  0  0  0  0  0  0
   40.4120   23.2070   34.4740 C   0  0  0  0  0  0  0  0  0  0  0  0
   39.4440   22.5760   33.7230 N   0  0  0  0  0  0  0  0  0  0  0  0
   38.1780   22.9980   33.7150 C   0  0  0  0  0  0  0  0  0  0  0  0
   37.8040   24.0520   34.4390 N   0  0  0  0  0  0  0  0  0  0  0  0
   37.2630   22.2780   32.9070 N   0  0  0  0  0  0  0  0  0  0  0  0
   36.5240   21.1630   33.4770 C   0  0  0  0  0  0  0  0  0  0  0  0
   36.4570   19.9910   32.5360 C   0  0  0  0  0  0  0  0  0  0  0  0
   36.1250   20.3740   31.1890 N   0  0  0  0  0  0  0  0  0  0  0  0
   35.8480   21.7750   31.0330 C   0  0  0  0  0  0  0  0  0  0  0  0
   37.0250   22.6150   31.5060 C   0  0  1  0  0  0  0  0  0  0  0  0
   40.7360   24.8630   35.8550 H   0  0  0  0  0  0  0  0  0  0  0  0
   41.4390   22.8670   34.4840 H   0  0  0  0  0  0  0  0  0  0  0  0
   37.0150   20.8030   34.4060 H   0  0  0  0  0  0  0  0  0  0  0  0
   35.4990   21.5270   33.6930 H   0  0  0  0  0  0  0  0  0  0  0  0
   35.5880   19.3710   32.8990 H   0  0  0  0  0  0  0  0  0  0  0  0
   37.3310   19.3190   32.6060 H   0  0  0  0  0  0  0  0  0  0  0  0
   36.9790   20.1720   30.5990 H   0  0  0  0  0  0  0  0  0  0  0  0
   35.6350   21.9630   29.9720 H   0  0  0  0  0  0  0  0  0  0  0  0
   34.9400   22.0190   31.6300 H   0  0  0  0  0  0  0  0  0  0  0  0
   37.8880   22.2840   30.8910 H   0  0  0  0  0  0  0  0  0  0  0  0
   35.5030   24.5790   31.3730 C   0  0  0  0  0  3  0  0  0  0  0  0
   36.7630   24.0430   31.2820 C   0  0  0  0  0  0  0  0  0  0  0  0
   37.7770   24.9420   30.9620 C   0  0  0  0  0  0  0  0  0  0  0  0
   38.7890   24.5470   30.8820 H   0  0  0  0  0  0  0  0  0  0  0  0
   37.5340   26.2750   30.7530 C   0  0  0  0  0  0  0  0  0  0  0  0
   36.2390   26.7840   30.8540 C   0  0  0  0  0  0  0  0  0  0  0  0
   35.2100   25.9270   31.1680 C   0  0  0  0  0  3  0  0  0  0  0  0
   36.3140   28.1420   30.5920 O   0  0  0  0  0  0  0  0  0  0  0  0
   37.5430   28.4170   29.9270 C   0  0  0  0  0  3  0  0  0  0  0  0
   37.4480   28.2960   28.8370 H   0  0  0  0  0  0  0  0  0  0  0  0
   38.3440   27.3610   30.4300 O   0  0  0  0  0  0  0  0  0  0  0  0
   38.2730   25.9000   36.0080 C   0  0  0  0  0  0  0  0  0  0  0  0
   37.0930   26.4330   35.4800 F   0  0  0  0  0  0  0  0  0  0  0  0
   38.1600   25.5170   37.3010 F   0  0  0  0  0  0  0  0  0  0  0  0
   39.2390   26.8850   35.8210 F   0  0  0  0  0  0  0  0  0  0  0  0
  1  2  1  0  0  0  0
  1 34  1  0  0  0  0
  2 13  1  0  0  0  0
  3 14  1  0  0  0  0
  3  2  2  0  0  0  0
  4  3  1  0  0  0  0
  5  4  2  0  0  0  0
  5  6  1  0  0  0  0
  6  1  2  0  0  0  0
  7  8  1  0  0  0  0
  7  5  1  0  0  0  0
  8 16  1  0  0  0  0
  8 15  1  0  0  0  0
  9 18  1  0  0  0  0
  9 17  1  0  0  0  0
  9  8  1  0  0  0  0
 10  9  1  0  0  0  0
 11 10  1  0  0  0  0
 11 12  1  0  0  0  0
 11 21  1  0  0  0  0
 12 22  1  6  0  0  0
 12  7  1  0  0  0  0
 19 10  1  0  0  0  0
 20 11  1  0  0  0  0
 24 23  1  0  0  0  0
 24 12  1  0  0  0  0
 25 24  2  0  0  0  0
 26 25  1  0  0  0  0
 27 28  2  0  0  0  0
 27 25  1  0  0  0  0
 28 29  1  0  0  0  0
 29 23  2  0  0  0  0
 30 28  1  0  0  0  0
 31 33  1  0  0  0  0
 31 30  1  0  0  0  0
 32 31  1  0  0  0  0
 33 27  1  0  0  0  0
 34 36  1  0  0  0  0
 35 34  1  0  0  0  0
 37 34  1  0  0  0  0
M  END
>  <minimizedAffinity>
-5.87959766

$$$$

 OpenBabel03272505353D

 37 40  0  0  1  0  0  0  0  0999 V2000
   36.5660   21.4230   32.3660 C   0  0  0  0  0  0  0  0  0  0  0  0
   37.1540   20.8050   31.2690 C   0  0  0  0  0  0  0  0  0  0  0  0
   37.9620   21.5950   30.4190 C   0  0  0  0  0  0  0  0  0  0  0  0
   38.1140   22.9280   30.7320 N   0  0  0  0  0  0  0  0  0  0  0  0
   37.5230   23.4680   31.8010 C   0  0  0  0  0  0  0  0  0  0  0  0
   36.7610   22.7300   32.6060 N   0  0  0  0  0  0  0  0  0  0  0  0
   37.7460   24.8480   32.0330 N   0  0  0  0  0  0  0  0  0  0  0  0
   36.8350   25.8280   31.4640 C   0  0  0  0  0  0  0  0  0  0  0  0
   37.5650   27.0140   30.8930 C   0  0  0  0  0  0  0  0  0  0  0  0
   38.5950   27.5090   31.7670 N   0  0  0  0  0  0  0  0  0  0  0  0
   38.6640   26.8300   33.0300 C   0  0  0  0  0  0  0  0  0  0  0  0
   38.8670   25.3350   32.8320 C   0  0  1  0  0  0  0  0  0  0  0  0
   36.9970   19.7530   31.0750 H   0  0  0  0  0  0  0  0  0  0  0  0
   38.4390   21.1540   29.5530 H   0  0  0  0  0  0  0  0  0  0  0  0
   36.2470   25.3810   30.6340 H   0  0  0  0  0  0  0  0  0  0  0  0
   36.1630   26.1620   32.2820 H   0  0  0  0  0  0  0  0  0  0  0  0
   36.7940   27.8340   30.8350 H   0  0  0  0  0  0  0  0  0  0  0  0
   37.8980   26.8650   29.8500 H   0  0  0  0  0  0  0  0  0  0  0  0
   39.5160   27.3270   31.2800 H   0  0  0  0  0  0  0  0  0  0  0  0
   39.4940   27.2640   33.6040 H   0  0  0  0  0  0  0  0  0  0  0  0
   37.7120   27.0170   33.5790 H   0  0  0  0  0  0  0  0  0  0  0  0
   39.8080   25.2420   32.2500 H   0  0  0  0  0  0  0  0  0  0  0  0
   39.8810   23.6170   34.3170 C   0  0  0  0  0  3  0  0  0  0  0  0
   39.0040   24.6560   34.1270 C   0  0  0  0  0  0  0  0  0  0  0  0
   38.2550   25.0230   35.2410 C   0  0  0  0  0  0  0  0  0  0  0  0
   37.5500   25.8440   35.1220 H   0  0  0  0  0  0  0  0  0  0  0  0
   38.3840   24.3890   36.4500 C   0  0  0  0  0  0  0  0  0  0  0  0
   39.2860   23.3370   36.6070 C   0  0  0  0  0  0  0  0  0  0  0  0
   40.0440   22.9440   35.5280 C   0  0  0  0  0  3  0  0  0  0  0  0
   39.1870   22.9090   37.9210 O   0  0  0  0  0  0  0  0  0  0  0  0
   37.9640   23.3840   38.4710 C   0  0  0  0  0  3  0  0  0  0  0  0
   37.1340   22.6900   38.2700 H   0  0  0  0  0  0  0  0  0  0  0  0
   37.7730   24.5530   37.6910 O   0  0  0  0  0  0  0  0  0  0  0  0
   35.7130   20.5940   33.2680 C   0  0  0  0  0  0  0  0  0  0  0  0
   36.0330   19.2440   33.1000 F   0  0  0  0  0  0  0  0  0  0  0  0
   35.8750   21.0320   34.5380 F   0  0  0  0  0  0  0  0  0  0  0  0
   34.4010   20.7210   32.8180 F   0  0  0  0  0  0  0  0  0  0  0  0
  1  6  1  0  0  0  0
  1 34  1  0  0  0  0
  2  1  2  0  0  0  0
  3  4  2  0  0  0  0
  3  2  1  0  0  0  0
  4  5  1  0  0  0  0
  5  7  1  0  0  0  0
  5  6  2  0  0  0  0
  7 12  1  0  0  0  0
  8  7  1  0  0  0  0
  8 16  1  0  0  0  0
  9  8  1  0  0  0  0
  9 10  1  0  0  0  0
 10 11  1  0  0  0  0
 11 21  1  0  0  0  0
 11 20  1  0  0  0  0
 12 22  1  6  0  0  0
 12 11  1  0  0  0  0
 12 24  1  0  0  0  0
 13  2  1  0  0  0  0
 14  3  1  0  0  0  0
 15  8  1  0  0  0  0
 17  9  1  0  0  0  0
 18  9  1  0  0  0  0
 19 10  1  0  0  0  0
 23 29  1  0  0  0  0
 24 23  2  0  0  0  0
 24 25  1  0  0  0  0
 25 27  2  0  0  0  0
 26 25  1  0  0  0  0
 27 28  1  0  0  0  0
 27 33  1  0  0  0  0
 28 30  1  0  0  0  0
 29 28  2  0  0  0  0
 30 31  1  0  0  0  0
 32 31  1  0  0  0  0
 33 31  1  0  0  0  0
 34 36  1  0  0  0  0
 35 34  1  0  0  0  0
 37 34  1  0  0  0  0
M  END
>  <minimizedAffinity>
-5.79193401

$$$$

 OpenBabel03272505353D

 37 40  0  0  1  0  0  0  0  0999 V2000
   37.3620   22.7270   32.8600 C   0  0  0  0  0  0  0  0  0  0  0  0
   37.0630   21.8960   33.9330 C   0  0  0  0  0  0  0  0  0  0  0  0
   37.8690   21.9960   35.0920 C   0  0  0  0  0  0  0  0  0  0  0  0
   38.8990   22.9110   35.0810 N   0  0  0  0  0  0  0  0  0  0  0  0
   39.1390   23.6830   34.0190 C   0  0  0  0  0  0  0  0  0  0  0  0
   38.3840   23.5940   32.9250 N   0  0  0  0  0  0  0  0  0  0  0  0
   40.2230   24.5910   34.1130 N   0  0  0  0  0  0  0  0  0  0  0  0
   41.5470   24.1760   33.6790 C   0  0  0  0  0  0  0  0  0  0  0  0
   42.6220   24.6300   34.6300 C   0  0  0  0  0  0  0  0  0  0  0  0
   42.4670   26.0020   35.0340 N   0  0  0  0  0  0  0  0  0  0  0  0
   41.3750   26.6800   34.3920 C   0  0  0  0  0  0  0  0  0  0  0  0
   40.0640   25.9460   34.6340 C   0  0  1  0  0  0  0  0  0  0  0  0
   36.2400   21.1970   33.8820 H   0  0  0  0  0  0  0  0  0  0  0  0
   37.6710   21.3680   35.9510 H   0  0  0  0  0  0  0  0  0  0  0  0
   41.6120   23.0690   33.6230 H   0  0  0  0  0  0  0  0  0  0  0  0
   41.7180   24.6270   32.6800 H   0  0  0  0  0  0  0  0  0  0  0  0
   43.5770   24.5940   34.0330 H   0  0  0  0  0  0  0  0  0  0  0  0
   42.7880   23.9330   35.4710 H   0  0  0  0  0  0  0  0  0  0  0  0
   42.2410   25.9890   36.0670 H   0  0  0  0  0  0  0  0  0  0  0  0
   41.3290   27.7020   34.7880 H   0  0  0  0  0  0  0  0  0  0  0  0
   41.5890   26.7280   33.2990 H   0  0  0  0  0  0  0  0  0  0  0  0
   39.9480   25.9100   35.7370 H   0  0  0  0  0  0  0  0  0  0  0  0
   37.8100   26.9930   34.7420 C   0  0  0  0  0  3  0  0  0  0  0  0
   38.9430   26.6790   34.0320 C   0  0  0  0  0  0  0  0  0  0  0  0
   38.9580   27.1010   32.7060 C   0  0  0  0  0  0  0  0  0  0  0  0
   39.8430   26.8670   32.1160 H   0  0  0  0  0  0  0  0  0  0  0  0
   37.9120   27.7860   32.1440 C   0  0  0  0  0  0  0  0  0  0  0  0
   36.7760   28.0880   32.8960 C   0  0  0  0  0  0  0  0  0  0  0  0
   36.7230   27.6860   34.2110 C   0  0  0  0  0  3  0  0  0  0  0  0
   35.9070   28.7740   32.0630 O   0  0  0  0  0  0  0  0  0  0  0  0
   36.2880   28.5480   30.7110 C   0  0  0  0  0  3  0  0  0  0  0  0
   35.8220   27.6360   30.3070 H   0  0  0  0  0  0  0  0  0  0  0  0
   37.6760   28.3100   30.8750 O   0  0  0  0  0  0  0  0  0  0  0  0
   36.5150   22.6260   31.6350 C   0  0  0  0  0  0  0  0  0  0  0  0
   36.6770   23.7800   30.8630 F   0  0  0  0  0  0  0  0  0  0  0  0
   36.8400   21.4890   30.9780 F   0  0  0  0  0  0  0  0  0  0  0  0
   35.1870   22.6450   32.0540 F   0  0  0  0  0  0  0  0  0  0  0  0
  1  6  2  0  0  0  0
  1  2  1  0  0  0  0
  2  3  2  0  0  0  0
  3 14  1  0  0  0  0
  4  3  1  0  0  0  0
  5  7  1  0  0  0  0
  5  4  2  0  0  0  0
  6  5  1  0  0  0  0
  7 12  1  0  0  0  0
  8  7  1  0  0  0  0
  8  9  1  0  0  0  0
  9 10  1  0  0  0  0
  9 18  1  0  0  0  0
 10 19  1  0  0  0  0
 11 12  1  0  0  0  0
 11 20  1  0  0  0  0
 11 10  1  0  0  0  0
 12 22  1  1  0  0  0
 13  2  1  0  0  0  0
 15  8  1  0  0  0  0
 16  8  1  0  0  0  0
 17  9  1  0  0  0  0
 21 11  1  0  0  0  0
 24 12  1  0  0  0  0
 24 23  2  0  0  0  0
 25 24  1  0  0  0  0
 26 25  1  0  0  0  0
 27 25  2  0  0  0  0
 27 28  1  0  0  0  0
 28 29  2  0  0  0  0
 29 23  1  0  0  0  0
 30 28  1  0  0  0  0
 31 33  1  0  0  0  0
 31 30  1  0  0  0  0
 32 31  1  0  0  0  0
 33 27  1  0  0  0  0
 34 37  1  0  0  0  0
 34  1  1  0  0  0  0
 35 34  1  0  0  0  0
 36 34  1  0  0  0  0
M  END
>  <minimizedAffinity>
-5.75319004

$$$$

 OpenBabel03272505353D

 37 40  0  0  1  0  0  0  0  0999 V2000
   38.5750   24.1400   35.5330 C   0  0  0  0  0  0  0  0  0  0  0  0
   37.8010   25.1900   36.0130 C   0  0  0  0  0  0  0  0  0  0  0  0
   37.3840   26.1790   35.0920 C   0  0  0  0  0  0  0  0  0  0  0  0
   37.7740   26.0380   33.7770 N   0  0  0  0  0  0  0  0  0  0  0  0
   38.5190   25.0070   33.3740 C   0  0  0  0  0  0  0  0  0  0  0  0
   38.9150   24.0710   34.2360 N   0  0  0  0  0  0  0  0  0  0  0  0
   38.8640   24.9580   32.0010 N   0  0  0  0  0  0  0  0  0  0  0  0
   40.0960   25.5810   31.5460 C   0  0  0  0  0  0  0  0  0  0  0  0
   39.9050   26.3360   30.2580 C   0  0  0  0  0  0  0  0  0  0  0  0
   39.1490   25.5960   29.2830 N   0  0  0  0  0  0  0  0  0  0  0  0
   38.8010   24.2660   29.7010 C   0  0  0  0  0  0  0  0  0  0  0  0
   38.0220   24.2960   31.0070 C   0  0  1  0  0  0  0  0  0  0  0  0
   37.5270   25.2450   37.0560 H   0  0  0  0  0  0  0  0  0  0  0  0
   36.7800   27.0130   35.4220 H   0  0  0  0  0  0  0  0  0  0  0  0
   40.4650   26.3120   32.2960 H   0  0  0  0  0  0  0  0  0  0  0  0
   40.8360   24.7680   31.3960 H   0  0  0  0  0  0  0  0  0  0  0  0
   40.9400   26.4440   29.8240 H   0  0  0  0  0  0  0  0  0  0  0  0
   39.5510   27.3730   30.4040 H   0  0  0  0  0  0  0  0  0  0  0  0
   38.2370   26.1140   29.1520 H   0  0  0  0  0  0  0  0  0  0  0  0
   38.2080   23.8030   28.9020 H   0  0  0  0  0  0  0  0  0  0  0  0
   39.7430   23.6850   29.8320 H   0  0  0  0  0  0  0  0  0  0  0  0
   37.1280   24.9210   30.8010 H   0  0  0  0  0  0  0  0  0  0  0  0
   38.5130   21.9140   31.5330 C   0  0  0  0  0  3  0  0  0  0  0  0
   37.6110   22.9400   31.3950 C   0  0  0  0  0  0  0  0  0  0  0  0
   36.2820   22.6100   31.6470 C   0  0  0  0  0  0  0  0  0  0  0  0
   35.5420   23.4030   31.5450 H   0  0  0  0  0  0  0  0  0  0  0  0
   35.8980   21.3450   32.0090 C   0  0  0  0  0  0  0  0  0  0  0  0
   36.8430   20.3270   32.1400 C   0  0  0  0  0  0  0  0  0  0  0  0
   38.1670   20.6140   31.8990 C   0  0  0  0  0  3  0  0  0  0  0  0
   36.1580   19.1810   32.5110 O   0  0  0  0  0  0  0  0  0  0  0  0
   34.7770   19.3520   32.2130 C   0  0  0  0  0  3  0  0  0  0  0  0
   34.5470   19.0540   31.1790 H   0  0  0  0  0  0  0  0  0  0  0  0
   34.6690   20.7630   32.3110 O   0  0  0  0  0  0  0  0  0  0  0  0
   39.0180   23.0920   36.5000 C   0  0  0  0  0  0  0  0  0  0  0  0
   38.3680   23.2840   37.7230 F   0  0  0  0  0  0  0  0  0  0  0  0
   38.7890   21.8750   35.9540 F   0  0  0  0  0  0  0  0  0  0  0  0
   40.3670   23.3200   36.7600 F   0  0  0  0  0  0  0  0  0  0  0  0
  1  2  1  0  0  0  0
  1 34  1  0  0  0  0
  2 13  1  0  0  0  0
  3 14  1  0  0  0  0
  3  2  2  0  0  0  0
  4  3  1  0  0  0  0
  5  4  2  0  0  0  0
  5  6  1  0  0  0  0
  6  1  2  0  0  0  0
  7  5  1  0  0  0  0
  8  7  1  0  0  0  0
  8 15  1  0  0  0  0
  9 18  1  0  0  0  0
  9  8  1  0  0  0  0
 10 11  1  0  0  0  0
 10  9  1  0  0  0  0
 11 21  1  0  0  0  0
 11 12  1  0  0  0  0
 12 22  1  6  0  0  0
 12 24  1  0  0  0  0
 12  7  1  0  0  0  0
 16  8  1  0  0  0  0
 17  9  1  0  0  0  0
 19 10  1  0  0  0  0
 20 11  1  0  0  0  0
 23 29  1  0  0  0  0
 24 23  2  0  0  0  0
 24 25  1  0  0  0  0
 25 27  2  0  0  0  0
 26 25  1  0  0  0  0
 27 28  1  0  0  0  0
 27 33  1  0  0  0  0
 28 30  1  0  0  0  0
 29 28  2  0  0  0  0
 31 33  1  0  0  0  0
 31 30  1  0  0  0  0
 32 31  1  0  0  0  0
 34 37  1  0  0  0  0
 34 35  1  0  0  0  0
 36 34  1  0  0  0  0
M  END
>  <minimizedAffinity>
-5.69569302

$$$$

 OpenBabel03272505353D

 37 40  0  0  1  0  0  0  0  0999 V2000
   38.0020   23.4500   36.1060 C   0  0  0  0  0  0  0  0  0  0  0  0
   37.6580   22.1430   35.7840 C   0  0  0  0  0  0  0  0  0  0  0  0
   37.3700   21.8500   34.4300 C   0  0  0  0  0  0  0  0  0  0  0  0
   37.4490   22.8800   33.5180 N   0  0  0  0  0  0  0  0  0  0  0  0
   37.7850   24.1180   33.8880 C   0  0  0  0  0  0  0  0  0  0  0  0
   38.0570   24.4020   35.1610 N   0  0  0  0  0  0  0  0  0  0  0  0
   37.8360   25.1040   32.8710 N   0  0  0  0  0  0  0  0  0  0  0  0
   36.6500   25.8870   32.5680 C   0  0  0  0  0  0  0  0  0  0  0  0
   36.4490   26.0590   31.0860 C   0  0  0  0  0  0  0  0  0  0  0  0
   37.6610   26.4150   30.3960 N   0  0  0  0  0  0  0  0  0  0  0  0
   38.7890   26.6120   31.2630 C   0  0  0  0  0  0  0  0  0  0  0  0
   39.0500   25.3710   32.1040 C   0  0  1  0  0  0  0  0  0  0  0  0
   37.6140   21.3770   36.5440 H   0  0  0  0  0  0  0  0  0  0  0  0
   37.0980   20.8450   34.1340 H   0  0  0  0  0  0  0  0  0  0  0  0
   35.7390   25.3860   32.9600 H   0  0  0  0  0  0  0  0  0  0  0  0
   36.7840   26.8800   33.0440 H   0  0  0  0  0  0  0  0  0  0  0  0
   35.7660   26.9500   30.9830 H   0  0  0  0  0  0  0  0  0  0  0  0
   35.8970   25.2250   30.6170 H   0  0  0  0  0  0  0  0  0  0  0  0
   37.9040   25.5970   29.7730 H   0  0  0  0  0  0  0  0  0  0  0  0
   39.6590   26.8520   30.6390 H   0  0  0  0  0  0  0  0  0  0  0  0
   38.5720   27.4830   31.9250 H   0  0  0  0  0  0  0  0  0  0  0  0
   39.2170   24.5530   31.3730 H   0  0  0  0  0  0  0  0  0  0  0  0
   40.7320   26.7980   33.2540 C   0  0  0  0  0  3  0  0  0  0  0  0
   40.2440   25.5540   32.9380 C   0  0  0  0  0  0  0  0  0  0  0  0
   40.9560   24.4790   33.4620 C   0  0  0  0  0  0  0  0  0  0  0  0
   40.5940   23.4780   33.2290 H   0  0  0  0  0  0  0  0  0  0  0  0
   42.0710   24.6480   34.2410 C   0  0  0  0  0  0  0  0  0  0  0  0
   42.5380   25.9280   34.5420 C   0  0  0  0  0  0  0  0  0  0  0  0
   41.8620   27.0170   34.0420 C   0  0  0  0  0  3  0  0  0  0  0  0
   43.6630   25.7740   35.3350 O   0  0  0  0  0  0  0  0  0  0  0  0
   44.1490   24.4440   35.1960 C   0  0  0  0  0  3  0  0  0  0  0  0
   44.8390   24.3530   34.3440 H   0  0  0  0  0  0  0  0  0  0  0  0
   42.9450   23.7670   34.8740 O   0  0  0  0  0  0  0  0  0  0  0  0
   38.3070   23.7660   37.5340 C   0  0  0  0  0  0  0  0  0  0  0  0
   39.5940   23.3160   37.8440 F   0  0  0  0  0  0  0  0  0  0  0  0
   38.1400   25.0950   37.7270 F   0  0  0  0  0  0  0  0  0  0  0  0
   37.4490   22.9960   38.3140 F   0  0  0  0  0  0  0  0  0  0  0  0
  1 34  1  0  0  0  0
  2  1  1  0  0  0  0
  2 13  1  0  0  0  0
  3  2  2  0  0  0  0
  4  5  2  0  0  0  0
  4  3  1  0  0  0  0
  5  6  1  0  0  0  0
  6  1  2  0  0  0  0
  7  5  1  0  0  0  0
  8  7  1  0  0  0  0
  8 15  1  0  0  0  0
  8 16  1  0  0  0  0
  9  8  1  0  0  0  0
 10  9  1  0  0  0  0
 10 11  1  0  0  0  0
 11 21  1  0  0  0  0
 11 12  1  0  0  0  0
 12 22  1  6  0  0  0
 12  7  1  0  0  0  0
 12 24  1  0  0  0  0
 14  3  1  0  0  0  0
 17  9  1  0  0  0  0
 18  9  1  0  0  0  0
 19 10  1  0  0  0  0
 20 11  1  0  0  0  0
 23 29  1  0  0  0  0
 24 23  2  0  0  0  0
 24 25  1  0  0  0  0
 25 27  2  0  0  0  0
 26 25  1  0  0  0  0
 27 28  1  0  0  0  0
 27 33  1  0  0  0  0
 28 30  1  0  0  0  0
 29 28  2  0  0  0  0
 31 30  1  0  0  0  0
 32 31  1  0  0  0  0
 33 31  1  0  0  0  0
 34 36  1  0  0  0  0
 34 35  1  0  0  0  0
 34 37  1  0  0  0  0
M  END
>  <minimizedAffinity>
-5.62031889

$$$$

 OpenBabel03272505353D

 37 40  0  0  1  0  0  0  0  0999 V2000
   38.5510   24.7040   35.5620 C   0  0  0  0  0  0  0  0  0  0  0  0
   38.1490   25.8090   36.3020 C   0  0  0  0  0  0  0  0  0  0  0  0
   38.1930   27.0760   35.6750 C   0  0  0  0  0  0  0  0  0  0  0  0
   38.6330   27.1340   34.3700 N   0  0  0  0  0  0  0  0  0  0  0  0
   39.0080   26.0360   33.7090 C   0  0  0  0  0  0  0  0  0  0  0  0
   38.9690   24.8390   34.2930 N   0  0  0  0  0  0  0  0  0  0  0  0
   39.4440   26.2060   32.3720 N   0  0  0  0  0  0  0  0  0  0  0  0
   40.8530   26.4340   32.0990 C   0  0  0  0  0  0  0  0  0  0  0  0
   41.0620   27.5000   31.0560 C   0  0  0  0  0  0  0  0  0  0  0  0
   40.1930   27.3470   29.9200 N   0  0  0  0  0  0  0  0  0  0  0  0
   39.3660   26.1740   29.9710 C   0  0  0  0  0  0  0  0  0  0  0  0
   38.5240   26.1600   31.2380 C   0  0  1  0  0  0  0  0  0  0  0  0
   37.8120   25.7000   37.3230 H   0  0  0  0  0  0  0  0  0  0  0  0
   37.8880   27.9640   36.2140 H   0  0  0  0  0  0  0  0  0  0  0  0
   41.3800   26.7730   33.0160 H   0  0  0  0  0  0  0  0  0  0  0  0
   41.2750   25.4730   31.7390 H   0  0  0  0  0  0  0  0  0  0  0  0
   42.1060   27.3300   30.6670 H   0  0  0  0  0  0  0  0  0  0  0  0
   41.0790   28.5240   31.4710 H   0  0  0  0  0  0  0  0  0  0  0  0
   39.5350   28.1750   29.9300 H   0  0  0  0  0  0  0  0  0  0  0  0
   38.7280   26.1680   29.0780 H   0  0  0  0  0  0  0  0  0  0  0  0
   40.0290   25.2790   29.9440 H   0  0  0  0  0  0  0  0  0  0  0  0
   37.9270   27.0960   31.2040 H   0  0  0  0  0  0  0  0  0  0  0  0
   36.2890   25.1030   31.5200 C   0  0  0  0  0  3  0  0  0  0  0  0
   37.6310   24.9930   31.2530 C   0  0  0  0  0  0  0  0  0  0  0  0
   38.0900   23.7040   30.9970 C   0  0  0  0  0  0  0  0  0  0  0  0
   39.1520   23.5840   30.7820 H   0  0  0  0  0  0  0  0  0  0  0  0
   37.2580   22.6150   31.0100 C   0  0  0  0  0  0  0  0  0  0  0  0
   35.8990   22.7640   31.2860 C   0  0  0  0  0  0  0  0  0  0  0  0
   35.4070   24.0230   31.5450 C   0  0  0  0  0  3  0  0  0  0  0  0
   35.3310   21.5020   31.2270 O   0  0  0  0  0  0  0  0  0  0  0  0
   36.3610   20.5260   31.3320 C   0  0  0  0  0  3  0  0  0  0  0  0
   36.5840   20.2860   32.3830 H   0  0  0  0  0  0  0  0  0  0  0  0
   37.4540   21.2530   30.7940 O   0  0  0  0  0  0  0  0  0  0  0  0
   38.5070   23.3630   36.2170 C   0  0  0  0  0  0  0  0  0  0  0  0
   37.3100   23.2340   36.9290 F   0  0  0  0  0  0  0  0  0  0  0  0
   38.6740   22.4130   35.2690 F   0  0  0  0  0  0  0  0  0  0  0  0
   39.5130   23.3460   37.1800 F   0  0  0  0  0  0  0  0  0  0  0  0
  1 34  1  0  0  0  0
  1  2  1  0  0  0  0
  2 13  1  0  0  0  0
  3 14  1  0  0  0  0
  3  2  2  0  0  0  0
  4  3  1  0  0  0  0
  5  6  1  0  0  0  0
  5  4  2  0  0  0  0
  6  1  2  0  0  0  0
  7  5  1  0  0  0  0
  8  7  1  0  0  0  0
  8 15  1  0  0  0  0
  9 18  1  0  0  0  0
  9  8  1  0  0  0  0
 10 19  1  0  0  0  0
 10 11  1  0  0  0  0
 10  9  1  0  0  0  0
 11 12  1  0  0  0  0
 12 22  1  1  0  0  0
 12 24  1  0  0  0  0
 12  7  1  0  0  0  0
 16  8  1  0  0  0  0
 17  9  1  0  0  0  0
 20 11  1  0  0  0  0
 21 11  1  0  0  0  0
 23 29  1  0  0  0  0
 24 23  2  0  0  0  0
 25 27  2  0  0  0  0
 25 24  1  0  0  0  0
 26 25  1  0  0  0  0
 27 28  1  0  0  0  0
 28 29  2  0  0  0  0
 30 28  1  0  0  0  0
 30 31  1  0  0  0  0
 31 32  1  0  0  0  0
 33 27  1  0  0  0  0
 33 31  1  0  0  0  0
 34 35  1  0  0  0  0
 34 37  1  0  0  0  0
 36 34  1  0  0  0  0
M  END
>  <minimizedAffinity>
-5.59571409

$$$$
