
 OpenBabel03272509103D

 42 46  0  0  0  0  0  0  0  0999 V2000
   38.5480   26.7930   31.6310 C   0  0  0  0  0  0  0  0  0  0  0  0
   38.4650   26.3500   30.6430 H   0  0  0  0  0  0  0  0  0  0  0  0
   38.2330   26.0110   32.3560 H   0  0  0  0  0  0  0  0  0  0  0  0
   39.9610   27.1080   31.9840 C   0  0  0  0  0  0  0  0  0  0  0  0
   40.9320   27.5380   31.0830 C   0  0  0  0  0  0  0  0  0  0  0  0
   42.2080   27.8140   31.4940 C   0  0  0  0  0  0  0  0  0  0  0  0
   42.5730   27.6760   32.8150 C   0  0  0  0  0  0  0  0  0  0  0  0
   41.6190   27.2540   33.7080 C   0  0  0  0  0  0  0  0  0  0  0  0
   40.3200   26.9690   33.3090 C   0  0  0  0  0  0  0  0  0  0  0  0
   40.5570   27.6190   30.0530 H   0  0  0  0  0  0  0  0  0  0  0  0
   42.8200   28.1310   30.6700 H   0  0  0  0  0  0  0  0  0  0  0  0
   43.6020   27.9210   33.0280 H   0  0  0  0  0  0  0  0  0  0  0  0
   42.0350   27.1870   34.7150 H   0  0  0  0  0  0  0  0  0  0  0  0
   38.8520   27.2190   35.4230 C   0  0  0  0  0  3  0  0  0  0  0  0
   39.5490   26.5240   34.4640 C   0  0  0  0  0  0  0  0  0  0  0  0
   39.5400   25.1320   34.6500 C   0  0  0  0  0  0  0  0  0  0  0  0
   40.0570   24.4590   33.9580 H   0  0  0  0  0  0  0  0  0  0  0  0
   38.9050   24.4790   35.6850 C   0  0  0  0  0  0  0  0  0  0  0  0
   38.2220   25.2270   36.6170 C   0  0  0  0  0  0  0  0  0  0  0  0
   38.2150   26.5840   36.4580 C   0  0  0  0  0  3  0  0  0  0  0  0
   37.6750   24.3540   37.5480 O   0  0  0  0  0  0  0  0  0  0  0  0
   37.6240   23.0780   36.9350 C   0  0  0  0  0  3  0  0  0  0  0  0
   36.6740   23.0380   36.3660 H   0  0  0  0  0  0  0  0  0  0  0  0
   38.7610   23.1540   36.0640 O   0  0  0  0  0  0  0  0  0  0  0  0
   36.5250   27.9470   32.5780 C   0  0  0  0  0  3  0  0  0  0  0  0
   37.6130   27.9200   31.8450 C   0  0  0  0  0  3  0  0  0  0  0  0
   34.6460   30.9330   31.6580 C   0  0  0  0  0  0  0  0  0  0  0  0
   34.3740   31.5040   32.9170 C   0  0  0  0  0  0  0  0  0  0  0  0
   34.8570   30.8310   34.0660 C   0  0  0  0  0  0  0  0  0  0  0  0
   35.5560   29.6710   33.8860 N   0  0  0  0  0  0  0  0  0  0  0  0
   35.7780   29.1840   32.6350 C   0  0  0  0  0  0  0  0  0  0  0  0
   35.3340   29.8010   31.5440 N   0  0  0  0  0  0  0  0  0  0  0  0
   34.2540   31.4880   30.7980 H   0  0  0  0  0  0  0  0  0  0  0  0
   33.8180   32.4270   33.0640 H   0  0  0  0  0  0  0  0  0  0  0  0
   34.6470   31.3340   35.4230 C   0  0  0  0  0  0  0  0  0  0  0  0
   33.4020   31.3800   36.0100 C   0  0  0  0  0  0  0  0  0  0  0  0
   33.5690   31.9020   37.2960 C   0  0  0  0  0  0  0  0  0  0  0  0
   34.8940   32.1460   37.4290 N   0  0  0  0  0  0  0  0  0  0  0  0
   35.5460   31.8120   36.3170 N   0  0  0  0  0  0  0  0  0  0  0  0
   32.4370   31.0750   35.5840 H   0  0  0  0  0  0  0  0  0  0  0  0
   32.7600   32.0540   37.9970 H   0  0  0  0  0  0  0  0  0  0  0  0
   35.2480   32.5470   38.3340 H   0  0  0  0  0  0  0  0  0  0  0  0
  1 26  1  0  0  0  0
  1  4  1  0  0  0  0
  1  3  1  0  0  0  0
  2  1  1  0  0  0  0
  4  9  1  0  0  0  0
  5  6  1  0  0  0  0
  5  4  2  0  0  0  0
  6  7  2  0  0  0  0
  7 12  1  0  0  0  0
  7  8  1  0  0  0  0
  8 13  1  0  0  0  0
  9  8  2  0  0  0  0
  9 15  1  0  0  0  0
 10  5  1  0  0  0  0
 11  6  1  0  0  0  0
 14 20  1  0  0  0  0
 15 16  1  0  0  0  0
 15 14  2  0  0  0  0
 16 18  2  0  0  0  0
 17 16  1  0  0  0  0
 18 24  1  0  0  0  0
 18 19  1  0  0  0  0
 19 21  1  0  0  0  0
 20 19  2  0  0  0  0
 22 21  1  0  0  0  0
 23 22  1  0  0  0  0
 24 22  1  0  0  0  0
 25 31  1  0  0  0  0
 26 25  2  0  0  0  0
 27 28  1  0  0  0  0
 28 34  1  0  0  0  0
 28 29  2  0  0  0  0
 29 35  1  0  0  0  0
 30 29  1  0  0  0  0
 31 30  2  0  0  0  0
 32 27  2  0  0  0  0
 32 31  1  0  0  0  0
 33 27  1  0  0  0  0
 35 36  1  0  0  0  0
 35 39  2  0  0  0  0
 36 37  2  0  0  0  0
 37 38  1  0  0  0  0
 37 41  1  0  0  0  0
 38 42  1  0  0  0  0
 39 38  1  0  0  0  0
 40 36  1  0  0  0  0
M  END
>  <minimizedAffinity>
-6.9859786

$$$$

 OpenBabel03272509103D

 42 46  0  0  0  0  0  0  0  0999 V2000
   36.7360   27.5910   34.5650 C   0  0  0  0  0  0  0  0  0  0  0  0
   36.4450   28.2050   35.4130 H   0  0  0  0  0  0  0  0  0  0  0  0
   36.0360   26.7290   34.5440 H   0  0  0  0  0  0  0  0  0  0  0  0
   36.5290   28.2960   33.2690 C   0  0  0  0  0  0  0  0  0  0  0  0
   36.9360   27.8170   32.0270 C   0  0  0  0  0  0  0  0  0  0  0  0
   36.6990   28.5280   30.8810 C   0  0  0  0  0  0  0  0  0  0  0  0
   36.0480   29.7420   30.9210 C   0  0  0  0  0  0  0  0  0  0  0  0
   35.6440   30.2180   32.1430 C   0  0  0  0  0  0  0  0  0  0  0  0
   35.8770   29.5110   33.3160 C   0  0  0  0  0  0  0  0  0  0  0  0
   37.4470   26.8470   32.0860 H   0  0  0  0  0  0  0  0  0  0  0  0
   37.0790   28.0110   30.0190 H   0  0  0  0  0  0  0  0  0  0  0  0
   35.9140   30.2150   29.9610 H   0  0  0  0  0  0  0  0  0  0  0  0
   35.1440   31.1820   32.0370 H   0  0  0  0  0  0  0  0  0  0  0  0
   35.9840   31.0670   35.3780 C   0  0  0  0  0  3  0  0  0  0  0  0
   35.3600   30.2730   34.4470 C   0  0  0  0  0  0  0  0  0  0  0  0
   33.9750   30.1500   34.6410 C   0  0  0  0  0  0  0  0  0  0  0  0
   33.3550   29.5450   33.9710 H   0  0  0  0  0  0  0  0  0  0  0  0
   33.2650   30.7510   35.6580 C   0  0  0  0  0  0  0  0  0  0  0  0
   33.9430   31.5370   36.5630 C   0  0  0  0  0  0  0  0  0  0  0  0
   35.2920   31.6720   36.3950 C   0  0  0  0  0  3  0  0  0  0  0  0
   33.0220   32.0250   37.4790 O   0  0  0  0  0  0  0  0  0  0  0  0
   31.7460   31.9280   36.8730 C   0  0  0  0  0  3  0  0  0  0  0  0
   31.6100   32.8500   36.2730 H   0  0  0  0  0  0  0  0  0  0  0  0
   31.9320   30.7750   36.0400 O   0  0  0  0  0  0  0  0  0  0  0  0
   38.3970   25.7350   34.9070 C   0  0  0  0  0  3  0  0  0  0  0  0
   38.0830   26.9940   34.7130 C   0  0  0  0  0  3  0  0  0  0  0  0
   42.0320   25.8040   34.6300 C   0  0  0  0  0  0  0  0  0  0  0  0
   42.3970   24.6220   35.3020 C   0  0  0  0  0  0  0  0  0  0  0  0
   41.3600   23.8210   35.8390 C   0  0  0  0  0  0  0  0  0  0  0  0
   40.0700   24.2410   35.6740 N   0  0  0  0  0  0  0  0  0  0  0  0
   39.8000   25.3970   35.0100 C   0  0  0  0  0  0  0  0  0  0  0  0
   40.7590   26.1630   34.4980 N   0  0  0  0  0  0  0  0  0  0  0  0
   42.8670   26.3920   34.2300 H   0  0  0  0  0  0  0  0  0  0  0  0
   43.4230   24.2830   35.4360 H   0  0  0  0  0  0  0  0  0  0  0  0
   41.6160   22.5660   36.5460 C   0  0  0  0  0  0  0  0  0  0  0  0
   42.6670   21.7370   36.2230 C   0  0  0  0  0  0  0  0  0  0  0  0
   42.6190   20.6460   37.0960 C   0  0  0  0  0  0  0  0  0  0  0  0
   41.5510   20.8610   37.9000 N   0  0  0  0  0  0  0  0  0  0  0  0
   40.9460   22.0040   37.5800 N   0  0  0  0  0  0  0  0  0  0  0  0
   43.4230   21.8700   35.4370 H   0  0  0  0  0  0  0  0  0  0  0  0
   43.3230   19.8270   37.0800 H   0  0  0  0  0  0  0  0  0  0  0  0
   41.3250   20.1530   38.6440 H   0  0  0  0  0  0  0  0  0  0  0  0
  1 26  1  0  0  0  0
  1  2  1  0  0  0  0
  3  1  1  0  0  0  0
  4  9  1  0  0  0  0
  4  1  1  0  0  0  0
  5 10  1  0  0  0  0
  5  4  2  0  0  0  0
  6  7  2  0  0  0  0
  6  5  1  0  0  0  0
  7  8  1  0  0  0  0
  8  9  2  0  0  0  0
  9 15  1  0  0  0  0
 11  6  1  0  0  0  0
 12  7  1  0  0  0  0
 13  8  1  0  0  0  0
 14 20  1  0  0  0  0
 15 16  1  0  0  0  0
 15 14  2  0  0  0  0
 16 18  2  0  0  0  0
 17 16  1  0  0  0  0
 18 24  1  0  0  0  0
 18 19  1  0  0  0  0
 19 21  1  0  0  0  0
 20 19  2  0  0  0  0
 22 21  1  0  0  0  0
 23 22  1  0  0  0  0
 24 22  1  0  0  0  0
 25 31  1  0  0  0  0
 26 25  2  0  0  0  0
 27 28  1  0  0  0  0
 28 34  1  0  0  0  0
 28 29  2  0  0  0  0
 29 35  1  0  0  0  0
 30 29  1  0  0  0  0
 31 30  2  0  0  0  0
 32 27  2  0  0  0  0
 32 31  1  0  0  0  0
 33 27  1  0  0  0  0
 35 39  2  0  0  0  0
 36 35  1  0  0  0  0
 36 37  2  0  0  0  0
 37 38  1  0  0  0  0
 38 42  1  0  0  0  0
 39 38  1  0  0  0  0
 40 36  1  0  0  0  0
 41 37  1  0  0  0  0
M  END
>  <minimizedAffinity>
-6.93887758

$$$$

 OpenBabel03272509103D

 42 46  0  0  0  0  0  0  0  0999 V2000
   36.9250   27.9490   34.9920 C   0  0  0  0  0  0  0  0  0  0  0  0
   37.4840   28.6700   35.5820 H   0  0  0  0  0  0  0  0  0  0  0  0
   35.9470   27.8140   35.5020 H   0  0  0  0  0  0  0  0  0  0  0  0
   36.5940   28.4730   33.6380 C   0  0  0  0  0  0  0  0  0  0  0  0
   36.9780   27.8820   32.4370 C   0  0  0  0  0  0  0  0  0  0  0  0
   36.6230   28.4270   31.2330 C   0  0  0  0  0  0  0  0  0  0  0  0
   35.8720   29.5810   31.1700 C   0  0  0  0  0  0  0  0  0  0  0  0
   35.4900   30.1680   32.3510 C   0  0  0  0  0  0  0  0  0  0  0  0
   35.8410   29.6280   33.5820 C   0  0  0  0  0  0  0  0  0  0  0  0
   37.5730   26.9690   32.5790 H   0  0  0  0  0  0  0  0  0  0  0  0
   37.0030   27.8420   30.4160 H   0  0  0  0  0  0  0  0  0  0  0  0
   35.6490   29.9220   30.1720 H   0  0  0  0  0  0  0  0  0  0  0  0
   34.9030   31.0690   32.1640 H   0  0  0  0  0  0  0  0  0  0  0  0
   35.9420   31.2970   35.5540 C   0  0  0  0  0  3  0  0  0  0  0  0
   35.3180   30.4770   34.6460 C   0  0  0  0  0  0  0  0  0  0  0  0
   33.9220   30.4260   34.7910 C   0  0  0  0  0  0  0  0  0  0  0  0
   33.3010   29.8100   34.1330 H   0  0  0  0  0  0  0  0  0  0  0  0
   33.2020   31.1170   35.7420 C   0  0  0  0  0  0  0  0  0  0  0  0
   33.8820   31.9240   36.6270 C   0  0  0  0  0  0  0  0  0  0  0  0
   35.2400   31.9910   36.5060 C   0  0  0  0  0  3  0  0  0  0  0  0
   32.9500   32.5050   37.4760 O   0  0  0  0  0  0  0  0  0  0  0  0
   31.6940   32.4280   36.8260 C   0  0  0  0  0  3  0  0  0  0  0  0
   31.6230   33.3180   36.1690 H   0  0  0  0  0  0  0  0  0  0  0  0
   31.8590   31.2210   36.0680 O   0  0  0  0  0  0  0  0  0  0  0  0
   38.7630   26.2650   35.3200 C   0  0  0  0  0  3  0  0  0  0  0  0
   37.5430   26.6030   34.9780 C   0  0  0  0  0  3  0  0  0  0  0  0
   40.6710   23.1610   35.1630 C   0  0  0  0  0  0  0  0  0  0  0  0
   39.6490   22.1980   35.0500 C   0  0  0  0  0  0  0  0  0  0  0  0
   38.3090   22.6570   35.0290 C   0  0  0  0  0  0  0  0  0  0  0  0
   38.0870   24.0020   35.1200 N   0  0  0  0  0  0  0  0  0  0  0  0
   39.1300   24.8690   35.2260 C   0  0  0  0  0  0  0  0  0  0  0  0
   40.3950   24.4590   35.2470 N   0  0  0  0  0  0  0  0  0  0  0  0
   41.6920   22.7620   35.1750 H   0  0  0  0  0  0  0  0  0  0  0  0
   39.8220   21.1270   34.9780 H   0  0  0  0  0  0  0  0  0  0  0  0
   37.1670   21.7520   34.9030 C   0  0  0  0  0  0  0  0  0  0  0  0
   36.7320   21.2760   33.6860 C   0  0  0  0  0  0  0  0  0  0  0  0
   35.6390   20.4390   33.9340 C   0  0  0  0  0  0  0  0  0  0  0  0
   35.4640   20.4470   35.2760 N   0  0  0  0  0  0  0  0  0  0  0  0
   36.3690   21.2270   35.8630 N   0  0  0  0  0  0  0  0  0  0  0  0
   37.1370   21.4880   32.6870 H   0  0  0  0  0  0  0  0  0  0  0  0
   35.0880   19.9200   33.1630 H   0  0  0  0  0  0  0  0  0  0  0  0
   34.6840   19.8740   35.6890 H   0  0  0  0  0  0  0  0  0  0  0  0
  1  3  1  0  0  0  0
  1  2  1  0  0  0  0
  4  1  1  0  0  0  0
  5 10  1  0  0  0  0
  5  4  2  0  0  0  0
  6  5  1  0  0  0  0
  7  6  2  0  0  0  0
  7  8  1  0  0  0  0
  8  9  2  0  0  0  0
  9  4  1  0  0  0  0
  9 15  1  0  0  0  0
 11  6  1  0  0  0  0
 12  7  1  0  0  0  0
 13  8  1  0  0  0  0
 14 20  1  0  0  0  0
 15 16  1  0  0  0  0
 15 14  2  0  0  0  0
 16 18  2  0  0  0  0
 17 16  1  0  0  0  0
 18 24  1  0  0  0  0
 18 19  1  0  0  0  0
 19 21  1  0  0  0  0
 20 19  2  0  0  0  0
 22 21  1  0  0  0  0
 23 22  1  0  0  0  0
 24 22  1  0  0  0  0
 26  1  1  0  0  0  0
 26 25  2  0  0  0  0
 27 33  1  0  0  0  0
 27 32  1  0  0  0  0
 28 27  2  0  0  0  0
 29 28  1  0  0  0  0
 29 30  2  0  0  0  0
 30 31  1  0  0  0  0
 31 32  2  0  0  0  0
 31 25  1  0  0  0  0
 34 28  1  0  0  0  0
 35 29  1  0  0  0  0
 35 39  2  0  0  0  0
 36 37  2  0  0  0  0
 36 35  1  0  0  0  0
 37 38  1  0  0  0  0
 38 42  1  0  0  0  0
 38 39  1  0  0  0  0
 40 36  1  0  0  0  0
 41 37  1  0  0  0  0
M  END
>  <minimizedAffinity>
-6.91438818

$$$$

 OpenBabel03272509103D

 42 46  0  0  0  0  0  0  0  0999 V2000
   35.5720   28.9640   32.4030 C   0  0  0  0  0  0  0  0  0  0  0  0
   34.8180   29.1210   33.1690 H   0  0  0  0  0  0  0  0  0  0  0  0
   35.0570   28.4760   31.5480 H   0  0  0  0  0  0  0  0  0  0  0  0
   36.0960   30.2500   31.8640 C   0  0  0  0  0  0  0  0  0  0  0  0
   36.6850   30.4090   30.6120 C   0  0  0  0  0  0  0  0  0  0  0  0
   37.1340   31.6320   30.1910 C   0  0  0  0  0  0  0  0  0  0  0  0
   37.0160   32.7460   30.9920 C   0  0  0  0  0  0  0  0  0  0  0  0
   36.4340   32.5950   32.2270 C   0  0  0  0  0  0  0  0  0  0  0  0
   35.9740   31.3620   32.6720 C   0  0  0  0  0  0  0  0  0  0  0  0
   36.7410   29.4730   30.0410 H   0  0  0  0  0  0  0  0  0  0  0  0
   37.5580   31.5700   29.2060 H   0  0  0  0  0  0  0  0  0  0  0  0
   37.4010   33.6570   30.5610 H   0  0  0  0  0  0  0  0  0  0  0  0
   36.4010   33.5470   32.7590 H   0  0  0  0  0  0  0  0  0  0  0  0
   36.0400   31.5280   35.2510 C   0  0  0  0  0  3  0  0  0  0  0  0
   35.4330   31.5080   34.0180 C   0  0  0  0  0  0  0  0  0  0  0  0
   34.0350   31.6180   34.0700 C   0  0  0  0  0  0  0  0  0  0  0  0
   33.4270   31.6150   33.1590 H   0  0  0  0  0  0  0  0  0  0  0  0
   33.2950   31.7360   35.2270 C   0  0  0  0  0  0  0  0  0  0  0  0
   33.9570   31.7500   36.4350 C   0  0  0  0  0  0  0  0  0  0  0  0
   35.3180   31.6450   36.4110 C   0  0  0  0  0  3  0  0  0  0  0  0
   33.0070   31.8760   37.4400 O   0  0  0  0  0  0  0  0  0  0  0  0
   31.8380   32.4040   36.8390 C   0  0  0  0  0  3  0  0  0  0  0  0
   31.9550   33.5060   36.8360 H   0  0  0  0  0  0  0  0  0  0  0  0
   31.9450   31.8550   35.5180 O   0  0  0  0  0  0  0  0  0  0  0  0
   36.9110   27.5780   34.0190 C   0  0  0  0  0  3  0  0  0  0  0  0
   36.6300   28.0130   32.8130 C   0  0  0  0  0  3  0  0  0  0  0  0
   39.9540   25.6500   33.4550 C   0  0  0  0  0  0  0  0  0  0  0  0
   39.9790   24.8100   34.5860 C   0  0  0  0  0  0  0  0  0  0  0  0
   38.9260   24.9350   35.5240 C   0  0  0  0  0  0  0  0  0  0  0  0
   37.9500   25.8600   35.2790 N   0  0  0  0  0  0  0  0  0  0  0  0
   37.9980   26.6340   34.1610 C   0  0  0  0  0  0  0  0  0  0  0  0
   38.9770   26.5320   33.2680 N   0  0  0  0  0  0  0  0  0  0  0  0
   40.7880   25.5190   32.7560 H   0  0  0  0  0  0  0  0  0  0  0  0
   40.7540   24.0730   34.7850 H   0  0  0  0  0  0  0  0  0  0  0  0
   38.8390   24.1090   36.7280 C   0  0  0  0  0  0  0  0  0  0  0  0
   37.8560   24.2860   37.6770 C   0  0  0  0  0  0  0  0  0  0  0  0
   38.0670   23.3300   38.6760 C   0  0  0  0  0  0  0  0  0  0  0  0
   39.1560   22.6250   38.2910 N   0  0  0  0  0  0  0  0  0  0  0  0
   39.6250   23.0820   37.1310 N   0  0  0  0  0  0  0  0  0  0  0  0
   37.0440   25.0250   37.6860 H   0  0  0  0  0  0  0  0  0  0  0  0
   37.4470   23.2280   39.5550 H   0  0  0  0  0  0  0  0  0  0  0  0
   39.4970   21.8420   38.9050 H   0  0  0  0  0  0  0  0  0  0  0  0
  1 26  1  0  0  0  0
  1  2  1  0  0  0  0
  3  1  1  0  0  0  0
  4  1  1  0  0  0  0
  4  9  1  0  0  0  0
  5  4  2  0  0  0  0
  6  5  1  0  0  0  0
  6  7  2  0  0  0  0
  7  8  1  0  0  0  0
  8  9  2  0  0  0  0
  8 13  1  0  0  0  0
  9 15  1  0  0  0  0
 10  5  1  0  0  0  0
 11  6  1  0  0  0  0
 12  7  1  0  0  0  0
 14 20  1  0  0  0  0
 15 16  1  0  0  0  0
 15 14  2  0  0  0  0
 16 18  2  0  0  0  0
 17 16  1  0  0  0  0
 18 24  1  0  0  0  0
 18 19  1  0  0  0  0
 19 21  1  0  0  0  0
 20 19  2  0  0  0  0
 22 21  1  0  0  0  0
 23 22  1  0  0  0  0
 24 22  1  0  0  0  0
 25 31  1  0  0  0  0
 26 25  2  0  0  0  0
 27 28  1  0  0  0  0
 28 34  1  0  0  0  0
 28 29  2  0  0  0  0
 29 35  1  0  0  0  0
 30 29  1  0  0  0  0
 31 30  2  0  0  0  0
 32 27  2  0  0  0  0
 32 31  1  0  0  0  0
 33 27  1  0  0  0  0
 35 39  2  0  0  0  0
 35 36  1  0  0  0  0
 36 40  1  0  0  0  0
 36 37  2  0  0  0  0
 37 41  1  0  0  0  0
 38 37  1  0  0  0  0
 38 42  1  0  0  0  0
 39 38  1  0  0  0  0
M  END
>  <minimizedAffinity>
-6.79092264

$$$$

 OpenBabel03272509103D

 42 46  0  0  0  0  0  0  0  0999 V2000
   36.0090   29.4190   34.5200 C   0  0  0  0  0  0  0  0  0  0  0  0
   36.7470   30.1080   34.1200 H   0  0  0  0  0  0  0  0  0  0  0  0
   35.9430   29.6250   35.6110 H   0  0  0  0  0  0  0  0  0  0  0  0
   34.6450   29.6910   33.9860 C   0  0  0  0  0  0  0  0  0  0  0  0
   33.4570   29.4560   34.6730 C   0  0  0  0  0  0  0  0  0  0  0  0
   32.2430   29.7430   34.1090 C   0  0  0  0  0  0  0  0  0  0  0  0
   32.1580   30.2760   32.8410 C   0  0  0  0  0  0  0  0  0  0  0  0
   33.3270   30.5120   32.1590 C   0  0  0  0  0  0  0  0  0  0  0  0
   34.5670   30.2260   32.7160 C   0  0  0  0  0  0  0  0  0  0  0  0
   33.6160   29.0300   35.6730 H   0  0  0  0  0  0  0  0  0  0  0  0
   31.4380   29.4990   34.7770 H   0  0  0  0  0  0  0  0  0  0  0  0
   31.1540   30.4640   32.4950 H   0  0  0  0  0  0  0  0  0  0  0  0
   33.1220   30.9320   31.1740 H   0  0  0  0  0  0  0  0  0  0  0  0
   36.3280   31.7100   31.5400 C   0  0  0  0  0  3  0  0  0  0  0  0
   35.6130   30.5570   31.7550 C   0  0  0  0  0  0  0  0  0  0  0  0
   35.9280   29.5180   30.8650 C   0  0  0  0  0  0  0  0  0  0  0  0
   35.4320   28.5440   30.9240 H   0  0  0  0  0  0  0  0  0  0  0  0
   36.8610   29.6020   29.8540 C   0  0  0  0  0  0  0  0  0  0  0  0
   37.5480   30.7840   29.6850 C   0  0  0  0  0  0  0  0  0  0  0  0
   37.2590   31.8090   30.5390 C   0  0  0  0  0  3  0  0  0  0  0  0
   38.4190   30.6220   28.6160 O   0  0  0  0  0  0  0  0  0  0  0  0
   38.6020   29.2280   28.4400 C   0  0  0  0  0  3  0  0  0  0  0  0
   39.4180   28.9280   29.1270 H   0  0  0  0  0  0  0  0  0  0  0  0
   37.3290   28.7340   28.8790 O   0  0  0  0  0  0  0  0  0  0  0  0
   37.4180   27.4890   33.7380 C   0  0  0  0  0  3  0  0  0  0  0  0
   36.4190   28.0000   34.4180 C   0  0  0  0  0  3  0  0  0  0  0  0
   37.6790   23.9580   32.8700 C   0  0  0  0  0  0  0  0  0  0  0  0
   38.0510   23.3830   34.1010 C   0  0  0  0  0  0  0  0  0  0  0  0
   38.2020   24.2460   35.2140 C   0  0  0  0  0  0  0  0  0  0  0  0
   37.9780   25.5810   35.0280 N   0  0  0  0  0  0  0  0  0  0  0  0
   37.6200   26.0590   33.8060 C   0  0  0  0  0  0  0  0  0  0  0  0
   37.4730   25.2650   32.7490 N   0  0  0  0  0  0  0  0  0  0  0  0
   37.5730   23.2530   32.0370 H   0  0  0  0  0  0  0  0  0  0  0  0
   38.2300   22.3210   34.2520 H   0  0  0  0  0  0  0  0  0  0  0  0
   38.5730   23.7620   36.5430 C   0  0  0  0  0  0  0  0  0  0  0  0
   38.0090   24.2630   37.6960 C   0  0  0  0  0  0  0  0  0  0  0  0
   38.5810   23.5750   38.7710 C   0  0  0  0  0  0  0  0  0  0  0  0
   39.4570   22.6980   38.2250 N   0  0  0  0  0  0  0  0  0  0  0  0
   39.4600   22.8030   36.8980 N   0  0  0  0  0  0  0  0  0  0  0  0
   37.2500   25.0510   37.7960 H   0  0  0  0  0  0  0  0  0  0  0  0
   38.3300   23.7540   39.8060 H   0  0  0  0  0  0  0  0  0  0  0  0
   40.0080   22.0680   38.8630 H   0  0  0  0  0  0  0  0  0  0  0  0
  1  3  1  0  0  0  0
  2  1  1  0  0  0  0
  4  1  1  0  0  0  0
  4  5  1  0  0  0  0
  5 10  1  0  0  0  0
  6  5  2  0  0  0  0
  6 11  1  0  0  0  0
  7  6  1  0  0  0  0
  8  9  1  0  0  0  0
  8  7  2  0  0  0  0
  9  4  2  0  0  0  0
 12  7  1  0  0  0  0
 13  8  1  0  0  0  0
 14 15  1  0  0  0  0
 15  9  1  0  0  0  0
 16 17  1  0  0  0  0
 16 15  2  0  0  0  0
 18 16  1  0  0  0  0
 19 18  2  0  0  0  0
 19 20  1  0  0  0  0
 20 14  2  0  0  0  0
 21 19  1  0  0  0  0
 22 21  1  0  0  0  0
 22 24  1  0  0  0  0
 22 23  1  0  0  0  0
 24 18  1  0  0  0  0
 25 31  1  0  0  0  0
 25 26  2  0  0  0  0
 26  1  1  0  0  0  0
 27 28  1  0  0  0  0
 28 34  1  0  0  0  0
 28 29  2  0  0  0  0
 29 35  1  0  0  0  0
 30 29  1  0  0  0  0
 31 30  2  0  0  0  0
 32 27  2  0  0  0  0
 32 31  1  0  0  0  0
 33 27  1  0  0  0  0
 35 39  2  0  0  0  0
 35 36  1  0  0  0  0
 36 40  1  0  0  0  0
 36 37  2  0  0  0  0
 37 41  1  0  0  0  0
 38 37  1  0  0  0  0
 38 42  1  0  0  0  0
 39 38  1  0  0  0  0
M  END
>  <minimizedAffinity>
-6.6639533

$$$$

 OpenBabel03272509103D

 42 46  0  0  0  0  0  0  0  0999 V2000
   37.7900   25.4870   32.6420 C   0  0  0  0  0  0  0  0  0  0  0  0
   38.4120   25.3940   33.5280 H   0  0  0  0  0  0  0  0  0  0  0  0
   38.4790   25.6720   31.7900 H   0  0  0  0  0  0  0  0  0  0  0  0
   37.0920   24.2130   32.3140 C   0  0  0  0  0  0  0  0  0  0  0  0
   36.1660   24.0510   31.2870 C   0  0  0  0  0  0  0  0  0  0  0  0
   35.5750   22.8390   31.0490 C   0  0  0  0  0  0  0  0  0  0  0  0
   35.8800   21.7380   31.8190 C   0  0  0  0  0  0  0  0  0  0  0  0
   36.7950   21.8910   32.8330 C   0  0  0  0  0  0  0  0  0  0  0  0
   37.4030   23.1130   33.0890 C   0  0  0  0  0  0  0  0  0  0  0  0
   35.9810   24.9770   30.7260 H   0  0  0  0  0  0  0  0  0  0  0  0
   34.8910   22.8970   30.2240 H   0  0  0  0  0  0  0  0  0  0  0  0
   35.3590   20.8340   31.5440 H   0  0  0  0  0  0  0  0  0  0  0  0
   36.9470   20.9500   33.3630 H   0  0  0  0  0  0  0  0  0  0  0  0
   39.6320   22.6520   34.3140 C   0  0  0  0  0  3  0  0  0  0  0  0
   38.2990   22.9740   34.2300 C   0  0  0  0  0  0  0  0  0  0  0  0
   37.6840   23.1770   35.4760 C   0  0  0  0  0  0  0  0  0  0  0  0
   36.6230   23.4390   35.5540 H   0  0  0  0  0  0  0  0  0  0  0  0
   38.3180   23.0720   36.6950 C   0  0  0  0  0  0  0  0  0  0  0  0
   39.6550   22.7450   36.7180 C   0  0  0  0  0  0  0  0  0  0  0  0
   40.2770   22.5440   35.5190 C   0  0  0  0  0  3  0  0  0  0  0  0
   40.0600   22.7000   38.0450 O   0  0  0  0  0  0  0  0  0  0  0  0
   39.1150   23.4460   38.7910 C   0  0  0  0  0  3  0  0  0  0  0  0
   39.4400   24.5040   38.7460 H   0  0  0  0  0  0  0  0  0  0  0  0
   37.9280   23.2220   38.0170 O   0  0  0  0  0  0  0  0  0  0  0  0
   37.2220   27.9330   32.7740 C   0  0  0  0  0  3  0  0  0  0  0  0
   36.8950   26.6660   32.6790 C   0  0  0  0  0  3  0  0  0  0  0  0
   34.4780   30.1100   31.7590 C   0  0  0  0  0  0  0  0  0  0  0  0
   34.1630   30.7620   32.9670 C   0  0  0  0  0  0  0  0  0  0  0  0
   34.9210   30.4270   34.1150 C   0  0  0  0  0  0  0  0  0  0  0  0
   35.9100   29.4930   33.9850 N   0  0  0  0  0  0  0  0  0  0  0  0
   36.1530   28.9080   32.7810 C   0  0  0  0  0  0  0  0  0  0  0  0
   35.4540   29.2090   31.6910 N   0  0  0  0  0  0  0  0  0  0  0  0
   33.8670   30.4010   30.8960 H   0  0  0  0  0  0  0  0  0  0  0  0
   33.3770   31.5060   33.0750 H   0  0  0  0  0  0  0  0  0  0  0  0
   34.6930   31.0470   35.4200 C   0  0  0  0  0  0  0  0  0  0  0  0
   33.4510   31.0840   36.0150 C   0  0  0  0  0  0  0  0  0  0  0  0
   33.5980   31.7350   37.2440 C   0  0  0  0  0  0  0  0  0  0  0  0
   34.9100   32.0600   37.3360 N   0  0  0  0  0  0  0  0  0  0  0  0
   35.5710   31.6550   36.2540 N   0  0  0  0  0  0  0  0  0  0  0  0
   32.5010   30.6890   35.6320 H   0  0  0  0  0  0  0  0  0  0  0  0
   32.7880   31.9120   37.9350 H   0  0  0  0  0  0  0  0  0  0  0  0
   35.2480   32.5650   38.1950 H   0  0  0  0  0  0  0  0  0  0  0  0
  1 26  1  0  0  0  0
  1  2  1  0  0  0  0
  3  1  1  0  0  0  0
  4  1  1  0  0  0  0
  4  9  1  0  0  0  0
  5  4  2  0  0  0  0
  6  5  1  0  0  0  0
  6  7  2  0  0  0  0
  7  8  1  0  0  0  0
  8  9  2  0  0  0  0
  8 13  1  0  0  0  0
  9 15  1  0  0  0  0
 10  5  1  0  0  0  0
 11  6  1  0  0  0  0
 12  7  1  0  0  0  0
 14 20  1  0  0  0  0
 15 14  2  0  0  0  0
 15 16  1  0  0  0  0
 16 17  1  0  0  0  0
 16 18  2  0  0  0  0
 18 19  1  0  0  0  0
 18 24  1  0  0  0  0
 19 21  1  0  0  0  0
 20 19  2  0  0  0  0
 21 22  1  0  0  0  0
 23 22  1  0  0  0  0
 24 22  1  0  0  0  0
 25 31  1  0  0  0  0
 26 25  2  0  0  0  0
 27 28  1  0  0  0  0
 28 34  1  0  0  0  0
 28 29  2  0  0  0  0
 29 35  1  0  0  0  0
 30 29  1  0  0  0  0
 31 30  2  0  0  0  0
 32 27  2  0  0  0  0
 32 31  1  0  0  0  0
 33 27  1  0  0  0  0
 35 36  1  0  0  0  0
 35 39  2  0  0  0  0
 36 37  2  0  0  0  0
 37 38  1  0  0  0  0
 37 41  1  0  0  0  0
 38 42  1  0  0  0  0
 39 38  1  0  0  0  0
 40 36  1  0  0  0  0
M  END
>  <minimizedAffinity>
-6.55577803

$$$$

 OpenBabel03272509103D

 42 46  0  0  0  0  0  0  0  0999 V2000
   36.4080   27.8580   34.3580 C   0  0  0  0  0  0  0  0  0  0  0  0
   36.0530   28.3430   35.2630 H   0  0  0  0  0  0  0  0  0  0  0  0
   35.7220   27.0050   34.1660 H   0  0  0  0  0  0  0  0  0  0  0  0
   36.2790   28.7410   33.1650 C   0  0  0  0  0  0  0  0  0  0  0  0
   35.8610   30.0690   33.1970 C   0  0  0  0  0  0  0  0  0  0  0  0
   35.7780   30.8140   32.0510 C   0  0  0  0  0  0  0  0  0  0  0  0
   36.1070   30.2720   30.8280 C   0  0  0  0  0  0  0  0  0  0  0  0
   36.5220   28.9640   30.7910 C   0  0  0  0  0  0  0  0  0  0  0  0
   36.6110   28.1930   31.9430 C   0  0  0  0  0  0  0  0  0  0  0  0
   35.6180   30.4190   34.2090 H   0  0  0  0  0  0  0  0  0  0  0  0
   35.4390   31.8110   32.2620 H   0  0  0  0  0  0  0  0  0  0  0  0
   36.0070   30.9470   29.9920 H   0  0  0  0  0  0  0  0  0  0  0  0
   36.7510   28.6590   29.7680 H   0  0  0  0  0  0  0  0  0  0  0  0
   38.2740   26.3600   31.1960 C   0  0  0  0  0  3  0  0  0  0  0  0
   37.0520   26.8490   31.5890 C   0  0  0  0  0  0  0  0  0  0  0  0
   36.0370   25.8800   31.6270 C   0  0  0  0  0  0  0  0  0  0  0  0
   35.0140   26.1340   31.9230 H   0  0  0  0  0  0  0  0  0  0  0  0
   36.2040   24.5490   31.3080 C   0  0  0  0  0  0  0  0  0  0  0  0
   37.4520   24.1150   30.9190 C   0  0  0  0  0  0  0  0  0  0  0  0
   38.4570   25.0390   30.8750 C   0  0  0  0  0  3  0  0  0  0  0  0
   37.3670   22.7560   30.6530 O   0  0  0  0  0  0  0  0  0  0  0  0
   36.2120   22.2760   31.3190 C   0  0  0  0  0  3  0  0  0  0  0  0
   36.5220   22.0360   32.3550 H   0  0  0  0  0  0  0  0  0  0  0  0
   35.3740   23.4400   31.2720 O   0  0  0  0  0  0  0  0  0  0  0  0
   38.0560   26.0610   34.9700 C   0  0  0  0  0  3  0  0  0  0  0  0
   37.7490   27.2500   34.5090 C   0  0  0  0  0  3  0  0  0  0  0  0
   41.6730   26.0380   34.5140 C   0  0  0  0  0  0  0  0  0  0  0  0
   42.0430   24.8570   35.1870 C   0  0  0  0  0  0  0  0  0  0  0  0
   41.0150   24.0900   35.7880 C   0  0  0  0  0  0  0  0  0  0  0  0
   39.7290   24.5380   35.6790 N   0  0  0  0  0  0  0  0  0  0  0  0
   39.4530   25.6900   35.0100 C   0  0  0  0  0  0  0  0  0  0  0  0
   40.4040   26.4250   34.4390 N   0  0  0  0  0  0  0  0  0  0  0  0
   42.5000   26.5990   34.0650 H   0  0  0  0  0  0  0  0  0  0  0  0
   43.0660   24.4970   35.2770 H   0  0  0  0  0  0  0  0  0  0  0  0
   41.2770   22.8410   36.5020 C   0  0  0  0  0  0  0  0  0  0  0  0
   42.3880   22.0660   36.2530 C   0  0  0  0  0  0  0  0  0  0  0  0
   42.3260   20.9630   37.1110 C   0  0  0  0  0  0  0  0  0  0  0  0
   41.1910   21.1190   37.8330 N   0  0  0  0  0  0  0  0  0  0  0  0
   40.5580   22.2350   37.4770 N   0  0  0  0  0  0  0  0  0  0  0  0
   43.1940   22.2430   35.5280 H   0  0  0  0  0  0  0  0  0  0  0  0
   43.0680   20.1780   37.1420 H   0  0  0  0  0  0  0  0  0  0  0  0
   40.9430   20.3920   38.5520 H   0  0  0  0  0  0  0  0  0  0  0  0
  1 26  1  0  0  0  0
  1  2  1  0  0  0  0
  3  1  1  0  0  0  0
  4  5  1  0  0  0  0
  4  1  1  0  0  0  0
  5 10  1  0  0  0  0
  6 11  1  0  0  0  0
  6  5  2  0  0  0  0
  7  6  1  0  0  0  0
  8  7  2  0  0  0  0
  8  9  1  0  0  0  0
  9  4  2  0  0  0  0
 12  7  1  0  0  0  0
 13  8  1  0  0  0  0
 14 15  1  0  0  0  0
 15 16  2  0  0  0  0
 15  9  1  0  0  0  0
 16 17  1  0  0  0  0
 18 16  1  0  0  0  0
 19 18  2  0  0  0  0
 20 19  1  0  0  0  0
 20 14  2  0  0  0  0
 21 19  1  0  0  0  0
 21 22  1  0  0  0  0
 22 23  1  0  0  0  0
 24 18  1  0  0  0  0
 24 22  1  0  0  0  0
 25 31  1  0  0  0  0
 26 25  2  0  0  0  0
 27 28  1  0  0  0  0
 28 34  1  0  0  0  0
 28 29  2  0  0  0  0
 29 35  1  0  0  0  0
 30 29  1  0  0  0  0
 31 30  2  0  0  0  0
 32 27  2  0  0  0  0
 32 31  1  0  0  0  0
 33 27  1  0  0  0  0
 35 39  2  0  0  0  0
 36 35  1  0  0  0  0
 36 37  2  0  0  0  0
 37 41  1  0  0  0  0
 37 38  1  0  0  0  0
 38 42  1  0  0  0  0
 39 38  1  0  0  0  0
 40 36  1  0  0  0  0
M  END
>  <minimizedAffinity>
-6.44170237

$$$$

 OpenBabel03272509103D

 42 46  0  0  0  0  0  0  0  0999 V2000
   38.1640   26.1170   35.6910 C   0  0  0  0  0  0  0  0  0  0  0  0
   37.5630   25.2240   35.8410 H   0  0  0  0  0  0  0  0  0  0  0  0
   38.4850   26.4560   36.7000 H   0  0  0  0  0  0  0  0  0  0  0  0
   39.4260   25.8230   34.9560 C   0  0  0  0  0  0  0  0  0  0  0  0
   40.5060   26.6950   34.8430 C   0  0  0  0  0  0  0  0  0  0  0  0
   41.6340   26.3410   34.1530 C   0  0  0  0  0  0  0  0  0  0  0  0
   41.7370   25.1080   33.5470 C   0  0  0  0  0  0  0  0  0  0  0  0
   40.6750   24.2430   33.6560 C   0  0  0  0  0  0  0  0  0  0  0  0
   39.5230   24.5860   34.3520 C   0  0  0  0  0  0  0  0  0  0  0  0
   40.3390   27.6540   35.3530 H   0  0  0  0  0  0  0  0  0  0  0  0
   42.3610   27.1310   34.1690 H   0  0  0  0  0  0  0  0  0  0  0  0
   42.6680   24.9330   33.0320 H   0  0  0  0  0  0  0  0  0  0  0  0
   40.8830   23.3070   33.1360 H   0  0  0  0  0  0  0  0  0  0  0  0
   38.1970   22.5300   35.1880 C   0  0  0  0  0  3  0  0  0  0  0  0
   38.5690   23.4860   34.2740 C   0  0  0  0  0  0  0  0  0  0  0  0
   37.9350   23.3580   33.0280 C   0  0  0  0  0  0  0  0  0  0  0  0
   38.1410   24.0550   32.2080 H   0  0  0  0  0  0  0  0  0  0  0  0
   37.0190   22.3810   32.7050 C   0  0  0  0  0  0  0  0  0  0  0  0
   36.6840   21.4480   33.6610 C   0  0  0  0  0  0  0  0  0  0  0  0
   37.2870   21.5510   34.8820 C   0  0  0  0  0  3  0  0  0  0  0  0
   35.7550   20.5810   33.1040 O   0  0  0  0  0  0  0  0  0  0  0  0
   35.1800   21.2480   31.9950 C   0  0  0  0  0  3  0  0  0  0  0  0
   34.3450   21.8590   32.3900 H   0  0  0  0  0  0  0  0  0  0  0  0
   36.2820   22.0650   31.5740 O   0  0  0  0  0  0  0  0  0  0  0  0
   36.9510   27.4040   33.9040 C   0  0  0  0  0  3  0  0  0  0  0  0
   37.3940   27.2500   35.1280 C   0  0  0  0  0  3  0  0  0  0  0  0
   35.2260   30.0850   32.1350 C   0  0  0  0  0  0  0  0  0  0  0  0
   34.7900   30.9010   33.1980 C   0  0  0  0  0  0  0  0  0  0  0  0
   35.1110   30.4950   34.5160 C   0  0  0  0  0  0  0  0  0  0  0  0
   35.8230   29.3400   34.6790 N   0  0  0  0  0  0  0  0  0  0  0  0
   36.2080   28.6070   33.5990 C   0  0  0  0  0  0  0  0  0  0  0  0
   35.9170   28.9710   32.3540 N   0  0  0  0  0  0  0  0  0  0  0  0
   34.9560   30.4380   31.1330 H   0  0  0  0  0  0  0  0  0  0  0  0
   34.2230   31.8210   33.0720 H   0  0  0  0  0  0  0  0  0  0  0  0
   34.7230   31.2660   35.6960 C   0  0  0  0  0  0  0  0  0  0  0  0
   33.4240   31.3220   36.1480 C   0  0  0  0  0  0  0  0  0  0  0  0
   33.4150   32.1320   37.2890 C   0  0  0  0  0  0  0  0  0  0  0  0
   34.6980   32.5250   37.4740 N   0  0  0  0  0  0  0  0  0  0  0  0
   35.4860   32.0150   36.5290 N   0  0  0  0  0  0  0  0  0  0  0  0
   32.5340   30.8390   35.7240 H   0  0  0  0  0  0  0  0  0  0  0  0
   32.5290   32.3590   37.8630 H   0  0  0  0  0  0  0  0  0  0  0  0
   34.9240   33.1510   38.2880 H   0  0  0  0  0  0  0  0  0  0  0  0
  1  2  1  0  0  0  0
  1  3  1  0  0  0  0
  4  1  1  0  0  0  0
  5  4  1  0  0  0  0
  5 10  1  0  0  0  0
  6 11  1  0  0  0  0
  6  5  2  0  0  0  0
  7  8  2  0  0  0  0
  7  6  1  0  0  0  0
  8  9  1  0  0  0  0
  9  4  2  0  0  0  0
 12  7  1  0  0  0  0
 13  8  1  0  0  0  0
 15  9  1  0  0  0  0
 15 14  2  0  0  0  0
 16 15  1  0  0  0  0
 17 16  1  0  0  0  0
 18 16  2  0  0  0  0
 18 19  1  0  0  0  0
 19 20  2  0  0  0  0
 20 14  1  0  0  0  0
 21 19  1  0  0  0  0
 22 23  1  0  0  0  0
 22 21  1  0  0  0  0
 24 22  1  0  0  0  0
 24 18  1  0  0  0  0
 25 26  2  0  0  0  0
 26  1  1  0  0  0  0
 27 32  2  0  0  0  0
 27 28  1  0  0  0  0
 28 29  2  0  0  0  0
 29 30  1  0  0  0  0
 29 35  1  0  0  0  0
 31 25  1  0  0  0  0
 31 30  2  0  0  0  0
 32 31  1  0  0  0  0
 33 27  1  0  0  0  0
 34 28  1  0  0  0  0
 35 36  1  0  0  0  0
 35 39  2  0  0  0  0
 36 37  2  0  0  0  0
 37 38  1  0  0  0  0
 37 41  1  0  0  0  0
 38 42  1  0  0  0  0
 39 38  1  0  0  0  0
 40 36  1  0  0  0  0
M  END
>  <minimizedAffinity>
-6.37800598

$$$$

 OpenBabel03272509103D

 42 46  0  0  0  0  0  0  0  0999 V2000
   35.2600   29.1180   33.5830 C   0  0  0  0  0  0  0  0  0  0  0  0
   34.2500   28.8040   33.3360 H   0  0  0  0  0  0  0  0  0  0  0  0
   35.6000   28.4660   34.4160 H   0  0  0  0  0  0  0  0  0  0  0  0
   36.2130   28.8560   32.4670 C   0  0  0  0  0  0  0  0  0  0  0  0
   36.1250   29.4160   31.1950 C   0  0  0  0  0  0  0  0  0  0  0  0
   37.0500   29.1270   30.2280 C   0  0  0  0  0  0  0  0  0  0  0  0
   38.1010   28.2720   30.4840 C   0  0  0  0  0  0  0  0  0  0  0  0
   38.1930   27.7190   31.7370 C   0  0  0  0  0  0  0  0  0  0  0  0
   37.2630   28.0000   32.7300 C   0  0  0  0  0  0  0  0  0  0  0  0
   35.2600   30.0820   31.0770 H   0  0  0  0  0  0  0  0  0  0  0  0
   36.8280   29.6430   29.3130 H   0  0  0  0  0  0  0  0  0  0  0  0
   38.7700   28.1160   29.6530 H   0  0  0  0  0  0  0  0  0  0  0  0
   39.0640   27.0650   31.8090 H   0  0  0  0  0  0  0  0  0  0  0  0
   37.9420   27.6650   35.2020 C   0  0  0  0  0  3  0  0  0  0  0  0
   37.6060   27.2540   33.9350 C   0  0  0  0  0  0  0  0  0  0  0  0
   37.6260   25.8600   33.7650 C   0  0  0  0  0  0  0  0  0  0  0  0
   37.3780   25.3980   32.8040 H   0  0  0  0  0  0  0  0  0  0  0  0
   37.9470   24.9500   34.7490 C   0  0  0  0  0  0  0  0  0  0  0  0
   38.2770   25.4200   36.0000 C   0  0  0  0  0  0  0  0  0  0  0  0
   38.2650   26.7720   36.1920 C   0  0  0  0  0  3  0  0  0  0  0  0
   38.5580   24.3250   36.8060 O   0  0  0  0  0  0  0  0  0  0  0  0
   37.9540   23.1980   36.1970 C   0  0  0  0  0  3  0  0  0  0  0  0
   36.9060   23.1700   36.5550 H   0  0  0  0  0  0  0  0  0  0  0  0
   38.0330   23.5680   34.8130 O   0  0  0  0  0  0  0  0  0  0  0  0
   35.7930   30.8990   35.2750 C   0  0  0  0  0  3  0  0  0  0  0  0
   35.3290   30.4970   34.1160 C   0  0  0  0  0  3  0  0  0  0  0  0
   36.7200   34.4050   35.6570 C   0  0  0  0  0  0  0  0  0  0  0  0
   35.5250   34.9700   36.1430 C   0  0  0  0  0  0  0  0  0  0  0  0
   34.4160   34.1080   36.3300 C   0  0  0  0  0  0  0  0  0  0  0  0
   34.5700   32.7850   36.0280 N   0  0  0  0  0  0  0  0  0  0  0  0
   35.7590   32.3160   35.5630 C   0  0  0  0  0  0  0  0  0  0  0  0
   36.8120   33.1080   35.3810 N   0  0  0  0  0  0  0  0  0  0  0  0
   37.5510   35.1080   35.5280 H   0  0  0  0  0  0  0  0  0  0  0  0
   35.3970   36.0230   36.3850 H   0  0  0  0  0  0  0  0  0  0  0  0
   33.1280   34.5780   36.8410 C   0  0  0  0  0  0  0  0  0  0  0  0
   32.9960   35.1780   38.0740 C   0  0  0  0  0  0  0  0  0  0  0  0
   31.6460   35.5050   38.2340 C   0  0  0  0  0  0  0  0  0  0  0  0
   31.0280   35.0940   37.1020 N   0  0  0  0  0  0  0  0  0  0  0  0
   31.9030   34.5390   36.2650 N   0  0  0  0  0  0  0  0  0  0  0  0
   33.7770   35.3790   38.8200 H   0  0  0  0  0  0  0  0  0  0  0  0
   31.2410   35.9900   39.1100 H   0  0  0  0  0  0  0  0  0  0  0  0
   29.9910   35.2440   37.0070 H   0  0  0  0  0  0  0  0  0  0  0  0
  1 26  1  0  0  0  0
  1  3  1  0  0  0  0
  2  1  1  0  0  0  0
  4  9  1  0  0  0  0
  4  1  1  0  0  0  0
  5  4  2  0  0  0  0
  6  7  2  0  0  0  0
  6  5  1  0  0  0  0
  7  8  1  0  0  0  0
  8 13  1  0  0  0  0
  8  9  2  0  0  0  0
  9 15  1  0  0  0  0
 10  5  1  0  0  0  0
 11  6  1  0  0  0  0
 12  7  1  0  0  0  0
 14 20  1  0  0  0  0
 15 14  2  0  0  0  0
 16 15  1  0  0  0  0
 16 18  2  0  0  0  0
 17 16  1  0  0  0  0
 18 24  1  0  0  0  0
 18 19  1  0  0  0  0
 19 20  2  0  0  0  0
 19 21  1  0  0  0  0
 22 23  1  0  0  0  0
 22 21  1  0  0  0  0
 24 22  1  0  0  0  0
 25 31  1  0  0  0  0
 26 25  2  0  0  0  0
 27 28  1  0  0  0  0
 28 29  2  0  0  0  0
 28 34  1  0  0  0  0
 29 35  1  0  0  0  0
 30 29  1  0  0  0  0
 31 30  2  0  0  0  0
 32 31  1  0  0  0  0
 32 27  2  0  0  0  0
 33 27  1  0  0  0  0
 35 36  1  0  0  0  0
 36 37  2  0  0  0  0
 36 40  1  0  0  0  0
 37 41  1  0  0  0  0
 38 37  1  0  0  0  0
 39 35  2  0  0  0  0
 39 38  1  0  0  0  0
 42 38  1  0  0  0  0
M  END
>  <minimizedAffinity>
-6.29049444

$$$$
