
 OpenBabel03272507323D

 38 42  0  0  1  0  0  0  0  0999 V2000
   33.1960   27.3040   48.2720 C   0  0  0  0  0  0  0  0  0  0  0  0
   31.9580   27.2590   48.5560 O   0  0  0  0  0  0  0  0  0  0  0  0
   35.8530   29.2180   49.7060 C   0  0  0  0  0  0  0  0  0  0  0  0
   34.7930   29.8280   50.3380 C   0  0  0  0  0  0  0  0  0  0  0  0
   33.6200   29.1990   49.8910 C   0  0  0  0  0  0  0  0  0  0  0  0
   34.0530   28.2330   49.0050 C   0  0  0  0  0  0  0  0  0  0  0  0
   35.3660   28.2820   48.9290 O   0  0  0  0  0  0  0  0  0  0  0  0
   34.7560   30.6460   51.0590 H   0  0  0  0  0  0  0  0  0  0  0  0
   32.5930   29.3920   50.1530 H   0  0  0  0  0  0  0  0  0  0  0  0
   37.2310   29.6230   49.9390 C   0  0  0  0  0  0  0  0  0  0  0  0
   37.8650   29.1070   50.8690 O   0  0  0  0  0  0  0  0  0  0  0  0
   37.7780   30.6150   49.0560 C   0  0  0  0  0  0  0  0  0  0  0  0
   38.1620   31.8180   49.6200 C   0  0  0  0  0  0  0  0  0  0  0  0
   38.6960   32.8080   48.7860 C   0  0  0  0  0  0  0  0  0  0  0  0
   38.8090   32.5270   47.4460 N   0  0  0  0  0  0  0  0  0  0  0  0
   38.4290   31.3550   46.9370 C   0  0  0  0  0  0  0  0  0  0  0  0
   37.9150   30.4020   47.7300 N   0  0  0  0  0  0  0  0  0  0  0  0
   38.0790   32.0510   50.6630 H   0  0  0  0  0  0  0  0  0  0  0  0
   39.0000   33.7540   49.2220 H   0  0  0  0  0  0  0  0  0  0  0  0
   38.5130   31.1250   45.8830 H   0  0  0  0  0  0  0  0  0  0  0  0
   33.7540   26.4190   47.2180 C   0  0  1  0  0  0  0  0  0  0  0  0
   32.6140   25.8980   46.2550 C   0  0  0  0  0  0  0  0  0  0  0  0
   33.7070   26.7500   45.7910 C   0  0  1  0  0  0  0  0  0  0  0  0
   34.2780   25.5300   47.6410 H   0  0  0  0  0  0  0  0  0  0  0  0
   32.6340   24.8160   46.0190 H   0  0  0  0  0  0  0  0  0  0  0  0
   31.5990   26.2540   46.4560 H   0  0  0  0  0  0  0  0  0  0  0  0
   34.5440   26.2240   45.2230 H   0  0  0  0  0  0  0  0  0  0  0  0
   34.5820   28.9270   45.1100 C   0  0  0  0  0  3  0  0  0  0  0  0
   33.4620   28.1100   45.2650 C   0  0  0  0  0  0  0  0  0  0  0  0
   32.2640   28.6770   44.8890 C   0  0  0  0  0  0  0  0  0  0  0  0
   31.3950   28.0570   44.9920 H   0  0  0  0  0  0  0  0  0  0  0  0
   32.1980   29.9630   44.3970 C   0  0  0  0  0  0  0  0  0  0  0  0
   33.2980   30.7590   44.2480 C   0  0  0  0  0  0  0  0  0  0  0  0
   34.5200   30.2330   44.6110 C   0  0  0  0  0  3  0  0  0  0  0  0
   32.9080   31.9850   43.7350 O   0  0  0  0  0  0  0  0  0  0  0  0
   31.5760   31.8260   43.2800 C   0  0  0  0  0  3  0  0  0  0  0  0
   31.0020   32.7050   43.5780 H   0  0  0  0  0  0  0  0  0  0  0  0
   31.0740   30.6840   43.9750 O   0  0  0  0  0  0  0  0  0  0  0  0
  1  2  2  0  0  0  0
  1  6  1  0  0  0  0
  3 10  1  0  0  0  0
  3  4  2  0  0  0  0
  4  8  1  0  0  0  0
  5  9  1  0  0  0  0
  5  4  1  0  0  0  0
  6  5  2  0  0  0  0
  7  6  1  0  0  0  0
  7  3  1  0  0  0  0
 10 11  2  0  0  0  0
 12 13  1  0  0  0  0
 12 10  1  0  0  0  0
 13 18  1  0  0  0  0
 14 19  1  0  0  0  0
 14 13  2  0  0  0  0
 15 14  1  0  0  0  0
 16 15  2  0  0  0  0
 16 17  1  0  0  0  0
 17 12  2  0  0  0  0
 20 16  1  0  0  0  0
 21 24  1  1  0  0  0
 21  1  1  0  0  0  0
 22 26  1  0  0  0  0
 22 21  1  0  0  0  0
 23 27  1  6  0  0  0
 23 22  1  0  0  0  0
 23 21  1  0  0  0  0
 25 22  1  0  0  0  0
 28 29  1  0  0  0  0
 29 23  1  0  0  0  0
 30 31  1  0  0  0  0
 30 29  2  0  0  0  0
 32 30  1  0  0  0  0
 33 32  2  0  0  0  0
 33 34  1  0  0  0  0
 34 28  2  0  0  0  0
 35 33  1  0  0  0  0
 36 37  1  0  0  0  0
 36 35  1  0  0  0  0
 36 38  1  0  0  0  0
 38 32  1  0  0  0  0
M  END
>  <minimizedAffinity>
-5.53999567

>  <minimizedRMSD>
4.17597342

$$$$
