
 OpenBabel03272505063D

 35 38  0  0  1  0  0  0  0  0999 V2000
   36.3860   29.1630   50.2960 C   0  0  0  0  0  0  0  0  0  0  0  0
   36.9320   29.5050   49.0600 C   0  0  0  0  0  0  0  0  0  0  0  0
   36.0750   30.1810   48.1780 C   0  0  0  0  0  0  0  0  0  0  0  0
   34.8150   30.4490   48.5720 N   0  0  0  0  0  0  0  0  0  0  0  0
   34.3430   30.0970   49.7750 C   0  0  0  0  0  0  0  0  0  0  0  0
   35.1310   29.4500   50.6450 N   0  0  0  0  0  0  0  0  0  0  0  0
   36.4050   30.6190   46.8550 N   0  0  0  0  0  0  0  0  0  0  0  0
   37.6110   31.3080   46.5070 C   0  0  0  0  0  0  0  0  0  0  0  0
   38.3170   30.8640   45.2880 C   0  0  0  0  0  0  0  0  0  0  0  0
   37.4600   30.4230   44.1500 C   0  0  0  0  0  0  0  0  0  0  0  0
   36.3580   29.5480   44.6810 C   0  0  0  0  0  0  0  0  0  0  0  0
   35.5910   30.4410   45.6850 C   0  0  1  0  0  0  0  0  0  0  0  0
   37.1110   28.6390   50.9310 H   0  0  0  0  0  0  0  0  0  0  0  0
   37.9170   29.3220   48.6910 H   0  0  0  0  0  0  0  0  0  0  0  0
   33.3380   30.2980   50.1210 H   0  0  0  0  0  0  0  0  0  0  0  0
   38.3010   31.2490   47.3780 H   0  0  0  0  0  0  0  0  0  0  0  0
   37.3310   32.3980   46.4310 H   0  0  0  0  0  0  0  0  0  0  0  0
   38.9480   31.7160   44.9230 H   0  0  0  0  0  0  0  0  0  0  0  0
   39.0290   30.0430   45.5310 H   0  0  0  0  0  0  0  0  0  0  0  0
   36.9530   31.3210   43.7110 H   0  0  0  0  0  0  0  0  0  0  0  0
   38.1020   29.9150   43.4060 H   0  0  0  0  0  0  0  0  0  0  0  0
   36.8620   28.7460   45.2790 H   0  0  0  0  0  0  0  0  0  0  0  0
   35.6870   29.1340   43.9230 H   0  0  0  0  0  0  0  0  0  0  0  0
   35.2840   31.3710   45.1810 H   0  0  0  0  0  0  0  0  0  0  0  0
   34.3310   28.2970   46.2290 C   0  0  0  0  0  3  0  0  0  0  0  0
   34.3380   29.6480   45.9510 C   0  0  0  0  0  0  0  0  0  0  0  0
   33.0840   30.2680   45.9260 C   0  0  0  0  0  0  0  0  0  0  0  0
   33.0740   31.3210   45.7100 H   0  0  0  0  0  0  0  0  0  0  0  0
   31.9070   29.6150   46.1560 C   0  0  0  0  0  0  0  0  0  0  0  0
   31.9400   28.2630   46.4320 C   0  0  0  0  0  0  0  0  0  0  0  0
   33.1560   27.6120   46.4660 C   0  0  0  0  0  3  0  0  0  0  0  0
   30.6120   27.8420   46.6270 O   0  0  0  0  0  0  0  0  0  0  0  0
   29.8110   28.7820   45.9030 C   0  0  0  0  0  3  0  0  0  0  0  0
   29.9250   28.5430   44.8110 H   0  0  0  0  0  0  0  0  0  0  0  0
   30.5640   29.9700   46.1930 O   0  0  0  0  0  0  0  0  0  0  0  0
  1  6  1  0  0  0  0
  1 13  1  0  0  0  0
  2  1  2  0  0  0  0
  3  4  2  0  0  0  0
  3  2  1  0  0  0  0
  4  5  1  0  0  0  0
  5 15  1  0  0  0  0
  5  6  2  0  0  0  0
  7  3  1  0  0  0  0
  8  7  1  0  0  0  0
  8 16  1  0  0  0  0
  9 19  1  0  0  0  0
  9  8  1  0  0  0  0
 10 11  1  0  0  0  0
 10  9  1  0  0  0  0
 11 22  1  0  0  0  0
 11 12  1  0  0  0  0
 12 24  1  6  0  0  0
 12 26  1  0  0  0  0
 12  7  1  0  0  0  0
 14  2  1  0  0  0  0
 17  8  1  0  0  0  0
 18  9  1  0  0  0  0
 20 10  1  0  0  0  0
 21 10  1  0  0  0  0
 23 11  1  0  0  0  0
 25 31  1  0  0  0  0
 26 25  2  0  0  0  0
 27 26  1  0  0  0  0
 27 29  2  0  0  0  0
 28 27  1  0  0  0  0
 29 35  1  0  0  0  0
 29 30  1  0  0  0  0
 30 31  2  0  0  0  0
 30 32  1  0  0  0  0
 33 35  1  0  0  0  0
 33 32  1  0  0  0  0
 34 33  1  0  0  0  0
M  END
>  <minimizedAffinity>
-4.44919062

>  <minimizedRMSD>
3.44688511

$$$$
