
 OpenBabel03272508303D

 34 37  0  0  1  0  0  0  0  0999 V2000
   37.2210   31.6780   48.7800 N   0  0  0  0  0  0  0  0  0  0  0  0
   37.2460   31.4000   47.3490 C   0  0  0  0  0  0  0  0  0  0  0  0
   38.3080   32.1380   46.6260 C   0  0  0  0  0  0  0  0  0  0  0  0
   39.3670   32.4910   47.5330 N   0  0  0  0  0  0  0  0  0  0  0  0
   38.8260   33.5020   48.4310 C   0  0  0  0  0  0  0  0  0  0  0  0
   37.9860   32.7370   49.4210 C   0  0  1  0  0  0  0  0  0  0  0  0
   37.4230   30.3070   47.2500 H   0  0  0  0  0  0  0  0  0  0  0  0
   36.2210   31.5440   46.9000 H   0  0  0  0  0  0  0  0  0  0  0  0
   38.7530   31.4790   45.8340 H   0  0  0  0  0  0  0  0  0  0  0  0
   37.9330   33.0200   46.0610 H   0  0  0  0  0  0  0  0  0  0  0  0
   40.2010   32.8310   47.0220 H   0  0  0  0  0  0  0  0  0  0  0  0
   39.6310   34.0100   49.0100 H   0  0  0  0  0  0  0  0  0  0  0  0
   38.2500   34.2250   47.8190 H   0  0  0  0  0  0  0  0  0  0  0  0
   38.6910   32.2230   50.1080 H   0  0  0  0  0  0  0  0  0  0  0  0
   37.2630   33.8360   51.5890 C   0  0  0  0  0  3  0  0  0  0  0  0
   37.1240   33.6430   50.2290 C   0  0  0  0  0  0  0  0  0  0  0  0
   36.1270   34.3160   49.5320 C   0  0  0  0  0  0  0  0  0  0  0  0
   35.9440   34.2280   48.4730 H   0  0  0  0  0  0  0  0  0  0  0  0
   35.3060   35.1630   50.2420 C   0  0  0  0  0  0  0  0  0  0  0  0
   35.4610   35.3480   51.6190 C   0  0  0  0  0  0  0  0  0  0  0  0
   36.4580   34.6760   52.3230 C   0  0  0  0  0  3  0  0  0  0  0  0
   34.4910   36.2610   52.0710 O   0  0  0  0  0  0  0  0  0  0  0  0
   34.0110   36.9350   50.9240 C   0  0  0  0  0  3  0  0  0  0  0  0
   34.6300   37.8520   50.8060 H   0  0  0  0  0  0  0  0  0  0  0  0
   34.2250   35.9870   49.8930 O   0  0  0  0  0  0  0  0  0  0  0  0
   36.9220   30.2210   50.7410 C   0  0  0  0  0  0  0  0  0  0  0  0
   36.4050   30.8740   49.6190 C   0  0  0  0  0  0  0  0  0  0  0  0
   35.0520   30.7010   49.3570 C   0  0  0  0  0  0  0  0  0  0  0  0
   34.2960   29.9200   50.1900 N   0  0  0  0  0  0  0  0  0  0  0  0
   34.8610   29.3140   51.2620 C   0  0  0  0  0  0  0  0  0  0  0  0
   36.1750   29.4530   51.5560 N   0  0  0  0  0  0  0  0  0  0  0  0
   37.9670   30.3300   50.9780 H   0  0  0  0  0  0  0  0  0  0  0  0
   34.5980   31.1810   48.5050 H   0  0  0  0  0  0  0  0  0  0  0  0
   34.3060   28.6860   51.9490 H   0  0  0  0  0  0  0  0  0  0  0  0
  1  6  1  0  0  0  0
  1 27  1  0  0  0  0
  2  1  1  0  0  0  0
  3  2  1  0  0  0  0
  3  4  1  0  0  0  0
  4  5  1  0  0  0  0
  5 12  1  0  0  0  0
  5  6  1  0  0  0  0
  6 14  1  1  0  0  0
  6 16  1  0  0  0  0
  7  2  1  0  0  0  0
  8  2  1  0  0  0  0
  9  3  1  0  0  0  0
 10  3  1  0  0  0  0
 11  4  1  0  0  0  0
 13  5  1  0  0  0  0
 15 21  1  0  0  0  0
 16 15  2  0  0  0  0
 17 16  1  0  0  0  0
 17 19  2  0  0  0  0
 18 17  1  0  0  0  0
 19 20  1  0  0  0  0
 20 22  1  0  0  0  0
 20 21  2  0  0  0  0
 23 22  1  0  0  0  0
 24 23  1  0  0  0  0
 25 19  1  0  0  0  0
 25 23  1  0  0  0  0
 26 32  1  0  0  0  0
 26 31  1  0  0  0  0
 27 26  2  0  0  0  0
 28 27  1  0  0  0  0
 28 29  2  0  0  0  0
 29 30  1  0  0  0  0
 30 31  2  0  0  0  0
 30 34  1  0  0  0  0
 33 28  1  0  0  0  0
M  END
>  <minimizedAffinity>
8.33537579

>  <minimizedRMSD>
0.782113612

$$$$
