
 OpenBabel03272507123D

 42 47  0  0  0  0  0  0  0  0999 V2000
   35.8000   29.1170   49.8900 C   0  0  0  0  0  0  0  0  0  0  0  0
   34.7440   29.6500   50.5750 C   0  0  0  0  0  0  0  0  0  0  0  0
   33.5890   29.0710   50.0420 C   0  0  0  0  0  0  0  0  0  0  0  0
   34.0280   28.1970   49.0350 C   0  0  0  0  0  0  0  0  0  0  0  0
   35.3230   28.2790   49.0080 O   0  0  0  0  0  0  0  0  0  0  0  0
   34.7700   30.3870   51.3860 H   0  0  0  0  0  0  0  0  0  0  0  0
   32.6080   29.3180   50.4030 H   0  0  0  0  0  0  0  0  0  0  0  0
   33.5180   26.4460   47.3510 C   0  0  0  0  0  0  0  0  0  0  0  0
   33.0970   27.4100   48.2510 C   0  0  0  0  0  0  0  0  0  0  0  0
   31.7610   27.6570   48.4380 C   0  0  0  0  0  0  0  0  0  0  0  0
   30.8330   26.9250   47.7090 C   0  0  0  0  0  0  0  0  0  0  0  0
   29.4940   26.9550   47.6910 N   0  0  0  0  0  0  0  0  0  0  0  0
   29.0870   26.0410   46.8080 N   0  0  0  0  0  0  0  0  0  0  0  0
   30.1600   25.4350   46.2700 C   0  0  0  0  0  0  0  0  0  0  0  0
   31.3090   25.9760   46.8250 C   0  0  0  0  0  0  0  0  0  0  0  0
   32.6410   25.7070   46.6180 C   0  0  0  0  0  0  0  0  0  0  0  0
   34.5900   26.2610   47.2140 H   0  0  0  0  0  0  0  0  0  0  0  0
   31.3360   28.4030   49.1300 H   0  0  0  0  0  0  0  0  0  0  0  0
   28.8470   27.5770   48.2580 H   0  0  0  0  0  0  0  0  0  0  0  0
   30.1890   24.6380   45.5150 H   0  0  0  0  0  0  0  0  0  0  0  0
   33.0010   24.9650   45.9250 H   0  0  0  0  0  0  0  0  0  0  0  0
   37.1690   29.4930   50.1820 C   0  0  0  0  0  0  0  0  0  0  0  0
   37.7900   28.8740   51.0880 O   0  0  0  0  0  0  0  0  0  0  0  0
   37.7460   30.5680   49.4070 C   0  0  0  0  0  0  0  0  0  0  0  0
   37.8940   31.7990   50.0380 C   0  0  0  0  0  0  0  0  0  0  0  0
   38.4490   32.8560   49.3150 C   0  0  0  0  0  0  0  0  0  0  0  0
   38.8120   32.6040   48.0270 N   0  0  0  0  0  0  0  0  0  0  0  0
   38.6600   31.4190   47.4470 C   0  0  0  0  0  0  0  0  0  0  0  0
   38.1260   30.4050   48.1430 N   0  0  0  0  0  0  0  0  0  0  0  0
   37.5820   31.9150   51.0640 H   0  0  0  0  0  0  0  0  0  0  0  0
   38.5520   33.8000   49.8310 H   0  0  0  0  0  0  0  0  0  0  0  0
   40.3620   31.4470   45.6600 C   0  0  0  0  0  3  0  0  0  0  0  0
   39.0640   31.2010   46.0630 C   0  0  0  0  0  0  0  0  0  0  0  0
   38.1820   30.7490   45.1120 C   0  0  0  0  0  0  0  0  0  0  0  0
   37.1590   30.5450   45.3760 H   0  0  0  0  0  0  0  0  0  0  0  0
   38.5860   30.5480   43.7960 C   0  0  0  0  0  0  0  0  0  0  0  0
   39.8830   30.7920   43.3930 C   0  0  0  0  0  0  0  0  0  0  0  0
   40.7620   31.2460   44.3550 C   0  0  0  0  0  3  0  0  0  0  0  0
   39.9790   30.4980   42.0280 O   0  0  0  0  0  0  0  0  0  0  0  0
   38.8010   29.7910   41.6820 C   0  0  0  0  0  3  0  0  0  0  0  0
   38.9790   28.6910   41.7320 H   0  0  0  0  0  0  0  0  0  0  0  0
   37.8550   30.1020   42.7060 O   0  0  0  0  0  0  0  0  0  0  0  0
  1 22  1  0  0  0  0
  1  2  2  0  0  0  0
  2  6  1  0  0  0  0
  3  7  1  0  0  0  0
  3  2  1  0  0  0  0
  4  3  2  0  0  0  0
  5  4  1  0  0  0  0
  5  1  1  0  0  0  0
  8  9  1  0  0  0  0
  9 10  2  0  0  0  0
  9  4  1  0  0  0  0
 10 18  1  0  0  0  0
 11 10  1  0  0  0  0
 12 11  1  0  0  0  0
 12 19  1  0  0  0  0
 13 12  1  0  0  0  0
 14 13  2  0  0  0  0
 14 15  1  0  0  0  0
 15 11  2  0  0  0  0
 16 15  1  0  0  0  0
 16  8  2  0  0  0  0
 17  8  1  0  0  0  0
 20 14  1  0  0  0  0
 21 16  1  0  0  0  0
 22 23  2  0  0  0  0
 24 25  1  0  0  0  0
 24 22  1  0  0  0  0
 25 30  1  0  0  0  0
 26 31  1  0  0  0  0
 26 25  2  0  0  0  0
 27 26  1  0  0  0  0
 28 27  2  0  0  0  0
 28 29  1  0  0  0  0
 29 24  2  0  0  0  0
 32 33  1  0  0  0  0
 33 28  1  0  0  0  0
 34 35  1  0  0  0  0
 34 33  2  0  0  0  0
 36 34  1  0  0  0  0
 37 36  2  0  0  0  0
 37 38  1  0  0  0  0
 38 32  2  0  0  0  0
 39 37  1  0  0  0  0
 40 41  1  0  0  0  0
 40 39  1  0  0  0  0
 40 42  1  0  0  0  0
 42 36  1  0  0  0  0
M  END
>  <minimizedAffinity>
-7.52744246

>  <minimizedRMSD>
0.503603518

$$$$
