
 OpenBabel03272507333D

 38 42  0  0  1  0  0  0  0  0999 V2000
   33.0370   27.7780   48.5190 C   0  0  0  0  0  0  0  0  0  0  0  0
   31.8870   27.6040   49.0290 O   0  0  0  0  0  0  0  0  0  0  0  0
   35.9830   29.2630   49.8960 C   0  0  0  0  0  0  0  0  0  0  0  0
   35.0610   29.7690   50.7830 C   0  0  0  0  0  0  0  0  0  0  0  0
   33.8000   29.2860   50.3980 C   0  0  0  0  0  0  0  0  0  0  0  0
   34.0440   28.5070   49.2860 C   0  0  0  0  0  0  0  0  0  0  0  0
   35.3350   28.5240   49.0300 O   0  0  0  0  0  0  0  0  0  0  0  0
   35.1750   30.4240   51.6480 H   0  0  0  0  0  0  0  0  0  0  0  0
   32.8320   29.4580   50.8400 H   0  0  0  0  0  0  0  0  0  0  0  0
   37.4030   29.5630   49.9990 C   0  0  0  0  0  0  0  0  0  0  0  0
   38.1030   28.9140   50.7890 O   0  0  0  0  0  0  0  0  0  0  0  0
   37.9110   30.6130   49.1600 C   0  0  0  0  0  0  0  0  0  0  0  0
   38.2470   31.8050   49.7760 C   0  0  0  0  0  0  0  0  0  0  0  0
   38.7420   32.8500   48.9870 C   0  0  0  0  0  0  0  0  0  0  0  0
   38.8670   32.6320   47.6370 N   0  0  0  0  0  0  0  0  0  0  0  0
   38.5340   31.4680   47.0760 C   0  0  0  0  0  0  0  0  0  0  0  0
   38.0580   30.4630   47.8270 N   0  0  0  0  0  0  0  0  0  0  0  0
   38.1540   31.9890   50.8280 H   0  0  0  0  0  0  0  0  0  0  0  0
   39.0080   33.7880   49.4640 H   0  0  0  0  0  0  0  0  0  0  0  0
   38.6280   31.2870   46.0140 H   0  0  0  0  0  0  0  0  0  0  0  0
   33.3470   27.2390   47.1690 C   0  0  1  0  0  0  0  0  0  0  0  0
   32.6330   25.8480   46.9380 C   0  0  0  0  0  0  0  0  0  0  0  0
   32.3260   27.0320   46.1390 C   0  0  1  0  0  0  0  0  0  0  0  0
   34.4410   27.0930   47.0090 H   0  0  0  0  0  0  0  0  0  0  0  0
   33.2600   25.0470   46.4990 H   0  0  0  0  0  0  0  0  0  0  0  0
   32.0050   25.4760   47.7530 H   0  0  0  0  0  0  0  0  0  0  0  0
   32.7860   27.0650   45.0960 H   0  0  0  0  0  0  0  0  0  0  0  0
   30.9370   29.0290   45.8940 C   0  0  0  0  0  3  0  0  0  0  0  0
   30.9870   27.6600   46.1640 C   0  0  0  0  0  0  0  0  0  0  0  0
   29.7690   27.0630   46.4050 C   0  0  0  0  0  0  0  0  0  0  0  0
   29.7890   26.0090   46.6030 H   0  0  0  0  0  0  0  0  0  0  0  0
   28.5950   27.7860   46.3780 C   0  0  0  0  0  0  0  0  0  0  0  0
   28.5520   29.1260   46.1130 C   0  0  0  0  0  0  0  0  0  0  0  0
   29.7480   29.7660   45.8660 C   0  0  0  0  0  3  0  0  0  0  0  0
   27.2370   29.5580   46.1580 O   0  0  0  0  0  0  0  0  0  0  0  0
   26.4310   28.3940   46.1550 C   0  0  0  0  0  3  0  0  0  0  0  0
   25.6250   28.5270   46.8790 H   0  0  0  0  0  0  0  0  0  0  0  0
   27.2860   27.3400   46.5980 O   0  0  0  0  0  0  0  0  0  0  0  0
  1  2  2  0  0  0  0
  1  6  1  0  0  0  0
  3 10  1  0  0  0  0
  3  4  2  0  0  0  0
  4  8  1  0  0  0  0
  5  4  1  0  0  0  0
  5  9  1  0  0  0  0
  6  5  2  0  0  0  0
  7  6  1  0  0  0  0
  7  3  1  0  0  0  0
 10 11  2  0  0  0  0
 12 13  1  0  0  0  0
 12 10  1  0  0  0  0
 13 18  1  0  0  0  0
 14 19  1  0  0  0  0
 14 13  2  0  0  0  0
 15 14  1  0  0  0  0
 16 15  2  0  0  0  0
 16 17  1  0  0  0  0
 17 12  2  0  0  0  0
 20 16  1  0  0  0  0
 21 24  1  6  0  0  0
 21  1  1  0  0  0  0
 22 21  1  0  0  0  0
 22 26  1  0  0  0  0
 23 27  1  6  0  0  0
 23 29  1  0  0  0  0
 23 22  1  0  0  0  0
 23 21  1  0  0  0  0
 25 22  1  0  0  0  0
 28 29  1  0  0  0  0
 29 30  2  0  0  0  0
 30 31  1  0  0  0  0
 32 30  1  0  0  0  0
 32 38  1  0  0  0  0
 33 35  1  0  0  0  0
 33 32  2  0  0  0  0
 34 28  2  0  0  0  0
 34 33  1  0  0  0  0
 36 35  1  0  0  0  0
 36 38  1  0  0  0  0
 36 37  1  0  0  0  0
M  END
>  <minimizedAffinity>
-5.76694345

>  <minimizedRMSD>
2.19688129

$$$$
