
 OpenBabel03272510173D

 30 33  0  0  0  0  0  0  0  0999 V2000
   37.4820   29.1750   50.8180 Br  0  0  0  0  0  0  0  0  0  0  0  0
   36.0420   29.2790   49.5620 C   0  0  0  0  0  0  0  0  0  0  0  0
   36.0070   30.2850   48.6070 C   0  0  0  0  0  0  0  0  0  0  0  0
   34.9390   30.2910   47.7420 C   0  0  0  0  0  0  0  0  0  0  0  0
   33.9100   29.3620   47.7690 C   0  0  0  0  0  0  0  0  0  0  0  0
   33.9860   28.3860   48.7310 C   0  0  0  0  0  0  0  0  0  0  0  0
   35.0440   28.3490   49.6170 C   0  0  0  0  0  0  0  0  0  0  0  0
   34.9040   31.0750   46.9880 H   0  0  0  0  0  0  0  0  0  0  0  0
   33.1930   27.6410   48.7790 H   0  0  0  0  0  0  0  0  0  0  0  0
   35.0650   27.5510   50.3700 H   0  0  0  0  0  0  0  0  0  0  0  0
   32.7320   30.5490   46.0280 C   0  0  0  0  0  3  0  0  0  0  0  0
   32.8090   29.4260   46.8240 C   0  0  0  0  0  0  0  0  0  0  0  0
   31.8580   28.4340   46.6900 C   0  0  0  0  0  0  0  0  0  0  0  0
   31.9130   27.5620   47.3040 H   0  0  0  0  0  0  0  0  0  0  0  0
   30.8530   28.5870   45.7660 C   0  0  0  0  0  0  0  0  0  0  0  0
   30.7770   29.7240   44.9630 C   0  0  0  0  0  0  0  0  0  0  0  0
   31.7240   30.7400   45.0760 C   0  0  0  0  0  3  0  0  0  0  0  0
   29.6780   29.6690   44.0950 O   0  0  0  0  0  0  0  0  0  0  0  0
   29.3340   28.2760   44.1040 C   0  0  0  0  0  3  0  0  0  0  0  0
   28.2680   28.1340   43.9320 H   0  0  0  0  0  0  0  0  0  0  0  0
   29.7530   27.8070   45.3710 O   0  0  0  0  0  0  0  0  0  0  0  0
   38.0300   33.2000   49.4400 C   0  0  0  0  0  0  0  0  0  0  0  0
   39.0470   33.2000   48.4600 C   0  0  0  0  0  0  0  0  0  0  0  0
   39.0190   32.1830   47.5130 C   0  0  0  0  0  0  0  0  0  0  0  0
   38.0270   31.2330   47.5630 N   0  0  0  0  0  0  0  0  0  0  0  0
   37.0690   31.2850   48.5360 C   0  0  0  0  0  0  0  0  0  0  0  0
   37.0800   32.2620   49.4610 N   0  0  0  0  0  0  0  0  0  0  0  0
   38.0900   34.0090   50.1560 H   0  0  0  0  0  0  0  0  0  0  0  0
   39.8330   33.9410   48.4080 H   0  0  0  0  0  0  0  0  0  0  0  0
   39.7410   32.0780   46.7140 H   0  0  0  0  0  0  0  0  0  0  0  0
  2  7  1  0  0  0  0
  2  1  1  0  0  0  0
  3  2  2  0  0  0  0
  4  5  2  0  0  0  0
  4  3  1  0  0  0  0
  5  6  1  0  0  0  0
  6  9  1  0  0  0  0
  6  7  2  0  0  0  0
  7 10  1  0  0  0  0
  8  4  1  0  0  0  0
 11 12  1  0  0  0  0
 12  5  1  0  0  0  0
 13 12  2  0  0  0  0
 13 14  1  0  0  0  0
 15 13  1  0  0  0  0
 16 17  1  0  0  0  0
 16 15  2  0  0  0  0
 17 11  2  0  0  0  0
 18 19  1  0  0  0  0
 18 16  1  0  0  0  0
 19 21  1  0  0  0  0
 20 19  1  0  0  0  0
 21 15  1  0  0  0  0
 22 27  1  0  0  0  0
 22 28  1  0  0  0  0
 23 22  2  0  0  0  0
 24 25  2  0  0  0  0
 24 23  1  0  0  0  0
 25 26  1  0  0  0  0
 26  3  1  0  0  0  0
 26 27  2  0  0  0  0
 29 23  1  0  0  0  0
 30 24  1  0  0  0  0
M  END
>  <minimizedAffinity>
-6.12599325

>  <minimizedRMSD>
0.580079854

$$$$
