
 OpenBabel03272507123D

 42 47  0  0  0  0  0  0  0  0999 V2000
   35.8260   29.1150   49.8400 C   0  0  0  0  0  0  0  0  0  0  0  0
   34.7780   29.6440   50.5400 C   0  0  0  0  0  0  0  0  0  0  0  0
   33.6170   29.0660   50.0180 C   0  0  0  0  0  0  0  0  0  0  0  0
   34.0460   28.1970   49.0010 C   0  0  0  0  0  0  0  0  0  0  0  0
   35.3400   28.2810   48.9600 O   0  0  0  0  0  0  0  0  0  0  0  0
   34.8130   30.3760   51.3550 H   0  0  0  0  0  0  0  0  0  0  0  0
   32.6410   29.3090   50.3910 H   0  0  0  0  0  0  0  0  0  0  0  0
   33.5180   26.4530   47.3150 C   0  0  0  0  0  0  0  0  0  0  0  0
   33.1060   27.4130   48.2240 C   0  0  0  0  0  0  0  0  0  0  0  0
   31.7730   27.6590   48.4270 C   0  0  0  0  0  0  0  0  0  0  0  0
   30.8370   26.9300   47.7050 C   0  0  0  0  0  0  0  0  0  0  0  0
   29.4970   26.9600   47.7010 N   0  0  0  0  0  0  0  0  0  0  0  0
   29.0810   26.0490   46.8190 N   0  0  0  0  0  0  0  0  0  0  0  0
   30.1490   25.4450   46.2670 C   0  0  0  0  0  0  0  0  0  0  0  0
   31.3030   25.9850   46.8110 C   0  0  0  0  0  0  0  0  0  0  0  0
   32.6330   25.7170   46.5880 C   0  0  0  0  0  0  0  0  0  0  0  0
   34.5880   26.2690   47.1660 H   0  0  0  0  0  0  0  0  0  0  0  0
   31.3550   28.4010   49.1260 H   0  0  0  0  0  0  0  0  0  0  0  0
   28.8570   27.5790   48.2780 H   0  0  0  0  0  0  0  0  0  0  0  0
   30.1700   24.6520   45.5080 H   0  0  0  0  0  0  0  0  0  0  0  0
   32.9860   24.9780   45.8890 H   0  0  0  0  0  0  0  0  0  0  0  0
   37.1980   29.4920   50.1170 C   0  0  0  0  0  0  0  0  0  0  0  0
   37.8420   28.8440   50.9870 O   0  0  0  0  0  0  0  0  0  0  0  0
   37.7510   30.5990   49.3720 C   0  0  0  0  0  0  0  0  0  0  0  0
   37.8890   31.8110   50.0420 C   0  0  0  0  0  0  0  0  0  0  0  0
   38.4210   32.8990   49.3470 C   0  0  0  0  0  0  0  0  0  0  0  0
   38.7720   32.6940   48.0470 N   0  0  0  0  0  0  0  0  0  0  0  0
   38.6300   31.5270   47.4310 C   0  0  0  0  0  0  0  0  0  0  0  0
   38.1190   30.4830   48.0990 N   0  0  0  0  0  0  0  0  0  0  0  0
   37.5870   31.8890   51.0740 H   0  0  0  0  0  0  0  0  0  0  0  0
   38.5160   33.8270   49.8920 H   0  0  0  0  0  0  0  0  0  0  0  0
   40.3540   31.3590   45.6720 C   0  0  0  0  0  3  0  0  0  0  0  0
   39.0220   31.3600   46.0360 C   0  0  0  0  0  0  0  0  0  0  0  0
   38.0940   31.1980   45.0370 C   0  0  0  0  0  0  0  0  0  0  0  0
   37.0440   31.1920   45.2690 H   0  0  0  0  0  0  0  0  0  0  0  0
   38.4860   31.0400   43.7100 C   0  0  0  0  0  0  0  0  0  0  0  0
   39.8180   31.0400   43.3470 C   0  0  0  0  0  0  0  0  0  0  0  0
   40.7430   31.2030   44.3580 C   0  0  0  0  0  3  0  0  0  0  0  0
   39.8910   30.8620   41.9610 O   0  0  0  0  0  0  0  0  0  0  0  0
   38.6010   30.4590   41.5340 C   0  0  0  0  0  3  0  0  0  0  0  0
   38.5410   29.3460   41.4780 H   0  0  0  0  0  0  0  0  0  0  0  0
   37.7110   30.8660   42.5750 O   0  0  0  0  0  0  0  0  0  0  0  0
  1 22  1  0  0  0  0
  1  2  2  0  0  0  0
  2  6  1  0  0  0  0
  3  7  1  0  0  0  0
  3  2  1  0  0  0  0
  4  3  2  0  0  0  0
  5  4  1  0  0  0  0
  5  1  1  0  0  0  0
  8  9  1  0  0  0  0
  9 10  2  0  0  0  0
  9  4  1  0  0  0  0
 10 18  1  0  0  0  0
 11 10  1  0  0  0  0
 12 11  1  0  0  0  0
 12 19  1  0  0  0  0
 13 12  1  0  0  0  0
 14 15  1  0  0  0  0
 14 13  2  0  0  0  0
 15 11  2  0  0  0  0
 16 15  1  0  0  0  0
 16  8  2  0  0  0  0
 17  8  1  0  0  0  0
 20 14  1  0  0  0  0
 21 16  1  0  0  0  0
 22 23  2  0  0  0  0
 24 25  1  0  0  0  0
 24 22  1  0  0  0  0
 25 30  1  0  0  0  0
 26 31  1  0  0  0  0
 26 25  2  0  0  0  0
 27 26  1  0  0  0  0
 28 27  2  0  0  0  0
 28 29  1  0  0  0  0
 29 24  2  0  0  0  0
 32 33  1  0  0  0  0
 33 28  1  0  0  0  0
 34 35  1  0  0  0  0
 34 33  2  0  0  0  0
 36 34  1  0  0  0  0
 37 36  2  0  0  0  0
 37 38  1  0  0  0  0
 38 32  2  0  0  0  0
 39 37  1  0  0  0  0
 40 39  1  0  0  0  0
 40 42  1  0  0  0  0
 41 40  1  0  0  0  0
 42 36  1  0  0  0  0
M  END
>  <minimizedAffinity>
-7.54220963

>  <minimizedRMSD>
0.472073317

$$$$
