
 OpenBabel03272500583D

 37 40  0  0  0  0  0  0  0  0999 V2000
   38.1450   31.8200   47.4190 C   0  0  0  0  0  0  0  0  0  0  0  0
   38.6880   32.6310   48.3700 C   0  0  0  0  0  0  0  0  0  0  0  0
   38.2270   32.6590   49.6900 C   0  0  0  0  0  0  0  0  0  0  0  0
   37.1260   31.7800   50.0270 C   0  0  0  0  0  0  0  0  0  0  0  0
   36.6290   30.9970   49.0340 C   0  0  0  0  0  0  0  0  0  0  0  0
   37.0800   30.9810   47.7730 C   0  0  0  0  0  0  0  0  0  0  0  0
   39.5270   33.3110   48.1460 H   0  0  0  0  0  0  0  0  0  0  0  0
   38.7030   33.3280   50.3940 H   0  0  0  0  0  0  0  0  0  0  0  0
   36.8780   31.9040   51.0590 H   0  0  0  0  0  0  0  0  0  0  0  0
   35.8530   30.4160   49.5070 H   0  0  0  0  0  0  0  0  0  0  0  0
   39.9960   31.2340   45.9290 C   0  0  0  0  0  0  0  0  0  0  0  0
   38.7520   31.8900   46.1090 C   0  0  0  0  0  0  0  0  0  0  0  0
   38.2740   32.5130   44.9840 C   0  0  0  0  0  0  0  0  0  0  0  0
   38.9550   32.4810   43.8320 N   0  0  0  0  0  0  0  0  0  0  0  0
   40.1110   31.8660   43.6820 C   0  0  0  0  0  0  0  0  0  0  0  0
   40.6200   31.2480   44.7350 N   0  0  0  0  0  0  0  0  0  0  0  0
   40.4570   30.7080   46.7710 H   0  0  0  0  0  0  0  0  0  0  0  0
   37.3280   33.0150   45.1110 H   0  0  0  0  0  0  0  0  0  0  0  0
   40.6700   31.8340   42.7550 H   0  0  0  0  0  0  0  0  0  0  0  0
   35.0770   30.0510   46.9610 C   0  0  0  0  0  0  0  0  0  0  0  0
   34.5140   30.6460   47.9600 O   0  0  0  0  0  0  0  0  0  0  0  0
   36.5150   30.1820   46.8130 N   0  0  0  0  0  0  0  0  0  0  0  0
   37.0420   29.7070   46.0480 H   0  0  0  0  0  0  0  0  0  0  0  0
   34.2980   29.3310   46.1020 O   0  0  0  0  0  0  0  0  0  0  0  0
   33.3800   29.8600   45.2130 C   0  0  0  0  0  0  0  0  0  0  0  0
   33.7390   30.4150   44.0750 O   0  0  0  0  0  0  0  0  0  0  0  0
   30.9970   30.5420   44.8320 C   0  0  0  0  0  3  0  0  0  0  0  0
   31.9280   29.8000   45.5000 C   0  0  0  0  0  0  0  0  0  0  0  0
   31.4490   28.9630   46.4860 C   0  0  0  0  0  0  0  0  0  0  0  0
   32.1600   28.3500   47.0470 H   0  0  0  0  0  0  0  0  0  0  0  0
   30.1340   28.8410   46.8210 C   0  0  0  0  0  0  0  0  0  0  0  0
   29.2170   29.6160   46.1140 C   0  0  0  0  0  0  0  0  0  0  0  0
   29.6520   30.4670   45.1190 C   0  0  0  0  0  3  0  0  0  0  0  0
   27.9340   29.3310   46.6220 O   0  0  0  0  0  0  0  0  0  0  0  0
   28.0190   28.1150   47.3400 C   0  0  0  0  0  3  0  0  0  0  0  0
   27.4010   28.0860   48.2520 H   0  0  0  0  0  0  0  0  0  0  0  0
   29.3850   28.1000   47.7430 O   0  0  0  0  0  0  0  0  0  0  0  0
  1  6  2  0  0  0  0
  1  2  1  0  0  0  0
  2  3  2  0  0  0  0
  3  4  1  0  0  0  0
  3  8  1  0  0  0  0
  4  9  1  0  0  0  0
  5 10  1  0  0  0  0
  5  4  2  0  0  0  0
  6  5  1  0  0  0  0
  7  2  1  0  0  0  0
 11 12  1  0  0  0  0
 11 17  1  0  0  0  0
 12  1  1  0  0  0  0
 13 18  1  0  0  0  0
 13 12  2  0  0  0  0
 14 13  1  0  0  0  0
 15 14  2  0  0  0  0
 15 16  1  0  0  0  0
 16 11  2  0  0  0  0
 19 15  1  0  0  0  0
 20 21  2  0  0  0  0
 22 20  1  0  0  0  0
 22  6  1  0  0  0  0
 23 22  1  0  0  0  0
 24 20  1  0  0  0  0
 25 28  1  0  0  0  0
 25 24  1  0  0  0  0
 26 25  2  0  0  0  0
 27 33  2  0  0  0  0
 27 28  1  0  0  0  0
 28 29  2  0  0  0  0
 29 31  1  0  0  0  0
 29 30  1  0  0  0  0
 31 37  1  0  0  0  0
 32 34  1  0  0  0  0
 32 31  2  0  0  0  0
 33 32  1  0  0  0  0
 34 35  1  0  0  0  0
 35 37  1  0  0  0  0
 35 36  1  0  0  0  0
M  END
>  <minimizedAffinity>
-6.06131363

>  <minimizedRMSD>
1.6720953

$$$$
