
 OpenBabel03272510163D

 30 33  0  0  0  0  0  0  0  0999 V2000
   37.4440   29.1980   50.8510 Br  0  0  0  0  0  0  0  0  0  0  0  0
   36.0260   29.2770   49.5680 C   0  0  0  0  0  0  0  0  0  0  0  0
   36.0050   30.2690   48.5980 C   0  0  0  0  0  0  0  0  0  0  0  0
   34.9520   30.2570   47.7140 C   0  0  0  0  0  0  0  0  0  0  0  0
   33.9270   29.3240   47.7370 C   0  0  0  0  0  0  0  0  0  0  0  0
   33.9890   28.3620   48.7130 C   0  0  0  0  0  0  0  0  0  0  0  0
   35.0310   28.3430   49.6190 C   0  0  0  0  0  0  0  0  0  0  0  0
   34.9280   31.0300   46.9490 H   0  0  0  0  0  0  0  0  0  0  0  0
   33.1990   27.6150   48.7580 H   0  0  0  0  0  0  0  0  0  0  0  0
   35.0420   27.5570   50.3840 H   0  0  0  0  0  0  0  0  0  0  0  0
   32.6800   30.5450   46.0680 C   0  0  0  0  0  3  0  0  0  0  0  0
   32.8430   29.3700   46.7710 C   0  0  0  0  0  0  0  0  0  0  0  0
   31.9890   28.3130   46.5310 C   0  0  0  0  0  0  0  0  0  0  0  0
   32.1100   27.4000   47.0710 H   0  0  0  0  0  0  0  0  0  0  0  0
   30.9910   28.4520   45.5960 C   0  0  0  0  0  0  0  0  0  0  0  0
   30.8280   29.6420   44.8870 C   0  0  0  0  0  0  0  0  0  0  0  0
   31.6770   30.7250   45.1090 C   0  0  0  0  0  3  0  0  0  0  0  0
   29.7540   29.5630   43.9890 O   0  0  0  0  0  0  0  0  0  0  0  0
   29.5390   28.1490   43.8740 C   0  0  0  0  0  3  0  0  0  0  0  0
   28.4940   27.9280   43.6630 H   0  0  0  0  0  0  0  0  0  0  0  0
   29.9740   27.6150   45.1100 O   0  0  0  0  0  0  0  0  0  0  0  0
   38.0150   33.1890   49.4410 C   0  0  0  0  0  0  0  0  0  0  0  0
   39.0350   33.1940   48.4650 C   0  0  0  0  0  0  0  0  0  0  0  0
   39.0140   32.1780   47.5160 C   0  0  0  0  0  0  0  0  0  0  0  0
   38.0240   31.2250   47.5610 N   0  0  0  0  0  0  0  0  0  0  0  0
   37.0630   31.2720   48.5320 C   0  0  0  0  0  0  0  0  0  0  0  0
   37.0680   32.2480   49.4590 N   0  0  0  0  0  0  0  0  0  0  0  0
   38.0710   33.9970   50.1600 H   0  0  0  0  0  0  0  0  0  0  0  0
   39.8190   33.9380   48.4170 H   0  0  0  0  0  0  0  0  0  0  0  0
   39.7380   32.0770   46.7190 H   0  0  0  0  0  0  0  0  0  0  0  0
  2  7  1  0  0  0  0
  2  1  1  0  0  0  0
  3  2  2  0  0  0  0
  4  5  2  0  0  0  0
  4  3  1  0  0  0  0
  5  6  1  0  0  0  0
  6  9  1  0  0  0  0
  6  7  2  0  0  0  0
  7 10  1  0  0  0  0
  8  4  1  0  0  0  0
 11 12  1  0  0  0  0
 12  5  1  0  0  0  0
 13 12  2  0  0  0  0
 13 14  1  0  0  0  0
 15 13  1  0  0  0  0
 16 17  1  0  0  0  0
 16 15  2  0  0  0  0
 17 11  2  0  0  0  0
 18 16  1  0  0  0  0
 19 18  1  0  0  0  0
 19 21  1  0  0  0  0
 20 19  1  0  0  0  0
 21 15  1  0  0  0  0
 22 27  1  0  0  0  0
 22 28  1  0  0  0  0
 23 22  2  0  0  0  0
 24 25  2  0  0  0  0
 24 23  1  0  0  0  0
 25 26  1  0  0  0  0
 26  3  1  0  0  0  0
 26 27  2  0  0  0  0
 29 23  1  0  0  0  0
 30 24  1  0  0  0  0
M  END
>  <minimizedAffinity>
-6.13299036

>  <minimizedRMSD>
0.350530863

$$$$
