
 OpenBabel03272500583D

 37 40  0  0  0  0  0  0  0  0999 V2000
   38.2370   31.9200   47.4090 C   0  0  0  0  0  0  0  0  0  0  0  0
   38.8500   32.7400   48.3100 C   0  0  0  0  0  0  0  0  0  0  0  0
   38.4470   32.8270   49.6460 C   0  0  0  0  0  0  0  0  0  0  0  0
   37.3290   32.0020   50.0570 C   0  0  0  0  0  0  0  0  0  0  0  0
   36.7620   31.2080   49.1120 C   0  0  0  0  0  0  0  0  0  0  0  0
   37.1580   31.1340   47.8360 C   0  0  0  0  0  0  0  0  0  0  0  0
   39.7030   33.3790   48.0290 H   0  0  0  0  0  0  0  0  0  0  0  0
   38.9770   33.5000   50.3070 H   0  0  0  0  0  0  0  0  0  0  0  0
   37.1300   32.1680   51.0940 H   0  0  0  0  0  0  0  0  0  0  0  0
   35.9860   30.6730   49.6370 H   0  0  0  0  0  0  0  0  0  0  0  0
   40.0170   31.2440   45.8720 C   0  0  0  0  0  0  0  0  0  0  0  0
   38.7900   31.9240   46.0740 C   0  0  0  0  0  0  0  0  0  0  0  0
   38.2730   32.5050   44.9430 C   0  0  0  0  0  0  0  0  0  0  0  0
   38.9050   32.4140   43.7670 N   0  0  0  0  0  0  0  0  0  0  0  0
   40.0460   31.7770   43.5970 C   0  0  0  0  0  0  0  0  0  0  0  0
   40.5910   31.1970   44.6540 N   0  0  0  0  0  0  0  0  0  0  0  0
   40.5060   30.7490   46.7170 H   0  0  0  0  0  0  0  0  0  0  0  0
   37.3400   33.0250   45.0870 H   0  0  0  0  0  0  0  0  0  0  0  0
   40.5660   31.6970   42.6500 H   0  0  0  0  0  0  0  0  0  0  0  0
   35.1250   30.1080   47.2460 C   0  0  0  0  0  0  0  0  0  0  0  0
   34.6570   30.6440   48.3240 O   0  0  0  0  0  0  0  0  0  0  0  0
   36.5230   30.3270   46.9270 N   0  0  0  0  0  0  0  0  0  0  0  0
   36.9770   29.9030   46.0880 H   0  0  0  0  0  0  0  0  0  0  0  0
   34.2860   29.3650   46.4660 O   0  0  0  0  0  0  0  0  0  0  0  0
   32.9510   29.6380   46.2330 C   0  0  0  0  0  0  0  0  0  0  0  0
   32.5380   30.8050   45.7850 O   0  0  0  0  0  0  0  0  0  0  0  0
   31.7660   27.9320   47.6380 C   0  0  0  0  0  3  0  0  0  0  0  0
   31.9160   28.6040   46.4590 C   0  0  0  0  0  0  0  0  0  0  0  0
   31.0360   28.2690   45.4520 C   0  0  0  0  0  0  0  0  0  0  0  0
   31.1190   28.7830   44.4890 H   0  0  0  0  0  0  0  0  0  0  0  0
   30.0530   27.3320   45.5660 C   0  0  0  0  0  0  0  0  0  0  0  0
   29.9360   26.6710   46.7870 C   0  0  0  0  0  0  0  0  0  0  0  0
   30.7950   26.9740   47.8230 C   0  0  0  0  0  3  0  0  0  0  0  0
   28.8680   25.7590   46.6780 O   0  0  0  0  0  0  0  0  0  0  0  0
   28.0930   26.1380   45.5570 C   0  0  0  0  0  3  0  0  0  0  0  0
   27.6910   25.2910   44.9780 H   0  0  0  0  0  0  0  0  0  0  0  0
   29.0510   26.8040   44.7430 O   0  0  0  0  0  0  0  0  0  0  0  0
  1  6  2  0  0  0  0
  1  2  1  0  0  0  0
  2  3  2  0  0  0  0
  3  4  1  0  0  0  0
  3  8  1  0  0  0  0
  4  9  1  0  0  0  0
  5 10  1  0  0  0  0
  5  4  2  0  0  0  0
  6  5  1  0  0  0  0
  7  2  1  0  0  0  0
 11 12  1  0  0  0  0
 11 17  1  0  0  0  0
 12  1  1  0  0  0  0
 13 18  1  0  0  0  0
 13 12  2  0  0  0  0
 14 13  1  0  0  0  0
 15 14  2  0  0  0  0
 15 16  1  0  0  0  0
 16 11  2  0  0  0  0
 19 15  1  0  0  0  0
 20 21  2  0  0  0  0
 22 20  1  0  0  0  0
 22  6  1  0  0  0  0
 23 22  1  0  0  0  0
 24 20  1  0  0  0  0
 25 28  1  0  0  0  0
 25 24  1  0  0  0  0
 26 25  2  0  0  0  0
 27 33  1  0  0  0  0
 28 27  2  0  0  0  0
 29 31  2  0  0  0  0
 29 28  1  0  0  0  0
 30 29  1  0  0  0  0
 31 32  1  0  0  0  0
 32 33  2  0  0  0  0
 34 32  1  0  0  0  0
 35 34  1  0  0  0  0
 36 35  1  0  0  0  0
 37 35  1  0  0  0  0
 37 31  1  0  0  0  0
M  END
>  <minimizedAffinity>
-6.06504536

>  <minimizedRMSD>
1.31000173

$$$$
