
 OpenBabel03272507123D

 42 47  0  0  0  0  0  0  0  0999 V2000
   35.7280   29.1430   49.9760 C   0  0  0  0  0  0  0  0  0  0  0  0
   34.6550   29.6440   50.6580 C   0  0  0  0  0  0  0  0  0  0  0  0
   33.5170   29.0470   50.1060 C   0  0  0  0  0  0  0  0  0  0  0  0
   33.9850   28.1960   49.0930 C   0  0  0  0  0  0  0  0  0  0  0  0
   35.2770   28.3060   49.0790 O   0  0  0  0  0  0  0  0  0  0  0  0
   34.6570   30.3700   51.4790 H   0  0  0  0  0  0  0  0  0  0  0  0
   32.5280   29.2680   50.4600 H   0  0  0  0  0  0  0  0  0  0  0  0
   33.5290   26.4410   47.3970 C   0  0  0  0  0  0  0  0  0  0  0  0
   33.0780   27.3990   48.2900 C   0  0  0  0  0  0  0  0  0  0  0  0
   31.7360   27.6320   48.4500 C   0  0  0  0  0  0  0  0  0  0  0  0
   30.8310   26.8900   47.7020 C   0  0  0  0  0  0  0  0  0  0  0  0
   29.4920   26.9050   47.6560 N   0  0  0  0  0  0  0  0  0  0  0  0
   29.1140   25.9870   46.7650 N   0  0  0  0  0  0  0  0  0  0  0  0
   30.2040   25.3940   46.2490 C   0  0  0  0  0  0  0  0  0  0  0  0
   31.3360   25.9470   46.8260 C   0  0  0  0  0  0  0  0  0  0  0  0
   32.6750   25.6930   46.6460 C   0  0  0  0  0  0  0  0  0  0  0  0
   34.6050   26.2680   47.2810 H   0  0  0  0  0  0  0  0  0  0  0  0
   31.2890   28.3710   49.1330 H   0  0  0  0  0  0  0  0  0  0  0  0
   28.8280   27.5190   48.2110 H   0  0  0  0  0  0  0  0  0  0  0  0
   30.2570   24.5980   45.4930 H   0  0  0  0  0  0  0  0  0  0  0  0
   33.0570   24.9560   45.9600 H   0  0  0  0  0  0  0  0  0  0  0  0
   37.0860   29.5450   50.2860 C   0  0  0  0  0  0  0  0  0  0  0  0
   37.6490   29.0520   51.3010 O   0  0  0  0  0  0  0  0  0  0  0  0
   37.7190   30.4970   49.4030 C   0  0  0  0  0  0  0  0  0  0  0  0
   38.2020   31.6710   49.9730 C   0  0  0  0  0  0  0  0  0  0  0  0
   38.8190   32.6090   49.1440 C   0  0  0  0  0  0  0  0  0  0  0  0
   38.9060   32.3050   47.8190 N   0  0  0  0  0  0  0  0  0  0  0  0
   38.4360   31.1780   47.2990 C   0  0  0  0  0  0  0  0  0  0  0  0
   37.8430   30.2770   48.0970 N   0  0  0  0  0  0  0  0  0  0  0  0
   38.0940   31.8340   51.0340 H   0  0  0  0  0  0  0  0  0  0  0  0
   39.1850   33.5110   49.6140 H   0  0  0  0  0  0  0  0  0  0  0  0
   37.4270   30.7380   45.0900 C   0  0  0  0  0  3  0  0  0  0  0  0
   38.5540   30.9010   45.8720 C   0  0  0  0  0  0  0  0  0  0  0  0
   39.7740   30.7920   45.2520 C   0  0  0  0  0  0  0  0  0  0  0  0
   40.6800   30.9120   45.8190 H   0  0  0  0  0  0  0  0  0  0  0  0
   39.8660   30.5280   43.8890 C   0  0  0  0  0  0  0  0  0  0  0  0
   38.7400   30.3640   43.1070 C   0  0  0  0  0  0  0  0  0  0  0  0
   37.5200   30.4750   43.7390 C   0  0  0  0  0  3  0  0  0  0  0  0
   39.1550   30.1120   41.7950 O   0  0  0  0  0  0  0  0  0  0  0  0
   40.5360   30.4220   41.7380 C   0  0  0  0  0  3  0  0  0  0  0  0
   40.6860   31.4670   41.3780 H   0  0  0  0  0  0  0  0  0  0  0  0
   40.9910   30.3830   43.0920 O   0  0  0  0  0  0  0  0  0  0  0  0
  1 22  1  0  0  0  0
  1  2  2  0  0  0  0
  2  6  1  0  0  0  0
  3  7  1  0  0  0  0
  3  2  1  0  0  0  0
  4  3  2  0  0  0  0
  5  4  1  0  0  0  0
  5  1  1  0  0  0  0
  8  9  1  0  0  0  0
  9 10  2  0  0  0  0
  9  4  1  0  0  0  0
 10 18  1  0  0  0  0
 11 10  1  0  0  0  0
 12 11  1  0  0  0  0
 12 19  1  0  0  0  0
 13 12  1  0  0  0  0
 14 13  2  0  0  0  0
 14 15  1  0  0  0  0
 15 11  2  0  0  0  0
 16 15  1  0  0  0  0
 16  8  2  0  0  0  0
 17  8  1  0  0  0  0
 20 14  1  0  0  0  0
 21 16  1  0  0  0  0
 22 23  2  0  0  0  0
 24 25  1  0  0  0  0
 24 22  1  0  0  0  0
 25 30  1  0  0  0  0
 26 31  1  0  0  0  0
 26 25  2  0  0  0  0
 27 26  1  0  0  0  0
 28 27  2  0  0  0  0
 28 29  1  0  0  0  0
 29 24  2  0  0  0  0
 32 33  1  0  0  0  0
 33 28  1  0  0  0  0
 34 35  1  0  0  0  0
 34 33  2  0  0  0  0
 36 34  1  0  0  0  0
 37 38  1  0  0  0  0
 37 36  2  0  0  0  0
 38 32  2  0  0  0  0
 39 37  1  0  0  0  0
 40 39  1  0  0  0  0
 40 42  1  0  0  0  0
 41 40  1  0  0  0  0
 42 36  1  0  0  0  0
M  END
>  <minimizedAffinity>
-7.36752701

>  <minimizedRMSD>
0.429654032

$$$$
