
 OpenBabel03272505513D

 46 50  0  0  1  0  0  0  0  0999 V2000
   37.2520   29.2720   50.5150 C   0  0  0  0  0  0  0  0  0  0  0  0
   37.4140   30.6550   50.7600 C   0  0  0  0  0  0  0  0  0  0  0  0
   36.6520   31.5260   49.9870 C   0  0  0  0  0  0  0  0  0  0  0  0
   35.8110   30.9980   49.0570 N   0  0  0  0  0  0  0  0  0  0  0  0
   35.6930   29.6890   48.8620 C   0  0  0  0  0  0  0  0  0  0  0  0
   36.4100   28.8210   49.5870 N   0  0  0  0  0  0  0  0  0  0  0  0
   34.8000   29.2010   47.8750 N   0  0  0  0  0  0  0  0  0  0  0  0
   34.1660   27.9010   47.9900 C   0  0  0  0  0  0  0  0  0  0  0  0
   32.6830   28.0370   47.8530 C   0  0  0  0  0  0  0  0  0  0  0  0
   32.2170   29.2360   47.3510 N   0  0  0  0  0  0  0  0  0  0  0  0
   33.0370   30.0700   46.5120 C   0  0  0  0  0  0  0  0  0  0  0  0
   34.4730   29.9840   46.6920 C   0  0  2  0  0  0  0  0  0  0  0  0
   37.8700   28.6420   51.1450 H   0  0  0  0  0  0  0  0  0  0  0  0
   38.0760   31.0720   51.4930 H   0  0  0  0  0  0  0  0  0  0  0  0
   36.6800   32.6050   50.0750 H   0  0  0  0  0  0  0  0  0  0  0  0
   34.3360   27.5830   49.0660 H   0  0  0  0  0  0  0  0  0  0  0  0
   34.6380   27.1090   47.4110 H   0  0  0  0  0  0  0  0  0  0  0  0
   32.1250   27.7770   48.7760 H   0  0  0  0  0  0  0  0  0  0  0  0
   32.3870   27.2130   47.1370 H   0  0  0  0  0  0  0  0  0  0  0  0
   31.5120   29.7040   47.9220 H   0  0  0  0  0  0  0  0  0  0  0  0
   32.7420   31.1170   46.8710 H   0  0  0  0  0  0  0  0  0  0  0  0
   32.5620   30.0420   45.5440 H   0  0  0  0  0  0  0  0  0  0  0  0
   34.9610   30.9960   46.8430 H   0  0  0  0  0  0  0  0  0  0  0  0
   35.1870   29.3850   45.5780 N   0  0  2  0  0  0  0  0  0  0  0  0
   36.2750   30.2470   45.1200 C   0  0  0  0  0  0  0  0  0  0  0  0
   36.3570   30.0950   43.6140 C   0  0  0  0  0  0  0  0  0  0  0  0
   35.4160   28.9750   43.3400 C   0  0  0  0  0  0  0  0  0  0  0  0
   34.3630   29.1190   44.4550 C   0  0  1  0  0  0  0  0  0  0  0  0
   36.1330   31.2940   45.4310 H   0  0  0  0  0  0  0  0  0  0  0  0
   37.2070   29.8460   45.5670 H   0  0  0  0  0  0  0  0  0  0  0  0
   37.3720   29.8070   43.2880 H   0  0  0  0  0  0  0  0  0  0  0  0
   36.0000   31.0280   43.1390 H   0  0  0  0  0  0  0  0  0  0  0  0
   34.9280   29.0360   42.3390 H   0  0  0  0  0  0  0  0  0  0  0  0
   35.8850   27.9740   43.4130 H   0  0  0  0  0  0  0  0  0  0  0  0
   33.7710   29.9300   44.0350 H   0  0  0  0  0  0  0  0  0  0  0  0
   34.2990   26.5590   44.7170 C   0  0  0  0  0  0  0  0  0  0  0  0
   33.7270   27.7770   44.4100 C   0  0  0  0  0  0  0  0  0  0  0  0
   32.4000   27.7080   44.0270 C   0  0  0  0  0  0  0  0  0  0  0  0
   31.7880   28.5810   43.7460 H   0  0  0  0  0  0  0  0  0  0  0  0
   31.6890   26.5280   43.9530 C   0  0  0  0  0  0  0  0  0  0  0  0
   32.3070   25.3370   44.2700 C   0  0  0  0  0  0  0  0  0  0  0  0
   33.6290   25.3570   44.6570 C   0  0  0  0  0  0  0  0  0  0  0  0
   31.3730   24.3000   44.1130 O   0  0  0  0  0  0  0  0  0  0  0  0
   30.0780   24.8740   43.9850 C   0  0  0  0  0  0  0  0  0  0  0  0
   29.5120   24.4250   43.1450 H   0  0  0  0  0  0  0  0  0  0  0  0
   30.3700   26.1900   43.6030 O   0  0  0  0  0  0  0  0  0  0  0  0
  1  2  1  0  0  0  0
  1 13  1  0  0  0  0
  2 14  1  0  0  0  0
  3 15  1  0  0  0  0
  3  2  2  0  0  0  0
  4  3  1  0  0  0  0
  5  4  2  0  0  0  0
  5  6  1  0  0  0  0
  6  1  2  0  0  0  0
  7  8  1  0  0  0  0
  7  5  1  0  0  0  0
  8 16  1  0  0  0  0
  9  8  1  0  0  0  0
  9 18  1  0  0  0  0
 10  9  1  0  0  0  0
 10 20  1  0  0  0  0
 11 12  1  0  0  0  0
 11 21  1  0  0  0  0
 11 10  1  0  0  0  0
 12 23  1  1  0  0  0
 12  7  1  0  0  0  0
 17  8  1  0  0  0  0
 19  9  1  0  0  0  0
 22 11  1  0  0  0  0
 24 25  1  6  0  0  0
 24 12  1  0  0  0  0
 25 29  1  0  0  0  0
 25 30  1  0  0  0  0
 26 25  1  0  0  0  0
 27 34  1  0  0  0  0
 27 26  1  0  0  0  0
 27 28  1  0  0  0  0
 28 35  1  6  0  0  0
 28 24  1  0  0  0  0
 31 26  1  0  0  0  0
 32 26  1  0  0  0  0
 33 27  1  0  0  0  0
 37 28  1  0  0  0  0
 37 36  2  0  0  0  0
 38 37  1  0  0  0  0
 39 38  1  0  0  0  0
 40 38  2  0  0  0  0
 40 41  1  0  0  0  0
 41 42  2  0  0  0  0
 42 36  1  0  0  0  0
 43 41  1  0  0  0  0
 44 43  1  0  0  0  0
 45 44  1  0  0  0  0
 46 40  1  0  0  0  0
 46 44  1  0  0  0  0
M  END
>  <minimizedAffinity>
-4.83470774

>  <minimizedRMSD>
0.519137502

$$$$
