
 OpenBabel03272507123D

 42 47  0  0  0  0  0  0  0  0999 V2000
   35.8780   29.1210   49.8420 C   0  0  0  0  0  0  0  0  0  0  0  0
   34.8370   29.6650   50.5400 C   0  0  0  0  0  0  0  0  0  0  0  0
   33.6680   29.0990   50.0210 C   0  0  0  0  0  0  0  0  0  0  0  0
   34.0860   28.2200   49.0090 C   0  0  0  0  0  0  0  0  0  0  0  0
   35.3810   28.2880   48.9660 O   0  0  0  0  0  0  0  0  0  0  0  0
   34.8800   30.4010   51.3510 H   0  0  0  0  0  0  0  0  0  0  0  0
   32.6950   29.3550   50.3930 H   0  0  0  0  0  0  0  0  0  0  0  0
   33.5380   26.4930   47.3120 C   0  0  0  0  0  0  0  0  0  0  0  0
   33.1370   27.4430   48.2360 C   0  0  0  0  0  0  0  0  0  0  0  0
   31.8060   27.6870   48.4580 C   0  0  0  0  0  0  0  0  0  0  0  0
   30.8610   26.9640   47.7410 C   0  0  0  0  0  0  0  0  0  0  0  0
   29.5220   26.9930   47.7550 N   0  0  0  0  0  0  0  0  0  0  0  0
   29.0950   26.0920   46.8690 N   0  0  0  0  0  0  0  0  0  0  0  0
   30.1550   25.4940   46.2970 C   0  0  0  0  0  0  0  0  0  0  0  0
   31.3170   26.0280   46.8320 C   0  0  0  0  0  0  0  0  0  0  0  0
   32.6440   25.7640   46.5890 C   0  0  0  0  0  0  0  0  0  0  0  0
   34.6060   26.3110   47.1470 H   0  0  0  0  0  0  0  0  0  0  0  0
   31.3970   28.4220   49.1700 H   0  0  0  0  0  0  0  0  0  0  0  0
   28.8880   27.6070   48.3460 H   0  0  0  0  0  0  0  0  0  0  0  0
   30.1670   24.7080   45.5300 H   0  0  0  0  0  0  0  0  0  0  0  0
   32.9880   25.0320   45.8780 H   0  0  0  0  0  0  0  0  0  0  0  0
   37.2540   29.4830   50.1170 C   0  0  0  0  0  0  0  0  0  0  0  0
   37.8920   28.8300   50.9870 O   0  0  0  0  0  0  0  0  0  0  0  0
   37.8190   30.5810   49.3680 C   0  0  0  0  0  0  0  0  0  0  0  0
   38.1060   31.7490   50.0690 C   0  0  0  0  0  0  0  0  0  0  0  0
   38.6530   32.8270   49.3710 C   0  0  0  0  0  0  0  0  0  0  0  0
   38.8700   32.6580   48.0380 N   0  0  0  0  0  0  0  0  0  0  0  0
   38.5880   31.5330   47.3920 C   0  0  0  0  0  0  0  0  0  0  0  0
   38.0620   30.4980   48.0630 N   0  0  0  0  0  0  0  0  0  0  0  0
   37.9040   31.8000   51.1270 H   0  0  0  0  0  0  0  0  0  0  0  0
   38.8650   33.7200   49.9410 H   0  0  0  0  0  0  0  0  0  0  0  0
   39.0510   30.1640   45.3920 C   0  0  0  0  0  3  0  0  0  0  0  0
   38.8390   31.4040   45.9610 C   0  0  0  0  0  0  0  0  0  0  0  0
   38.8760   32.4950   45.1290 C   0  0  0  0  0  0  0  0  0  0  0  0
   38.7180   33.4820   45.5240 H   0  0  0  0  0  0  0  0  0  0  0  0
   39.1180   32.3520   43.7660 C   0  0  0  0  0  0  0  0  0  0  0  0
   39.3300   31.1130   43.1960 C   0  0  0  0  0  0  0  0  0  0  0  0
   39.2900   30.0220   44.0410 C   0  0  0  0  0  3  0  0  0  0  0  0
   39.5420   31.2930   41.8260 O   0  0  0  0  0  0  0  0  0  0  0  0
   39.1610   32.6250   41.5280 C   0  0  0  0  0  3  0  0  0  0  0  0
   38.1050   32.6550   41.1710 H   0  0  0  0  0  0  0  0  0  0  0  0
   39.1930   33.3180   42.7750 O   0  0  0  0  0  0  0  0  0  0  0  0
  1 22  1  0  0  0  0
  1  2  2  0  0  0  0
  2  6  1  0  0  0  0
  3  7  1  0  0  0  0
  3  2  1  0  0  0  0
  4  3  2  0  0  0  0
  5  4  1  0  0  0  0
  5  1  1  0  0  0  0
  8  9  1  0  0  0  0
  9 10  2  0  0  0  0
  9  4  1  0  0  0  0
 10 18  1  0  0  0  0
 11 12  1  0  0  0  0
 11 10  1  0  0  0  0
 12 19  1  0  0  0  0
 13 12  1  0  0  0  0
 14 15  1  0  0  0  0
 14 13  2  0  0  0  0
 15 11  2  0  0  0  0
 16 15  1  0  0  0  0
 16  8  2  0  0  0  0
 17  8  1  0  0  0  0
 20 14  1  0  0  0  0
 21 16  1  0  0  0  0
 22 23  2  0  0  0  0
 24 25  1  0  0  0  0
 24 22  1  0  0  0  0
 25 30  1  0  0  0  0
 26 31  1  0  0  0  0
 26 25  2  0  0  0  0
 27 26  1  0  0  0  0
 28 27  2  0  0  0  0
 28 29  1  0  0  0  0
 29 24  2  0  0  0  0
 32 33  1  0  0  0  0
 33 28  1  0  0  0  0
 34 35  1  0  0  0  0
 34 33  2  0  0  0  0
 36 34  1  0  0  0  0
 37 36  2  0  0  0  0
 37 38  1  0  0  0  0
 38 32  2  0  0  0  0
 39 37  1  0  0  0  0
 40 39  1  0  0  0  0
 40 42  1  0  0  0  0
 41 40  1  0  0  0  0
 42 36  1  0  0  0  0
M  END
>  <minimizedAffinity>
-7.53266048

>  <minimizedRMSD>
0.383100331

$$$$
