
 OpenBabel03272510263D

 47 52  0  0  1  0  0  0  0  0999 V2000
   38.9200   31.6990   41.8190 N   0  0  0  0  0  0  0  0  0  0  0  0
   39.2480   33.0950   41.7990 C   0  0  1  0  0  0  0  0  0  0  0  0
   38.1900   33.8740   41.1700 C   0  0  0  0  0  0  0  0  0  0  0  0
   38.0620   33.4730   39.8330 O   0  0  0  0  0  0  0  0  0  0  0  0
   37.8650   32.1230   39.6500 C   0  0  0  0  0  0  0  0  0  0  0  0
   38.8200   31.2800   40.4370 C   0  0  1  0  0  0  0  0  0  0  0  0
   38.2720   31.3280   42.4710 H   0  0  0  0  0  0  0  0  0  0  0  0
   40.1980   33.2160   41.2600 H   0  0  0  0  0  0  0  0  0  0  0  0
   38.5700   34.9390   41.0870 H   0  0  0  0  0  0  0  0  0  0  0  0
   37.1920   33.9380   41.5130 H   0  0  0  0  0  0  0  0  0  0  0  0
   36.7930   31.8510   39.8700 H   0  0  0  0  0  0  0  0  0  0  0  0
   37.9860   31.8980   38.5760 H   0  0  0  0  0  0  0  0  0  0  0  0
   38.3440   30.2550   40.4880 H   0  0  0  0  0  0  0  0  0  0  0  0
   41.2810   30.4800   40.2850 C   0  0  0  0  0  3  0  0  0  0  0  0
   40.1340   31.0840   39.8190 C   0  0  0  0  0  0  0  0  0  0  0  0
   40.1610   31.6310   38.5300 C   0  0  0  0  0  0  0  0  0  0  0  0
   39.3340   32.1420   38.0220 H   0  0  0  0  0  0  0  0  0  0  0  0
   41.3150   31.5660   37.7450 C   0  0  0  0  0  0  0  0  0  0  0  0
   42.4130   30.9430   38.2910 C   0  0  0  0  0  0  0  0  0  0  0  0
   42.4330   30.3970   39.5410 C   0  0  0  0  0  3  0  0  0  0  0  0
   43.4400   30.9940   37.3430 O   0  0  0  0  0  0  0  0  0  0  0  0
   43.0200   31.8300   36.2940 C   0  0  0  0  0  3  0  0  0  0  0  0
   43.2500   31.4030   35.2930 H   0  0  0  0  0  0  0  0  0  0  0  0
   41.6410   32.0060   36.4610 O   0  0  0  0  0  0  0  0  0  0  0  0
   39.4360   33.4970   43.1500 O   0  0  0  0  0  0  0  0  0  0  0  0
   36.1900   30.2350   46.8430 C   0  0  0  0  0  0  0  0  0  0  0  0
   37.0820   30.7550   47.7720 C   0  0  0  0  0  0  0  0  0  0  0  0
   38.0970   31.6270   47.3800 C   0  0  0  0  0  0  0  0  0  0  0  0
   38.1570   31.9330   46.0250 C   0  0  0  0  0  0  0  0  0  0  0  0
   39.0630   32.7650   45.4050 N   0  0  0  0  0  0  0  0  0  0  0  0
   38.7290   32.7560   44.1000 C   0  0  0  0  0  0  0  0  0  0  0  0
   37.6840   31.9740   43.9030 N   0  0  0  0  0  0  0  0  0  0  0  0
   37.2970   31.4430   45.0760 C   0  0  0  0  0  0  0  0  0  0  0  0
   36.2870   30.5700   45.5020 C   0  0  0  0  0  0  0  0  0  0  0  0
   35.3940   29.5570   47.1300 H   0  0  0  0  0  0  0  0  0  0  0  0
   38.8030   32.0430   48.0850 H   0  0  0  0  0  0  0  0  0  0  0  0
   39.8470   33.2890   45.8720 H   0  0  0  0  0  0  0  0  0  0  0  0
   35.6040   30.1780   44.7590 H   0  0  0  0  0  0  0  0  0  0  0  0
   37.5310   30.1850   51.4620 C   0  0  0  0  0  0  0  0  0  0  0  0
   37.8320   30.6240   50.1720 C   0  0  0  0  0  0  0  0  0  0  0  0
   36.9340   30.3740   49.1620 C   0  0  0  0  0  0  0  0  0  0  0  0
   35.7770   29.6990   49.4940 N   0  0  0  0  0  0  0  0  0  0  0  0
   35.5080   29.2860   50.7500 C   0  0  0  0  0  0  0  0  0  0  0  0
   36.3730   29.5260   51.7140 N   0  0  0  0  0  0  0  0  0  0  0  0
   38.2630   30.4000   52.2250 H   0  0  0  0  0  0  0  0  0  0  0  0
   38.7330   31.1510   49.9070 H   0  0  0  0  0  0  0  0  0  0  0  0
   34.5740   28.7700   50.8760 H   0  0  0  0  0  0  0  0  0  0  0  0
  1  7  1  0  0  0  0
  2  8  1  6  0  0  0
  2  1  1  0  0  0  0
  2 25  1  0  0  0  0
  3 10  1  0  0  0  0
  3  2  1  0  0  0  0
  4  3  1  0  0  0  0
  5  4  1  0  0  0  0
  5 11  1  0  0  0  0
  5  6  1  0  0  0  0
  6 13  1  1  0  0  0
  6  1  1  0  0  0  0
  9  3  1  0  0  0  0
 12  5  1  0  0  0  0
 15 14  1  0  0  0  0
 15  6  1  0  0  0  0
 16 15  2  0  0  0  0
 17 16  1  0  0  0  0
 18 19  2  0  0  0  0
 18 16  1  0  0  0  0
 19 20  1  0  0  0  0
 20 14  2  0  0  0  0
 21 19  1  0  0  0  0
 22 24  1  0  0  0  0
 22 21  1  0  0  0  0
 23 22  1  0  0  0  0
 24 18  1  0  0  0  0
 25 31  1  0  0  0  0
 26 35  1  0  0  0  0
 26 27  1  0  0  0  0
 27 41  1  0  0  0  0
 28 27  2  0  0  0  0
 28 36  1  0  0  0  0
 29 28  1  0  0  0  0
 30 37  1  0  0  0  0
 30 29  1  0  0  0  0
 31 30  1  0  0  0  0
 32 31  2  0  0  0  0
 32 33  1  0  0  0  0
 33 34  1  0  0  0  0
 33 29  2  0  0  0  0
 34 26  2  0  0  0  0
 38 34  1  0  0  0  0
 39 44  1  0  0  0  0
 39 45  1  0  0  0  0
 40 39  2  0  0  0  0
 41 42  2  0  0  0  0
 41 40  1  0  0  0  0
 42 43  1  0  0  0  0
 43 47  1  0  0  0  0
 43 44  2  0  0  0  0
 46 40  1  0  0  0  0
M  END
>  <minimizedAffinity>
-6.14310789

>  <minimizedRMSD>
1.45401204

$$$$
