
 OpenBabel03272505533D

 46 50  0  0  1  0  0  0  0  0999 V2000
   37.6550   28.9160   29.3040 C   0  0  0  0  0  0  0  0  0  0  0  0
   39.0200   28.7520   28.9810 C   0  0  0  0  0  0  0  0  0  0  0  0
   39.6700   27.6490   29.5260 C   0  0  0  0  0  0  0  0  0  0  0  0
   38.9580   26.8100   30.3250 N   0  0  0  0  0  0  0  0  0  0  0  0
   37.6730   27.0050   30.6010 C   0  0  0  0  0  0  0  0  0  0  0  0
   37.0160   28.0560   30.0950 N   0  0  0  0  0  0  0  0  0  0  0  0
   36.9860   26.0940   31.4430 N   0  0  0  0  0  0  0  0  0  0  0  0
   35.5590   25.8630   31.3200 C   0  0  0  0  0  0  0  0  0  0  0  0
   35.2850   24.4000   31.1700 C   0  0  0  0  0  0  0  0  0  0  0  0
   36.3240   23.5430   31.4770 N   0  0  0  0  0  0  0  0  0  0  0  0
   37.3750   23.9290   32.3820 C   0  0  0  0  0  0  0  0  0  0  0  0
   37.6820   25.3430   32.4770 C   0  0  2  0  0  0  0  0  0  0  0  0
   37.2020   29.7910   28.8520 H   0  0  0  0  0  0  0  0  0  0  0  0
   39.5830   29.4130   28.3510 H   0  0  0  0  0  0  0  0  0  0  0  0
   40.7130   27.4080   29.3570 H   0  0  0  0  0  0  0  0  0  0  0  0
   35.2700   26.3220   30.3230 H   0  0  0  0  0  0  0  0  0  0  0  0
   34.9450   26.4020   32.0390 H   0  0  0  0  0  0  0  0  0  0  0  0
   34.8560   24.1270   30.1840 H   0  0  0  0  0  0  0  0  0  0  0  0
   34.4320   24.1960   31.8840 H   0  0  0  0  0  0  0  0  0  0  0  0
   36.5630   22.8690   30.7500 H   0  0  0  0  0  0  0  0  0  0  0  0
   38.2900   23.4450   31.8900 H   0  0  0  0  0  0  0  0  0  0  0  0
   37.2450   23.2940   33.2450 H   0  0  0  0  0  0  0  0  0  0  0  0
   38.7850   25.5650   32.3370 H   0  0  0  0  0  0  0  0  0  0  0  0
   37.3340   25.9520   33.7490 N   0  0  2  0  0  0  0  0  0  0  0  0
   36.6470   27.2280   33.5550 C   0  0  0  0  0  0  0  0  0  0  0  0
   37.0940   28.1460   34.6740 C   0  0  0  0  0  0  0  0  0  0  0  0
   37.8690   27.2380   35.5630 C   0  0  0  0  0  0  0  0  0  0  0  0
   38.4530   26.2020   34.5830 C   0  0  1  0  0  0  0  0  0  0  0  0
   36.8380   27.6540   32.5580 H   0  0  0  0  0  0  0  0  0  0  0  0
   35.5630   27.0260   33.6750 H   0  0  0  0  0  0  0  0  0  0  0  0
   36.2340   28.5560   35.2340 H   0  0  0  0  0  0  0  0  0  0  0  0
   37.7490   28.9320   34.2540 H   0  0  0  0  0  0  0  0  0  0  0  0
   38.6910   27.7490   36.1180 H   0  0  0  0  0  0  0  0  0  0  0  0
   37.2460   26.7140   36.3140 H   0  0  0  0  0  0  0  0  0  0  0  0
   39.2840   26.7830   34.1860 H   0  0  0  0  0  0  0  0  0  0  0  0
   38.1180   24.6520   36.6110 C   0  0  0  0  0  3  0  0  0  0  0  0
   38.8290   25.1130   35.5220 C   0  0  0  0  0  0  0  0  0  0  0  0
   40.0260   24.4590   35.2990 C   0  0  0  0  0  0  0  0  0  0  0  0
   40.7220   24.6970   34.4780 H   0  0  0  0  0  0  0  0  0  0  0  0
   40.4870   23.4260   36.0880 C   0  0  0  0  0  0  0  0  0  0  0  0
   39.7380   23.0020   37.1660 C   0  0  0  0  0  0  0  0  0  0  0  0
   38.5380   23.6260   37.4260 C   0  0  0  0  0  3  0  0  0  0  0  0
   40.4260   21.9520   37.7950 O   0  0  0  0  0  0  0  0  0  0  0  0
   41.4700   21.5140   36.9330 C   0  0  0  0  0  3  0  0  0  0  0  0
   42.4280   21.3950   37.4780 H   0  0  0  0  0  0  0  0  0  0  0  0
   41.6360   22.6140   36.0810 O   0  0  0  0  0  0  0  0  0  0  0  0
  1  6  1  0  0  0  0
  2  1  2  0  0  0  0
  2  3  1  0  0  0  0
  3  4  2  0  0  0  0
  4  5  1  0  0  0  0
  5  7  1  0  0  0  0
  6  5  2  0  0  0  0
  7 12  1  0  0  0  0
  8  7  1  0  0  0  0
  8 17  1  0  0  0  0
  9  8  1  0  0  0  0
  9 10  1  0  0  0  0
  9 19  1  0  0  0  0
 10 11  1  0  0  0  0
 11 12  1  0  0  0  0
 11 22  1  0  0  0  0
 12 23  1  6  0  0  0
 12 24  1  0  0  0  0
 13  1  1  0  0  0  0
 14  2  1  0  0  0  0
 15  3  1  0  0  0  0
 16  8  1  0  0  0  0
 18  9  1  0  0  0  0
 20 10  1  0  0  0  0
 21 11  1  0  0  0  0
 24 25  1  6  0  0  0
 24 28  1  0  0  0  0
 25 30  1  0  0  0  0
 25 26  1  0  0  0  0
 26 31  1  0  0  0  0
 26 27  1  0  0  0  0
 27 33  1  0  0  0  0
 27 34  1  0  0  0  0
 28 35  1  6  0  0  0
 28 37  1  0  0  0  0
 28 27  1  0  0  0  0
 29 25  1  0  0  0  0
 32 26  1  0  0  0  0
 36 42  1  0  0  0  0
 37 36  2  0  0  0  0
 38 37  1  0  0  0  0
 38 40  2  0  0  0  0
 39 38  1  0  0  0  0
 40 41  1  0  0  0  0
 41 42  2  0  0  0  0
 41 43  1  0  0  0  0
 44 45  1  0  0  0  0
 44 43  1  0  0  0  0
 46 40  1  0  0  0  0
 46 44  1  0  0  0  0
M  END
>  <minimizedAffinity>
-6.45865822

$$$$

 OpenBabel03272505533D

 46 50  0  0  1  0  0  0  0  0999 V2000
   37.9460   22.7480   31.2560 C   0  0  0  0  0  0  0  0  0  0  0  0
   36.6220   22.2670   31.3640 C   0  0  0  0  0  0  0  0  0  0  0  0
   35.6050   23.2160   31.3740 C   0  0  0  0  0  0  0  0  0  0  0  0
   35.9450   24.5300   31.2810 N   0  0  0  0  0  0  0  0  0  0  0  0
   37.2060   24.9350   31.1810 C   0  0  0  0  0  0  0  0  0  0  0  0
   38.2110   24.0510   31.1680 N   0  0  0  0  0  0  0  0  0  0  0  0
   37.4960   26.3200   31.0890 N   0  0  0  0  0  0  0  0  0  0  0  0
   38.6740   26.8130   30.4000 C   0  0  0  0  0  0  0  0  0  0  0  0
   38.2850   27.8330   29.3770 C   0  0  0  0  0  0  0  0  0  0  0  0
   37.0040   28.3430   29.4710 N   0  0  0  0  0  0  0  0  0  0  0  0
   36.2880   28.3510   30.7190 C   0  0  0  0  0  0  0  0  0  0  0  0
   36.6230   27.3210   31.6840 C   0  0  2  0  0  0  0  0  0  0  0  0
   38.6960   21.9650   31.2530 H   0  0  0  0  0  0  0  0  0  0  0  0
   36.3520   21.2320   31.4370 H   0  0  0  0  0  0  0  0  0  0  0  0
   34.5500   22.9810   31.4510 H   0  0  0  0  0  0  0  0  0  0  0  0
   39.0590   25.9270   29.8020 H   0  0  0  0  0  0  0  0  0  0  0  0
   39.5100   27.0680   31.0480 H   0  0  0  0  0  0  0  0  0  0  0  0
   38.4840   27.5150   28.3330 H   0  0  0  0  0  0  0  0  0  0  0  0
   39.0170   28.6810   29.5280 H   0  0  0  0  0  0  0  0  0  0  0  0
   36.4480   28.2850   28.6180 H   0  0  0  0  0  0  0  0  0  0  0  0
   35.2210   28.1170   30.3730 H   0  0  0  0  0  0  0  0  0  0  0  0
   36.1960   29.3940   30.9800 H   0  0  0  0  0  0  0  0  0  0  0  0
   35.7140   26.7580   32.0610 H   0  0  0  0  0  0  0  0  0  0  0  0
   37.2890   27.8070   32.8790 N   0  0  2  0  0  0  0  0  0  0  0  0
   38.4790   27.0120   33.1830 C   0  0  0  0  0  0  0  0  0  0  0  0
   38.5770   26.9220   34.6920 C   0  0  0  0  0  0  0  0  0  0  0  0
   37.5230   27.8640   35.1540 C   0  0  0  0  0  0  0  0  0  0  0  0
   36.4660   27.7860   34.0340 C   0  0  1  0  0  0  0  0  0  0  0  0
   38.4490   26.0220   32.7020 H   0  0  0  0  0  0  0  0  0  0  0  0
   39.3480   27.5870   32.8060 H   0  0  0  0  0  0  0  0  0  0  0  0
   39.5610   27.2680   35.0580 H   0  0  0  0  0  0  0  0  0  0  0  0
   38.3400   25.8880   35.0070 H   0  0  0  0  0  0  0  0  0  0  0  0
   37.0680   27.5830   36.1330 H   0  0  0  0  0  0  0  0  0  0  0  0
   37.8730   28.9110   35.2470 H   0  0  0  0  0  0  0  0  0  0  0  0
   35.9800   26.8530   34.3160 H   0  0  0  0  0  0  0  0  0  0  0  0
   34.4250   29.3420   33.8380 C   0  0  0  0  0  3  0  0  0  0  0  0
   35.6830   29.0200   34.3050 C   0  0  0  0  0  0  0  0  0  0  0  0
   36.2540   29.9740   35.1250 C   0  0  0  0  0  0  0  0  0  0  0  0
   37.2520   29.8840   35.5840 H   0  0  0  0  0  0  0  0  0  0  0  0
   35.6320   31.1580   35.4630 C   0  0  0  0  0  0  0  0  0  0  0  0
   34.3740   31.4340   34.9700 C   0  0  0  0  0  0  0  0  0  0  0  0
   33.7660   30.5110   34.1480 C   0  0  0  0  0  3  0  0  0  0  0  0
   33.9730   32.6880   35.4600 O   0  0  0  0  0  0  0  0  0  0  0  0
   34.8600   33.0690   36.5050 C   0  0  0  0  0  3  0  0  0  0  0  0
   35.1970   34.1190   36.3930 H   0  0  0  0  0  0  0  0  0  0  0  0
   35.9810   32.2670   36.2550 O   0  0  0  0  0  0  0  0  0  0  0  0
  1  2  1  0  0  0  0
  2  3  2  0  0  0  0
  2 14  1  0  0  0  0
  3 15  1  0  0  0  0
  4  3  1  0  0  0  0
  5  4  2  0  0  0  0
  6  5  1  0  0  0  0
  6  1  2  0  0  0  0
  7  5  1  0  0  0  0
  7 12  1  0  0  0  0
  8 17  1  0  0  0  0
  8  7  1  0  0  0  0
  9 10  1  0  0  0  0
  9 19  1  0  0  0  0
  9  8  1  0  0  0  0
 10 11  1  0  0  0  0
 11 22  1  0  0  0  0
 11 12  1  0  0  0  0
 12 23  1  1  0  0  0
 12 24  1  0  0  0  0
 13  1  1  0  0  0  0
 16  8  1  0  0  0  0
 18  9  1  0  0  0  0
 20 10  1  0  0  0  0
 21 11  1  0  0  0  0
 24 25  1  1  0  0  0
 24 28  1  0  0  0  0
 25 26  1  0  0  0  0
 26 32  1  0  0  0  0
 26 31  1  0  0  0  0
 26 27  1  0  0  0  0
 27 34  1  0  0  0  0
 27 33  1  0  0  0  0
 28 37  1  0  0  0  0
 28 35  1  1  0  0  0
 28 27  1  0  0  0  0
 29 25  1  0  0  0  0
 30 25  1  0  0  0  0
 36 42  2  0  0  0  0
 36 37  1  0  0  0  0
 37 38  2  0  0  0  0
 38 40  1  0  0  0  0
 38 39  1  0  0  0  0
 40 46  1  0  0  0  0
 41 43  1  0  0  0  0
 41 40  2  0  0  0  0
 42 41  1  0  0  0  0
 43 44  1  0  0  0  0
 45 44  1  0  0  0  0
 46 44  1  0  0  0  0
M  END
>  <minimizedAffinity>
-6.06880617

$$$$

 OpenBabel03272505533D

 46 50  0  0  1  0  0  0  0  0999 V2000
   39.7420   22.7180   37.9200 C   0  0  0  0  0  0  0  0  0  0  0  0
   38.7500   23.3840   38.6740 C   0  0  0  0  0  0  0  0  0  0  0  0
   37.7760   24.0780   37.9620 C   0  0  0  0  0  0  0  0  0  0  0  0
   37.8400   24.0710   36.6040 N   0  0  0  0  0  0  0  0  0  0  0  0
   38.7940   23.4290   35.9380 C   0  0  0  0  0  0  0  0  0  0  0  0
   39.7480   22.7520   36.5880 N   0  0  0  0  0  0  0  0  0  0  0  0
   38.8070   23.4610   34.5200 N   0  0  0  0  0  0  0  0  0  0  0  0
   39.3700   22.3790   33.7340 C   0  0  0  0  0  0  0  0  0  0  0  0
   38.3700   21.8980   32.7300 C   0  0  0  0  0  0  0  0  0  0  0  0
   37.2770   22.7130   32.5080 N   0  0  0  0  0  0  0  0  0  0  0  0
   37.3310   24.1290   32.7600 C   0  0  0  0  0  0  0  0  0  0  0  0
   38.2550   24.5860   33.7800 C   0  0  2  0  0  0  0  0  0  0  0  0
   40.4740   22.1960   38.5260 H   0  0  0  0  0  0  0  0  0  0  0  0
   38.6980   23.3910   39.7450 H   0  0  0  0  0  0  0  0  0  0  0  0
   36.9610   24.6280   38.4180 H   0  0  0  0  0  0  0  0  0  0  0  0
   39.4950   21.5180   34.4630 H   0  0  0  0  0  0  0  0  0  0  0  0
   40.3800   22.5550   33.3690 H   0  0  0  0  0  0  0  0  0  0  0  0
   38.0300   20.8570   32.9050 H   0  0  0  0  0  0  0  0  0  0  0  0
   38.9540   21.8150   31.7650 H   0  0  0  0  0  0  0  0  0  0  0  0
   36.3690   22.2590   32.6040 H   0  0  0  0  0  0  0  0  0  0  0  0
   36.2830   24.3270   33.1790 H   0  0  0  0  0  0  0  0  0  0  0  0
   37.2540   24.5870   31.7860 H   0  0  0  0  0  0  0  0  0  0  0  0
   37.7640   25.2570   34.5510 H   0  0  0  0  0  0  0  0  0  0  0  0
   39.3800   25.3540   33.2750 N   0  0  2  0  0  0  0  0  0  0  0  0
   40.6080   25.0330   34.0010 C   0  0  0  0  0  0  0  0  0  0  0  0
   41.4060   26.3170   34.1100 C   0  0  0  0  0  0  0  0  0  0  0  0
   40.6480   27.2570   33.2400 C   0  0  0  0  0  0  0  0  0  0  0  0
   39.1950   26.7570   33.3640 C   0  0  1  0  0  0  0  0  0  0  0  0
   40.4030   24.5790   34.9830 H   0  0  0  0  0  0  0  0  0  0  0  0
   41.1740   24.3190   33.3690 H   0  0  0  0  0  0  0  0  0  0  0  0
   42.4290   26.1970   33.7110 H   0  0  0  0  0  0  0  0  0  0  0  0
   41.3910   26.6620   35.1610 H   0  0  0  0  0  0  0  0  0  0  0  0
   40.7170   28.3220   33.5650 H   0  0  0  0  0  0  0  0  0  0  0  0
   40.9530   27.2200   32.1760 H   0  0  0  0  0  0  0  0  0  0  0  0
   38.9400   27.1920   34.3290 H   0  0  0  0  0  0  0  0  0  0  0  0
   37.3110   27.9600   32.0880 C   0  0  0  0  0  3  0  0  0  0  0  0
   38.5740   27.4130   32.1850 C   0  0  0  0  0  0  0  0  0  0  0  0
   39.3310   27.5090   31.0320 C   0  0  0  0  0  0  0  0  0  0  0  0
   40.3590   27.1250   30.9290 H   0  0  0  0  0  0  0  0  0  0  0  0
   38.8790   28.1020   29.8710 C   0  0  0  0  0  0  0  0  0  0  0  0
   37.6070   28.6340   29.8260 C   0  0  0  0  0  0  0  0  0  0  0  0
   36.8170   28.5610   30.9520 C   0  0  0  0  0  3  0  0  0  0  0  0
   37.3990   29.1700   28.5450 O   0  0  0  0  0  0  0  0  0  0  0  0
   38.6520   29.2400   27.8750 C   0  0  0  0  0  3  0  0  0  0  0  0
   38.5860   28.8450   26.8410 H   0  0  0  0  0  0  0  0  0  0  0  0
   39.4300   28.3260   28.5970 O   0  0  0  0  0  0  0  0  0  0  0  0
  1 13  1  0  0  0  0
  1  2  1  0  0  0  0
  2 14  1  0  0  0  0
  3 15  1  0  0  0  0
  3  2  2  0  0  0  0
  4  3  1  0  0  0  0
  5  6  1  0  0  0  0
  5  4  2  0  0  0  0
  6  1  2  0  0  0  0
  7  5  1  0  0  0  0
  8 16  1  0  0  0  0
  8  7  1  0  0  0  0
  9 18  1  0  0  0  0
  9  8  1  0  0  0  0
 10 20  1  0  0  0  0
 10  9  1  0  0  0  0
 10 11  1  0  0  0  0
 11 21  1  0  0  0  0
 11 12  1  0  0  0  0
 12  7  1  0  0  0  0
 12 23  1  1  0  0  0
 17  8  1  0  0  0  0
 19  9  1  0  0  0  0
 22 11  1  0  0  0  0
 24 28  1  0  0  0  0
 24 12  1  0  0  0  0
 24 25  1  1  0  0  0
 25 26  1  0  0  0  0
 25 29  1  0  0  0  0
 26 32  1  0  0  0  0
 27 28  1  0  0  0  0
 27 33  1  0  0  0  0
 27 26  1  0  0  0  0
 28 35  1  1  0  0  0
 30 25  1  0  0  0  0
 31 26  1  0  0  0  0
 34 27  1  0  0  0  0
 36 37  1  0  0  0  0
 37 28  1  0  0  0  0
 38 37  2  0  0  0  0
 39 38  1  0  0  0  0
 40 38  1  0  0  0  0
 41 40  2  0  0  0  0
 41 42  1  0  0  0  0
 42 36  2  0  0  0  0
 43 41  1  0  0  0  0
 44 43  1  0  0  0  0
 44 46  1  0  0  0  0
 45 44  1  0  0  0  0
 46 40  1  0  0  0  0
M  END
>  <minimizedAffinity>
-6.05063772

$$$$

 OpenBabel03272505533D

 46 50  0  0  1  0  0  0  0  0999 V2000
   37.7010   24.5590   36.6670 C   0  0  0  0  0  0  0  0  0  0  0  0
   38.2860   23.2990   36.9280 C   0  0  0  0  0  0  0  0  0  0  0  0
   39.0080   22.7120   35.8950 C   0  0  0  0  0  0  0  0  0  0  0  0
   39.1050   23.3790   34.7130 N   0  0  0  0  0  0  0  0  0  0  0  0
   38.5370   24.5630   34.5130 C   0  0  0  0  0  0  0  0  0  0  0  0
   37.8340   25.1590   35.4850 N   0  0  0  0  0  0  0  0  0  0  0  0
   38.6730   25.2070   33.2570 N   0  0  0  0  0  0  0  0  0  0  0  0
   38.6430   26.6520   33.1290 C   0  0  0  0  0  0  0  0  0  0  0  0
   39.8550   27.1300   32.3950 C   0  0  0  0  0  0  0  0  0  0  0  0
   40.5880   26.1710   31.7230 N   0  0  0  0  0  0  0  0  0  0  0  0
   39.9860   24.9420   31.2760 C   0  0  0  0  0  0  0  0  0  0  0  0
   38.8500   24.4470   32.0290 C   0  0  2  0  0  0  0  0  0  0  0  0
   37.1510   24.9680   37.5070 H   0  0  0  0  0  0  0  0  0  0  0  0
   38.2110   22.7720   37.8590 H   0  0  0  0  0  0  0  0  0  0  0  0
   39.5050   21.7510   35.9640 H   0  0  0  0  0  0  0  0  0  0  0  0
   38.7630   27.0450   34.1870 H   0  0  0  0  0  0  0  0  0  0  0  0
   37.6870   27.0630   32.8100 H   0  0  0  0  0  0  0  0  0  0  0  0
   40.5340   27.7510   33.0150 H   0  0  0  0  0  0  0  0  0  0  0  0
   39.4570   27.8690   31.6380 H   0  0  0  0  0  0  0  0  0  0  0  0
   41.5820   26.1450   31.9470 H   0  0  0  0  0  0  0  0  0  0  0  0
   40.8320   24.1920   31.4620 H   0  0  0  0  0  0  0  0  0  0  0  0
   39.9980   25.0030   30.1990 H   0  0  0  0  0  0  0  0  0  0  0  0
   38.9680   23.3650   32.3450 H   0  0  0  0  0  0  0  0  0  0  0  0
   37.5860   24.4950   31.3150 N   0  0  2  0  0  0  0  0  0  0  0  0
   37.2070   25.8730   31.0020 C   0  0  0  0  0  0  0  0  0  0  0  0
   35.6980   25.9550   31.1200 C   0  0  0  0  0  0  0  0  0  0  0  0
   35.2990   24.5330   31.3000 C   0  0  0  0  0  0  0  0  0  0  0  0
   36.5070   23.9180   32.0330 C   0  0  1  0  0  0  0  0  0  0  0  0
   37.7210   26.6010   31.6490 H   0  0  0  0  0  0  0  0  0  0  0  0
   37.4880   26.0470   29.9440 H   0  0  0  0  0  0  0  0  0  0  0  0
   35.2380   26.3480   30.1960 H   0  0  0  0  0  0  0  0  0  0  0  0
   35.4390   26.5480   32.0170 H   0  0  0  0  0  0  0  0  0  0  0  0
   34.3730   24.4010   31.9080 H   0  0  0  0  0  0  0  0  0  0  0  0
   35.1420   23.9920   30.3460 H   0  0  0  0  0  0  0  0  0  0  0  0
   36.3000   24.2700   33.0410 H   0  0  0  0  0  0  0  0  0  0  0  0
   35.2720   21.6800   32.3430 C   0  0  0  0  0  3  0  0  0  0  0  0
   36.2660   22.4700   31.8000 C   0  0  0  0  0  0  0  0  0  0  0  0
   37.1180   21.8090   30.9360 C   0  0  0  0  0  0  0  0  0  0  0  0
   37.9670   22.2810   30.4160 H   0  0  0  0  0  0  0  0  0  0  0  0
   36.9990   20.4690   30.6270 C   0  0  0  0  0  0  0  0  0  0  0  0
   35.9880   19.7230   31.1960 C   0  0  0  0  0  0  0  0  0  0  0  0
   35.1150   20.3420   32.0640 C   0  0  0  0  0  3  0  0  0  0  0  0
   36.0910   18.4060   30.7200 O   0  0  0  0  0  0  0  0  0  0  0  0
   36.9890   18.3920   29.6170 C   0  0  0  0  0  3  0  0  0  0  0  0
   37.7230   17.5660   29.6960 H   0  0  0  0  0  0  0  0  0  0  0  0
   37.7110   19.5790   29.8030 O   0  0  0  0  0  0  0  0  0  0  0  0
  1  2  1  0  0  0  0
  1 13  1  0  0  0  0
  2 14  1  0  0  0  0
  3 15  1  0  0  0  0
  3  2  2  0  0  0  0
  4  3  1  0  0  0  0
  5  4  2  0  0  0  0
  5  6  1  0  0  0  0
  6  1  2  0  0  0  0
  7  5  1  0  0  0  0
  8  7  1  0  0  0  0
  8 16  1  0  0  0  0
  9 18  1  0  0  0  0
  9  8  1  0  0  0  0
 10 20  1  0  0  0  0
 10  9  1  0  0  0  0
 11 21  1  0  0  0  0
 11 10  1  0  0  0  0
 11 12  1  0  0  0  0
 12 23  1  1  0  0  0
 12  7  1  0  0  0  0
 17  8  1  0  0  0  0
 19  9  1  0  0  0  0
 22 11  1  0  0  0  0
 24 25  1  1  0  0  0
 24 12  1  0  0  0  0
 24 28  1  0  0  0  0
 25 26  1  0  0  0  0
 25 29  1  0  0  0  0
 26 27  1  0  0  0  0
 26 32  1  0  0  0  0
 27 33  1  0  0  0  0
 27 28  1  0  0  0  0
 28 35  1  1  0  0  0
 30 25  1  0  0  0  0
 31 26  1  0  0  0  0
 34 27  1  0  0  0  0
 37 28  1  0  0  0  0
 37 36  2  0  0  0  0
 38 37  1  0  0  0  0
 39 38  1  0  0  0  0
 40 38  2  0  0  0  0
 40 41  1  0  0  0  0
 41 42  2  0  0  0  0
 42 36  1  0  0  0  0
 43 41  1  0  0  0  0
 44 45  1  0  0  0  0
 44 46  1  0  0  0  0
 44 43  1  0  0  0  0
 46 40  1  0  0  0  0
M  END
>  <minimizedAffinity>
-6.01584244

$$$$

 OpenBabel03272505533D

 46 50  0  0  1  0  0  0  0  0999 V2000
   40.0770   22.7230   37.6010 C   0  0  0  0  0  0  0  0  0  0  0  0
   39.0140   23.2010   38.4000 C   0  0  0  0  0  0  0  0  0  0  0  0
   37.8940   23.6880   37.7350 C   0  0  0  0  0  0  0  0  0  0  0  0
   37.8920   23.6730   36.3750 N   0  0  0  0  0  0  0  0  0  0  0  0
   38.9170   23.2130   35.6650 C   0  0  0  0  0  0  0  0  0  0  0  0
   40.0120   22.7370   36.2710 N   0  0  0  0  0  0  0  0  0  0  0  0
   38.8560   23.2260   34.2480 N   0  0  0  0  0  0  0  0  0  0  0  0
   39.5740   22.2580   33.4410 C   0  0  0  0  0  0  0  0  0  0  0  0
   38.6360   21.5820   32.4910 C   0  0  0  0  0  0  0  0  0  0  0  0
   37.3990   22.1730   32.3190 N   0  0  0  0  0  0  0  0  0  0  0  0
   37.1970   23.5770   32.5610 C   0  0  0  0  0  0  0  0  0  0  0  0
   38.0660   24.2160   33.5310 C   0  0  2  0  0  0  0  0  0  0  0  0
   40.9220   22.3570   38.1730 H   0  0  0  0  0  0  0  0  0  0  0  0
   39.0130   23.2140   39.4730 H   0  0  0  0  0  0  0  0  0  0  0  0
   37.0120   24.0820   38.2270 H   0  0  0  0  0  0  0  0  0  0  0  0
   39.8940   21.4470   34.1680 H   0  0  0  0  0  0  0  0  0  0  0  0
   40.5140   22.6160   33.0250 H   0  0  0  0  0  0  0  0  0  0  0  0
   38.5070   20.4980   32.6890 H   0  0  0  0  0  0  0  0  0  0  0  0
   39.1780   21.5960   31.4980 H   0  0  0  0  0  0  0  0  0  0  0  0
   36.5980   21.5580   32.4630 H   0  0  0  0  0  0  0  0  0  0  0  0
   36.1520   23.5810   33.0310 H   0  0  0  0  0  0  0  0  0  0  0  0
   36.9880   23.9990   31.5900 H   0  0  0  0  0  0  0  0  0  0  0  0
   37.4950   24.7940   34.3220 H   0  0  0  0  0  0  0  0  0  0  0  0
   39.0000   25.1740   32.9660 N   0  0  2  0  0  0  0  0  0  0  0  0
   40.3840   24.7400   33.1570 C   0  0  0  0  0  0  0  0  0  0  0  0
   41.2090   25.9880   33.4020 C   0  0  0  0  0  0  0  0  0  0  0  0
   40.2440   27.0860   33.1250 C   0  0  0  0  0  0  0  0  0  0  0  0
   38.8880   26.4720   33.5240 C   0  0  1  0  0  0  0  0  0  0  0  0
   40.4790   24.0050   33.9710 H   0  0  0  0  0  0  0  0  0  0  0  0
   40.7090   24.2840   32.2010 H   0  0  0  0  0  0  0  0  0  0  0  0
   42.0560   26.0610   32.6970 H   0  0  0  0  0  0  0  0  0  0  0  0
   41.5260   26.0070   34.4610 H   0  0  0  0  0  0  0  0  0  0  0  0
   40.4360   28.0120   33.7180 H   0  0  0  0  0  0  0  0  0  0  0  0
   40.2060   27.3850   32.0590 H   0  0  0  0  0  0  0  0  0  0  0  0
   38.9530   26.5870   34.6040 H   0  0  0  0  0  0  0  0  0  0  0  0
   38.0470   27.9110   31.5610 C   0  0  0  0  0  3  0  0  0  0  0  0
   37.9510   27.4020   32.8400 C   0  0  0  0  0  0  0  0  0  0  0  0
   36.8350   27.8170   33.5420 C   0  0  0  0  0  0  0  0  0  0  0  0
   36.5990   27.5120   34.5740 H   0  0  0  0  0  0  0  0  0  0  0  0
   35.8830   28.6700   33.0220 C   0  0  0  0  0  0  0  0  0  0  0  0
   36.0250   29.1520   31.7370 C   0  0  0  0  0  0  0  0  0  0  0  0
   37.1230   28.7640   31.0010 C   0  0  0  0  0  3  0  0  0  0  0  0
   34.9330   29.9890   31.4570 O   0  0  0  0  0  0  0  0  0  0  0  0
   33.9460   29.7970   32.4630 C   0  0  0  0  0  3  0  0  0  0  0  0
   33.5560   30.7620   32.8440 H   0  0  0  0  0  0  0  0  0  0  0  0
   34.6890   29.2320   33.5080 O   0  0  0  0  0  0  0  0  0  0  0  0
  1 13  1  0  0  0  0
  1  2  1  0  0  0  0
  2 14  1  0  0  0  0
  3 15  1  0  0  0  0
  3  2  2  0  0  0  0
  4  3  1  0  0  0  0
  5  6  1  0  0  0  0
  5  4  2  0  0  0  0
  6  1  2  0  0  0  0
  7  5  1  0  0  0  0
  8 16  1  0  0  0  0
  8  7  1  0  0  0  0
  9 18  1  0  0  0  0
  9  8  1  0  0  0  0
 10 20  1  0  0  0  0
 10  9  1  0  0  0  0
 10 11  1  0  0  0  0
 11 21  1  0  0  0  0
 11 12  1  0  0  0  0
 12  7  1  0  0  0  0
 12 23  1  1  0  0  0
 17  8  1  0  0  0  0
 19  9  1  0  0  0  0
 22 11  1  0  0  0  0
 24 25  1  1  0  0  0
 24 28  1  0  0  0  0
 24 12  1  0  0  0  0
 25 26  1  0  0  0  0
 25 29  1  0  0  0  0
 26 32  1  0  0  0  0
 27 26  1  0  0  0  0
 27 28  1  0  0  0  0
 27 33  1  0  0  0  0
 28 35  1  1  0  0  0
 30 25  1  0  0  0  0
 31 26  1  0  0  0  0
 34 27  1  0  0  0  0
 36 37  1  0  0  0  0
 37 28  1  0  0  0  0
 37 38  2  0  0  0  0
 38 39  1  0  0  0  0
 40 46  1  0  0  0  0
 40 38  1  0  0  0  0
 41 40  2  0  0  0  0
 42 36  2  0  0  0  0
 42 41  1  0  0  0  0
 43 41  1  0  0  0  0
 43 44  1  0  0  0  0
 44 45  1  0  0  0  0
 44 46  1  0  0  0  0
M  END
>  <minimizedAffinity>
-5.99302483

$$$$

 OpenBabel03272505533D

 46 50  0  0  1  0  0  0  0  0999 V2000
   39.5340   27.1450   35.2490 C   0  0  0  0  0  0  0  0  0  0  0  0
   38.6720   26.7000   36.2760 C   0  0  0  0  0  0  0  0  0  0  0  0
   37.4370   26.1890   35.8870 C   0  0  0  0  0  0  0  0  0  0  0  0
   37.1420   26.1520   34.5590 N   0  0  0  0  0  0  0  0  0  0  0  0
   37.9860   26.5840   33.6290 C   0  0  0  0  0  0  0  0  0  0  0  0
   39.1830   27.0810   33.9660 N   0  0  0  0  0  0  0  0  0  0  0  0
   37.6190   26.5200   32.2600 N   0  0  0  0  0  0  0  0  0  0  0  0
   38.6070   26.3810   31.2070 C   0  0  0  0  0  0  0  0  0  0  0  0
   38.2680   25.2150   30.3330 C   0  0  0  0  0  0  0  0  0  0  0  0
   36.9930   24.6990   30.4600 N   0  0  0  0  0  0  0  0  0  0  0  0
   35.9010   25.5020   30.9440 C   0  0  0  0  0  0  0  0  0  0  0  0
   36.2270   26.5930   31.8430 C   0  0  2  0  0  0  0  0  0  0  0  0
   40.4800   27.5320   35.6100 H   0  0  0  0  0  0  0  0  0  0  0  0
   38.9030   26.7280   37.3230 H   0  0  0  0  0  0  0  0  0  0  0  0
   36.6870   25.8150   36.5720 H   0  0  0  0  0  0  0  0  0  0  0  0
   39.5660   26.0830   31.7380 H   0  0  0  0  0  0  0  0  0  0  0  0
   38.8710   27.3070   30.7010 H   0  0  0  0  0  0  0  0  0  0  0  0
   39.0100   24.3920   30.3820 H   0  0  0  0  0  0  0  0  0  0  0  0
   38.3900   25.6050   29.2790 H   0  0  0  0  0  0  0  0  0  0  0  0
   36.9440   23.6960   30.6390 H   0  0  0  0  0  0  0  0  0  0  0  0
   35.3200   24.7430   31.5750 H   0  0  0  0  0  0  0  0  0  0  0  0
   35.2430   25.6140   30.0960 H   0  0  0  0  0  0  0  0  0  0  0  0
   35.6140   26.5770   32.7960 H   0  0  0  0  0  0  0  0  0  0  0  0
   36.0210   27.9170   31.2840 N   0  0  2  0  0  0  0  0  0  0  0  0
   36.8320   28.1180   30.0840 C   0  0  0  0  0  0  0  0  0  0  0  0
   37.2760   29.5670   30.0870 C   0  0  0  0  0  0  0  0  0  0  0  0
   36.4990   30.1530   31.2120 C   0  0  0  0  0  0  0  0  0  0  0  0
   36.3380   28.9670   32.1830 C   0  0  1  0  0  0  0  0  0  0  0  0
   37.6800   27.4170   30.0350 H   0  0  0  0  0  0  0  0  0  0  0  0
   36.1610   27.9560   29.2170 H   0  0  0  0  0  0  0  0  0  0  0  0
   37.0000   30.0800   29.1480 H   0  0  0  0  0  0  0  0  0  0  0  0
   38.3600   29.6110   30.2990 H   0  0  0  0  0  0  0  0  0  0  0  0
   37.0160   31.0000   31.7210 H   0  0  0  0  0  0  0  0  0  0  0  0
   35.4940   30.5160   30.9170 H   0  0  0  0  0  0  0  0  0  0  0  0
   37.3230   28.9830   32.6460 H   0  0  0  0  0  0  0  0  0  0  0  0
   33.8700   29.2670   32.8560 C   0  0  0  0  0  3  0  0  0  0  0  0
   35.2250   29.4570   33.0380 C   0  0  0  0  0  0  0  0  0  0  0  0
   35.5560   30.1890   34.1630 C   0  0  0  0  0  0  0  0  0  0  0  0
   36.5870   30.4390   34.4630 H   0  0  0  0  0  0  0  0  0  0  0  0
   34.6220   30.6940   35.0450 C   0  0  0  0  0  0  0  0  0  0  0  0
   33.2790   30.4750   34.8170 C   0  0  0  0  0  0  0  0  0  0  0  0
   32.9040   29.7510   33.7070 C   0  0  0  0  0  3  0  0  0  0  0  0
   32.5510   31.0880   35.8500 O   0  0  0  0  0  0  0  0  0  0  0  0
   33.4540   31.4390   36.8920 C   0  0  0  0  0  3  0  0  0  0  0  0
   33.2850   32.4750   37.2490 H   0  0  0  0  0  0  0  0  0  0  0  0
   34.6890   31.4480   36.2300 O   0  0  0  0  0  0  0  0  0  0  0  0
  1 13  1  0  0  0  0
  1  2  1  0  0  0  0
  2 14  1  0  0  0  0
  3  2  2  0  0  0  0
  3 15  1  0  0  0  0
  4  3  1  0  0  0  0
  5  6  1  0  0  0  0
  5  4  2  0  0  0  0
  6  1  2  0  0  0  0
  7  5  1  0  0  0  0
  8 16  1  0  0  0  0
  8  7  1  0  0  0  0
  9 18  1  0  0  0  0
  9 10  1  0  0  0  0
  9  8  1  0  0  0  0
 10 20  1  0  0  0  0
 10 11  1  0  0  0  0
 11 21  1  0  0  0  0
 11 12  1  0  0  0  0
 12  7  1  0  0  0  0
 12 23  1  1  0  0  0
 17  8  1  0  0  0  0
 19  9  1  0  0  0  0
 22 11  1  0  0  0  0
 24 25  1  6  0  0  0
 24 12  1  0  0  0  0
 24 28  1  0  0  0  0
 25 26  1  0  0  0  0
 26 32  1  0  0  0  0
 26 27  1  0  0  0  0
 27 33  1  0  0  0  0
 27 28  1  0  0  0  0
 28 35  1  1  0  0  0
 28 37  1  0  0  0  0
 29 25  1  0  0  0  0
 30 25  1  0  0  0  0
 31 26  1  0  0  0  0
 34 27  1  0  0  0  0
 36 37  2  0  0  0  0
 36 42  1  0  0  0  0
 37 38  1  0  0  0  0
 38 39  1  0  0  0  0
 38 40  2  0  0  0  0
 40 46  1  0  0  0  0
 41 40  1  0  0  0  0
 41 43  1  0  0  0  0
 42 41  2  0  0  0  0
 43 44  1  0  0  0  0
 44 45  1  0  0  0  0
 46 44  1  0  0  0  0
M  END
>  <minimizedAffinity>
-5.96990728

$$$$

 OpenBabel03272505533D

 46 50  0  0  1  0  0  0  0  0999 V2000
   38.0740   24.4460   38.1500 C   0  0  0  0  0  0  0  0  0  0  0  0
   38.7640   23.2390   38.4060 C   0  0  0  0  0  0  0  0  0  0  0  0
   39.5160   22.7090   37.3620 C   0  0  0  0  0  0  0  0  0  0  0  0
   39.5380   23.3760   36.1770 N   0  0  0  0  0  0  0  0  0  0  0  0
   38.8720   24.5090   35.9830 C   0  0  0  0  0  0  0  0  0  0  0  0
   38.1380   25.0490   36.9640 N   0  0  0  0  0  0  0  0  0  0  0  0
   38.9340   25.1560   34.7230 N   0  0  0  0  0  0  0  0  0  0  0  0
   38.7830   26.5930   34.5910 C   0  0  0  0  0  0  0  0  0  0  0  0
   39.9400   27.1660   33.8360 C   0  0  0  0  0  0  0  0  0  0  0  0
   40.7380   26.2680   33.1540 N   0  0  0  0  0  0  0  0  0  0  0  0
   40.2320   24.9920   32.7210 C   0  0  0  0  0  0  0  0  0  0  0  0
   39.1530   24.4080   33.4940 C   0  0  2  0  0  0  0  0  0  0  0  0
   37.5060   24.8120   38.9980 H   0  0  0  0  0  0  0  0  0  0  0  0
   38.7480   22.7120   39.3390 H   0  0  0  0  0  0  0  0  0  0  0  0
   40.0910   21.7930   37.4260 H   0  0  0  0  0  0  0  0  0  0  0  0
   38.8880   27.0000   35.6460 H   0  0  0  0  0  0  0  0  0  0  0  0
   37.7920   26.9240   34.2860 H   0  0  0  0  0  0  0  0  0  0  0  0
   40.5760   27.8440   34.4430 H   0  0  0  0  0  0  0  0  0  0  0  0
   39.4700   27.8670   33.0830 H   0  0  0  0  0  0  0  0  0  0  0  0
   41.7350   26.3250   33.3620 H   0  0  0  0  0  0  0  0  0  0  0  0
   41.1400   24.3140   32.8950 H   0  0  0  0  0  0  0  0  0  0  0  0
   40.2220   25.0490   31.6430 H   0  0  0  0  0  0  0  0  0  0  0  0
   39.3650   23.3410   33.8110 H   0  0  0  0  0  0  0  0  0  0  0  0
   37.8780   24.3500   32.8010 N   0  0  2  0  0  0  0  0  0  0  0  0
   37.3200   22.9980   32.8310 C   0  0  0  0  0  0  0  0  0  0  0  0
   36.6170   22.7800   31.5060 C   0  0  0  0  0  0  0  0  0  0  0  0
   36.6540   24.1300   30.8820 C   0  0  0  0  0  0  0  0  0  0  0  0
   37.9530   24.7410   31.4410 C   0  0  1  0  0  0  0  0  0  0  0  0
   38.0910   22.2360   33.0300 H   0  0  0  0  0  0  0  0  0  0  0  0
   36.5620   22.9840   33.6390 H   0  0  0  0  0  0  0  0  0  0  0  0
   35.5660   22.4720   31.6480 H   0  0  0  0  0  0  0  0  0  0  0  0
   37.2000   22.0580   30.9040 H   0  0  0  0  0  0  0  0  0  0  0  0
   36.6870   24.1080   29.7670 H   0  0  0  0  0  0  0  0  0  0  0  0
   35.7990   24.7750   31.1690 H   0  0  0  0  0  0  0  0  0  0  0  0
   38.6740   24.2470   30.7910 H   0  0  0  0  0  0  0  0  0  0  0  0
   38.4750   27.0170   30.3540 C   0  0  0  0  0  3  0  0  0  0  0  0
   37.7260   26.1830   31.1590 C   0  0  0  0  0  0  0  0  0  0  0  0
   36.6350   26.7880   31.7550 C   0  0  0  0  0  0  0  0  0  0  0  0
   35.9300   26.2750   32.4300 H   0  0  0  0  0  0  0  0  0  0  0  0
   36.3050   28.1140   31.5710 C   0  0  0  0  0  0  0  0  0  0  0  0
   37.0880   28.9060   30.7560 C   0  0  0  0  0  0  0  0  0  0  0  0
   38.1850   28.3450   30.1420 C   0  0  0  0  0  3  0  0  0  0  0  0
   36.5400   30.1990   30.7400 O   0  0  0  0  0  0  0  0  0  0  0  0
   35.2370   30.1460   31.3110 C   0  0  0  0  0  3  0  0  0  0  0  0
   35.0790   30.9590   32.0470 H   0  0  0  0  0  0  0  0  0  0  0  0
   35.2800   28.9530   32.0450 O   0  0  0  0  0  0  0  0  0  0  0  0
  1  2  1  0  0  0  0
  1 13  1  0  0  0  0
  2 14  1  0  0  0  0
  3 15  1  0  0  0  0
  3  2  2  0  0  0  0
  4  3  1  0  0  0  0
  5  4  2  0  0  0  0
  5  6  1  0  0  0  0
  6  1  2  0  0  0  0
  7  5  1  0  0  0  0
  8  7  1  0  0  0  0
  8 16  1  0  0  0  0
  9 18  1  0  0  0  0
  9  8  1  0  0  0  0
 10 20  1  0  0  0  0
 10  9  1  0  0  0  0
 11 21  1  0  0  0  0
 11 10  1  0  0  0  0
 11 12  1  0  0  0  0
 12 23  1  1  0  0  0
 12  7  1  0  0  0  0
 17  8  1  0  0  0  0
 19  9  1  0  0  0  0
 22 11  1  0  0  0  0
 24 25  1  6  0  0  0
 24 12  1  0  0  0  0
 25 29  1  0  0  0  0
 25 30  1  0  0  0  0
 26 31  1  0  0  0  0
 26 25  1  0  0  0  0
 27 34  1  0  0  0  0
 27 28  1  0  0  0  0
 27 26  1  0  0  0  0
 28 35  1  6  0  0  0
 28 24  1  0  0  0  0
 32 26  1  0  0  0  0
 33 27  1  0  0  0  0
 36 37  1  0  0  0  0
 37 28  1  0  0  0  0
 37 38  2  0  0  0  0
 38 39  1  0  0  0  0
 40 38  1  0  0  0  0
 40 46  1  0  0  0  0
 41 40  2  0  0  0  0
 42 36  2  0  0  0  0
 42 41  1  0  0  0  0
 43 41  1  0  0  0  0
 43 44  1  0  0  0  0
 44 46  1  0  0  0  0
 44 45  1  0  0  0  0
M  END
>  <minimizedAffinity>
-5.88398314

$$$$

 OpenBabel03272505533D

 46 50  0  0  1  0  0  0  0  0999 V2000
   42.3990   25.1970   31.8370 C   0  0  0  0  0  0  0  0  0  0  0  0
   42.4930   23.7910   31.7320 C   0  0  0  0  0  0  0  0  0  0  0  0
   41.3020   23.0730   31.7840 C   0  0  0  0  0  0  0  0  0  0  0  0
   40.1380   23.7610   31.9300 N   0  0  0  0  0  0  0  0  0  0  0  0
   40.1000   25.0860   32.0250 C   0  0  0  0  0  0  0  0  0  0  0  0
   41.2250   25.8090   31.9790 N   0  0  0  0  0  0  0  0  0  0  0  0
   38.8540   25.7450   32.1780 N   0  0  0  0  0  0  0  0  0  0  0  0
   38.6380   27.0980   31.6990 C   0  0  0  0  0  0  0  0  0  0  0  0
   37.4340   27.1440   30.8110 C   0  0  0  0  0  0  0  0  0  0  0  0
   36.5960   26.0470   30.8500 N   0  0  0  0  0  0  0  0  0  0  0  0
   36.5340   25.1890   32.0040 C   0  0  0  0  0  0  0  0  0  0  0  0
   37.7240   25.0950   32.8270 C   0  0  2  0  0  0  0  0  0  0  0  0
   43.3570   25.7030   31.7910 H   0  0  0  0  0  0  0  0  0  0  0  0
   43.4100   23.2460   31.6170 H   0  0  0  0  0  0  0  0  0  0  0  0
   41.2350   21.9940   31.7140 H   0  0  0  0  0  0  0  0  0  0  0  0
   39.5180   27.3130   31.0150 H   0  0  0  0  0  0  0  0  0  0  0  0
   38.7100   27.8710   32.4610 H   0  0  0  0  0  0  0  0  0  0  0  0
   37.6690   27.3970   29.7570 H   0  0  0  0  0  0  0  0  0  0  0  0
   36.8540   28.0480   31.1660 H   0  0  0  0  0  0  0  0  0  0  0  0
   36.3910   25.6230   29.9460 H   0  0  0  0  0  0  0  0  0  0  0  0
   36.4120   24.1580   31.5170 H   0  0  0  0  0  0  0  0  0  0  0  0
   35.5460   25.3430   32.4110 H   0  0  0  0  0  0  0  0  0  0  0  0
   38.0470   24.0250   33.0170 H   0  0  0  0  0  0  0  0  0  0  0  0
   37.5950   25.6900   34.1460 N   0  0  2  0  0  0  0  0  0  0  0  0
   36.9500   27.0000   34.0740 C   0  0  0  0  0  0  0  0  0  0  0  0
   37.5990   27.8710   35.1310 C   0  0  0  0  0  0  0  0  0  0  0  0
   38.4490   26.9080   35.8820 C   0  0  0  0  0  0  0  0  0  0  0  0
   38.8340   25.8690   34.8110 C   0  0  1  0  0  0  0  0  0  0  0  0
   37.0150   27.4400   33.0670 H   0  0  0  0  0  0  0  0  0  0  0  0
   35.8870   26.8460   34.3480 H   0  0  0  0  0  0  0  0  0  0  0  0
   36.8500   28.3080   35.8170 H   0  0  0  0  0  0  0  0  0  0  0  0
   38.2240   28.6360   34.6330 H   0  0  0  0  0  0  0  0  0  0  0  0
   39.3670   27.3670   36.3190 H   0  0  0  0  0  0  0  0  0  0  0  0
   37.9170   26.3960   36.7070 H   0  0  0  0  0  0  0  0  0  0  0  0
   39.6260   26.4200   34.3070 H   0  0  0  0  0  0  0  0  0  0  0  0
   38.6010   24.1320   36.6970 C   0  0  0  0  0  3  0  0  0  0  0  0
   39.2880   24.7430   35.6670 C   0  0  0  0  0  0  0  0  0  0  0  0
   40.5420   24.2160   35.4220 C   0  0  0  0  0  0  0  0  0  0  0  0
   41.2290   24.5810   34.6410 H   0  0  0  0  0  0  0  0  0  0  0  0
   41.0800   23.1650   36.1360 C   0  0  0  0  0  0  0  0  0  0  0  0
   40.3520   22.5900   37.1570 C   0  0  0  0  0  0  0  0  0  0  0  0
   39.0970   23.0830   37.4370 C   0  0  0  0  0  3  0  0  0  0  0  0
   41.1190   21.5540   37.7150 O   0  0  0  0  0  0  0  0  0  0  0  0
   42.2130   21.2830   36.8470 C   0  0  0  0  0  3  0  0  0  0  0  0
   43.1680   21.2020   37.4040 H   0  0  0  0  0  0  0  0  0  0  0  0
   42.2960   22.4600   36.0920 O   0  0  0  0  0  0  0  0  0  0  0  0
  1  6  1  0  0  0  0
  2  3  1  0  0  0  0
  2  1  2  0  0  0  0
  3  4  2  0  0  0  0
  4  5  1  0  0  0  0
  5  7  1  0  0  0  0
  6  5  2  0  0  0  0
  7 12  1  0  0  0  0
  8  7  1  0  0  0  0
  8 17  1  0  0  0  0
  9 10  1  0  0  0  0
  9 19  1  0  0  0  0
  9  8  1  0  0  0  0
 10 11  1  0  0  0  0
 11 22  1  0  0  0  0
 11 12  1  0  0  0  0
 12 23  1  1  0  0  0
 12 24  1  0  0  0  0
 13  1  1  0  0  0  0
 14  2  1  0  0  0  0
 15  3  1  0  0  0  0
 16  8  1  0  0  0  0
 18  9  1  0  0  0  0
 20 10  1  0  0  0  0
 21 11  1  0  0  0  0
 24 25  1  6  0  0  0
 24 28  1  0  0  0  0
 25 30  1  0  0  0  0
 25 26  1  0  0  0  0
 26 31  1  0  0  0  0
 26 27  1  0  0  0  0
 27 33  1  0  0  0  0
 27 34  1  0  0  0  0
 28 35  1  6  0  0  0
 28 37  1  0  0  0  0
 28 27  1  0  0  0  0
 29 25  1  0  0  0  0
 32 26  1  0  0  0  0
 36 42  1  0  0  0  0
 37 36  2  0  0  0  0
 38 37  1  0  0  0  0
 38 40  2  0  0  0  0
 39 38  1  0  0  0  0
 40 41  1  0  0  0  0
 41 42  2  0  0  0  0
 41 43  1  0  0  0  0
 44 45  1  0  0  0  0
 44 43  1  0  0  0  0
 46 40  1  0  0  0  0
 46 44  1  0  0  0  0
M  END
>  <minimizedAffinity>
-5.85450935

$$$$

 OpenBabel03272505533D

 46 50  0  0  1  0  0  0  0  0999 V2000
   38.0820   24.1980   38.3010 C   0  0  0  0  0  0  0  0  0  0  0  0
   38.9960   23.1500   38.5530 C   0  0  0  0  0  0  0  0  0  0  0  0
   39.8320   22.7770   37.5050 C   0  0  0  0  0  0  0  0  0  0  0  0
   39.7180   23.4350   36.3200 N   0  0  0  0  0  0  0  0  0  0  0  0
   38.8420   24.4160   36.1300 C   0  0  0  0  0  0  0  0  0  0  0  0
   38.0210   24.8020   37.1150 N   0  0  0  0  0  0  0  0  0  0  0  0
   38.7700   25.0620   34.8700 N   0  0  0  0  0  0  0  0  0  0  0  0
   38.3400   26.4420   34.7400 C   0  0  0  0  0  0  0  0  0  0  0  0
   39.3590   27.2300   33.9800 C   0  0  0  0  0  0  0  0  0  0  0  0
   40.3140   26.5040   33.2940 N   0  0  0  0  0  0  0  0  0  0  0  0
   40.0660   25.1540   32.8620 C   0  0  0  0  0  0  0  0  0  0  0  0
   39.1250   24.3710   33.6400 C   0  0  2  0  0  0  0  0  0  0  0  0
   37.4580   24.4460   39.1520 H   0  0  0  0  0  0  0  0  0  0  0  0
   39.0880   22.6300   39.4860 H   0  0  0  0  0  0  0  0  0  0  0  0
   40.5760   21.9910   37.5660 H   0  0  0  0  0  0  0  0  0  0  0  0
   38.3690   26.8610   35.7950 H   0  0  0  0  0  0  0  0  0  0  0  0
   37.3020   26.5720   34.4400 H   0  0  0  0  0  0  0  0  0  0  0  0
   39.8530   28.0190   34.5840 H   0  0  0  0  0  0  0  0  0  0  0  0
   38.7580   27.8240   33.2290 H   0  0  0  0  0  0  0  0  0  0  0  0
   41.2820   26.7560   33.4960 H   0  0  0  0  0  0  0  0  0  0  0  0
   41.0890   24.6670   33.0320 H   0  0  0  0  0  0  0  0  0  0  0  0
   40.0390   25.2080   31.7850 H   0  0  0  0  0  0  0  0  0  0  0  0
   39.5430   23.3660   33.9560 H   0  0  0  0  0  0  0  0  0  0  0  0
   37.8830   24.0640   32.9530 N   0  0  2  0  0  0  0  0  0  0  0  0
   37.6130   22.6270   32.9650 C   0  0  0  0  0  0  0  0  0  0  0  0
   36.9570   22.2890   31.6400 C   0  0  0  0  0  0  0  0  0  0  0  0
   36.7130   23.6270   31.0370 C   0  0  0  0  0  0  0  0  0  0  0  0
   37.8660   24.4820   31.5990 C   0  0  1  0  0  0  0  0  0  0  0  0
   38.5230   22.0350   33.1470 H   0  0  0  0  0  0  0  0  0  0  0  0
   36.8800   22.4470   33.7770 H   0  0  0  0  0  0  0  0  0  0  0  0
   35.9920   21.7720   31.7830 H   0  0  0  0  0  0  0  0  0  0  0  0
   37.6700   21.7090   31.0240 H   0  0  0  0  0  0  0  0  0  0  0  0
   36.7410   23.6280   29.9220 H   0  0  0  0  0  0  0  0  0  0  0  0
   35.7480   24.0800   31.3390 H   0  0  0  0  0  0  0  0  0  0  0  0
   38.6660   24.1540   30.9380 H   0  0  0  0  0  0  0  0  0  0  0  0
   36.2290   26.4490   31.8860 C   0  0  0  0  0  3  0  0  0  0  0  0
   37.3470   25.8510   31.3410 C   0  0  0  0  0  0  0  0  0  0  0  0
   38.0530   26.6480   30.4600 C   0  0  0  0  0  0  0  0  0  0  0  0
   38.9670   26.3330   29.9310 H   0  0  0  0  0  0  0  0  0  0  0  0
   37.6860   27.9390   30.1400 C   0  0  0  0  0  0  0  0  0  0  0  0
   36.5590   28.4910   30.7120 C   0  0  0  0  0  0  0  0  0  0  0  0
   35.8250   27.7320   31.5970 C   0  0  0  0  0  3  0  0  0  0  0  0
   36.4120   29.7990   30.2240 O   0  0  0  0  0  0  0  0  0  0  0  0
   37.6180   30.1760   29.5690 C   0  0  0  0  0  3  0  0  0  0  0  0
   37.4200   30.6470   28.5860 H   0  0  0  0  0  0  0  0  0  0  0  0
   38.2120   28.9360   29.2990 O   0  0  0  0  0  0  0  0  0  0  0  0
  1  2  1  0  0  0  0
  1 13  1  0  0  0  0
  2 14  1  0  0  0  0
  3 15  1  0  0  0  0
  3  2  2  0  0  0  0
  4  3  1  0  0  0  0
  5  4  2  0  0  0  0
  5  6  1  0  0  0  0
  6  1  2  0  0  0  0
  7  5  1  0  0  0  0
  8  7  1  0  0  0  0
  8 16  1  0  0  0  0
  9 18  1  0  0  0  0
  9  8  1  0  0  0  0
 10 20  1  0  0  0  0
 10  9  1  0  0  0  0
 11 21  1  0  0  0  0
 11 10  1  0  0  0  0
 11 12  1  0  0  0  0
 12 23  1  1  0  0  0
 12  7  1  0  0  0  0
 17  8  1  0  0  0  0
 19  9  1  0  0  0  0
 22 11  1  0  0  0  0
 24 25  1  6  0  0  0
 24 12  1  0  0  0  0
 25 29  1  0  0  0  0
 25 30  1  0  0  0  0
 26 31  1  0  0  0  0
 26 25  1  0  0  0  0
 27 34  1  0  0  0  0
 27 28  1  0  0  0  0
 27 26  1  0  0  0  0
 28 35  1  6  0  0  0
 28 24  1  0  0  0  0
 32 26  1  0  0  0  0
 33 27  1  0  0  0  0
 37 28  1  0  0  0  0
 37 36  2  0  0  0  0
 38 37  1  0  0  0  0
 39 38  1  0  0  0  0
 40 38  2  0  0  0  0
 40 41  1  0  0  0  0
 41 42  2  0  0  0  0
 42 36  1  0  0  0  0
 43 41  1  0  0  0  0
 44 43  1  0  0  0  0
 45 44  1  0  0  0  0
 46 44  1  0  0  0  0
 46 40  1  0  0  0  0
M  END
>  <minimizedAffinity>
-5.79462624

$$$$
