
 OpenBabel03272507123D

 42 47  0  0  0  0  0  0  0  0999 V2000
   35.6760   29.1340   49.8740 C   0  0  0  0  0  0  0  0  0  0  0  0
   34.5370   29.6160   50.4560 C   0  0  0  0  0  0  0  0  0  0  0  0
   33.4680   28.9370   49.8620 C   0  0  0  0  0  0  0  0  0  0  0  0
   34.0430   28.0590   48.9290 C   0  0  0  0  0  0  0  0  0  0  0  0
   35.3270   28.2320   48.9960 O   0  0  0  0  0  0  0  0  0  0  0  0
   34.4490   30.3810   51.2350 H   0  0  0  0  0  0  0  0  0  0  0  0
   32.4480   29.1250   50.1370 H   0  0  0  0  0  0  0  0  0  0  0  0
   33.7830   26.1760   47.3320 C   0  0  0  0  0  0  0  0  0  0  0  0
   33.2320   27.1790   48.1110 C   0  0  0  0  0  0  0  0  0  0  0  0
   31.8750   27.3800   48.1380 C   0  0  0  0  0  0  0  0  0  0  0  0
   31.0590   26.5590   47.3710 C   0  0  0  0  0  0  0  0  0  0  0  0
   29.7290   26.5280   47.2100 N   0  0  0  0  0  0  0  0  0  0  0  0
   29.4540   25.5380   46.3580 N   0  0  0  0  0  0  0  0  0  0  0  0
   30.6010   24.9450   45.9820 C   0  0  0  0  0  0  0  0  0  0  0  0
   31.6620   25.5730   46.6130 C   0  0  0  0  0  0  0  0  0  0  0  0
   33.0180   25.3510   46.5670 C   0  0  0  0  0  0  0  0  0  0  0  0
   34.8700   26.0300   47.3220 H   0  0  0  0  0  0  0  0  0  0  0  0
   31.3510   28.1510   48.7250 H   0  0  0  0  0  0  0  0  0  0  0  0
   29.0030   27.1580   47.6590 H   0  0  0  0  0  0  0  0  0  0  0  0
   30.7410   24.1000   45.2940 H   0  0  0  0  0  0  0  0  0  0  0  0
   33.4780   24.5800   45.9720 H   0  0  0  0  0  0  0  0  0  0  0  0
   36.9900   29.6170   50.2520 C   0  0  0  0  0  0  0  0  0  0  0  0
   37.5880   29.0630   51.2140 O   0  0  0  0  0  0  0  0  0  0  0  0
   37.5400   30.7180   49.4950 C   0  0  0  0  0  0  0  0  0  0  0  0
   37.4680   31.9840   50.0670 C   0  0  0  0  0  0  0  0  0  0  0  0
   37.9920   33.0660   49.3580 C   0  0  0  0  0  0  0  0  0  0  0  0
   38.5440   32.8030   48.1420 N   0  0  0  0  0  0  0  0  0  0  0  0
   38.6010   31.5850   47.6170 C   0  0  0  0  0  0  0  0  0  0  0  0
   38.0960   30.5460   48.2990 N   0  0  0  0  0  0  0  0  0  0  0  0
   37.0140   32.1070   51.0380 H   0  0  0  0  0  0  0  0  0  0  0  0
   37.9220   34.0370   49.8280 H   0  0  0  0  0  0  0  0  0  0  0  0
   40.1580   32.2200   45.8110 C   0  0  0  0  0  3  0  0  0  0  0  0
   39.2030   31.3560   46.3090 C   0  0  0  0  0  0  0  0  0  0  0  0
   38.8510   30.2850   45.5250 C   0  0  0  0  0  0  0  0  0  0  0  0
   38.1120   29.5820   45.8690 H   0  0  0  0  0  0  0  0  0  0  0  0
   39.4370   30.0830   44.2790 C   0  0  0  0  0  0  0  0  0  0  0  0
   40.3910   30.9470   43.7820 C   0  0  0  0  0  0  0  0  0  0  0  0
   40.7380   32.0200   44.5760 C   0  0  0  0  0  3  0  0  0  0  0  0
   40.7840   30.4830   42.5210 O   0  0  0  0  0  0  0  0  0  0  0  0
   40.2750   29.1670   42.3960 C   0  0  0  0  0  3  0  0  0  0  0  0
   41.0460   28.4210   42.6970 H   0  0  0  0  0  0  0  0  0  0  0  0
   39.2180   29.0750   43.3530 O   0  0  0  0  0  0  0  0  0  0  0  0
  1 22  1  0  0  0  0
  1  2  2  0  0  0  0
  2  6  1  0  0  0  0
  3  7  1  0  0  0  0
  3  2  1  0  0  0  0
  4  5  1  0  0  0  0
  4  3  2  0  0  0  0
  5  1  1  0  0  0  0
  8  9  1  0  0  0  0
  9 10  2  0  0  0  0
  9  4  1  0  0  0  0
 10 18  1  0  0  0  0
 11 10  1  0  0  0  0
 12 11  1  0  0  0  0
 12 19  1  0  0  0  0
 13 12  1  0  0  0  0
 14 13  2  0  0  0  0
 14 15  1  0  0  0  0
 15 11  2  0  0  0  0
 16 15  1  0  0  0  0
 16  8  2  0  0  0  0
 17  8  1  0  0  0  0
 20 14  1  0  0  0  0
 21 16  1  0  0  0  0
 22 23  2  0  0  0  0
 24 25  1  0  0  0  0
 24 22  1  0  0  0  0
 25 30  1  0  0  0  0
 26 31  1  0  0  0  0
 26 25  2  0  0  0  0
 27 26  1  0  0  0  0
 28 27  2  0  0  0  0
 28 29  1  0  0  0  0
 29 24  2  0  0  0  0
 32 33  1  0  0  0  0
 33 28  1  0  0  0  0
 34 35  1  0  0  0  0
 34 33  2  0  0  0  0
 36 34  1  0  0  0  0
 37 36  2  0  0  0  0
 37 38  1  0  0  0  0
 38 32  2  0  0  0  0
 39 37  1  0  0  0  0
 40 39  1  0  0  0  0
 40 41  1  0  0  0  0
 40 42  1  0  0  0  0
 42 36  1  0  0  0  0
M  END
>  <minimizedAffinity>
-7.87152624

>  <minimizedRMSD>
0.958410084

$$$$
