
 OpenBabel03272510263D

 47 52  0  0  1  0  0  0  0  0999 V2000
   39.5130   30.5930   41.6160 N   0  0  0  0  0  0  0  0  0  0  0  0
   39.7720   31.9860   41.8360 C   0  0  1  0  0  0  0  0  0  0  0  0
   38.5800   32.7870   41.5930 C   0  0  0  0  0  0  0  0  0  0  0  0
   38.2110   32.6560   40.2470 O   0  0  0  0  0  0  0  0  0  0  0  0
   38.0390   31.3610   39.8170 C   0  0  0  0  0  0  0  0  0  0  0  0
   39.1630   30.4560   40.2170 C   0  0  1  0  0  0  0  0  0  0  0  0
   39.0210   30.0460   42.2780 H   0  0  0  0  0  0  0  0  0  0  0  0
   40.5930   32.2920   41.1730 H   0  0  0  0  0  0  0  0  0  0  0  0
   38.8910   33.8740   41.6720 H   0  0  0  0  0  0  0  0  0  0  0  0
   37.6670   32.6980   42.1170 H   0  0  0  0  0  0  0  0  0  0  0  0
   37.0420   30.9620   40.1640 H   0  0  0  0  0  0  0  0  0  0  0  0
   37.9580   31.3690   38.7150 H   0  0  0  0  0  0  0  0  0  0  0  0
   38.7490   29.4070   40.1330 H   0  0  0  0  0  0  0  0  0  0  0  0
   40.7140   31.3890   38.3600 C   0  0  0  0  0  3  0  0  0  0  0  0
   40.3380   30.4980   39.3430 C   0  0  0  0  0  0  0  0  0  0  0  0
   41.1890   29.4150   39.6030 C   0  0  0  0  0  0  0  0  0  0  0  0
   41.0310   28.6270   40.3490 H   0  0  0  0  0  0  0  0  0  0  0  0
   42.3760   29.2470   38.8870 C   0  0  0  0  0  0  0  0  0  0  0  0
   42.6710   30.1840   37.9250 C   0  0  0  0  0  0  0  0  0  0  0  0
   41.8730   31.2540   37.6380 C   0  0  0  0  0  3  0  0  0  0  0  0
   43.8890   29.8210   37.3420 O   0  0  0  0  0  0  0  0  0  0  0  0
   44.2340   28.5440   37.8190 C   0  0  0  0  0  3  0  0  0  0  0  0
   45.3050   28.4720   38.1070 H   0  0  0  0  0  0  0  0  0  0  0  0
   43.3990   28.2960   38.9160 O   0  0  0  0  0  0  0  0  0  0  0  0
   40.2030   32.1200   43.1850 O   0  0  0  0  0  0  0  0  0  0  0  0
   36.0670   30.2430   46.9510 C   0  0  0  0  0  0  0  0  0  0  0  0
   37.1010   30.4090   47.8630 C   0  0  0  0  0  0  0  0  0  0  0  0
   38.3550   30.8590   47.4480 C   0  0  0  0  0  0  0  0  0  0  0  0
   38.4980   31.1220   46.0910 C   0  0  0  0  0  0  0  0  0  0  0  0
   39.6310   31.5730   45.4510 N   0  0  0  0  0  0  0  0  0  0  0  0
   39.2940   31.6830   44.1510 C   0  0  0  0  0  0  0  0  0  0  0  0
   38.0340   31.3270   43.9750 N   0  0  0  0  0  0  0  0  0  0  0  0
   37.5030   30.9710   45.1590 C   0  0  0  0  0  0  0  0  0  0  0  0
   36.2540   30.5190   45.6060 C   0  0  0  0  0  0  0  0  0  0  0  0
   35.0860   29.8950   47.2550 H   0  0  0  0  0  0  0  0  0  0  0  0
   39.1750   30.9950   48.1400 H   0  0  0  0  0  0  0  0  0  0  0  0
   40.5580   31.7820   45.9020 H   0  0  0  0  0  0  0  0  0  0  0  0
   35.4640   30.3970   44.8770 H   0  0  0  0  0  0  0  0  0  0  0  0
   37.2980   30.0080   51.5970 C   0  0  0  0  0  0  0  0  0  0  0  0
   37.6990   30.3640   50.3080 C   0  0  0  0  0  0  0  0  0  0  0  0
   36.8510   30.1090   49.2570 C   0  0  0  0  0  0  0  0  0  0  0  0
   35.6410   29.5100   49.5490 N   0  0  0  0  0  0  0  0  0  0  0  0
   35.2760   29.1760   50.8040 C   0  0  0  0  0  0  0  0  0  0  0  0
   36.0930   29.4220   51.8080 N   0  0  0  0  0  0  0  0  0  0  0  0
   37.9930   30.2250   52.3920 H   0  0  0  0  0  0  0  0  0  0  0  0
   38.6410   30.8310   50.0750 H   0  0  0  0  0  0  0  0  0  0  0  0
   34.3100   28.7150   50.8950 H   0  0  0  0  0  0  0  0  0  0  0  0
  1  2  1  0  0  0  0
  1  7  1  0  0  0  0
  2  8  1  6  0  0  0
  2 25  1  0  0  0  0
  3  9  1  0  0  0  0
  3  2  1  0  0  0  0
  3 10  1  0  0  0  0
  4  3  1  0  0  0  0
  5 11  1  0  0  0  0
  5  6  1  0  0  0  0
  5  4  1  0  0  0  0
  6 13  1  6  0  0  0
  6  1  1  0  0  0  0
 12  5  1  0  0  0  0
 14 15  1  0  0  0  0
 15 16  2  0  0  0  0
 15  6  1  0  0  0  0
 16 17  1  0  0  0  0
 18 24  1  0  0  0  0
 18 16  1  0  0  0  0
 19 18  2  0  0  0  0
 20 19  1  0  0  0  0
 20 14  2  0  0  0  0
 21 22  1  0  0  0  0
 21 19  1  0  0  0  0
 22 23  1  0  0  0  0
 22 24  1  0  0  0  0
 25 31  1  0  0  0  0
 26 35  1  0  0  0  0
 26 27  1  0  0  0  0
 27 41  1  0  0  0  0
 28 27  2  0  0  0  0
 28 36  1  0  0  0  0
 29 28  1  0  0  0  0
 30 37  1  0  0  0  0
 30 29  1  0  0  0  0
 31 30  1  0  0  0  0
 32 31  2  0  0  0  0
 32 33  1  0  0  0  0
 33 34  1  0  0  0  0
 33 29  2  0  0  0  0
 34 26  2  0  0  0  0
 38 34  1  0  0  0  0
 39 44  1  0  0  0  0
 39 45  1  0  0  0  0
 40 39  2  0  0  0  0
 41 42  2  0  0  0  0
 41 40  1  0  0  0  0
 42 43  1  0  0  0  0
 43 47  1  0  0  0  0
 43 44  2  0  0  0  0
 46 40  1  0  0  0  0
M  END
>  <minimizedAffinity>
-5.89257574

>  <minimizedRMSD>
1.71300113

$$$$
