
 OpenBabel03272509083D

 42 46  0  0  0  0  0  0  0  0999 V2000
   33.0610   28.1550   47.8770 C   0  0  0  0  0  0  0  0  0  0  0  0
   32.3870   28.8360   47.3640 H   0  0  0  0  0  0  0  0  0  0  0  0
   32.4820   27.7090   48.7140 H   0  0  0  0  0  0  0  0  0  0  0  0
   33.4550   27.0060   47.0150 C   0  0  0  0  0  0  0  0  0  0  0  0
   33.4430   25.6710   47.4110 C   0  0  0  0  0  0  0  0  0  0  0  0
   33.8150   24.6730   46.5500 C   0  0  0  0  0  0  0  0  0  0  0  0
   34.2120   24.9590   45.2620 C   0  0  0  0  0  0  0  0  0  0  0  0
   34.2240   26.2740   44.8660 C   0  0  0  0  0  0  0  0  0  0  0  0
   33.8510   27.2990   45.7260 C   0  0  0  0  0  0  0  0  0  0  0  0
   33.1160   25.5330   48.4500 H   0  0  0  0  0  0  0  0  0  0  0  0
   33.7460   23.7100   47.0210 H   0  0  0  0  0  0  0  0  0  0  0  0
   34.4820   24.0980   44.6700 H   0  0  0  0  0  0  0  0  0  0  0  0
   34.5550   26.3630   43.8300 H   0  0  0  0  0  0  0  0  0  0  0  0
   35.0640   29.4150   44.8700 C   0  0  0  0  0  3  0  0  0  0  0  0
   33.9880   28.5770   45.0380 C   0  0  0  0  0  0  0  0  0  0  0  0
   32.7990   29.0570   44.4680 C   0  0  0  0  0  0  0  0  0  0  0  0
   31.8650   28.4870   44.5300 H   0  0  0  0  0  0  0  0  0  0  0  0
   32.6730   30.2530   43.7940 C   0  0  0  0  0  0  0  0  0  0  0  0
   33.7860   31.0530   43.6560 C   0  0  0  0  0  0  0  0  0  0  0  0
   34.9560   30.6080   44.2010 C   0  0  0  0  0  3  0  0  0  0  0  0
   33.4110   32.1870   42.9500 O   0  0  0  0  0  0  0  0  0  0  0  0
   32.2150   31.8680   42.2610 C   0  0  0  0  0  3  0  0  0  0  0  0
   32.5170   31.3940   41.3060 H   0  0  0  0  0  0  0  0  0  0  0  0
   31.6320   30.9170   43.1640 O   0  0  0  0  0  0  0  0  0  0  0  0
   35.0010   28.3880   49.4590 C   0  0  0  0  0  3  0  0  0  0  0  0
   34.2050   28.8410   48.5200 C   0  0  0  0  0  3  0  0  0  0  0  0
   37.3930   30.1580   51.5660 C   0  0  0  0  0  0  0  0  0  0  0  0
   38.1000   30.9260   50.6210 C   0  0  0  0  0  0  0  0  0  0  0  0
   37.7230   30.8100   49.2610 C   0  0  0  0  0  0  0  0  0  0  0  0
   36.6980   29.9620   48.9470 N   0  0  0  0  0  0  0  0  0  0  0  0
   36.0640   29.2540   49.9200 C   0  0  0  0  0  0  0  0  0  0  0  0
   36.4030   29.3500   51.2020 N   0  0  0  0  0  0  0  0  0  0  0  0
   37.7180   30.2800   52.6060 H   0  0  0  0  0  0  0  0  0  0  0  0
   38.9170   31.6020   50.8660 H   0  0  0  0  0  0  0  0  0  0  0  0
   38.3750   31.5660   48.1930 C   0  0  0  0  0  0  0  0  0  0  0  0
   38.5600   31.0520   46.9280 C   0  0  0  0  0  0  0  0  0  0  0  0
   39.2000   32.0360   46.1690 C   0  0  0  0  0  0  0  0  0  0  0  0
   39.3720   33.0920   46.9990 N   0  0  0  0  0  0  0  0  0  0  0  0
   38.8850   32.8210   48.2090 N   0  0  0  0  0  0  0  0  0  0  0  0
   38.2740   30.0620   46.5470 H   0  0  0  0  0  0  0  0  0  0  0  0
   39.4740   31.9160   45.1310 H   0  0  0  0  0  0  0  0  0  0  0  0
   39.8410   33.9570   46.6290 H   0  0  0  0  0  0  0  0  0  0  0  0
  1 26  1  0  0  0  0
  1  3  1  0  0  0  0
  2  1  1  0  0  0  0
  4  5  1  0  0  0  0
  4  1  1  0  0  0  0
  5 10  1  0  0  0  0
  6 11  1  0  0  0  0
  6  5  2  0  0  0  0
  7  6  1  0  0  0  0
  8  7  2  0  0  0  0
  8  9  1  0  0  0  0
  9  4  2  0  0  0  0
 12  7  1  0  0  0  0
 13  8  1  0  0  0  0
 14 15  1  0  0  0  0
 15  9  1  0  0  0  0
 16 17  1  0  0  0  0
 16 15  2  0  0  0  0
 18 16  1  0  0  0  0
 19 18  2  0  0  0  0
 19 20  1  0  0  0  0
 20 14  2  0  0  0  0
 21 19  1  0  0  0  0
 22 21  1  0  0  0  0
 22 24  1  0  0  0  0
 23 22  1  0  0  0  0
 24 18  1  0  0  0  0
 25 31  1  0  0  0  0
 26 25  2  0  0  0  0
 27 33  1  0  0  0  0
 28 34  1  0  0  0  0
 28 27  2  0  0  0  0
 29 28  1  0  0  0  0
 30 29  2  0  0  0  0
 30 31  1  0  0  0  0
 31 32  2  0  0  0  0
 32 27  1  0  0  0  0
 35 39  2  0  0  0  0
 35 29  1  0  0  0  0
 36 35  1  0  0  0  0
 37 36  2  0  0  0  0
 37 38  1  0  0  0  0
 38 39  1  0  0  0  0
 40 36  1  0  0  0  0
 41 37  1  0  0  0  0
 42 38  1  0  0  0  0
M  END
>  <minimizedAffinity>
-6.59840584

>  <minimizedRMSD>
0.880387962

$$$$
