
 OpenBabel03272510183D

 30 33  0  0  0  0  0  0  0  0999 V2000
   35.3530   31.3040   31.9860 Br  0  0  0  0  0  0  0  0  0  0  0  0
   36.0130   29.6630   32.7170 C   0  0  0  0  0  0  0  0  0  0  0  0
   35.8510   29.3730   34.0640 C   0  0  0  0  0  0  0  0  0  0  0  0
   36.3530   28.1740   34.5120 C   0  0  0  0  0  0  0  0  0  0  0  0
   37.0030   27.2530   33.7050 C   0  0  0  0  0  0  0  0  0  0  0  0
   37.1420   27.5820   32.3800 C   0  0  0  0  0  0  0  0  0  0  0  0
   36.6500   28.7780   31.8950 C   0  0  0  0  0  0  0  0  0  0  0  0
   36.2290   27.9380   35.5660 H   0  0  0  0  0  0  0  0  0  0  0  0
   37.6470   26.8810   31.7190 H   0  0  0  0  0  0  0  0  0  0  0  0
   36.7810   29.0020   30.8290 H   0  0  0  0  0  0  0  0  0  0  0  0
   37.7520   24.9860   33.3440 C   0  0  0  0  0  3  0  0  0  0  0  0
   37.5110   26.0040   34.2430 C   0  0  0  0  0  0  0  0  0  0  0  0
   37.7580   25.7940   35.5850 C   0  0  0  0  0  0  0  0  0  0  0  0
   37.5740   26.5770   36.2850 H   0  0  0  0  0  0  0  0  0  0  0  0
   38.2390   24.5740   35.9970 C   0  0  0  0  0  0  0  0  0  0  0  0
   38.4810   23.5480   35.0860 C   0  0  0  0  0  0  0  0  0  0  0  0
   38.2400   23.7320   33.7260 C   0  0  0  0  0  3  0  0  0  0  0  0
   38.9670   22.3980   35.7230 O   0  0  0  0  0  0  0  0  0  0  0  0
   39.4110   22.8990   36.9920 C   0  0  0  0  0  3  0  0  0  0  0  0
   39.3280   22.1370   37.7660 H   0  0  0  0  0  0  0  0  0  0  0  0
   38.5920   24.0260   37.2410 O   0  0  0  0  0  0  0  0  0  0  0  0
   35.3490   32.0660   36.4670 C   0  0  0  0  0  0  0  0  0  0  0  0
   33.9480   32.1070   36.6450 C   0  0  0  0  0  0  0  0  0  0  0  0
   33.1870   31.1930   35.9260 C   0  0  0  0  0  0  0  0  0  0  0  0
   33.8100   30.3020   35.0840 N   0  0  0  0  0  0  0  0  0  0  0  0
   35.1710   30.3110   34.9530 C   0  0  0  0  0  0  0  0  0  0  0  0
   35.9230   31.1880   35.6410 N   0  0  0  0  0  0  0  0  0  0  0  0
   35.9010   32.7950   37.0460 H   0  0  0  0  0  0  0  0  0  0  0  0
   33.4450   32.8020   37.3040 H   0  0  0  0  0  0  0  0  0  0  0  0
   32.1090   31.1260   35.9790 H   0  0  0  0  0  0  0  0  0  0  0  0
  1  2  1  0  0  0  0
  2  3  1  0  0  0  0
  3  4  2  0  0  0  0
  3 26  1  0  0  0  0
  4  8  1  0  0  0  0
  5 12  1  0  0  0  0
  5  4  1  0  0  0  0
  6  5  2  0  0  0  0
  7  6  1  0  0  0  0
  7  2  2  0  0  0  0
  9  6  1  0  0  0  0
 10  7  1  0  0  0  0
 11 17  2  0  0  0  0
 11 12  1  0  0  0  0
 12 13  2  0  0  0  0
 13 15  1  0  0  0  0
 13 14  1  0  0  0  0
 15 21  1  0  0  0  0
 16 18  1  0  0  0  0
 16 15  2  0  0  0  0
 17 16  1  0  0  0  0
 18 19  1  0  0  0  0
 19 21  1  0  0  0  0
 19 20  1  0  0  0  0
 22 23  1  0  0  0  0
 22 28  1  0  0  0  0
 23 29  1  0  0  0  0
 24 30  1  0  0  0  0
 24 23  2  0  0  0  0
 25 24  1  0  0  0  0
 26 25  2  0  0  0  0
 26 27  1  0  0  0  0
 27 22  2  0  0  0  0
M  END
>  <minimizedAffinity>
-5.95899773

$$$$

 OpenBabel03272510183D

 30 33  0  0  0  0  0  0  0  0999 V2000
   35.8330   29.8530   31.5110 Br  0  0  0  0  0  0  0  0  0  0  0  0
   36.5830   28.5130   32.6530 C   0  0  0  0  0  0  0  0  0  0  0  0
   36.3100   28.5090   34.0130 C   0  0  0  0  0  0  0  0  0  0  0  0
   36.8870   27.5120   34.7650 C   0  0  0  0  0  0  0  0  0  0  0  0
   37.7130   26.5260   34.2470 C   0  0  0  0  0  0  0  0  0  0  0  0
   37.9550   26.5700   32.8970 C   0  0  0  0  0  0  0  0  0  0  0  0
   37.3940   27.5560   32.1110 C   0  0  0  0  0  0  0  0  0  0  0  0
   36.6780   27.5000   35.8320 H   0  0  0  0  0  0  0  0  0  0  0  0
   38.6000   25.8100   32.4600 H   0  0  0  0  0  0  0  0  0  0  0  0
   37.6130   27.5540   31.0360 H   0  0  0  0  0  0  0  0  0  0  0  0
   37.6840   25.2860   36.3190 C   0  0  0  0  0  3  0  0  0  0  0  0
   38.2900   25.5020   35.0990 C   0  0  0  0  0  0  0  0  0  0  0  0
   39.3940   24.7490   34.7500 C   0  0  0  0  0  0  0  0  0  0  0  0
   39.8670   24.9100   33.8080 H   0  0  0  0  0  0  0  0  0  0  0  0
   39.8660   23.8010   35.6260 C   0  0  0  0  0  0  0  0  0  0  0  0
   39.2510   23.5870   36.8580 C   0  0  0  0  0  0  0  0  0  0  0  0
   38.1360   24.3320   37.2360 C   0  0  0  0  0  3  0  0  0  0  0  0
   39.8960   22.5780   37.5860 O   0  0  0  0  0  0  0  0  0  0  0  0
   40.6610   21.8980   36.5810 C   0  0  0  0  0  3  0  0  0  0  0  0
   41.5670   21.4640   37.0030 H   0  0  0  0  0  0  0  0  0  0  0  0
   40.9300   22.8850   35.6030 O   0  0  0  0  0  0  0  0  0  0  0  0
   33.2790   30.2570   35.0300 C   0  0  0  0  0  0  0  0  0  0  0  0
   33.7560   31.4050   35.7000 C   0  0  0  0  0  0  0  0  0  0  0  0
   35.1340   31.5620   35.7920 C   0  0  0  0  0  0  0  0  0  0  0  0
   35.9660   30.6160   35.2410 N   0  0  0  0  0  0  0  0  0  0  0  0
   35.4440   29.5250   34.6040 C   0  0  0  0  0  0  0  0  0  0  0  0
   34.1130   29.3560   34.5060 N   0  0  0  0  0  0  0  0  0  0  0  0
   32.2010   30.1750   34.9830 H   0  0  0  0  0  0  0  0  0  0  0  0
   33.1140   32.1570   36.1380 H   0  0  0  0  0  0  0  0  0  0  0  0
   35.6190   32.3990   36.2780 H   0  0  0  0  0  0  0  0  0  0  0  0
  1  2  1  0  0  0  0
  2  3  1  0  0  0  0
  3 26  1  0  0  0  0
  3  4  2  0  0  0  0
  4  8  1  0  0  0  0
  5  4  1  0  0  0  0
  5 12  1  0  0  0  0
  6  5  2  0  0  0  0
  7  2  2  0  0  0  0
  7  6  1  0  0  0  0
  9  6  1  0  0  0  0
 10  7  1  0  0  0  0
 11 17  1  0  0  0  0
 12 11  2  0  0  0  0
 13 12  1  0  0  0  0
 13 15  2  0  0  0  0
 14 13  1  0  0  0  0
 15 16  1  0  0  0  0
 16 17  2  0  0  0  0
 16 18  1  0  0  0  0
 19 20  1  0  0  0  0
 19 18  1  0  0  0  0
 21 15  1  0  0  0  0
 21 19  1  0  0  0  0
 22 23  1  0  0  0  0
 23 24  2  0  0  0  0
 23 29  1  0  0  0  0
 24 30  1  0  0  0  0
 25 24  1  0  0  0  0
 26 25  2  0  0  0  0
 27 26  1  0  0  0  0
 27 22  2  0  0  0  0
 28 22  1  0  0  0  0
M  END
>  <minimizedAffinity>
-5.82562637

$$$$

 OpenBabel03272510183D

 30 33  0  0  0  0  0  0  0  0999 V2000
   38.0930   26.2930   31.0640 Br  0  0  0  0  0  0  0  0  0  0  0  0
   37.1760   27.4730   32.2600 C   0  0  0  0  0  0  0  0  0  0  0  0
   37.3800   27.3910   33.6300 C   0  0  0  0  0  0  0  0  0  0  0  0
   36.6840   28.2740   34.4210 C   0  0  0  0  0  0  0  0  0  0  0  0
   35.8030   29.2280   33.9330 C   0  0  0  0  0  0  0  0  0  0  0  0
   35.6320   29.2720   32.5730 C   0  0  0  0  0  0  0  0  0  0  0  0
   36.3140   28.4000   31.7470 C   0  0  0  0  0  0  0  0  0  0  0  0
   36.8380   28.2180   35.4960 H   0  0  0  0  0  0  0  0  0  0  0  0
   34.9470   30.0090   32.1580 H   0  0  0  0  0  0  0  0  0  0  0  0
   36.1480   28.4700   30.6650 H   0  0  0  0  0  0  0  0  0  0  0  0
   35.8630   31.0390   35.5280 C   0  0  0  0  0  3  0  0  0  0  0  0
   35.0990   30.1310   34.8260 C   0  0  0  0  0  0  0  0  0  0  0  0
   33.7290   30.1220   34.9990 C   0  0  0  0  0  0  0  0  0  0  0  0
   33.1330   29.4220   34.4590 H   0  0  0  0  0  0  0  0  0  0  0  0
   33.1550   31.0180   35.8690 C   0  0  0  0  0  0  0  0  0  0  0  0
   33.9310   31.9350   36.5770 C   0  0  0  0  0  0  0  0  0  0  0  0
   35.3150   31.9660   36.4210 C   0  0  0  0  0  3  0  0  0  0  0  0
   33.1420   32.7480   37.4020 O   0  0  0  0  0  0  0  0  0  0  0  0
   31.8270   32.5790   36.8530 C   0  0  0  0  0  3  0  0  0  0  0  0
   31.0630   32.6930   37.6210 H   0  0  0  0  0  0  0  0  0  0  0  0
   31.8390   31.2850   36.2790 O   0  0  0  0  0  0  0  0  0  0  0  0
   40.4640   25.8980   34.8690 C   0  0  0  0  0  0  0  0  0  0  0  0
   40.0830   24.5910   35.2450 C   0  0  0  0  0  0  0  0  0  0  0  0
   38.7510   24.2380   35.0610 C   0  0  0  0  0  0  0  0  0  0  0  0
   37.8710   25.1530   34.5340 N   0  0  0  0  0  0  0  0  0  0  0  0
   38.2990   26.4050   34.1900 C   0  0  0  0  0  0  0  0  0  0  0  0
   39.5840   26.7640   34.3610 N   0  0  0  0  0  0  0  0  0  0  0  0
   41.5090   26.1290   35.0300 H   0  0  0  0  0  0  0  0  0  0  0  0
   40.7650   23.8600   35.6600 H   0  0  0  0  0  0  0  0  0  0  0  0
   38.3410   23.2680   35.3080 H   0  0  0  0  0  0  0  0  0  0  0  0
  1  2  1  0  0  0  0
  2  3  1  0  0  0  0
  3 26  1  0  0  0  0
  3  4  2  0  0  0  0
  4  8  1  0  0  0  0
  5  4  1  0  0  0  0
  5 12  1  0  0  0  0
  6  5  2  0  0  0  0
  7  2  2  0  0  0  0
  7  6  1  0  0  0  0
  9  6  1  0  0  0  0
 10  7  1  0  0  0  0
 11 17  1  0  0  0  0
 12 13  1  0  0  0  0
 12 11  2  0  0  0  0
 13 15  2  0  0  0  0
 14 13  1  0  0  0  0
 15 21  1  0  0  0  0
 15 16  1  0  0  0  0
 16 18  1  0  0  0  0
 17 16  2  0  0  0  0
 19 18  1  0  0  0  0
 19 20  1  0  0  0  0
 21 19  1  0  0  0  0
 22 28  1  0  0  0  0
 22 23  1  0  0  0  0
 23 29  1  0  0  0  0
 24 23  2  0  0  0  0
 24 30  1  0  0  0  0
 25 24  1  0  0  0  0
 26 27  1  0  0  0  0
 26 25  2  0  0  0  0
 27 22  2  0  0  0  0
M  END
>  <minimizedAffinity>
-5.71287727

$$$$

 OpenBabel03272510183D

 30 33  0  0  0  0  0  0  0  0999 V2000
   37.5720   28.4780   29.4020 Br  0  0  0  0  0  0  0  0  0  0  0  0
   36.7460   29.2760   30.9320 C   0  0  0  0  0  0  0  0  0  0  0  0
   36.2160   28.4860   31.9430 C   0  0  0  0  0  0  0  0  0  0  0  0
   35.6400   29.1360   33.0080 C   0  0  0  0  0  0  0  0  0  0  0  0
   35.5590   30.5150   33.1280 C   0  0  0  0  0  0  0  0  0  0  0  0
   36.0950   31.2560   32.1050 C   0  0  0  0  0  0  0  0  0  0  0  0
   36.6820   30.6380   31.0190 C   0  0  0  0  0  0  0  0  0  0  0  0
   35.2230   28.5250   33.8060 H   0  0  0  0  0  0  0  0  0  0  0  0
   36.0480   32.3410   32.1690 H   0  0  0  0  0  0  0  0  0  0  0  0
   37.0990   31.2680   30.2230 H   0  0  0  0  0  0  0  0  0  0  0  0
   35.7300   31.3370   35.3920 C   0  0  0  0  0  3  0  0  0  0  0  0
   34.9350   31.1370   34.2820 C   0  0  0  0  0  0  0  0  0  0  0  0
   33.6120   31.5300   34.3180 C   0  0  0  0  0  0  0  0  0  0  0  0
   32.9920   31.3780   33.4630 H   0  0  0  0  0  0  0  0  0  0  0  0
   33.1140   32.1110   35.4590 C   0  0  0  0  0  0  0  0  0  0  0  0
   33.9190   32.3110   36.5790 C   0  0  0  0  0  0  0  0  0  0  0  0
   35.2580   31.9250   36.5700 C   0  0  0  0  0  3  0  0  0  0  0  0
   33.2080   32.9160   37.6240 O   0  0  0  0  0  0  0  0  0  0  0  0
   32.0610   33.4600   36.9550 C   0  0  0  0  0  3  0  0  0  0  0  0
   31.1990   33.4950   37.6200 H   0  0  0  0  0  0  0  0  0  0  0  0
   31.8590   32.6150   35.8380 O   0  0  0  0  0  0  0  0  0  0  0  0
   37.3900   25.0750   32.4530 C   0  0  0  0  0  0  0  0  0  0  0  0
   36.4530   24.2840   31.7520 C   0  0  0  0  0  0  0  0  0  0  0  0
   35.4180   24.9470   31.1030 C   0  0  0  0  0  0  0  0  0  0  0  0
   35.3420   26.3180   31.1670 N   0  0  0  0  0  0  0  0  0  0  0  0
   36.2800   27.0300   31.8630 C   0  0  0  0  0  0  0  0  0  0  0  0
   37.2880   26.4050   32.4960 N   0  0  0  0  0  0  0  0  0  0  0  0
   38.1780   24.5170   32.9430 H   0  0  0  0  0  0  0  0  0  0  0  0
   36.5000   23.2040   31.6930 H   0  0  0  0  0  0  0  0  0  0  0  0
   34.6420   24.4520   30.5340 H   0  0  0  0  0  0  0  0  0  0  0  0
  1  2  1  0  0  0  0
  2  7  2  0  0  0  0
  2  3  1  0  0  0  0
  3  4  2  0  0  0  0
  4  5  1  0  0  0  0
  4  8  1  0  0  0  0
  5 12  1  0  0  0  0
  6  9  1  0  0  0  0
  6  5  2  0  0  0  0
  7  6  1  0  0  0  0
 10  7  1  0  0  0  0
 11 17  1  0  0  0  0
 12 13  1  0  0  0  0
 12 11  2  0  0  0  0
 13 15  2  0  0  0  0
 14 13  1  0  0  0  0
 15 21  1  0  0  0  0
 15 16  1  0  0  0  0
 16 18  1  0  0  0  0
 17 16  2  0  0  0  0
 19 20  1  0  0  0  0
 19 18  1  0  0  0  0
 21 19  1  0  0  0  0
 22 27  1  0  0  0  0
 22 28  1  0  0  0  0
 23 22  2  0  0  0  0
 24 25  2  0  0  0  0
 24 23  1  0  0  0  0
 25 26  1  0  0  0  0
 26  3  1  0  0  0  0
 26 27  2  0  0  0  0
 29 23  1  0  0  0  0
 30 24  1  0  0  0  0
M  END
>  <minimizedAffinity>
-5.47813225

$$$$

 OpenBabel03272510183D

 30 33  0  0  0  0  0  0  0  0999 V2000
   35.4950   33.0610   32.5340 Br  0  0  0  0  0  0  0  0  0  0  0  0
   35.8070   31.1730   32.5050 C   0  0  0  0  0  0  0  0  0  0  0  0
   35.4450   30.3800   33.5840 C   0  0  0  0  0  0  0  0  0  0  0  0
   35.7030   29.0330   33.4850 C   0  0  0  0  0  0  0  0  0  0  0  0
   36.2950   28.4330   32.3840 C   0  0  0  0  0  0  0  0  0  0  0  0
   36.6370   29.2560   31.3410 C   0  0  0  0  0  0  0  0  0  0  0  0
   36.3930   30.6140   31.4050 C   0  0  0  0  0  0  0  0  0  0  0  0
   35.4220   28.4030   34.3250 H   0  0  0  0  0  0  0  0  0  0  0  0
   37.1030   28.8160   30.4620 H   0  0  0  0  0  0  0  0  0  0  0  0
   36.6810   31.2360   30.5490 H   0  0  0  0  0  0  0  0  0  0  0  0
   37.5090   26.5090   33.1920 C   0  0  0  0  0  3  0  0  0  0  0  0
   36.5400   27.0020   32.3450 C   0  0  0  0  0  0  0  0  0  0  0  0
   35.8590   26.1320   31.5170 C   0  0  0  0  0  0  0  0  0  0  0  0
   35.1070   26.5070   30.8600 H   0  0  0  0  0  0  0  0  0  0  0  0
   36.1620   24.7920   31.5540 C   0  0  0  0  0  0  0  0  0  0  0  0
   37.1430   24.2970   32.4110 C   0  0  0  0  0  0  0  0  0  0  0  0
   37.8460   25.1530   33.2570 C   0  0  0  0  0  3  0  0  0  0  0  0
   37.2870   22.9090   32.2820 O   0  0  0  0  0  0  0  0  0  0  0  0
   36.0700   22.5220   31.6280 C   0  0  0  0  0  3  0  0  0  0  0  0
   36.2200   21.6370   31.0110 H   0  0  0  0  0  0  0  0  0  0  0  0
   35.6880   23.6580   30.8750 O   0  0  0  0  0  0  0  0  0  0  0  0
   35.0900   32.0160   36.8200 C   0  0  0  0  0  0  0  0  0  0  0  0
   33.6930   32.0870   37.0150 C   0  0  0  0  0  0  0  0  0  0  0  0
   32.8830   31.5610   36.0150 C   0  0  0  0  0  0  0  0  0  0  0  0
   33.4570   31.0040   34.8960 N   0  0  0  0  0  0  0  0  0  0  0  0
   34.8170   30.9660   34.7640 C   0  0  0  0  0  0  0  0  0  0  0  0
   35.6160   31.4700   35.7210 N   0  0  0  0  0  0  0  0  0  0  0  0
   35.6810   32.4380   37.6220 H   0  0  0  0  0  0  0  0  0  0  0  0
   33.2280   32.5210   37.8900 H   0  0  0  0  0  0  0  0  0  0  0  0
   31.8010   31.5550   36.0500 H   0  0  0  0  0  0  0  0  0  0  0  0
  2  1  1  0  0  0  0
  2  3  1  0  0  0  0
  3 26  1  0  0  0  0
  4  3  2  0  0  0  0
  4  8  1  0  0  0  0
  5  4  1  0  0  0  0
  6  7  1  0  0  0  0
  6  5  2  0  0  0  0
  7  2  2  0  0  0  0
  9  6  1  0  0  0  0
 10  7  1  0  0  0  0
 11 17  1  0  0  0  0
 12  5  1  0  0  0  0
 12 11  2  0  0  0  0
 13 15  2  0  0  0  0
 13 12  1  0  0  0  0
 14 13  1  0  0  0  0
 15 16  1  0  0  0  0
 16 17  2  0  0  0  0
 18 16  1  0  0  0  0
 19 18  1  0  0  0  0
 20 19  1  0  0  0  0
 21 15  1  0  0  0  0
 21 19  1  0  0  0  0
 22 23  1  0  0  0  0
 22 28  1  0  0  0  0
 23 29  1  0  0  0  0
 24 30  1  0  0  0  0
 24 23  2  0  0  0  0
 25 24  1  0  0  0  0
 26 25  2  0  0  0  0
 26 27  1  0  0  0  0
 27 22  2  0  0  0  0
M  END
>  <minimizedAffinity>
-5.47214222

$$$$

 OpenBabel03272510183D

 30 33  0  0  0  0  0  0  0  0999 V2000
   38.2530   26.2730   31.0030 Br  0  0  0  0  0  0  0  0  0  0  0  0
   37.2740   27.4470   32.1540 C   0  0  0  0  0  0  0  0  0  0  0  0
   37.4130   27.3650   33.5320 C   0  0  0  0  0  0  0  0  0  0  0  0
   36.6750   28.2440   34.2890 C   0  0  0  0  0  0  0  0  0  0  0  0
   35.8120   29.1920   33.7600 C   0  0  0  0  0  0  0  0  0  0  0  0
   35.7060   29.2360   32.3930 C   0  0  0  0  0  0  0  0  0  0  0  0
   36.4310   28.3690   31.6010 C   0  0  0  0  0  0  0  0  0  0  0  0
   36.7790   28.1880   35.3700 H   0  0  0  0  0  0  0  0  0  0  0  0
   35.0370   29.9690   31.9470 H   0  0  0  0  0  0  0  0  0  0  0  0
   36.3170   28.4380   30.5120 H   0  0  0  0  0  0  0  0  0  0  0  0
   33.7620   29.7350   34.9150 C   0  0  0  0  0  3  0  0  0  0  0  0
   35.0610   30.0900   34.6190 C   0  0  0  0  0  0  0  0  0  0  0  0
   35.5780   31.2590   35.1420 C   0  0  0  0  0  0  0  0  0  0  0  0
   36.5820   31.5400   34.9170 H   0  0  0  0  0  0  0  0  0  0  0  0
   34.7870   32.0440   35.9460 C   0  0  0  0  0  0  0  0  0  0  0  0
   33.4740   31.6810   36.2420 C   0  0  0  0  0  0  0  0  0  0  0  0
   32.9270   30.5070   35.7280 C   0  0  0  0  0  3  0  0  0  0  0  0
   32.8550   32.6230   37.0750 O   0  0  0  0  0  0  0  0  0  0  0  0
   33.9680   33.3500   37.6170 C   0  0  0  0  0  3  0  0  0  0  0  0
   33.6920   34.3780   37.8440 H   0  0  0  0  0  0  0  0  0  0  0  0
   34.9750   33.2580   36.6270 O   0  0  0  0  0  0  0  0  0  0  0  0
   38.5790   24.2630   35.0460 C   0  0  0  0  0  0  0  0  0  0  0  0
   39.9540   24.4910   35.2750 C   0  0  0  0  0  0  0  0  0  0  0  0
   40.4650   25.7280   34.9010 C   0  0  0  0  0  0  0  0  0  0  0  0
   39.6350   26.6640   34.3320 N   0  0  0  0  0  0  0  0  0  0  0  0
   38.3110   26.3850   34.1350 C   0  0  0  0  0  0  0  0  0  0  0  0
   37.7990   25.1930   34.4910 N   0  0  0  0  0  0  0  0  0  0  0  0
   38.2240   23.2870   35.3530 H   0  0  0  0  0  0  0  0  0  0  0  0
   40.6190   23.7640   35.7220 H   0  0  0  0  0  0  0  0  0  0  0  0
   41.5000   26.0210   35.0260 H   0  0  0  0  0  0  0  0  0  0  0  0
  1  2  1  0  0  0  0
  2  3  1  0  0  0  0
  3 26  1  0  0  0  0
  3  4  2  0  0  0  0
  4  8  1  0  0  0  0
  5  4  1  0  0  0  0
  5 12  1  0  0  0  0
  6  5  2  0  0  0  0
  7  2  2  0  0  0  0
  7  6  1  0  0  0  0
  9  6  1  0  0  0  0
 10  7  1  0  0  0  0
 11 17  1  0  0  0  0
 12 11  2  0  0  0  0
 12 13  1  0  0  0  0
 13 15  2  0  0  0  0
 14 13  1  0  0  0  0
 15 16  1  0  0  0  0
 15 21  1  0  0  0  0
 16 18  1  0  0  0  0
 17 16  2  0  0  0  0
 18 19  1  0  0  0  0
 19 20  1  0  0  0  0
 21 19  1  0  0  0  0
 22 23  1  0  0  0  0
 22 28  1  0  0  0  0
 23 29  1  0  0  0  0
 24 30  1  0  0  0  0
 24 23  2  0  0  0  0
 25 24  1  0  0  0  0
 26 25  2  0  0  0  0
 26 27  1  0  0  0  0
 27 22  2  0  0  0  0
M  END
>  <minimizedAffinity>
-5.36739206

$$$$

 OpenBabel03272510183D

 30 33  0  0  0  0  0  0  0  0999 V2000
   36.8670   28.5570   31.2340 Br  0  0  0  0  0  0  0  0  0  0  0  0
   36.7770   26.6450   31.2730 C   0  0  0  0  0  0  0  0  0  0  0  0
   37.9140   25.8890   31.5170 C   0  0  0  0  0  0  0  0  0  0  0  0
   37.7660   24.5220   31.5290 C   0  0  0  0  0  0  0  0  0  0  0  0
   36.5630   23.8680   31.3140 C   0  0  0  0  0  0  0  0  0  0  0  0
   35.4650   24.6560   31.0770 C   0  0  0  0  0  0  0  0  0  0  0  0
   35.5760   26.0320   31.0570 C   0  0  0  0  0  0  0  0  0  0  0  0
   38.6520   23.9210   31.7200 H   0  0  0  0  0  0  0  0  0  0  0  0
   34.5060   24.1730   30.9050 H   0  0  0  0  0  0  0  0  0  0  0  0
   34.6730   26.6250   30.8640 H   0  0  0  0  0  0  0  0  0  0  0  0
   37.5730   21.7170   30.8830 C   0  0  0  0  0  3  0  0  0  0  0  0
   36.4770   22.4180   31.3410 C   0  0  0  0  0  0  0  0  0  0  0  0
   35.3730   21.7260   31.7950 C   0  0  0  0  0  0  0  0  0  0  0  0
   34.5220   22.2620   32.1510 H   0  0  0  0  0  0  0  0  0  0  0  0
   35.3870   20.3520   31.7800 C   0  0  0  0  0  0  0  0  0  0  0  0
   36.4960   19.6460   31.3160 C   0  0  0  0  0  0  0  0  0  0  0  0
   37.6250   20.3200   30.8520 C   0  0  0  0  0  3  0  0  0  0  0  0
   36.2940   18.2610   31.3910 O   0  0  0  0  0  0  0  0  0  0  0  0
   35.1960   18.1490   32.3080 C   0  0  0  0  0  3  0  0  0  0  0  0
   34.5970   17.2650   32.0950 H   0  0  0  0  0  0  0  0  0  0  0  0
   34.4710   19.3540   32.1530 O   0  0  0  0  0  0  0  0  0  0  0  0
   40.7660   27.3040   33.2890 C   0  0  0  0  0  0  0  0  0  0  0  0
   41.6270   27.7390   32.2570 C   0  0  0  0  0  0  0  0  0  0  0  0
   41.2050   27.5380   30.9480 C   0  0  0  0  0  0  0  0  0  0  0  0
   39.9930   26.9330   30.7090 N   0  0  0  0  0  0  0  0  0  0  0  0
   39.2040   26.5330   31.7500 C   0  0  0  0  0  0  0  0  0  0  0  0
   39.5960   26.7190   33.0230 N   0  0  0  0  0  0  0  0  0  0  0  0
   41.1350   27.4800   34.2910 H   0  0  0  0  0  0  0  0  0  0  0  0
   42.5830   28.2160   32.4310 H   0  0  0  0  0  0  0  0  0  0  0  0
   41.7740   27.8280   30.0750 H   0  0  0  0  0  0  0  0  0  0  0  0
  1  2  1  0  0  0  0
  2  3  1  0  0  0  0
  3  4  2  0  0  0  0
  3 26  1  0  0  0  0
  4  8  1  0  0  0  0
  5 12  1  0  0  0  0
  5  4  1  0  0  0  0
  6  5  2  0  0  0  0
  7  6  1  0  0  0  0
  7  2  2  0  0  0  0
  9  6  1  0  0  0  0
 10  7  1  0  0  0  0
 11 12  1  0  0  0  0
 12 13  2  0  0  0  0
 13 14  1  0  0  0  0
 15 13  1  0  0  0  0
 15 21  1  0  0  0  0
 16 18  1  0  0  0  0
 16 15  2  0  0  0  0
 17 11  2  0  0  0  0
 17 16  1  0  0  0  0
 18 19  1  0  0  0  0
 20 19  1  0  0  0  0
 21 19  1  0  0  0  0
 22 28  1  0  0  0  0
 23 29  1  0  0  0  0
 23 22  2  0  0  0  0
 24 23  1  0  0  0  0
 25 24  2  0  0  0  0
 25 26  1  0  0  0  0
 26 27  2  0  0  0  0
 27 22  1  0  0  0  0
 30 24  1  0  0  0  0
M  END
>  <minimizedAffinity>
-5.25957632

$$$$

 OpenBabel03272510183D

 30 33  0  0  0  0  0  0  0  0999 V2000
   36.4570   28.2890   33.7030 Br  0  0  0  0  0  0  0  0  0  0  0  0
   37.6240   26.9100   34.3350 C   0  0  0  0  0  0  0  0  0  0  0  0
   37.6240   25.6560   33.7410 C   0  0  0  0  0  0  0  0  0  0  0  0
   38.4910   24.7210   34.2530 C   0  0  0  0  0  0  0  0  0  0  0  0
   39.3540   24.9570   35.3130 C   0  0  0  0  0  0  0  0  0  0  0  0
   39.3200   26.2110   35.8680 C   0  0  0  0  0  0  0  0  0  0  0  0
   38.4610   27.1760   35.3810 C   0  0  0  0  0  0  0  0  0  0  0  0
   38.4990   23.7350   33.7930 H   0  0  0  0  0  0  0  0  0  0  0  0
   39.9850   26.4290   36.7020 H   0  0  0  0  0  0  0  0  0  0  0  0
   38.4660   28.1660   35.8540 H   0  0  0  0  0  0  0  0  0  0  0  0
   39.7980   23.1590   36.8620 C   0  0  0  0  0  3  0  0  0  0  0  0
   40.2470   23.9230   35.8040 C   0  0  0  0  0  0  0  0  0  0  0  0
   41.4950   23.6730   35.2710 C   0  0  0  0  0  0  0  0  0  0  0  0
   41.8480   24.2600   34.4530 H   0  0  0  0  0  0  0  0  0  0  0  0
   42.2670   22.6700   35.8070 C   0  0  0  0  0  0  0  0  0  0  0  0
   41.8110   21.9010   36.8760 C   0  0  0  0  0  0  0  0  0  0  0  0
   40.5550   22.1310   37.4330 C   0  0  0  0  0  3  0  0  0  0  0  0
   42.7570   20.9400   37.2590 O   0  0  0  0  0  0  0  0  0  0  0  0
   43.6230   20.8720   36.1180 C   0  0  0  0  0  3  0  0  0  0  0  0
   44.6370   20.6030   36.4100 H   0  0  0  0  0  0  0  0  0  0  0  0
   43.5440   22.1560   35.5270 O   0  0  0  0  0  0  0  0  0  0  0  0
   35.4810   26.1700   30.8390 C   0  0  0  0  0  0  0  0  0  0  0  0
   35.0570   24.8680   30.4930 C   0  0  0  0  0  0  0  0  0  0  0  0
   35.5210   23.8180   31.2780 C   0  0  0  0  0  0  0  0  0  0  0  0
   36.3580   24.0770   32.3370 N   0  0  0  0  0  0  0  0  0  0  0  0
   36.7350   25.3600   32.6210 C   0  0  0  0  0  0  0  0  0  0  0  0
   36.2960   26.3890   31.8740 N   0  0  0  0  0  0  0  0  0  0  0  0
   35.0970   26.9560   30.2010 H   0  0  0  0  0  0  0  0  0  0  0  0
   34.3990   24.6490   29.6630 H   0  0  0  0  0  0  0  0  0  0  0  0
   35.2650   22.7790   31.1140 H   0  0  0  0  0  0  0  0  0  0  0  0
  1  2  1  0  0  0  0
  2  7  1  0  0  0  0
  3  4  1  0  0  0  0
  3  2  2  0  0  0  0
  4  5  2  0  0  0  0
  5 12  1  0  0  0  0
  5  6  1  0  0  0  0
  6  9  1  0  0  0  0
  7 10  1  0  0  0  0
  7  6  2  0  0  0  0
  8  4  1  0  0  0  0
 11 17  1  0  0  0  0
 12 11  2  0  0  0  0
 13 12  1  0  0  0  0
 13 15  2  0  0  0  0
 14 13  1  0  0  0  0
 15 16  1  0  0  0  0
 16 18  1  0  0  0  0
 16 17  2  0  0  0  0
 19 20  1  0  0  0  0
 19 18  1  0  0  0  0
 21 15  1  0  0  0  0
 21 19  1  0  0  0  0
 22 27  1  0  0  0  0
 23 22  2  0  0  0  0
 23 24  1  0  0  0  0
 24 25  2  0  0  0  0
 25 26  1  0  0  0  0
 26  3  1  0  0  0  0
 27 26  2  0  0  0  0
 28 22  1  0  0  0  0
 29 23  1  0  0  0  0
 30 24  1  0  0  0  0
M  END
>  <minimizedAffinity>
-5.19983959

$$$$

 OpenBabel03272510183D

 30 33  0  0  0  0  0  0  0  0999 V2000
   37.0400   29.4960   30.1520 Br  0  0  0  0  0  0  0  0  0  0  0  0
   37.5060   28.2570   31.5340 C   0  0  0  0  0  0  0  0  0  0  0  0
   38.6320   27.4540   31.4140 C   0  0  0  0  0  0  0  0  0  0  0  0
   38.8980   26.5900   32.4500 C   0  0  0  0  0  0  0  0  0  0  0  0
   38.1160   26.4780   33.5900 C   0  0  0  0  0  0  0  0  0  0  0  0
   37.0130   27.2910   33.6650 C   0  0  0  0  0  0  0  0  0  0  0  0
   36.7150   28.1700   32.6430 C   0  0  0  0  0  0  0  0  0  0  0  0
   39.7790   25.9580   32.3660 H   0  0  0  0  0  0  0  0  0  0  0  0
   36.3790   27.2270   34.5470 H   0  0  0  0  0  0  0  0  0  0  0  0
   35.8230   28.8020   32.7440 H   0  0  0  0  0  0  0  0  0  0  0  0
   39.5430   24.7230   34.4350 C   0  0  0  0  0  3  0  0  0  0  0  0
   38.4550   25.5430   34.6480 C   0  0  0  0  0  0  0  0  0  0  0  0
   37.7540   25.4420   35.8330 C   0  0  0  0  0  0  0  0  0  0  0  0
   36.9120   26.0740   36.0050 H   0  0  0  0  0  0  0  0  0  0  0  0
   38.1540   24.5250   36.7750 C   0  0  0  0  0  0  0  0  0  0  0  0
   39.2530   23.6960   36.5560 C   0  0  0  0  0  0  0  0  0  0  0  0
   39.9790   23.7770   35.3690 C   0  0  0  0  0  3  0  0  0  0  0  0
   39.4800   22.8420   37.6430 O   0  0  0  0  0  0  0  0  0  0  0  0
   38.7430   23.4710   38.7020 C   0  0  0  0  0  3  0  0  0  0  0  0
   38.3840   22.7360   39.4210 H   0  0  0  0  0  0  0  0  0  0  0  0
   37.6910   24.1590   38.0500 O   0  0  0  0  0  0  0  0  0  0  0  0
   40.0110   26.7160   28.1230 C   0  0  0  0  0  0  0  0  0  0  0  0
   41.0630   27.6460   27.9780 C   0  0  0  0  0  0  0  0  0  0  0  0
   41.2860   28.5250   29.0320 C   0  0  0  0  0  0  0  0  0  0  0  0
   40.4910   28.4610   30.1520 N   0  0  0  0  0  0  0  0  0  0  0  0
   39.4870   27.5380   30.2340 C   0  0  0  0  0  0  0  0  0  0  0  0
   39.2560   26.6790   29.2240 N   0  0  0  0  0  0  0  0  0  0  0  0
   39.8730   26.0520   27.2790 H   0  0  0  0  0  0  0  0  0  0  0  0
   41.6960   27.7080   27.1030 H   0  0  0  0  0  0  0  0  0  0  0  0
   42.0610   29.2800   29.0390 H   0  0  0  0  0  0  0  0  0  0  0  0
  1  2  1  0  0  0  0
  2  7  1  0  0  0  0
  3  2  2  0  0  0  0
  3  4  1  0  0  0  0
  4  5  2  0  0  0  0
  5  6  1  0  0  0  0
  5 12  1  0  0  0  0
  6  9  1  0  0  0  0
  7 10  1  0  0  0  0
  7  6  2  0  0  0  0
  8  4  1  0  0  0  0
 11 12  2  0  0  0  0
 11 17  1  0  0  0  0
 12 13  1  0  0  0  0
 13 14  1  0  0  0  0
 13 15  2  0  0  0  0
 15 21  1  0  0  0  0
 16 15  1  0  0  0  0
 16 18  1  0  0  0  0
 17 16  2  0  0  0  0
 18 19  1  0  0  0  0
 19 20  1  0  0  0  0
 21 19  1  0  0  0  0
 22 27  1  0  0  0  0
 23 22  2  0  0  0  0
 23 24  1  0  0  0  0
 24 30  1  0  0  0  0
 24 25  2  0  0  0  0
 25 26  1  0  0  0  0
 26  3  1  0  0  0  0
 27 26  2  0  0  0  0
 28 22  1  0  0  0  0
 29 23  1  0  0  0  0
M  END
>  <minimizedAffinity>
-5.18002748

$$$$
