
 OpenBabel03272500583D

 37 40  0  0  0  0  0  0  0  0999 V2000
   38.1460   31.8800   47.4000 C   0  0  0  0  0  0  0  0  0  0  0  0
   38.6630   32.7560   48.3070 C   0  0  0  0  0  0  0  0  0  0  0  0
   38.2050   32.8320   49.6260 C   0  0  0  0  0  0  0  0  0  0  0  0
   37.1380   31.9310   50.0120 C   0  0  0  0  0  0  0  0  0  0  0  0
   36.6670   31.0830   49.0620 C   0  0  0  0  0  0  0  0  0  0  0  0
   37.1130   31.0210   47.8010 C   0  0  0  0  0  0  0  0  0  0  0  0
   39.4750   33.4540   48.0450 H   0  0  0  0  0  0  0  0  0  0  0  0
   38.6590   33.5530   50.2940 H   0  0  0  0  0  0  0  0  0  0  0  0
   36.8900   32.0970   51.0390 H   0  0  0  0  0  0  0  0  0  0  0  0
   35.9150   30.4980   49.5680 H   0  0  0  0  0  0  0  0  0  0  0  0
   39.9960   31.2590   45.9230 C   0  0  0  0  0  0  0  0  0  0  0  0
   38.7450   31.9060   46.0850 C   0  0  0  0  0  0  0  0  0  0  0  0
   38.2530   32.4800   44.9390 C   0  0  0  0  0  0  0  0  0  0  0  0
   38.9280   32.4130   43.7850 N   0  0  0  0  0  0  0  0  0  0  0  0
   40.0900   31.8070   43.6530 C   0  0  0  0  0  0  0  0  0  0  0  0
   40.6130   31.2340   44.7260 N   0  0  0  0  0  0  0  0  0  0  0  0
   40.4670   30.7710   46.7820 H   0  0  0  0  0  0  0  0  0  0  0  0
   37.3020   32.9760   45.0530 H   0  0  0  0  0  0  0  0  0  0  0  0
   40.6450   31.7450   42.7240 H   0  0  0  0  0  0  0  0  0  0  0  0
   35.1380   30.0060   47.0240 C   0  0  0  0  0  0  0  0  0  0  0  0
   34.5520   30.6510   47.9780 O   0  0  0  0  0  0  0  0  0  0  0  0
   36.5740   30.1550   46.8850 N   0  0  0  0  0  0  0  0  0  0  0  0
   37.1190   29.6440   46.1560 H   0  0  0  0  0  0  0  0  0  0  0  0
   34.3820   29.2220   46.2020 O   0  0  0  0  0  0  0  0  0  0  0  0
   33.2480   29.6270   45.5220 C   0  0  0  0  0  0  0  0  0  0  0  0
   33.3050   30.2460   44.3620 O   0  0  0  0  0  0  0  0  0  0  0  0
   30.7700   29.9970   45.6490 C   0  0  0  0  0  3  0  0  0  0  0  0
   31.9000   29.3550   46.0710 C   0  0  0  0  0  0  0  0  0  0  0  0
   31.7300   28.4110   47.0620 C   0  0  0  0  0  0  0  0  0  0  0  0
   32.6080   27.8720   47.4310 H   0  0  0  0  0  0  0  0  0  0  0  0
   30.5310   28.0930   47.6270 C   0  0  0  0  0  0  0  0  0  0  0  0
   29.4050   28.7710   47.1670 C   0  0  0  0  0  0  0  0  0  0  0  0
   29.5270   29.7240   46.1760 C   0  0  0  0  0  3  0  0  0  0  0  0
   28.2930   28.2880   47.8820 O   0  0  0  0  0  0  0  0  0  0  0  0
   28.6660   27.0600   48.4760 C   0  0  0  0  0  3  0  0  0  0  0  0
   28.2470   26.8990   49.4820 H   0  0  0  0  0  0  0  0  0  0  0  0
   30.0760   27.2110   48.6130 O   0  0  0  0  0  0  0  0  0  0  0  0
  1  6  2  0  0  0  0
  1  2  1  0  0  0  0
  2  3  2  0  0  0  0
  3  4  1  0  0  0  0
  3  8  1  0  0  0  0
  4  9  1  0  0  0  0
  5 10  1  0  0  0  0
  5  4  2  0  0  0  0
  6  5  1  0  0  0  0
  7  2  1  0  0  0  0
 11 12  1  0  0  0  0
 11 17  1  0  0  0  0
 12  1  1  0  0  0  0
 13 18  1  0  0  0  0
 13 12  2  0  0  0  0
 14 13  1  0  0  0  0
 15 14  2  0  0  0  0
 15 16  1  0  0  0  0
 16 11  2  0  0  0  0
 19 15  1  0  0  0  0
 20 21  2  0  0  0  0
 22 20  1  0  0  0  0
 22  6  1  0  0  0  0
 23 22  1  0  0  0  0
 24 20  1  0  0  0  0
 25 28  1  0  0  0  0
 25 24  1  0  0  0  0
 26 25  2  0  0  0  0
 27 28  2  0  0  0  0
 27 33  1  0  0  0  0
 28 29  1  0  0  0  0
 29 30  1  0  0  0  0
 29 31  2  0  0  0  0
 31 37  1  0  0  0  0
 32 31  1  0  0  0  0
 32 34  1  0  0  0  0
 33 32  2  0  0  0  0
 34 35  1  0  0  0  0
 35 37  1  0  0  0  0
 35 36  1  0  0  0  0
M  END
>  <minimizedAffinity>
-6.26540327

>  <minimizedRMSD>
1.69989622

$$$$
