
 OpenBabel03272507123D

 42 47  0  0  0  0  0  0  0  0999 V2000
   35.8470   29.1250   49.7800 C   0  0  0  0  0  0  0  0  0  0  0  0
   34.8150   29.6020   50.5390 C   0  0  0  0  0  0  0  0  0  0  0  0
   33.6470   29.0210   50.0340 C   0  0  0  0  0  0  0  0  0  0  0  0
   34.0560   28.2040   48.9680 C   0  0  0  0  0  0  0  0  0  0  0  0
   35.3450   28.3170   48.8840 O   0  0  0  0  0  0  0  0  0  0  0  0
   34.8640   30.3010   51.3810 H   0  0  0  0  0  0  0  0  0  0  0  0
   32.6800   29.2280   50.4510 H   0  0  0  0  0  0  0  0  0  0  0  0
   33.5030   26.5000   47.2490 C   0  0  0  0  0  0  0  0  0  0  0  0
   33.1050   27.4320   48.1920 C   0  0  0  0  0  0  0  0  0  0  0  0
   31.7740   27.6610   48.4320 C   0  0  0  0  0  0  0  0  0  0  0  0
   30.8280   26.9430   47.7130 C   0  0  0  0  0  0  0  0  0  0  0  0
   29.4880   26.9610   47.7420 N   0  0  0  0  0  0  0  0  0  0  0  0
   29.0590   26.0700   46.8460 N   0  0  0  0  0  0  0  0  0  0  0  0
   30.1180   25.4910   46.2540 C   0  0  0  0  0  0  0  0  0  0  0  0
   31.2810   26.0250   46.7850 C   0  0  0  0  0  0  0  0  0  0  0  0
   32.6070   25.7760   46.5240 C   0  0  0  0  0  0  0  0  0  0  0  0
   34.5710   26.3290   47.0700 H   0  0  0  0  0  0  0  0  0  0  0  0
   31.3670   28.3810   49.1600 H   0  0  0  0  0  0  0  0  0  0  0  0
   28.8560   27.5600   48.3490 H   0  0  0  0  0  0  0  0  0  0  0  0
   30.1270   24.7170   45.4740 H   0  0  0  0  0  0  0  0  0  0  0  0
   32.9490   25.0580   45.7970 H   0  0  0  0  0  0  0  0  0  0  0  0
   37.2200   29.5190   50.0250 C   0  0  0  0  0  0  0  0  0  0  0  0
   37.9300   28.8080   50.7870 O   0  0  0  0  0  0  0  0  0  0  0  0
   37.6980   30.7160   49.3720 C   0  0  0  0  0  0  0  0  0  0  0  0
   37.6970   31.8910   50.1170 C   0  0  0  0  0  0  0  0  0  0  0  0
   38.1540   33.0630   49.5130 C   0  0  0  0  0  0  0  0  0  0  0  0
   38.5740   32.9720   48.2210 N   0  0  0  0  0  0  0  0  0  0  0  0
   38.5650   31.8380   47.5310 C   0  0  0  0  0  0  0  0  0  0  0  0
   38.1250   30.7130   48.1130 N   0  0  0  0  0  0  0  0  0  0  0  0
   37.3480   31.8760   51.1380 H   0  0  0  0  0  0  0  0  0  0  0  0
   38.1410   33.9600   50.1150 H   0  0  0  0  0  0  0  0  0  0  0  0
   40.2010   31.1520   45.8150 C   0  0  0  0  0  3  0  0  0  0  0  0
   39.0260   31.7950   46.1480 C   0  0  0  0  0  0  0  0  0  0  0  0
   38.3190   32.3850   45.1280 C   0  0  0  0  0  0  0  0  0  0  0  0
   37.3960   32.8980   45.3370 H   0  0  0  0  0  0  0  0  0  0  0  0
   38.7750   32.3330   43.8150 C   0  0  0  0  0  0  0  0  0  0  0  0
   39.9500   31.6900   43.4820 C   0  0  0  0  0  0  0  0  0  0  0  0
   40.6520   31.1010   44.5130 C   0  0  0  0  0  3  0  0  0  0  0  0
   40.1350   31.8100   42.1010 O   0  0  0  0  0  0  0  0  0  0  0  0
   38.9090   32.2740   41.5640 C   0  0  0  0  0  3  0  0  0  0  0  0
   38.2910   31.4170   41.2110 H   0  0  0  0  0  0  0  0  0  0  0  0
   38.2110   32.8590   42.6630 O   0  0  0  0  0  0  0  0  0  0  0  0
  1 22  1  0  0  0  0
  1  2  2  0  0  0  0
  2  6  1  0  0  0  0
  3  7  1  0  0  0  0
  3  2  1  0  0  0  0
  4  3  2  0  0  0  0
  5  4  1  0  0  0  0
  5  1  1  0  0  0  0
  8  9  1  0  0  0  0
  9 10  2  0  0  0  0
  9  4  1  0  0  0  0
 10 18  1  0  0  0  0
 11 12  1  0  0  0  0
 11 10  1  0  0  0  0
 12 19  1  0  0  0  0
 13 12  1  0  0  0  0
 14 15  1  0  0  0  0
 14 13  2  0  0  0  0
 15 11  2  0  0  0  0
 16 15  1  0  0  0  0
 16  8  2  0  0  0  0
 17  8  1  0  0  0  0
 20 14  1  0  0  0  0
 21 16  1  0  0  0  0
 22 23  2  0  0  0  0
 24 22  1  0  0  0  0
 24 25  1  0  0  0  0
 25 30  1  0  0  0  0
 26 31  1  0  0  0  0
 26 25  2  0  0  0  0
 27 26  1  0  0  0  0
 28 29  1  0  0  0  0
 28 27  2  0  0  0  0
 29 24  2  0  0  0  0
 32 33  1  0  0  0  0
 33 28  1  0  0  0  0
 34 35  1  0  0  0  0
 34 33  2  0  0  0  0
 36 34  1  0  0  0  0
 37 36  2  0  0  0  0
 37 38  1  0  0  0  0
 38 32  2  0  0  0  0
 39 37  1  0  0  0  0
 40 39  1  0  0  0  0
 40 42  1  0  0  0  0
 41 40  1  0  0  0  0
 42 36  1  0  0  0  0
M  END
>  <minimizedAffinity>
-7.70448732

>  <minimizedRMSD>
0.739522994

$$$$
