
 OpenBabel03262522033D

 41 45  0  0  1  0  0  0  0  0999 V2000
   34.5500   29.1930   48.6830 C   0  0  2  0  0  0  0  0  0  0  0  0
   35.1940   28.4360   49.7950 C   0  0  0  0  0  0  0  0  0  0  0  0
   36.3500   29.1880   50.2650 N   0  0  0  0  0  0  0  0  0  0  0  0
   37.3090   29.8930   51.0670 C   0  0  0  0  0  0  0  0  0  0  0  0
   37.5430   30.0600   52.2810 O   0  0  0  0  0  0  0  0  0  0  0  0
   38.0280   30.4300   49.9150 C   0  0  1  0  0  0  0  0  0  0  0  0
   37.1980   29.4480   49.1290 C   0  0  2  0  0  0  0  0  0  0  0  0
   35.9460   30.1960   48.0370 S   0  0  0  0  0  0  0  0  0  0  0  0
   34.4940   28.3200   50.6530 H   0  0  0  0  0  0  0  0  0  0  0  0
   35.5390   27.4590   49.4270 H   0  0  0  0  0  0  0  0  0  0  0  0
   39.0980   30.1740   49.8190 H   0  0  0  0  0  0  0  0  0  0  0  0
   37.7270   28.5870   48.7070 H   0  0  0  0  0  0  0  0  0  0  0  0
   33.3570   30.0120   49.0540 C   0  0  0  0  0  0  0  0  0  0  0  0
   32.9400   30.4490   48.1490 H   0  0  0  0  0  0  0  0  0  0  0  0
   33.7310   30.7950   49.7710 H   0  0  0  0  0  0  0  0  0  0  0  0
   32.6970   29.3750   49.6500 H   0  0  0  0  0  0  0  0  0  0  0  0
   34.2280   28.2170   47.5390 C   0  0  0  0  0  0  0  0  0  0  0  0
   35.1810   27.7810   47.1820 H   0  0  0  0  0  0  0  0  0  0  0  0
   33.6610   27.3640   47.9760 H   0  0  0  0  0  0  0  0  0  0  0  0
   34.2320   29.3810   45.3820 C   0  0  0  0  0  3  0  0  0  0  0  0
   33.4800   28.8780   46.4440 C   0  0  0  0  0  0  0  0  0  0  0  0
   32.1090   29.0270   46.4050 C   0  0  0  0  0  0  0  0  0  0  0  0
   31.5500   28.6380   47.2210 H   0  0  0  0  0  0  0  0  0  0  0  0
   31.5510   29.6660   45.3170 C   0  0  0  0  0  0  0  0  0  0  0  0
   32.2620   30.1750   44.2500 C   0  0  0  0  0  0  0  0  0  0  0  0
   33.6270   30.0190   44.3030 C   0  0  0  0  0  3  0  0  0  0  0  0
   31.3150   30.7280   43.3860 O   0  0  0  0  0  0  0  0  0  0  0  0
   30.0190   30.1920   43.6790 C   0  0  0  0  0  3  0  0  0  0  0  0
   29.8860   29.1720   43.2280 H   0  0  0  0  0  0  0  0  0  0  0  0
   30.1930   29.9210   45.0770 O   0  0  0  0  0  0  0  0  0  0  0  0
   37.8140   31.8590   49.6290 C   0  0  0  0  0  0  0  0  0  0  0  0
   36.8360   32.3680   50.2470 O   0  0  0  0  0  0  0  0  0  0  0  0
   38.6490   32.6130   48.7290 C   0  0  0  0  0  0  0  0  0  0  0  0
   39.1640   33.8160   49.1840 C   0  0  0  0  0  0  0  0  0  0  0  0
   39.9790   34.5620   48.3050 C   0  0  0  0  0  0  0  0  0  0  0  0
   40.2110   34.0500   47.0600 N   0  0  0  0  0  0  0  0  0  0  0  0
   39.6980   32.8900   46.6570 C   0  0  0  0  0  0  0  0  0  0  0  0
   38.9170   32.1690   47.4890 N   0  0  0  0  0  0  0  0  0  0  0  0
   39.0100   34.2560   50.1490 H   0  0  0  0  0  0  0  0  0  0  0  0
   40.4020   35.4950   48.6020 H   0  0  0  0  0  0  0  0  0  0  0  0
   39.8670   32.4620   45.6730 H   0  0  0  0  0  0  0  0  0  0  0  0
  1 17  1  6  0  0  0
  1 13  1  0  0  0  0
  1  2  1  0  0  0  0
  2  3  1  0  0  0  0
  2  9  1  0  0  0  0
  3  4  1  0  0  0  0
  4  5  2  0  0  0  0
  6 11  1  1  0  0  0
  6  4  1  0  0  0  0
  7 12  1  6  0  0  0
  7  6  1  0  0  0  0
  7  3  1  0  0  0  0
  8  1  1  0  0  0  0
  8  7  1  0  0  0  0
 10  2  1  0  0  0  0
 13 16  1  0  0  0  0
 13 15  1  0  0  0  0
 14 13  1  0  0  0  0
 17 19  1  0  0  0  0
 18 17  1  0  0  0  0
 20 21  1  0  0  0  0
 21 17  1  0  0  0  0
 22 21  2  0  0  0  0
 22 23  1  0  0  0  0
 24 22  1  0  0  0  0
 25 26  1  0  0  0  0
 25 24  2  0  0  0  0
 26 20  2  0  0  0  0
 27 28  1  0  0  0  0
 27 25  1  0  0  0  0
 28 30  1  0  0  0  0
 29 28  1  0  0  0  0
 30 24  1  0  0  0  0
 31  6  1  0  0  0  0
 31 32  2  0  0  0  0
 33 34  1  0  0  0  0
 33 31  1  0  0  0  0
 34 39  1  0  0  0  0
 35 40  1  0  0  0  0
 35 34  2  0  0  0  0
 36 35  1  0  0  0  0
 37 36  2  0  0  0  0
 37 38  1  0  0  0  0
 38 33  2  0  0  0  0
 41 37  1  0  0  0  0
M  END
>  <minimizedAffinity>
-5.25040102

>  <minimizedRMSD>
0.239950716

$$$$
