
 OpenBabel03262522033D

 41 45  0  0  1  0  0  0  0  0999 V2000
   34.3580   29.1450   49.0180 C   0  0  2  0  0  0  0  0  0  0  0  0
   35.0890   28.3970   50.0810 C   0  0  0  0  0  0  0  0  0  0  0  0
   36.2960   29.1340   50.4280 N   0  0  0  0  0  0  0  0  0  0  0  0
   37.3380   29.8350   51.1240 C   0  0  0  0  0  0  0  0  0  0  0  0
   37.6860   30.0200   52.3080 O   0  0  0  0  0  0  0  0  0  0  0  0
   37.9560   30.3370   49.9000 C   0  0  1  0  0  0  0  0  0  0  0  0
   37.0400   29.3580   49.2130 C   0  0  2  0  0  0  0  0  0  0  0  0
   35.7060   30.1100   48.2270 S   0  0  0  0  0  0  0  0  0  0  0  0
   34.4700   28.3100   51.0020 H   0  0  0  0  0  0  0  0  0  0  0  0
   35.3810   27.4060   49.7020 H   0  0  0  0  0  0  0  0  0  0  0  0
   39.0090   30.0590   49.7110 H   0  0  0  0  0  0  0  0  0  0  0  0
   37.5120   28.4790   48.7620 H   0  0  0  0  0  0  0  0  0  0  0  0
   33.2200   29.9930   49.4810 C   0  0  0  0  0  0  0  0  0  0  0  0
   32.7280   30.4220   48.6090 H   0  0  0  0  0  0  0  0  0  0  0  0
   33.6710   30.7830   50.1450 H   0  0  0  0  0  0  0  0  0  0  0  0
   32.6060   29.3810   50.1480 H   0  0  0  0  0  0  0  0  0  0  0  0
   33.9150   28.1560   47.9280 C   0  0  0  0  0  0  0  0  0  0  0  0
   34.4180   28.4370   46.9830 H   0  0  0  0  0  0  0  0  0  0  0  0
   34.3310   27.1560   48.1940 H   0  0  0  0  0  0  0  0  0  0  0  0
   31.9070   28.7820   46.6720 C   0  0  0  0  0  0  0  0  0  0  0  0
   32.4410   28.1210   47.7790 C   0  0  0  0  0  0  0  0  0  0  0  0
   31.5750   27.4900   48.6480 C   0  0  0  0  0  0  0  0  0  0  0  0
   31.9990   26.9900   49.4860 H   0  0  0  0  0  0  0  0  0  0  0  0
   30.2230   27.5440   48.3790 C   0  0  0  0  0  0  0  0  0  0  0  0
   29.6590   28.1850   47.2950 C   0  0  0  0  0  0  0  0  0  0  0  0
   30.5350   28.8100   46.4390 C   0  0  0  0  0  0  0  0  0  0  0  0
   28.2810   27.9910   47.4100 O   0  0  0  0  0  0  0  0  0  0  0  0
   28.0170   26.8880   48.2850 C   0  0  0  0  0  0  0  0  0  0  0  0
   28.1470   25.9050   47.7570 H   0  0  0  0  0  0  0  0  0  0  0  0
   29.1790   26.9760   49.1210 O   0  0  0  0  0  0  0  0  0  0  0  0
   37.7420   31.7650   49.6060 C   0  0  0  0  0  0  0  0  0  0  0  0
   36.7630   32.2770   50.2210 O   0  0  0  0  0  0  0  0  0  0  0  0
   38.5770   32.5150   48.7030 C   0  0  0  0  0  0  0  0  0  0  0  0
   39.1040   33.7130   49.1580 C   0  0  0  0  0  0  0  0  0  0  0  0
   39.9200   34.4540   48.2750 C   0  0  0  0  0  0  0  0  0  0  0  0
   40.1400   33.9430   47.0280 N   0  0  0  0  0  0  0  0  0  0  0  0
   39.6170   32.7880   46.6260 C   0  0  0  0  0  0  0  0  0  0  0  0
   38.8350   32.0710   47.4600 N   0  0  0  0  0  0  0  0  0  0  0  0
   38.9590   34.1520   50.1240 H   0  0  0  0  0  0  0  0  0  0  0  0
   40.3520   35.3830   48.5720 H   0  0  0  0  0  0  0  0  0  0  0  0
   39.7770   32.3610   45.6390 H   0  0  0  0  0  0  0  0  0  0  0  0
  1 17  1  6  0  0  0
  1 13  1  0  0  0  0
  1  2  1  0  0  0  0
  2  3  1  0  0  0  0
  2  9  1  0  0  0  0
  3  4  1  0  0  0  0
  4  5  2  0  0  0  0
  6 11  1  6  0  0  0
  6  4  1  0  0  0  0
  7 12  1  6  0  0  0
  7  6  1  0  0  0  0
  7  3  1  0  0  0  0
  8  1  1  0  0  0  0
  8  7  1  0  0  0  0
 10  2  1  0  0  0  0
 13 15  1  0  0  0  0
 13 16  1  0  0  0  0
 14 13  1  0  0  0  0
 17 19  1  0  0  0  0
 18 17  1  0  0  0  0
 20 21  1  0  0  0  0
 21 17  1  0  0  0  0
 21 22  2  0  0  0  0
 22 23  1  0  0  0  0
 24 22  1  0  0  0  0
 24 30  1  0  0  0  0
 25 27  1  0  0  0  0
 25 24  2  0  0  0  0
 26 20  2  0  0  0  0
 26 25  1  0  0  0  0
 27 28  1  0  0  0  0
 28 30  1  0  0  0  0
 29 28  1  0  0  0  0
 31  6  1  0  0  0  0
 31 32  2  0  0  0  0
 33 34  1  0  0  0  0
 33 31  1  0  0  0  0
 34 39  1  0  0  0  0
 35 40  1  0  0  0  0
 35 34  2  0  0  0  0
 36 35  1  0  0  0  0
 37 36  2  0  0  0  0
 37 38  1  0  0  0  0
 38 33  2  0  0  0  0
 41 37  1  0  0  0  0
M  END
>  <minimizedAffinity>
-5.87688684

>  <minimizedRMSD>
2.60026145

$$$$
