
 OpenBabel03262522033D

 41 45  0  0  1  0  0  0  0  0999 V2000
   34.5500   29.2040   48.7240 C   0  0  2  0  0  0  0  0  0  0  0  0
   35.2040   28.4410   49.8260 C   0  0  0  0  0  0  0  0  0  0  0  0
   36.3670   29.1880   50.2870 N   0  0  0  0  0  0  0  0  0  0  0  0
   37.3360   29.8870   51.0810 C   0  0  0  0  0  0  0  0  0  0  0  0
   37.5840   30.0500   52.2930 O   0  0  0  0  0  0  0  0  0  0  0  0
   38.0450   30.4260   49.9230 C   0  0  1  0  0  0  0  0  0  0  0  0
   37.2030   29.4500   49.1430 C   0  0  2  0  0  0  0  0  0  0  0  0
   35.9420   30.2060   48.0670 S   0  0  0  0  0  0  0  0  0  0  0  0
   34.5130   28.3240   50.6910 H   0  0  0  0  0  0  0  0  0  0  0  0
   35.5420   27.4640   49.4510 H   0  0  0  0  0  0  0  0  0  0  0  0
   39.1130   30.1680   49.8140 H   0  0  0  0  0  0  0  0  0  0  0  0
   37.7250   28.5890   48.7120 H   0  0  0  0  0  0  0  0  0  0  0  0
   33.3640   30.0240   49.1110 C   0  0  0  0  0  0  0  0  0  0  0  0
   32.9380   30.4660   48.2120 H   0  0  0  0  0  0  0  0  0  0  0  0
   33.7470   30.8040   49.8270 H   0  0  0  0  0  0  0  0  0  0  0  0
   32.7080   29.3880   49.7120 H   0  0  0  0  0  0  0  0  0  0  0  0
   34.2130   28.2340   47.5800 C   0  0  0  0  0  0  0  0  0  0  0  0
   35.1650   27.8710   47.1450 H   0  0  0  0  0  0  0  0  0  0  0  0
   33.7370   27.3330   48.0330 H   0  0  0  0  0  0  0  0  0  0  0  0
   31.9920   28.5290   46.5900 C   0  0  0  0  0  3  0  0  0  0  0  0
   33.3460   28.8640   46.5580 C   0  0  0  0  0  0  0  0  0  0  0  0
   33.7800   29.7480   45.5920 C   0  0  0  0  0  0  0  0  0  0  0  0
   34.8150   29.9940   45.5810 H   0  0  0  0  0  0  0  0  0  0  0  0
   32.8540   30.2570   44.7050 C   0  0  0  0  0  0  0  0  0  0  0  0
   31.5080   29.9480   44.7060 C   0  0  0  0  0  0  0  0  0  0  0  0
   31.0910   29.0660   45.6740 C   0  0  0  0  0  3  0  0  0  0  0  0
   30.9480   30.6760   43.6540 O   0  0  0  0  0  0  0  0  0  0  0  0
   31.8230   31.7480   43.2850 C   0  0  0  0  0  3  0  0  0  0  0  0
   31.7210   32.6200   43.9860 H   0  0  0  0  0  0  0  0  0  0  0  0
   33.0770   31.1600   43.6570 O   0  0  0  0  0  0  0  0  0  0  0  0
   37.8320   31.8580   49.6440 C   0  0  0  0  0  0  0  0  0  0  0  0
   36.8610   32.3670   50.2750 O   0  0  0  0  0  0  0  0  0  0  0  0
   38.6590   32.6130   48.7390 C   0  0  0  0  0  0  0  0  0  0  0  0
   39.1700   33.8200   49.1880 C   0  0  0  0  0  0  0  0  0  0  0  0
   39.9780   34.5670   48.3030 C   0  0  0  0  0  0  0  0  0  0  0  0
   40.2070   34.0520   47.0590 N   0  0  0  0  0  0  0  0  0  0  0  0
   39.6990   32.8870   46.6620 C   0  0  0  0  0  0  0  0  0  0  0  0
   38.9250   32.1650   47.4990 N   0  0  0  0  0  0  0  0  0  0  0  0
   39.0180   34.2620   50.1520 H   0  0  0  0  0  0  0  0  0  0  0  0
   40.3980   35.5020   48.5960 H   0  0  0  0  0  0  0  0  0  0  0  0
   39.8660   32.4570   45.6780 H   0  0  0  0  0  0  0  0  0  0  0  0
  1 17  1  6  0  0  0
  1 13  1  0  0  0  0
  1  2  1  0  0  0  0
  2  3  1  0  0  0  0
  2  9  1  0  0  0  0
  3  4  1  0  0  0  0
  4  5  2  0  0  0  0
  6 11  1  6  0  0  0
  6  4  1  0  0  0  0
  7 12  1  6  0  0  0
  7  6  1  0  0  0  0
  7  3  1  0  0  0  0
  8  1  1  0  0  0  0
  8  7  1  0  0  0  0
 10  2  1  0  0  0  0
 13 16  1  0  0  0  0
 13 15  1  0  0  0  0
 14 13  1  0  0  0  0
 17 19  1  0  0  0  0
 18 17  1  0  0  0  0
 21 20  1  0  0  0  0
 21 17  1  0  0  0  0
 22 21  2  0  0  0  0
 23 22  1  0  0  0  0
 24 25  2  0  0  0  0
 24 22  1  0  0  0  0
 25 26  1  0  0  0  0
 26 20  2  0  0  0  0
 27 25  1  0  0  0  0
 28 27  1  0  0  0  0
 28 30  1  0  0  0  0
 28 29  1  0  0  0  0
 30 24  1  0  0  0  0
 31  6  1  0  0  0  0
 31 32  2  0  0  0  0
 33 34  1  0  0  0  0
 33 31  1  0  0  0  0
 34 39  1  0  0  0  0
 35 40  1  0  0  0  0
 35 34  2  0  0  0  0
 36 35  1  0  0  0  0
 37 36  2  0  0  0  0
 37 38  1  0  0  0  0
 38 33  2  0  0  0  0
 41 37  1  0  0  0  0
M  END
>  <minimizedAffinity>
-5.27565861

>  <minimizedRMSD>
0.507689357

$$$$
