
 OpenBabel03262522033D

 41 45  0  0  1  0  0  0  0  0999 V2000
   34.5100   29.2670   48.7280 C   0  0  2  0  0  0  0  0  0  0  0  0
   35.1750   28.4680   49.7980 C   0  0  0  0  0  0  0  0  0  0  0  0
   36.3560   29.1870   50.2550 N   0  0  0  0  0  0  0  0  0  0  0  0
   37.3500   29.8530   51.0480 C   0  0  0  0  0  0  0  0  0  0  0  0
   37.6220   29.9810   52.2590 O   0  0  0  0  0  0  0  0  0  0  0  0
   38.0430   30.4130   49.8910 C   0  0  1  0  0  0  0  0  0  0  0  0
   37.1740   29.4680   49.1020 C   0  0  2  0  0  0  0  0  0  0  0  0
   35.9030   30.2670   48.0710 S   0  0  0  0  0  0  0  0  0  0  0  0
   34.4990   28.3360   50.6730 H   0  0  0  0  0  0  0  0  0  0  0  0
   35.4920   27.4960   49.3910 H   0  0  0  0  0  0  0  0  0  0  0  0
   39.1050   30.1430   49.7550 H   0  0  0  0  0  0  0  0  0  0  0  0
   37.6760   28.6120   48.6390 H   0  0  0  0  0  0  0  0  0  0  0  0
   33.3420   30.0920   49.1590 C   0  0  0  0  0  0  0  0  0  0  0  0
   32.9050   30.5630   48.2800 H   0  0  0  0  0  0  0  0  0  0  0  0
   33.7490   30.8480   49.8870 H   0  0  0  0  0  0  0  0  0  0  0  0
   32.6890   29.4490   49.7560 H   0  0  0  0  0  0  0  0  0  0  0  0
   34.1390   28.3310   47.5670 C   0  0  0  0  0  0  0  0  0  0  0  0
   34.9790   27.6270   47.4110 H   0  0  0  0  0  0  0  0  0  0  0  0
   33.2860   27.6980   47.9050 H   0  0  0  0  0  0  0  0  0  0  0  0
   32.5490   29.6670   46.2670 C   0  0  0  0  0  3  0  0  0  0  0  0
   33.8150   29.0840   46.3320 C   0  0  0  0  0  0  0  0  0  0  0  0
   34.6680   29.2460   45.2610 C   0  0  0  0  0  0  0  0  0  0  0  0
   35.6310   28.7950   45.3260 H   0  0  0  0  0  0  0  0  0  0  0  0
   34.2270   29.9760   44.1770 C   0  0  0  0  0  0  0  0  0  0  0  0
   32.9840   30.5670   44.0760 C   0  0  0  0  0  0  0  0  0  0  0  0
   32.1450   30.3960   45.1520 C   0  0  0  0  0  3  0  0  0  0  0  0
   32.9590   31.1960   42.8310 O   0  0  0  0  0  0  0  0  0  0  0  0
   34.2960   31.3780   42.3500 C   0  0  0  0  0  3  0  0  0  0  0  0
   34.7860   32.2680   42.8300 H   0  0  0  0  0  0  0  0  0  0  0  0
   34.9240   30.2610   42.9940 O   0  0  0  0  0  0  0  0  0  0  0  0
   37.8440   31.8530   49.6530 C   0  0  0  0  0  0  0  0  0  0  0  0
   36.8910   32.3580   50.3140 O   0  0  0  0  0  0  0  0  0  0  0  0
   38.6650   32.6210   48.7530 C   0  0  0  0  0  0  0  0  0  0  0  0
   39.1700   33.8270   49.2120 C   0  0  0  0  0  0  0  0  0  0  0  0
   39.9720   34.5870   48.3320 C   0  0  0  0  0  0  0  0  0  0  0  0
   40.2010   34.0840   47.0820 N   0  0  0  0  0  0  0  0  0  0  0  0
   39.6980   32.9210   46.6760 C   0  0  0  0  0  0  0  0  0  0  0  0
   38.9300   32.1870   47.5090 N   0  0  0  0  0  0  0  0  0  0  0  0
   39.0170   34.2600   50.1800 H   0  0  0  0  0  0  0  0  0  0  0  0
   40.3870   35.5220   48.6320 H   0  0  0  0  0  0  0  0  0  0  0  0
   39.8650   32.5000   45.6880 H   0  0  0  0  0  0  0  0  0  0  0  0
  1 17  1  6  0  0  0
  1 13  1  0  0  0  0
  1  2  1  0  0  0  0
  2  3  1  0  0  0  0
  2  9  1  0  0  0  0
  3  4  1  0  0  0  0
  4  5  2  0  0  0  0
  6 11  1  6  0  0  0
  6  4  1  0  0  0  0
  7 12  1  6  0  0  0
  7  6  1  0  0  0  0
  7  3  1  0  0  0  0
  8  1  1  0  0  0  0
  8  7  1  0  0  0  0
 10  2  1  0  0  0  0
 13 16  1  0  0  0  0
 13 15  1  0  0  0  0
 14 13  1  0  0  0  0
 17 19  1  0  0  0  0
 18 17  1  0  0  0  0
 20 21  1  0  0  0  0
 21 17  1  0  0  0  0
 22 23  1  0  0  0  0
 22 21  2  0  0  0  0
 24 22  1  0  0  0  0
 25 24  2  0  0  0  0
 25 26  1  0  0  0  0
 26 20  2  0  0  0  0
 27 25  1  0  0  0  0
 28 29  1  0  0  0  0
 28 27  1  0  0  0  0
 28 30  1  0  0  0  0
 30 24  1  0  0  0  0
 31  6  1  0  0  0  0
 31 32  2  0  0  0  0
 33 34  1  0  0  0  0
 33 31  1  0  0  0  0
 34 39  1  0  0  0  0
 35 40  1  0  0  0  0
 35 34  2  0  0  0  0
 36 35  1  0  0  0  0
 37 36  2  0  0  0  0
 37 38  1  0  0  0  0
 38 33  2  0  0  0  0
 41 37  1  0  0  0  0
M  END
>  <minimizedAffinity>
-5.23357153

>  <minimizedRMSD>
0.736910164

$$$$
