
 OpenBabel03262522033D

 41 45  0  0  1  0  0  0  0  0999 V2000
   34.4480   29.2390   48.8820 C   0  0  2  0  0  0  0  0  0  0  0  0
   35.1450   28.4560   49.9430 C   0  0  0  0  0  0  0  0  0  0  0  0
   36.3440   29.1770   50.3480 N   0  0  0  0  0  0  0  0  0  0  0  0
   37.3670   29.8530   51.0950 C   0  0  0  0  0  0  0  0  0  0  0  0
   37.6800   30.0010   52.2930 O   0  0  0  0  0  0  0  0  0  0  0  0
   38.0230   30.3880   49.9050 C   0  0  1  0  0  0  0  0  0  0  0  0
   37.1240   29.4340   49.1630 C   0  0  2  0  0  0  0  0  0  0  0  0
   35.8230   30.2210   48.1600 S   0  0  0  0  0  0  0  0  0  0  0  0
   34.4980   28.3440   50.8430 H   0  0  0  0  0  0  0  0  0  0  0  0
   35.4440   27.4760   49.5440 H   0  0  0  0  0  0  0  0  0  0  0  0
   39.0800   30.1110   49.7390 H   0  0  0  0  0  0  0  0  0  0  0  0
   37.6060   28.5670   48.6990 H   0  0  0  0  0  0  0  0  0  0  0  0
   33.3000   30.0780   49.3370 C   0  0  0  0  0  0  0  0  0  0  0  0
   32.8350   30.5350   48.4640 H   0  0  0  0  0  0  0  0  0  0  0  0
   33.7340   30.8450   50.0370 H   0  0  0  0  0  0  0  0  0  0  0  0
   32.6640   29.4490   49.9670 H   0  0  0  0  0  0  0  0  0  0  0  0
   34.0340   28.2850   47.7510 C   0  0  0  0  0  0  0  0  0  0  0  0
   34.9060   28.1460   47.0820 H   0  0  0  0  0  0  0  0  0  0  0  0
   33.8520   27.2840   48.2060 H   0  0  0  0  0  0  0  0  0  0  0  0
   31.6430   28.1190   47.2420 C   0  0  0  0  0  3  0  0  0  0  0  0
   32.8490   28.7820   47.0140 C   0  0  0  0  0  0  0  0  0  0  0  0
   32.8570   29.8420   46.1320 C   0  0  0  0  0  0  0  0  0  0  0  0
   33.7840   30.3390   45.9690 H   0  0  0  0  0  0  0  0  0  0  0  0
   31.6720   30.1940   45.5180 C   0  0  0  0  0  0  0  0  0  0  0  0
   30.4620   29.5620   45.7190 C   0  0  0  0  0  0  0  0  0  0  0  0
   30.4700   28.5080   46.6010 C   0  0  0  0  0  3  0  0  0  0  0  0
   29.5410   30.2320   44.9110 O   0  0  0  0  0  0  0  0  0  0  0  0
   30.0550   31.5210   44.5570 C   0  0  0  0  0  3  0  0  0  0  0  0
   29.9150   32.2620   45.3900 H   0  0  0  0  0  0  0  0  0  0  0  0
   31.4580   31.2280   44.5980 O   0  0  0  0  0  0  0  0  0  0  0  0
   37.8230   31.8250   49.6480 C   0  0  0  0  0  0  0  0  0  0  0  0
   36.8690   32.3380   50.3010 O   0  0  0  0  0  0  0  0  0  0  0  0
   38.6440   32.5820   48.7380 C   0  0  0  0  0  0  0  0  0  0  0  0
   39.1560   33.7890   49.1850 C   0  0  0  0  0  0  0  0  0  0  0  0
   39.9580   34.5380   48.2950 C   0  0  0  0  0  0  0  0  0  0  0  0
   40.1800   34.0240   47.0500 N   0  0  0  0  0  0  0  0  0  0  0  0
   39.6710   32.8590   46.6550 C   0  0  0  0  0  0  0  0  0  0  0  0
   38.9030   32.1360   47.4970 N   0  0  0  0  0  0  0  0  0  0  0  0
   39.0090   34.2300   50.1500 H   0  0  0  0  0  0  0  0  0  0  0  0
   40.3790   35.4730   48.5870 H   0  0  0  0  0  0  0  0  0  0  0  0
   39.8320   32.4300   45.6700 H   0  0  0  0  0  0  0  0  0  0  0  0
  1 17  1  6  0  0  0
  1 13  1  0  0  0  0
  1  2  1  0  0  0  0
  2  3  1  0  0  0  0
  2  9  1  0  0  0  0
  3  4  1  0  0  0  0
  4  5  2  0  0  0  0
  6 11  1  6  0  0  0
  6  4  1  0  0  0  0
  7 12  1  6  0  0  0
  7  6  1  0  0  0  0
  7  3  1  0  0  0  0
  8  1  1  0  0  0  0
  8  7  1  0  0  0  0
 10  2  1  0  0  0  0
 13 16  1  0  0  0  0
 13 15  1  0  0  0  0
 14 13  1  0  0  0  0
 17 19  1  0  0  0  0
 18 17  1  0  0  0  0
 21 20  1  0  0  0  0
 21 17  1  0  0  0  0
 22 21  2  0  0  0  0
 23 22  1  0  0  0  0
 24 25  2  0  0  0  0
 24 22  1  0  0  0  0
 25 26  1  0  0  0  0
 26 20  2  0  0  0  0
 27 25  1  0  0  0  0
 28 30  1  0  0  0  0
 28 27  1  0  0  0  0
 28 29  1  0  0  0  0
 30 24  1  0  0  0  0
 31  6  1  0  0  0  0
 31 32  2  0  0  0  0
 33 34  1  0  0  0  0
 33 31  1  0  0  0  0
 34 39  1  0  0  0  0
 35 40  1  0  0  0  0
 35 34  2  0  0  0  0
 36 35  1  0  0  0  0
 37 36  2  0  0  0  0
 37 38  1  0  0  0  0
 38 33  2  0  0  0  0
 41 37  1  0  0  0  0
M  END
>  <minimizedAffinity>
-5.38665104

>  <minimizedRMSD>
1.18232763

$$$$
