
 OpenBabel03262522033D

 41 45  0  0  1  0  0  0  0  0999 V2000
   34.5070   29.2840   48.6760 C   0  0  2  0  0  0  0  0  0  0  0  0
   35.1600   28.4760   49.7460 C   0  0  0  0  0  0  0  0  0  0  0  0
   36.3410   29.1860   50.2160 N   0  0  0  0  0  0  0  0  0  0  0  0
   37.3320   29.8430   51.0200 C   0  0  0  0  0  0  0  0  0  0  0  0
   37.5960   29.9630   52.2340 O   0  0  0  0  0  0  0  0  0  0  0  0
   38.0370   30.4050   49.8720 C   0  0  1  0  0  0  0  0  0  0  0  0
   37.1690   29.4700   49.0710 C   0  0  2  0  0  0  0  0  0  0  0  0
   35.9100   30.2810   48.0340 S   0  0  0  0  0  0  0  0  0  0  0  0
   34.4760   28.3430   50.6150 H   0  0  0  0  0  0  0  0  0  0  0  0
   35.4750   27.5050   49.3360 H   0  0  0  0  0  0  0  0  0  0  0  0
   39.0990   30.1310   49.7420 H   0  0  0  0  0  0  0  0  0  0  0  0
   37.6700   28.6130   48.6070 H   0  0  0  0  0  0  0  0  0  0  0  0
   33.3400   30.1130   49.1020 C   0  0  0  0  0  0  0  0  0  0  0  0
   32.9120   30.5910   48.2220 H   0  0  0  0  0  0  0  0  0  0  0  0
   33.7460   30.8630   49.8380 H   0  0  0  0  0  0  0  0  0  0  0  0
   32.6800   29.4700   49.6910 H   0  0  0  0  0  0  0  0  0  0  0  0
   34.1400   28.3560   47.5060 C   0  0  0  0  0  0  0  0  0  0  0  0
   34.9760   27.6460   47.3560 H   0  0  0  0  0  0  0  0  0  0  0  0
   33.2780   27.7300   47.8330 H   0  0  0  0  0  0  0  0  0  0  0  0
   34.5910   28.8100   45.1410 C   0  0  0  0  0  3  0  0  0  0  0  0
   33.8350   29.1170   46.2720 C   0  0  0  0  0  0  0  0  0  0  0  0
   32.8680   30.0960   46.1690 C   0  0  0  0  0  0  0  0  0  0  0  0
   32.3000   30.3200   47.0400 H   0  0  0  0  0  0  0  0  0  0  0  0
   32.6960   30.7210   44.9500 C   0  0  0  0  0  0  0  0  0  0  0  0
   33.4230   30.4430   43.8120 C   0  0  0  0  0  0  0  0  0  0  0  0
   34.3830   29.4660   43.9310 C   0  0  0  0  0  3  0  0  0  0  0  0
   32.9280   31.2950   42.8230 O   0  0  0  0  0  0  0  0  0  0  0  0
   31.6340   31.7780   43.2020 C   0  0  0  0  0  3  0  0  0  0  0  0
   30.8340   31.0170   42.9950 H   0  0  0  0  0  0  0  0  0  0  0  0
   31.7800   31.7320   44.6280 O   0  0  0  0  0  0  0  0  0  0  0  0
   37.8470   31.8480   49.6400 C   0  0  0  0  0  0  0  0  0  0  0  0
   36.9020   32.3580   50.3090 O   0  0  0  0  0  0  0  0  0  0  0  0
   38.6680   32.6140   48.7370 C   0  0  0  0  0  0  0  0  0  0  0  0
   39.1710   33.8220   49.1920 C   0  0  0  0  0  0  0  0  0  0  0  0
   39.9730   34.5790   48.3090 C   0  0  0  0  0  0  0  0  0  0  0  0
   40.2040   34.0710   47.0620 N   0  0  0  0  0  0  0  0  0  0  0  0
   39.7040   32.9050   46.6610 C   0  0  0  0  0  0  0  0  0  0  0  0
   38.9360   32.1740   47.4960 N   0  0  0  0  0  0  0  0  0  0  0  0
   39.0160   34.2590   50.1580 H   0  0  0  0  0  0  0  0  0  0  0  0
   40.3860   35.5160   48.6060 H   0  0  0  0  0  0  0  0  0  0  0  0
   39.8740   32.4810   45.6750 H   0  0  0  0  0  0  0  0  0  0  0  0
  1 17  1  6  0  0  0
  1 13  1  0  0  0  0
  1  2  1  0  0  0  0
  2  3  1  0  0  0  0
  2  9  1  0  0  0  0
  3  4  1  0  0  0  0
  4  5  2  0  0  0  0
  6 11  1  6  0  0  0
  6  4  1  0  0  0  0
  7 12  1  6  0  0  0
  7  6  1  0  0  0  0
  7  3  1  0  0  0  0
  8  1  1  0  0  0  0
  8  7  1  0  0  0  0
 10  2  1  0  0  0  0
 13 16  1  0  0  0  0
 13 15  1  0  0  0  0
 14 13  1  0  0  0  0
 17 19  1  0  0  0  0
 18 17  1  0  0  0  0
 20 21  1  0  0  0  0
 21 17  1  0  0  0  0
 22 21  2  0  0  0  0
 22 23  1  0  0  0  0
 24 22  1  0  0  0  0
 25 26  1  0  0  0  0
 25 24  2  0  0  0  0
 26 20  2  0  0  0  0
 27 28  1  0  0  0  0
 27 25  1  0  0  0  0
 28 30  1  0  0  0  0
 29 28  1  0  0  0  0
 30 24  1  0  0  0  0
 31  6  1  0  0  0  0
 31 32  2  0  0  0  0
 33 34  1  0  0  0  0
 33 31  1  0  0  0  0
 34 39  1  0  0  0  0
 35 40  1  0  0  0  0
 35 34  2  0  0  0  0
 36 35  1  0  0  0  0
 37 36  2  0  0  0  0
 37 38  1  0  0  0  0
 38 33  2  0  0  0  0
 41 37  1  0  0  0  0
M  END
>  <minimizedAffinity>
-5.30386972

>  <minimizedRMSD>
0.641338885

$$$$
