
 OpenBabel03262522033D

 41 45  0  0  1  0  0  0  0  0999 V2000
   34.4430   29.2290   48.9010 C   0  0  2  0  0  0  0  0  0  0  0  0
   35.1440   28.4490   49.9620 C   0  0  0  0  0  0  0  0  0  0  0  0
   36.3430   29.1720   50.3600 N   0  0  0  0  0  0  0  0  0  0  0  0
   37.3680   29.8510   51.1010 C   0  0  0  0  0  0  0  0  0  0  0  0
   37.6860   30.0030   52.2980 O   0  0  0  0  0  0  0  0  0  0  0  0
   38.0200   30.3840   49.9080 C   0  0  1  0  0  0  0  0  0  0  0  0
   37.1190   29.4270   49.1720 C   0  0  2  0  0  0  0  0  0  0  0  0
   35.8130   30.2100   48.1710 S   0  0  0  0  0  0  0  0  0  0  0  0
   34.5000   28.3390   50.8630 H   0  0  0  0  0  0  0  0  0  0  0  0
   35.4430   27.4680   49.5640 H   0  0  0  0  0  0  0  0  0  0  0  0
   39.0760   30.1070   49.7390 H   0  0  0  0  0  0  0  0  0  0  0  0
   37.6010   28.5590   48.7080 H   0  0  0  0  0  0  0  0  0  0  0  0
   33.2940   30.0680   49.3570 C   0  0  0  0  0  0  0  0  0  0  0  0
   32.8270   30.5220   48.4850 H   0  0  0  0  0  0  0  0  0  0  0  0
   33.7310   30.8370   50.0540 H   0  0  0  0  0  0  0  0  0  0  0  0
   32.6620   29.4400   49.9910 H   0  0  0  0  0  0  0  0  0  0  0  0
   34.0260   28.2700   47.7730 C   0  0  0  0  0  0  0  0  0  0  0  0
   34.8970   28.1260   47.1050 H   0  0  0  0  0  0  0  0  0  0  0  0
   33.8410   27.2720   48.2330 H   0  0  0  0  0  0  0  0  0  0  0  0
   31.6350   28.1080   47.2640 C   0  0  0  0  0  3  0  0  0  0  0  0
   32.8410   28.7680   47.0350 C   0  0  0  0  0  0  0  0  0  0  0  0
   32.8530   29.8260   46.1490 C   0  0  0  0  0  0  0  0  0  0  0  0
   33.7820   30.3200   45.9850 H   0  0  0  0  0  0  0  0  0  0  0  0
   31.6690   30.1780   45.5330 C   0  0  0  0  0  0  0  0  0  0  0  0
   30.4580   29.5490   45.7360 C   0  0  0  0  0  0  0  0  0  0  0  0
   30.4630   28.4980   46.6210 C   0  0  0  0  0  3  0  0  0  0  0  0
   29.5390   30.2190   44.9250 O   0  0  0  0  0  0  0  0  0  0  0  0
   30.0560   31.5060   44.5670 C   0  0  0  0  0  3  0  0  0  0  0  0
   29.9180   32.2500   45.3970 H   0  0  0  0  0  0  0  0  0  0  0  0
   31.4580   31.2100   44.6090 O   0  0  0  0  0  0  0  0  0  0  0  0
   37.8170   31.8200   49.6480 C   0  0  0  0  0  0  0  0  0  0  0  0
   36.8610   32.3320   50.2980 O   0  0  0  0  0  0  0  0  0  0  0  0
   38.6380   32.5770   48.7380 C   0  0  0  0  0  0  0  0  0  0  0  0
   39.1510   33.7840   49.1860 C   0  0  0  0  0  0  0  0  0  0  0  0
   39.9530   34.5320   48.2960 C   0  0  0  0  0  0  0  0  0  0  0  0
   40.1750   34.0190   47.0500 N   0  0  0  0  0  0  0  0  0  0  0  0
   39.6660   32.8540   46.6560 C   0  0  0  0  0  0  0  0  0  0  0  0
   38.8970   32.1310   47.4970 N   0  0  0  0  0  0  0  0  0  0  0  0
   39.0040   34.2250   50.1510 H   0  0  0  0  0  0  0  0  0  0  0  0
   40.3740   35.4680   48.5880 H   0  0  0  0  0  0  0  0  0  0  0  0
   39.8280   32.4250   45.6710 H   0  0  0  0  0  0  0  0  0  0  0  0
  1 17  1  6  0  0  0
  1 13  1  0  0  0  0
  1  2  1  0  0  0  0
  2  3  1  0  0  0  0
  2  9  1  0  0  0  0
  3  4  1  0  0  0  0
  4  5  2  0  0  0  0
  6 11  1  6  0  0  0
  6  4  1  0  0  0  0
  7 12  1  6  0  0  0
  7  6  1  0  0  0  0
  7  3  1  0  0  0  0
  8  1  1  0  0  0  0
  8  7  1  0  0  0  0
 10  2  1  0  0  0  0
 13 16  1  0  0  0  0
 13 15  1  0  0  0  0
 14 13  1  0  0  0  0
 17 19  1  0  0  0  0
 18 17  1  0  0  0  0
 21 20  1  0  0  0  0
 21 17  1  0  0  0  0
 22 21  2  0  0  0  0
 23 22  1  0  0  0  0
 24 25  2  0  0  0  0
 24 22  1  0  0  0  0
 25 26  1  0  0  0  0
 26 20  2  0  0  0  0
 27 25  1  0  0  0  0
 28 30  1  0  0  0  0
 28 27  1  0  0  0  0
 28 29  1  0  0  0  0
 30 24  1  0  0  0  0
 31  6  1  0  0  0  0
 31 32  2  0  0  0  0
 33 34  1  0  0  0  0
 33 31  1  0  0  0  0
 34 39  1  0  0  0  0
 35 40  1  0  0  0  0
 35 34  2  0  0  0  0
 36 35  1  0  0  0  0
 37 36  2  0  0  0  0
 37 38  1  0  0  0  0
 38 33  2  0  0  0  0
 41 37  1  0  0  0  0
M  END
>  <minimizedAffinity>
-5.38988733

>  <minimizedRMSD>
1.15767705

$$$$
