
 OpenBabel03272505083D

 31 34  0  0  0  0  0  0  0  0999 V2000
   36.2630   30.8350   45.6060 Cl  0  0  0  0  0  0  0  0  0  0  0  0
   36.5350   30.5330   47.2990 C   0  0  0  0  0  0  0  0  0  0  0  0
   37.7950   30.8080   47.7810 C   0  0  0  0  0  0  0  0  0  0  0  0
   38.0300   30.5720   49.1310 C   0  0  0  0  0  0  0  0  0  0  0  0
   37.0240   30.0830   49.9270 C   0  0  0  0  0  0  0  0  0  0  0  0
   35.7930   29.8310   49.3720 C   0  0  0  0  0  0  0  0  0  0  0  0
   35.4880   30.0420   48.0420 C   0  0  0  0  0  0  0  0  0  0  0  0
   39.0140   30.7810   49.5410 H   0  0  0  0  0  0  0  0  0  0  0  0
   37.2110   29.9000   50.9770 H   0  0  0  0  0  0  0  0  0  0  0  0
   35.0080   29.4410   50.0260 H   0  0  0  0  0  0  0  0  0  0  0  0
   40.0620   33.2030   46.2150 C   0  0  0  0  0  0  0  0  0  0  0  0
   40.7890   32.4320   45.2830 C   0  0  0  0  0  0  0  0  0  0  0  0
   40.4710   31.0720   45.2150 C   0  0  0  0  0  0  0  0  0  0  0  0
   39.5010   30.5770   46.0340 N   0  0  0  0  0  0  0  0  0  0  0  0
   38.8390   31.3310   46.8970 C   0  0  0  0  0  0  0  0  0  0  0  0
   39.1360   32.6430   46.9720 N   0  0  0  0  0  0  0  0  0  0  0  0
   40.2760   34.2600   46.3000 H   0  0  0  0  0  0  0  0  0  0  0  0
   41.5350   32.9150   44.6810 H   0  0  0  0  0  0  0  0  0  0  0  0
   41.0120   30.4570   44.5110 H   0  0  0  0  0  0  0  0  0  0  0  0
   33.9030   29.7200   47.3230 S   0  0  0  0  0  0  0  0  0  0  0  0
   32.1450   27.8570   47.9900 C   0  0  0  0  0  3  0  0  0  0  0  0
   33.4160   28.0110   47.4280 C   0  0  0  0  0  0  0  0  0  0  0  0
   34.1140   26.8850   47.0390 C   0  0  0  0  0  0  0  0  0  0  0  0
   35.0670   27.1130   46.6250 H   0  0  0  0  0  0  0  0  0  0  0  0
   33.5300   25.6470   47.2190 C   0  0  0  0  0  0  0  0  0  0  0  0
   32.2810   25.4710   47.7690 C   0  0  0  0  0  0  0  0  0  0  0  0
   31.5870   26.5990   48.1580 C   0  0  0  0  0  3  0  0  0  0  0  0
   32.0450   24.1040   47.7850 O   0  0  0  0  0  0  0  0  0  0  0  0
   33.2530   23.4190   47.5540 C   0  0  0  0  0  3  0  0  0  0  0  0
   33.7010   23.1380   48.5270 H   0  0  0  0  0  0  0  0  0  0  0  0
   34.0390   24.4050   46.9080 O   0  0  0  0  0  0  0  0  0  0  0  0
  1  2  1  0  0  0  0
  2  3  2  0  0  0  0
  2  7  1  0  0  0  0
  3  4  1  0  0  0  0
  4  8  1  0  0  0  0
  4  5  2  0  0  0  0
  5  9  1  0  0  0  0
  6  5  1  0  0  0  0
  6 10  1  0  0  0  0
  7  6  2  0  0  0  0
 11 17  1  0  0  0  0
 11 16  1  0  0  0  0
 12 11  2  0  0  0  0
 13 12  1  0  0  0  0
 13 14  2  0  0  0  0
 14 15  1  0  0  0  0
 15 16  2  0  0  0  0
 15  3  1  0  0  0  0
 18 12  1  0  0  0  0
 19 13  1  0  0  0  0
 20 22  1  0  0  0  0
 20  7  1  0  0  0  0
 21 27  1  0  0  0  0
 22 21  2  0  0  0  0
 23 25  2  0  0  0  0
 23 22  1  0  0  0  0
 24 23  1  0  0  0  0
 25 26  1  0  0  0  0
 26 28  1  0  0  0  0
 26 27  2  0  0  0  0
 29 28  1  0  0  0  0
 29 30  1  0  0  0  0
 31 25  1  0  0  0  0
 31 29  1  0  0  0  0
M  END
>  <minimizedAffinity>
-5.80244827

>  <minimizedRMSD>
1.37016296

$$$$
