
 OpenBabel03272501563D

 33 36  0  0  0  0  0  0  0  0999 V2000
   32.9350   28.2280   47.8500 C   0  0  0  0  0  0  0  0  0  0  0  0
   32.0280   27.4980   48.5970 C   0  0  0  0  0  0  0  0  0  0  0  0
   30.7460   27.7260   48.1090 C   0  0  0  0  0  0  0  0  0  0  0  0
   30.9190   28.5960   47.0690 N   0  0  0  0  0  0  0  0  0  0  0  0
   32.2090   28.8780   46.9360 N   0  0  0  0  0  0  0  0  0  0  0  0
   32.2830   26.8560   49.4260 H   0  0  0  0  0  0  0  0  0  0  0  0
   29.8560   27.2710   48.5200 H   0  0  0  0  0  0  0  0  0  0  0  0
   28.6330   29.2500   47.1380 C   0  0  0  0  0  3  0  0  0  0  0  0
   29.7530   29.0130   46.3670 C   0  0  0  0  0  0  0  0  0  0  0  0
   29.6980   29.1830   44.9980 C   0  0  0  0  0  0  0  0  0  0  0  0
   30.5960   28.9880   44.4230 H   0  0  0  0  0  0  0  0  0  0  0  0
   28.5280   29.5910   44.3820 C   0  0  0  0  0  0  0  0  0  0  0  0
   27.3760   29.8410   45.1310 C   0  0  0  0  0  0  0  0  0  0  0  0
   27.4640   29.6590   46.5140 C   0  0  0  0  0  3  0  0  0  0  0  0
   26.3380   30.2370   44.2840 O   0  0  0  0  0  0  0  0  0  0  0  0
   27.0020   30.6070   43.0670 C   0  0  0  0  0  3  0  0  0  0  0  0
   26.3240   30.3870   42.2250 H   0  0  0  0  0  0  0  0  0  0  0  0
   28.1890   29.8380   43.0560 O   0  0  0  0  0  0  0  0  0  0  0  0
   34.4190   28.2870   48.0210 C   0  0  0  0  0  0  0  0  0  0  0  0
   34.9180   27.4450   47.5020 H   0  0  0  0  0  0  0  0  0  0  0  0
   34.7410   29.2680   47.6330 H   0  0  0  0  0  0  0  0  0  0  0  0
   34.6670   28.2730   49.5090 C   0  0  0  0  0  0  0  0  0  0  0  0
   34.8590   27.2450   49.8620 H   0  0  0  0  0  0  0  0  0  0  0  0
   33.8140   28.7460   50.0400 H   0  0  0  0  0  0  0  0  0  0  0  0
   37.2590   30.1730   51.3610 C   0  0  0  0  0  0  0  0  0  0  0  0
   38.0480   30.6870   50.3110 C   0  0  0  0  0  0  0  0  0  0  0  0
   37.6810   30.3750   49.0000 C   0  0  0  0  0  0  0  0  0  0  0  0
   36.5920   29.6000   48.7900 N   0  0  0  0  0  0  0  0  0  0  0  0
   35.8610   29.1270   49.8280 C   0  0  0  0  0  0  0  0  0  0  0  0
   36.1950   29.4130   51.0750 N   0  0  0  0  0  0  0  0  0  0  0  0
   37.4410   30.3450   52.4140 H   0  0  0  0  0  0  0  0  0  0  0  0
   38.8980   31.2960   50.5910 H   0  0  0  0  0  0  0  0  0  0  0  0
   38.2920   30.7740   48.2000 H   0  0  0  0  0  0  0  0  0  0  0  0
  1 19  1  0  0  0  0
  1  2  1  0  0  0  0
  2  6  1  0  0  0  0
  3  7  1  0  0  0  0
  3  2  2  0  0  0  0
  4  3  1  0  0  0  0
  5  4  1  0  0  0  0
  5  1  2  0  0  0  0
  9  4  1  0  0  0  0
  9  8  2  0  0  0  0
 10  9  1  0  0  0  0
 11 10  1  0  0  0  0
 12 10  2  0  0  0  0
 12 13  1  0  0  0  0
 13 14  2  0  0  0  0
 14  8  1  0  0  0  0
 15 13  1  0  0  0  0
 16 15  1  0  0  0  0
 17 16  1  0  0  0  0
 18 16  1  0  0  0  0
 18 12  1  0  0  0  0
 19 22  1  0  0  0  0
 20 19  1  0  0  0  0
 21 19  1  0  0  0  0
 22 29  1  0  0  0  0
 22 23  1  0  0  0  0
 22 24  1  0  0  0  0
 25 31  1  0  0  0  0
 26 32  1  0  0  0  0
 26 25  2  0  0  0  0
 27 26  1  0  0  0  0
 28 27  2  0  0  0  0
 28 29  1  0  0  0  0
 29 30  2  0  0  0  0
 30 25  1  0  0  0  0
 33 27  1  0  0  0  0
M  END
>  <minimizedAffinity>
-5.23588324

>  <minimizedRMSD>
0.180896312

$$$$
