
 OpenBabel03272508013D

 30 33  0  0  0  0  0  0  0  0999 V2000
   38.0140   30.6730   42.1460 C   0  0  0  0  0  0  0  0  0  0  0  0
   37.3530   31.8690   42.1780 C   0  0  0  0  0  0  0  0  0  0  0  0
   37.1640   32.2700   43.5100 C   0  0  0  0  0  0  0  0  0  0  0  0
   37.7370   31.2600   44.2410 N   0  0  0  0  0  0  0  0  0  0  0  0
   38.2230   30.3450   43.4350 N   0  0  0  0  0  0  0  0  0  0  0  0
   37.0370   32.4060   41.2760 H   0  0  0  0  0  0  0  0  0  0  0  0
   36.6690   33.1760   43.7570 H   0  0  0  0  0  0  0  0  0  0  0  0
   36.9000   30.6300   46.5110 C   0  0  0  0  0  3  0  0  0  0  0  0
   37.7080   31.3710   45.6600 C   0  0  0  0  0  0  0  0  0  0  0  0
   38.5930   32.3230   46.1750 C   0  0  0  0  0  0  0  0  0  0  0  0
   39.2450   32.9270   45.5580 H   0  0  0  0  0  0  0  0  0  0  0  0
   38.6480   32.5120   47.5500 C   0  0  0  0  0  0  0  0  0  0  0  0
   37.8270   31.7600   48.3960 C   0  0  0  0  0  0  0  0  0  0  0  0
   36.9560   30.8220   47.8790 C   0  0  0  0  0  3  0  0  0  0  0  0
   38.1430   32.2090   49.6850 O   0  0  0  0  0  0  0  0  0  0  0  0
   38.6920   33.5310   49.5820 C   0  0  0  0  0  3  0  0  0  0  0  0
   39.3240   33.7880   50.4290 H   0  0  0  0  0  0  0  0  0  0  0  0
   39.4140   33.3730   48.3520 O   0  0  0  0  0  0  0  0  0  0  0  0
   38.4160   29.8950   40.9690 C   0  0  0  0  0  0  0  0  0  0  0  0
   38.8520   28.5670   41.1820 C   0  0  0  0  0  0  0  0  0  0  0  0
   39.2380   27.8200   40.0600 C   0  0  0  0  0  0  0  0  0  0  0  0
   39.1660   28.4260   38.8490 N   0  0  0  0  0  0  0  0  0  0  0  0
   38.7460   29.6910   38.6800 C   0  0  0  0  0  0  0  0  0  0  0  0
   38.3760   30.4100   39.7520 N   0  0  0  0  0  0  0  0  0  0  0  0
   38.8950   28.1200   42.1680 H   0  0  0  0  0  0  0  0  0  0  0  0
   38.7290   30.0760   37.6640 H   0  0  0  0  0  0  0  0  0  0  0  0
   39.6980   26.4270   40.2600 C   0  0  0  0  0  0  0  0  0  0  0  0
   38.7990   25.6270   39.5900 F   0  0  0  0  0  0  0  0  0  0  0  0
   40.9640   26.2080   39.7270 F   0  0  0  0  0  0  0  0  0  0  0  0
   39.6840   26.0560   41.5890 F   0  0  0  0  0  0  0  0  0  0  0  0
  1  2  1  0  0  0  0
  1  5  2  0  0  0  0
  2  3  2  0  0  0  0
  3  7  1  0  0  0  0
  3  4  1  0  0  0  0
  4  9  1  0  0  0  0
  5  4  1  0  0  0  0
  6  2  1  0  0  0  0
  8 14  1  0  0  0  0
  9 10  1  0  0  0  0
  9  8  2  0  0  0  0
 10 12  2  0  0  0  0
 11 10  1  0  0  0  0
 12 18  1  0  0  0  0
 12 13  1  0  0  0  0
 13 15  1  0  0  0  0
 14 13  2  0  0  0  0
 16 15  1  0  0  0  0
 16 17  1  0  0  0  0
 18 16  1  0  0  0  0
 19 20  1  0  0  0  0
 19  1  1  0  0  0  0
 20 25  1  0  0  0  0
 21 27  1  0  0  0  0
 21 20  2  0  0  0  0
 22 21  1  0  0  0  0
 23 22  2  0  0  0  0
 23 24  1  0  0  0  0
 24 19  2  0  0  0  0
 26 23  1  0  0  0  0
 27 30  1  0  0  0  0
 28 27  1  0  0  0  0
 29 27  1  0  0  0  0
M  END
>  <minimizedAffinity>
-4.58284855

>  <minimizedRMSD>
8.51958275

$$$$
