
 OpenBabel03272508013D

 30 33  0  0  0  0  0  0  0  0999 V2000
   37.9230   31.0370   45.2860 C   0  0  0  0  0  0  0  0  0  0  0  0
   38.4230   32.2120   44.7980 C   0  0  0  0  0  0  0  0  0  0  0  0
   39.2020   31.9570   43.6580 C   0  0  0  0  0  0  0  0  0  0  0  0
   39.1320   30.5950   43.5100 N   0  0  0  0  0  0  0  0  0  0  0  0
   38.3870   30.0800   44.4610 N   0  0  0  0  0  0  0  0  0  0  0  0
   38.2230   33.1880   45.2560 H   0  0  0  0  0  0  0  0  0  0  0  0
   39.6850   32.7370   43.1240 H   0  0  0  0  0  0  0  0  0  0  0  0
   40.6860   30.6850   41.5540 C   0  0  0  0  0  3  0  0  0  0  0  0
   39.8340   30.0100   42.4180 C   0  0  0  0  0  0  0  0  0  0  0  0
   39.6020   28.6420   42.2570 C   0  0  0  0  0  0  0  0  0  0  0  0
   38.9480   28.0680   42.9000 H   0  0  0  0  0  0  0  0  0  0  0  0
   40.2370   27.9720   41.2200 C   0  0  0  0  0  0  0  0  0  0  0  0
   41.0940   28.6630   40.3570 C   0  0  0  0  0  0  0  0  0  0  0  0
   41.3180   30.0140   40.5240 C   0  0  0  0  0  3  0  0  0  0  0  0
   41.5460   27.6910   39.4560 O   0  0  0  0  0  0  0  0  0  0  0  0
   40.5890   26.6220   39.4250 C   0  0  0  0  0  3  0  0  0  0  0  0
   41.0250   25.6800   39.0980 H   0  0  0  0  0  0  0  0  0  0  0  0
   40.2080   26.6300   40.8090 O   0  0  0  0  0  0  0  0  0  0  0  0
   37.0620   30.8410   46.4570 C   0  0  0  0  0  0  0  0  0  0  0  0
   37.5500   31.2880   47.7070 C   0  0  0  0  0  0  0  0  0  0  0  0
   36.7310   31.1030   48.8300 C   0  0  0  0  0  0  0  0  0  0  0  0
   35.5280   30.5060   48.6370 N   0  0  0  0  0  0  0  0  0  0  0  0
   35.0940   30.0930   47.4340 C   0  0  0  0  0  0  0  0  0  0  0  0
   35.8750   30.2690   46.3570 N   0  0  0  0  0  0  0  0  0  0  0  0
   38.5180   31.7600   47.8180 H   0  0  0  0  0  0  0  0  0  0  0  0
   34.1120   29.6270   47.3960 H   0  0  0  0  0  0  0  0  0  0  0  0
   37.2210   31.5630   50.1490 C   0  0  0  0  0  0  0  0  0  0  0  0
   36.6180   32.7790   50.3790 F   0  0  0  0  0  0  0  0  0  0  0  0
   36.8670   30.6950   51.1760 F   0  0  0  0  0  0  0  0  0  0  0  0
   38.5870   31.7610   50.1600 F   0  0  0  0  0  0  0  0  0  0  0  0
  1 19  1  0  0  0  0
  2  6  1  0  0  0  0
  2  1  1  0  0  0  0
  3  2  2  0  0  0  0
  4  3  1  0  0  0  0
  4  5  1  0  0  0  0
  5  1  2  0  0  0  0
  7  3  1  0  0  0  0
  8  9  1  0  0  0  0
  9  4  1  0  0  0  0
 10  9  2  0  0  0  0
 10 11  1  0  0  0  0
 12 10  1  0  0  0  0
 13 14  1  0  0  0  0
 13 12  2  0  0  0  0
 14  8  2  0  0  0  0
 15 13  1  0  0  0  0
 16 15  1  0  0  0  0
 16 18  1  0  0  0  0
 17 16  1  0  0  0  0
 18 12  1  0  0  0  0
 19 20  1  0  0  0  0
 20 25  1  0  0  0  0
 20 21  2  0  0  0  0
 21 27  1  0  0  0  0
 22 21  1  0  0  0  0
 23 22  2  0  0  0  0
 24 19  2  0  0  0  0
 24 23  1  0  0  0  0
 26 23  1  0  0  0  0
 27 30  1  0  0  0  0
 27 28  1  0  0  0  0
 27 29  1  0  0  0  0
M  END
>  <minimizedAffinity>
-6.03674412

>  <minimizedRMSD>
2.28356147

$$$$
