
 OpenBabel03262522143D

 47 51  0  0  1  0  0  0  0  0999 V2000
   39.4620   32.9450   43.7540 C   0  0  0  0  0  0  0  0  0  0  0  0
   38.3970   32.8230   44.0250 H   0  0  0  0  0  0  0  0  0  0  0  0
   39.5020   33.8770   43.1420 H   0  0  0  0  0  0  0  0  0  0  0  0
   39.0170   29.8030   42.1630 C   0  0  1  0  0  0  0  0  0  0  0  0
   38.9100   31.3100   41.9660 C   0  0  0  0  0  0  0  0  0  0  0  0
   39.9780   31.8110   42.8930 C   0  0  2  0  0  0  0  0  0  0  0  0
   40.4350   30.7540   43.6360 O   0  0  0  0  0  0  0  0  0  0  0  0
   39.4750   29.7580   43.6150 C   0  0  0  0  0  0  0  0  0  0  0  0
   39.7700   29.4110   41.4770 H   0  0  0  0  0  0  0  0  0  0  0  0
   39.2010   31.6100   40.9310 H   0  0  0  0  0  0  0  0  0  0  0  0
   37.9060   31.6850   42.2140 H   0  0  0  0  0  0  0  0  0  0  0  0
   40.8540   32.2330   42.3450 H   0  0  0  0  0  0  0  0  0  0  0  0
   38.5790   29.9740   44.2250 H   0  0  0  0  0  0  0  0  0  0  0  0
   39.9290   28.7680   43.8460 H   0  0  0  0  0  0  0  0  0  0  0  0
   37.8080   29.1780   41.9760 O   0  0  0  0  0  0  0  0  0  0  0  0
   37.7290   27.1400   40.6430 C   0  0  0  0  0  3  0  0  0  0  0  0
   37.5180   27.8550   41.8050 C   0  0  0  0  0  0  0  0  0  0  0  0
   36.9710   27.1550   42.8640 C   0  0  0  0  0  0  0  0  0  0  0  0
   36.7540   27.5820   43.8240 H   0  0  0  0  0  0  0  0  0  0  0  0
   36.6640   25.8000   42.7220 C   0  0  0  0  0  0  0  0  0  0  0  0
   36.8840   25.0940   41.5400 C   0  0  0  0  0  0  0  0  0  0  0  0
   37.4290   25.8010   40.4900 C   0  0  0  0  0  3  0  0  0  0  0  0
   36.4760   23.7810   41.7240 O   0  0  0  0  0  0  0  0  0  0  0  0
   36.4900   23.5620   43.1220 C   0  0  0  0  0  3  0  0  0  0  0  0
   35.7980   22.7710   43.4450 H   0  0  0  0  0  0  0  0  0  0  0  0
   36.1150   24.8440   43.5900 O   0  0  0  0  0  0  0  0  0  0  0  0
   40.5710   33.1140   45.1680 S   0  0  0  0  0  0  0  0  0  0  0  0
   37.7700   31.7630   47.6350 C   0  0  0  0  0  0  0  0  0  0  0  0
   37.9560   32.5140   48.8060 C   0  0  0  0  0  0  0  0  0  0  0  0
   38.9430   33.4630   48.8880 C   0  0  0  0  0  0  0  0  0  0  0  0
   39.7260   33.6280   47.7690 C   0  0  0  0  0  0  0  0  0  0  0  0
   39.5320   32.8900   46.6410 C   0  0  0  0  0  0  0  0  0  0  0  0
   38.5570   31.9500   46.5530 N   0  0  0  0  0  0  0  0  0  0  0  0
   37.3200   32.3600   49.6710 H   0  0  0  0  0  0  0  0  0  0  0  0
   39.1360   34.0740   49.7600 H   0  0  0  0  0  0  0  0  0  0  0  0
   40.5390   34.3500   47.7160 H   0  0  0  0  0  0  0  0  0  0  0  0
   36.7160   30.7890   47.6260 C   0  0  0  0  0  0  0  0  0  0  0  0
   36.2300   30.3700   46.5700 O   0  0  0  0  0  0  0  0  0  0  0  0
   37.0280   29.6220   49.7830 C   0  0  0  0  0  0  0  0  0  0  0  0
   36.1440   30.2260   48.8700 C   0  0  0  0  0  0  0  0  0  0  0  0
   34.7770   30.2750   49.1570 C   0  0  0  0  0  0  0  0  0  0  0  0
   34.3420   29.7270   50.3350 N   0  0  0  0  0  0  0  0  0  0  0  0
   35.2120   29.1520   51.1980 C   0  0  0  0  0  0  0  0  0  0  0  0
   36.5290   29.1030   50.9230 N   0  0  0  0  0  0  0  0  0  0  0  0
   38.0880   29.5650   49.5970 H   0  0  0  0  0  0  0  0  0  0  0  0
   34.1370   30.7380   48.4460 H   0  0  0  0  0  0  0  0  0  0  0  0
   34.9490   28.7060   52.1280 H   0  0  0  0  0  0  0  0  0  0  0  0
  1  2  1  0  0  0  0
  1 27  1  0  0  0  0
  3  1  1  0  0  0  0
  4  9  1  6  0  0  0
  4  8  1  0  0  0  0
  5  4  1  0  0  0  0
  5 11  1  0  0  0  0
  5  6  1  0  0  0  0
  6 12  1  6  0  0  0
  6  7  1  0  0  0  0
  6  1  1  0  0  0  0
  8  7  1  0  0  0  0
  8 14  1  0  0  0  0
  8 13  1  0  0  0  0
 10  5  1  0  0  0  0
 15  4  1  0  0  0  0
 16 17  1  0  0  0  0
 17 15  1  0  0  0  0
 17 18  2  0  0  0  0
 18 19  1  0  0  0  0
 20 18  1  0  0  0  0
 20 26  1  0  0  0  0
 21 23  1  0  0  0  0
 21 20  2  0  0  0  0
 22 16  2  0  0  0  0
 22 21  1  0  0  0  0
 23 24  1  0  0  0  0
 24 25  1  0  0  0  0
 24 26  1  0  0  0  0
 27 32  1  0  0  0  0
 28 29  1  0  0  0  0
 29 30  2  0  0  0  0
 29 34  1  0  0  0  0
 30 35  1  0  0  0  0
 31 30  1  0  0  0  0
 32 31  2  0  0  0  0
 33 32  1  0  0  0  0
 33 28  2  0  0  0  0
 36 31  1  0  0  0  0
 37 28  1  0  0  0  0
 37 40  1  0  0  0  0
 38 37  2  0  0  0  0
 39 44  1  0  0  0  0
 40 41  1  0  0  0  0
 40 39  2  0  0  0  0
 41 42  2  0  0  0  0
 42 43  1  0  0  0  0
 43 47  1  0  0  0  0
 44 43  2  0  0  0  0
 45 39  1  0  0  0  0
 46 41  1  0  0  0  0
M  END
>  <minimizedAffinity>
-5.32820511

>  <minimizedRMSD>
1.17527664

$$$$
