
 OpenBabel03262522143D

 47 51  0  0  1  0  0  0  0  0999 V2000
   39.4200   32.9060   43.8570 C   0  0  0  0  0  0  0  0  0  0  0  0
   38.3610   32.7000   44.0990 H   0  0  0  0  0  0  0  0  0  0  0  0
   39.3890   33.6500   43.0250 H   0  0  0  0  0  0  0  0  0  0  0  0
   39.4310   29.5220   42.7810 C   0  0  1  0  0  0  0  0  0  0  0  0
   39.3370   30.9670   42.3040 C   0  0  0  0  0  0  0  0  0  0  0  0
   40.1480   31.6800   43.3450 C   0  0  2  0  0  0  0  0  0  0  0  0
   40.4460   30.7910   44.3440 O   0  0  0  0  0  0  0  0  0  0  0  0
   39.5420   29.7470   44.2840 C   0  0  0  0  0  0  0  0  0  0  0  0
   40.3320   29.0720   42.3600 H   0  0  0  0  0  0  0  0  0  0  0  0
   39.8520   31.1100   41.3250 H   0  0  0  0  0  0  0  0  0  0  0  0
   38.2940   31.3130   42.2510 H   0  0  0  0  0  0  0  0  0  0  0  0
   41.1180   32.0610   42.9420 H   0  0  0  0  0  0  0  0  0  0  0  0
   38.5240   30.0020   44.6290 H   0  0  0  0  0  0  0  0  0  0  0  0
   39.9530   28.8390   44.7800 H   0  0  0  0  0  0  0  0  0  0  0  0
   38.3140   28.8000   42.4400 O   0  0  0  0  0  0  0  0  0  0  0  0
   36.6860   27.0100   42.7330 C   0  0  0  0  0  3  0  0  0  0  0  0
   37.9710   27.5140   42.7440 C   0  0  0  0  0  0  0  0  0  0  0  0
   38.9720   26.6270   43.0940 C   0  0  0  0  0  0  0  0  0  0  0  0
   40.0140   26.8800   43.1430 H   0  0  0  0  0  0  0  0  0  0  0  0
   38.6560   25.3050   43.4110 C   0  0  0  0  0  0  0  0  0  0  0  0
   37.3500   24.8140   43.3940 C   0  0  0  0  0  0  0  0  0  0  0  0
   36.3590   25.7060   43.0450 C   0  0  0  0  0  3  0  0  0  0  0  0
   37.3730   23.4740   43.7550 O   0  0  0  0  0  0  0  0  0  0  0  0
   38.6920   23.0260   43.4950 C   0  0  0  0  0  3  0  0  0  0  0  0
   38.9860   22.1680   44.1150 H   0  0  0  0  0  0  0  0  0  0  0  0
   39.4280   24.1970   43.7940 O   0  0  0  0  0  0  0  0  0  0  0  0
   40.3770   33.5850   45.2280 S   0  0  0  0  0  0  0  0  0  0  0  0
   37.7970   31.8820   47.7170 C   0  0  0  0  0  0  0  0  0  0  0  0
   38.0230   32.5340   48.9410 C   0  0  0  0  0  0  0  0  0  0  0  0
   38.9700   33.5180   49.0520 C   0  0  0  0  0  0  0  0  0  0  0  0
   39.6740   33.8220   47.9100 C   0  0  0  0  0  0  0  0  0  0  0  0
   39.4420   33.1780   46.7310 C   0  0  0  0  0  0  0  0  0  0  0  0
   38.5060   32.2030   46.6140 N   0  0  0  0  0  0  0  0  0  0  0  0
   37.4490   32.2710   49.8230 H   0  0  0  0  0  0  0  0  0  0  0  0
   39.1910   34.0570   49.9640 H   0  0  0  0  0  0  0  0  0  0  0  0
   40.4500   34.5840   47.8770 H   0  0  0  0  0  0  0  0  0  0  0  0
   36.7880   30.8620   47.6800 C   0  0  0  0  0  0  0  0  0  0  0  0
   36.3560   30.4180   46.6120 O   0  0  0  0  0  0  0  0  0  0  0  0
   37.0740   29.6420   49.8120 C   0  0  0  0  0  0  0  0  0  0  0  0
   36.2030   30.2780   48.9080 C   0  0  0  0  0  0  0  0  0  0  0  0
   34.8350   30.3380   49.1900 C   0  0  0  0  0  0  0  0  0  0  0  0
   34.3870   29.7700   50.3520 N   0  0  0  0  0  0  0  0  0  0  0  0
   35.2450   29.1630   51.2060 C   0  0  0  0  0  0  0  0  0  0  0  0
   36.5630   29.1040   50.9370 N   0  0  0  0  0  0  0  0  0  0  0  0
   38.1350   29.5760   49.6300 H   0  0  0  0  0  0  0  0  0  0  0  0
   34.2050   30.8260   48.4870 H   0  0  0  0  0  0  0  0  0  0  0  0
   34.9720   28.7000   52.1250 H   0  0  0  0  0  0  0  0  0  0  0  0
  1  2  1  0  0  0  0
  1 27  1  0  0  0  0
  3  1  1  0  0  0  0
  4  9  1  6  0  0  0
  4  8  1  0  0  0  0
  5  4  1  0  0  0  0
  5  6  1  0  0  0  0
  6 12  1  6  0  0  0
  6  1  1  0  0  0  0
  6  7  1  0  0  0  0
  8  7  1  0  0  0  0
  8 13  1  0  0  0  0
  8 14  1  0  0  0  0
 10  5  1  0  0  0  0
 11  5  1  0  0  0  0
 15 17  1  0  0  0  0
 15  4  1  0  0  0  0
 16 17  2  0  0  0  0
 16 22  1  0  0  0  0
 17 18  1  0  0  0  0
 18 19  1  0  0  0  0
 18 20  2  0  0  0  0
 20 26  1  0  0  0  0
 21 20  1  0  0  0  0
 21 23  1  0  0  0  0
 22 21  2  0  0  0  0
 24 23  1  0  0  0  0
 24 26  1  0  0  0  0
 24 25  1  0  0  0  0
 27 32  1  0  0  0  0
 28 29  1  0  0  0  0
 29 30  2  0  0  0  0
 29 34  1  0  0  0  0
 30 35  1  0  0  0  0
 31 30  1  0  0  0  0
 32 31  2  0  0  0  0
 33 32  1  0  0  0  0
 33 28  2  0  0  0  0
 36 31  1  0  0  0  0
 37 28  1  0  0  0  0
 37 40  1  0  0  0  0
 38 37  2  0  0  0  0
 39 44  1  0  0  0  0
 40 41  1  0  0  0  0
 40 39  2  0  0  0  0
 41 42  2  0  0  0  0
 42 43  1  0  0  0  0
 43 47  1  0  0  0  0
 44 43  2  0  0  0  0
 45 39  1  0  0  0  0
 46 41  1  0  0  0  0
M  END
>  <minimizedAffinity>
-5.72610569

>  <minimizedRMSD>
2.52646065

$$$$
