
 OpenBabel03262520543D

 28 31  0  0  1  0  0  0  0  0999 V2000
   37.8000   22.0820   34.5280 C   0  0  2  0  0  0  0  0  0  0  0  0
   38.6420   21.5170   33.4760 C   0  0  0  0  0  0  0  0  0  0  0  0
   38.1640   22.9360   33.3600 C   0  0  2  0  0  0  0  0  0  0  0  0
   36.7270   21.7540   34.5910 H   0  0  0  0  0  0  0  0  0  0  0  0
   39.7390   21.3950   33.6980 H   0  0  0  0  0  0  0  0  0  0  0  0
   38.2670   20.7380   32.7930 H   0  0  0  0  0  0  0  0  0  0  0  0
   37.3790   23.1370   32.6030 H   0  0  0  0  0  0  0  0  0  0  0  0
   40.0950   22.5210   37.4420 C   0  0  0  0  0  0  0  0  0  0  0  0
   39.2800   23.2640   38.3180 C   0  0  0  0  0  0  0  0  0  0  0  0
   37.9610   23.6080   37.9010 C   0  0  0  0  0  0  0  0  0  0  0  0
   37.5550   23.1970   36.6740 N   0  0  0  0  0  0  0  0  0  0  0  0
   38.3510   22.4910   35.8590 C   0  0  0  0  0  0  0  0  0  0  0  0
   39.6150   22.1460   36.2250 N   0  0  0  0  0  0  0  0  0  0  0  0
   41.1010   22.2460   37.7310 H   0  0  0  0  0  0  0  0  0  0  0  0
   39.6400   23.5690   39.2780 H   0  0  0  0  0  0  0  0  0  0  0  0
   37.3120   24.1810   38.5600 H   0  0  0  0  0  0  0  0  0  0  0  0
   39.3340   24.2910   33.6720 S   0  0  0  0  0  0  0  0  0  0  0  0
   38.6210   26.3760   35.2540 C   0  0  0  0  0  3  0  0  0  0  0  0
   38.3810   25.7700   34.0260 C   0  0  0  0  0  0  0  0  0  0  0  0
   37.4660   26.2650   33.1170 C   0  0  0  0  0  0  0  0  0  0  0  0
   37.3240   25.7460   32.1740 H   0  0  0  0  0  0  0  0  0  0  0  0
   36.7720   27.4020   33.4550 C   0  0  0  0  0  0  0  0  0  0  0  0
   37.0080   28.0050   34.6730 C   0  0  0  0  0  0  0  0  0  0  0  0
   37.9220   27.5140   35.5850 C   0  0  0  0  0  3  0  0  0  0  0  0
   36.1870   29.1040   34.7410 O   0  0  0  0  0  0  0  0  0  0  0  0
   35.3200   29.1640   33.6370 C   0  0  0  0  0  3  0  0  0  0  0  0
   35.4110   30.1690   33.1560 H   0  0  0  0  0  0  0  0  0  0  0  0
   35.8070   28.1460   32.7970 O   0  0  0  0  0  0  0  0  0  0  0  0
  1  4  1  1  0  0  0
  1 12  1  0  0  0  0
  2  5  1  0  0  0  0
  2  1  1  0  0  0  0
  3  7  1  6  0  0  0
  3  2  1  0  0  0  0
  3 17  1  0  0  0  0
  3  1  1  0  0  0  0
  6  2  1  0  0  0  0
  8 14  1  0  0  0  0
  8  9  1  0  0  0  0
  9 15  1  0  0  0  0
 10  9  2  0  0  0  0
 10 16  1  0  0  0  0
 11 10  1  0  0  0  0
 12 13  1  0  0  0  0
 12 11  2  0  0  0  0
 13  8  2  0  0  0  0
 17 19  1  0  0  0  0
 18 24  1  0  0  0  0
 19 18  2  0  0  0  0
 20 22  2  0  0  0  0
 20 19  1  0  0  0  0
 21 20  1  0  0  0  0
 22 23  1  0  0  0  0
 23 25  1  0  0  0  0
 23 24  2  0  0  0  0
 26 25  1  0  0  0  0
 27 26  1  0  0  0  0
 28 22  1  0  0  0  0
 28 26  1  0  0  0  0
M  END
>  <minimizedAffinity>
-4.97465944

$$$$

 OpenBabel03262520543D

 28 31  0  0  1  0  0  0  0  0999 V2000
   37.6810   27.3310   34.8700 C   0  0  2  0  0  0  0  0  0  0  0  0
   38.8610   27.1640   35.7150 C   0  0  0  0  0  0  0  0  0  0  0  0
   37.8470   26.0600   35.6340 C   0  0  2  0  0  0  0  0  0  0  0  0
   36.8650   28.0200   35.2180 H   0  0  0  0  0  0  0  0  0  0  0  0
   39.8410   26.9550   35.2020 H   0  0  0  0  0  0  0  0  0  0  0  0
   38.9930   27.7420   36.6430 H   0  0  0  0  0  0  0  0  0  0  0  0
   37.2050   25.9060   36.5250 H   0  0  0  0  0  0  0  0  0  0  0  0
   36.7020   26.9350   31.2870 C   0  0  0  0  0  0  0  0  0  0  0  0
   37.9530   27.0500   30.6510 C   0  0  0  0  0  0  0  0  0  0  0  0
   39.1120   27.2650   31.4520 C   0  0  0  0  0  0  0  0  0  0  0  0
   38.9500   27.3450   32.7970 N   0  0  0  0  0  0  0  0  0  0  0  0
   37.7470   27.2330   33.3770 C   0  0  0  0  0  0  0  0  0  0  0  0
   36.6200   27.0280   32.6430 N   0  0  0  0  0  0  0  0  0  0  0  0
   35.8040   26.7730   30.7040 H   0  0  0  0  0  0  0  0  0  0  0  0
   38.0380   26.9800   29.5870 H   0  0  0  0  0  0  0  0  0  0  0  0
   40.0900   27.3560   30.9840 H   0  0  0  0  0  0  0  0  0  0  0  0
   38.2350   24.5700   34.6680 S   0  0  0  0  0  0  0  0  0  0  0  0
   39.0610   23.5280   37.0310 C   0  0  0  0  0  3  0  0  0  0  0  0
   39.3060   23.5310   35.6630 C   0  0  0  0  0  0  0  0  0  0  0  0
   40.3120   22.7820   35.0850 C   0  0  0  0  0  0  0  0  0  0  0  0
   40.4530   22.8270   34.0100 H   0  0  0  0  0  0  0  0  0  0  0  0
   41.0950   22.0080   35.9090 C   0  0  0  0  0  0  0  0  0  0  0  0
   40.8530   22.0030   37.2670 C   0  0  0  0  0  0  0  0  0  0  0  0
   39.8480   22.7510   37.8500 C   0  0  0  0  0  3  0  0  0  0  0  0
   41.7720   21.1550   37.8330 O   0  0  0  0  0  0  0  0  0  0  0  0
   42.6990   20.6950   36.8830 C   0  0  0  0  0  3  0  0  0  0  0  0
   42.7330   19.5780   36.9160 H   0  0  0  0  0  0  0  0  0  0  0  0
   42.1620   21.1580   35.6670 O   0  0  0  0  0  0  0  0  0  0  0  0
  1  4  1  1  0  0  0
  1  3  1  0  0  0  0
  1  2  1  0  0  0  0
  2  6  1  0  0  0  0
  3  2  1  0  0  0  0
  3  7  1  1  0  0  0
  5  2  1  0  0  0  0
  8 13  1  0  0  0  0
  9  8  2  0  0  0  0
  9 10  1  0  0  0  0
 10 11  2  0  0  0  0
 11 12  1  0  0  0  0
 12  1  1  0  0  0  0
 13 12  2  0  0  0  0
 14  8  1  0  0  0  0
 15  9  1  0  0  0  0
 16 10  1  0  0  0  0
 17  3  1  0  0  0  0
 17 19  1  0  0  0  0
 18 24  1  0  0  0  0
 19 18  2  0  0  0  0
 20 19  1  0  0  0  0
 20 22  2  0  0  0  0
 21 20  1  0  0  0  0
 22 23  1  0  0  0  0
 23 25  1  0  0  0  0
 23 24  2  0  0  0  0
 26 27  1  0  0  0  0
 26 25  1  0  0  0  0
 28 22  1  0  0  0  0
 28 26  1  0  0  0  0
M  END
>  <minimizedAffinity>
-4.83892536

$$$$

 OpenBabel03262520543D

 28 31  0  0  1  0  0  0  0  0999 V2000
   35.9750   23.2250   31.8620 C   0  0  2  0  0  0  0  0  0  0  0  0
   36.6980   23.8730   30.7710 C   0  0  0  0  0  0  0  0  0  0  0  0
   37.3060   23.8370   32.1430 C   0  0  2  0  0  0  0  0  0  0  0  0
   35.0820   23.7480   32.3000 H   0  0  0  0  0  0  0  0  0  0  0  0
   37.1910   23.2090   30.0080 H   0  0  0  0  0  0  0  0  0  0  0  0
   36.3510   24.8230   30.3320 H   0  0  0  0  0  0  0  0  0  0  0  0
   37.3270   24.7930   32.7050 H   0  0  0  0  0  0  0  0  0  0  0  0
   35.9580   19.5840   31.0250 C   0  0  0  0  0  0  0  0  0  0  0  0
   35.6720   19.0190   32.2830 C   0  0  0  0  0  0  0  0  0  0  0  0
   35.4930   19.8870   33.4000 C   0  0  0  0  0  0  0  0  0  0  0  0
   35.6050   21.2230   33.1910 N   0  0  0  0  0  0  0  0  0  0  0  0
   35.8790   21.7350   31.9830 C   0  0  0  0  0  0  0  0  0  0  0  0
   36.0560   20.9360   30.8970 N   0  0  0  0  0  0  0  0  0  0  0  0
   36.1000   18.9500   30.1600 H   0  0  0  0  0  0  0  0  0  0  0  0
   35.5920   17.9600   32.4050 H   0  0  0  0  0  0  0  0  0  0  0  0
   35.2710   19.4750   34.3820 H   0  0  0  0  0  0  0  0  0  0  0  0
   38.6780   22.6910   32.4720 S   0  0  0  0  0  0  0  0  0  0  0  0
   40.2350   22.1710   34.6310 C   0  0  0  0  0  3  0  0  0  0  0  0
   39.0390   22.7530   34.2290 C   0  0  0  0  0  0  0  0  0  0  0  0
   38.1650   23.3500   35.1160 C   0  0  0  0  0  0  0  0  0  0  0  0
   37.2460   23.7880   34.7390 H   0  0  0  0  0  0  0  0  0  0  0  0
   38.5060   23.3610   36.4480 C   0  0  0  0  0  0  0  0  0  0  0  0
   39.6920   22.7830   36.8500 C   0  0  0  0  0  0  0  0  0  0  0  0
   40.5690   22.1850   35.9660 C   0  0  0  0  0  3  0  0  0  0  0  0
   39.7710   22.9390   38.2120 O   0  0  0  0  0  0  0  0  0  0  0  0
   38.5930   23.5000   38.7320 C   0  0  0  0  0  3  0  0  0  0  0  0
   38.8550   24.3950   39.3470 H   0  0  0  0  0  0  0  0  0  0  0  0
   37.8770   23.8610   37.5760 O   0  0  0  0  0  0  0  0  0  0  0  0
  1 12  1  0  0  0  0
  1  3  1  0  0  0  0
  1  4  1  1  0  0  0
  2  1  1  0  0  0  0
  2  3  1  0  0  0  0
  3 17  1  0  0  0  0
  3  7  1  1  0  0  0
  5  2  1  0  0  0  0
  6  2  1  0  0  0  0
  8  9  1  0  0  0  0
  9 15  1  0  0  0  0
  9 10  2  0  0  0  0
 10 16  1  0  0  0  0
 11 10  1  0  0  0  0
 12 11  2  0  0  0  0
 13  8  2  0  0  0  0
 13 12  1  0  0  0  0
 14  8  1  0  0  0  0
 17 19  1  0  0  0  0
 18 24  1  0  0  0  0
 19 18  2  0  0  0  0
 19 20  1  0  0  0  0
 20 22  2  0  0  0  0
 21 20  1  0  0  0  0
 22 23  1  0  0  0  0
 22 28  1  0  0  0  0
 23 25  1  0  0  0  0
 24 23  2  0  0  0  0
 25 26  1  0  0  0  0
 26 27  1  0  0  0  0
 28 26  1  0  0  0  0
M  END
>  <minimizedAffinity>
-4.81702375

$$$$

 OpenBabel03262520543D

 28 31  0  0  1  0  0  0  0  0999 V2000
   39.8500   22.4550   34.5400 C   0  0  2  0  0  0  0  0  0  0  0  0
   41.2840   22.2450   34.3570 C   0  0  0  0  0  0  0  0  0  0  0  0
   40.6480   23.5010   33.8340 C   0  0  2  0  0  0  0  0  0  0  0  0
   39.1360   21.8610   33.9070 H   0  0  0  0  0  0  0  0  0  0  0  0
   41.9470   22.3800   35.2560 H   0  0  0  0  0  0  0  0  0  0  0  0
   41.6720   21.4800   33.6650 H   0  0  0  0  0  0  0  0  0  0  0  0
   40.5340   23.5820   32.7340 H   0  0  0  0  0  0  0  0  0  0  0  0
   37.4740   23.6590   37.1580 C   0  0  0  0  0  0  0  0  0  0  0  0
   38.2600   23.5240   38.3190 C   0  0  0  0  0  0  0  0  0  0  0  0
   39.5870   23.0210   38.1920 C   0  0  0  0  0  0  0  0  0  0  0  0
   40.0300   22.6970   36.9510 N   0  0  0  0  0  0  0  0  0  0  0  0
   39.2610   22.8360   35.8620 C   0  0  0  0  0  0  0  0  0  0  0  0
   37.9890   23.3120   35.9470 N   0  0  0  0  0  0  0  0  0  0  0  0
   36.4620   24.0380   37.2230 H   0  0  0  0  0  0  0  0  0  0  0  0
   37.8720   23.7900   39.2790 H   0  0  0  0  0  0  0  0  0  0  0  0
   40.2150   22.9080   39.0740 H   0  0  0  0  0  0  0  0  0  0  0  0
   40.9140   25.0630   34.7240 S   0  0  0  0  0  0  0  0  0  0  0  0
   38.9860   26.7590   35.5960 C   0  0  0  0  0  3  0  0  0  0  0  0
   39.4650   26.0920   34.4750 C   0  0  0  0  0  0  0  0  0  0  0  0
   38.8730   26.2030   33.2320 C   0  0  0  0  0  0  0  0  0  0  0  0
   39.2950   25.6570   32.3950 H   0  0  0  0  0  0  0  0  0  0  0  0
   37.7660   27.0100   33.1150 C   0  0  0  0  0  0  0  0  0  0  0  0
   37.2880   27.6730   34.2260 C   0  0  0  0  0  0  0  0  0  0  0  0
   37.8760   27.5640   35.4710 C   0  0  0  0  0  3  0  0  0  0  0  0
   36.1920   28.3930   33.8210 O   0  0  0  0  0  0  0  0  0  0  0  0
   35.8630   28.1160   32.4840 C   0  0  0  0  0  3  0  0  0  0  0  0
   35.7930   29.0770   31.9180 H   0  0  0  0  0  0  0  0  0  0  0  0
   36.9490   27.3370   32.0450 O   0  0  0  0  0  0  0  0  0  0  0  0
  1  4  1  6  0  0  0
  1 12  1  0  0  0  0
  2  1  1  0  0  0  0
  2  5  1  0  0  0  0
  3  7  1  6  0  0  0
  3  2  1  0  0  0  0
  3  1  1  0  0  0  0
  3 17  1  0  0  0  0
  6  2  1  0  0  0  0
  8 14  1  0  0  0  0
  8  9  1  0  0  0  0
  9 15  1  0  0  0  0
 10  9  2  0  0  0  0
 10 16  1  0  0  0  0
 11 10  1  0  0  0  0
 12 13  1  0  0  0  0
 12 11  2  0  0  0  0
 13  8  2  0  0  0  0
 19 17  1  0  0  0  0
 19 18  2  0  0  0  0
 20 19  1  0  0  0  0
 21 20  1  0  0  0  0
 22 20  2  0  0  0  0
 22 23  1  0  0  0  0
 23 24  2  0  0  0  0
 24 18  1  0  0  0  0
 25 23  1  0  0  0  0
 26 25  1  0  0  0  0
 27 26  1  0  0  0  0
 28 26  1  0  0  0  0
 28 22  1  0  0  0  0
M  END
>  <minimizedAffinity>
-4.67531729

$$$$

 OpenBabel03262520543D

 28 31  0  0  1  0  0  0  0  0999 V2000
   40.2430   22.3310   35.0290 C   0  0  2  0  0  0  0  0  0  0  0  0
   41.6440   22.7310   34.9150 C   0  0  0  0  0  0  0  0  0  0  0  0
   40.6030   23.4430   34.1000 C   0  0  2  0  0  0  0  0  0  0  0  0
   39.9200   21.3670   34.5510 H   0  0  0  0  0  0  0  0  0  0  0  0
   42.0840   23.3270   35.7620 H   0  0  0  0  0  0  0  0  0  0  0  0
   42.3920   22.0820   34.4310 H   0  0  0  0  0  0  0  0  0  0  0  0
   40.5900   23.2310   33.0120 H   0  0  0  0  0  0  0  0  0  0  0  0
   39.1970   23.2510   38.4940 C   0  0  0  0  0  0  0  0  0  0  0  0
   37.7990   23.3240   38.3440 C   0  0  0  0  0  0  0  0  0  0  0  0
   37.2330   23.0620   37.0620 C   0  0  0  0  0  0  0  0  0  0  0  0
   38.0760   22.7510   36.0460 N   0  0  0  0  0  0  0  0  0  0  0  0
   39.4040   22.6890   36.2160 C   0  0  0  0  0  0  0  0  0  0  0  0
   39.9780   22.9340   37.4250 N   0  0  0  0  0  0  0  0  0  0  0  0
   39.6550   23.4470   39.4550 H   0  0  0  0  0  0  0  0  0  0  0  0
   37.1680   23.5730   39.1720 H   0  0  0  0  0  0  0  0  0  0  0  0
   36.1550   23.1110   36.9210 H   0  0  0  0  0  0  0  0  0  0  0  0
   40.0870   25.1150   34.5910 S   0  0  0  0  0  0  0  0  0  0  0  0
   38.4360   26.9400   33.4510 C   0  0  0  0  0  3  0  0  0  0  0  0
   38.6800   25.5780   33.5790 C   0  0  0  0  0  0  0  0  0  0  0  0
   37.8940   24.6190   32.9680 C   0  0  0  0  0  0  0  0  0  0  0  0
   38.1370   23.5710   33.1060 H   0  0  0  0  0  0  0  0  0  0  0  0
   36.8320   25.0460   32.2070 C   0  0  0  0  0  0  0  0  0  0  0  0
   36.5880   26.3980   32.0790 C   0  0  0  0  0  0  0  0  0  0  0  0
   37.3710   27.3590   32.6880 C   0  0  0  0  0  3  0  0  0  0  0  0
   35.4830   26.5300   31.2750 O   0  0  0  0  0  0  0  0  0  0  0  0
   34.9170   25.2800   30.9720 C   0  0  0  0  0  3  0  0  0  0  0  0
   34.8100   25.1860   29.8640 H   0  0  0  0  0  0  0  0  0  0  0  0
   35.8670   24.3720   31.4760 O   0  0  0  0  0  0  0  0  0  0  0  0
  1  4  1  6  0  0  0
  1 12  1  0  0  0  0
  2  1  1  0  0  0  0
  2  5  1  0  0  0  0
  3  7  1  6  0  0  0
  3 17  1  0  0  0  0
  3  2  1  0  0  0  0
  3  1  1  0  0  0  0
  6  2  1  0  0  0  0
  8 14  1  0  0  0  0
  9  8  1  0  0  0  0
  9 15  1  0  0  0  0
 10  9  2  0  0  0  0
 11 12  2  0  0  0  0
 11 10  1  0  0  0  0
 12 13  1  0  0  0  0
 13  8  2  0  0  0  0
 16 10  1  0  0  0  0
 18 19  1  0  0  0  0
 19 17  1  0  0  0  0
 20 21  1  0  0  0  0
 20 19  2  0  0  0  0
 22 20  1  0  0  0  0
 23 22  2  0  0  0  0
 23 24  1  0  0  0  0
 24 18  2  0  0  0  0
 25 23  1  0  0  0  0
 26 25  1  0  0  0  0
 26 28  1  0  0  0  0
 27 26  1  0  0  0  0
 28 22  1  0  0  0  0
M  END
>  <minimizedAffinity>
-4.65202999

$$$$

 OpenBabel03262520543D

 28 31  0  0  1  0  0  0  0  0999 V2000
   39.8820   25.4590   34.7350 C   0  0  2  0  0  0  0  0  0  0  0  0
   39.7280   26.8990   34.9270 C   0  0  0  0  0  0  0  0  0  0  0  0
   39.2330   26.2650   33.6600 C   0  0  2  0  0  0  0  0  0  0  0  0
   40.9050   25.0550   34.5080 H   0  0  0  0  0  0  0  0  0  0  0  0
   38.9260   27.2450   35.6380 H   0  0  0  0  0  0  0  0  0  0  0  0
   40.5950   27.5790   34.9170 H   0  0  0  0  0  0  0  0  0  0  0  0
   39.8190   26.4640   32.7400 H   0  0  0  0  0  0  0  0  0  0  0  0
   38.0790   22.3080   35.6160 C   0  0  0  0  0  0  0  0  0  0  0  0
   37.4100   22.7000   36.7910 C   0  0  0  0  0  0  0  0  0  0  0  0
   37.5850   24.0310   37.2690 C   0  0  0  0  0  0  0  0  0  0  0  0
   38.3920   24.8600   36.5600 N   0  0  0  0  0  0  0  0  0  0  0  0
   39.0190   24.4620   35.4440 C   0  0  0  0  0  0  0  0  0  0  0  0
   38.8750   23.1980   34.9610 N   0  0  0  0  0  0  0  0  0  0  0  0
   37.9660   21.3030   35.2300 H   0  0  0  0  0  0  0  0  0  0  0  0
   36.7810   22.0150   37.3210 H   0  0  0  0  0  0  0  0  0  0  0  0
   37.0770   24.3580   38.1740 H   0  0  0  0  0  0  0  0  0  0  0  0
   37.4460   26.0280   33.4280 S   0  0  0  0  0  0  0  0  0  0  0  0
   36.3030   28.3150   34.3320 C   0  0  0  0  0  3  0  0  0  0  0  0
   36.7030   27.6430   33.1830 C   0  0  0  0  0  0  0  0  0  0  0  0
   36.5470   28.1720   31.9170 C   0  0  0  0  0  0  0  0  0  0  0  0
   36.8800   27.5970   31.0590 H   0  0  0  0  0  0  0  0  0  0  0  0
   35.9700   29.4140   31.8040 C   0  0  0  0  0  0  0  0  0  0  0  0
   35.5710   30.0840   32.9430 C   0  0  0  0  0  0  0  0  0  0  0  0
   35.7250   29.5590   34.2100 C   0  0  0  0  0  3  0  0  0  0  0  0
   35.0370   31.2810   32.5350 O   0  0  0  0  0  0  0  0  0  0  0  0
   34.9620   31.3590   31.1350 C   0  0  0  0  0  3  0  0  0  0  0  0
   35.4610   32.2980   30.7930 H   0  0  0  0  0  0  0  0  0  0  0  0
   35.6700   30.2170   30.7160 O   0  0  0  0  0  0  0  0  0  0  0  0
  1  4  1  6  0  0  0
  1  2  1  0  0  0  0
  1 12  1  0  0  0  0
  2  5  1  0  0  0  0
  3  7  1  6  0  0  0
  3  1  1  0  0  0  0
  3  2  1  0  0  0  0
  6  2  1  0  0  0  0
  8  9  1  0  0  0  0
  9 10  2  0  0  0  0
  9 15  1  0  0  0  0
 10 16  1  0  0  0  0
 11 10  1  0  0  0  0
 12 11  2  0  0  0  0
 13 12  1  0  0  0  0
 13  8  2  0  0  0  0
 14  8  1  0  0  0  0
 17  3  1  0  0  0  0
 19 17  1  0  0  0  0
 19 18  2  0  0  0  0
 20 19  1  0  0  0  0
 21 20  1  0  0  0  0
 22 20  2  0  0  0  0
 22 23  1  0  0  0  0
 23 24  2  0  0  0  0
 24 18  1  0  0  0  0
 25 23  1  0  0  0  0
 26 25  1  0  0  0  0
 27 26  1  0  0  0  0
 28 26  1  0  0  0  0
 28 22  1  0  0  0  0
M  END
>  <minimizedAffinity>
-4.61071539

$$$$

 OpenBabel03262520543D

 28 31  0  0  1  0  0  0  0  0999 V2000
   36.0460   29.4140   30.9070 C   0  0  2  0  0  0  0  0  0  0  0  0
   36.3560   30.6610   31.6030 C   0  0  0  0  0  0  0  0  0  0  0  0
   34.9360   30.1760   31.5520 C   0  0  2  0  0  0  0  0  0  0  0  0
   36.0600   29.4100   29.7830 H   0  0  0  0  0  0  0  0  0  0  0  0
   36.8560   30.5820   32.6090 H   0  0  0  0  0  0  0  0  0  0  0  0
   36.6630   31.5670   31.0560 H   0  0  0  0  0  0  0  0  0  0  0  0
   34.2420   30.7340   30.8920 H   0  0  0  0  0  0  0  0  0  0  0  0
   36.0960   25.7330   31.5390 C   0  0  0  0  0  0  0  0  0  0  0  0
   37.0020   25.6560   32.6140 C   0  0  0  0  0  0  0  0  0  0  0  0
   37.5860   26.8600   33.1060 C   0  0  0  0  0  0  0  0  0  0  0  0
   37.2340   28.0270   32.5100 N   0  0  0  0  0  0  0  0  0  0  0  0
   36.3690   28.0730   31.4870 C   0  0  0  0  0  0  0  0  0  0  0  0
   35.7940   26.9440   30.9930 N   0  0  0  0  0  0  0  0  0  0  0  0
   35.6380   24.8360   31.1440 H   0  0  0  0  0  0  0  0  0  0  0  0
   37.2520   24.7150   33.0570 H   0  0  0  0  0  0  0  0  0  0  0  0
   38.2880   26.8270   33.9370 H   0  0  0  0  0  0  0  0  0  0  0  0
   34.1990   29.4390   33.0410 S   0  0  0  0  0  0  0  0  0  0  0  0
   35.6270   30.6310   35.0140 C   0  0  0  0  0  3  0  0  0  0  0  0
   34.3880   30.6110   34.3870 C   0  0  0  0  0  0  0  0  0  0  0  0
   33.3480   31.4380   34.7640 C   0  0  0  0  0  0  0  0  0  0  0  0
   32.4030   31.3740   34.2340 H   0  0  0  0  0  0  0  0  0  0  0  0
   33.5630   32.3110   35.8040 C   0  0  0  0  0  0  0  0  0  0  0  0
   34.7930   32.3330   36.4280 C   0  0  0  0  0  0  0  0  0  0  0  0
   35.8350   31.5080   36.0550 C   0  0  0  0  0  3  0  0  0  0  0  0
   34.7230   33.2860   37.4140 O   0  0  0  0  0  0  0  0  0  0  0  0
   33.4240   33.8060   37.5330 C   0  0  0  0  0  3  0  0  0  0  0  0
   33.4700   34.9210   37.4700 H   0  0  0  0  0  0  0  0  0  0  0  0
   32.7600   33.2550   36.4220 O   0  0  0  0  0  0  0  0  0  0  0  0
  1  4  1  6  0  0  0
  1 12  1  0  0  0  0
  1  3  1  0  0  0  0
  1  2  1  0  0  0  0
  2  5  1  0  0  0  0
  3  7  1  6  0  0  0
  3  2  1  0  0  0  0
  3 17  1  0  0  0  0
  6  2  1  0  0  0  0
  8  9  1  0  0  0  0
  9 15  1  0  0  0  0
  9 10  2  0  0  0  0
 10 16  1  0  0  0  0
 11 10  1  0  0  0  0
 12 11  2  0  0  0  0
 13 12  1  0  0  0  0
 13  8  2  0  0  0  0
 14  8  1  0  0  0  0
 17 19  1  0  0  0  0
 18 24  1  0  0  0  0
 19 20  1  0  0  0  0
 19 18  2  0  0  0  0
 20 22  2  0  0  0  0
 21 20  1  0  0  0  0
 22 28  1  0  0  0  0
 22 23  1  0  0  0  0
 23 25  1  0  0  0  0
 24 23  2  0  0  0  0
 25 26  1  0  0  0  0
 27 26  1  0  0  0  0
 28 26  1  0  0  0  0
M  END
>  <minimizedAffinity>
-4.51006508

$$$$

 OpenBabel03262520543D

 28 31  0  0  1  0  0  0  0  0999 V2000
   39.9020   25.6430   34.8230 C   0  0  2  0  0  0  0  0  0  0  0  0
   39.5390   26.9580   35.3470 C   0  0  0  0  0  0  0  0  0  0  0  0
   39.2520   26.6290   33.9110 C   0  0  2  0  0  0  0  0  0  0  0  0
   40.9860   25.4230   34.6290 H   0  0  0  0  0  0  0  0  0  0  0  0
   38.6370   27.0190   36.0170 H   0  0  0  0  0  0  0  0  0  0  0  0
   40.3050   27.7050   35.6120 H   0  0  0  0  0  0  0  0  0  0  0  0
   39.8880   27.1240   33.1480 H   0  0  0  0  0  0  0  0  0  0  0  0
   37.6830   23.2010   36.5740 C   0  0  0  0  0  0  0  0  0  0  0  0
   37.7250   22.1110   35.6840 C   0  0  0  0  0  0  0  0  0  0  0  0
   38.5060   22.2260   34.4970 C   0  0  0  0  0  0  0  0  0  0  0  0
   39.1750   23.3870   34.2850 N   0  0  0  0  0  0  0  0  0  0  0  0
   39.1180   24.4100   35.1500 C   0  0  0  0  0  0  0  0  0  0  0  0
   38.3830   24.3340   36.2910 N   0  0  0  0  0  0  0  0  0  0  0  0
   37.0980   23.1440   37.4830 H   0  0  0  0  0  0  0  0  0  0  0  0
   37.1810   21.2130   35.8870 H   0  0  0  0  0  0  0  0  0  0  0  0
   38.5550   21.3970   33.7930 H   0  0  0  0  0  0  0  0  0  0  0  0
   37.5410   26.2740   33.4100 S   0  0  0  0  0  0  0  0  0  0  0  0
   36.5570   28.3310   31.9420 C   0  0  0  0  0  3  0  0  0  0  0  0
   36.6810   27.8390   33.2360 C   0  0  0  0  0  0  0  0  0  0  0  0
   36.1780   28.5040   34.3370 C   0  0  0  0  0  0  0  0  0  0  0  0
   36.3070   28.0670   35.3230 H   0  0  0  0  0  0  0  0  0  0  0  0
   35.5310   29.6980   34.1290 C   0  0  0  0  0  0  0  0  0  0  0  0
   35.4060   30.1890   32.8460 C   0  0  0  0  0  0  0  0  0  0  0  0
   35.9080   29.5280   31.7420 C   0  0  0  0  0  3  0  0  0  0  0  0
   34.7260   31.3780   32.9370 O   0  0  0  0  0  0  0  0  0  0  0  0
   34.5100   31.7430   34.2770 C   0  0  0  0  0  3  0  0  0  0  0  0
   33.4220   31.9480   34.4280 H   0  0  0  0  0  0  0  0  0  0  0  0
   34.9220   30.6000   34.9870 O   0  0  0  0  0  0  0  0  0  0  0  0
  1  4  1  6  0  0  0
  1 12  1  0  0  0  0
  1  2  1  0  0  0  0
  2  6  1  0  0  0  0
  2  5  1  0  0  0  0
  3  7  1  6  0  0  0
  3  1  1  0  0  0  0
  3  2  1  0  0  0  0
  8 14  1  0  0  0  0
  9 15  1  0  0  0  0
  9  8  2  0  0  0  0
 10  9  1  0  0  0  0
 11 10  2  0  0  0  0
 11 12  1  0  0  0  0
 12 13  2  0  0  0  0
 13  8  1  0  0  0  0
 16 10  1  0  0  0  0
 17  3  1  0  0  0  0
 18 19  1  0  0  0  0
 19 17  1  0  0  0  0
 19 20  2  0  0  0  0
 20 21  1  0  0  0  0
 22 20  1  0  0  0  0
 22 28  1  0  0  0  0
 23 25  1  0  0  0  0
 23 22  2  0  0  0  0
 24 18  2  0  0  0  0
 24 23  1  0  0  0  0
 25 26  1  0  0  0  0
 26 27  1  0  0  0  0
 26 28  1  0  0  0  0
M  END
>  <minimizedAffinity>
-4.47988129

$$$$

 OpenBabel03262520543D

 28 31  0  0  1  0  0  0  0  0999 V2000
   35.9070   29.3610   30.9620 C   0  0  2  0  0  0  0  0  0  0  0  0
   35.9790   29.8450   32.3390 C   0  0  0  0  0  0  0  0  0  0  0  0
   36.1720   28.3830   32.0570 C   0  0  2  0  0  0  0  0  0  0  0  0
   34.8990   29.2970   30.4690 H   0  0  0  0  0  0  0  0  0  0  0  0
   36.9080   30.4020   32.6450 H   0  0  0  0  0  0  0  0  0  0  0  0
   35.0840   30.2030   32.8730 H   0  0  0  0  0  0  0  0  0  0  0  0
   35.3460   27.7040   32.3540 H   0  0  0  0  0  0  0  0  0  0  0  0
   38.3360   28.8610   28.1690 C   0  0  0  0  0  0  0  0  0  0  0  0
   39.0580   30.0690   28.2200 C   0  0  0  0  0  0  0  0  0  0  0  0
   38.7040   31.0380   29.2030 C   0  0  0  0  0  0  0  0  0  0  0  0
   37.6830   30.7450   30.0470 N   0  0  0  0  0  0  0  0  0  0  0  0
   37.0120   29.5870   29.9780 C   0  0  0  0  0  0  0  0  0  0  0  0
   37.3220   28.6400   29.0510 N   0  0  0  0  0  0  0  0  0  0  0  0
   38.5810   28.1070   27.4330 H   0  0  0  0  0  0  0  0  0  0  0  0
   39.8560   30.2620   27.5350 H   0  0  0  0  0  0  0  0  0  0  0  0
   39.2480   31.9790   29.2630 H   0  0  0  0  0  0  0  0  0  0  0  0
   37.8460   27.6800   32.1360 S   0  0  0  0  0  0  0  0  0  0  0  0
   38.1410   27.5270   34.8270 C   0  0  0  0  0  3  0  0  0  0  0  0
   37.9890   26.7670   33.6740 C   0  0  0  0  0  0  0  0  0  0  0  0
   37.9480   25.3870   33.6910 C   0  0  0  0  0  0  0  0  0  0  0  0
   37.8280   24.8500   32.7560 H   0  0  0  0  0  0  0  0  0  0  0  0
   38.0640   24.7530   34.9060 C   0  0  0  0  0  0  0  0  0  0  0  0
   38.2150   25.5060   36.0520 C   0  0  0  0  0  0  0  0  0  0  0  0
   38.2570   26.8860   36.0400 C   0  0  0  0  0  3  0  0  0  0  0  0
   38.3040   24.6230   37.1000 O   0  0  0  0  0  0  0  0  0  0  0  0
   38.3410   23.2940   36.6490 C   0  0  0  0  0  3  0  0  0  0  0  0
   37.5480   22.7070   37.1740 H   0  0  0  0  0  0  0  0  0  0  0  0
   38.0640   23.4180   35.2750 O   0  0  0  0  0  0  0  0  0  0  0  0
  1  4  1  6  0  0  0
  1  3  1  0  0  0  0
  1  2  1  0  0  0  0
  2  5  1  0  0  0  0
  2  6  1  0  0  0  0
  3 17  1  0  0  0  0
  3  2  1  0  0  0  0
  3  7  1  1  0  0  0
  8  9  2  0  0  0  0
  8 13  1  0  0  0  0
  9 10  1  0  0  0  0
 10 16  1  0  0  0  0
 10 11  2  0  0  0  0
 12 11  1  0  0  0  0
 12  1  1  0  0  0  0
 13 12  2  0  0  0  0
 14  8  1  0  0  0  0
 15  9  1  0  0  0  0
 17 19  1  0  0  0  0
 18 24  1  0  0  0  0
 19 20  1  0  0  0  0
 19 18  2  0  0  0  0
 20 22  2  0  0  0  0
 21 20  1  0  0  0  0
 22 28  1  0  0  0  0
 22 23  1  0  0  0  0
 23 25  1  0  0  0  0
 24 23  2  0  0  0  0
 26 25  1  0  0  0  0
 26 27  1  0  0  0  0
 28 26  1  0  0  0  0
M  END
>  <minimizedAffinity>
-4.42388439

$$$$
