
 OpenBabel03262522143D

 47 51  0  0  1  0  0  0  0  0999 V2000
   39.6130   32.8490   43.8000 C   0  0  0  0  0  0  0  0  0  0  0  0
   38.5320   32.8860   44.0290 H   0  0  0  0  0  0  0  0  0  0  0  0
   39.7950   33.7140   43.1170 H   0  0  0  0  0  0  0  0  0  0  0  0
   38.8160   29.6750   42.4250 C   0  0  1  0  0  0  0  0  0  0  0  0
   38.9260   31.1610   42.1100 C   0  0  0  0  0  0  0  0  0  0  0  0
   40.0080   31.5900   43.0570 C   0  0  2  0  0  0  0  0  0  0  0  0
   40.2800   30.5460   43.9020 O   0  0  0  0  0  0  0  0  0  0  0  0
   39.1950   29.6890   43.9010 C   0  0  0  0  0  0  0  0  0  0  0  0
   39.5390   29.1320   41.8150 H   0  0  0  0  0  0  0  0  0  0  0  0
   39.3030   31.3340   41.0750 H   0  0  0  0  0  0  0  0  0  0  0  0
   37.9720   31.6860   42.2710 H   0  0  0  0  0  0  0  0  0  0  0  0
   40.9580   31.8450   42.5300 H   0  0  0  0  0  0  0  0  0  0  0  0
   38.3100   30.0710   44.4400 H   0  0  0  0  0  0  0  0  0  0  0  0
   39.4970   28.6690   44.2310 H   0  0  0  0  0  0  0  0  0  0  0  0
   37.5420   29.2030   42.2170 O   0  0  0  0  0  0  0  0  0  0  0  0
   35.7100   27.9020   43.1580 C   0  0  0  0  0  3  0  0  0  0  0  0
   36.9660   28.0260   42.6000 C   0  0  0  0  0  0  0  0  0  0  0  0
   37.6770   26.8530   42.4250 C   0  0  0  0  0  0  0  0  0  0  0  0
   38.6630   26.8010   42.0030 H   0  0  0  0  0  0  0  0  0  0  0  0
   37.1170   25.6330   42.8060 C   0  0  0  0  0  0  0  0  0  0  0  0
   35.8460   25.5270   43.3690 C   0  0  0  0  0  0  0  0  0  0  0  0
   35.1440   26.7010   43.5390 C   0  0  0  0  0  3  0  0  0  0  0  0
   35.5860   24.1890   43.6330 O   0  0  0  0  0  0  0  0  0  0  0  0
   36.4500   23.4510   42.7880 C   0  0  0  0  0  3  0  0  0  0  0  0
   36.6850   22.4510   43.1770 H   0  0  0  0  0  0  0  0  0  0  0  0
   37.5770   24.3070   42.7570 O   0  0  0  0  0  0  0  0  0  0  0  0
   40.6830   32.9980   45.2460 S   0  0  0  0  0  0  0  0  0  0  0  0
   37.7820   31.7650   47.6570 C   0  0  0  0  0  0  0  0  0  0  0  0
   37.9360   32.5550   48.8080 C   0  0  0  0  0  0  0  0  0  0  0  0
   38.9310   33.4940   48.8910 C   0  0  0  0  0  0  0  0  0  0  0  0
   39.7540   33.6120   47.7960 C   0  0  0  0  0  0  0  0  0  0  0  0
   39.5910   32.8360   46.6880 C   0  0  0  0  0  0  0  0  0  0  0  0
   38.6090   31.9040   46.5990 N   0  0  0  0  0  0  0  0  0  0  0  0
   37.2690   32.4370   49.6550 H   0  0  0  0  0  0  0  0  0  0  0  0
   39.1010   34.1330   49.7480 H   0  0  0  0  0  0  0  0  0  0  0  0
   40.5770   34.3230   47.7470 H   0  0  0  0  0  0  0  0  0  0  0  0
   36.7170   30.8020   47.6460 C   0  0  0  0  0  0  0  0  0  0  0  0
   36.2230   30.3970   46.5890 O   0  0  0  0  0  0  0  0  0  0  0  0
   37.0260   29.6190   49.7950 C   0  0  0  0  0  0  0  0  0  0  0  0
   36.1450   30.2350   48.8870 C   0  0  0  0  0  0  0  0  0  0  0  0
   34.7790   30.2920   49.1790 C   0  0  0  0  0  0  0  0  0  0  0  0
   34.3430   29.7410   50.3540 N   0  0  0  0  0  0  0  0  0  0  0  0
   35.2110   29.1530   51.2110 C   0  0  0  0  0  0  0  0  0  0  0  0
   36.5270   29.0970   50.9330 N   0  0  0  0  0  0  0  0  0  0  0  0
   38.0860   29.5560   49.6060 H   0  0  0  0  0  0  0  0  0  0  0  0
   34.1410   30.7640   48.4720 H   0  0  0  0  0  0  0  0  0  0  0  0
   34.9470   28.7040   52.1400 H   0  0  0  0  0  0  0  0  0  0  0  0
  1  2  1  0  0  0  0
  1 27  1  0  0  0  0
  3  1  1  0  0  0  0
  4  9  1  6  0  0  0
  4  8  1  0  0  0  0
  5 11  1  0  0  0  0
  5  4  1  0  0  0  0
  5  6  1  0  0  0  0
  6 12  1  6  0  0  0
  6  1  1  0  0  0  0
  6  7  1  0  0  0  0
  8  7  1  0  0  0  0
  8 14  1  0  0  0  0
  8 13  1  0  0  0  0
 10  5  1  0  0  0  0
 15  4  1  0  0  0  0
 15 17  1  0  0  0  0
 16 22  1  0  0  0  0
 17 16  2  0  0  0  0
 18 17  1  0  0  0  0
 18 20  2  0  0  0  0
 19 18  1  0  0  0  0
 20 21  1  0  0  0  0
 21 22  2  0  0  0  0
 21 23  1  0  0  0  0
 24 25  1  0  0  0  0
 24 23  1  0  0  0  0
 26 24  1  0  0  0  0
 26 20  1  0  0  0  0
 27 32  1  0  0  0  0
 28 29  1  0  0  0  0
 29 30  2  0  0  0  0
 29 34  1  0  0  0  0
 30 35  1  0  0  0  0
 31 30  1  0  0  0  0
 32 31  2  0  0  0  0
 33 32  1  0  0  0  0
 33 28  2  0  0  0  0
 36 31  1  0  0  0  0
 37 28  1  0  0  0  0
 37 40  1  0  0  0  0
 38 37  2  0  0  0  0
 39 44  1  0  0  0  0
 40 41  1  0  0  0  0
 40 39  2  0  0  0  0
 41 42  2  0  0  0  0
 42 43  1  0  0  0  0
 43 47  1  0  0  0  0
 44 43  2  0  0  0  0
 45 39  1  0  0  0  0
 46 41  1  0  0  0  0
M  END
>  <minimizedAffinity>
-5.44830847

>  <minimizedRMSD>
2.28942013

$$$$
