
 OpenBabel03262522143D

 47 51  0  0  1  0  0  0  0  0999 V2000
   39.6890   32.8370   43.8110 C   0  0  0  0  0  0  0  0  0  0  0  0
   38.6060   32.8900   44.0270 H   0  0  0  0  0  0  0  0  0  0  0  0
   39.8980   33.7150   43.1540 H   0  0  0  0  0  0  0  0  0  0  0  0
   38.8270   29.7650   42.2530 C   0  0  1  0  0  0  0  0  0  0  0  0
   39.0300   31.2560   42.0100 C   0  0  0  0  0  0  0  0  0  0  0  0
   40.0680   31.5890   43.0400 C   0  0  2  0  0  0  0  0  0  0  0  0
   40.2340   30.5000   43.8540 O   0  0  0  0  0  0  0  0  0  0  0  0
   39.1110   29.7010   43.7490 C   0  0  0  0  0  0  0  0  0  0  0  0
   39.5610   29.2110   41.6660 H   0  0  0  0  0  0  0  0  0  0  0  0
   39.4800   31.4500   41.0080 H   0  0  0  0  0  0  0  0  0  0  0  0
   38.0940   31.8220   42.1340 H   0  0  0  0  0  0  0  0  0  0  0  0
   41.0620   31.8160   42.5850 H   0  0  0  0  0  0  0  0  0  0  0  0
   38.2130   30.1060   44.2480 H   0  0  0  0  0  0  0  0  0  0  0  0
   39.3410   28.6540   44.0520 H   0  0  0  0  0  0  0  0  0  0  0  0
   37.5480   29.3690   41.9460 O   0  0  0  0  0  0  0  0  0  0  0  0
   36.9130   27.0600   42.3960 C   0  0  0  0  0  3  0  0  0  0  0  0
   36.7540   28.4250   42.5310 C   0  0  0  0  0  0  0  0  0  0  0  0
   35.7040   28.8430   43.3270 C   0  0  0  0  0  0  0  0  0  0  0  0
   35.4630   29.8710   43.5200 H   0  0  0  0  0  0  0  0  0  0  0  0
   34.8750   27.9030   43.9400 C   0  0  0  0  0  0  0  0  0  0  0  0
   35.0510   26.5270   43.7910 C   0  0  0  0  0  0  0  0  0  0  0  0
   36.1000   26.1200   42.9960 C   0  0  0  0  0  3  0  0  0  0  0  0
   34.0700   25.8710   44.5220 O   0  0  0  0  0  0  0  0  0  0  0  0
   33.6280   26.7980   45.4990 C   0  0  0  0  0  3  0  0  0  0  0  0
   32.6010   26.6100   45.8400 H   0  0  0  0  0  0  0  0  0  0  0  0
   33.7570   28.0120   44.7830 O   0  0  0  0  0  0  0  0  0  0  0  0
   40.7410   32.9250   45.2740 S   0  0  0  0  0  0  0  0  0  0  0  0
   37.7880   31.7530   47.6530 C   0  0  0  0  0  0  0  0  0  0  0  0
   37.9230   32.5660   48.7900 C   0  0  0  0  0  0  0  0  0  0  0  0
   38.9200   33.5030   48.8740 C   0  0  0  0  0  0  0  0  0  0  0  0
   39.7660   33.5950   47.7920 C   0  0  0  0  0  0  0  0  0  0  0  0
   39.6200   32.7970   46.6980 C   0  0  0  0  0  0  0  0  0  0  0  0
   38.6360   31.8680   46.6090 N   0  0  0  0  0  0  0  0  0  0  0  0
   37.2390   32.4690   49.6260 H   0  0  0  0  0  0  0  0  0  0  0  0
   39.0760   34.1590   49.7200 H   0  0  0  0  0  0  0  0  0  0  0  0
   40.5920   34.3010   47.7450 H   0  0  0  0  0  0  0  0  0  0  0  0
   36.7190   30.7950   47.6400 C   0  0  0  0  0  0  0  0  0  0  0  0
   36.2250   30.3920   46.5830 O   0  0  0  0  0  0  0  0  0  0  0  0
   37.0220   29.6260   49.7980 C   0  0  0  0  0  0  0  0  0  0  0  0
   36.1430   30.2310   48.8810 C   0  0  0  0  0  0  0  0  0  0  0  0
   34.7750   30.2800   49.1640 C   0  0  0  0  0  0  0  0  0  0  0  0
   34.3350   29.7320   50.3390 N   0  0  0  0  0  0  0  0  0  0  0  0
   35.2020   29.1550   51.2040 C   0  0  0  0  0  0  0  0  0  0  0  0
   36.5190   29.1060   50.9350 N   0  0  0  0  0  0  0  0  0  0  0  0
   38.0840   29.5690   49.6160 H   0  0  0  0  0  0  0  0  0  0  0  0
   34.1380   30.7440   48.4510 H   0  0  0  0  0  0  0  0  0  0  0  0
   34.9350   28.7090   52.1340 H   0  0  0  0  0  0  0  0  0  0  0  0
  1  2  1  0  0  0  0
  1 27  1  0  0  0  0
  3  1  1  0  0  0  0
  4  9  1  6  0  0  0
  4  8  1  0  0  0  0
  5 11  1  0  0  0  0
  5  4  1  0  0  0  0
  5  6  1  0  0  0  0
  6 12  1  6  0  0  0
  6  1  1  0  0  0  0
  6  7  1  0  0  0  0
  8  7  1  0  0  0  0
  8 14  1  0  0  0  0
  8 13  1  0  0  0  0
 10  5  1  0  0  0  0
 15  4  1  0  0  0  0
 15 17  1  0  0  0  0
 16 17  2  0  0  0  0
 16 22  1  0  0  0  0
 17 18  1  0  0  0  0
 18 19  1  0  0  0  0
 18 20  2  0  0  0  0
 20 26  1  0  0  0  0
 21 20  1  0  0  0  0
 21 23  1  0  0  0  0
 22 21  2  0  0  0  0
 23 24  1  0  0  0  0
 24 25  1  0  0  0  0
 26 24  1  0  0  0  0
 27 32  1  0  0  0  0
 28 29  1  0  0  0  0
 29 30  2  0  0  0  0
 29 34  1  0  0  0  0
 30 35  1  0  0  0  0
 31 30  1  0  0  0  0
 32 31  2  0  0  0  0
 33 32  1  0  0  0  0
 33 28  2  0  0  0  0
 36 31  1  0  0  0  0
 37 28  1  0  0  0  0
 37 40  1  0  0  0  0
 38 37  2  0  0  0  0
 39 44  1  0  0  0  0
 40 41  1  0  0  0  0
 40 39  2  0  0  0  0
 41 42  2  0  0  0  0
 42 43  1  0  0  0  0
 43 47  1  0  0  0  0
 44 43  2  0  0  0  0
 45 39  1  0  0  0  0
 46 41  1  0  0  0  0
M  END
>  <minimizedAffinity>
-5.47367048

>  <minimizedRMSD>
2.21935129

$$$$
