
 OpenBabel03262522143D

 47 51  0  0  1  0  0  0  0  0999 V2000
   39.3150   32.9100   43.6790 C   0  0  0  0  0  0  0  0  0  0  0  0
   38.2780   32.6620   43.9710 H   0  0  0  0  0  0  0  0  0  0  0  0
   39.2190   33.7470   42.9470 H   0  0  0  0  0  0  0  0  0  0  0  0
   39.3630   29.5670   42.4850 C   0  0  1  0  0  0  0  0  0  0  0  0
   39.0550   31.0090   42.1000 C   0  0  0  0  0  0  0  0  0  0  0  0
   40.0110   31.7640   42.9740 C   0  0  2  0  0  0  0  0  0  0  0  0
   40.5850   30.8810   43.8500 O   0  0  0  0  0  0  0  0  0  0  0  0
   39.7750   29.7650   43.9390 C   0  0  0  0  0  0  0  0  0  0  0  0
   40.1860   29.2060   41.8650 H   0  0  0  0  0  0  0  0  0  0  0  0
   39.3350   31.2190   41.0410 H   0  0  0  0  0  0  0  0  0  0  0  0
   38.0000   31.2650   42.2830 H   0  0  0  0  0  0  0  0  0  0  0  0
   40.8380   32.2370   42.3920 H   0  0  0  0  0  0  0  0  0  0  0  0
   38.8380   29.9230   44.5030 H   0  0  0  0  0  0  0  0  0  0  0  0
   40.3530   28.8840   44.2990 H   0  0  0  0  0  0  0  0  0  0  0  0
   38.2590   28.7600   42.3590 O   0  0  0  0  0  0  0  0  0  0  0  0
   39.0880   26.5630   43.0140 C   0  0  0  0  0  3  0  0  0  0  0  0
   38.0750   27.4570   42.7240 C   0  0  0  0  0  0  0  0  0  0  0  0
   36.7850   26.9700   42.8170 C   0  0  0  0  0  0  0  0  0  0  0  0
   35.9040   27.5520   42.6200 H   0  0  0  0  0  0  0  0  0  0  0  0
   36.5630   25.6430   43.1880 C   0  0  0  0  0  0  0  0  0  0  0  0
   37.5990   24.7550   43.4780 C   0  0  0  0  0  0  0  0  0  0  0  0
   38.8820   25.2490   43.3830 C   0  0  0  0  0  3  0  0  0  0  0  0
   37.0500   23.5240   43.8100 O   0  0  0  0  0  0  0  0  0  0  0  0
   35.7190   23.7880   44.2150 C   0  0  0  0  0  3  0  0  0  0  0  0
   35.0470   22.9310   44.0780 H   0  0  0  0  0  0  0  0  0  0  0  0
   35.4000   24.8760   43.3660 O   0  0  0  0  0  0  0  0  0  0  0  0
   40.3650   33.4360   45.0500 S   0  0  0  0  0  0  0  0  0  0  0  0
   37.7650   31.8030   47.5640 C   0  0  0  0  0  0  0  0  0  0  0  0
   38.0110   32.4560   48.7820 C   0  0  0  0  0  0  0  0  0  0  0  0
   38.9800   33.4210   48.8820 C   0  0  0  0  0  0  0  0  0  0  0  0
   39.6830   33.7030   47.7340 C   0  0  0  0  0  0  0  0  0  0  0  0
   39.4310   33.0580   46.5610 C   0  0  0  0  0  0  0  0  0  0  0  0
   38.4740   32.1030   46.4550 N   0  0  0  0  0  0  0  0  0  0  0  0
   37.4380   32.2110   49.6690 H   0  0  0  0  0  0  0  0  0  0  0  0
   39.2170   33.9610   49.7900 H   0  0  0  0  0  0  0  0  0  0  0  0
   40.4740   34.4490   47.6920 H   0  0  0  0  0  0  0  0  0  0  0  0
   36.7340   30.8040   47.5390 C   0  0  0  0  0  0  0  0  0  0  0  0
   36.2820   30.3680   46.4760 O   0  0  0  0  0  0  0  0  0  0  0  0
   37.0150   29.5860   49.6720 C   0  0  0  0  0  0  0  0  0  0  0  0
   36.1490   30.2350   48.7730 C   0  0  0  0  0  0  0  0  0  0  0  0
   34.7850   30.3200   49.0670 C   0  0  0  0  0  0  0  0  0  0  0  0
   34.3360   29.7640   50.2350 N   0  0  0  0  0  0  0  0  0  0  0  0
   35.1900   29.1440   51.0830 C   0  0  0  0  0  0  0  0  0  0  0  0
   36.5040   29.0600   50.8020 N   0  0  0  0  0  0  0  0  0  0  0  0
   38.0730   29.4990   49.4810 H   0  0  0  0  0  0  0  0  0  0  0  0
   34.1580   30.8180   48.3670 H   0  0  0  0  0  0  0  0  0  0  0  0
   34.9160   28.6890   52.0060 H   0  0  0  0  0  0  0  0  0  0  0  0
  1  2  1  0  0  0  0
  1 27  1  0  0  0  0
  3  1  1  0  0  0  0
  4  9  1  6  0  0  0
  4  8  1  0  0  0  0
  5 11  1  0  0  0  0
  5  4  1  0  0  0  0
  5  6  1  0  0  0  0
  6 12  1  6  0  0  0
  6  1  1  0  0  0  0
  6  7  1  0  0  0  0
  7  8  1  0  0  0  0
  8 14  1  0  0  0  0
  8 13  1  0  0  0  0
 10  5  1  0  0  0  0
 15  4  1  0  0  0  0
 15 17  1  0  0  0  0
 16 22  1  0  0  0  0
 17 18  1  0  0  0  0
 17 16  2  0  0  0  0
 18 20  2  0  0  0  0
 19 18  1  0  0  0  0
 20 26  1  0  0  0  0
 20 21  1  0  0  0  0
 21 23  1  0  0  0  0
 22 21  2  0  0  0  0
 23 24  1  0  0  0  0
 25 24  1  0  0  0  0
 26 24  1  0  0  0  0
 27 32  1  0  0  0  0
 28 29  1  0  0  0  0
 29 30  2  0  0  0  0
 29 34  1  0  0  0  0
 30 35  1  0  0  0  0
 31 30  1  0  0  0  0
 32 31  2  0  0  0  0
 33 32  1  0  0  0  0
 33 28  2  0  0  0  0
 36 31  1  0  0  0  0
 37 28  1  0  0  0  0
 37 40  1  0  0  0  0
 38 37  2  0  0  0  0
 39 44  1  0  0  0  0
 40 41  1  0  0  0  0
 40 39  2  0  0  0  0
 41 42  2  0  0  0  0
 42 43  1  0  0  0  0
 43 47  1  0  0  0  0
 44 43  2  0  0  0  0
 45 39  1  0  0  0  0
 46 41  1  0  0  0  0
M  END
>  <minimizedAffinity>
-5.66993093

>  <minimizedRMSD>
2.0356915

$$$$
