
 OpenBabel03262522143D

 47 51  0  0  1  0  0  0  0  0999 V2000
   39.3230   32.9140   43.6820 C   0  0  0  0  0  0  0  0  0  0  0  0
   38.2810   32.6830   43.9700 H   0  0  0  0  0  0  0  0  0  0  0  0
   39.2430   33.7470   42.9430 H   0  0  0  0  0  0  0  0  0  0  0  0
   39.3380   29.5530   42.5380 C   0  0  1  0  0  0  0  0  0  0  0  0
   39.0360   30.9910   42.1340 C   0  0  0  0  0  0  0  0  0  0  0  0
   40.0050   31.7530   42.9880 C   0  0  2  0  0  0  0  0  0  0  0  0
   40.5810   30.8790   43.8710 O   0  0  0  0  0  0  0  0  0  0  0  0
   39.7640   29.7700   43.9840 C   0  0  0  0  0  0  0  0  0  0  0  0
   40.1520   29.1780   41.9160 H   0  0  0  0  0  0  0  0  0  0  0  0
   39.3070   31.1840   41.0690 H   0  0  0  0  0  0  0  0  0  0  0  0
   37.9840   31.2570   42.3230 H   0  0  0  0  0  0  0  0  0  0  0  0
   40.8300   32.2110   42.3910 H   0  0  0  0  0  0  0  0  0  0  0  0
   38.8330   29.9430   44.5540 H   0  0  0  0  0  0  0  0  0  0  0  0
   40.3400   28.8910   44.3520 H   0  0  0  0  0  0  0  0  0  0  0  0
   38.2270   28.7510   42.4330 O   0  0  0  0  0  0  0  0  0  0  0  0
   39.0790   26.5590   43.0690 C   0  0  0  0  0  3  0  0  0  0  0  0
   38.0600   27.4350   42.7540 C   0  0  0  0  0  0  0  0  0  0  0  0
   36.7780   26.9150   42.7700 C   0  0  0  0  0  0  0  0  0  0  0  0
   35.8930   27.4800   42.5470 H   0  0  0  0  0  0  0  0  0  0  0  0
   36.5740   25.5730   43.0940 C   0  0  0  0  0  0  0  0  0  0  0  0
   37.6160   24.7030   43.4110 C   0  0  0  0  0  0  0  0  0  0  0  0
   38.8890   25.2290   43.3910 C   0  0  0  0  0  3  0  0  0  0  0  0
   37.0840   23.4500   43.6820 O   0  0  0  0  0  0  0  0  0  0  0  0
   35.7280   23.6710   44.0280 C   0  0  0  0  0  3  0  0  0  0  0  0
   35.0860   22.8010   43.8360 H   0  0  0  0  0  0  0  0  0  0  0  0
   35.4230   24.7730   43.1940 O   0  0  0  0  0  0  0  0  0  0  0  0
   40.3740   33.4340   45.0530 S   0  0  0  0  0  0  0  0  0  0  0  0
   37.7680   31.8090   47.5660 C   0  0  0  0  0  0  0  0  0  0  0  0
   38.0130   32.4640   48.7840 C   0  0  0  0  0  0  0  0  0  0  0  0
   38.9830   33.4280   48.8830 C   0  0  0  0  0  0  0  0  0  0  0  0
   39.6880   33.7070   47.7360 C   0  0  0  0  0  0  0  0  0  0  0  0
   39.4370   33.0600   46.5640 C   0  0  0  0  0  0  0  0  0  0  0  0
   38.4800   32.1060   46.4580 N   0  0  0  0  0  0  0  0  0  0  0  0
   37.4380   32.2210   49.6700 H   0  0  0  0  0  0  0  0  0  0  0  0
   39.2190   33.9690   49.7900 H   0  0  0  0  0  0  0  0  0  0  0  0
   40.4810   34.4520   47.6940 H   0  0  0  0  0  0  0  0  0  0  0  0
   36.7360   30.8110   47.5410 C   0  0  0  0  0  0  0  0  0  0  0  0
   36.2820   30.3760   46.4780 O   0  0  0  0  0  0  0  0  0  0  0  0
   37.0150   29.5720   49.6630 C   0  0  0  0  0  0  0  0  0  0  0  0
   36.1510   30.2410   48.7760 C   0  0  0  0  0  0  0  0  0  0  0  0
   34.7910   30.3450   49.0800 C   0  0  0  0  0  0  0  0  0  0  0  0
   34.3430   29.7870   50.2470 N   0  0  0  0  0  0  0  0  0  0  0  0
   35.1940   29.1480   51.0840 C   0  0  0  0  0  0  0  0  0  0  0  0
   36.5050   29.0460   50.7930 N   0  0  0  0  0  0  0  0  0  0  0  0
   38.0700   29.4720   49.4630 H   0  0  0  0  0  0  0  0  0  0  0  0
   34.1660   30.8570   48.3890 H   0  0  0  0  0  0  0  0  0  0  0  0
   34.9200   28.6900   52.0060 H   0  0  0  0  0  0  0  0  0  0  0  0
  1  2  1  0  0  0  0
  1 27  1  0  0  0  0
  3  1  1  0  0  0  0
  4  9  1  6  0  0  0
  4  8  1  0  0  0  0
  5 11  1  0  0  0  0
  5  4  1  0  0  0  0
  5  6  1  0  0  0  0
  6 12  1  6  0  0  0
  6  1  1  0  0  0  0
  6  7  1  0  0  0  0
  7  8  1  0  0  0  0
  8 14  1  0  0  0  0
  8 13  1  0  0  0  0
 10  5  1  0  0  0  0
 15  4  1  0  0  0  0
 15 17  1  0  0  0  0
 16 22  1  0  0  0  0
 17 18  1  0  0  0  0
 17 16  2  0  0  0  0
 18 20  2  0  0  0  0
 19 18  1  0  0  0  0
 20 26  1  0  0  0  0
 20 21  1  0  0  0  0
 21 23  1  0  0  0  0
 22 21  2  0  0  0  0
 23 24  1  0  0  0  0
 25 24  1  0  0  0  0
 26 24  1  0  0  0  0
 27 32  1  0  0  0  0
 28 29  1  0  0  0  0
 29 30  2  0  0  0  0
 29 34  1  0  0  0  0
 30 35  1  0  0  0  0
 31 30  1  0  0  0  0
 32 31  2  0  0  0  0
 33 32  1  0  0  0  0
 33 28  2  0  0  0  0
 36 31  1  0  0  0  0
 37 28  1  0  0  0  0
 37 40  1  0  0  0  0
 38 37  2  0  0  0  0
 39 44  1  0  0  0  0
 40 41  1  0  0  0  0
 40 39  2  0  0  0  0
 41 42  2  0  0  0  0
 42 43  1  0  0  0  0
 43 47  1  0  0  0  0
 44 43  2  0  0  0  0
 45 39  1  0  0  0  0
 46 41  1  0  0  0  0
M  END
>  <minimizedAffinity>
-5.66294241

>  <minimizedRMSD>
2.31257033

$$$$
