
 OpenBabel03272508263D

 40 44  0  0  1  0  0  0  0  0999 V2000
   33.7780   28.9180   47.2250 C   0  0  2  0  0  0  0  0  0  0  0  0
   34.4950   28.1350   48.3140 C   0  0  2  0  0  0  0  0  0  0  0  0
   33.5970   27.9920   49.3250 O   0  0  0  0  0  0  0  0  0  0  0  0
   32.3180   28.0950   48.8520 C   0  0  0  0  0  0  0  0  0  0  0  0
   32.3870   28.2870   47.3500 C   0  0  1  0  0  0  0  0  0  0  0  0
   33.7200   29.9850   47.4500 H   0  0  0  0  0  0  0  0  0  0  0  0
   34.7510   27.1440   47.8890 H   0  0  0  0  0  0  0  0  0  0  0  0
   31.6910   27.1990   49.1010 H   0  0  0  0  0  0  0  0  0  0  0  0
   31.8040   28.9700   49.2850 H   0  0  0  0  0  0  0  0  0  0  0  0
   32.4810   27.2730   46.8870 H   0  0  0  0  0  0  0  0  0  0  0  0
   35.6120   30.3530   49.0290 C   0  0  1  0  0  0  0  0  0  0  0  0
   35.6810   28.9420   48.7300 C   0  0  1  0  0  0  0  0  0  0  0  0
   35.8940   29.3430   50.1530 C   0  0  0  0  0  0  0  0  0  0  0  0
   34.7020   30.9470   49.2900 H   0  0  0  0  0  0  0  0  0  0  0  0
   36.5980   28.6380   48.1410 H   0  0  0  0  0  0  0  0  0  0  0  0
   35.0980   29.1080   50.8740 H   0  0  0  0  0  0  0  0  0  0  0  0
   36.9420   29.2550   50.5310 H   0  0  0  0  0  0  0  0  0  0  0  0
   36.8010   31.2700   48.7860 C   0  0  0  0  0  0  0  0  0  0  0  0
   37.0470   32.2660   49.7300 C   0  0  0  0  0  0  0  0  0  0  0  0
   38.1290   33.0890   49.4410 C   0  0  0  0  0  0  0  0  0  0  0  0
   38.8740   32.9130   48.3100 N   0  0  0  0  0  0  0  0  0  0  0  0
   38.5950   31.9250   47.4160 C   0  0  0  0  0  0  0  0  0  0  0  0
   37.5420   31.0930   47.6610 N   0  0  0  0  0  0  0  0  0  0  0  0
   36.4590   32.3950   50.6060 H   0  0  0  0  0  0  0  0  0  0  0  0
   38.4200   33.8890   50.0860 H   0  0  0  0  0  0  0  0  0  0  0  0
   39.2110   31.8240   46.5360 H   0  0  0  0  0  0  0  0  0  0  0  0
   34.3100   28.7270   45.9650 O   0  0  0  0  0  0  0  0  0  0  0  0
   34.2470   29.5160   45.3900 H   0  0  0  0  0  0  0  0  0  0  0  0
   31.4110   29.0880   46.8260 O   0  0  0  0  0  0  0  0  0  0  0  0
   29.3660   27.6700   46.9640 C   0  0  0  0  0  3  0  0  0  0  0  0
   30.1320   28.6970   46.4540 C   0  0  0  0  0  0  0  0  0  0  0  0
   29.6240   29.4930   45.4260 C   0  0  0  0  0  0  0  0  0  0  0  0
   30.1580   30.3280   44.9590 H   0  0  0  0  0  0  0  0  0  0  0  0
   28.3710   29.2720   44.9100 C   0  0  0  0  0  0  0  0  0  0  0  0
   27.6180   28.2350   45.4370 C   0  0  0  0  0  0  0  0  0  0  0  0
   28.1050   27.4290   46.4640 C   0  0  0  0  0  3  0  0  0  0  0  0
   26.4040   28.2160   44.7580 O   0  0  0  0  0  0  0  0  0  0  0  0
   26.2520   29.4190   44.0200 C   0  0  0  0  0  3  0  0  0  0  0  0
   25.8490   29.2280   42.9830 H   0  0  0  0  0  0  0  0  0  0  0  0
   27.6050   29.8700   43.9180 O   0  0  0  0  0  0  0  0  0  0  0  0
  1  5  1  0  0  0  0
  1  6  1  1  0  0  0
  1  2  1  0  0  0  0
  2  7  1  6  0  0  0
  2 12  1  0  0  0  0
  2  3  1  0  0  0  0
  4  8  1  0  0  0  0
  4  9  1  0  0  0  0
  4  3  1  0  0  0  0
  5 10  1  6  0  0  0
  5  4  1  0  0  0  0
 11 14  1  6  0  0  0
 11 13  1  0  0  0  0
 12 15  1  6  0  0  0
 12 11  1  0  0  0  0
 12 13  1  0  0  0  0
 13 17  1  0  0  0  0
 13 16  1  0  0  0  0
 18 11  1  0  0  0  0
 18 19  1  0  0  0  0
 19 24  1  0  0  0  0
 20 19  2  0  0  0  0
 20 25  1  0  0  0  0
 21 20  1  0  0  0  0
 22 23  1  0  0  0  0
 22 21  2  0  0  0  0
 23 18  2  0  0  0  0
 26 22  1  0  0  0  0
 27  1  1  0  0  0  0
 28 27  1  0  0  0  0
 29  5  1  0  0  0  0
 31 29  1  0  0  0  0
 31 30  2  0  0  0  0
 32 31  1  0  0  0  0
 33 32  1  0  0  0  0
 34 32  2  0  0  0  0
 34 35  1  0  0  0  0
 35 36  2  0  0  0  0
 36 30  1  0  0  0  0
 37 35  1  0  0  0  0
 38 37  1  0  0  0  0
 39 38  1  0  0  0  0
 40 38  1  0  0  0  0
 40 34  1  0  0  0  0
M  END
>  <minimizedAffinity>
-5.53434849

>  <minimizedRMSD>
1.10331738

$$$$
