
 OpenBabel03272508263D

 40 44  0  0  1  0  0  0  0  0999 V2000
   33.9590   29.0250   47.3290 C   0  0  2  0  0  0  0  0  0  0  0  0
   34.7140   28.2420   48.3920 C   0  0  2  0  0  0  0  0  0  0  0  0
   33.8310   28.0420   49.4070 O   0  0  0  0  0  0  0  0  0  0  0  0
   32.5450   28.1100   48.9470 C   0  0  0  0  0  0  0  0  0  0  0  0
   32.5930   28.3410   47.4500 C   0  0  1  0  0  0  0  0  0  0  0  0
   33.8650   30.0840   47.5820 H   0  0  0  0  0  0  0  0  0  0  0  0
   35.0020   27.2730   47.9410 H   0  0  0  0  0  0  0  0  0  0  0  0
   31.9530   27.1860   49.1800 H   0  0  0  0  0  0  0  0  0  0  0  0
   32.0040   28.9550   49.4060 H   0  0  0  0  0  0  0  0  0  0  0  0
   32.7200   27.3430   46.9610 H   0  0  0  0  0  0  0  0  0  0  0  0
   35.7820   30.5070   49.0370 C   0  0  1  0  0  0  0  0  0  0  0  0
   35.8740   29.0820   48.8180 C   0  0  1  0  0  0  0  0  0  0  0  0
   36.0170   29.5620   50.2260 C   0  0  0  0  0  0  0  0  0  0  0  0
   34.8560   31.1050   49.2220 H   0  0  0  0  0  0  0  0  0  0  0  0
   36.8190   28.7550   48.2900 H   0  0  0  0  0  0  0  0  0  0  0  0
   35.1890   29.3590   50.9210 H   0  0  0  0  0  0  0  0  0  0  0  0
   37.0470   29.5040   50.6560 H   0  0  0  0  0  0  0  0  0  0  0  0
   36.9740   31.4200   48.7990 C   0  0  0  0  0  0  0  0  0  0  0  0
   37.1660   32.4720   49.6950 C   0  0  0  0  0  0  0  0  0  0  0  0
   38.2550   33.2880   49.4110 C   0  0  0  0  0  0  0  0  0  0  0  0
   39.0570   33.0540   48.3310 N   0  0  0  0  0  0  0  0  0  0  0  0
   38.8300   32.0120   47.4840 C   0  0  0  0  0  0  0  0  0  0  0  0
   37.7720   31.1850   47.7240 N   0  0  0  0  0  0  0  0  0  0  0  0
   36.5340   32.6450   50.5310 H   0  0  0  0  0  0  0  0  0  0  0  0
   38.5070   34.1270   50.0220 H   0  0  0  0  0  0  0  0  0  0  0  0
   39.4900   31.8660   46.6430 H   0  0  0  0  0  0  0  0  0  0  0  0
   34.4860   28.8850   46.0600 O   0  0  0  0  0  0  0  0  0  0  0  0
   34.3890   29.6850   45.5060 H   0  0  0  0  0  0  0  0  0  0  0  0
   31.5840   29.1190   46.9540 O   0  0  0  0  0  0  0  0  0  0  0  0
   30.7720   28.1190   44.8200 C   0  0  0  0  0  3  0  0  0  0  0  0
   30.6090   28.7280   46.0460 C   0  0  0  0  0  0  0  0  0  0  0  0
   29.3250   29.0210   46.5060 C   0  0  0  0  0  0  0  0  0  0  0  0
   29.0970   29.5030   47.4650 H   0  0  0  0  0  0  0  0  0  0  0  0
   28.2150   28.7150   45.7570 C   0  0  0  0  0  0  0  0  0  0  0  0
   28.4030   28.1050   44.5270 C   0  0  0  0  0  0  0  0  0  0  0  0
   29.6750   27.8020   44.0500 C   0  0  0  0  0  3  0  0  0  0  0  0
   27.1440   27.8990   43.9690 O   0  0  0  0  0  0  0  0  0  0  0  0
   26.1470   28.0900   44.9610 C   0  0  0  0  0  3  0  0  0  0  0  0
   25.2720   28.6850   44.5690 H   0  0  0  0  0  0  0  0  0  0  0  0
   26.8470   28.8730   45.9310 O   0  0  0  0  0  0  0  0  0  0  0  0
  1  5  1  0  0  0  0
  1  6  1  1  0  0  0
  1  2  1  0  0  0  0
  2  7  1  6  0  0  0
  2 12  1  0  0  0  0
  2  3  1  0  0  0  0
  4  8  1  0  0  0  0
  4  9  1  0  0  0  0
  4  3  1  0  0  0  0
  5 10  1  6  0  0  0
  5  4  1  0  0  0  0
 11 14  1  6  0  0  0
 11 13  1  0  0  0  0
 12 15  1  6  0  0  0
 12 11  1  0  0  0  0
 12 13  1  0  0  0  0
 13 17  1  0  0  0  0
 13 16  1  0  0  0  0
 18 11  1  0  0  0  0
 18 19  1  0  0  0  0
 19 24  1  0  0  0  0
 20 19  2  0  0  0  0
 20 25  1  0  0  0  0
 21 20  1  0  0  0  0
 22 23  1  0  0  0  0
 22 21  2  0  0  0  0
 23 18  2  0  0  0  0
 26 22  1  0  0  0  0
 27  1  1  0  0  0  0
 28 27  1  0  0  0  0
 29  5  1  0  0  0  0
 30 31  1  0  0  0  0
 31 32  2  0  0  0  0
 31 29  1  0  0  0  0
 32 33  1  0  0  0  0
 34 40  1  0  0  0  0
 34 32  1  0  0  0  0
 35 34  2  0  0  0  0
 36 35  1  0  0  0  0
 36 30  2  0  0  0  0
 37 35  1  0  0  0  0
 37 38  1  0  0  0  0
 38 40  1  0  0  0  0
 39 38  1  0  0  0  0
M  END
>  <minimizedAffinity>
-5.4395299

>  <minimizedRMSD>
0.278094411

$$$$
