
 OpenBabel03262521353D

 39 43  0  0  1  0  0  0  0  0999 V2000
   38.4560   31.4950   45.3610 C   0  0  1  0  0  0  0  0  0  0  0  0
   38.8430   32.4570   46.4010 C   0  0  2  0  0  0  0  0  0  0  0  0
   40.2940   32.8210   46.0440 C   0  0  0  0  0  0  0  0  0  0  0  0
   40.7860   31.6030   45.6680 O   0  0  0  0  0  0  0  0  0  0  0  0
   39.8240   30.8800   45.0140 C   0  0  0  0  0  0  0  0  0  0  0  0
   38.0560   32.0320   44.4980 H   0  0  0  0  0  0  0  0  0  0  0  0
   38.2880   33.4190   46.2600 H   0  0  0  0  0  0  0  0  0  0  0  0
   40.3380   33.6050   45.2760 H   0  0  0  0  0  0  0  0  0  0  0  0
   40.8070   33.1510   46.9740 H   0  0  0  0  0  0  0  0  0  0  0  0
   39.8300   29.7930   45.2850 H   0  0  0  0  0  0  0  0  0  0  0  0
   39.9040   30.8940   43.9090 H   0  0  0  0  0  0  0  0  0  0  0  0
   37.5980   32.4090   48.6940 C   0  0  1  0  0  0  0  0  0  0  0  0
   38.8350   33.1370   48.8400 C   0  0  0  0  0  0  0  0  0  0  0  0
   38.7790   31.9720   47.8290 C   0  0  2  0  0  0  0  0  0  0  0  0
   36.7660   32.7700   48.0370 H   0  0  0  0  0  0  0  0  0  0  0  0
   38.9630   34.1580   48.4780 H   0  0  0  0  0  0  0  0  0  0  0  0
   39.4690   32.9020   49.7280 H   0  0  0  0  0  0  0  0  0  0  0  0
   39.3110   31.0480   48.0560 H   0  0  0  0  0  0  0  0  0  0  0  0
   35.5350   29.8160   50.4320 C   0  0  0  0  0  0  0  0  0  0  0  0
   35.9150   30.7910   49.5230 C   0  0  0  0  0  0  0  0  0  0  0  0
   37.1700   31.3640   49.6420 C   0  0  0  0  0  0  0  0  0  0  0  0
   37.9740   30.9280   50.6660 N   0  0  0  0  0  0  0  0  0  0  0  0
   37.5930   29.9750   51.5500 C   0  0  0  0  0  0  0  0  0  0  0  0
   36.3510   29.4060   51.4340 N   0  0  0  0  0  0  0  0  0  0  0  0
   34.5500   29.3740   50.3280 H   0  0  0  0  0  0  0  0  0  0  0  0
   35.3020   31.1560   48.7230 H   0  0  0  0  0  0  0  0  0  0  0  0
   38.3060   29.7070   52.3190 H   0  0  0  0  0  0  0  0  0  0  0  0
   37.6050   30.4800   45.7690 O   0  0  0  0  0  0  0  0  0  0  0  0
   35.8030   30.7360   44.1510 C   0  0  0  0  0  0  0  0  0  0  0  0
   36.2610   30.4100   45.4290 C   0  0  0  0  0  0  0  0  0  0  0  0
   35.2380   30.0310   46.2440 C   0  0  0  0  0  0  0  0  0  0  0  0
   35.4100   29.7450   47.2670 H   0  0  0  0  0  0  0  0  0  0  0  0
   33.9090   29.9660   45.8890 C   0  0  0  0  0  0  0  0  0  0  0  0
   33.5260   30.2970   44.6240 C   0  0  0  0  0  0  0  0  0  0  0  0
   34.4940   30.6900   43.7350 C   0  0  0  0  0  0  0  0  0  0  0  0
   32.1600   30.1640   44.4770 O   0  0  0  0  0  0  0  0  0  0  0  0
   31.6140   30.0560   45.7800 C   0  0  0  0  0  0  0  0  0  0  0  0
   31.3510   31.0620   46.2030 H   0  0  0  0  0  0  0  0  0  0  0  0
   32.7320   29.6160   46.5440 O   0  0  0  0  0  0  0  0  0  0  0  0
  1  6  1  6  0  0  0
  1 28  1  0  0  0  0
  1  2  1  0  0  0  0
  2  7  1  6  0  0  0
  2 14  1  0  0  0  0
  3  2  1  0  0  0  0
  3  9  1  0  0  0  0
  4  3  1  0  0  0  0
  5 10  1  0  0  0  0
  5  1  1  0  0  0  0
  5  4  1  0  0  0  0
  8  3  1  0  0  0  0
 11  5  1  0  0  0  0
 12 15  1  6  0  0  0
 12 13  1  0  0  0  0
 12 21  1  0  0  0  0
 13 17  1  0  0  0  0
 14 18  1  1  0  0  0
 14 12  1  0  0  0  0
 14 13  1  0  0  0  0
 16 13  1  0  0  0  0
 19 24  1  0  0  0  0
 20 21  1  0  0  0  0
 20 19  2  0  0  0  0
 21 22  2  0  0  0  0
 22 23  1  0  0  0  0
 23 27  1  0  0  0  0
 24 23  2  0  0  0  0
 25 19  1  0  0  0  0
 26 20  1  0  0  0  0
 29 30  1  0  0  0  0
 30 28  1  0  0  0  0
 30 31  2  0  0  0  0
 31 32  1  0  0  0  0
 33 31  1  0  0  0  0
 33 39  1  0  0  0  0
 34 33  2  0  0  0  0
 35 29  2  0  0  0  0
 35 34  1  0  0  0  0
 36 34  1  0  0  0  0
 36 37  1  0  0  0  0
 37 38  1  0  0  0  0
 37 39  1  0  0  0  0
M  END
>  <minimizedAffinity>
-5.99148655

>  <minimizedRMSD>
1.14702332

$$$$
