
 OpenBabel03272508263D

 40 44  0  0  1  0  0  0  0  0999 V2000
   33.8260   28.9010   47.2430 C   0  0  2  0  0  0  0  0  0  0  0  0
   34.5400   28.1390   48.3490 C   0  0  2  0  0  0  0  0  0  0  0  0
   33.6350   28.0020   49.3540 O   0  0  0  0  0  0  0  0  0  0  0  0
   32.3590   28.0880   48.8690 C   0  0  0  0  0  0  0  0  0  0  0  0
   32.4390   28.2610   47.3660 C   0  0  1  0  0  0  0  0  0  0  0  0
   33.7580   29.9710   47.4540 H   0  0  0  0  0  0  0  0  0  0  0  0
   34.8080   27.1450   47.9390 H   0  0  0  0  0  0  0  0  0  0  0  0
   31.7380   27.1910   49.1260 H   0  0  0  0  0  0  0  0  0  0  0  0
   31.8350   28.9650   49.2860 H   0  0  0  0  0  0  0  0  0  0  0  0
   32.5450   27.2410   46.9180 H   0  0  0  0  0  0  0  0  0  0  0  0
   35.6340   30.3770   49.0420 C   0  0  1  0  0  0  0  0  0  0  0  0
   35.7160   28.9620   48.7640 C   0  0  1  0  0  0  0  0  0  0  0  0
   35.9130   29.3850   50.1830 C   0  0  0  0  0  0  0  0  0  0  0  0
   34.7160   30.9660   49.2860 H   0  0  0  0  0  0  0  0  0  0  0  0
   36.6410   28.6560   48.1880 H   0  0  0  0  0  0  0  0  0  0  0  0
   35.1120   29.1540   50.9000 H   0  0  0  0  0  0  0  0  0  0  0  0
   36.9580   29.3100   50.5710 H   0  0  0  0  0  0  0  0  0  0  0  0
   36.8180   31.2990   48.7960 C   0  0  0  0  0  0  0  0  0  0  0  0
   37.0600   32.2980   49.7380 C   0  0  0  0  0  0  0  0  0  0  0  0
   38.1370   33.1260   49.4460 C   0  0  0  0  0  0  0  0  0  0  0  0
   38.8820   32.9520   48.3150 N   0  0  0  0  0  0  0  0  0  0  0  0
   38.6070   31.9610   47.4230 C   0  0  0  0  0  0  0  0  0  0  0  0
   37.5580   31.1240   47.6700 N   0  0  0  0  0  0  0  0  0  0  0  0
   36.4720   32.4250   50.6150 H   0  0  0  0  0  0  0  0  0  0  0  0
   38.4240   33.9290   50.0900 H   0  0  0  0  0  0  0  0  0  0  0  0
   39.2220   31.8610   46.5420 H   0  0  0  0  0  0  0  0  0  0  0  0
   34.3700   28.6970   45.9910 O   0  0  0  0  0  0  0  0  0  0  0  0
   34.3050   29.4780   45.4040 H   0  0  0  0  0  0  0  0  0  0  0  0
   31.4610   29.0470   46.8230 O   0  0  0  0  0  0  0  0  0  0  0  0
   29.5150   27.4910   46.7480 C   0  0  0  0  0  3  0  0  0  0  0  0
   30.2080   28.6290   46.3930 C   0  0  0  0  0  0  0  0  0  0  0  0
   29.6440   29.5280   45.4890 C   0  0  0  0  0  0  0  0  0  0  0  0
   30.1190   30.4570   45.1490 H   0  0  0  0  0  0  0  0  0  0  0  0
   28.4050   29.3020   44.9420 C   0  0  0  0  0  0  0  0  0  0  0  0
   27.7250   28.1530   45.3110 C   0  0  0  0  0  0  0  0  0  0  0  0
   28.2700   27.2410   46.2120 C   0  0  0  0  0  3  0  0  0  0  0  0
   26.5110   28.1510   44.6320 O   0  0  0  0  0  0  0  0  0  0  0  0
   26.2760   29.4340   44.0740 C   0  0  0  0  0  3  0  0  0  0  0  0
   25.8800   29.3690   43.0180 H   0  0  0  0  0  0  0  0  0  0  0  0
   27.5950   29.9840   44.0430 O   0  0  0  0  0  0  0  0  0  0  0  0
  1  5  1  0  0  0  0
  1  6  1  1  0  0  0
  1  2  1  0  0  0  0
  2  7  1  6  0  0  0
  2 12  1  0  0  0  0
  2  3  1  0  0  0  0
  4  8  1  0  0  0  0
  4  9  1  0  0  0  0
  4  3  1  0  0  0  0
  5 10  1  6  0  0  0
  5  4  1  0  0  0  0
 11 14  1  6  0  0  0
 11 13  1  0  0  0  0
 12 15  1  6  0  0  0
 12 11  1  0  0  0  0
 12 13  1  0  0  0  0
 13 17  1  0  0  0  0
 13 16  1  0  0  0  0
 18 11  1  0  0  0  0
 18 19  1  0  0  0  0
 19 24  1  0  0  0  0
 20 19  2  0  0  0  0
 20 25  1  0  0  0  0
 21 20  1  0  0  0  0
 22 23  1  0  0  0  0
 22 21  2  0  0  0  0
 23 18  2  0  0  0  0
 26 22  1  0  0  0  0
 27  1  1  0  0  0  0
 28 27  1  0  0  0  0
 29  5  1  0  0  0  0
 31 30  1  0  0  0  0
 31 29  1  0  0  0  0
 32 31  2  0  0  0  0
 33 32  1  0  0  0  0
 34 35  2  0  0  0  0
 34 32  1  0  0  0  0
 35 36  1  0  0  0  0
 36 30  2  0  0  0  0
 37 35  1  0  0  0  0
 38 37  1  0  0  0  0
 39 38  1  0  0  0  0
 40 38  1  0  0  0  0
 40 34  1  0  0  0  0
M  END
>  <minimizedAffinity>
-5.51214123

>  <minimizedRMSD>
0.896987915

$$$$
